CVD-0004066|dock_bobby27042020.71|mol2|44|dock2
     RDKit          3D

 23 26  0  0  0  0  0  0  0  0999 V2000
    5.8553   -1.3905   19.1356 C   0  0  0  0  0  0  0  0  0  0  0  0
    6.9577   -0.7132   19.8869 C   0  0  0  0  0  0  0  0  0  0  0  0
    6.9770    0.6945   20.0227 C   0  0  0  0  0  0  0  0  0  0  0  0
    7.9731    1.2809   20.7078 C   0  0  0  0  0  0  0  0  0  0  0  0
    8.9580    0.4868   21.2665 N   0  0  0  0  0  0  0  0  0  0  0  0
   10.1037    0.7694   22.0300 C   0  0  0  0  0  0  0  0  0  0  0  0
   10.4715    2.1393   22.4558 C   0  0  0  0  0  0  0  0  0  0  0  0
    9.6199    3.1312   22.9848 C   0  0  0  0  0  0  0  0  0  0  0  0
   10.2514    4.2605   23.2545 N   0  0  0  0  0  0  0  0  0  0  0  0
   11.5384    4.0053   22.9359 N   0  0  0  0  0  0  0  0  0  0  0  0
   12.5478    5.0453   23.0935 C   0  0  0  0  0  0  0  0  0  0  0  0
   11.7076    2.7674   22.4578 C   0  0  0  0  0  0  0  0  0  0  0  0
   10.6872   -0.4820   22.2367 C   0  0  0  0  0  0  0  0  0  0  0  0
    9.9237   -1.4850   21.6734 N   0  0  0  0  0  0  0  0  0  0  0  0
    8.8925   -0.8933   21.0886 C   0  0  0  0  0  0  0  0  0  0  0  0
    7.9002   -1.4931   20.4072 N   0  0  0  0  0  0  0  0  0  0  0  0
   11.9119   -0.9474   22.9217 C   0  0  0  0  0  0  0  0  0  0  0  0
   12.4297   -0.3119   24.0442 C   0  0  0  0  0  0  0  0  0  0  0  0
   13.5483   -0.8037   24.6933 C   0  0  0  0  0  0  0  0  0  0  0  0
   14.1660   -1.9095   24.1773 C   0  0  0  0  0  0  0  0  0  0  0  0
   15.2654   -2.3987   24.8118 F   0  0  0  0  0  0  0  0  0  0  0  0
   13.7242   -2.5419   23.0480 C   0  0  0  0  0  0  0  0  0  0  0  0
   12.5928   -2.0519   22.4206 C   0  0  0  0  0  0  0  0  0  0  0  0
  1  2  1  0
  2  3  1  0
  3  4  2  0
  4  5  1  0
  5  6  1  0
  6  7  1  0
  7  8  1  0
  8  9  2  0
  9 10  1  0
 10 11  1  0
 10 12  1  0
  6 13  2  0
 13 14  1  0
 14 15  2  0
 15 16  1  0
 13 17  1  0
 17 18  2  0
 18 19  1  0
 19 20  2  0
 20 21  1  0
 20 22  1  0
 22 23  2  0
 16  2  2  0
 23 17  1  0
 15  5  1  0
 12  7  2  0
M  END
