CVD-0002630|dock_bobby27042020.19|mol2|13|dock3
     RDKit          3D

 19 20  0  0  0  0  0  0  0  0999 V2000
    9.6734   -1.9445   23.5183 O   0  0  0  0  0  0  0  0  0  0  0  0
   10.4912   -1.4050   22.8051 C   0  0  0  0  0  0  0  0  0  0  0  0
   10.1455   -0.9737   21.4015 C   0  0  0  0  0  0  0  0  0  0  0  0
    8.7319   -1.3476   21.0019 C   0  0  0  0  0  0  0  0  0  0  0  0
    7.7211   -0.6551   21.8030 N   0  0  0  0  0  0  0  0  0  0  0  0
    6.4298   -1.2801   21.6657 C   0  0  0  0  0  0  0  0  0  0  0  0
    6.0390   -1.5362   20.2978 N   0  0  0  0  0  0  0  0  0  0  0  0
    5.8866   -0.5564   19.3368 C   0  0  0  0  0  0  0  0  0  0  0  0
    6.0309   -0.8149   17.9796 C   0  0  0  0  0  0  0  0  0  0  0  0
    5.8873    0.1251   17.0420 N   0  0  0  0  0  0  0  0  0  0  0  0
    5.5921    1.3422   17.4873 C   0  0  0  0  0  0  0  0  0  0  0  0
    5.4267    1.7189   18.7512 N   0  0  0  0  0  0  0  0  0  0  0  0
    5.5775    0.7571   19.6653 C   0  0  0  0  0  0  0  0  0  0  0  0
   11.8910   -1.1360   23.2792 C   0  0  0  0  0  0  0  0  0  0  0  0
   12.7866   -2.3153   22.9786 C   0  0  0  0  0  0  0  0  0  0  0  0
   14.1891   -2.0941   23.5355 C   0  0  0  0  0  0  0  0  0  0  0  0
   14.1547   -1.8040   25.0134 C   0  0  0  0  0  0  0  0  0  0  0  0
   13.2446   -0.6390   25.3232 C   0  0  0  0  0  0  0  0  0  0  0  0
   11.8436   -0.8519   24.7657 C   0  0  0  0  0  0  0  0  0  0  0  0
  1  2  2  0
  2  3  1  0
  3  4  1  0
  4  5  1  0
  5  6  1  0
  6  7  1  0
  7  8  1  0
  8  9  2  0
  9 10  1  0
 10 11  2  0
 11 12  1  0
 12 13  2  0
  2 14  1  0
 14 15  1  0
 15 16  1  0
 16 17  1  0
 17 18  1  0
 18 19  1  0
 13  8  1  0
 19 14  1  0
M  END
