CVD-0004061|dock_bobby27042020.43|mol2|16|dock3
     RDKit          3D

 23 26  0  0  0  0  0  0  0  0999 V2000
    5.7394   -1.8554   21.3627 C   0  0  0  0  0  0  0  0  0  0  0  0
    7.1373   -1.4751   21.7361 C   0  0  0  0  0  0  0  0  0  0  0  0
    8.0689   -2.4630   22.1343 C   0  0  0  0  0  0  0  0  0  0  0  0
    9.3201   -2.0984   22.4615 C   0  0  0  0  0  0  0  0  0  0  0  0
    9.6625   -0.7606   22.3962 N   0  0  0  0  0  0  0  0  0  0  0  0
   10.8434   -0.0652   22.6678 C   0  0  0  0  0  0  0  0  0  0  0  0
   10.5341    1.2617   22.4127 C   0  0  0  0  0  0  0  0  0  0  0  0
    9.2160    1.3911   22.0181 N   0  0  0  0  0  0  0  0  0  0  0  0
    8.7020    0.1681   22.0051 C   0  0  0  0  0  0  0  0  0  0  0  0
    7.4464   -0.1829   21.6747 N   0  0  0  0  0  0  0  0  0  0  0  0
   11.3225    2.5120   22.4744 C   0  0  0  0  0  0  0  0  0  0  0  0
   12.7136    2.5310   22.4353 C   0  0  0  0  0  0  0  0  0  0  0  0
   13.4153    3.7191   22.5371 C   0  0  0  0  0  0  0  0  0  0  0  0
   12.7097    4.8860   22.6428 C   0  0  0  0  0  0  0  0  0  0  0  0
   13.3954    6.0565   22.7440 F   0  0  0  0  0  0  0  0  0  0  0  0
   11.3428    4.9235   22.6494 C   0  0  0  0  0  0  0  0  0  0  0  0
   10.6525    3.7278   22.5627 C   0  0  0  0  0  0  0  0  0  0  0  0
   12.0820   -0.7369   23.1354 C   0  0  0  0  0  0  0  0  0  0  0  0
   12.6686   -1.7766   22.4212 C   0  0  0  0  0  0  0  0  0  0  0  0
   13.8120   -2.3723   22.9160 C   0  0  0  0  0  0  0  0  0  0  0  0
   14.4080   -2.0092   24.0512 N   0  0  0  0  0  0  0  0  0  0  0  0
   13.8455   -1.0080   24.7270 C   0  0  0  0  0  0  0  0  0  0  0  0
   12.7016   -0.3509   24.3190 C   0  0  0  0  0  0  0  0  0  0  0  0
  1  2  1  0
  2  3  1  0
  3  4  2  0
  4  5  1  0
  5  6  1  0
  6  7  2  0
  7  8  1  0
  8  9  2  0
  9 10  1  0
  7 11  1  0
 11 12  2  0
 12 13  1  0
 13 14  2  0
 14 15  1  0
 14 16  1  0
 16 17  2  0
  6 18  1  0
 18 19  2  0
 19 20  1  0
 20 21  2  0
 21 22  1  0
 22 23  2  0
 10  2  2  0
 17 11  1  0
 23 18  1  0
  9  5  1  0
M  END
