CVD-0000460|dock_bobby27042020.27|mol2|10|dock2
     RDKit          3D

 29 32  0  0  0  0  0  0  0  0999 V2000
   13.4436   -2.5078   20.9723 O   0  0  0  0  0  0  0  0  0  0  0  0
   13.0735   -1.8559   22.1123 C   0  0  0  0  0  0  0  0  0  0  0  0
   13.9389   -1.8192   23.1959 C   0  0  0  0  0  0  0  0  0  0  0  0
   13.5211   -1.1507   24.3199 C   0  0  0  0  0  0  0  0  0  0  0  0
   14.3583   -1.1049   25.3912 F   0  0  0  0  0  0  0  0  0  0  0  0
   12.3025   -0.5260   24.4190 C   0  0  0  0  0  0  0  0  0  0  0  0
   11.4398   -0.5674   23.3314 C   0  0  0  0  0  0  0  0  0  0  0  0
   10.0925    0.1099   23.3987 C   0  0  0  0  0  0  0  0  0  0  0  0
    9.8981    1.1821   22.3264 C   0  0  0  0  0  0  0  0  0  0  0  0
    8.5338    1.6207   22.3572 O   0  0  0  0  0  0  0  0  0  0  0  0
    8.4668    3.0481   22.3237 C   0  0  0  0  0  0  0  0  0  0  0  0
    9.8719    3.5182   22.5792 C   0  0  0  0  0  0  0  0  0  0  0  0
   10.7218    2.4251   22.5258 C   0  0  0  0  0  0  0  0  0  0  0  0
   12.0992    2.5945   22.6291 C   0  0  0  0  0  0  0  0  0  0  0  0
   12.5756    3.8735   22.7844 C   0  0  0  0  0  0  0  0  0  0  0  0
   13.9173    4.0506   22.9242 F   0  0  0  0  0  0  0  0  0  0  0  0
   11.7634    4.9811   22.8418 C   0  0  0  0  0  0  0  0  0  0  0  0
   10.3837    4.8114   22.7382 C   0  0  0  0  0  0  0  0  0  0  0  0
    9.4670    6.0138   22.7729 C   0  0  0  0  0  0  0  0  0  0  0  0
    9.1893    6.5131   24.1644 C   0  0  0  0  0  0  0  0  0  0  0  0
    8.2346    7.6187   24.1057 N   0  0  0  0  0  0  0  0  0  0  0  0
    7.0285    7.3000   23.3445 C   0  0  0  0  0  0  0  0  0  0  0  0
    7.4019    6.7573   21.9971 C   0  0  0  0  0  0  0  0  0  0  0  0
    8.2719    5.6427   22.1012 O   0  0  0  0  0  0  0  0  0  0  0  0
    8.4636    8.8169   24.6808 C   0  0  0  0  0  0  0  0  0  0  0  0
    9.4917    9.0538   25.3024 O   0  0  0  0  0  0  0  0  0  0  0  0
    7.3804    9.8643   24.5126 C   0  0  0  0  0  0  0  0  0  0  0  0
    7.7830   11.3286   25.4187 Cl  0  0  0  0  0  0  0  0  0  0  0  0
   11.8344   -1.2350   22.1789 C   0  0  0  0  0  0  0  0  0  0  0  0
  1  2  1  0
  2  3  2  0
  3  4  1  0
  4  5  1  0
  4  6  2  0
  6  7  1  0
  7  8  1  0
  9  8  1  0
  9 10  1  0
 10 11  1  0
 11 12  1  0
 12 13  2  0
 13 14  1  0
 14 15  2  0
 15 16  1  0
 15 17  1  0
 17 18  2  0
 19 18  1  0
 19 20  1  0
 20 21  1  0
 21 22  1  0
 22 23  1  0
 23 24  1  0
 21 25  1  0
 25 26  2  0
 25 27  1  0
 27 28  1  0
  7 29  2  0
 29  2  1  0
 13  9  1  0
 24 19  1  0
 18 12  1  0
M  END
