CVD-0001247|dock_bobby27042020.96|mol2|2|dock2
     RDKit          3D

 22 24  0  0  0  0  0  0  0  0999 V2000
    6.9448   -5.8423   21.5999 C   0  0  0  0  0  0  0  0  0  0  0  0
    6.4441   -4.7746   22.5214 C   0  0  0  0  0  0  0  0  0  0  0  0
    7.1734   -3.5307   22.3403 N   0  0  0  0  0  0  0  0  0  0  0  0
    6.8653   -2.6389   21.3837 C   0  0  0  0  0  0  0  0  0  0  0  0
    6.1774   -3.1070   20.3231 N   0  0  0  0  0  0  0  0  0  0  0  0
    5.8573   -2.2441   19.3524 C   0  0  0  0  0  0  0  0  0  0  0  0
    6.1950   -0.8963   19.3802 C   0  0  0  0  0  0  0  0  0  0  0  0
    6.9034   -0.4252   20.4796 C   0  0  0  0  0  0  0  0  0  0  0  0
    7.2544   -1.2891   21.5103 C   0  0  0  0  0  0  0  0  0  0  0  0
    8.0303   -0.7524   22.6999 C   0  0  0  0  0  0  0  0  0  0  0  0
    9.5151   -1.0513   22.6595 C   0  0  0  0  0  0  0  0  0  0  0  0
   10.1326   -1.4330   21.4756 C   0  0  0  0  0  0  0  0  0  0  0  0
   11.4896   -1.7107   21.4326 C   0  0  0  0  0  0  0  0  0  0  0  0
   12.2532   -1.6077   22.5904 C   0  0  0  0  0  0  0  0  0  0  0  0
   13.7175   -1.8470   22.8170 C   0  0  0  0  0  0  0  0  0  0  0  0
   13.8418   -1.5500   24.2276 N   0  0  0  0  0  0  0  0  0  0  0  0
   12.6899   -1.1990   24.8281 C   0  0  0  0  0  0  0  0  0  0  0  0
   12.5728   -0.9017   26.0125 O   0  0  0  0  0  0  0  0  0  0  0  0
   11.6503   -1.2284   23.7761 C   0  0  0  0  0  0  0  0  0  0  0  0
   10.2851   -0.9502   23.8138 C   0  0  0  0  0  0  0  0  0  0  0  0
    5.8247   -0.0097   18.3050 C   0  0  0  0  0  0  0  0  0  0  0  0
    5.5384    0.6684   17.4314 N   0  0  0  0  0  0  0  0  0  0  0  0
  1  2  1  0
  2  3  1  0
  3  4  1  0
  4  5  2  0
  5  6  1  0
  6  7  2  0
  7  8  1  0
  8  9  2  0
  9 10  1  0
 10 11  1  0
 11 12  2  0
 12 13  1  0
 13 14  2  0
 14 15  1  0
 15 16  1  0
 16 17  1  0
 17 18  2  0
 17 19  1  0
 19 20  2  0
  7 21  1  0
 21 22  3  0
  9  4  1  0
 20 11  1  0
 19 14  1  0
M  END
