CVD-0003092|dock_bobby27042020.32|mol2|9|dock3
     RDKit          3D

 24 26  0  0  0  0  0  0  0  0999 V2000
    4.6776    1.7179   20.8809 C   0  0  0  0  0  0  0  0  0  0  0  0
    5.4410    1.4699   19.6053 C   0  0  0  0  0  0  0  0  0  0  0  0
    4.8995    1.9286   18.4082 C   0  0  0  0  0  0  0  0  0  0  0  0
    5.5755    1.7195   17.2272 C   0  0  0  0  0  0  0  0  0  0  0  0
    6.7448    1.0896   17.1619 N   0  0  0  0  0  0  0  0  0  0  0  0
    7.2756    0.6450   18.3053 C   0  0  0  0  0  0  0  0  0  0  0  0
    6.6797    0.8012   19.5571 C   0  0  0  0  0  0  0  0  0  0  0  0
    7.2429    0.3299   20.7761 N   0  0  0  0  0  0  0  0  0  0  0  0
    8.1392   -0.6618   21.0039 C   0  0  0  0  0  0  0  0  0  0  0  0
    8.6589   -1.3742   20.1516 O   0  0  0  0  0  0  0  0  0  0  0  0
    8.4768   -0.8350   22.4684 C   0  0  0  0  0  0  0  0  0  0  0  0
    9.7052   -1.7142   22.7122 C   0  0  0  0  0  0  0  0  0  0  0  0
   10.1240   -1.7917   24.1937 C   0  0  0  0  0  0  0  0  0  0  0  0
   11.6611   -1.9735   24.1790 C   0  0  0  0  0  0  0  0  0  0  0  0
   12.0660   -2.0930   22.7012 C   0  0  0  0  0  0  0  0  0  0  0  0
   10.9856   -1.2636   21.9894 C   0  0  0  0  0  0  0  0  0  0  0  0
   11.1853    0.2101   22.2746 C   0  0  0  0  0  0  0  0  0  0  0  0
   12.2539    0.7498   23.0505 C   0  0  0  0  0  0  0  0  0  0  0  0
   12.2274    2.1070   23.1690 C   0  0  0  0  0  0  0  0  0  0  0  0
   10.8935    2.7375   22.3281 S   0  0  0  0  0  0  0  0  0  0  0  0
   10.3706    1.2031   21.8163 C   0  0  0  0  0  0  0  0  0  0  0  0
   13.5048   -1.7247   22.3890 C   0  0  0  0  0  0  0  0  0  0  0  0
   13.7897   -1.5812   21.1046 N   0  0  0  0  0  0  0  0  0  0  0  0
   14.3513   -1.5651   23.2714 O   0  0  0  0  0  0  0  0  0  0  0  0
  1  2  1  0
  2  3  2  0
  3  4  1  0
  4  5  2  0
  5  6  1  0
  6  7  2  0
  7  8  1  0
  8  9  1  0
  9 10  2  0
  9 11  1  0
 12 11  1  0
 12 13  1  0
 13 14  1  0
 14 15  1  0
 15 16  1  0
 16 17  1  0
 17 18  1  0
 18 19  2  0
 19 20  1  0
 20 21  1  0
 15 22  1  0
 22 23  1  0
 22 24  2  0
  7  2  1  0
 16 12  1  0
 21 17  2  0
M  END
