CVD-0001892|dock_bobby27042020.36|mol2|36|dock2
     RDKit          3D

 36 38  0  0  0  0  0  0  0  0999 V2000
   13.4594    4.2465   22.9653 C   0  0  0  0  0  0  0  0  0  0  0  0
   13.7399    2.8505   23.0476 O   0  0  0  0  0  0  0  0  0  0  0  0
   12.7376    1.9309   22.8630 C   0  0  0  0  0  0  0  0  0  0  0  0
   13.0137    0.6047   23.1459 C   0  0  0  0  0  0  0  0  0  0  0  0
   12.0436   -0.3682   22.9799 C   0  0  0  0  0  0  0  0  0  0  0  0
   10.7752   -0.0087   22.5228 C   0  0  0  0  0  0  0  0  0  0  0  0
    9.7310   -0.9454   22.3289 N   0  0  0  0  0  0  0  0  0  0  0  0
    9.0429   -2.0698   22.0262 C   0  0  0  0  0  0  0  0  0  0  0  0
    9.5601   -3.1019   21.6063 O   0  0  0  0  0  0  0  0  0  0  0  0
    7.5225   -1.9688   22.2645 C   0  0  0  0  0  0  0  0  0  0  0  0
    6.9576   -3.3182   22.5385 N   0  0  0  0  0  0  0  0  0  0  0  0
    6.2671   -4.0718   21.5863 C   0  0  0  0  0  0  0  0  0  0  0  0
    6.1208   -3.5904   20.4639 O   0  0  0  0  0  0  0  0  0  0  0  0
    5.6686   -5.4420   21.7124 C   0  0  0  0  0  0  0  0  0  0  0  0
    5.1873   -6.0421   22.7711 C   0  0  0  0  0  0  0  0  0  0  0  0
    7.1419   -3.8461   23.8639 C   0  0  0  0  0  0  0  0  0  0  0  0
    7.8916   -4.9997   24.0700 C   0  0  0  0  0  0  0  0  0  0  0  0
    8.0747   -5.5219   25.3381 C   0  0  0  0  0  0  0  0  0  0  0  0
    7.5022   -4.8844   26.4244 C   0  0  0  0  0  0  0  0  0  0  0  0
    6.7505   -3.7361   26.2491 C   0  0  0  0  0  0  0  0  0  0  0  0
    6.5741   -3.2278   24.9744 C   0  0  0  0  0  0  0  0  0  0  0  0
    7.7376   -5.5557   28.0826 S   0  0  0  0  0  0  0  0  0  0  0  0
    9.1990   -5.5227   28.6871 F   0  0  0  0  0  0  0  0  0  0  0  0
    8.0125   -4.5319   29.2566 F   0  0  0  0  0  0  0  0  0  0  0  0
    6.8786   -6.8195   28.4915 F   0  0  0  0  0  0  0  0  0  0  0  0
    6.5784   -5.3334   29.1357 F   0  0  0  0  0  0  0  0  0  0  0  0
    8.4981   -6.9364   28.2142 F   0  0  0  0  0  0  0  0  0  0  0  0
    6.7433   -1.1395   21.2505 C   0  0  0  0  0  0  0  0  0  0  0  0
    7.2185   -0.8728   19.9743 C   0  0  0  0  0  0  0  0  0  0  0  0
    6.4614   -0.1080   19.1038 C   0  0  0  0  0  0  0  0  0  0  0  0
    5.2431    0.3662   19.5345 C   0  0  0  0  0  0  0  0  0  0  0  0
    4.7542    0.1237   20.7513 N   0  0  0  0  0  0  0  0  0  0  0  0
    5.5032   -0.6145   21.5757 C   0  0  0  0  0  0  0  0  0  0  0  0
   10.4868    1.3305   22.2326 C   0  0  0  0  0  0  0  0  0  0  0  0
    9.1248    1.7445   21.7413 C   0  0  0  0  0  0  0  0  0  0  0  0
   11.4771    2.2924   22.4082 C   0  0  0  0  0  0  0  0  0  0  0  0
  1  2  1  0
  2  3  1  0
  3  4  2  0
  4  5  1  0
  5  6  2  0
  6  7  1  0
  7  8  1  0
  8  9  2  0
  8 10  1  0
 10 11  1  0
 11 12  1  0
 12 13  2  0
 12 14  1  0
 14 15  2  0
 11 16  1  0
 16 17  2  0
 17 18  1  0
 18 19  2  0
 19 20  1  0
 20 21  2  0
 19 22  1  0
 22 23  1  0
 22 24  1  0
 22 25  1  0
 22 26  1  0
 22 27  1  0
 10 28  1  0
 28 29  2  0
 29 30  1  0
 30 31  2  0
 31 32  1  0
 32 33  2  0
  6 34  1  0
 34 35  1  0
 34 36  2  0
 36  3  1  0
 21 16  1  0
 33 28  1  0
M  END
