CVD-0003773|dock_bobby27042020.15|mol2|31|dock1
     RDKit          3D

 29 32  0  0  0  0  0  0  0  0999 V2000
    9.2058   -0.9010   20.4338 O   0  0  0  0  0  0  0  0  0  0  0  0
    9.1119    0.1871   20.9928 C   0  0  0  0  0  0  0  0  0  0  0  0
    9.9792    0.6345   21.9640 N   0  0  0  0  0  0  0  0  0  0  0  0
   11.1215    0.0239   22.5420 C   0  0  0  0  0  0  0  0  0  0  0  0
   11.9355    0.8148   23.3452 C   0  0  0  0  0  0  0  0  0  0  0  0
   13.0670    0.2852   23.9420 C   0  0  0  0  0  0  0  0  0  0  0  0
   13.4008   -1.0363   23.7463 C   0  0  0  0  0  0  0  0  0  0  0  0
   12.6030   -1.8308   22.9529 C   0  0  0  0  0  0  0  0  0  0  0  0
   11.4685   -1.3122   22.3504 C   0  0  0  0  0  0  0  0  0  0  0  0
    8.1258    1.1151   20.7393 N   0  0  0  0  0  0  0  0  0  0  0  0
    7.0396    1.0540   19.8242 C   0  0  0  0  0  0  0  0  0  0  0  0
    7.1800    0.5085   18.5487 C   0  0  0  0  0  0  0  0  0  0  0  0
    6.2013    0.4510   17.6464 N   0  0  0  0  0  0  0  0  0  0  0  0
    5.0482    1.0169   17.9781 C   0  0  0  0  0  0  0  0  0  0  0  0
    4.7950    1.5825   19.2083 C   0  0  0  0  0  0  0  0  0  0  0  0
    5.7786    1.5687   20.1960 C   0  0  0  0  0  0  0  0  0  0  0  0
    5.4378    2.1100   21.6016 C   0  0  0  0  0  0  0  0  0  0  0  0
    5.7934    1.1684   22.7516 C   0  0  0  0  0  0  0  0  0  0  0  0
    5.4694    1.7946   24.0964 C   0  0  0  0  0  0  0  0  0  0  0  0
    4.0194    2.2264   24.1760 C   0  0  0  0  0  0  0  0  0  0  0  0
    3.6662    3.1715   23.0396 C   0  0  0  0  0  0  0  0  0  0  0  0
    3.9803    2.5514   21.6868 C   0  0  0  0  0  0  0  0  0  0  0  0
    6.3301    3.2831   21.6540 C   0  0  0  0  0  0  0  0  0  0  0  0
    7.0217    4.2509   21.6442 C   0  0  0  0  0  0  0  0  0  0  0  0
    7.8408    5.4452   21.6975 C   0  0  0  0  0  0  0  0  0  0  0  0
    8.9113    5.2457   22.7003 C   0  0  0  0  0  0  0  0  0  0  0  0
    8.6713    6.1359   23.7857 C   0  0  0  0  0  0  0  0  0  0  0  0
    7.5500    6.9173   23.5074 C   0  0  0  0  0  0  0  0  0  0  0  0
    7.0261    6.5595   22.2324 C   0  0  0  0  0  0  0  0  0  0  0  0
  1  2  2  0
  2  3  1  0
  3  4  1  0
  4  5  2  0
  5  6  1  0
  6  7  2  0
  7  8  1  0
  8  9  2  0
  2 10  1  0
 10 11  1  0
 11 12  2  0
 12 13  1  0
 13 14  2  0
 14 15  1  0
 15 16  2  0
 16 17  1  0
 17 18  1  0
 18 19  1  0
 19 20  1  0
 20 21  1  0
 21 22  1  0
 17 23  1  0
 23 24  3  0
 24 25  1  0
 25 26  1  0
 26 27  1  0
 27 28  1  0
 28 29  1  0
  9  4  1  0
 16 11  1  0
 22 17  1  0
 29 25  1  0
M  END
