CVD-0000145|dock_bobby27042020.14|mol2|5|dock3
     RDKit          3D

 20 22  0  0  0  0  0  0  0  0999 V2000
   10.8243    1.1342   23.8596 O   0  0  0  0  0  0  0  0  0  0  0  0
   11.9758    1.1762   23.4348 C   0  0  0  0  0  0  0  0  0  0  0  0
   12.4403    2.1962   22.7135 N   0  0  0  0  0  0  0  0  0  0  0  0
   12.4928    3.4639   22.0003 C   0  0  0  0  0  0  0  0  0  0  0  0
   12.0219    4.6272   22.8361 C   0  0  0  0  0  0  0  0  0  0  0  0
   12.8163    5.1703   23.8318 C   0  0  0  0  0  0  0  0  0  0  0  0
   12.3227    6.2354   24.5652 C   0  0  0  0  0  0  0  0  0  0  0  0
   11.0644    6.7247   24.2905 C   0  0  0  0  0  0  0  0  0  0  0  0
   10.3426    6.1240   23.2844 C   0  0  0  0  0  0  0  0  0  0  0  0
   10.7959    5.0924   22.5597 N   0  0  0  0  0  0  0  0  0  0  0  0
   12.9592    0.0545   23.7063 C   0  0  0  0  0  0  0  0  0  0  0  0
   12.9725   -0.5205   25.1117 C   0  0  0  0  0  0  0  0  0  0  0  0
   13.8955   -1.6936   24.9886 C   0  0  0  0  0  0  0  0  0  0  0  0
   13.7193   -2.2491   23.5534 C   0  0  0  0  0  0  0  0  0  0  0  0
   12.8192   -1.2162   22.8151 C   0  0  0  0  0  0  0  0  0  0  0  0
   11.3880   -1.6581   22.6113 C   0  0  0  0  0  0  0  0  0  0  0  0
   10.6628   -2.5282   23.4775 C   0  0  0  0  0  0  0  0  0  0  0  0
    9.3832   -2.7722   23.0783 C   0  0  0  0  0  0  0  0  0  0  0  0
    9.0560   -1.9361   21.6364 S   0  0  0  0  0  0  0  0  0  0  0  0
   10.6139   -1.2599   21.5617 C   0  0  0  0  0  0  0  0  0  0  0  0
  1  2  2  0
  2  3  1  0
  3  4  1  0
  4  5  1  0
  5  6  2  0
  6  7  1  0
  7  8  2  0
  8  9  1  0
  9 10  2  0
 11  2  1  0
 11 12  1  0
 12 13  1  0
 13 14  1  0
 14 15  1  0
 15 16  1  0
 16 17  1  0
 17 18  2  0
 18 19  1  0
 19 20  1  0
 10  5  1  0
 15 11  1  0
 20 16  2  0
M  END
