CVD-0000093|dock_bobby27042020.42|mol2|40|dock2
     RDKit          3D

 20 20  0  0  0  0  0  0  0  0999 V2000
    5.5784    0.8480   17.7740 C   0  0  0  0  0  0  0  0  0  0  0  0
    6.4533   -0.1653   18.4751 C   0  0  0  0  0  0  0  0  0  0  0  0
    7.7323    0.4375   18.9914 C   0  0  0  0  0  0  0  0  0  0  0  0
    8.4189   -0.4442   19.9245 N   0  0  0  0  0  0  0  0  0  0  0  0
    8.0186   -0.6066   21.1854 C   0  0  0  0  0  0  0  0  0  0  0  0
    7.0363   -0.0381   21.6548 O   0  0  0  0  0  0  0  0  0  0  0  0
    8.8516   -1.5518   22.0445 C   0  0  0  0  0  0  0  0  0  0  0  0
    8.5133   -2.9933   21.6893 C   0  0  0  0  0  0  0  0  0  0  0  0
   10.2743   -1.3178   21.8533 N   0  0  0  0  0  0  0  0  0  0  0  0
   10.9175   -0.4927   22.7014 C   0  0  0  0  0  0  0  0  0  0  0  0
   10.3306    0.0562   23.6260 O   0  0  0  0  0  0  0  0  0  0  0  0
   12.2520   -0.2707   22.5173 N   0  0  0  0  0  0  0  0  0  0  0  0
   13.0979   -1.0206   21.6014 C   0  0  0  0  0  0  0  0  0  0  0  0
   12.9261    0.7391   23.3192 C   0  0  0  0  0  0  0  0  0  0  0  0
   12.9264    2.0888   22.6742 C   0  0  0  0  0  0  0  0  0  0  0  0
   12.2226    2.4055   21.5653 C   0  0  0  0  0  0  0  0  0  0  0  0
   12.4841    4.0450   21.1400 S   0  0  0  0  0  0  0  0  0  0  0  0
   13.5420    4.2069   22.4944 C   0  0  0  0  0  0  0  0  0  0  0  0
   14.2156    5.5015   22.8075 C   0  0  0  0  0  0  0  0  0  0  0  0
   13.6780    3.1213   23.2035 N   0  0  0  0  0  0  0  0  0  0  0  0
  1  2  1  0
  2  3  1  0
  3  4  1  0
  4  5  1  0
  5  6  2  0
  5  7  1  0
  7  8  1  0
  7  9  1  0
  9 10  1  0
 10 11  2  0
 10 12  1  0
 12 13  1  0
 12 14  1  0
 14 15  1  0
 15 16  2  0
 16 17  1  0
 17 18  1  0
 18 19  1  0
 18 20  2  0
 20 15  1  0
M  END
