CVD-0002237|dock_bobby27042020.6|mol2|32|dock2
     RDKit          3D

 43 48  0  0  0  0  0  0  0  0999 V2000
    6.3376   -2.5620   23.9569 F   0  0  0  0  0  0  0  0  0  0  0  0
    6.1469   -3.8347   23.5399 C   0  0  0  0  0  0  0  0  0  0  0  0
    4.8489   -4.2870   23.5626 C   0  0  0  0  0  0  0  0  0  0  0  0
    4.5832   -5.5719   23.1293 C   0  0  0  0  0  0  0  0  0  0  0  0
    5.6145   -6.3706   22.6927 C   0  0  0  0  0  0  0  0  0  0  0  0
    6.9169   -5.9004   22.6903 C   0  0  0  0  0  0  0  0  0  0  0  0
    7.2255   -4.6051   23.1151 C   0  0  0  0  0  0  0  0  0  0  0  0
    8.6277   -4.1048   23.1166 C   0  0  0  0  0  0  0  0  0  0  0  0
    9.1454   -3.1096   22.3052 C   0  0  0  0  0  0  0  0  0  0  0  0
   10.5048   -2.8995   22.5929 C   0  0  0  0  0  0  0  0  0  0  0  0
   11.3964   -1.8979   21.9070 C   0  0  0  0  0  0  0  0  0  0  0  0
   11.1048   -0.5203   22.2547 N   0  0  0  0  0  0  0  0  0  0  0  0
    9.9204    0.1232   21.9673 C   0  0  0  0  0  0  0  0  0  0  0  0
    9.1881   -0.2428   20.8363 C   0  0  0  0  0  0  0  0  0  0  0  0
    7.9916    0.3897   20.5467 C   0  0  0  0  0  0  0  0  0  0  0  0
    7.5140    1.3828   21.3693 C   0  0  0  0  0  0  0  0  0  0  0  0
    8.2347    1.7552   22.4884 C   0  0  0  0  0  0  0  0  0  0  0  0
    9.4494    1.1469   22.8117 C   0  0  0  0  0  0  0  0  0  0  0  0
   10.2382    1.5902   24.0437 C   0  0  0  0  0  0  0  0  0  0  0  0
   10.1707    0.5431   25.1048 C   0  0  0  0  0  0  0  0  0  0  0  0
    8.7981    0.4301   25.6572 N   0  0  0  0  0  0  0  0  0  0  0  0
    8.1141    1.6784   26.0482 C   0  0  0  0  0  0  0  0  0  0  0  0
    8.7806    2.9686   25.5617 C   0  0  0  0  0  0  0  0  0  0  0  0
    8.3778    4.1975   26.0751 C   0  0  0  0  0  0  0  0  0  0  0  0
    8.9610    5.3755   25.6440 C   0  0  0  0  0  0  0  0  0  0  0  0
    9.9559    5.3349   24.6922 C   0  0  0  0  0  0  0  0  0  0  0  0
   10.3608    4.1158   24.1779 C   0  0  0  0  0  0  0  0  0  0  0  0
    9.7862    2.9167   24.5985 C   0  0  0  0  0  0  0  0  0  0  0  0
    8.1753   -0.7493   25.8685 C   0  0  0  0  0  0  0  0  0  0  0  0
    8.7157   -1.8213   25.6267 O   0  0  0  0  0  0  0  0  0  0  0  0
    6.7676   -0.6916   26.4292 C   0  0  0  0  0  0  0  0  0  0  0  0
    6.1813   -2.3050   26.8540 Cl  0  0  0  0  0  0  0  0  0  0  0  0
   10.8438   -3.7886   23.5999 C   0  0  0  0  0  0  0  0  0  0  0  0
    9.7175   -4.5319   23.9306 N   0  0  0  0  0  0  0  0  0  0  0  0
    9.8730   -5.7099   25.1427 S   0  0  0  0  0  0  0  0  0  0  0  0
   11.1793   -5.5747   25.7092 O   0  0  0  0  0  0  0  0  0  0  0  0
    9.5181   -6.9399   24.5059 O   0  0  0  0  0  0  0  0  0  0  0  0
    8.6422   -5.3776   26.3559 C   0  0  0  0  0  0  0  0  0  0  0  0
    7.3481   -5.8388   26.1849 C   0  0  0  0  0  0  0  0  0  0  0  0
    6.4132   -5.5590   27.1664 C   0  0  0  0  0  0  0  0  0  0  0  0
    6.8071   -4.8366   28.2700 C   0  0  0  0  0  0  0  0  0  0  0  0
    8.0503   -4.3879   28.4486 N   0  0  0  0  0  0  0  0  0  0  0  0
    8.9481   -4.6616   27.4977 C   0  0  0  0  0  0  0  0  0  0  0  0
  1  2  1  0
  2  3  2  0
  3  4  1  0
  4  5  2  0
  5  6  1  0
  6  7  2  0
  7  8  1  0
  8  9  2  0
  9 10  1  0
 10 11  1  0
 11 12  1  0
 12 13  1  0
 13 14  2  0
 14 15  1  0
 15 16  2  0
 16 17  1  0
 17 18  2  0
 18 19  1  0
 19 20  1  0
 20 21  1  0
 21 22  1  0
 22 23  1  0
 23 24  2  0
 24 25  1  0
 25 26  2  0
 26 27  1  0
 27 28  2  0
 21 29  1  0
 29 30  2  0
 29 31  1  0
 31 32  1  0
 10 33  2  0
 33 34  1  0
 34 35  1  0
 35 36  2  0
 35 37  2  0
 35 38  1  0
 38 39  2  0
 39 40  1  0
 40 41  2  0
 41 42  1  0
 42 43  2  0
  7  2  1  0
 34  8  1  0
 43 38  1  0
 18 13  1  0
 28 19  1  0
 28 23  1  0
M  END
