CVD-0002723|dock_bobby27042020.4|mol2|36|dock2
     RDKit          3D

 25 27  0  0  0  0  0  0  0  0999 V2000
   13.4266    3.3315   23.1699 N   0  0  0  0  0  0  0  0  0  0  0  0
   12.2422    2.8594   22.7709 C   0  0  0  0  0  0  0  0  0  0  0  0
   12.1307    1.5238   22.6526 N   0  0  0  0  0  0  0  0  0  0  0  0
   10.9493    1.0520   22.2525 C   0  0  0  0  0  0  0  0  0  0  0  0
   10.8507   -0.4476   22.1321 C   0  0  0  0  0  0  0  0  0  0  0  0
    9.5030   -0.9524   22.4326 N   0  0  0  0  0  0  0  0  0  0  0  0
    8.7116   -1.0642   21.2038 C   0  0  0  0  0  0  0  0  0  0  0  0
    7.3090   -1.5463   21.5244 C   0  0  0  0  0  0  0  0  0  0  0  0
    7.3570   -2.8372   22.2145 N   0  0  0  0  0  0  0  0  0  0  0  0
    8.1918   -2.7739   23.4182 C   0  0  0  0  0  0  0  0  0  0  0  0
    9.5787   -2.2637   23.0717 C   0  0  0  0  0  0  0  0  0  0  0  0
    6.6812   -3.9216   21.7844 C   0  0  0  0  0  0  0  0  0  0  0  0
    5.9738   -3.8914   20.7854 O   0  0  0  0  0  0  0  0  0  0  0  0
    6.8397   -5.1842   22.6085 C   0  0  0  0  0  0  0  0  0  0  0  0
    5.8831   -6.5100   21.9346 Cl  0  0  0  0  0  0  0  0  0  0  0  0
    9.8591    1.7657   21.9567 N   0  0  0  0  0  0  0  0  0  0  0  0
    9.9871    3.0912   22.0796 C   0  0  0  0  0  0  0  0  0  0  0  0
   11.1410    3.7176   22.4811 C   0  0  0  0  0  0  0  0  0  0  0  0
   11.2329    5.2276   22.6004 C   0  0  0  0  0  0  0  0  0  0  0  0
   11.2843    5.7364   24.0266 C   0  0  0  0  0  0  0  0  0  0  0  0
   12.3929    6.4247   24.4947 C   0  0  0  0  0  0  0  0  0  0  0  0
   12.4389    6.8928   25.7972 C   0  0  0  0  0  0  0  0  0  0  0  0
   11.3756    6.6788   26.6476 C   0  0  0  0  0  0  0  0  0  0  0  0
   10.2665    5.9972   26.1950 C   0  0  0  0  0  0  0  0  0  0  0  0
   10.2214    5.5295   24.8923 C   0  0  0  0  0  0  0  0  0  0  0  0
  1  2  1  0
  2  3  2  0
  3  4  1  0
  4  5  1  0
  5  6  1  0
  6  7  1  0
  7  8  1  0
  8  9  1  0
  9 10  1  0
 10 11  1  0
  9 12  1  0
 12 13  2  0
 12 14  1  0
 14 15  1  0
  4 16  2  0
 16 17  1  0
 17 18  2  0
 18 19  1  0
 19 20  1  0
 20 21  2  0
 21 22  1  0
 22 23  2  0
 23 24  1  0
 24 25  2  0
 18  2  1  0
 25 20  1  0
 11  6  1  0
M  END
