CVD-0001942|dock_bobby27042020.93|mol2|28|dock3
     RDKit          3D

 23 25  0  0  0  0  0  0  0  0999 V2000
   14.1139    6.4091   22.1207 C   0  0  0  0  0  0  0  0  0  0  0  0
   13.7327    5.0320   22.4454 N   0  0  0  0  0  0  0  0  0  0  0  0
   12.3727    4.6660   22.0356 C   0  0  0  0  0  0  0  0  0  0  0  0
   12.0596    3.2297   22.3635 C   0  0  0  0  0  0  0  0  0  0  0  0
   12.9963    2.2237   22.6519 C   0  0  0  0  0  0  0  0  0  0  0  0
   12.3357    1.0331   22.8990 C   0  0  0  0  0  0  0  0  0  0  0  0
   13.0009   -0.2534   23.2259 C   0  0  0  0  0  0  0  0  0  0  0  0
   13.5418   -0.3454   24.5100 C   0  0  0  0  0  0  0  0  0  0  0  0
   14.2440   -1.4674   24.9157 C   0  0  0  0  0  0  0  0  0  0  0  0
   14.4196   -2.5263   24.0544 C   0  0  0  0  0  0  0  0  0  0  0  0
   13.8617   -2.4854   22.7898 C   0  0  0  0  0  0  0  0  0  0  0  0
   13.1417   -1.3751   22.4155 C   0  0  0  0  0  0  0  0  0  0  0  0
   12.5498   -1.4396   21.2037 F   0  0  0  0  0  0  0  0  0  0  0  0
   10.9652    1.2782   22.7638 N   0  0  0  0  0  0  0  0  0  0  0  0
   10.8236    2.6097   22.4291 C   0  0  0  0  0  0  0  0  0  0  0  0
    9.8317    0.3267   22.8676 C   0  0  0  0  0  0  0  0  0  0  0  0
    8.6125    0.7949   23.5591 C   0  0  0  0  0  0  0  0  0  0  0  0
    7.3993    0.7056   22.6581 C   0  0  0  0  0  0  0  0  0  0  0  0
    7.9646    0.1573   21.3772 N   0  0  0  0  0  0  0  0  0  0  0  0
    9.4404   -0.0486   21.4320 C   0  0  0  0  0  0  0  0  0  0  0  0
    7.2179   -0.1215   20.2838 C   0  0  0  0  0  0  0  0  0  0  0  0
    7.7699   -0.7456   19.2353 N   0  0  0  0  0  0  0  0  0  0  0  0
    6.0239    0.2090   20.2722 O   0  0  0  0  0  0  0  0  0  0  0  0
  1  2  1  0
  2  3  1  0
  3  4  1  0
  4  5  1  0
  5  6  2  0
  6  7  1  0
  7  8  2  0
  8  9  1  0
  9 10  2  0
 10 11  1  0
 11 12  2  0
 12 13  1  0
  6 14  1  0
 14 15  1  0
 14 16  1  0
 16 17  1  0
 17 18  1  0
 18 19  1  0
 19 20  1  0
 19 21  1  0
 21 22  1  0
 21 23  2  0
 15  4  2  0
 20 16  1  0
 12  7  1  0
M  END
