CVD-0003661|dock_bobby27042020.15|mol2|48|dock2
     RDKit          3D

 30 31  0  0  0  0  0  0  0  0999 V2000
   14.1728    6.7185   21.8223 C   0  0  0  0  0  0  0  0  0  0  0  0
   13.3354    5.5512   21.5556 N   0  0  0  0  0  0  0  0  0  0  0  0
   12.3862    4.9950   22.7366 S   0  0  0  0  0  0  0  0  0  0  0  0
   11.0509    5.4022   22.4221 O   0  0  0  0  0  0  0  0  0  0  0  0
   12.9746    5.4119   23.9727 O   0  0  0  0  0  0  0  0  0  0  0  0
   12.4400    3.2362   22.6809 C   0  0  0  0  0  0  0  0  0  0  0  0
   13.6626    2.5854   22.6661 C   0  0  0  0  0  0  0  0  0  0  0  0
   13.6948    1.2028   22.6270 C   0  0  0  0  0  0  0  0  0  0  0  0
   12.5252    0.4558   22.6038 C   0  0  0  0  0  0  0  0  0  0  0  0
   11.3119    1.1300   22.6215 C   0  0  0  0  0  0  0  0  0  0  0  0
   11.2595    2.5120   22.6605 C   0  0  0  0  0  0  0  0  0  0  0  0
   12.5720   -1.0600   22.5552 C   0  0  0  0  0  0  0  0  0  0  0  0
   13.6707   -1.5547   21.6221 C   0  0  0  0  0  0  0  0  0  0  0  0
   11.2951   -1.6122   22.0918 N   0  0  0  0  0  0  0  0  0  0  0  0
   10.2864   -1.8805   22.9291 C   0  0  0  0  0  0  0  0  0  0  0  0
   10.3357   -1.6922   24.1437 O   0  0  0  0  0  0  0  0  0  0  0  0
    9.0385   -2.4524   22.2441 C   0  0  0  0  0  0  0  0  0  0  0  0
    8.9892   -2.6407   21.0295 O   0  0  0  0  0  0  0  0  0  0  0  0
    8.0298   -2.7208   23.0814 N   0  0  0  0  0  0  0  0  0  0  0  0
    6.7491   -3.2716   22.6383 C   0  0  0  0  0  0  0  0  0  0  0  0
    6.8110   -4.7688   22.8014 C   0  0  0  0  0  0  0  0  0  0  0  0
    6.8322   -5.1898   24.2640 C   0  0  0  0  0  0  0  0  0  0  0  0
    5.6806   -4.6012   25.0400 C   0  0  0  0  0  0  0  0  0  0  0  0
    5.6382   -3.0989   24.8822 C   0  0  0  0  0  0  0  0  0  0  0  0
    5.5967   -2.6907   23.4233 C   0  0  0  0  0  0  0  0  0  0  0  0
    5.7379   -5.0003   26.4573 N   0  0  0  0  0  0  0  0  0  0  0  0
    6.2276   -6.4777   26.8980 S   0  0  0  0  0  0  0  0  0  0  0  0
    5.8867   -6.6572   28.6063 C   0  0  0  0  0  0  0  0  0  0  0  0
    7.6463   -6.5189   26.7204 O   0  0  0  0  0  0  0  0  0  0  0  0
    5.4210   -7.4171   26.1820 O   0  0  0  0  0  0  0  0  0  0  0  0
  1  2  1  0
  2  3  1  0
  3  4  2  0
  3  5  2  0
  3  6  1  0
  6  7  2  0
  7  8  1  0
  8  9  2  0
  9 10  1  0
 10 11  2  0
  9 12  1  0
 12 13  1  0
 12 14  1  0
 14 15  1  0
 15 16  2  0
 15 17  1  0
 17 18  2  0
 17 19  1  0
 19 20  1  0
 20 21  1  0
 21 22  1  0
 22 23  1  0
 23 24  1  0
 24 25  1  0
 23 26  1  0
 26 27  1  0
 27 28  1  0
 27 29  2  0
 27 30  2  0
 11  6  1  0
 25 20  1  0
M  END
