CVD-0003278|dock_bobby27042020.45|mol2|43|dock1
     RDKit          3D

 32 36  0  0  0  0  0  0  0  0999 V2000
    5.5946    0.8799   16.8954 O   0  0  0  0  0  0  0  0  0  0  0  0
    5.9997    0.8845   18.2674 C   0  0  0  0  0  0  0  0  0  0  0  0
    4.8743    0.3582   19.1236 C   0  0  0  0  0  0  0  0  0  0  0  0
    5.2772    0.3357   20.5937 C   0  0  0  0  0  0  0  0  0  0  0  0
    6.5289   -0.4810   20.7769 C   0  0  0  0  0  0  0  0  0  0  0  0
    6.9624   -0.4761   22.2453 C   0  0  0  0  0  0  0  0  0  0  0  0
    8.2947   -1.1359   22.4749 C   0  0  0  0  0  0  0  0  0  0  0  0
    8.4619   -2.4862   22.5135 C   0  0  0  0  0  0  0  0  0  0  0  0
    7.4000   -3.5297   22.3507 C   0  0  0  0  0  0  0  0  0  0  0  0
    7.7480   -4.8393   23.0283 C   0  0  0  0  0  0  0  0  0  0  0  0
    7.6363   -5.8875   22.4004 O   0  0  0  0  0  0  0  0  0  0  0  0
    8.1766   -4.8526   24.3302 N   0  0  0  0  0  0  0  0  0  0  0  0
    8.5524   -5.8859   25.1917 C   0  0  0  0  0  0  0  0  0  0  0  0
    8.0785   -6.3581   26.3792 C   0  0  0  0  0  0  0  0  0  0  0  0
    8.8449   -7.4167   26.7981 N   0  0  0  0  0  0  0  0  0  0  0  0
    9.7616   -7.5700   25.8642 C   0  0  0  0  0  0  0  0  0  0  0  0
    9.6132   -6.6651   24.8820 N   0  0  0  0  0  0  0  0  0  0  0  0
   10.1107   -2.9702   22.7898 S   0  0  0  0  0  0  0  0  0  0  0  0
   10.6192   -1.3190   22.8508 C   0  0  0  0  0  0  0  0  0  0  0  0
   11.8053   -0.5677   23.0321 C   0  0  0  0  0  0  0  0  0  0  0  0
   11.4288    0.7516   22.9547 C   0  0  0  0  0  0  0  0  0  0  0  0
   12.2398    2.0045   23.0693 C   0  0  0  0  0  0  0  0  0  0  0  0
   11.5501    3.2359   22.5107 C   0  0  0  0  0  0  0  0  0  0  0  0
   12.4306    4.4378   22.5245 C   0  0  0  0  0  0  0  0  0  0  0  0
   12.4581    5.3598   23.4763 N   0  0  0  0  0  0  0  0  0  0  0  0
   13.4016    6.2743   23.0737 C   0  0  0  0  0  0  0  0  0  0  0  0
   13.9304    5.9000   21.8877 C   0  0  0  0  0  0  0  0  0  0  0  0
   13.3054    4.7336   21.5477 N   0  0  0  0  0  0  0  0  0  0  0  0
   10.0727    0.8107   22.7359 N   0  0  0  0  0  0  0  0  0  0  0  0
    9.5450   -0.4545   22.6671 C   0  0  0  0  0  0  0  0  0  0  0  0
    7.6543    0.0452   19.9209 C   0  0  0  0  0  0  0  0  0  0  0  0
    7.2514    0.0678   18.4507 C   0  0  0  0  0  0  0  0  0  0  0  0
  1  2  1  0
  2  3  1  0
  3  4  1  0
  4  5  1  0
  5  6  1  0
  6  7  1  0
  7  8  2  0
  8  9  1  0
  9 10  1  0
 10 11  2  0
 10 12  1  0
 12 13  1  0
 13 14  2  0
 14 15  1  0
 15 16  2  0
 16 17  1  0
  8 18  1  0
 18 19  1  0
 19 20  1  0
 20 21  2  0
 21 22  1  0
 22 23  1  0
 23 24  1  0
 24 25  2  0
 25 26  1  0
 26 27  2  0
 27 28  1  0
 21 29  1  0
 29 30  1  0
  5 31  1  0
 31 32  1  0
 32  2  1  0
 30  7  1  0
 17 13  1  0
 30 19  2  0
 28 24  1  0
M  END
