CVD-0001343|dock_bobby27042020.24|mol2|15|dock3
     RDKit          3D

 27 29  0  0  0  0  0  0  0  0999 V2000
    6.8659   -3.5173   23.4880 N   0  0  0  0  0  0  0  0  0  0  0  0
    7.9874   -3.4727   22.5401 C   0  0  0  0  0  0  0  0  0  0  0  0
    8.8825   -2.2785   22.6045 C   0  0  0  0  0  0  0  0  0  0  0  0
   10.2291   -2.2716   22.7080 C   0  0  0  0  0  0  0  0  0  0  0  0
   10.6659   -0.9146   22.6954 C   0  0  0  0  0  0  0  0  0  0  0  0
   11.9519   -0.3597   22.6713 C   0  0  0  0  0  0  0  0  0  0  0  0
   12.0957    1.0148   22.6687 C   0  0  0  0  0  0  0  0  0  0  0  0
   10.9799    1.8267   22.7625 C   0  0  0  0  0  0  0  0  0  0  0  0
    9.6809    1.3076   22.8560 C   0  0  0  0  0  0  0  0  0  0  0  0
    8.5867    2.2534   23.1202 C   0  0  0  0  0  0  0  0  0  0  0  0
    7.6864    2.0595   23.9259 O   0  0  0  0  0  0  0  0  0  0  0  0
    8.5701    3.5189   22.4009 C   0  0  0  0  0  0  0  0  0  0  0  0
    8.5251    4.5564   21.8450 C   0  0  0  0  0  0  0  0  0  0  0  0
    9.5174   -0.0905   22.7090 C   0  0  0  0  0  0  0  0  0  0  0  0
    8.4242   -0.9693   22.5598 N   0  0  0  0  0  0  0  0  0  0  0  0
    7.0342   -0.5800   22.3544 C   0  0  0  0  0  0  0  0  0  0  0  0
    6.7900    0.1480   21.1281 N   0  0  0  0  0  0  0  0  0  0  0  0
    5.3637    0.4632   20.9837 C   0  0  0  0  0  0  0  0  0  0  0  0
    5.0903    1.2737   19.7319 C   0  0  0  0  0  0  0  0  0  0  0  0
    5.5888    0.5872   18.4660 C   0  0  0  0  0  0  0  0  0  0  0  0
    5.4589    1.3853   17.2854 O   0  0  0  0  0  0  0  0  0  0  0  0
    7.0423    0.1797   18.6802 C   0  0  0  0  0  0  0  0  0  0  0  0
    7.2374   -0.6156   19.9603 C   0  0  0  0  0  0  0  0  0  0  0  0
   13.4071   -1.3709   22.6437 S   0  0  0  0  0  0  0  0  0  0  0  0
   13.6678   -1.8427   21.1362 N   0  0  0  0  0  0  0  0  0  0  0  0
   13.1241   -2.5450   23.4135 O   0  0  0  0  0  0  0  0  0  0  0  0
   14.5096   -0.5406   23.0258 O   0  0  0  0  0  0  0  0  0  0  0  0
  1  2  1  0
  2  3  1  0
  3  4  2  0
  4  5  1  0
  5  6  2  0
  6  7  1  0
  7  8  2  0
  8  9  1  0
  9 10  1  0
 10 11  2  0
 10 12  1  0
 12 13  3  0
  9 14  2  0
 14 15  1  0
 15 16  1  0
 16 17  1  0
 17 18  1  0
 18 19  1  0
 19 20  1  0
 20 21  1  0
 20 22  1  0
 22 23  1  0
  6 24  1  0
 24 25  1  0
 24 26  2  0
 24 27  2  0
 15  3  1  0
 23 17  1  0
 14  5  1  0
M  END
