CVD-0001313|dock_bobby27042020.95|mol2|40|dock2
     RDKit          3D

 14 14  0  0  0  0  0  0  0  0999 V2000
    9.8419   -2.4211   23.0559 C   0  0  0  0  0  0  0  0  0  0  0  0
   11.3137   -2.1660   23.2062 C   0  0  0  0  0  0  0  0  0  0  0  0
   12.1121   -3.0940   23.1425 O   0  0  0  0  0  0  0  0  0  0  0  0
   11.7679   -0.8995   23.3988 N   0  0  0  0  0  0  0  0  0  0  0  0
   13.1690   -0.5066   23.5227 C   0  0  0  0  0  0  0  0  0  0  0  0
   13.4423    0.7117   22.6651 C   0  0  0  0  0  0  0  0  0  0  0  0
   12.5226    1.8610   23.0587 C   0  0  0  0  0  0  0  0  0  0  0  0
   11.0683    1.4035   22.9720 C   0  0  0  0  0  0  0  0  0  0  0  0
   10.8480    0.1529   23.8166 C   0  0  0  0  0  0  0  0  0  0  0  0
   12.7620    3.0684   22.1820 C   0  0  0  0  0  0  0  0  0  0  0  0
   12.0460    3.3921   21.2700 O   0  0  0  0  0  0  0  0  0  0  0  0
   14.1940    4.0033   22.5970 S   0  0  0  0  0  0  0  0  0  0  0  0
   13.7847    5.6765   22.1657 C   0  0  0  0  0  0  0  0  0  0  0  0
   12.8337    6.1943   23.0181 F   0  0  0  0  0  0  0  0  0  0  0  0
  1  2  1  0
  2  3  2  0
  2  4  1  0
  4  5  1  0
  5  6  1  0
  6  7  1  0
  7  8  1  0
  8  9  1  0
  7 10  1  0
 10 11  2  0
 10 12  1  0
 12 13  1  0
 13 14  1  0
  9  4  1  0
M  END
