CVD-0000801|dock_bobby27042020.97|mol2|25|dock2
     RDKit          3D

 22 24  0  0  0  0  0  0  0  0999 V2000
   12.7408    5.7086   24.0102 C   0  0  0  0  0  0  0  0  0  0  0  0
   12.9593    5.3817   22.6059 N   0  0  0  0  0  0  0  0  0  0  0  0
   14.0601    6.1835   22.0834 C   0  0  0  0  0  0  0  0  0  0  0  0
   13.2456    3.9509   22.4558 C   0  0  0  0  0  0  0  0  0  0  0  0
   12.0112    3.0888   22.5024 C   0  0  0  0  0  0  0  0  0  0  0  0
   10.7165    3.5035   22.5189 C   0  0  0  0  0  0  0  0  0  0  0  0
    9.8735    2.4277   22.5576 N   0  0  0  0  0  0  0  0  0  0  0  0
   10.6122    1.2621   22.5514 C   0  0  0  0  0  0  0  0  0  0  0  0
   10.2629   -0.1067   22.5577 C   0  0  0  0  0  0  0  0  0  0  0  0
   11.3003   -1.0418   22.6177 C   0  0  0  0  0  0  0  0  0  0  0  0
   12.6356   -0.6602   22.6277 C   0  0  0  0  0  0  0  0  0  0  0  0
   13.7172   -1.6981   22.6942 C   0  0  0  0  0  0  0  0  0  0  0  0
   14.5146   -1.7049   24.3042 Cl  0  0  0  0  0  0  0  0  0  0  0  0
   12.9620    0.6844   22.5797 C   0  0  0  0  0  0  0  0  0  0  0  0
   11.9688    1.6565   22.5444 C   0  0  0  0  0  0  0  0  0  0  0  0
    8.9160   -0.5591   22.5053 N   0  0  0  0  0  0  0  0  0  0  0  0
    8.4567   -1.5229   21.5034 C   0  0  0  0  0  0  0  0  0  0  0  0
    8.2128   -2.8543   22.0122 C   0  0  0  0  0  0  0  0  0  0  0  0
    8.4029   -3.2432   23.4048 C   0  0  0  0  0  0  0  0  0  0  0  0
    7.6971   -2.5453   24.4766 C   0  0  0  0  0  0  0  0  0  0  0  0
    8.0674   -1.1398   24.7412 C   0  0  0  0  0  0  0  0  0  0  0  0
    7.9778   -0.2377   23.5759 C   0  0  0  0  0  0  0  0  0  0  0  0
  1  2  1  0
  2  3  1  0
  2  4  1  0
  4  5  1  0
  5  6  2  0
  6  7  1  0
  7  8  1  0
  8  9  2  0
  9 10  1  0
 10 11  2  0
 11 12  1  0
 12 13  1  0
 11 14  1  0
 14 15  2  0
  9 16  1  0
 16 17  1  0
 17 18  1  0
 18 19  1  0
 19 20  1  0
 20 21  1  0
 21 22  1  0
 15  5  1  0
 22 16  1  0
 15  8  1  0
M  END
