CVD-0004034|dock_bobby27042020.29|mol2|3|dock3
     RDKit          3D

 26 30  0  0  0  0  0  0  0  0999 V2000
    6.0954   -1.0611   19.3912 C   0  0  0  0  0  0  0  0  0  0  0  0
    7.2799   -0.4815   20.1141 C   0  0  0  0  0  0  0  0  0  0  0  0
    7.4759    0.9532   20.1856 C   0  0  0  0  0  0  0  0  0  0  0  0
    8.4741    1.5449   20.8009 N   0  0  0  0  0  0  0  0  0  0  0  0
    9.3764    0.7394   21.4141 C   0  0  0  0  0  0  0  0  0  0  0  0
   10.5800    0.9936   22.1661 C   0  0  0  0  0  0  0  0  0  0  0  0
   11.0325   -0.3142   22.5272 C   0  0  0  0  0  0  0  0  0  0  0  0
   10.2414   -1.2667   22.0296 N   0  0  0  0  0  0  0  0  0  0  0  0
    9.2283   -0.6290   21.3671 N   0  0  0  0  0  0  0  0  0  0  0  0
    8.2034   -1.2465   20.7353 C   0  0  0  0  0  0  0  0  0  0  0  0
   12.1778   -0.7781   23.3399 C   0  0  0  0  0  0  0  0  0  0  0  0
   12.9787   -1.8510   22.9607 C   0  0  0  0  0  0  0  0  0  0  0  0
   14.0185   -2.2850   23.7639 C   0  0  0  0  0  0  0  0  0  0  0  0
   14.2654   -1.6139   24.9296 C   0  0  0  0  0  0  0  0  0  0  0  0
   15.2861   -2.0375   25.7229 F   0  0  0  0  0  0  0  0  0  0  0  0
   13.5288   -0.5333   25.3295 C   0  0  0  0  0  0  0  0  0  0  0  0
   12.4824   -0.1175   24.5257 C   0  0  0  0  0  0  0  0  0  0  0  0
   11.1385    2.3653   22.4218 C   0  0  0  0  0  0  0  0  0  0  0  0
   12.5193    2.5592   22.4985 C   0  0  0  0  0  0  0  0  0  0  0  0
   13.0194    3.8348   22.6929 C   0  0  0  0  0  0  0  0  0  0  0  0
   12.2626    4.9343   22.8153 N   0  0  0  0  0  0  0  0  0  0  0  0
   10.9337    4.7442   22.7667 C   0  0  0  0  0  0  0  0  0  0  0  0
    9.9506    5.6831   22.8844 N   0  0  0  0  0  0  0  0  0  0  0  0
    8.7322    5.0485   22.7964 C   0  0  0  0  0  0  0  0  0  0  0  0
    8.9016    3.7148   22.6170 C   0  0  0  0  0  0  0  0  0  0  0  0
   10.3197    3.5022   22.5834 C   0  0  0  0  0  0  0  0  0  0  0  0
  1  2  1  0
  2  3  1  0
  3  4  2  0
  4  5  1  0
  5  6  2  0
  6  7  1  0
  7  8  2  0
  8  9  1  0
  9 10  1  0
  7 11  1  0
 11 12  2  0
 12 13  1  0
 13 14  2  0
 14 15  1  0
 14 16  1  0
 16 17  2  0
  6 18  1  0
 18 19  2  0
 19 20  1  0
 20 21  2  0
 21 22  1  0
 22 23  1  0
 23 24  1  0
 24 25  2  0
 25 26  1  0
 10  2  2  0
 17 11  1  0
 26 18  1  0
  9  5  1  0
 26 22  2  0
M  END
