CVD-0001727|dock_bobby27042020.23|mol2|5|dock1
     RDKit          3D

 26 28  0  0  0  0  0  0  0  0999 V2000
   13.9788   -2.3232   25.3846 C   0  0  0  0  0  0  0  0  0  0  0  0
   13.3474   -1.3565   24.3871 C   0  0  0  0  0  0  0  0  0  0  0  0
   12.3368   -0.4011   25.0101 C   0  0  0  0  0  0  0  0  0  0  0  0
   11.6264    0.4537   23.9789 C   0  0  0  0  0  0  0  0  0  0  0  0
   10.9604   -0.3645   22.9582 N   0  0  0  0  0  0  0  0  0  0  0  0
   10.2358    0.4821   22.0012 C   0  0  0  0  0  0  0  0  0  0  0  0
    8.7834    0.7062   22.3902 C   0  0  0  0  0  0  0  0  0  0  0  0
    7.8877   -0.2162   21.6691 N   0  0  0  0  0  0  0  0  0  0  0  0
    8.0103   -1.5568   22.0440 C   0  0  0  0  0  0  0  0  0  0  0  0
    8.8381   -1.8313   22.9031 O   0  0  0  0  0  0  0  0  0  0  0  0
    7.2237   -2.5050   21.4368 N   0  0  0  0  0  0  0  0  0  0  0  0
    7.1670   -3.9106   21.6254 C   0  0  0  0  0  0  0  0  0  0  0  0
    7.6290   -4.4277   22.8293 C   0  0  0  0  0  0  0  0  0  0  0  0
    7.5857   -5.7920   23.0559 C   0  0  0  0  0  0  0  0  0  0  0  0
    7.0794   -6.6065   22.0707 C   0  0  0  0  0  0  0  0  0  0  0  0
    6.6304   -6.1448   20.9040 N   0  0  0  0  0  0  0  0  0  0  0  0
    6.6828   -4.8260   20.6916 C   0  0  0  0  0  0  0  0  0  0  0  0
    6.9740    0.3649   20.7190 C   0  0  0  0  0  0  0  0  0  0  0  0
    7.3082    0.4856   19.3747 C   0  0  0  0  0  0  0  0  0  0  0  0
    6.4167    1.0368   18.4695 C   0  0  0  0  0  0  0  0  0  0  0  0
    5.1733    1.4759   18.8880 C   0  0  0  0  0  0  0  0  0  0  0  0
    4.8447    1.3521   20.2187 C   0  0  0  0  0  0  0  0  0  0  0  0
    3.2833    1.8980   20.7632 Cl  0  0  0  0  0  0  0  0  0  0  0  0
    5.7211    0.8060   21.1338 C   0  0  0  0  0  0  0  0  0  0  0  0
   11.9569   -1.1978   22.2801 C   0  0  0  0  0  0  0  0  0  0  0  0
   12.6569   -2.1212   23.2632 C   0  0  0  0  0  0  0  0  0  0  0  0
  1  2  1  0
  2  3  1  0
  3  4  1  0
  4  5  1  0
  5  6  1  0
  6  7  1  0
  7  8  1  0
  8  9  1  0
  9 10  2  0
  9 11  1  0
 11 12  1  0
 12 13  2  0
 13 14  1  0
 14 15  2  0
 15 16  1  0
 16 17  2  0
  8 18  1  0
 18 19  2  0
 19 20  1  0
 20 21  2  0
 21 22  1  0
 22 23  1  0
 22 24  2  0
  5 25  1  0
 25 26  1  0
 26  2  1  0
 17 12  1  0
 24 18  1  0
M  END
