CVD-0003679|dock_bobby27042020.15|mol2|45|dock3
     RDKit          3D

 20 21  0  0  0  0  0  0  0  0999 V2000
    7.7029    6.8757   22.1519 C   0  0  0  0  0  0  0  0  0  0  0  0
    8.5264    6.6421   23.4141 C   0  0  0  0  0  0  0  0  0  0  0  0
    7.6201    6.5068   24.6333 C   0  0  0  0  0  0  0  0  0  0  0  0
    9.3467    7.8093   23.6150 O   0  0  0  0  0  0  0  0  0  0  0  0
    9.4182    5.4105   23.2608 C   0  0  0  0  0  0  0  0  0  0  0  0
    8.8716    4.1388   23.1419 C   0  0  0  0  0  0  0  0  0  0  0  0
    9.6788    3.0232   23.0063 C   0  0  0  0  0  0  0  0  0  0  0  0
   11.0666    3.1330   22.9848 C   0  0  0  0  0  0  0  0  0  0  0  0
   11.9310    1.9551   22.8408 C   0  0  0  0  0  0  0  0  0  0  0  0
   11.8142    0.8139   23.4993 C   0  0  0  0  0  0  0  0  0  0  0  0
   12.6759   -0.3666   23.3588 C   0  0  0  0  0  0  0  0  0  0  0  0
   12.7302   -1.0795   22.1608 C   0  0  0  0  0  0  0  0  0  0  0  0
   13.5496   -2.1930   22.0445 C   0  0  0  0  0  0  0  0  0  0  0  0
   13.5929   -2.8807   20.8669 O   0  0  0  0  0  0  0  0  0  0  0  0
   14.3253   -2.6131   23.1149 C   0  0  0  0  0  0  0  0  0  0  0  0
   14.2743   -1.9071   24.3078 C   0  0  0  0  0  0  0  0  0  0  0  0
   15.0332   -2.3119   25.3669 O   0  0  0  0  0  0  0  0  0  0  0  0
   13.4575   -0.7928   24.4323 C   0  0  0  0  0  0  0  0  0  0  0  0
   11.6094    4.4089   23.1056 C   0  0  0  0  0  0  0  0  0  0  0  0
   10.8026    5.5247   23.2413 C   0  0  0  0  0  0  0  0  0  0  0  0
  1  2  1  0
  2  3  1  0
  2  4  1  0
  2  5  1  0
  5  6  2  0
  6  7  1  0
  7  8  2  0
  8  9  1  0
  9 10  2  0
 10 11  1  0
 11 12  2  0
 12 13  1  0
 13 14  1  0
 13 15  2  0
 15 16  1  0
 16 17  1  0
 16 18  2  0
  8 19  1  0
 19 20  2  0
 20  5  1  0
 18 11  1  0
M  END
