CVD-0003655|dock_bobby27042020.1|mol2|22|dock2
     RDKit          3D

 25 27  0  0  0  0  0  0  0  0999 V2000
   13.2584    5.2642   22.9973 C   0  0  0  0  0  0  0  0  0  0  0  0
   12.7992    3.9571   23.3062 O   0  0  0  0  0  0  0  0  0  0  0  0
   13.1556    3.0096   22.3176 C   0  0  0  0  0  0  0  0  0  0  0  0
   12.6194    1.6407   22.5839 C   0  0  0  0  0  0  0  0  0  0  0  0
   11.3378    1.6257   22.9515 N   0  0  0  0  0  0  0  0  0  0  0  0
   10.8309    0.4163   23.2061 C   0  0  0  0  0  0  0  0  0  0  0  0
   11.5826   -0.7480   23.0946 C   0  0  0  0  0  0  0  0  0  0  0  0
   10.8892   -1.9604   23.4101 N   0  0  0  0  0  0  0  0  0  0  0  0
    9.3388   -2.1705   23.8829 S   0  0  0  0  0  0  0  0  0  0  0  0
    9.0883   -1.2576   24.9557 O   0  0  0  0  0  0  0  0  0  0  0  0
    9.1180   -3.5742   24.0494 O   0  0  0  0  0  0  0  0  0  0  0  0
    8.3456   -1.6523   22.5248 C   0  0  0  0  0  0  0  0  0  0  0  0
    8.9204   -1.4879   21.2754 C   0  0  0  0  0  0  0  0  0  0  0  0
    8.1317   -1.0851   20.2126 C   0  0  0  0  0  0  0  0  0  0  0  0
    6.7728   -0.8432   20.3746 C   0  0  0  0  0  0  0  0  0  0  0  0
    6.2189   -1.0173   21.6373 C   0  0  0  0  0  0  0  0  0  0  0  0
    6.9931   -1.4197   22.7110 C   0  0  0  0  0  0  0  0  0  0  0  0
    5.9097   -0.3984   19.1946 C   0  0  0  0  0  0  0  0  0  0  0  0
    5.0259    0.8162   19.4158 C   0  0  0  0  0  0  0  0  0  0  0  0
    6.2320    0.9206   18.5298 C   0  0  0  0  0  0  0  0  0  0  0  0
    5.3295   -1.4552   18.3428 C   0  0  0  0  0  0  0  0  0  0  0  0
    4.9134   -2.2946   17.6967 N   0  0  0  0  0  0  0  0  0  0  0  0
   12.9241   -0.6196   22.6901 C   0  0  0  0  0  0  0  0  0  0  0  0
   13.9210   -1.7222   22.4853 C   0  0  0  0  0  0  0  0  0  0  0  0
   13.4338    0.5960   22.4429 N   0  0  0  0  0  0  0  0  0  0  0  0
  1  2  1  0
  2  3  1  0
  3  4  1  0
  4  5  2  0
  5  6  1  0
  6  7  2  0
  7  8  1  0
  8  9  1  0
  9 10  2  0
  9 11  2  0
  9 12  1  0
 12 13  2  0
 13 14  1  0
 14 15  2  0
 15 16  1  0
 16 17  2  0
 15 18  1  0
 18 19  1  0
 19 20  1  0
 18 21  1  0
 21 22  3  0
  7 23  1  0
 23 24  1  0
 23 25  2  0
 25  4  1  0
 17 12  1  0
 20 18  1  0
M  END
