CVD-0003188|dock_bobby27042020.31|mol2|37|dock1
     RDKit          3D

 22 23  0  0  0  0  0  0  0  0999 V2000
    6.5755   -3.5316   23.6736 C   0  0  0  0  0  0  0  0  0  0  0  0
    7.4190   -2.5307   23.0408 N   0  0  0  0  0  0  0  0  0  0  0  0
    8.4778   -2.0404   23.9327 C   0  0  0  0  0  0  0  0  0  0  0  0
    9.0603   -3.1301   24.8002 C   0  0  0  0  0  0  0  0  0  0  0  0
   10.0822   -3.9460   24.3446 C   0  0  0  0  0  0  0  0  0  0  0  0
   10.5748   -4.9244   25.1905 C   0  0  0  0  0  0  0  0  0  0  0  0
   10.0426   -5.0614   26.4540 C   0  0  0  0  0  0  0  0  0  0  0  0
    9.0297   -4.2067   26.8251 C   0  0  0  0  0  0  0  0  0  0  0  0
    8.5346   -3.2515   26.0268 N   0  0  0  0  0  0  0  0  0  0  0  0
    7.1608   -2.2671   21.7106 C   0  0  0  0  0  0  0  0  0  0  0  0
    6.5439   -3.1481   21.1346 O   0  0  0  0  0  0  0  0  0  0  0  0
    7.5498   -1.1177   20.9750 N   0  0  0  0  0  0  0  0  0  0  0  0
    7.9339    0.1636   21.5802 C   0  0  0  0  0  0  0  0  0  0  0  0
    7.0368    1.3419   21.2363 C   0  0  0  0  0  0  0  0  0  0  0  0
    5.5559    1.1508   21.5206 C   0  0  0  0  0  0  0  0  0  0  0  0
    4.8163    0.1520   20.6514 C   0  0  0  0  0  0  0  0  0  0  0  0
    4.9602    0.4418   19.2194 N   0  0  0  0  0  0  0  0  0  0  0  0
    5.8465   -0.4245   18.1939 S   0  0  0  0  0  0  0  0  0  0  0  0
    5.3807   -1.7745   18.2984 O   0  0  0  0  0  0  0  0  0  0  0  0
    5.6942    0.2306   16.9297 O   0  0  0  0  0  0  0  0  0  0  0  0
    7.5916   -0.4573   18.5175 C   0  0  0  0  0  0  0  0  0  0  0  0
    8.0967   -1.3633   19.6349 C   0  0  0  0  0  0  0  0  0  0  0  0
  1  2  1  0
  2  3  1  0
  3  4  1  0
  4  5  2  0
  5  6  1  0
  6  7  2  0
  7  8  1  0
  8  9  2  0
  2 10  1  0
 10 11  2  0
 10 12  1  0
 12 13  1  0
 13 14  1  0
 14 15  1  0
 15 16  1  0
 16 17  1  0
 17 18  1  0
 18 19  2  0
 18 20  2  0
 18 21  1  0
 21 22  1  0
  9  4  1  0
 22 12  1  0
M  END
