CVD-0002657|dock_bobby27042020.33|mol2|27|dock3
     RDKit          3D

 40 43  0  0  0  0  0  0  0  0999 V2000
    2.4715    5.1573   15.1235 C   0  0  0  0  0  0  0  0  0  0  0  0
    1.7461    4.4685   16.2419 C   0  0  0  0  0  0  0  0  0  0  0  0
    0.5303    4.3139   16.2001 O   0  0  0  0  0  0  0  0  0  0  0  0
    2.5578    4.0722   17.2572 N   0  0  0  0  0  0  0  0  0  0  0  0
    2.2667    3.4102   18.4829 C   0  0  0  0  0  0  0  0  0  0  0  0
    1.1391    3.6840   19.2565 C   0  0  0  0  0  0  0  0  0  0  0  0
    0.8592    3.0742   20.4117 N   0  0  0  0  0  0  0  0  0  0  0  0
    1.7233    2.1658   20.8546 C   0  0  0  0  0  0  0  0  0  0  0  0
    2.8683    1.8145   20.1744 C   0  0  0  0  0  0  0  0  0  0  0  0
    3.1554    2.4252   18.9559 C   0  0  0  0  0  0  0  0  0  0  0  0
    4.4009    2.0036   18.1907 C   0  0  0  0  0  0  0  0  0  0  0  0
    5.4642    1.3091   19.0176 C   0  0  0  0  0  0  0  0  0  0  0  0
    5.6328   -0.0619   18.9501 C   0  0  0  0  0  0  0  0  0  0  0  0
    6.6026   -0.6836   19.7109 C   0  0  0  0  0  0  0  0  0  0  0  0
    7.4335    0.0375   20.5630 C   0  0  0  0  0  0  0  0  0  0  0  0
    8.4658   -0.7436   21.3480 C   0  0  0  0  0  0  0  0  0  0  0  0
    8.1969   -0.7270   22.8419 C   0  0  0  0  0  0  0  0  0  0  0  0
    7.2087   -1.7246   23.2266 N   0  0  0  0  0  0  0  0  0  0  0  0
    7.3315   -2.4452   24.3588 C   0  0  0  0  0  0  0  0  0  0  0  0
    8.2797   -2.3018   25.1262 O   0  0  0  0  0  0  0  0  0  0  0  0
    6.3430   -3.3358   24.5936 N   0  0  0  0  0  0  0  0  0  0  0  0
    6.3601   -4.2585   25.7287 C   0  0  0  0  0  0  0  0  0  0  0  0
    6.3500   -3.4941   27.0685 C   0  0  0  0  0  0  0  0  0  0  0  0
    6.4407   -4.4285   28.2734 C   0  0  0  0  0  0  0  0  0  0  0  0
    7.6484   -5.3509   28.1705 C   0  0  0  0  0  0  0  0  0  0  0  0
    7.6371   -6.1264   26.8610 C   0  0  0  0  0  0  0  0  0  0  0  0
    7.5864   -5.1847   25.6623 C   0  0  0  0  0  0  0  0  0  0  0  0
    7.2734    1.4333   20.6422 C   0  0  0  0  0  0  0  0  0  0  0  0
    8.1295    2.1614   21.5159 N   0  0  0  0  0  0  0  0  0  0  0  0
    7.9580    3.3586   22.1301 C   0  0  0  0  0  0  0  0  0  0  0  0
    6.9734    4.0843   22.0436 O   0  0  0  0  0  0  0  0  0  0  0  0
    9.1366    3.7633   22.9815 C   0  0  0  0  0  0  0  0  0  0  0  0
    9.1010    5.2407   23.3651 C   0  0  0  0  0  0  0  0  0  0  0  0
   10.3194    5.6677   24.1477 C   0  0  0  0  0  0  0  0  0  0  0  0
   10.2659    5.8026   25.5264 C   0  0  0  0  0  0  0  0  0  0  0  0
   11.3840    6.1913   26.2452 C   0  0  0  0  0  0  0  0  0  0  0  0
   12.5705    6.4494   25.5934 C   0  0  0  0  0  0  0  0  0  0  0  0
   12.6386    6.3181   24.2231 C   0  0  0  0  0  0  0  0  0  0  0  0
   11.5198    5.9294   23.5053 C   0  0  0  0  0  0  0  0  0  0  0  0
    6.2859    2.0421   19.8643 C   0  0  0  0  0  0  0  0  0  0  0  0
  1  2  1  0
  2  3  2  0
  2  4  1  0
  4  5  1  0
  5  6  2  0
  6  7  1  0
  7  8  2  0
  8  9  1  0
  9 10  2  0
 10 11  1  0
 11 12  1  0
 12 13  2  0
 13 14  1  0
 14 15  2  0
 15 16  1  0
 16 17  1  0
 17 18  1  0
 18 19  1  0
 19 20  2  0
 19 21  1  0
 21 22  1  0
 22 23  1  0
 23 24  1  0
 24 25  1  0
 25 26  1  0
 26 27  1  0
 15 28  1  0
 28 29  1  0
 29 30  1  0
 30 31  2  0
 30 32  1  0
 32 33  1  0
 33 34  1  0
 34 35  2  0
 35 36  1  0
 36 37  2  0
 37 38  1  0
 38 39  2  0
 28 40  2  0
 10  5  1  0
 40 12  1  0
 27 22  1  0
 39 34  1  0
M  END
