CVD-0003137|dock_bobby27042020.60|mol2|39|dock2
     RDKit          3D

 18 20  0  0  0  0  0  0  0  0999 V2000
    6.7968   -1.7724   22.1383 C   0  0  0  0  0  0  0  0  0  0  0  0
    7.4330   -0.7120   21.2479 C   0  0  0  0  0  0  0  0  0  0  0  0
    8.8119   -1.1185   20.9588 N   0  0  0  0  0  0  0  0  0  0  0  0
    9.7281   -1.2777   21.9389 C   0  0  0  0  0  0  0  0  0  0  0  0
    9.4855   -1.0242   23.1159 O   0  0  0  0  0  0  0  0  0  0  0  0
   10.9310   -1.7362   21.5287 N   0  0  0  0  0  0  0  0  0  0  0  0
   12.0385   -1.8716   22.4688 C   0  0  0  0  0  0  0  0  0  0  0  0
   13.4610   -1.8824   22.0012 C   0  0  0  0  0  0  0  0  0  0  0  0
   12.9768   -0.7360   22.8350 C   0  0  0  0  0  0  0  0  0  0  0  0
   13.3667    0.0297   24.0585 C   0  0  0  0  0  0  0  0  0  0  0  0
   12.9687    0.7588   22.8068 C   0  0  0  0  0  0  0  0  0  0  0  0
    6.6431   -0.5211   19.9672 C   0  0  0  0  0  0  0  0  0  0  0  0
    6.0603   -1.6096   19.3281 C   0  0  0  0  0  0  0  0  0  0  0  0
    5.3476   -1.4109   18.1621 C   0  0  0  0  0  0  0  0  0  0  0  0
    5.1935   -0.2012   17.6155 N   0  0  0  0  0  0  0  0  0  0  0  0
    5.7619    0.8902   18.2291 C   0  0  0  0  0  0  0  0  0  0  0  0
    5.6048    2.0693   17.6847 O   0  0  0  0  0  0  0  0  0  0  0  0
    6.4990    0.7474   19.4194 C   0  0  0  0  0  0  0  0  0  0  0  0
  2  1  1  0
  2  3  1  0
  3  4  1  0
  4  5  2  0
  4  6  1  0
  7  6  1  0
  7  8  1  0
  8  9  1  0
  9 10  1  0
 10 11  1  0
  2 12  1  0
 12 13  2  0
 13 14  1  0
 14 15  2  0
 15 16  1  0
 16 17  1  0
 16 18  2  0
  9  7  1  0
 11  9  1  0
 18 12  1  0
M  END
