CVD-0003197|dock_bobby27042020.3|mol2|1|dock2
     RDKit          3D

 25 27  0  0  0  0  0  0  0  0999 V2000
    9.6382    6.4131   23.1429 C   0  0  0  0  0  0  0  0  0  0  0  0
   10.8952    5.7292   23.5941 C   0  0  0  0  0  0  0  0  0  0  0  0
   11.2941    5.8020   24.7523 O   0  0  0  0  0  0  0  0  0  0  0  0
   11.5632    5.0511   22.6589 N   0  0  0  0  0  0  0  0  0  0  0  0
   12.8080    4.3498   22.9369 C   0  0  0  0  0  0  0  0  0  0  0  0
   12.9813    3.1083   22.0834 C   0  0  0  0  0  0  0  0  0  0  0  0
   11.9460    2.0497   22.3335 C   0  0  0  0  0  0  0  0  0  0  0  0
   10.5988    2.1858   22.2313 C   0  0  0  0  0  0  0  0  0  0  0  0
    9.9674    1.0164   22.5365 N   0  0  0  0  0  0  0  0  0  0  0  0
    8.5240    0.7994   22.5006 C   0  0  0  0  0  0  0  0  0  0  0  0
    8.0073    0.7986   21.0630 C   0  0  0  0  0  0  0  0  0  0  0  0
    8.7731    1.0111   20.1313 O   0  0  0  0  0  0  0  0  0  0  0  0
    6.6955    0.5519   20.8655 N   0  0  0  0  0  0  0  0  0  0  0  0
    6.0805    0.5334   19.5330 C   0  0  0  0  0  0  0  0  0  0  0  0
    4.7877    1.3234   19.5507 C   0  0  0  0  0  0  0  0  0  0  0  0
    3.8927    0.8498   20.5366 O   0  0  0  0  0  0  0  0  0  0  0  0
    4.4895    0.9473   21.8302 C   0  0  0  0  0  0  0  0  0  0  0  0
    5.7594    0.1295   21.9118 C   0  0  0  0  0  0  0  0  0  0  0  0
   10.9298    0.0656   22.8360 C   0  0  0  0  0  0  0  0  0  0  0  0
   10.8226   -1.2751   23.1903 C   0  0  0  0  0  0  0  0  0  0  0  0
   11.9733   -1.9991   23.4526 C   0  0  0  0  0  0  0  0  0  0  0  0
   13.2041   -1.3839   23.3604 C   0  0  0  0  0  0  0  0  0  0  0  0
   14.6419   -2.3057   23.7003 Cl  0  0  0  0  0  0  0  0  0  0  0  0
   13.3276   -0.0561   23.0053 C   0  0  0  0  0  0  0  0  0  0  0  0
   12.1835    0.6901   22.7300 C   0  0  0  0  0  0  0  0  0  0  0  0
  1  2  1  0
  2  3  2  0
  2  4  1  0
  4  5  1  0
  5  6  1  0
  6  7  1  0
  7  8  2  0
  8  9  1  0
  9 10  1  0
 10 11  1  0
 11 12  2  0
 11 13  1  0
 13 14  1  0
 14 15  1  0
 15 16  1  0
 16 17  1  0
 17 18  1  0
  9 19  1  0
 19 20  2  0
 20 21  1  0
 21 22  2  0
 22 23  1  0
 22 24  1  0
 24 25  2  0
 25  7  1  0
 18 13  1  0
 25 19  1  0
M  END
