CVD-0000620|dock_bobby27042020.41|mol2|1|dock2
     RDKit          3D

 24 26  0  0  0  0  0  0  0  0999 V2000
   14.0697    6.7150   21.9018 C   0  0  0  0  0  0  0  0  0  0  0  0
   13.3613    5.4601   22.1585 N   0  0  0  0  0  0  0  0  0  0  0  0
   12.0305    5.2540   22.1179 C   0  0  0  0  0  0  0  0  0  0  0  0
   11.6901    4.0067   22.3783 N   0  0  0  0  0  0  0  0  0  0  0  0
   12.8980    3.3698   22.5911 C   0  0  0  0  0  0  0  0  0  0  0  0
   13.9299    4.2566   22.4526 C   0  0  0  0  0  0  0  0  0  0  0  0
   12.9304    1.9772   22.9024 C   0  0  0  0  0  0  0  0  0  0  0  0
   12.8859    0.8045   23.1369 C   0  0  0  0  0  0  0  0  0  0  0  0
   12.7316   -0.6331   23.3928 C   0  0  0  0  0  0  0  0  0  0  0  0
   11.6522   -1.2759   22.4851 C   0  0  0  0  0  0  0  0  0  0  0  0
   10.2752   -0.6418   22.4830 C   0  0  0  0  0  0  0  0  0  0  0  0
    9.8555    0.0048   23.4363 O   0  0  0  0  0  0  0  0  0  0  0  0
    9.5901   -0.8706   21.3361 N   0  0  0  0  0  0  0  0  0  0  0  0
    8.2955   -0.4716   20.9188 C   0  0  0  0  0  0  0  0  0  0  0  0
    7.9809   -0.5257   19.5671 C   0  0  0  0  0  0  0  0  0  0  0  0
    6.7224   -0.1402   19.1403 C   0  0  0  0  0  0  0  0  0  0  0  0
    5.8122    0.2890   20.0779 C   0  0  0  0  0  0  0  0  0  0  0  0
    6.0829    0.3525   21.3816 N   0  0  0  0  0  0  0  0  0  0  0  0
    7.3012   -0.0218   21.7847 C   0  0  0  0  0  0  0  0  0  0  0  0
   14.0455   -1.2807   22.9631 C   0  0  0  0  0  0  0  0  0  0  0  0
   14.0774   -2.7489   23.3379 C   0  0  0  0  0  0  0  0  0  0  0  0
   13.8487   -2.9462   24.8286 C   0  0  0  0  0  0  0  0  0  0  0  0
   12.5477   -2.2948   25.2687 C   0  0  0  0  0  0  0  0  0  0  0  0
   12.5019   -0.8211   24.8858 C   0  0  0  0  0  0  0  0  0  0  0  0
  1  2  1  0
  2  3  1  0
  3  4  2  0
  4  5  1  0
  5  6  2  0
  5  7  1  0
  7  8  3  0
  8  9  1  0
  9 10  1  0
 10 11  1  0
 11 12  2  0
 11 13  1  0
 13 14  1  0
 14 15  2  0
 15 16  1  0
 16 17  2  0
 17 18  1  0
 18 19  2  0
  9 20  1  0
 20 21  1  0
 21 22  1  0
 22 23  1  0
 23 24  1  0
  6  2  1  0
 24  9  1  0
 19 14  1  0
M  END
