CVD-0003830|dock_bobby27042020.0|mol2|38|dock2
     RDKit          3D

 30 33  0  0  0  0  0  0  0  0999 V2000
    6.9493   -2.8072   24.6596 C   0  0  0  0  0  0  0  0  0  0  0  0
    7.8336   -3.7611   23.9794 N   0  0  0  0  0  0  0  0  0  0  0  0
    7.0711   -4.7818   23.2392 C   0  0  0  0  0  0  0  0  0  0  0  0
    7.8694   -5.9027   22.5973 C   0  0  0  0  0  0  0  0  0  0  0  0
    6.8066   -6.8341   22.1014 C   0  0  0  0  0  0  0  0  0  0  0  0
    5.6244   -6.7299   23.0967 C   0  0  0  0  0  0  0  0  0  0  0  0
    5.9845   -5.5521   24.0482 C   0  0  0  0  0  0  0  0  0  0  0  0
    6.4413   -5.9728   25.4312 C   0  0  0  0  0  0  0  0  0  0  0  0
    5.5542   -6.5300   26.3403 C   0  0  0  0  0  0  0  0  0  0  0  0
    5.9887   -6.9087   27.5986 C   0  0  0  0  0  0  0  0  0  0  0  0
    7.3148   -6.7318   27.9557 C   0  0  0  0  0  0  0  0  0  0  0  0
    8.2200   -6.1759   27.0650 C   0  0  0  0  0  0  0  0  0  0  0  0
    9.6669   -5.9849   27.4495 C   0  0  0  0  0  0  0  0  0  0  0  0
    7.7652   -5.8043   25.8084 C   0  0  0  0  0  0  0  0  0  0  0  0
    8.9682   -3.1251   23.2588 C   0  0  0  0  0  0  0  0  0  0  0  0
    8.5244   -1.9567   22.4358 C   0  0  0  0  0  0  0  0  0  0  0  0
    9.6772   -1.2373   21.7547 C   0  0  0  0  0  0  0  0  0  0  0  0
   10.6978   -0.8885   22.7305 N   0  0  0  0  0  0  0  0  0  0  0  0
   11.2073   -2.0109   23.5091 C   0  0  0  0  0  0  0  0  0  0  0  0
   10.0498   -2.6904   24.2353 C   0  0  0  0  0  0  0  0  0  0  0  0
   11.3000    0.3622   22.7506 C   0  0  0  0  0  0  0  0  0  0  0  0
   12.6857    0.4879   22.7267 C   0  0  0  0  0  0  0  0  0  0  0  0
   13.2920    1.7314   22.7464 C   0  0  0  0  0  0  0  0  0  0  0  0
   12.5113    2.8728   22.7853 C   0  0  0  0  0  0  0  0  0  0  0  0
   11.1317    2.7728   22.8108 C   0  0  0  0  0  0  0  0  0  0  0  0
   10.5357    1.5243   22.7956 C   0  0  0  0  0  0  0  0  0  0  0  0
   13.2792    4.4642   22.8132 S   0  0  0  0  0  0  0  0  0  0  0  0
   12.8778    5.2447   21.4742 N   0  0  0  0  0  0  0  0  0  0  0  0
   14.6957    4.2563   22.7737 O   0  0  0  0  0  0  0  0  0  0  0  0
   12.7171    5.1911   23.9117 O   0  0  0  0  0  0  0  0  0  0  0  0
  1  2  1  0
  3  2  1  0
  3  4  1  0
  4  5  1  0
  5  6  1  0
  6  7  1  0
  7  8  1  0
  8  9  2  0
  9 10  1  0
 10 11  2  0
 11 12  1  0
 12 13  1  0
 12 14  2  0
  2 15  1  0
 15 16  1  0
 16 17  1  0
 17 18  1  0
 18 19  1  0
 19 20  1  0
 18 21  1  0
 21 22  2  0
 22 23  1  0
 23 24  2  0
 24 25  1  0
 25 26  2  0
 24 27  1  0
 27 28  1  0
 27 29  2  0
 27 30  2  0
  7  3  1  0
 14  8  1  0
 20 15  1  0
 26 21  1  0
M  END
