CVD-0001998|dock_bobby27042020.93|mol2|20|dock2
     RDKit          3D

 20 22  0  0  0  0  0  0  0  0999 V2000
    5.5969    1.6078   17.1383 C   0  0  0  0  0  0  0  0  0  0  0  0
    6.4977    0.7983   17.9529 O   0  0  0  0  0  0  0  0  0  0  0  0
    5.8950    0.2723   19.1053 C   0  0  0  0  0  0  0  0  0  0  0  0
    5.1501   -0.6831   18.8803 O   0  0  0  0  0  0  0  0  0  0  0  0
    6.1667    0.8645   20.4715 C   0  0  0  0  0  0  0  0  0  0  0  0
    5.0293    0.4991   21.4218 C   0  0  0  0  0  0  0  0  0  0  0  0
    7.5164    0.3712   20.9745 C   0  0  0  0  0  0  0  0  0  0  0  0
    7.8771   -0.9628   20.8222 C   0  0  0  0  0  0  0  0  0  0  0  0
    9.0951   -1.4424   21.2713 C   0  0  0  0  0  0  0  0  0  0  0  0
    9.9815   -0.5664   21.8926 C   0  0  0  0  0  0  0  0  0  0  0  0
    9.6145    0.7833   22.0472 C   0  0  0  0  0  0  0  0  0  0  0  0
    8.3889    1.2575   21.5932 C   0  0  0  0  0  0  0  0  0  0  0  0
   10.6406    1.4557   22.6846 N   0  0  0  0  0  0  0  0  0  0  0  0
   11.6666    0.5659   22.9459 C   0  0  0  0  0  0  0  0  0  0  0  0
   12.8936    0.7768   23.5652 C   0  0  0  0  0  0  0  0  0  0  0  0
   13.7657   -0.2885   23.7128 C   0  0  0  0  0  0  0  0  0  0  0  0
   13.4088   -1.5374   23.2468 C   0  0  0  0  0  0  0  0  0  0  0  0
   14.5220   -2.8619   23.4437 Cl  0  0  0  0  0  0  0  0  0  0  0  0
   12.1963   -1.7718   22.6287 C   0  0  0  0  0  0  0  0  0  0  0  0
   11.3070   -0.7106   22.4721 C   0  0  0  0  0  0  0  0  0  0  0  0
  1  2  1  0
  2  3  1  0
  3  4  2  0
  3  5  1  0
  5  6  1  0
  5  7  1  0
  7  8  2  0
  8  9  1  0
  9 10  2  0
 10 11  1  0
 11 12  2  0
 11 13  1  0
 13 14  1  0
 14 15  2  0
 15 16  1  0
 16 17  2  0
 17 18  1  0
 17 19  1  0
 19 20  2  0
 12  7  1  0
 20 14  1  0
 20 10  1  0
M  CHG  1   2   1
M  END
