CVD-0002208|dock_bobby27042020.49|mol2|33|dock3
     RDKit          3D

 22 24  0  0  0  0  0  0  0  0999 V2000
   13.7789   -2.1910   23.0758 C   0  0  0  0  0  0  0  0  0  0  0  0
   13.1248   -1.6602   21.8387 C   0  0  0  0  0  0  0  0  0  0  0  0
   11.7519   -1.2566   22.0939 N   0  0  0  0  0  0  0  0  0  0  0  0
   11.3490    0.0553   22.2116 C   0  0  0  0  0  0  0  0  0  0  0  0
   12.2242    1.0250   22.7034 C   0  0  0  0  0  0  0  0  0  0  0  0
   11.8157    2.3413   22.8219 C   0  0  0  0  0  0  0  0  0  0  0  0
   10.5301    2.7135   22.4513 C   0  0  0  0  0  0  0  0  0  0  0  0
    9.6543    1.7520   21.9586 C   0  0  0  0  0  0  0  0  0  0  0  0
   10.0462    0.4237   21.8333 C   0  0  0  0  0  0  0  0  0  0  0  0
    9.0457   -0.5781   21.2841 C   0  0  0  0  0  0  0  0  0  0  0  0
    7.7396    0.0367   20.8233 C   0  0  0  0  0  0  0  0  0  0  0  0
    6.7436    0.3595   21.7357 C   0  0  0  0  0  0  0  0  0  0  0  0
    5.5458    0.9193   21.3205 C   0  0  0  0  0  0  0  0  0  0  0  0
    5.3296    1.1653   19.9689 C   0  0  0  0  0  0  0  0  0  0  0  0
    4.1433    1.7538   19.2625 C   0  0  0  0  0  0  0  0  0  0  0  0
    4.5889    1.7320   17.8861 N   0  0  0  0  0  0  0  0  0  0  0  0
    5.8188    1.2171   17.7055 C   0  0  0  0  0  0  0  0  0  0  0  0
    6.3884    1.1111   16.6241 O   0  0  0  0  0  0  0  0  0  0  0  0
    6.3137    0.8484   19.0498 C   0  0  0  0  0  0  0  0  0  0  0  0
    7.5165    0.2855   19.4728 C   0  0  0  0  0  0  0  0  0  0  0  0
   10.1014    4.0850   22.5738 C   0  0  0  0  0  0  0  0  0  0  0  0
    9.7905    5.1811   22.6572 N   0  0  0  0  0  0  0  0  0  0  0  0
  1  2  1  0
  2  3  1  0
  3  4  1  0
  4  5  2  0
  5  6  1  0
  6  7  2  0
  7  8  1  0
  8  9  2  0
  9 10  1  0
 10 11  1  0
 11 12  2  0
 12 13  1  0
 13 14  2  0
 14 15  1  0
 15 16  1  0
 16 17  1  0
 17 18  2  0
 17 19  1  0
 19 20  2  0
  7 21  1  0
 21 22  3  0
  9  4  1  0
 20 11  1  0
 19 14  1  0
M  END
