CVD-0003948|dock_bobby27042020.0|mol2|21|dock2
     RDKit          3D

 18 19  0  0  0  0  0  0  0  0999 V2000
    5.7736   -1.3243   18.1869 C   0  0  0  0  0  0  0  0  0  0  0  0
    6.3595   -0.3715   19.2002 C   0  0  0  0  0  0  0  0  0  0  0  0
    5.7429    0.8397   19.4685 C   0  0  0  0  0  0  0  0  0  0  0  0
    6.2859    1.6997   20.3982 C   0  0  0  0  0  0  0  0  0  0  0  0
    5.4945    3.2173   20.7187 Cl  0  0  0  0  0  0  0  0  0  0  0  0
    7.4423    1.3851   21.0804 C   0  0  0  0  0  0  0  0  0  0  0  0
    8.0747    0.1727   20.8252 C   0  0  0  0  0  0  0  0  0  0  0  0
    9.2605   -0.1149   21.5466 N   0  0  0  0  0  0  0  0  0  0  0  0
    9.8642   -1.3132   21.8407 C   0  0  0  0  0  0  0  0  0  0  0  0
    9.4627   -2.4257   21.5124 O   0  0  0  0  0  0  0  0  0  0  0  0
   11.0086   -1.1226   22.5694 N   0  0  0  0  0  0  0  0  0  0  0  0
   12.2002   -1.3492   23.2985 C   0  0  0  0  0  0  0  0  0  0  0  0
   13.1389   -2.3104   22.9337 C   0  0  0  0  0  0  0  0  0  0  0  0
   14.2776   -2.4640   23.7059 C   0  0  0  0  0  0  0  0  0  0  0  0
   14.4447   -1.6606   24.8108 C   0  0  0  0  0  0  0  0  0  0  0  0
   13.5621   -0.7330   25.1824 N   0  0  0  0  0  0  0  0  0  0  0  0
   12.4658   -0.5906   24.4323 C   0  0  0  0  0  0  0  0  0  0  0  0
    7.5224   -0.6951   19.8839 C   0  0  0  0  0  0  0  0  0  0  0  0
  1  2  1  0
  2  3  2  0
  3  4  1  0
  4  5  1  0
  4  6  2  0
  6  7  1  0
  7  8  1  0
  8  9  1  0
  9 10  2  0
  9 11  1  0
 11 12  1  0
 12 13  2  0
 13 14  1  0
 14 15  2  0
 15 16  1  0
 16 17  2  0
  7 18  2  0
 18  2  1  0
 17 12  1  0
M  END
