CVD-0003602|dock_bobby27042020.59|mol2|18|dock3
     RDKit          3D

 29 31  0  0  0  0  0  0  0  0999 V2000
   13.7241    7.0613   21.3769 F   0  0  0  0  0  0  0  0  0  0  0  0
   13.8628    6.5255   22.5844 C   0  0  0  0  0  0  0  0  0  0  0  0
   13.4364    7.4449   23.4428 F   0  0  0  0  0  0  0  0  0  0  0  0
   15.1709    6.4161   22.7869 F   0  0  0  0  0  0  0  0  0  0  0  0
   13.1435    5.2224   22.7262 C   0  0  0  0  0  0  0  0  0  0  0  0
   12.7680    4.7481   23.9750 C   0  0  0  0  0  0  0  0  0  0  0  0
   12.1009    3.5434   24.1085 C   0  0  0  0  0  0  0  0  0  0  0  0
   11.7838    2.7760   22.9923 C   0  0  0  0  0  0  0  0  0  0  0  0
   12.1582    3.2540   21.7406 C   0  0  0  0  0  0  0  0  0  0  0  0
   12.8284    4.4576   21.6121 C   0  0  0  0  0  0  0  0  0  0  0  0
   11.1134    1.5685   23.1234 N   0  0  0  0  0  0  0  0  0  0  0  0
    9.8345    1.2950   22.4517 C   0  0  0  0  0  0  0  0  0  0  0  0
    9.7917   -0.1383   21.9524 C   0  0  0  0  0  0  0  0  0  0  0  0
   10.0292   -1.0785   23.0472 N   0  0  0  0  0  0  0  0  0  0  0  0
    9.8595   -2.4589   22.5744 C   0  0  0  0  0  0  0  0  0  0  0  0
    8.4730   -2.7248   22.0224 C   0  0  0  0  0  0  0  0  0  0  0  0
    8.3528   -2.2770   20.6423 N   0  0  0  0  0  0  0  0  0  0  0  0
    7.1528   -2.1225   20.0485 C   0  0  0  0  0  0  0  0  0  0  0  0
    6.0968   -2.3575   20.6298 O   0  0  0  0  0  0  0  0  0  0  0  0
    7.1929   -1.6921   18.7719 N   0  0  0  0  0  0  0  0  0  0  0  0
    5.9761   -1.4792   18.0021 C   0  0  0  0  0  0  0  0  0  0  0  0
    5.3968   -0.0997   18.1895 C   0  0  0  0  0  0  0  0  0  0  0  0
    4.5196    0.1816   19.2234 C   0  0  0  0  0  0  0  0  0  0  0  0
    4.0214    1.4679   19.3374 C   0  0  0  0  0  0  0  0  0  0  0  0
    4.4057    2.4286   18.4276 C   0  0  0  0  0  0  0  0  0  0  0  0
    5.2807    2.0617   17.4306 C   0  0  0  0  0  0  0  0  0  0  0  0
    5.7776    0.8247   17.2974 N   0  0  0  0  0  0  0  0  0  0  0  0
   11.3778   -0.8345   23.5616 C   0  0  0  0  0  0  0  0  0  0  0  0
   11.4938    0.5691   24.1317 C   0  0  0  0  0  0  0  0  0  0  0  0
  1  2  1  0
  2  3  1  0
  2  4  1  0
  2  5  1  0
  5  6  2  0
  6  7  1  0
  7  8  2  0
  8  9  1  0
  9 10  2  0
  8 11  1  0
 11 12  1  0
 12 13  1  0
 13 14  1  0
 14 15  1  0
 15 16  1  0
 16 17  1  0
 17 18  1  0
 18 19  2  0
 18 20  1  0
 20 21  1  0
 21 22  1  0
 22 23  2  0
 23 24  1  0
 24 25  2  0
 25 26  1  0
 26 27  2  0
 14 28  1  0
 28 29  1  0
 10  5  1  0
 29 11  1  0
 27 22  1  0
M  END
