CVD-0002269|dock_bobby27042020.6|mol2|27|dock3
     RDKit          3D

 26 28  0  0  0  0  0  0  0  0999 V2000
   14.5536    6.2871   21.5680 C   0  0  0  0  0  0  0  0  0  0  0  0
   13.4954    5.4186   22.1627 C   0  0  0  0  0  0  0  0  0  0  0  0
   13.1160    5.4891   23.3944 N   0  0  0  0  0  0  0  0  0  0  0  0
   12.1077    4.5779   23.7045 N   0  0  0  0  0  0  0  0  0  0  0  0
   11.7619    3.8548   22.6938 C   0  0  0  0  0  0  0  0  0  0  0  0
   10.6921    2.8085   22.7895 C   0  0  0  0  0  0  0  0  0  0  0  0
   11.1304    1.6265   23.5439 N   0  0  0  0  0  0  0  0  0  0  0  0
   12.3717    1.0044   23.0868 C   0  0  0  0  0  0  0  0  0  0  0  0
   12.7675   -0.2210   23.8258 C   0  0  0  0  0  0  0  0  0  0  0  0
   14.0603   -0.5715   23.5542 F   0  0  0  0  0  0  0  0  0  0  0  0
   11.9391   -0.8555   24.6324 C   0  0  0  0  0  0  0  0  0  0  0  0
   10.5531   -0.3879   24.8825 C   0  0  0  0  0  0  0  0  0  0  0  0
   10.1324    0.5969   23.8053 C   0  0  0  0  0  0  0  0  0  0  0  0
    9.7097   -0.2498   22.3013 S   0  0  0  0  0  0  0  0  0  0  0  0
    9.1664    0.7319   21.4071 O   0  0  0  0  0  0  0  0  0  0  0  0
   10.8401   -1.0251   21.8779 O   0  0  0  0  0  0  0  0  0  0  0  0
    8.5234   -1.2955   22.6203 N   0  0  0  0  0  0  0  0  0  0  0  0
    8.1010   -2.2579   21.5956 C   0  0  0  0  0  0  0  0  0  0  0  0
    6.6013   -2.1799   21.3732 C   0  0  0  0  0  0  0  0  0  0  0  0
    6.1951   -0.9858   20.5440 C   0  0  0  0  0  0  0  0  0  0  0  0
    5.9230   -1.1205   19.1912 C   0  0  0  0  0  0  0  0  0  0  0  0
    5.5475   -0.0259   18.4306 C   0  0  0  0  0  0  0  0  0  0  0  0
    5.4386    1.2180   19.0141 C   0  0  0  0  0  0  0  0  0  0  0  0
    5.7049    1.3664   20.3582 C   0  0  0  0  0  0  0  0  0  0  0  0
    6.0804    0.2710   21.1179 C   0  0  0  0  0  0  0  0  0  0  0  0
   12.6428    4.2236   21.2411 S   0  0  0  0  0  0  0  0  0  0  0  0
  1  2  1  0
  2  3  2  0
  3  4  1  0
  4  5  2  0
  5  6  1  0
  6  7  1  0
  7  8  1  0
  8  9  1  0
  9 10  1  0
  9 11  2  0
 11 12  1  0
 12 13  1  0
 13 14  1  0
 14 15  2  0
 14 16  2  0
 14 17  1  0
 17 18  1  0
 18 19  1  0
 19 20  1  0
 20 21  2  0
 21 22  1  0
 22 23  2  0
 23 24  1  0
 24 25  2  0
  5 26  1  0
 26  2  1  0
 13  7  1  0
 25 20  1  0
M  END
