CVD-0002543|dock_bobby27042020.77|mol2|5|dock2
     RDKit          3D

 32 33  0  0  0  0  0  0  0  0999 V2000
   14.0495   -1.5947   23.9239 C   0  0  0  0  0  0  0  0  0  0  0  0
   12.8931   -0.9559   23.2125 C   0  0  0  0  0  0  0  0  0  0  0  0
   13.0222   -0.4179   22.1173 O   0  0  0  0  0  0  0  0  0  0  0  0
   11.7114   -1.0228   23.8354 N   0  0  0  0  0  0  0  0  0  0  0  0
   10.5045   -0.4606   23.2516 C   0  0  0  0  0  0  0  0  0  0  0  0
   10.2270   -1.1007   21.8829 C   0  0  0  0  0  0  0  0  0  0  0  0
    8.8240   -1.6415   21.7496 C   0  0  0  0  0  0  0  0  0  0  0  0
    8.3108   -2.5213   22.6904 C   0  0  0  0  0  0  0  0  0  0  0  0
    7.0247   -3.0178   22.5764 C   0  0  0  0  0  0  0  0  0  0  0  0
    6.2241   -2.6364   21.5075 C   0  0  0  0  0  0  0  0  0  0  0  0
    4.9600   -3.1195   21.3896 O   0  0  0  0  0  0  0  0  0  0  0  0
    6.7324   -1.7507   20.5547 C   0  0  0  0  0  0  0  0  0  0  0  0
    8.0237   -1.2580   20.6803 C   0  0  0  0  0  0  0  0  0  0  0  0
    5.7457   -1.2328   19.1776 S   0  0  0  0  0  0  0  0  0  0  0  0
    4.7583   -2.2432   18.9500 O   0  0  0  0  0  0  0  0  0  0  0  0
    6.6384   -0.8665   18.1207 O   0  0  0  0  0  0  0  0  0  0  0  0
    4.9578    0.1036   19.6104 N   0  0  0  0  0  0  0  0  0  0  0  0
    5.5064    0.9724   20.6586 C   0  0  0  0  0  0  0  0  0  0  0  0
    5.0319    2.4023   20.4718 C   0  0  0  0  0  0  0  0  0  0  0  0
    3.5279    2.5147   20.4073 C   0  0  0  0  0  0  0  0  0  0  0  0
    2.9019    3.0230   19.2796 C   0  0  0  0  0  0  0  0  0  0  0  0
    1.5219    3.1232   19.2188 C   0  0  0  0  0  0  0  0  0  0  0  0
    0.7505    2.7151   20.2854 C   0  0  0  0  0  0  0  0  0  0  0  0
    1.3595    2.2065   21.4123 C   0  0  0  0  0  0  0  0  0  0  0  0
    2.7395    2.1067   21.4723 C   0  0  0  0  0  0  0  0  0  0  0  0
   10.6333    1.0518   23.0944 C   0  0  0  0  0  0  0  0  0  0  0  0
   11.6566    1.6296   23.4509 O   0  0  0  0  0  0  0  0  0  0  0  0
    9.5903    1.6856   22.5591 N   0  0  0  0  0  0  0  0  0  0  0  0
    9.5956    3.1286   22.3586 C   0  0  0  0  0  0  0  0  0  0  0  0
   10.9519    3.6825   22.2712 C   0  0  0  0  0  0  0  0  0  0  0  0
   12.0312    4.1589   22.1512 C   0  0  0  0  0  0  0  0  0  0  0  0
   13.6803    4.8447   21.9198 Br  0  0  0  0  0  0  0  0  0  0  0  0
  1  2  1  0
  2  3  2  0
  2  4  1  0
  4  5  1  0
  5  6  1  0
  6  7  1  0
  7  8  2  0
  8  9  1  0
  9 10  2  0
 10 11  1  0
 10 12  1  0
 12 13  2  0
 12 14  1  0
 14 15  2  0
 14 16  2  0
 14 17  1  0
 17 18  1  0
 18 19  1  0
 19 20  1  0
 20 21  2  0
 21 22  1  0
 22 23  2  0
 23 24  1  0
 24 25  2  0
  5 26  1  0
 26 27  2  0
 26 28  1  0
 28 29  1  0
 29 30  1  0
 30 31  3  0
 31 32  1  0
 13  7  1  0
 25 20  1  0
M  END
