CVD-0003875|dock_bobby27042020.58|mol2|22|dock2
     RDKit          3D

 25 27  0  0  0  0  0  0  0  0999 V2000
    6.4773   -7.1198   28.8792 C   0  0  0  0  0  0  0  0  0  0  0  0
    7.0224   -6.4614   27.6352 C   0  0  0  0  0  0  0  0  0  0  0  0
    6.1746   -5.9488   26.6672 C   0  0  0  0  0  0  0  0  0  0  0  0
    6.6680   -5.3445   25.5248 C   0  0  0  0  0  0  0  0  0  0  0  0
    8.0378   -5.2362   25.3178 C   0  0  0  0  0  0  0  0  0  0  0  0
    8.5044   -4.6208   24.1695 N   0  0  0  0  0  0  0  0  0  0  0  0
    8.0827   -3.3030   23.7304 C   0  0  0  0  0  0  0  0  0  0  0  0
    9.1711   -2.5205   23.0180 C   0  0  0  0  0  0  0  0  0  0  0  0
   10.3176   -2.1540   23.9667 C   0  0  0  0  0  0  0  0  0  0  0  0
   11.3876   -1.3829   23.2469 C   0  0  0  0  0  0  0  0  0  0  0  0
   10.8581   -0.1790   22.5993 N   0  0  0  0  0  0  0  0  0  0  0  0
    9.7341   -0.4630   21.6772 C   0  0  0  0  0  0  0  0  0  0  0  0
    8.6523   -1.2585   22.3761 C   0  0  0  0  0  0  0  0  0  0  0  0
   11.4834    1.0577   22.6816 C   0  0  0  0  0  0  0  0  0  0  0  0
   10.7466    2.2218   22.8785 C   0  0  0  0  0  0  0  0  0  0  0  0
   11.3670    3.4554   22.9656 C   0  0  0  0  0  0  0  0  0  0  0  0
   12.7430    3.5391   22.8483 C   0  0  0  0  0  0  0  0  0  0  0  0
   13.4962    2.3958   22.6498 C   0  0  0  0  0  0  0  0  0  0  0  0
   12.8662    1.1667   22.5686 C   0  0  0  0  0  0  0  0  0  0  0  0
   13.5422    5.1110   22.9629 S   0  0  0  0  0  0  0  0  0  0  0  0
   13.4603    5.8272   21.5335 N   0  0  0  0  0  0  0  0  0  0  0  0
   14.9269    4.8679   23.2360 O   0  0  0  0  0  0  0  0  0  0  0  0
   12.7860    5.9094   23.8805 O   0  0  0  0  0  0  0  0  0  0  0  0
    8.8952   -5.7559   26.2823 C   0  0  0  0  0  0  0  0  0  0  0  0
    8.3868   -6.3551   27.4212 C   0  0  0  0  0  0  0  0  0  0  0  0
  1  2  1  0
  2  3  2  0
  3  4  1  0
  4  5  2  0
  5  6  1  0
  6  7  1  0
  7  8  1  0
  8  9  1  0
  9 10  1  0
 10 11  1  0
 11 12  1  0
 12 13  1  0
 11 14  1  0
 14 15  2  0
 15 16  1  0
 16 17  2  0
 17 18  1  0
 18 19  2  0
 17 20  1  0
 20 21  1  0
 20 22  2  0
 20 23  2  0
  5 24  1  0
 24 25  2  0
 25  2  1  0
 13  8  1  0
 19 14  1  0
M  END
