CVD-0000931|dock_bobby27042020.54|mol2|20|dock2
     RDKit          3D

 42 45  0  0  0  0  0  0  0  0999 V2000
    4.5195   -4.8779   23.9243 C   0  0  0  0  0  0  0  0  0  0  0  0
    5.0860   -3.5786   24.4517 C   0  0  0  0  0  0  0  0  0  0  0  0
    5.4339   -2.7492   23.4155 N   0  0  0  0  0  0  0  0  0  0  0  0
    6.1973   -3.7736   25.3727 N   0  0  0  0  0  0  0  0  0  0  0  0
    7.4003   -4.5534   25.0286 C   0  0  0  0  0  0  0  0  0  0  0  0
    8.4889   -4.4483   26.1071 C   0  0  0  0  0  0  0  0  0  0  0  0
    9.7902   -5.0905   25.6755 C   0  0  0  0  0  0  0  0  0  0  0  0
    9.8434   -6.4115   25.7387 N   0  0  0  0  0  0  0  0  0  0  0  0
   10.7392   -4.4020   25.2892 O   0  0  0  0  0  0  0  0  0  0  0  0
    7.9337   -4.1652   23.6487 C   0  0  0  0  0  0  0  0  0  0  0  0
    7.9620   -4.9802   22.7308 O   0  0  0  0  0  0  0  0  0  0  0  0
    8.3767   -2.9132   23.4960 N   0  0  0  0  0  0  0  0  0  0  0  0
    8.9190   -2.4337   22.2308 C   0  0  0  0  0  0  0  0  0  0  0  0
   10.4089   -2.0915   22.3442 C   0  0  0  0  0  0  0  0  0  0  0  0
   10.6988   -0.7536   22.9836 C   0  0  0  0  0  0  0  0  0  0  0  0
   10.1142    0.2902   22.0552 C   0  0  0  0  0  0  0  0  0  0  0  0
    8.5898    0.2138   21.8878 C   0  0  0  0  0  0  0  0  0  0  0  0
    8.1302   -1.2376   21.7180 N   0  0  0  0  0  0  0  0  0  0  0  0
    6.9891   -1.6294   21.1093 C   0  0  0  0  0  0  0  0  0  0  0  0
    6.6894   -2.8152   21.0487 O   0  0  0  0  0  0  0  0  0  0  0  0
    6.0843   -0.5674   20.5128 C   0  0  0  0  0  0  0  0  0  0  0  0
    6.7022    0.0053   18.9578 Cl  0  0  0  0  0  0  0  0  0  0  0  0
   10.4347    1.6841   22.5093 C   0  0  0  0  0  0  0  0  0  0  0  0
    9.5649    2.6437   22.5085 N   0  0  0  0  0  0  0  0  0  0  0  0
   10.1176    3.8319   22.9741 C   0  0  0  0  0  0  0  0  0  0  0  0
    9.4834    5.0890   23.1125 C   0  0  0  0  0  0  0  0  0  0  0  0
   10.2142    6.1636   23.6281 C   0  0  0  0  0  0  0  0  0  0  0  0
   11.5431    6.0220   23.9920 C   0  0  0  0  0  0  0  0  0  0  0  0
   12.1803    4.8031   23.8494 C   0  0  0  0  0  0  0  0  0  0  0  0
   11.4653    3.7223   23.3438 C   0  0  0  0  0  0  0  0  0  0  0  0
   12.0355    2.1017   23.0735 S   0  0  0  0  0  0  0  0  0  0  0  0
    8.0596    5.3412   22.7382 C   0  0  0  0  0  0  0  0  0  0  0  0
    7.0454    4.4327   23.0335 C   0  0  0  0  0  0  0  0  0  0  0  0
    5.7284    4.6883   22.6936 C   0  0  0  0  0  0  0  0  0  0  0  0
    5.3898    5.8622   22.0335 C   0  0  0  0  0  0  0  0  0  0  0  0
    4.0976    6.1155   21.7000 O   0  0  0  0  0  0  0  0  0  0  0  0
    6.3936    6.7789   21.7162 C   0  0  0  0  0  0  0  0  0  0  0  0
    7.7090    6.5145   22.0687 C   0  0  0  0  0  0  0  0  0  0  0  0
    6.0149    8.2905   20.8723 S   0  0  0  0  0  0  0  0  0  0  0  0
    4.8313    8.0076   19.8321 N   0  0  0  0  0  0  0  0  0  0  0  0
    5.5116    9.2089   21.8493 O   0  0  0  0  0  0  0  0  0  0  0  0
    7.1719    8.6540   20.1106 O   0  0  0  0  0  0  0  0  0  0  0  0
  1  2  1  0
  2  3  1  0
  2  4  1  0
  4  5  1  0
  5  6  1  0
  6  7  1  0
  7  8  1  0
  7  9  2  0
  5 10  1  0
 10 11  2  0
 10 12  1  0
 12 13  1  0
 13 14  1  0
 14 15  1  0
 15 16  1  0
 16 17  1  0
 17 18  1  0
 18 19  1  0
 19 20  2  0
 19 21  1  0
 21 22  1  0
 16 23  1  0
 23 24  2  0
 24 25  1  0
 25 26  2  0
 26 27  1  0
 27 28  2  0
 28 29  1  0
 29 30  2  0
 30 31  1  0
 26 32  1  0
 32 33  2  0
 33 34  1  0
 34 35  2  0
 35 36  1  0
 35 37  1  0
 37 38  2  0
 37 39  1  0
 39 40  1  0
 39 41  2  0
 39 42  2  0
 18 13  1  0
 31 23  1  0
 38 32  1  0
 30 25  1  0
M  END
