CVD-0001011|dock_bobby27042020.96|mol2|38|dock2
     RDKit          3D

 21 23  0  0  0  0  0  0  0  0999 V2000
    6.3322   -2.8015   20.2456 O   0  0  0  0  0  0  0  0  0  0  0  0
    6.7059   -1.6799   20.5429 C   0  0  0  0  0  0  0  0  0  0  0  0
    7.6720   -1.5514   21.4813 N   0  0  0  0  0  0  0  0  0  0  0  0
    8.3303   -2.6552   22.1873 C   0  0  0  0  0  0  0  0  0  0  0  0
    9.8370   -2.5475   22.0663 C   0  0  0  0  0  0  0  0  0  0  0  0
   10.3580   -1.1796   22.5017 C   0  0  0  0  0  0  0  0  0  0  0  0
   11.8689   -1.0222   22.2829 C   0  0  0  0  0  0  0  0  0  0  0  0
   12.7087   -1.3225   23.5007 C   0  0  0  0  0  0  0  0  0  0  0  0
   12.8630   -0.3797   24.5052 C   0  0  0  0  0  0  0  0  0  0  0  0
   13.6311   -0.6559   25.6239 C   0  0  0  0  0  0  0  0  0  0  0  0
   14.2534   -1.8790   25.7515 C   0  0  0  0  0  0  0  0  0  0  0  0
   14.1072   -2.8258   24.7607 C   0  0  0  0  0  0  0  0  0  0  0  0
   13.3390   -2.5491   23.6422 C   0  0  0  0  0  0  0  0  0  0  0  0
    9.5700   -0.0793   21.8027 C   0  0  0  0  0  0  0  0  0  0  0  0
    8.0753   -0.2389   21.9728 C   0  0  0  0  0  0  0  0  0  0  0  0
    6.0252   -0.5499   19.8000 C   0  0  0  0  0  0  0  0  0  0  0  0
    6.3106   -0.3687   18.4526 C   0  0  0  0  0  0  0  0  0  0  0  0
    5.7599    0.6086   17.7271 N   0  0  0  0  0  0  0  0  0  0  0  0
    4.9104    1.4166   18.3589 C   0  0  0  0  0  0  0  0  0  0  0  0
    4.6169    1.2501   19.6960 C   0  0  0  0  0  0  0  0  0  0  0  0
    5.1689    0.2720   20.4238 N   0  0  0  0  0  0  0  0  0  0  0  0
  1  2  2  0
  2  3  1  0
  3  4  1  0
  4  5  1  0
  5  6  1  0
  6  7  1  0
  7  8  1  0
  8  9  2  0
  9 10  1  0
 10 11  2  0
 11 12  1  0
 12 13  2  0
  6 14  1  0
 14 15  1  0
  2 16  1  0
 16 17  2  0
 17 18  1  0
 18 19  2  0
 19 20  1  0
 20 21  2  0
 15  3  1  0
 21 16  1  0
 13  8  1  0
M  END
