CVD-0002768|dock_bobby27042020.62|mol2|4|dock3
     RDKit          3D

 26 27  0  0  0  0  0  0  0  0999 V2000
    5.7070    1.2469   19.6796 C   0  0  0  0  0  0  0  0  0  0  0  0
    5.0384    0.1691   18.9580 N   0  0  0  0  0  0  0  0  0  0  0  0
    4.6693    0.6052   17.6160 C   0  0  0  0  0  0  0  0  0  0  0  0
    5.8055   -1.0777   18.9357 C   0  0  0  0  0  0  0  0  0  0  0  0
    6.4480   -1.4741   20.2530 C   0  0  0  0  0  0  0  0  0  0  0  0
    7.7116   -0.7935   20.4985 N   0  0  0  0  0  0  0  0  0  0  0  0
    8.3192   -0.8663   21.6882 C   0  0  0  0  0  0  0  0  0  0  0  0
    7.7823   -1.4994   22.5916 O   0  0  0  0  0  0  0  0  0  0  0  0
    9.6464   -0.1746   21.8844 C   0  0  0  0  0  0  0  0  0  0  0  0
   10.7776   -0.9895   21.9684 C   0  0  0  0  0  0  0  0  0  0  0  0
   12.0298   -0.4412   22.1703 C   0  0  0  0  0  0  0  0  0  0  0  0
   12.1729    0.9248   22.3214 C   0  0  0  0  0  0  0  0  0  0  0  0
   11.0653    1.7719   22.2431 C   0  0  0  0  0  0  0  0  0  0  0  0
   11.3148    3.2467   22.4462 C   0  0  0  0  0  0  0  0  0  0  0  0
   10.6233    3.9236   23.2004 O   0  0  0  0  0  0  0  0  0  0  0  0
   12.3253    3.8341   21.7859 N   0  0  0  0  0  0  0  0  0  0  0  0
   12.6249    5.2536   21.9390 C   0  0  0  0  0  0  0  0  0  0  0  0
   13.5308    5.5993   23.0083 C   0  0  0  0  0  0  0  0  0  0  0  0
   14.0001    5.6326   21.5893 C   0  0  0  0  0  0  0  0  0  0  0  0
   14.9117    4.6419   21.1858 F   0  0  0  0  0  0  0  0  0  0  0  0
    9.7920    1.2236   21.9881 C   0  0  0  0  0  0  0  0  0  0  0  0
    8.2936    2.3590   21.7639 Br  0  0  0  0  0  0  0  0  0  0  0  0
   13.4517   -1.4888   22.2308 S   0  0  0  0  0  0  0  0  0  0  0  0
   13.7477   -2.0283   20.7528 N   0  0  0  0  0  0  0  0  0  0  0  0
   13.1129   -2.6237   23.0359 O   0  0  0  0  0  0  0  0  0  0  0  0
   14.5660   -0.6756   22.6158 O   0  0  0  0  0  0  0  0  0  0  0  0
  1  2  1  0
  2  3  1  0
  2  4  1  0
  4  5  1  0
  5  6  1  0
  6  7  1  0
  7  8  2  0
  7  9  1  0
  9 10  2  0
 10 11  1  0
 11 12  2  0
 12 13  1  0
 13 14  1  0
 14 15  2  0
 14 16  1  0
 17 16  1  0
 17 18  1  0
 18 19  1  0
 19 20  1  0
 13 21  2  0
 21 22  1  0
 11 23  1  0
 23 24  1  0
 23 25  2  0
 23 26  2  0
 21  9  1  0
 19 17  1  0
M  END
