CVD-0002941|dock_bobby27042020.46|mol2|46|dock3
     RDKit          3D

 17 18  0  0  0  0  0  0  0  0999 V2000
    9.1342   -6.2968   24.1747 O   0  0  0  0  0  0  0  0  0  0  0  0
    9.0028   -5.1230   23.4919 C   0  0  0  0  0  0  0  0  0  0  0  0
    7.9185   -4.9241   22.6521 C   0  0  0  0  0  0  0  0  0  0  0  0
    7.7913   -3.7316   21.9621 C   0  0  0  0  0  0  0  0  0  0  0  0
    8.7350   -2.7229   22.0939 C   0  0  0  0  0  0  0  0  0  0  0  0
    9.8143   -2.9366   22.9394 C   0  0  0  0  0  0  0  0  0  0  0  0
    9.9531   -4.1245   23.6350 C   0  0  0  0  0  0  0  0  0  0  0  0
    8.5882   -1.4246   21.3416 C   0  0  0  0  0  0  0  0  0  0  0  0
    7.5052   -0.5243   21.8892 C   0  0  0  0  0  0  0  0  0  0  0  0
    7.3828    0.6951   21.0019 C   0  0  0  0  0  0  0  0  0  0  0  0
    7.1582    0.2674   19.6058 N   0  0  0  0  0  0  0  0  0  0  0  0
    8.1931   -0.6380   19.1151 C   0  0  0  0  0  0  0  0  0  0  0  0
    8.3098   -1.7540   19.9695 O   0  0  0  0  0  0  0  0  0  0  0  0
    6.1125    0.6339   18.8331 C   0  0  0  0  0  0  0  0  0  0  0  0
    6.0011    0.2320   17.6817 O   0  0  0  0  0  0  0  0  0  0  0  0
    5.0797    1.5664   19.4360 C   0  0  0  0  0  0  0  0  0  0  0  0
    4.1751    0.7379   20.7098 Cl  0  0  0  0  0  0  0  0  0  0  0  0
  1  2  1  0
  2  3  2  0
  3  4  1  0
  4  5  2  0
  5  6  1  0
  6  7  2  0
  5  8  1  0
  8  9  1  0
  9 10  1  0
 10 11  1  0
 11 12  1  0
 12 13  1  0
 11 14  1  0
 14 15  2  0
 14 16  1  0
 16 17  1  0
  7  2  1  0
 13  8  1  0
M  END
