CVD-0004027|dock_bobby27042020.57|mol2|41|dock2
     RDKit          3D

 26 28  0  0  0  0  0  0  0  0999 V2000
    8.3884   -5.6658   27.1802 C   0  0  0  0  0  0  0  0  0  0  0  0
    9.7924   -4.6793   26.8304 S   0  0  0  0  0  0  0  0  0  0  0  0
   10.8810   -5.1592   27.6244 O   0  0  0  0  0  0  0  0  0  0  0  0
    9.4116   -3.3061   26.9523 O   0  0  0  0  0  0  0  0  0  0  0  0
   10.1875   -4.9227   25.2958 N   0  0  0  0  0  0  0  0  0  0  0  0
    9.6974   -4.0001   24.2648 C   0  0  0  0  0  0  0  0  0  0  0  0
   10.7268   -2.9119   24.0090 C   0  0  0  0  0  0  0  0  0  0  0  0
   10.1288   -1.6417   23.3871 C   0  0  0  0  0  0  0  0  0  0  0  0
   11.1882   -0.5433   23.1372 C   0  0  0  0  0  0  0  0  0  0  0  0
   10.8244    0.4313   22.0171 C   0  0  0  0  0  0  0  0  0  0  0  0
   11.9187    1.4792   21.8147 C   0  0  0  0  0  0  0  0  0  0  0  0
   12.2087    2.2272   23.1014 C   0  0  0  0  0  0  0  0  0  0  0  0
   12.5589    1.2780   24.2289 C   0  0  0  0  0  0  0  0  0  0  0  0
   11.4755    0.2234   24.4304 C   0  0  0  0  0  0  0  0  0  0  0  0
    9.3674   -2.0049   22.1232 C   0  0  0  0  0  0  0  0  0  0  0  0
    9.9120   -2.6520   21.2555 O   0  0  0  0  0  0  0  0  0  0  0  0
    7.9407   -1.5295   21.9295 C   0  0  0  0  0  0  0  0  0  0  0  0
    7.2636   -2.1266   20.7319 C   0  0  0  0  0  0  0  0  0  0  0  0
    6.8923   -1.4802   19.5894 C   0  0  0  0  0  0  0  0  0  0  0  0
    6.3002   -2.3509   18.7136 N   0  0  0  0  0  0  0  0  0  0  0  0
    6.2783   -3.5907   19.2816 C   0  0  0  0  0  0  0  0  0  0  0  0
    5.7838   -4.7219   18.7509 N   0  0  0  0  0  0  0  0  0  0  0  0
    5.8793   -5.8231   19.5086 C   0  0  0  0  0  0  0  0  0  0  0  0
    6.4440   -5.8440   20.7660 C   0  0  0  0  0  0  0  0  0  0  0  0
    6.9492   -4.6682   21.2982 C   0  0  0  0  0  0  0  0  0  0  0  0
    6.8742   -3.4949   20.5505 C   0  0  0  0  0  0  0  0  0  0  0  0
  1  2  1  0
  2  3  2  0
  2  4  2  0
  2  5  1  0
  5  6  1  0
  6  7  1  0
  7  8  1  0
  8  9  1  0
  9 10  1  0
 10 11  1  0
 11 12  1  0
 12 13  1  0
 13 14  1  0
  8 15  1  0
 15 16  2  0
 15 17  1  0
 17 18  1  0
 18 19  2  0
 19 20  1  0
 20 21  1  0
 21 22  2  0
 22 23  1  0
 23 24  2  0
 24 25  1  0
 25 26  2  0
 14  9  1  0
 26 18  1  0
 26 21  1  0
M  END
