CVD-0002725|dock_bobby27042020.76|mol2|15|dock1
     RDKit          3D

 26 28  0  0  0  0  0  0  0  0999 V2000
    5.6195   -2.5198   19.5179 N   0  0  0  0  0  0  0  0  0  0  0  0
    6.4172   -2.8362   20.5254 C   0  0  0  0  0  0  0  0  0  0  0  0
    6.7345   -3.9987   20.7862 O   0  0  0  0  0  0  0  0  0  0  0  0
    6.9302   -1.6793   21.3577 C   0  0  0  0  0  0  0  0  0  0  0  0
    8.0754   -2.1119   22.2886 C   0  0  0  0  0  0  0  0  0  0  0  0
    8.7734   -0.8213   22.6732 C   0  0  0  0  0  0  0  0  0  0  0  0
    8.5202    0.1615   21.5258 C   0  0  0  0  0  0  0  0  0  0  0  0
    7.5958   -0.5643   20.5464 C   0  0  0  0  0  0  0  0  0  0  0  0
    6.5623    0.3419   19.8999 C   0  0  0  0  0  0  0  0  0  0  0  0
    5.5748    0.9884   20.6330 C   0  0  0  0  0  0  0  0  0  0  0  0
    4.6504    1.8128   20.0133 C   0  0  0  0  0  0  0  0  0  0  0  0
    4.6941    2.0006   18.6490 C   0  0  0  0  0  0  0  0  0  0  0  0
    5.6626    1.3628   17.9051 C   0  0  0  0  0  0  0  0  0  0  0  0
    6.5880    0.5405   18.5258 C   0  0  0  0  0  0  0  0  0  0  0  0
   10.2683   -1.0062   22.8563 C   0  0  0  0  0  0  0  0  0  0  0  0
   11.0219   -1.4935   21.7914 C   0  0  0  0  0  0  0  0  0  0  0  0
   12.3821   -1.6424   21.9487 C   0  0  0  0  0  0  0  0  0  0  0  0
   13.0182   -1.3719   23.0925 N   0  0  0  0  0  0  0  0  0  0  0  0
   12.2800   -0.9779   24.1150 C   0  0  0  0  0  0  0  0  0  0  0  0
   13.1718   -0.8681   25.6000 Cl  0  0  0  0  0  0  0  0  0  0  0  0
   10.9209   -0.6908   24.0640 C   0  0  0  0  0  0  0  0  0  0  0  0
   10.1143   -0.1196   25.1064 N   0  0  0  0  0  0  0  0  0  0  0  0
    9.0753   -0.7112   25.7443 C   0  0  0  0  0  0  0  0  0  0  0  0
    8.6537   -1.8427   25.5298 O   0  0  0  0  0  0  0  0  0  0  0  0
    8.4518    0.1519   26.8190 C   0  0  0  0  0  0  0  0  0  0  0  0
    9.5342    0.3520   28.2030 Cl  0  0  0  0  0  0  0  0  0  0  0  0
  1  2  1  0
  2  3  2  0
  2  4  1  0
  4  5  1  0
  5  6  1  0
  6  7  1  0
  7  8  1  0
  8  9  1  0
  9 10  2  0
 10 11  1  0
 11 12  2  0
 12 13  1  0
 13 14  2  0
  6 15  1  0
 15 16  2  0
 16 17  1  0
 17 18  2  0
 18 19  1  0
 19 20  1  0
 19 21  2  0
 21 22  1  0
 22 23  1  0
 23 24  2  0
 23 25  1  0
 25 26  1  0
  8  4  1  0
 14  9  1  0
 21 15  1  0
M  END
