CVD-0002472|dock_bobby27042020.63|mol2|15|dock2
     RDKit          3D

 21 23  0  0  0  0  0  0  0  0999 V2000
    5.7587   -2.0407   17.9326 C   0  0  0  0  0  0  0  0  0  0  0  0
    6.8879   -1.8263   18.9108 C   0  0  0  0  0  0  0  0  0  0  0  0
    7.0622   -2.6663   19.9989 C   0  0  0  0  0  0  0  0  0  0  0  0
    8.0979   -2.4741   20.8959 C   0  0  0  0  0  0  0  0  0  0  0  0
    8.9982   -1.4298   20.7335 C   0  0  0  0  0  0  0  0  0  0  0  0
    8.8263   -0.5895   19.6419 C   0  0  0  0  0  0  0  0  0  0  0  0
    7.7889   -0.7863   18.7480 C   0  0  0  0  0  0  0  0  0  0  0  0
   10.1264   -1.2044   21.7084 C   0  0  0  0  0  0  0  0  0  0  0  0
   11.3184   -0.9539   20.9504 O   0  0  0  0  0  0  0  0  0  0  0  0
   12.4509   -0.8395   21.8199 C   0  0  0  0  0  0  0  0  0  0  0  0
   12.3090    0.3538   22.7319 C   0  0  0  0  0  0  0  0  0  0  0  0
   12.2722    1.5543   21.9043 N   0  0  0  0  0  0  0  0  0  0  0  0
   12.7600    2.7563   22.2094 C   0  0  0  0  0  0  0  0  0  0  0  0
   12.6664    3.8689   21.3138 C   0  0  0  0  0  0  0  0  0  0  0  0
   13.2284    5.0012   21.8225 C   0  0  0  0  0  0  0  0  0  0  0  0
   13.8593    4.7043   23.3706 S   0  0  0  0  0  0  0  0  0  0  0  0
   13.3857    3.0721   23.3644 C   0  0  0  0  0  0  0  0  0  0  0  0
   11.0350    0.2330   23.5462 C   0  0  0  0  0  0  0  0  0  0  0  0
   10.8225    1.4211   24.3027 O   0  0  0  0  0  0  0  0  0  0  0  0
    9.8391   -0.0381   22.6444 C   0  0  0  0  0  0  0  0  0  0  0  0
    9.4539    1.1045   21.8841 O   0  0  0  0  0  0  0  0  0  0  0  0
  1  2  1  0
  2  3  2  0
  3  4  1  0
  4  5  2  0
  5  6  1  0
  6  7  2  0
  5  8  1  0
  8  9  1  0
  9 10  1  0
 10 11  1  0
 11 12  1  0
 12 13  1  0
 13 14  1  0
 14 15  2  0
 15 16  1  0
 16 17  1  0
 11 18  1  0
 18 19  1  0
 18 20  1  0
 20 21  1  0
  7  2  1  0
 20  8  1  0
 17 13  2  0
M  END
