CVD-0000404|dock_bobby27042020.56|mol2|12|dock2
     RDKit          3D

 24 26  0  0  0  0  0  0  0  0999 V2000
   14.4155   -1.4618   25.3886 C   0  0  0  0  0  0  0  0  0  0  0  0
   13.5269   -2.4987   24.7184 C   0  0  0  0  0  0  0  0  0  0  0  0
   12.5958   -1.9037   23.6902 C   0  0  0  0  0  0  0  0  0  0  0  0
   12.6352   -2.1127   22.3421 C   0  0  0  0  0  0  0  0  0  0  0  0
   11.6390   -1.4135   21.7167 N   0  0  0  0  0  0  0  0  0  0  0  0
   10.9268   -0.7293   22.6698 C   0  0  0  0  0  0  0  0  0  0  0  0
    9.8236    0.1194   22.5496 C   0  0  0  0  0  0  0  0  0  0  0  0
    9.3611    0.3180   21.2485 O   0  0  0  0  0  0  0  0  0  0  0  0
    8.2984   -0.3661   20.7265 C   0  0  0  0  0  0  0  0  0  0  0  0
    7.9928   -1.6123   21.2535 C   0  0  0  0  0  0  0  0  0  0  0  0
    6.9215   -2.3170   20.7246 C   0  0  0  0  0  0  0  0  0  0  0  0
    6.5389   -3.6751   21.2603 C   0  0  0  0  0  0  0  0  0  0  0  0
    6.2125   -1.7283   19.6921 C   0  0  0  0  0  0  0  0  0  0  0  0
    6.6036   -0.4925   19.2488 C   0  0  0  0  0  0  0  0  0  0  0  0
    7.6326    0.2090   19.7344 N   0  0  0  0  0  0  0  0  0  0  0  0
    5.7266    0.3121   17.9096 S   0  0  0  0  0  0  0  0  0  0  0  0
    4.6113    1.2490   18.5738 N   0  0  0  0  0  0  0  0  0  0  0  0
    6.6562    1.1660   17.2333 O   0  0  0  0  0  0  0  0  0  0  0  0
    5.0449   -0.7038   17.1651 O   0  0  0  0  0  0  0  0  0  0  0  0
    9.2762    0.7029   23.6822 C   0  0  0  0  0  0  0  0  0  0  0  0
    9.8576    0.4065   24.8936 C   0  0  0  0  0  0  0  0  0  0  0  0
    9.3219    0.9758   26.0070 F   0  0  0  0  0  0  0  0  0  0  0  0
   10.9414   -0.4238   25.0598 C   0  0  0  0  0  0  0  0  0  0  0  0
   11.4968   -1.0102   23.9241 C   0  0  0  0  0  0  0  0  0  0  0  0
  1  2  1  0
  2  3  1  0
  3  4  2  0
  4  5  1  0
  5  6  1  0
  6  7  2  0
  7  8  1  0
  8  9  1  0
  9 10  2  0
 10 11  1  0
 11 12  1  0
 11 13  2  0
 13 14  1  0
 14 15  2  0
 14 16  1  0
 16 17  1  0
 16 18  2  0
 16 19  2  0
  7 20  1  0
 20 21  2  0
 21 22  1  0
 21 23  1  0
 23 24  2  0
 24  3  1  0
 24  6  1  0
 15  9  1  0
M  END
