CVD-0002486|dock_bobby27042020.5|mol2|28|dock1
     RDKit          3D

 32 33  0  0  0  0  0  0  0  0999 V2000
    7.2895   -5.5914   25.8455 C   0  0  0  0  0  0  0  0  0  0  0  0
    6.9965   -4.6337   24.8009 O   0  0  0  0  0  0  0  0  0  0  0  0
    7.9478   -4.4617   23.8871 C   0  0  0  0  0  0  0  0  0  0  0  0
    8.8494   -5.2350   23.6928 O   0  0  0  0  0  0  0  0  0  0  0  0
    7.7481   -3.1591   23.1190 C   0  0  0  0  0  0  0  0  0  0  0  0
    7.3121   -3.4147   21.7378 N   0  0  0  0  0  0  0  0  0  0  0  0
    6.2015   -2.4607   21.0383 S   0  0  0  0  0  0  0  0  0  0  0  0
    5.3120   -3.3195   20.3235 O   0  0  0  0  0  0  0  0  0  0  0  0
    5.7132   -1.5813   22.0523 O   0  0  0  0  0  0  0  0  0  0  0  0
    6.9621   -1.5308   19.9261 N   0  0  0  0  0  0  0  0  0  0  0  0
    6.2048   -1.0161   18.5690 S   0  0  0  0  0  0  0  0  0  0  0  0
    5.0976   -0.0456   18.9854 N   0  0  0  0  0  0  0  0  0  0  0  0
    7.2042   -0.2822   17.7638 O   0  0  0  0  0  0  0  0  0  0  0  0
    5.5869   -2.2038   17.9417 O   0  0  0  0  0  0  0  0  0  0  0  0
    9.0314   -2.3366   23.1094 C   0  0  0  0  0  0  0  0  0  0  0  0
    9.8484   -2.3511   21.9798 C   0  0  0  0  0  0  0  0  0  0  0  0
   11.0209   -1.6195   21.9299 C   0  0  0  0  0  0  0  0  0  0  0  0
   11.4154   -0.8479   23.0097 C   0  0  0  0  0  0  0  0  0  0  0  0
   12.6948   -0.0466   22.9692 C   0  0  0  0  0  0  0  0  0  0  0  0
   12.5198    1.3043   22.4162 N   0  0  0  0  0  0  0  0  0  0  0  0
   13.6556    2.1574   22.7779 C   0  0  0  0  0  0  0  0  0  0  0  0
   13.4899    3.5380   22.1703 C   0  0  0  0  0  0  0  0  0  0  0  0
   12.2362    4.1473   22.6194 N   0  0  0  0  0  0  0  0  0  0  0  0
   11.0844    3.2891   22.3253 C   0  0  0  0  0  0  0  0  0  0  0  0
   11.2898    1.9084   22.9217 C   0  0  0  0  0  0  0  0  0  0  0  0
   12.1811    5.3625   23.2013 C   0  0  0  0  0  0  0  0  0  0  0  0
   13.1852    6.0393   23.3834 O   0  0  0  0  0  0  0  0  0  0  0  0
   10.8091    5.8482   23.6262 C   0  0  0  0  0  0  0  0  0  0  0  0
    9.7583    6.1011   22.2264 Cl  0  0  0  0  0  0  0  0  0  0  0  0
   10.6053   -0.8318   24.1368 C   0  0  0  0  0  0  0  0  0  0  0  0
    9.4199   -1.5587   24.2133 C   0  0  0  0  0  0  0  0  0  0  0  0
    8.6031   -1.4815   25.4766 C   0  0  0  0  0  0  0  0  0  0  0  0
  1  2  1  0
  2  3  1  0
  3  4  2  0
  3  5  1  0
  5  6  1  0
  6  7  1  0
  7  8  2  0
  7  9  2  0
  7 10  1  0
 10 11  1  0
 11 12  1  0
 11 13  2  0
 11 14  2  0
  5 15  1  0
 15 16  2  0
 16 17  1  0
 17 18  2  0
 18 19  1  0
 19 20  1  0
 20 21  1  0
 21 22  1  0
 22 23  1  0
 23 24  1  0
 24 25  1  0
 23 26  1  0
 26 27  2  0
 26 28  1  0
 28 29  1  0
 18 30  1  0
 30 31  2  0
 31 32  1  0
 31 15  1  0
 25 20  1  0
M  END
