CVD-0001551|dock_bobby27042020.80|mol2|41|dock2
     RDKit          3D

 21 22  0  0  0  0  0  0  0  0999 V2000
    8.1489   -0.5567   17.8793 F   0  0  0  0  0  0  0  0  0  0  0  0
    6.6844   -0.8758   18.0855 S   0  0  0  0  0  0  0  0  0  0  0  0
    6.4388   -2.1375   17.4836 O   0  0  0  0  0  0  0  0  0  0  0  0
    5.9404    0.2426   17.6269 O   0  0  0  0  0  0  0  0  0  0  0  0
    6.4590   -1.0277   19.8242 C   0  0  0  0  0  0  0  0  0  0  0  0
    6.5409    0.3354   20.4632 C   0  0  0  0  0  0  0  0  0  0  0  0
    5.3790    1.0998   20.4241 C   0  0  0  0  0  0  0  0  0  0  0  0
    5.3375    2.3654   20.9747 C   0  0  0  0  0  0  0  0  0  0  0  0
    6.4640    2.8801   21.5723 C   0  0  0  0  0  0  0  0  0  0  0  0
    7.6365    2.1441   21.6272 C   0  0  0  0  0  0  0  0  0  0  0  0
    7.6962    0.8606   21.0733 C   0  0  0  0  0  0  0  0  0  0  0  0
    8.8694    0.0522   21.0940 N   0  0  0  0  0  0  0  0  0  0  0  0
    9.8045   -0.1276   22.0904 C   0  0  0  0  0  0  0  0  0  0  0  0
    9.7733    0.4142   23.1902 O   0  0  0  0  0  0  0  0  0  0  0  0
   10.7929   -1.0014   21.6964 N   0  0  0  0  0  0  0  0  0  0  0  0
   11.9382   -1.4712   22.3878 C   0  0  0  0  0  0  0  0  0  0  0  0
   12.0520   -1.5382   23.7735 C   0  0  0  0  0  0  0  0  0  0  0  0
   13.2235   -2.0164   24.3350 C   0  0  0  0  0  0  0  0  0  0  0  0
   14.2454   -2.4131   23.5038 C   0  0  0  0  0  0  0  0  0  0  0  0
   14.1665   -2.3608   22.1745 N   0  0  0  0  0  0  0  0  0  0  0  0
   13.0318   -1.8978   21.6427 C   0  0  0  0  0  0  0  0  0  0  0  0
  1  2  1  0
  2  3  2  0
  2  4  2  0
  2  5  1  0
  5  6  1  0
  6  7  2  0
  7  8  1  0
  8  9  2  0
  9 10  1  0
 10 11  2  0
 11 12  1  0
 12 13  1  0
 13 14  2  0
 13 15  1  0
 15 16  1  0
 16 17  2  0
 17 18  1  0
 18 19  2  0
 19 20  1  0
 20 21  2  0
 11  6  1  0
 21 16  1  0
M  END
