CVD-0001709|dock_bobby27042020.80|mol2|18|dock3
     RDKit          3D

 22 24  0  0  0  0  0  0  0  0999 V2000
   14.4870   -0.9856   24.1765 F   0  0  0  0  0  0  0  0  0  0  0  0
   13.3844   -1.3267   23.4551 C   0  0  0  0  0  0  0  0  0  0  0  0
   13.9429   -1.6839   21.8351 Cl  0  0  0  0  0  0  0  0  0  0  0  0
   12.4148   -0.1589   23.4190 C   0  0  0  0  0  0  0  0  0  0  0  0
   12.6556    0.8669   24.0261 O   0  0  0  0  0  0  0  0  0  0  0  0
   11.2939   -0.3172   22.6911 N   0  0  0  0  0  0  0  0  0  0  0  0
   10.9486   -1.5769   22.0286 C   0  0  0  0  0  0  0  0  0  0  0  0
    9.5588   -2.0276   22.4385 C   0  0  0  0  0  0  0  0  0  0  0  0
    8.5725   -0.9948   22.1084 N   0  0  0  0  0  0  0  0  0  0  0  0
    7.2167   -1.4436   22.4677 C   0  0  0  0  0  0  0  0  0  0  0  0
    6.0383   -0.5554   22.1103 C   0  0  0  0  0  0  0  0  0  0  0  0
    5.1750   -0.0600   23.0553 C   0  0  0  0  0  0  0  0  0  0  0  0
    4.0996    0.7419   22.7122 C   0  0  0  0  0  0  0  0  0  0  0  0
    3.8627    1.0748   21.4133 C   0  0  0  0  0  0  0  0  0  0  0  0
    4.7166    0.6046   20.3883 C   0  0  0  0  0  0  0  0  0  0  0  0
    4.5106    0.9278   19.0257 C   0  0  0  0  0  0  0  0  0  0  0  0
    5.3524    0.4581   18.0626 C   0  0  0  0  0  0  0  0  0  0  0  0
    6.4238   -0.3430   18.3953 C   0  0  0  0  0  0  0  0  0  0  0  0
    6.6641   -0.6821   19.6936 C   0  0  0  0  0  0  0  0  0  0  0  0
    5.8227   -0.2238   20.7420 C   0  0  0  0  0  0  0  0  0  0  0  0
    8.9109    0.2333   22.8230 C   0  0  0  0  0  0  0  0  0  0  0  0
   10.2930    0.7215   22.4287 C   0  0  0  0  0  0  0  0  0  0  0  0
  1  2  1  0
  2  3  1  0
  2  4  1  0
  4  5  2  0
  4  6  1  0
  6  7  1  0
  7  8  1  0
  8  9  1  0
  9 10  1  0
 10 11  1  0
 11 12  2  0
 12 13  1  0
 13 14  2  0
 14 15  1  0
 15 16  2  0
 16 17  1  0
 17 18  2  0
 18 19  1  0
 19 20  2  0
  9 21  1  0
 21 22  1  0
 22  6  1  0
 20 11  1  0
 20 15  1  0
M  END
