CVD-0003101|dock_bobby27042020.3|mol2|16|dock3
     RDKit          3D

 23 24  0  0  0  0  0  0  0  0999 V2000
   12.6419    5.6664   23.5189 C   0  0  0  0  0  0  0  0  0  0  0  0
   13.1873    4.4506   22.3826 S   0  0  0  0  0  0  0  0  0  0  0  0
   12.3127    4.4764   21.2511 O   0  0  0  0  0  0  0  0  0  0  0  0
   14.5884    4.6412   22.1672 O   0  0  0  0  0  0  0  0  0  0  0  0
   13.0101    3.0183   23.0809 N   0  0  0  0  0  0  0  0  0  0  0  0
   11.7075    2.3425   23.0314 C   0  0  0  0  0  0  0  0  0  0  0  0
   11.5973    1.2154   24.0568 C   0  0  0  0  0  0  0  0  0  0  0  0
   11.9381   -0.2195   23.5880 C   0  0  0  0  0  0  0  0  0  0  0  0
   11.1139   -0.6393   22.3468 C   0  0  0  0  0  0  0  0  0  0  0  0
    9.6548   -0.2355   22.2568 C   0  0  0  0  0  0  0  0  0  0  0  0
    9.0522    0.2653   23.2000 O   0  0  0  0  0  0  0  0  0  0  0  0
    9.1146   -0.4827   21.0387 N   0  0  0  0  0  0  0  0  0  0  0  0
    7.8100   -0.2607   20.5320 C   0  0  0  0  0  0  0  0  0  0  0  0
    6.6867   -0.0690   21.3302 C   0  0  0  0  0  0  0  0  0  0  0  0
    5.4573    0.1403   20.7293 C   0  0  0  0  0  0  0  0  0  0  0  0
    5.3829    0.1525   19.3555 C   0  0  0  0  0  0  0  0  0  0  0  0
    6.4410   -0.0283   18.5653 N   0  0  0  0  0  0  0  0  0  0  0  0
    7.6229   -0.2294   19.1548 C   0  0  0  0  0  0  0  0  0  0  0  0
   13.3849   -0.1718   23.1035 C   0  0  0  0  0  0  0  0  0  0  0  0
   13.8959   -1.5606   22.7759 C   0  0  0  0  0  0  0  0  0  0  0  0
   13.7638   -2.4959   23.9681 C   0  0  0  0  0  0  0  0  0  0  0  0
   12.3281   -2.5417   24.4653 C   0  0  0  0  0  0  0  0  0  0  0  0
   11.8021   -1.1485   24.7862 C   0  0  0  0  0  0  0  0  0  0  0  0
  1  2  1  0
  2  3  2  0
  2  4  2  0
  2  5  1  0
  5  6  1  0
  6  7  1  0
  7  8  1  0
  8  9  1  0
  9 10  1  0
 10 11  2  0
 10 12  1  0
 12 13  1  0
 13 14  2  0
 14 15  1  0
 15 16  2  0
 16 17  1  0
 17 18  2  0
  8 19  1  0
 19 20  1  0
 20 21  1  0
 21 22  1  0
 22 23  1  0
 23  8  1  0
 18 13  1  0
M  END
