CVD-0001023|dock_bobby27042020.25|mol2|20|dock3
     RDKit          3D

 25 27  0  0  0  0  0  0  0  0999 V2000
   13.8627    5.7662   22.1924 C   0  0  0  0  0  0  0  0  0  0  0  0
   12.6948    4.9779   22.4129 O   0  0  0  0  0  0  0  0  0  0  0  0
   12.7563    3.6099   22.3176 C   0  0  0  0  0  0  0  0  0  0  0  0
   13.9135    2.9024   22.6099 C   0  0  0  0  0  0  0  0  0  0  0  0
   13.9195    1.5232   22.4963 C   0  0  0  0  0  0  0  0  0  0  0  0
   12.7908    0.8271   22.0945 C   0  0  0  0  0  0  0  0  0  0  0  0
   12.8092   -0.6779   21.9779 C   0  0  0  0  0  0  0  0  0  0  0  0
   11.4944   -1.2522   21.7327 N   0  0  0  0  0  0  0  0  0  0  0  0
   10.5435   -1.3416   22.6929 C   0  0  0  0  0  0  0  0  0  0  0  0
   10.8648   -0.8724   23.9007 N   0  0  0  0  0  0  0  0  0  0  0  0
    9.3378   -1.8818   22.4267 N   0  0  0  0  0  0  0  0  0  0  0  0
    8.6242   -1.6532   21.1667 C   0  0  0  0  0  0  0  0  0  0  0  0
    8.0605   -2.9246   20.5981 C   0  0  0  0  0  0  0  0  0  0  0  0
    7.1438   -3.6208   21.6103 C   0  0  0  0  0  0  0  0  0  0  0  0
    6.5575   -4.9201   21.0431 C   0  0  0  0  0  0  0  0  0  0  0  0
    5.6919   -5.6984   22.0045 C   0  0  0  0  0  0  0  0  0  0  0  0
    4.5220   -5.1513   22.5084 C   0  0  0  0  0  0  0  0  0  0  0  0
    3.7298   -5.8641   23.3929 C   0  0  0  0  0  0  0  0  0  0  0  0
    4.0991   -7.1329   23.7848 C   0  0  0  0  0  0  0  0  0  0  0  0
    5.2605   -7.6883   23.2927 C   0  0  0  0  0  0  0  0  0  0  0  0
    6.0521   -6.9749   22.4082 C   0  0  0  0  0  0  0  0  0  0  0  0
    7.9133   -3.8411   22.8882 C   0  0  0  0  0  0  0  0  0  0  0  0
    8.5097   -2.5666   23.4464 C   0  0  0  0  0  0  0  0  0  0  0  0
   11.6436    1.5486   21.8080 C   0  0  0  0  0  0  0  0  0  0  0  0
   11.6210    2.9273   21.9163 C   0  0  0  0  0  0  0  0  0  0  0  0
  1  2  1  0
  2  3  1  0
  3  4  2  0
  4  5  1  0
  5  6  2  0
  6  7  1  0
  7  8  1  0
  8  9  1  0
  9 10  2  0
  9 11  1  0
 11 12  1  0
 12 13  1  0
 13 14  1  0
 14 15  1  0
 15 16  1  0
 16 17  2  0
 17 18  1  0
 18 19  2  0
 19 20  1  0
 20 21  2  0
 14 22  1  0
 22 23  1  0
  6 24  1  0
 24 25  2  0
 25  3  1  0
 23 11  1  0
 21 16  1  0
M  END
