CVD-0002341|dock_bobby27042020.63|mol2|35|dock2
     RDKit          3D

 23 24  0  0  0  0  0  0  0  0999 V2000
   13.5806   -0.0155   23.2827 N   0  0  0  0  0  0  0  0  0  0  0  0
   12.7436   -0.5902   22.4338 C   0  0  0  0  0  0  0  0  0  0  0  0
   13.1158   -1.2345   21.4506 O   0  0  0  0  0  0  0  0  0  0  0  0
   11.2467   -0.4228   22.7244 C   0  0  0  0  0  0  0  0  0  0  0  0
   10.4797   -0.4844   21.4711 N   0  0  0  0  0  0  0  0  0  0  0  0
    9.0119    0.1743   21.3485 S   0  0  0  0  0  0  0  0  0  0  0  0
    8.4497    0.1709   22.6644 O   0  0  0  0  0  0  0  0  0  0  0  0
    9.1762    1.4159   20.6564 O   0  0  0  0  0  0  0  0  0  0  0  0
    8.0305   -0.8822   20.3384 C   0  0  0  0  0  0  0  0  0  0  0  0
    7.8736   -2.2134   20.6881 C   0  0  0  0  0  0  0  0  0  0  0  0
    7.0978   -3.0400   19.8949 C   0  0  0  0  0  0  0  0  0  0  0  0
    6.4818   -2.5372   18.7598 C   0  0  0  0  0  0  0  0  0  0  0  0
    5.7178   -3.3550   17.9794 O   0  0  0  0  0  0  0  0  0  0  0  0
    6.6416   -1.2038   18.4175 C   0  0  0  0  0  0  0  0  0  0  0  0
    7.4162   -0.3721   19.2065 C   0  0  0  0  0  0  0  0  0  0  0  0
   10.8113   -1.5130   23.6952 C   0  0  0  0  0  0  0  0  0  0  0  0
   11.2070   -2.8312   23.5231 C   0  0  0  0  0  0  0  0  0  0  0  0
   10.7981   -3.8078   24.4123 C   0  0  0  0  0  0  0  0  0  0  0  0
    9.9848   -3.4236   25.4735 C   0  0  0  0  0  0  0  0  0  0  0  0
    9.5825   -2.1538   25.6702 N   0  0  0  0  0  0  0  0  0  0  0  0
   10.0009   -1.2406   24.7859 C   0  0  0  0  0  0  0  0  0  0  0  0
    9.5233   -4.4015   26.4394 C   0  0  0  0  0  0  0  0  0  0  0  0
    9.1758   -5.1514   27.2279 N   0  0  0  0  0  0  0  0  0  0  0  0
  1  2  1  0
  2  3  2  0
  2  4  1  0
  4  5  1  0
  5  6  1  0
  6  7  2  0
  6  8  2  0
  6  9  1  0
  9 10  2  0
 10 11  1  0
 11 12  2  0
 12 13  1  0
 12 14  1  0
 14 15  2  0
  4 16  1  0
 16 17  2  0
 17 18  1  0
 18 19  2  0
 19 20  1  0
 20 21  2  0
 19 22  1  0
 22 23  3  0
 15  9  1  0
 21 16  1  0
M  END
