CVD-0000234|dock_bobby27042020.99|mol2|18|dock3
     RDKit          3D

 26 28  0  0  0  0  0  0  0  0999 V2000
    6.3110   -1.7219   20.9565 Cl  0  0  0  0  0  0  0  0  0  0  0  0
    6.5180   -3.3887   21.3902 C   0  0  0  0  0  0  0  0  0  0  0  0
    5.9107   -4.2753   20.6232 N   0  0  0  0  0  0  0  0  0  0  0  0
    6.0680   -5.5645   20.9527 C   0  0  0  0  0  0  0  0  0  0  0  0
    6.8156   -5.9924   22.0271 C   0  0  0  0  0  0  0  0  0  0  0  0
    7.4431   -5.0440   22.8171 C   0  0  0  0  0  0  0  0  0  0  0  0
    7.3142   -3.6906   22.5238 C   0  0  0  0  0  0  0  0  0  0  0  0
    7.9961   -2.6434   23.3746 C   0  0  0  0  0  0  0  0  0  0  0  0
    9.3662   -2.2513   22.8585 C   0  0  0  0  0  0  0  0  0  0  0  0
    9.9665   -2.9660   22.0628 O   0  0  0  0  0  0  0  0  0  0  0  0
    9.8203   -1.0800   23.3676 N   0  0  0  0  0  0  0  0  0  0  0  0
   11.0294   -0.3704   23.1597 C   0  0  0  0  0  0  0  0  0  0  0  0
   12.2537   -1.0000   22.9519 C   0  0  0  0  0  0  0  0  0  0  0  0
   13.3968   -0.2446   22.7543 C   0  0  0  0  0  0  0  0  0  0  0  0
   13.3381    1.1377   22.7629 C   0  0  0  0  0  0  0  0  0  0  0  0
   12.1247    1.7676   22.9721 C   0  0  0  0  0  0  0  0  0  0  0  0
   12.1031    3.1405   22.9746 O   0  0  0  0  0  0  0  0  0  0  0  0
   13.2506    3.8949   22.5554 C   0  0  0  0  0  0  0  0  0  0  0  0
   12.8991    5.3640   22.4911 C   0  0  0  0  0  0  0  0  0  0  0  0
   12.0406    5.8135   23.6486 C   0  0  0  0  0  0  0  0  0  0  0  0
   10.6963    6.0994   23.4661 C   0  0  0  0  0  0  0  0  0  0  0  0
    9.9089    6.5147   24.5270 C   0  0  0  0  0  0  0  0  0  0  0  0
   10.4570    6.6502   25.7842 C   0  0  0  0  0  0  0  0  0  0  0  0
   11.7923    6.3707   25.9798 C   0  0  0  0  0  0  0  0  0  0  0  0
   12.5787    5.9554   24.9183 C   0  0  0  0  0  0  0  0  0  0  0  0
   10.9718    1.0199   23.1662 C   0  0  0  0  0  0  0  0  0  0  0  0
  1  2  1  0
  2  3  2  0
  3  4  1  0
  4  5  2  0
  5  6  1  0
  6  7  2  0
  7  8  1  0
  8  9  1  0
  9 10  2  0
  9 11  1  0
 11 12  1  0
 12 13  2  0
 13 14  1  0
 14 15  2  0
 15 16  1  0
 16 17  1  0
 17 18  1  0
 18 19  1  0
 19 20  1  0
 20 21  2  0
 21 22  1  0
 22 23  2  0
 23 24  1  0
 24 25  2  0
 16 26  2  0
  7  2  1  0
 26 12  1  0
 25 20  1  0
M  END
