CVD-0003059|dock_bobby27042020.17|mol2|35|dock3
     RDKit          3D

 24 25  0  0  0  0  0  0  0  0999 V2000
    9.7838   -4.9071   27.5030 N   0  0  0  0  0  0  0  0  0  0  0  0
    9.3366   -5.8792   26.3122 S   0  0  0  0  0  0  0  0  0  0  0  0
    8.0546   -6.4142   26.6610 O   0  0  0  0  0  0  0  0  0  0  0  0
   10.4216   -6.7830   26.0732 O   0  0  0  0  0  0  0  0  0  0  0  0
    9.1240   -4.9113   24.8490 C   0  0  0  0  0  0  0  0  0  0  0  0
    8.1897   -5.2915   23.9002 C   0  0  0  0  0  0  0  0  0  0  0  0
    8.0338   -4.5187   22.7644 C   0  0  0  0  0  0  0  0  0  0  0  0
    8.8072   -3.3840   22.5934 C   0  0  0  0  0  0  0  0  0  0  0  0
    8.5454   -2.3672   21.0152 Br  0  0  0  0  0  0  0  0  0  0  0  0
    9.7505   -2.9826   23.5321 C   0  0  0  0  0  0  0  0  0  0  0  0
   10.6087   -1.7466   23.3786 C   0  0  0  0  0  0  0  0  0  0  0  0
    9.9900   -0.5175   24.0331 C   0  0  0  0  0  0  0  0  0  0  0  0
   10.7266    0.7320   23.7985 N   0  0  0  0  0  0  0  0  0  0  0  0
   12.0013    0.5587   24.5605 C   0  0  0  0  0  0  0  0  0  0  0  0
   13.2017    0.3660   23.6489 C   0  0  0  0  0  0  0  0  0  0  0  0
   13.7941    1.6030   23.0026 C   0  0  0  0  0  0  0  0  0  0  0  0
   12.8085    2.3601   22.2356 N   0  0  0  0  0  0  0  0  0  0  0  0
   11.7245    1.5887   21.6451 C   0  0  0  0  0  0  0  0  0  0  0  0
   10.4831    1.4319   22.5056 C   0  0  0  0  0  0  0  0  0  0  0  0
   12.8643    3.6876   21.9849 C   0  0  0  0  0  0  0  0  0  0  0  0
   11.9810    4.2451   21.3460 O   0  0  0  0  0  0  0  0  0  0  0  0
   14.0451    4.4760   22.5187 C   0  0  0  0  0  0  0  0  0  0  0  0
   14.1025    6.0882   21.7940 Cl  0  0  0  0  0  0  0  0  0  0  0  0
    9.8930   -3.7713   24.6694 C   0  0  0  0  0  0  0  0  0  0  0  0
  1  2  1  0
  2  3  2  0
  2  4  2  0
  2  5  1  0
  5  6  2  0
  6  7  1  0
  7  8  2  0
  8  9  1  0
  8 10  1  0
 10 11  1  0
 11 12  1  0
 12 13  1  0
 13 14  1  0
 14 15  1  0
 15 16  1  0
 16 17  1  0
 17 18  1  0
 18 19  1  0
 17 20  1  0
 20 21  2  0
 20 22  1  0
 22 23  1  0
 10 24  2  0
 24  5  1  0
 19 13  1  0
M  END
