CVD-0001764|dock_bobby27042020.94|mol2|17|dock2
     RDKit          3D

 23 24  0  0  0  0  0  0  0  0999 V2000
   10.2660   -6.1128   26.2066 N   0  0  0  0  0  0  0  0  0  0  0  0
    9.8722   -4.9407   25.9905 C   0  0  0  0  0  0  0  0  0  0  0  0
    9.2161   -4.2194   26.8729 N   0  0  0  0  0  0  0  0  0  0  0  0
   10.1366   -4.2678   24.6878 C   0  0  0  0  0  0  0  0  0  0  0  0
    9.7005   -2.8128   24.7081 C   0  0  0  0  0  0  0  0  0  0  0  0
    9.8961   -2.1543   23.4060 N   0  0  0  0  0  0  0  0  0  0  0  0
    8.8424   -2.3212   22.5038 C   0  0  0  0  0  0  0  0  0  0  0  0
    7.8760   -2.9708   22.8815 O   0  0  0  0  0  0  0  0  0  0  0  0
    8.9123   -1.7518   21.2560 N   0  0  0  0  0  0  0  0  0  0  0  0
    7.9760   -1.7683   20.1899 C   0  0  0  0  0  0  0  0  0  0  0  0
    6.9351   -2.6831   20.0514 C   0  0  0  0  0  0  0  0  0  0  0  0
    6.0848   -2.5846   18.9633 C   0  0  0  0  0  0  0  0  0  0  0  0
    6.2959   -1.5847   18.0426 C   0  0  0  0  0  0  0  0  0  0  0  0
    7.2857   -0.6984   18.1436 N   0  0  0  0  0  0  0  0  0  0  0  0
    8.0986   -0.8007   19.1988 C   0  0  0  0  0  0  0  0  0  0  0  0
   11.1261   -1.4234   23.2461 C   0  0  0  0  0  0  0  0  0  0  0  0
   11.4950   -0.4025   24.1150 C   0  0  0  0  0  0  0  0  0  0  0  0
   12.6784    0.2932   23.9313 C   0  0  0  0  0  0  0  0  0  0  0  0
   13.5140   -0.0171   22.8737 C   0  0  0  0  0  0  0  0  0  0  0  0
   13.1582   -1.0328   21.9950 C   0  0  0  0  0  0  0  0  0  0  0  0
   11.9683   -1.7327   22.1815 C   0  0  0  0  0  0  0  0  0  0  0  0
   14.0182   -1.3672   20.8867 C   0  0  0  0  0  0  0  0  0  0  0  0
   14.6726   -1.6332   19.9891 N   0  0  0  0  0  0  0  0  0  0  0  0
  1  2  1  0
  2  3  2  0
  2  4  1  0
  4  5  1  0
  5  6  1  0
  6  7  1  0
  7  8  2  0
  7  9  1  0
  9 10  1  0
 10 11  2  0
 11 12  1  0
 12 13  2  0
 13 14  1  0
 14 15  2  0
  6 16  1  0
 16 17  2  0
 17 18  1  0
 18 19  2  0
 19 20  1  0
 20 21  2  0
 20 22  1  0
 22 23  3  0
 15 10  1  0
 21 16  1  0
M  END
