CVD-0003304|dock_bobby27042020.60|mol2|15|dock1
     RDKit          3D

 16 17  0  0  0  0  0  0  0  0999 V2000
    8.8381   -0.3888   22.2637 O   0  0  0  0  0  0  0  0  0  0  0  0
    9.3435   -0.8286   21.2530 C   0  0  0  0  0  0  0  0  0  0  0  0
   10.5521   -1.4346   21.1233 N   0  0  0  0  0  0  0  0  0  0  0  0
   11.5345   -1.7156   22.1046 C   0  0  0  0  0  0  0  0  0  0  0  0
   11.2691   -1.7898   23.4682 C   0  0  0  0  0  0  0  0  0  0  0  0
   12.3034   -2.0712   24.3441 C   0  0  0  0  0  0  0  0  0  0  0  0
   13.5672   -2.2696   23.8375 C   0  0  0  0  0  0  0  0  0  0  0  0
   13.8515   -2.2047   22.5368 N   0  0  0  0  0  0  0  0  0  0  0  0
   12.8465   -1.9326   21.6995 C   0  0  0  0  0  0  0  0  0  0  0  0
    8.7745   -0.8076   20.0021 O   0  0  0  0  0  0  0  0  0  0  0  0
    7.5080   -0.2430   19.7350 C   0  0  0  0  0  0  0  0  0  0  0  0
    6.4475   -0.3750   20.6178 C   0  0  0  0  0  0  0  0  0  0  0  0
    5.2240    0.1949   20.3073 C   0  0  0  0  0  0  0  0  0  0  0  0
    5.0592    0.8962   19.1326 C   0  0  0  0  0  0  0  0  0  0  0  0
    6.1178    1.0331   18.2610 C   0  0  0  0  0  0  0  0  0  0  0  0
    7.3461    0.4663   18.5571 C   0  0  0  0  0  0  0  0  0  0  0  0
  1  2  2  0
  2  3  1  0
  3  4  1  0
  4  5  2  0
  5  6  1  0
  6  7  2  0
  7  8  1  0
  8  9  2  0
  2 10  1  0
 10 11  1  0
 11 12  2  0
 12 13  1  0
 13 14  2  0
 14 15  1  0
 15 16  2  0
  9  4  1  0
 16 11  1  0
M  END
