CVD-0001430|dock_bobby27042020.52|mol2|37|dock3
     RDKit          3D

 20 21  0  0  0  0  0  0  0  0999 V2000
   12.6036   -2.9664   23.1641 F   0  0  0  0  0  0  0  0  0  0  0  0
   12.5035   -1.6176   23.1734 C   0  0  0  0  0  0  0  0  0  0  0  0
   13.6671   -0.9072   22.9959 C   0  0  0  0  0  0  0  0  0  0  0  0
   13.6128    0.4756   22.9848 C   0  0  0  0  0  0  0  0  0  0  0  0
   12.4036    1.1294   23.1437 C   0  0  0  0  0  0  0  0  0  0  0  0
   11.2629    0.3824   23.3184 C   0  0  0  0  0  0  0  0  0  0  0  0
   10.0992    1.0578   23.4566 F   0  0  0  0  0  0  0  0  0  0  0  0
   11.2550   -1.0148   23.3563 C   0  0  0  0  0  0  0  0  0  0  0  0
    9.7425   -1.9534   23.6077 S   0  0  0  0  0  0  0  0  0  0  0  0
    9.9276   -3.3038   23.1750 O   0  0  0  0  0  0  0  0  0  0  0  0
    9.2427   -1.7047   24.9242 O   0  0  0  0  0  0  0  0  0  0  0  0
    8.6890   -1.2693   22.5682 N   0  0  0  0  0  0  0  0  0  0  0  0
    9.0530   -1.2469   21.1383 C   0  0  0  0  0  0  0  0  0  0  0  0
    8.1896   -0.2114   20.4426 C   0  0  0  0  0  0  0  0  0  0  0  0
    6.7752   -0.5182   20.6137 N   0  0  0  0  0  0  0  0  0  0  0  0
    5.9471    0.4673   19.9057 C   0  0  0  0  0  0  0  0  0  0  0  0
    5.8994    0.2175   18.4207 C   0  0  0  0  0  0  0  0  0  0  0  0
    5.5587   -1.5036   18.1092 Cl  0  0  0  0  0  0  0  0  0  0  0  0
    6.4446   -0.5344   22.0325 C   0  0  0  0  0  0  0  0  0  0  0  0
    7.2601   -1.5806   22.7614 C   0  0  0  0  0  0  0  0  0  0  0  0
  1  2  1  0
  2  3  2  0
  3  4  1  0
  4  5  2  0
  5  6  1  0
  6  7  1  0
  6  8  2  0
  8  9  1  0
  9 10  2  0
  9 11  2  0
  9 12  1  0
 12 13  1  0
 13 14  1  0
 14 15  1  0
 15 16  1  0
 16 17  1  0
 17 18  1  0
 15 19  1  0
 19 20  1  0
  8  2  1  0
 20 12  1  0
M  END
