CVD-0001434|dock_bobby27042020.95|mol2|20|dock1
     RDKit          3D

 21 22  0  0  0  0  0  0  0  0999 V2000
   13.7155   -1.8882   20.6732 O   0  0  0  0  0  0  0  0  0  0  0  0
   13.3883   -1.7544   21.9924 B   0  0  0  0  0  0  0  0  0  0  0  0
   14.2539   -2.3237   22.8824 O   0  0  0  0  0  0  0  0  0  0  0  0
   12.6229   -0.4472   22.4367 C   0  0  0  0  0  0  0  0  0  0  0  0
   11.2020   -0.4998   22.0077 N   0  0  0  0  0  0  0  0  0  0  0  0
   10.5639   -1.7107   22.5082 C   0  0  0  0  0  0  0  0  0  0  0  0
    9.1224   -1.7917   22.0416 C   0  0  0  0  0  0  0  0  0  0  0  0
    8.4128   -0.5883   22.5168 N   0  0  0  0  0  0  0  0  0  0  0  0
    9.0437    0.6483   22.0182 C   0  0  0  0  0  0  0  0  0  0  0  0
   10.4815    0.6705   22.4910 C   0  0  0  0  0  0  0  0  0  0  0  0
    6.7819   -0.6298   22.5410 S   0  0  0  0  0  0  0  0  0  0  0  0
    6.3522    0.5729   23.1837 O   0  0  0  0  0  0  0  0  0  0  0  0
    6.3960   -1.8963   23.0816 O   0  0  0  0  0  0  0  0  0  0  0  0
    6.3391   -0.6051   20.8001 C   0  0  0  0  0  0  0  0  0  0  0  0
    6.2205    0.5635   20.0413 C   0  0  0  0  0  0  0  0  0  0  0  0
    6.4511    1.7674   20.6133 F   0  0  0  0  0  0  0  0  0  0  0  0
    5.8747    0.5643   18.7103 C   0  0  0  0  0  0  0  0  0  0  0  0
    5.6352   -0.6438   18.0783 C   0  0  0  0  0  0  0  0  0  0  0  0
    5.7454   -1.8337   18.7764 C   0  0  0  0  0  0  0  0  0  0  0  0
    6.0933   -1.7907   20.1054 C   0  0  0  0  0  0  0  0  0  0  0  0
    6.2008   -2.9674   20.7638 F   0  0  0  0  0  0  0  0  0  0  0  0
  1  2  1  0
  2  3  1  0
  2  4  1  0
  4  5  1  0
  5  6  1  0
  6  7  1  0
  7  8  1  0
  8  9  1  0
  9 10  1  0
  8 11  1  0
 11 12  2  0
 11 13  2  0
 11 14  1  0
 14 15  2  0
 15 16  1  0
 15 17  1  0
 17 18  2  0
 18 19  1  0
 19 20  2  0
 20 21  1  0
 10  5  1  0
 20 14  1  0
M  END
