CVD-0000320|dock_bobby27042020.27|mol2|31|dock3
     RDKit          3D

 23 24  0  0  0  0  0  0  0  0999 V2000
   12.3038    6.7735   25.6186 C   0  0  0  0  0  0  0  0  0  0  0  0
   12.8337    6.5014   24.2414 C   0  0  0  0  0  0  0  0  0  0  0  0
   13.4759    7.3390   23.6157 O   0  0  0  0  0  0  0  0  0  0  0  0
   12.5801    5.2897   23.7433 N   0  0  0  0  0  0  0  0  0  0  0  0
   13.0421    4.8693   22.4281 C   0  0  0  0  0  0  0  0  0  0  0  0
   13.4635    3.4134   22.4158 C   0  0  0  0  0  0  0  0  0  0  0  0
   12.3141    2.4685   22.6114 C   0  0  0  0  0  0  0  0  0  0  0  0
   10.9833    2.7696   22.6068 C   0  0  0  0  0  0  0  0  0  0  0  0
   10.2360    1.6427   22.8189 N   0  0  0  0  0  0  0  0  0  0  0  0
   11.0888    0.5768   22.9666 C   0  0  0  0  0  0  0  0  0  0  0  0
   10.8056   -0.7717   23.2001 C   0  0  0  0  0  0  0  0  0  0  0  0
    9.3850   -1.2750   23.3282 C   0  0  0  0  0  0  0  0  0  0  0  0
    8.8810   -1.9282   22.0538 C   0  0  0  0  0  0  0  0  0  0  0  0
    9.0959   -1.0467   20.9001 N   0  0  0  0  0  0  0  0  0  0  0  0
    8.0616    0.1429   20.6077 S   0  0  0  0  0  0  0  0  0  0  0  0
    7.2630   -0.2091   19.0894 C   0  0  0  0  0  0  0  0  0  0  0  0
    7.0778    0.1074   21.6454 O   0  0  0  0  0  0  0  0  0  0  0  0
    8.8322    1.3359   20.4378 O   0  0  0  0  0  0  0  0  0  0  0  0
   11.8746   -1.6549   23.3082 C   0  0  0  0  0  0  0  0  0  0  0  0
   13.1710   -1.1903   23.1870 C   0  0  0  0  0  0  0  0  0  0  0  0
   14.4890   -2.3197   23.3281 Cl  0  0  0  0  0  0  0  0  0  0  0  0
   13.4530    0.1430   22.9573 C   0  0  0  0  0  0  0  0  0  0  0  0
   12.4051    1.0551   22.8423 C   0  0  0  0  0  0  0  0  0  0  0  0
  1  2  1  0
  2  3  2  0
  2  4  1  0
  4  5  1  0
  5  6  1  0
  6  7  1  0
  7  8  2  0
  8  9  1  0
  9 10  1  0
 10 11  2  0
 11 12  1  0
 12 13  1  0
 13 14  1  0
 14 15  1  0
 15 16  1  0
 15 17  2  0
 15 18  2  0
 11 19  1  0
 19 20  2  0
 20 21  1  0
 20 22  1  0
 22 23  2  0
 23  7  1  0
 23 10  1  0
M  END
