CVD-0000116|dock_bobby27042020.99|mol2|36|dock2
     RDKit          3D

 19 21  0  0  0  0  0  0  0  0999 V2000
   13.1659   -1.9812   21.7061 N   0  0  0  0  0  0  0  0  0  0  0  0
   13.0430   -1.0379   22.6326 C   0  0  0  0  0  0  0  0  0  0  0  0
   13.6966   -1.0779   23.6810 O   0  0  0  0  0  0  0  0  0  0  0  0
   12.0937    0.1109   22.4188 C   0  0  0  0  0  0  0  0  0  0  0  0
   12.4196    1.4222   22.7450 C   0  0  0  0  0  0  0  0  0  0  0  0
   11.5048    2.4355   22.5299 C   0  0  0  0  0  0  0  0  0  0  0  0
   10.2571    2.1567   22.0006 C   0  0  0  0  0  0  0  0  0  0  0  0
    9.9069    0.8514   21.6642 C   0  0  0  0  0  0  0  0  0  0  0  0
   10.8440   -0.1611   21.8704 C   0  0  0  0  0  0  0  0  0  0  0  0
    8.6110    0.5681   21.1135 N   0  0  0  0  0  0  0  0  0  0  0  0
    7.1938    1.7403   21.5272 Se  0  0  0  0  0  2  0  0  0  0  0  0
    6.0659    0.2240   21.0941 C   0  0  0  0  0  0  0  0  0  0  0  0
    4.6682    0.6459   20.7030 C   0  0  0  0  0  0  0  0  0  0  0  0
    4.3856    1.0332   19.4603 C   0  0  0  0  0  0  0  0  0  0  0  0
    5.3772    1.0425   18.4602 C   0  0  0  0  0  0  0  0  0  0  0  0
    6.5288    0.3972   18.6342 C   0  0  0  0  0  0  0  0  0  0  0  0
    6.8026   -0.3807   19.8926 C   0  0  0  0  0  0  0  0  0  0  0  0
    8.2617   -0.4820   20.3103 C   0  0  0  0  0  0  0  0  0  0  0  0
    9.0022   -1.3851   19.9719 O   0  0  0  0  0  0  0  0  0  0  0  0
  1  2  1  0
  2  3  2  0
  2  4  1  0
  4  5  2  0
  5  6  1  0
  6  7  2  0
  7  8  1  0
  8  9  2  0
  8 10  1  0
 10 11  1  0
 11 12  1  0
 12 13  1  0
 13 14  2  0
 14 15  1  0
 15 16  2  0
 16 17  1  0
 17 18  1  0
 18 19  2  0
  9  4  1  0
 18 10  1  0
 17 12  1  0
M  END
