CVD-0003279|dock_bobby27042020.31|mol2|24|dock2
     RDKit          3D

 24 27  0  0  0  0  0  0  0  0999 V2000
    6.5765   -3.0854   21.2230 O   0  0  0  0  0  0  0  0  0  0  0  0
    6.9794   -2.0026   21.6376 C   0  0  0  0  0  0  0  0  0  0  0  0
    7.6656   -1.8985   22.9833 C   0  0  0  0  0  0  0  0  0  0  0  0
    9.1150   -1.5289   22.8411 C   0  0  0  0  0  0  0  0  0  0  0  0
   10.1312   -2.2909   22.3510 C   0  0  0  0  0  0  0  0  0  0  0  0
   11.3727   -1.6008   22.3721 C   0  0  0  0  0  0  0  0  0  0  0  0
   12.6999   -1.7697   22.0470 N   0  0  0  0  0  0  0  0  0  0  0  0
   13.4064   -0.6433   22.3389 C   0  0  0  0  0  0  0  0  0  0  0  0
   12.5519    0.2992   22.8704 C   0  0  0  0  0  0  0  0  0  0  0  0
   12.8706    1.6954   23.3344 C   0  0  0  0  0  0  0  0  0  0  0  0
   12.2012    2.7664   22.4922 C   0  0  0  0  0  0  0  0  0  0  0  0
   12.7108    4.1327   22.7976 C   0  0  0  0  0  0  0  0  0  0  0  0
   12.3701    4.8629   23.8499 N   0  0  0  0  0  0  0  0  0  0  0  0
   13.0800    6.0335   23.7292 C   0  0  0  0  0  0  0  0  0  0  0  0
   13.8408    5.9986   22.6129 C   0  0  0  0  0  0  0  0  0  0  0  0
   13.5998    4.7867   22.0302 N   0  0  0  0  0  0  0  0  0  0  0  0
   11.2596   -0.3269   22.8821 C   0  0  0  0  0  0  0  0  0  0  0  0
    9.6331    0.0461   23.3421 S   0  0  0  0  0  0  0  0  0  0  0  0
    6.8701   -0.8230   20.9532 N   0  0  0  0  0  0  0  0  0  0  0  0
    6.3034   -0.6069   19.6950 C   0  0  0  0  0  0  0  0  0  0  0  0
    5.7864   -1.5093   18.8200 C   0  0  0  0  0  0  0  0  0  0  0  0
    5.3699   -0.7722   17.7516 N   0  0  0  0  0  0  0  0  0  0  0  0
    5.6426    0.5106   18.0130 C   0  0  0  0  0  0  0  0  0  0  0  0
    6.2173    0.6698   19.1950 N   0  0  0  0  0  0  0  0  0  0  0  0
  1  2  2  0
  2  3  1  0
  3  4  1  0
  4  5  2  0
  5  6  1  0
  6  7  1  0
  7  8  1  0
  8  9  2  0
  9 10  1  0
 10 11  1  0
 11 12  1  0
 12 13  2  0
 13 14  1  0
 14 15  2  0
 15 16  1  0
  9 17  1  0
 17 18  1  0
  2 19  1  0
 19 20  1  0
 20 21  2  0
 21 22  1  0
 22 23  1  0
 23 24  2  0
 18  4  1  0
 24 20  1  0
 17  6  2  0
 16 12  1  0
M  END
