CVD-0002681|dock_bobby27042020.33|mol2|23|dock1
     RDKit          3D

 38 41  0  0  0  0  0  0  0  0999 V2000
    7.6588   -1.2540   23.0530 O   0  0  0  0  0  0  0  0  0  0  0  0
    8.5665   -1.4776   22.2560 C   0  0  0  0  0  0  0  0  0  0  0  0
    8.6929   -0.8071   21.1072 N   0  0  0  0  0  0  0  0  0  0  0  0
    7.7524    0.2326   20.7230 C   0  0  0  0  0  0  0  0  0  0  0  0
    6.3711   -0.3611   20.4071 C   0  0  0  0  0  0  0  0  0  0  0  0
    5.4132    0.6404   19.8090 C   0  0  0  0  0  0  0  0  0  0  0  0
    4.2595    1.0082   20.4840 C   0  0  0  0  0  0  0  0  0  0  0  0
    3.3820    1.9295   19.9369 C   0  0  0  0  0  0  0  0  0  0  0  0
    3.6487    2.4946   18.7084 C   0  0  0  0  0  0  0  0  0  0  0  0
    4.7930    2.1387   18.0274 C   0  0  0  0  0  0  0  0  0  0  0  0
    5.6701    1.2174   18.5749 C   0  0  0  0  0  0  0  0  0  0  0  0
    7.6162    1.2383   21.8617 C   0  0  0  0  0  0  0  0  0  0  0  0
    6.8398    1.0660   22.7854 O   0  0  0  0  0  0  0  0  0  0  0  0
    8.5142    2.4897   21.8125 C   0  0  0  0  0  0  0  0  0  0  0  0
    9.1168    2.8018   20.7864 O   0  0  0  0  0  0  0  0  0  0  0  0
    8.5735    3.1791   22.9508 N   0  0  0  0  0  0  0  0  0  0  0  0
    9.3735    4.3878   23.0831 C   0  0  0  0  0  0  0  0  0  0  0  0
   10.8561    4.1406   22.9426 C   0  0  0  0  0  0  0  0  0  0  0  0
   11.7346    5.1941   22.7420 C   0  0  0  0  0  0  0  0  0  0  0  0
   13.0944    4.9674   22.6098 C   0  0  0  0  0  0  0  0  0  0  0  0
   13.5917    3.6837   22.6758 C   0  0  0  0  0  0  0  0  0  0  0  0
   12.7292    2.6270   22.8735 C   0  0  0  0  0  0  0  0  0  0  0  0
   11.3695    2.8544   23.0056 C   0  0  0  0  0  0  0  0  0  0  0  0
    9.6234   -2.5461   22.5294 C   0  0  0  0  0  0  0  0  0  0  0  0
    9.0381   -3.6894   23.3834 C   0  0  0  0  0  0  0  0  0  0  0  0
    8.0568   -4.5546   22.6305 C   0  0  0  0  0  0  0  0  0  0  0  0
    7.5395   -4.1436   21.4118 C   0  0  0  0  0  0  0  0  0  0  0  0
    6.6367   -4.9358   20.7223 C   0  0  0  0  0  0  0  0  0  0  0  0
    6.2399   -6.1481   21.2443 C   0  0  0  0  0  0  0  0  0  0  0  0
    6.7456   -6.5680   22.4558 C   0  0  0  0  0  0  0  0  0  0  0  0
    7.6484   -5.7754   23.1449 C   0  0  0  0  0  0  0  0  0  0  0  0
   10.8399   -1.9708   23.1236 N   0  0  0  0  0  0  0  0  0  0  0  0
   12.0130   -2.0924   22.4168 C   0  0  0  0  0  0  0  0  0  0  0  0
   13.1720   -1.5997   22.8948 C   0  0  0  0  0  0  0  0  0  0  0  0
   13.1868   -0.9495   24.1395 C   0  0  0  0  0  0  0  0  0  0  0  0
   12.0321   -0.8182   24.8568 C   0  0  0  0  0  0  0  0  0  0  0  0
   10.7851   -1.3311   24.3703 C   0  0  0  0  0  0  0  0  0  0  0  0
    9.7223   -1.2285   24.9807 O   0  0  0  0  0  0  0  0  0  0  0  0
  1  2  2  0
  2  3  1  0
  3  4  1  0
  4  5  1  0
  5  6  1  0
  6  7  2  0
  7  8  1  0
  8  9  2  0
  9 10  1  0
 10 11  2  0
  4 12  1  0
 12 13  2  0
 12 14  1  0
 14 15  2  0
 14 16  1  0
 16 17  1  0
 17 18  1  0
 18 19  2  0
 19 20  1  0
 20 21  2  0
 21 22  1  0
 22 23  2  0
  2 24  1  0
 24 25  1  0
 25 26  1  0
 26 27  2  0
 27 28  1  0
 28 29  2  0
 29 30  1  0
 30 31  2  0
 24 32  1  0
 32 33  1  0
 33 34  2  0
 34 35  1  0
 35 36  2  0
 36 37  1  0
 37 38  2  0
 11  6  1  0
 23 18  1  0
 31 26  1  0
 37 32  1  0
M  END
