CVD-0003161|dock_bobby27042020.17|mol2|19|dock2
     RDKit          3D

 25 28  0  0  0  0  0  0  0  0999 V2000
    6.5885   -6.2334   23.1855 F   0  0  0  0  0  0  0  0  0  0  0  0
    7.2433   -5.0961   22.8572 C   0  0  0  0  0  0  0  0  0  0  0  0
    6.6684   -4.2242   21.9723 C   0  0  0  0  0  0  0  0  0  0  0  0
    7.3354   -3.0388   21.6304 C   0  0  0  0  0  0  0  0  0  0  0  0
    6.7905   -2.1190   20.6816 C   0  0  0  0  0  0  0  0  0  0  0  0
    7.3900   -0.9525   20.3429 C   0  0  0  0  0  0  0  0  0  0  0  0
    6.7488   -0.0657   19.3295 C   0  0  0  0  0  0  0  0  0  0  0  0
    5.4467    0.3861   19.5245 C   0  0  0  0  0  0  0  0  0  0  0  0
    4.8456    1.2175   18.5960 C   0  0  0  0  0  0  0  0  0  0  0  0
    5.5664    1.5929   17.4877 C   0  0  0  0  0  0  0  0  0  0  0  0
    6.8141    1.1834   17.2637 N   0  0  0  0  0  0  0  0  0  0  0  0
    7.3687    0.3582   18.1572 C   0  0  0  0  0  0  0  0  0  0  0  0
    8.6546   -0.5915   20.9924 C   0  0  0  0  0  0  0  0  0  0  0  0
    9.2480    0.4652   20.8111 O   0  0  0  0  0  0  0  0  0  0  0  0
    9.1921   -1.5094   21.8954 N   0  0  0  0  0  0  0  0  0  0  0  0
   10.4340   -1.1341   22.5325 C   0  0  0  0  0  0  0  0  0  0  0  0
   11.6508   -1.5816   22.0303 C   0  0  0  0  0  0  0  0  0  0  0  0
   12.8359   -1.2160   22.6466 C   0  0  0  0  0  0  0  0  0  0  0  0
   12.8198   -0.4061   23.7614 C   0  0  0  0  0  0  0  0  0  0  0  0
   11.6179    0.0422   24.2650 C   0  0  0  0  0  0  0  0  0  0  0  0
   10.4267   -0.3172   23.6568 C   0  0  0  0  0  0  0  0  0  0  0  0
    8.5772   -2.7447   22.2258 C   0  0  0  0  0  0  0  0  0  0  0  0
    9.1501   -3.6689   23.0994 C   0  0  0  0  0  0  0  0  0  0  0  0
    8.4773   -4.8340   23.4158 C   0  0  0  0  0  0  0  0  0  0  0  0
    9.1987   -5.9595   24.5189 Cl  0  0  0  0  0  0  0  0  0  0  0  0
  1  2  1  0
  2  3  2  0
  3  4  1  0
  4  5  1  0
  5  6  2  0
  6  7  1  0
  7  8  2  0
  8  9  1  0
  9 10  2  0
 10 11  1  0
 11 12  2  0
  6 13  1  0
 13 14  2  0
 13 15  1  0
 15 16  1  0
 16 17  2  0
 17 18  1  0
 18 19  2  0
 19 20  1  0
 20 21  2  0
 15 22  1  0
 22 23  1  0
 23 24  2  0
 24 25  1  0
 24  2  1  0
 22  4  2  0
 12  7  1  0
 21 16  1  0
M  END
