CVD-0000692|dock_bobby27042020.83|mol2|34|dock2
     RDKit          3D

 28 30  0  0  0  0  0  0  0  0999 V2000
    6.3431    0.7242   17.3660 O   0  0  0  0  0  0  0  0  0  0  0  0
    6.4769    0.5847   18.5771 C   0  0  0  0  0  0  0  0  0  0  0  0
    7.7143   -0.0759   19.1516 C   0  0  0  0  0  0  0  0  0  0  0  0
    7.4135   -1.3437   19.9182 C   0  0  0  0  0  0  0  0  0  0  0  0
    6.1966   -1.9706   19.8057 C   0  0  0  0  0  0  0  0  0  0  0  0
    5.8507   -3.0901   20.4484 N   0  0  0  0  0  0  0  0  0  0  0  0
    6.7645   -3.6275   21.2558 C   0  0  0  0  0  0  0  0  0  0  0  0
    8.0188   -3.0860   21.4488 C   0  0  0  0  0  0  0  0  0  0  0  0
    8.3601   -1.9195   20.7723 C   0  0  0  0  0  0  0  0  0  0  0  0
    9.7351   -1.3241   20.9791 C   0  0  0  0  0  0  0  0  0  0  0  0
    9.8642   -0.6040   22.3093 C   0  0  0  0  0  0  0  0  0  0  0  0
    9.6870    0.8341   22.1672 N   0  0  0  0  0  0  0  0  0  0  0  0
   10.7095    1.6954   22.3384 C   0  0  0  0  0  0  0  0  0  0  0  0
   11.8431    1.3173   22.6225 O   0  0  0  0  0  0  0  0  0  0  0  0
   10.4052    3.0017   22.1767 N   0  0  0  0  0  0  0  0  0  0  0  0
   11.3714    4.0756   22.4082 C   0  0  0  0  0  0  0  0  0  0  0  0
   12.5731    3.9605   21.4482 C   0  0  0  0  0  0  0  0  0  0  0  0
   13.6353    5.0257   21.7135 C   0  0  0  0  0  0  0  0  0  0  0  0
   14.0847    5.0105   23.1689 C   0  0  0  0  0  0  0  0  0  0  0  0
   12.8987    5.1563   24.1114 C   0  0  0  0  0  0  0  0  0  0  0  0
   11.8614    4.0653   23.8662 C   0  0  0  0  0  0  0  0  0  0  0  0
    5.5882    0.9809   19.5206 N   0  0  0  0  0  0  0  0  0  0  0  0
    4.3310    1.6264   19.4135 C   0  0  0  0  0  0  0  0  0  0  0  0
    4.0226    2.5358   18.4043 C   0  0  0  0  0  0  0  0  0  0  0  0
    2.7718    3.1295   18.3613 C   0  0  0  0  0  0  0  0  0  0  0  0
    1.8211    2.8294   19.3119 C   0  0  0  0  0  0  0  0  0  0  0  0
    2.1168    1.9315   20.3135 C   0  0  0  0  0  0  0  0  0  0  0  0
    3.3634    1.3315   20.3672 C   0  0  0  0  0  0  0  0  0  0  0  0
  1  2  2  0
  2  3  1  0
  3  4  1  0
  4  5  2  0
  5  6  1  0
  6  7  2  0
  7  8  1  0
  8  9  2  0
  9 10  1  0
 10 11  1  0
 11 12  1  0
 12 13  1  0
 13 14  2  0
 13 15  1  0
 15 16  1  0
 16 17  1  0
 17 18  1  0
 18 19  1  0
 19 20  1  0
 20 21  1  0
  2 22  1  0
 22 23  1  0
 23 24  2  0
 24 25  1  0
 25 26  2  0
 26 27  1  0
 27 28  2  0
  9  4  1  0
 21 16  1  0
 28 23  1  0
M  END
