CVD-0001859|dock_bobby27042020.22|mol2|30|dock3
     RDKit          3D

 15 15  0  0  0  0  0  0  0  0999 V2000
    9.9554    6.1624   23.2369 C   0  0  0  0  0  0  0  0  0  0  0  0
   10.2144    4.7386   23.2300 O   0  0  0  0  0  0  0  0  0  0  0  0
   11.3965    4.3663   22.7436 C   0  0  0  0  0  0  0  0  0  0  0  0
   12.2218    5.1730   22.3489 O   0  0  0  0  0  0  0  0  0  0  0  0
   11.6628    2.8853   22.7063 C   0  0  0  0  0  0  0  0  0  0  0  0
   13.0117    2.5214   22.7437 C   0  0  0  0  0  0  0  0  0  0  0  0
   13.4123    1.1988   22.7173 C   0  0  0  0  0  0  0  0  0  0  0  0
   12.4500    0.2093   22.6512 C   0  0  0  0  0  0  0  0  0  0  0  0
   11.1077    0.5457   22.6143 C   0  0  0  0  0  0  0  0  0  0  0  0
   10.6836    1.8726   22.6386 C   0  0  0  0  0  0  0  0  0  0  0  0
    9.1951    2.1043   22.5924 C   0  0  0  0  0  0  0  0  0  0  0  0
   12.9268   -1.4922   22.6241 S   0  0  0  0  0  0  0  0  0  0  0  0
   13.2806   -1.8956   21.1158 N   0  0  0  0  0  0  0  0  0  0  0  0
   11.7837   -2.2629   23.0119 O   0  0  0  0  0  0  0  0  0  0  0  0
   14.1325   -1.6105   23.3881 O   0  0  0  0  0  0  0  0  0  0  0  0
  1  2  1  0
  2  3  1  0
  3  4  2  0
  3  5  1  0
  5  6  2  0
  6  7  1  0
  7  8  2  0
  8  9  1  0
  9 10  2  0
 10 11  1  0
  8 12  1  0
 12 13  1  0
 12 14  2  0
 12 15  2  0
 10  5  1  0
M  END
