CVD-0003300|dock_bobby27042020.16|mol2|53|dock3
     RDKit          3D

 16 17  0  0  0  0  0  0  0  0999 V2000
    9.2418   -1.6105   21.6293 C   0  0  0  0  0  0  0  0  0  0  0  0
   10.2375   -0.5988   21.9763 N   0  0  0  0  0  0  0  0  0  0  0  0
   10.0791    0.7709   21.8424 C   0  0  0  0  0  0  0  0  0  0  0  0
    8.9829    1.3032   21.3471 O   0  0  0  0  0  0  0  0  0  0  0  0
   11.2633    1.3737   22.3200 C   0  0  0  0  0  0  0  0  0  0  0  0
   11.4435    2.7477   22.3246 N   0  0  0  0  0  0  0  0  0  0  0  0
   12.5403    3.2153   22.7277 N   0  0  0  0  0  0  0  0  0  0  0  0
   12.5383    4.6828   22.6573 C   0  0  0  0  0  0  0  0  0  0  0  0
   13.7045    5.1803   23.0436 N   0  0  0  0  0  0  0  0  0  0  0  0
   11.5797    5.3547   22.2885 O   0  0  0  0  0  0  0  0  0  0  0  0
   12.1510    0.3085   22.7609 C   0  0  0  0  0  0  0  0  0  0  0  0
   13.4294    0.2653   23.3137 C   0  0  0  0  0  0  0  0  0  0  0  0
   13.9978   -0.9568   23.6348 C   0  0  0  0  0  0  0  0  0  0  0  0
   13.3124   -2.1344   23.4136 C   0  0  0  0  0  0  0  0  0  0  0  0
   12.0408   -2.1246   22.8625 C   0  0  0  0  0  0  0  0  0  0  0  0
   11.4729   -0.8977   22.5380 C   0  0  0  0  0  0  0  0  0  0  0  0
  1  2  1  0
  2  3  1  0
  3  4  1  0
  3  5  2  0
  5  6  1  0
  6  7  2  0
  7  8  1  0
  8  9  1  0
  8 10  2  0
  5 11  1  0
 11 12  2  0
 12 13  1  0
 13 14  2  0
 14 15  1  0
 15 16  2  0
 16  2  1  0
 16 11  1  0
M  END
