CVD-0002164|dock_bobby27042020.78|mol2|23|dock3
     RDKit          3D

 25 27  0  0  0  0  0  0  0  0999 V2000
    9.3195   -0.1667   22.7193 O   0  0  0  0  0  0  0  0  0  0  0  0
    9.7017   -0.6826   21.6743 C   0  0  0  0  0  0  0  0  0  0  0  0
   10.8828   -1.3761   21.5407 N   0  0  0  0  0  0  0  0  0  0  0  0
   11.8961   -1.6612   22.4903 C   0  0  0  0  0  0  0  0  0  0  0  0
   11.6967   -1.6982   23.8673 C   0  0  0  0  0  0  0  0  0  0  0  0
   12.7646   -1.9886   24.6989 C   0  0  0  0  0  0  0  0  0  0  0  0
   13.9966   -2.2333   24.1378 C   0  0  0  0  0  0  0  0  0  0  0  0
   14.2186   -2.2053   22.8240 N   0  0  0  0  0  0  0  0  0  0  0  0
   13.1815   -1.9241   22.0301 C   0  0  0  0  0  0  0  0  0  0  0  0
    9.0082   -0.6442   20.4859 N   0  0  0  0  0  0  0  0  0  0  0  0
    7.7633   -0.0507   20.1549 C   0  0  0  0  0  0  0  0  0  0  0  0
    7.4531    0.0719   18.8070 C   0  0  0  0  0  0  0  0  0  0  0  0
    6.2554    0.6415   18.4149 C   0  0  0  0  0  0  0  0  0  0  0  0
    5.3502    1.0968   19.3570 C   0  0  0  0  0  0  0  0  0  0  0  0
    5.6414    0.9835   20.7144 C   0  0  0  0  0  0  0  0  0  0  0  0
    4.7788    1.4200   21.7433 N   0  0  0  0  0  0  0  0  0  0  0  0
    3.4496    1.8155   21.7884 C   0  0  0  0  0  0  0  0  0  0  0  0
    3.0199    2.5671   22.8815 C   0  0  0  0  0  0  0  0  0  0  0  0
    1.6971    2.9675   22.9378 C   0  0  0  0  0  0  0  0  0  0  0  0
    0.8264    2.6169   21.9133 C   0  0  0  0  0  0  0  0  0  0  0  0
    1.3447    1.8657   20.8635 C   0  0  0  0  0  0  0  0  0  0  0  0
    2.6216    1.4724   20.7972 N   0  0  0  0  0  0  0  0  0  0  0  0
   -0.5592    3.0158   21.9371 C   0  0  0  0  0  0  0  0  0  0  0  0
   -1.6588    3.3250   21.9232 N   0  0  0  0  0  0  0  0  0  0  0  0
    6.8489    0.4091   21.1017 C   0  0  0  0  0  0  0  0  0  0  0  0
  1  2  2  0
  2  3  1  0
  3  4  1  0
  4  5  2  0
  5  6  1  0
  6  7  2  0
  7  8  1  0
  8  9  2  0
  2 10  1  0
 10 11  1  0
 11 12  2  0
 12 13  1  0
 13 14  2  0
 14 15  1  0
 15 16  1  0
 16 17  1  0
 17 18  2  0
 18 19  1  0
 19 20  2  0
 20 21  1  0
 21 22  2  0
 20 23  1  0
 23 24  3  0
 15 25  2  0
  9  4  1  0
 25 11  1  0
 22 17  1  0
M  END
