CVD-0003746|dock_bobby27042020.1|mol2|8|dock1
     RDKit          3D

 24 27  0  0  0  0  0  0  0  0999 V2000
    8.5009    1.6823   23.8541 C   0  0  0  0  0  0  0  0  0  0  0  0
    9.3318    2.8289   23.4983 N   0  0  0  0  0  0  0  0  0  0  0  0
    8.7870    4.0906   23.5338 C   0  0  0  0  0  0  0  0  0  0  0  0
    9.7030    5.0203   23.2053 C   0  0  0  0  0  0  0  0  0  0  0  0
   10.9225    4.3263   22.9517 C   0  0  0  0  0  0  0  0  0  0  0  0
   12.2068    4.7583   22.6027 C   0  0  0  0  0  0  0  0  0  0  0  0
   13.2213    3.8430   22.4268 C   0  0  0  0  0  0  0  0  0  0  0  0
   12.9799    2.4882   22.5694 C   0  0  0  0  0  0  0  0  0  0  0  0
   11.7132    1.9854   22.8813 C   0  0  0  0  0  0  0  0  0  0  0  0
   10.6733    2.9367   23.1131 C   0  0  0  0  0  0  0  0  0  0  0  0
   11.5207    0.4585   22.9492 C   0  0  0  0  0  0  0  0  0  0  0  0
   11.1368   -0.0756   24.3286 C   0  0  0  0  0  0  0  0  0  0  0  0
   10.9217   -1.5785   24.2971 C   0  0  0  0  0  0  0  0  0  0  0  0
   12.1344   -2.3043   23.7514 C   0  0  0  0  0  0  0  0  0  0  0  0
   12.5116   -1.7823   22.3748 C   0  0  0  0  0  0  0  0  0  0  0  0
   12.7363   -0.2783   22.3962 C   0  0  0  0  0  0  0  0  0  0  0  0
   10.3714    0.2991   22.0411 C   0  0  0  0  0  0  0  0  0  0  0  0
    9.4568    0.2297   21.2770 C   0  0  0  0  0  0  0  0  0  0  0  0
    8.3356    0.2325   20.3747 C   0  0  0  0  0  0  0  0  0  0  0  0
    8.0826   -0.8721   19.5675 C   0  0  0  0  0  0  0  0  0  0  0  0
    6.9932   -0.8243   18.7155 C   0  0  0  0  0  0  0  0  0  0  0  0
    6.1981    0.3006   18.6888 C   0  0  0  0  0  0  0  0  0  0  0  0
    6.5227    1.3471   19.5220 C   0  0  0  0  0  0  0  0  0  0  0  0
    7.5681    1.3389   20.3602 N   0  0  0  0  0  0  0  0  0  0  0  0
  1  2  1  0
  2  3  1  0
  3  4  2  0
  4  5  1  0
  5  6  2  0
  6  7  1  0
  7  8  2  0
  8  9  1  0
  9 10  2  0
  9 11  1  0
 11 12  1  0
 12 13  1  0
 13 14  1  0
 14 15  1  0
 15 16  1  0
 11 17  1  0
 17 18  3  0
 18 19  1  0
 19 20  2  0
 20 21  1  0
 21 22  2  0
 22 23  1  0
 23 24  2  0
 10  2  1  0
 16 11  1  0
 24 19  1  0
 10  5  1  0
M  END
