CVD-0003777|dock_bobby27042020.58|mol2|36|dock2
     RDKit          3D

 28 31  0  0  0  0  0  0  0  0999 V2000
   13.8002    5.2771   21.2173 N   0  0  0  0  0  0  0  0  0  0  0  0
   13.4622    5.0351   22.7634 S   0  0  0  0  0  0  0  0  0  0  0  0
   12.6597    6.1384   23.1991 O   0  0  0  0  0  0  0  0  0  0  0  0
   14.7017    4.7748   23.4320 O   0  0  0  0  0  0  0  0  0  0  0  0
   12.4731    3.5770   22.8989 C   0  0  0  0  0  0  0  0  0  0  0  0
   13.0685    2.3305   22.8318 C   0  0  0  0  0  0  0  0  0  0  0  0
   12.2867    1.1929   22.9267 C   0  0  0  0  0  0  0  0  0  0  0  0
   10.9080    1.2722   23.1015 C   0  0  0  0  0  0  0  0  0  0  0  0
   10.3354    2.5391   23.1712 C   0  0  0  0  0  0  0  0  0  0  0  0
   11.1042    3.6844   23.0636 C   0  0  0  0  0  0  0  0  0  0  0  0
   10.1315    0.1224   23.2023 N   0  0  0  0  0  0  0  0  0  0  0  0
    9.2879   -0.1685   24.3655 C   0  0  0  0  0  0  0  0  0  0  0  0
    9.4355   -1.5901   24.8287 C   0  0  0  0  0  0  0  0  0  0  0  0
    9.1327   -2.5731   23.6924 C   0  0  0  0  0  0  0  0  0  0  0  0
    9.2753   -4.0193   24.1474 C   0  0  0  0  0  0  0  0  0  0  0  0
    8.7049   -4.2915   25.4710 N   0  0  0  0  0  0  0  0  0  0  0  0
    9.3433   -5.4553   26.0774 C   0  0  0  0  0  0  0  0  0  0  0  0
    8.8254   -5.6835   27.4870 C   0  0  0  0  0  0  0  0  0  0  0  0
    7.3157   -5.9070   27.4439 C   0  0  0  0  0  0  0  0  0  0  0  0
    6.6429   -4.7325   26.7490 C   0  0  0  0  0  0  0  0  0  0  0  0
    7.2628   -4.5422   25.3734 C   0  0  0  0  0  0  0  0  0  0  0  0
    6.7374   -6.1949   28.7943 C   0  0  0  0  0  0  0  0  0  0  0  0
    5.8427   -5.3393   29.5009 C   0  0  0  0  0  0  0  0  0  0  0  0
    5.4553   -5.8189   30.7160 C   0  0  0  0  0  0  0  0  0  0  0  0
    6.1854   -7.3251   31.0043 S   0  0  0  0  0  0  0  0  0  0  0  0
    7.0059   -7.3207   29.5154 C   0  0  0  0  0  0  0  0  0  0  0  0
   10.0207   -2.2443   22.5189 C   0  0  0  0  0  0  0  0  0  0  0  0
    9.8979   -0.8038   22.0700 C   0  0  0  0  0  0  0  0  0  0  0  0
  1  2  1  0
  2  3  2  0
  2  4  2  0
  2  5  1  0
  5  6  2  0
  6  7  1  0
  7  8  2  0
  8  9  1  0
  9 10  2  0
  8 11  1  0
 11 12  1  0
 12 13  1  0
 13 14  1  0
 14 15  1  0
 15 16  1  0
 16 17  1  0
 17 18  1  0
 18 19  1  0
 19 20  1  0
 20 21  1  0
 19 22  1  0
 22 23  1  0
 23 24  2  0
 24 25  1  0
 25 26  1  0
 14 27  1  0
 27 28  1  0
 10  5  1  0
 28 11  1  0
 21 16  1  0
 26 22  2  0
M  END
