CVD-0002434|dock_bobby27042020.6|mol2|2|dock1
     RDKit          3D

 34 34  0  0  0  0  0  0  0  0999 V2000
    9.9282   -5.2852   25.3634 C   0  0  0  0  0  0  0  0  0  0  0  0
    8.8800   -4.3021   25.8359 C   0  0  0  0  0  0  0  0  0  0  0  0
    8.5900   -3.3481   24.7704 O   0  0  0  0  0  0  0  0  0  0  0  0
    9.4379   -2.2956   24.4945 C   0  0  0  0  0  0  0  0  0  0  0  0
    9.7470   -1.3449   25.4542 C   0  0  0  0  0  0  0  0  0  0  0  0
   10.6023   -0.3034   25.1401 C   0  0  0  0  0  0  0  0  0  0  0  0
   11.1600   -0.1870   23.8770 C   0  0  0  0  0  0  0  0  0  0  0  0
   12.0892    0.9552   23.5429 C   0  0  0  0  0  0  0  0  0  0  0  0
   11.4536    2.3413   23.7338 C   0  0  0  0  0  0  0  0  0  0  0  0
   12.4476    3.3849   23.5427 N   0  0  0  0  0  0  0  0  0  0  0  0
   12.1179    4.6811   23.5522 C   0  0  0  0  0  0  0  0  0  0  0  0
   13.2423    5.6481   23.3238 C   0  0  0  0  0  0  0  0  0  0  0  0
   10.9626    5.0578   23.7221 O   0  0  0  0  0  0  0  0  0  0  0  0
   10.2911    2.5161   22.7609 C   0  0  0  0  0  0  0  0  0  0  0  0
   10.4843    2.4861   21.5483 O   0  0  0  0  0  0  0  0  0  0  0  0
    9.0859    2.6982   23.2999 N   0  0  0  0  0  0  0  0  0  0  0  0
    7.8997    2.8764   22.4731 C   0  0  0  0  0  0  0  0  0  0  0  0
    7.6906    4.2744   22.0779 C   0  0  0  0  0  0  0  0  0  0  0  0
    7.5148    5.4176   21.8161 C   0  0  0  0  0  0  0  0  0  0  0  0
    7.2156    7.1359   21.3676 Br  0  0  0  0  0  0  0  0  0  0  0  0
   10.8367   -1.1425   22.9272 C   0  0  0  0  0  0  0  0  0  0  0  0
    9.9839   -2.1898   23.2272 C   0  0  0  0  0  0  0  0  0  0  0  0
    7.5300   -4.9529   26.1661 C   0  0  0  0  0  0  0  0  0  0  0  0
    6.4960   -3.9412   26.3207 N   0  0  0  0  0  0  0  0  0  0  0  0
    5.6168   -3.6681   25.3501 C   0  0  0  0  0  0  0  0  0  0  0  0
    4.6191   -2.5886   25.6519 C   0  0  0  0  0  0  0  0  0  0  0  0
    5.6323   -4.2525   24.2712 O   0  0  0  0  0  0  0  0  0  0  0  0
    7.6115   -5.7881   27.4404 C   0  0  0  0  0  0  0  0  0  0  0  0
    8.6590   -5.8485   28.0788 O   0  0  0  0  0  0  0  0  0  0  0  0
    6.5024   -6.4264   27.8142 N   0  0  0  0  0  0  0  0  0  0  0  0
    6.4701   -7.2639   29.0058 C   0  0  0  0  0  0  0  0  0  0  0  0
    5.1191   -7.7390   29.3267 C   0  0  0  0  0  0  0  0  0  0  0  0
    4.0063   -8.0704   29.5677 C   0  0  0  0  0  0  0  0  0  0  0  0
    2.3197   -8.6154   29.8869 Br  0  0  0  0  0  0  0  0  0  0  0  0
  2  1  1  0
  2  3  1  0
  3  4  1  0
  4  5  2  0
  5  6  1  0
  6  7  2  0
  7  8  1  0
  8  9  1  0
  9 10  1  0
 10 11  1  0
 11 12  1  0
 11 13  2  0
  9 14  1  0
 14 15  2  0
 14 16  1  0
 16 17  1  0
 17 18  1  0
 18 19  3  0
 19 20  1  0
  7 21  1  0
 21 22  2  0
  2 23  1  0
 23 24  1  0
 24 25  1  0
 25 26  1  0
 25 27  2  0
 23 28  1  0
 28 29  2  0
 28 30  1  0
 30 31  1  0
 31 32  1  0
 32 33  3  0
 33 34  1  0
 22  4  1  0
M  END
