CVD-0003415|dock_bobby27042020.74|mol2|3|dock1
     RDKit          3D

 20 22  0  0  0  0  0  0  0  0999 V2000
   13.4980   -1.9465   20.5167 Cl  0  0  0  0  0  0  0  0  0  0  0  0
   13.1218   -1.4796   22.1312 C   0  0  0  0  0  0  0  0  0  0  0  0
   14.2050   -1.6013   22.9309 N   0  0  0  0  0  0  0  0  0  0  0  0
   14.0850   -1.2873   24.1814 C   0  0  0  0  0  0  0  0  0  0  0  0
   12.8965   -0.8434   24.6865 N   0  0  0  0  0  0  0  0  0  0  0  0
   12.7134   -0.4985   25.9966 N   0  0  0  0  0  0  0  0  0  0  0  0
   11.4433   -0.1288   26.0696 C   0  0  0  0  0  0  0  0  0  0  0  0
   10.7788   -0.2170   24.8522 C   0  0  0  0  0  0  0  0  0  0  0  0
   11.7582   -0.6980   23.9234 C   0  0  0  0  0  0  0  0  0  0  0  0
   11.8827   -1.0466   22.5245 C   0  0  0  0  0  0  0  0  0  0  0  0
   10.8446   -0.9778   21.5449 N   0  0  0  0  0  0  0  0  0  0  0  0
    9.5741   -0.3858   21.5466 C   0  0  0  0  0  0  0  0  0  0  0  0
    9.1112    0.2293   22.4922 O   0  0  0  0  0  0  0  0  0  0  0  0
    8.9063   -0.5776   20.3584 N   0  0  0  0  0  0  0  0  0  0  0  0
    7.6195   -0.1579   19.9344 C   0  0  0  0  0  0  0  0  0  0  0  0
    7.3209    0.2380   18.6319 C   0  0  0  0  0  0  0  0  0  0  0  0
    6.0353    0.6343   18.3013 C   0  0  0  0  0  0  0  0  0  0  0  0
    5.0381    0.6426   19.2514 C   0  0  0  0  0  0  0  0  0  0  0  0
    5.3224    0.2533   20.5413 C   0  0  0  0  0  0  0  0  0  0  0  0
    6.6034   -0.1448   20.8837 C   0  0  0  0  0  0  0  0  0  0  0  0
  1  2  1  0
  2  3  1  0
  3  4  2  0
  4  5  1  0
  5  6  1  0
  6  7  2  0
  7  8  1  0
  8  9  2  0
  9 10  1  0
 10 11  1  0
 11 12  1  0
 12 13  2  0
 12 14  1  0
 14 15  1  0
 15 16  2  0
 16 17  1  0
 17 18  2  0
 18 19  1  0
 19 20  2  0
 10  2  2  0
 20 15  1  0
  9  5  1  0
M  END
