CVD-0002852|dock_bobby27042020.18|mol2|26|dock2
     RDKit          3D

 29 31  0  0  0  0  0  0  0  0999 V2000
    4.0353    1.6319   19.2422 C   0  0  0  0  0  0  0  0  0  0  0  0
    5.3517    1.1609   19.7871 C   0  0  0  0  0  0  0  0  0  0  0  0
    5.6035    1.1855   20.9877 O   0  0  0  0  0  0  0  0  0  0  0  0
    6.2263    0.6983   18.8916 N   0  0  0  0  0  0  0  0  0  0  0  0
    7.5354    0.1925   19.2776 C   0  0  0  0  0  0  0  0  0  0  0  0
    7.4774   -1.1409   19.9812 C   0  0  0  0  0  0  0  0  0  0  0  0
    6.3750   -1.9706   19.7784 C   0  0  0  0  0  0  0  0  0  0  0  0
    6.3048   -3.1905   20.4249 C   0  0  0  0  0  0  0  0  0  0  0  0
    5.3491   -4.1754   20.3473 O   0  0  0  0  0  0  0  0  0  0  0  0
    5.6983   -5.1333   21.3418 C   0  0  0  0  0  0  0  0  0  0  0  0
    7.0390   -4.8532   21.7553 O   0  0  0  0  0  0  0  0  0  0  0  0
    7.3188   -3.5960   21.2716 C   0  0  0  0  0  0  0  0  0  0  0  0
    8.4197   -2.7881   21.4857 C   0  0  0  0  0  0  0  0  0  0  0  0
    8.5072   -1.5542   20.8420 C   0  0  0  0  0  0  0  0  0  0  0  0
    9.7199   -0.6882   21.1039 C   0  0  0  0  0  0  0  0  0  0  0  0
    9.5749    0.2438   22.2999 C   0  0  0  0  0  0  0  0  0  0  0  0
   10.8037    1.1030   22.5436 C   0  0  0  0  0  0  0  0  0  0  0  0
   10.7102    1.9671   23.7893 C   0  0  0  0  0  0  0  0  0  0  0  0
    9.6060    3.0136   23.7142 C   0  0  0  0  0  0  0  0  0  0  0  0
    9.7158    4.1075   24.7549 C   0  0  0  0  0  0  0  0  0  0  0  0
    8.8041    4.0880   25.8046 C   0  0  0  0  0  0  0  0  0  0  0  0
    8.8679    5.0677   26.7708 C   0  0  0  0  0  0  0  0  0  0  0  0
    9.7667    6.0486   26.7575 N   0  0  0  0  0  0  0  0  0  0  0  0
   10.6461    6.0741   25.7510 C   0  0  0  0  0  0  0  0  0  0  0  0
   10.6742    5.1362   24.7196 C   0  0  0  0  0  0  0  0  0  0  0  0
   11.6068    5.1604   23.6462 N   0  0  0  0  0  0  0  0  0  0  0  0
   12.9331    5.4548   23.6233 C   0  0  0  0  0  0  0  0  0  0  0  0
   13.5464    5.3762   22.2561 C   0  0  0  0  0  0  0  0  0  0  0  0
   13.6063    5.7746   24.5970 O   0  0  0  0  0  0  0  0  0  0  0  0
  1  2  1  0
  2  3  2  0
  2  4  1  0
  4  5  1  0
  5  6  1  0
  6  7  2  0
  7  8  1  0
  8  9  1  0
  9 10  1  0
 10 11  1  0
 11 12  1  0
 12 13  1  0
 13 14  2  0
 14 15  1  0
 15 16  1  0
 16 17  1  0
 17 18  1  0
 18 19  1  0
 19 20  1  0
 20 21  2  0
 21 22  1  0
 22 23  2  0
 23 24  1  0
 24 25  2  0
 25 26  1  0
 26 27  1  0
 27 28  1  0
 27 29  2  0
 14  6  1  0
 25 20  1  0
 12  8  2  0
M  END
