CVD-0000329|dock_bobby27042020.84|mol2|35|dock1
     RDKit          3D

 30 33  0  0  0  0  0  0  0  0999 V2000
   10.7727   -4.9673   25.4302 C   0  0  0  0  0  0  0  0  0  0  0  0
    9.7046   -4.6372   24.4508 C   0  0  0  0  0  0  0  0  0  0  0  0
   10.1200   -3.4943   23.6934 O   0  0  0  0  0  0  0  0  0  0  0  0
    9.3134   -2.9824   22.7057 C   0  0  0  0  0  0  0  0  0  0  0  0
    8.0419   -3.4459   22.4179 C   0  0  0  0  0  0  0  0  0  0  0  0
    7.2807   -2.9587   21.4322 N   0  0  0  0  0  0  0  0  0  0  0  0
    7.7752   -1.9758   20.6622 C   0  0  0  0  0  0  0  0  0  0  0  0
    9.0360   -1.4398   20.9021 C   0  0  0  0  0  0  0  0  0  0  0  0
    9.8306   -1.9287   21.9387 C   0  0  0  0  0  0  0  0  0  0  0  0
   11.1647   -1.2844   22.1346 C   0  0  0  0  0  0  0  0  0  0  0  0
   12.3126   -2.0078   22.4438 C   0  0  0  0  0  0  0  0  0  0  0  0
   13.5278   -1.3681   22.6118 C   0  0  0  0  0  0  0  0  0  0  0  0
   13.6208    0.0069   22.4820 C   0  0  0  0  0  0  0  0  0  0  0  0
   12.4901    0.7642   22.1819 C   0  0  0  0  0  0  0  0  0  0  0  0
   11.2780    0.1007   22.0138 C   0  0  0  0  0  0  0  0  0  0  0  0
   12.5078    2.2609   22.0292 C   0  0  0  0  0  0  0  0  0  0  0  0
   11.7158    2.7704   21.2415 O   0  0  0  0  0  0  0  0  0  0  0  0
   13.4044    3.0073   22.7715 N   0  0  0  0  0  0  0  0  0  0  0  0
   13.5825    4.3714   22.7818 C   0  0  0  0  0  0  0  0  0  0  0  0
   14.1252    5.2375   21.8524 C   0  0  0  0  0  0  0  0  0  0  0  0
   14.0305    6.5234   22.4343 C   0  0  0  0  0  0  0  0  0  0  0  0
   13.4646    6.3741   23.6235 C   0  0  0  0  0  0  0  0  0  0  0  0
   13.1717    5.0606   23.8783 O   0  0  0  0  0  0  0  0  0  0  0  0
    6.8748   -1.5191   19.5662 C   0  0  0  0  0  0  0  0  0  0  0  0
    6.3421   -2.5131   18.7484 C   0  0  0  0  0  0  0  0  0  0  0  0
    5.5087   -2.2882   17.7293 N   0  0  0  0  0  0  0  0  0  0  0  0
    5.1720   -1.0197   17.5010 C   0  0  0  0  0  0  0  0  0  0  0  0
    5.6493    0.0421   18.2422 C   0  0  0  0  0  0  0  0  0  0  0  0
    6.5301   -0.1848   19.2972 C   0  0  0  0  0  0  0  0  0  0  0  0
    7.0621    0.9961   20.0667 C   0  0  0  0  0  0  0  0  0  0  0  0
  1  2  1  0
  2  3  1  0
  3  4  1  0
  4  5  2  0
  5  6  1  0
  6  7  2  0
  7  8  1  0
  8  9  2  0
  9 10  1  0
 10 11  2  0
 11 12  1  0
 12 13  2  0
 13 14  1  0
 14 15  2  0
 14 16  1  0
 16 17  2  0
 16 18  1  0
 18 19  1  0
 19 20  2  0
 20 21  1  0
 21 22  2  0
 22 23  1  0
  7 24  1  0
 24 25  2  0
 25 26  1  0
 26 27  2  0
 27 28  1  0
 28 29  2  0
 29 30  1  0
  9  4  1  0
 15 10  1  0
 23 19  1  0
 29 24  1  0
M  END
