CVD-0003534|dock_bobby27042020.73|mol2|29|dock3
     RDKit          3D

 18 20  0  0  0  0  0  0  0  0999 V2000
    6.4493   -3.0403   20.8593 O   0  0  0  0  0  0  0  0  0  0  0  0
    6.5451   -2.0470   20.1399 C   0  0  0  0  0  0  0  0  0  0  0  0
    5.7670   -1.9202   18.9973 N   0  0  0  0  0  0  0  0  0  0  0  0
    5.8022   -0.8645   18.1460 C   0  0  0  0  0  0  0  0  0  0  0  0
    6.6378    0.1746   18.3747 C   0  0  0  0  0  0  0  0  0  0  0  0
    7.4653    0.1372   19.5086 C   0  0  0  0  0  0  0  0  0  0  0  0
    7.4399   -0.9353   20.3818 C   0  0  0  0  0  0  0  0  0  0  0  0
    8.3284   -0.9525   21.5910 C   0  0  0  0  0  0  0  0  0  0  0  0
    9.6821   -1.3403   21.2582 N   0  0  0  0  0  0  0  0  0  0  0  0
   10.6538   -1.3899   22.1765 C   0  0  0  0  0  0  0  0  0  0  0  0
   10.4888   -1.0982   23.4539 N   0  0  0  0  0  0  0  0  0  0  0  0
   11.7504   -1.2881   24.0116 C   0  0  0  0  0  0  0  0  0  0  0  0
   12.1904   -1.1330   25.3255 C   0  0  0  0  0  0  0  0  0  0  0  0
   13.5211   -1.3916   25.6188 C   0  0  0  0  0  0  0  0  0  0  0  0
   14.4038   -1.7959   24.6360 C   0  0  0  0  0  0  0  0  0  0  0  0
   13.9834   -1.9550   23.3251 C   0  0  0  0  0  0  0  0  0  0  0  0
   12.6502   -1.6962   23.0302 C   0  0  0  0  0  0  0  0  0  0  0  0
   11.9192   -1.7535   21.8602 N   0  0  0  0  0  0  0  0  0  0  0  0
  1  2  2  0
  2  3  1  0
  3  4  1  0
  4  5  2  0
  5  6  1  0
  6  7  2  0
  7  8  1  0
  8  9  1  0
  9 10  1  0
 10 11  2  0
 11 12  1  0
 12 13  2  0
 13 14  1  0
 14 15  2  0
 15 16  1  0
 16 17  2  0
 17 18  1  0
  7  2  1  0
 18 10  1  0
 17 12  1  0
M  END
