CVD-0003226|dock_bobby27042020.88|mol2|35|dock3
     RDKit          3D

 29 32  0  0  0  0  0  0  0  0999 V2000
    5.3370   -0.5639   20.3463 C   0  0  0  0  0  0  0  0  0  0  0  0
    5.9388    0.3475   19.2909 C   0  0  0  0  0  0  0  0  0  0  0  0
    5.0997    0.3048   18.0258 C   0  0  0  0  0  0  0  0  0  0  0  0
    7.3751   -0.0675   18.9887 C   0  0  0  0  0  0  0  0  0  0  0  0
    8.2749   -0.1186   20.1995 C   0  0  0  0  0  0  0  0  0  0  0  0
    9.0124   -1.2530   20.4929 C   0  0  0  0  0  0  0  0  0  0  0  0
    9.8277   -1.3073   21.6094 C   0  0  0  0  0  0  0  0  0  0  0  0
    9.9337   -0.2225   22.4722 C   0  0  0  0  0  0  0  0  0  0  0  0
    9.2064    0.9233   22.1656 C   0  0  0  0  0  0  0  0  0  0  0  0
    8.3843    0.9659   21.0533 C   0  0  0  0  0  0  0  0  0  0  0  0
   10.7829   -0.3052   23.6340 N   0  0  0  0  0  0  0  0  0  0  0  0
   12.1733    0.1352   23.5232 C   0  0  0  0  0  0  0  0  0  0  0  0
   13.1721   -0.9640   23.7856 C   0  0  0  0  0  0  0  0  0  0  0  0
   14.0052   -1.0450   24.9286 C   0  0  0  0  0  0  0  0  0  0  0  0
   14.8259   -2.1318   24.9550 C   0  0  0  0  0  0  0  0  0  0  0  0
   14.5767   -3.0710   23.5623 S   0  0  0  0  0  0  0  0  0  0  0  0
   13.3854   -2.0212   22.9541 C   0  0  0  0  0  0  0  0  0  0  0  0
   10.4321   -0.7497   24.8780 C   0  0  0  0  0  0  0  0  0  0  0  0
   11.2524   -0.7769   25.7870 O   0  0  0  0  0  0  0  0  0  0  0  0
    9.0099   -1.2337   25.1607 C   0  0  0  0  0  0  0  0  0  0  0  0
    8.9605   -2.6665   25.3791 N   0  0  0  0  0  0  0  0  0  0  0  0
    9.9103   -3.4768   24.8430 N   0  0  0  0  0  0  0  0  0  0  0  0
    9.6804   -4.7038   25.2157 N   0  0  0  0  0  0  0  0  0  0  0  0
    8.5783   -4.7010   26.0413 C   0  0  0  0  0  0  0  0  0  0  0  0
    7.9228   -5.7292   26.7170 C   0  0  0  0  0  0  0  0  0  0  0  0
    6.8194   -5.4176   27.4964 C   0  0  0  0  0  0  0  0  0  0  0  0
    6.3694   -4.1166   27.6085 C   0  0  0  0  0  0  0  0  0  0  0  0
    7.0061   -3.0812   26.9424 C   0  0  0  0  0  0  0  0  0  0  0  0
    8.1107   -3.3930   26.1586 C   0  0  0  0  0  0  0  0  0  0  0  0
  1  2  1  0
  2  3  1  0
  2  4  1  0
  4  5  1  0
  5  6  2  0
  6  7  1  0
  7  8  2  0
  8  9  1  0
  9 10  2  0
  8 11  1  0
 11 12  1  0
 12 13  1  0
 13 14  1  0
 14 15  2  0
 15 16  1  0
 16 17  1  0
 11 18  1  0
 18 19  2  0
 18 20  1  0
 20 21  1  0
 21 22  1  0
 22 23  2  0
 23 24  1  0
 24 25  2  0
 25 26  1  0
 26 27  2  0
 27 28  1  0
 28 29  2  0
 10  5  1  0
 17 13  2  0
 29 21  1  0
 29 24  1  0
M  END
