CVD-0003150|dock_bobby27042020.74|mol2|41|dock3
     RDKit          3D

 23 26  0  0  0  0  0  0  0  0999 V2000
   10.0667   -5.2306   24.7133 N   0  0  0  0  0  0  0  0  0  0  0  0
    8.9155   -5.7247   25.4692 C   0  0  0  0  0  0  0  0  0  0  0  0
    7.6339   -5.0045   25.1151 C   0  0  0  0  0  0  0  0  0  0  0  0
    7.3142   -5.1378   23.6919 N   0  0  0  0  0  0  0  0  0  0  0  0
    6.8258   -4.1984   22.8651 C   0  0  0  0  0  0  0  0  0  0  0  0
    6.7135   -4.7647   21.6084 C   0  0  0  0  0  0  0  0  0  0  0  0
    7.1710   -6.0820   21.7991 C   0  0  0  0  0  0  0  0  0  0  0  0
    7.5458   -6.3088   23.0469 N   0  0  0  0  0  0  0  0  0  0  0  0
    6.1875   -4.0369   20.4012 C   0  0  0  0  0  0  0  0  0  0  0  0
    5.5029   -4.7093   19.6388 O   0  0  0  0  0  0  0  0  0  0  0  0
    6.4307   -2.7266   20.1097 N   0  0  0  0  0  0  0  0  0  0  0  0
    5.6949   -1.9619   19.0801 C   0  0  0  0  0  0  0  0  0  0  0  0
    6.0352   -0.5109   19.4374 C   0  0  0  0  0  0  0  0  0  0  0  0
    6.0647    0.4890   18.2687 C   0  0  0  0  0  0  0  0  0  0  0  0
    5.0994    1.3785   19.0819 C   0  0  0  0  0  0  0  0  0  0  0  0
    4.9968    0.3313   20.1984 C   0  0  0  0  0  0  0  0  0  0  0  0
    7.3159   -0.6197   20.2380 C   0  0  0  0  0  0  0  0  0  0  0  0
    8.2429    0.3543   20.5787 C   0  0  0  0  0  0  0  0  0  0  0  0
    9.3208   -0.0232   21.3514 C   0  0  0  0  0  0  0  0  0  0  0  0
   10.5770    1.2997   21.8804 Br  0  0  0  0  0  0  0  0  0  0  0  0
    9.4923   -1.3223   21.7832 C   0  0  0  0  0  0  0  0  0  0  0  0
    8.5649   -2.2924   21.4411 C   0  0  0  0  0  0  0  0  0  0  0  0
    7.4668   -1.9382   20.6614 C   0  0  0  0  0  0  0  0  0  0  0  0
  1  2  1  0
  2  3  1  0
  3  4  1  0
  4  5  1  0
  5  6  2  0
  6  7  1  0
  7  8  2  0
  6  9  1  0
  9 10  2  0
  9 11  1  0
 11 12  1  0
 12 13  1  0
 13 14  1  0
 14 15  1  0
 15 16  1  0
 13 17  1  0
 17 18  2  0
 18 19  1  0
 19 20  1  0
 19 21  2  0
 21 22  1  0
 22 23  2  0
  8  4  1  0
 23 11  1  0
 16 13  1  0
 23 17  1  0
M  END
