CVD-0000855|dock_bobby27042020.54|mol2|31|dock3
     RDKit          3D

 18 18  0  0  0  0  0  0  0  0999 V2000
   13.3923    4.2332   22.3634 C   0  0  0  0  0  0  0  0  0  0  0  0
   12.6334    3.0327   22.0640 N   0  0  0  0  0  0  0  0  0  0  0  0
   12.8500    1.8830   22.6879 C   0  0  0  0  0  0  0  0  0  0  0  0
   13.7093    1.7408   23.5685 O   0  0  0  0  0  0  0  0  0  0  0  0
   11.9932    0.9240   22.2066 N   0  0  0  0  0  0  0  0  0  0  0  0
   12.0513   -0.4940   22.8638 S   0  0  0  0  0  0  0  0  0  0  0  0
   13.3478   -1.2963   21.9892 C   0  0  0  0  0  0  0  0  0  0  0  0
   12.2785   -0.6163   24.2879 O   0  0  0  0  0  0  0  0  0  0  0  0
   10.5894   -1.3833   22.4566 C   0  0  0  0  0  0  0  0  0  0  0  0
    9.7523   -0.9148   21.4728 C   0  0  0  0  0  0  0  0  0  0  0  0
    8.6347   -1.6772   21.1856 C   0  0  0  0  0  0  0  0  0  0  0  0
    8.4004   -2.8614   21.8748 C   0  0  0  0  0  0  0  0  0  0  0  0
    9.3261   -3.2318   22.8408 C   0  0  0  0  0  0  0  0  0  0  0  0
   10.4149   -2.5123   23.1352 N   0  0  0  0  0  0  0  0  0  0  0  0
    7.1936   -3.6923   21.5747 C   0  0  0  0  0  0  0  0  0  0  0  0
    6.2213   -3.2597   20.9787 O   0  0  0  0  0  0  0  0  0  0  0  0
    7.2929   -4.9424   22.0231 O   0  0  0  0  0  0  0  0  0  0  0  0
    6.2136   -5.8326   21.6528 C   0  0  0  0  0  0  0  0  0  0  0  0
  1  2  1  0
  2  3  1  0
  3  4  2  0
  3  5  1  0
  5  6  2  0
  6  7  1  0
  6  8  2  0
  6  9  1  0
  9 10  2  0
 10 11  1  0
 11 12  2  0
 12 13  1  0
 13 14  2  0
 12 15  1  0
 15 16  2  0
 15 17  1  0
 17 18  1  0
 14  9  1  0
M  END
