CVD-0001579|dock_bobby27042020.66|mol2|38|dock3
     RDKit          3D

 20 21  0  0  0  0  0  0  0  0999 V2000
   13.9706   -2.3847   20.3787 C   0  0  0  0  0  0  0  0  0  0  0  0
   13.2716   -2.2209   21.6963 C   0  0  0  0  0  0  0  0  0  0  0  0
   13.8610   -2.3516   22.7646 O   0  0  0  0  0  0  0  0  0  0  0  0
   11.9681   -1.9413   21.6390 N   0  0  0  0  0  0  0  0  0  0  0  0
   11.1488   -1.7706   22.8303 C   0  0  0  0  0  0  0  0  0  0  0  0
   11.6325   -0.6188   23.6887 C   0  0  0  0  0  0  0  0  0  0  0  0
   10.7060    0.5613   23.6628 C   0  0  0  0  0  0  0  0  0  0  0  0
    9.4082    0.6060   24.0797 C   0  0  0  0  0  0  0  0  0  0  0  0
    8.8925    1.8603   23.8969 N   0  0  0  0  0  0  0  0  0  0  0  0
    9.8628    2.6634   23.3496 C   0  0  0  0  0  0  0  0  0  0  0  0
    9.8411    4.0030   22.9793 C   0  0  0  0  0  0  0  0  0  0  0  0
   10.9823    4.5730   22.4411 C   0  0  0  0  0  0  0  0  0  0  0  0
   12.1295    3.8070   22.2773 C   0  0  0  0  0  0  0  0  0  0  0  0
   13.3198    4.3622   21.7269 O   0  0  0  0  0  0  0  0  0  0  0  0
   14.1556    5.4728   22.4969 S   0  0  0  0  0  0  0  0  0  0  0  0
   13.1934    6.3557   23.2603 O   0  0  0  0  0  0  0  0  0  0  0  0
   15.0259    4.7874   23.4205 O   0  0  0  0  0  0  0  0  0  0  0  0
   14.8473    6.2531   21.5004 O   0  0  0  0  0  0  0  0  0  0  0  0
   12.1582    2.4699   22.6445 C   0  0  0  0  0  0  0  0  0  0  0  0
   11.0192    1.8789   23.1880 C   0  0  0  0  0  0  0  0  0  0  0  0
  1  2  1  0
  2  3  2  0
  2  4  1  0
  4  5  1  0
  5  6  1  0
  6  7  1  0
  7  8  2  0
  8  9  1  0
  9 10  1  0
 10 11  2  0
 11 12  1  0
 12 13  2  0
 13 14  1  0
 14 15  1  0
 15 16  1  0
 15 17  2  0
 15 18  2  0
 13 19  1  0
 19 20  2  0
 20  7  1  0
 20 10  1  0
M  END
