CVD-0002378|dock_bobby27042020.91|mol2|34|dock2
     RDKit          3D

 38 42  0  0  0  0  0  0  0  0999 V2000
    5.7974   -4.0161   21.7995 C   0  0  0  0  0  0  0  0  0  0  0  0
    6.6503   -4.0342   20.6239 N   0  0  0  0  0  0  0  0  0  0  0  0
    7.2355   -2.8026   20.3230 N   0  0  0  0  0  0  0  0  0  0  0  0
    8.3325   -2.2968   21.1030 C   0  0  0  0  0  0  0  0  0  0  0  0
    8.9601   -1.0568   20.8406 C   0  0  0  0  0  0  0  0  0  0  0  0
    9.9587   -0.8695   21.7751 C   0  0  0  0  0  0  0  0  0  0  0  0
   10.8554    0.3084   21.8588 C   0  0  0  0  0  0  0  0  0  0  0  0
   12.2211    0.0543   21.9987 C   0  0  0  0  0  0  0  0  0  0  0  0
   13.1283    1.0910   22.1398 C   0  0  0  0  0  0  0  0  0  0  0  0
   12.6973    2.3988   22.1389 C   0  0  0  0  0  0  0  0  0  0  0  0
   11.3552    2.6842   21.9635 C   0  0  0  0  0  0  0  0  0  0  0  0
   10.4741    1.6417   21.7977 C   0  0  0  0  0  0  0  0  0  0  0  0
    9.1874    1.9669   21.5475 F   0  0  0  0  0  0  0  0  0  0  0  0
    9.9455   -2.0260   22.5999 N   0  0  0  0  0  0  0  0  0  0  0  0
    8.9356   -2.8795   22.1707 C   0  0  0  0  0  0  0  0  0  0  0  0
   10.9125   -2.4950   23.9126 S   0  0  0  0  0  0  0  0  0  0  0  0
   11.9865   -3.2409   23.3340 O   0  0  0  0  0  0  0  0  0  0  0  0
   11.2097   -1.3259   24.6800 O   0  0  0  0  0  0  0  0  0  0  0  0
    9.9444   -3.6166   24.8627 C   0  0  0  0  0  0  0  0  0  0  0  0
    8.6837   -3.2536   25.3046 C   0  0  0  0  0  0  0  0  0  0  0  0
    7.9554   -4.1686   26.0452 C   0  0  0  0  0  0  0  0  0  0  0  0
    8.5124   -5.3991   26.3108 C   0  0  0  0  0  0  0  0  0  0  0  0
    9.7249   -5.7627   25.8905 N   0  0  0  0  0  0  0  0  0  0  0  0
   10.4225   -4.8749   25.1758 C   0  0  0  0  0  0  0  0  0  0  0  0
    6.6193   -1.9415   18.9960 S   0  0  0  0  0  0  0  0  0  0  0  0
    7.7614   -1.4644   18.2800 O   0  0  0  0  0  0  0  0  0  0  0  0
    5.6832   -2.8190   18.3648 O   0  0  0  0  0  0  0  0  0  0  0  0
    5.7446   -0.5587   19.6429 C   0  0  0  0  0  0  0  0  0  0  0  0
    4.9391    0.1914   18.8044 C   0  0  0  0  0  0  0  0  0  0  0  0
    4.2586    1.2731   19.3251 C   0  0  0  0  0  0  0  0  0  0  0  0
    4.3670    1.6201   20.6667 C   0  0  0  0  0  0  0  0  0  0  0  0
    3.5905    2.7854   21.2300 C   0  0  0  0  0  0  0  0  0  0  0  0
    4.2683    3.3460   22.4629 C   0  0  0  0  0  0  0  0  0  0  0  0
    4.5443    2.2338   23.4590 C   0  0  0  0  0  0  0  0  0  0  0  0
    5.3653    1.1983   22.8431 N   0  0  0  0  0  0  0  0  0  0  0  0
    6.2240    0.4179   23.7263 C   0  0  0  0  0  0  0  0  0  0  0  0
    5.1908    0.8500   21.5161 C   0  0  0  0  0  0  0  0  0  0  0  0
    5.8774   -0.2431   20.9864 C   0  0  0  0  0  0  0  0  0  0  0  0
  1  2  1  0
  2  3  1  0
  3  4  1  0
  4  5  1  0
  5  6  2  0
  6  7  1  0
  7  8  2  0
  8  9  1  0
  9 10  2  0
 10 11  1  0
 11 12  2  0
 12 13  1  0
  6 14  1  0
 14 15  1  0
 14 16  1  0
 16 17  2  0
 16 18  2  0
 16 19  1  0
 19 20  2  0
 20 21  1  0
 21 22  2  0
 22 23  1  0
 23 24  2  0
  3 25  1  0
 25 26  2  0
 25 27  2  0
 25 28  1  0
 28 29  2  0
 29 30  1  0
 30 31  2  0
 31 32  1  0
 32 33  1  0
 33 34  1  0
 34 35  1  0
 35 36  1  0
 35 37  1  0
 37 38  2  0
 15  4  2  0
 24 19  1  0
 38 28  1  0
 12  7  1  0
 37 31  1  0
M  END
