CVD-0001387|dock_bobby27042020.67|mol2|19|dock3
     RDKit          3D

 14 15  0  0  0  0  0  0  0  0999 V2000
   13.4692    5.1371   21.4646 C   0  0  0  0  0  0  0  0  0  0  0  0
   13.5396    4.4970   23.0934 S   0  0  0  0  0  0  0  0  0  0  0  0
   14.8775    4.6562   23.5734 O   0  0  0  0  0  0  0  0  0  0  0  0
   12.4704    5.0668   23.8539 O   0  0  0  0  0  0  0  0  0  0  0  0
   13.2628    2.8949   22.9854 N   0  0  0  0  0  0  0  0  0  0  0  0
   12.0147    2.2885   22.6523 C   0  0  0  0  0  0  0  0  0  0  0  0
   10.8950    3.0692   22.3843 C   0  0  0  0  0  0  0  0  0  0  0  0
    9.7043    2.5509   22.0676 N   0  0  0  0  0  0  0  0  0  0  0  0
    9.6037    1.2233   22.0103 C   0  0  0  0  0  0  0  0  0  0  0  0
   10.6542    0.3643   22.2587 C   0  0  0  0  0  0  0  0  0  0  0  0
   11.8988    0.8933   22.5902 C   0  0  0  0  0  0  0  0  0  0  0  0
   13.0534   -0.0533   22.8615 C   0  0  0  0  0  0  0  0  0  0  0  0
   13.3155   -0.0979   24.3257 C   0  0  0  0  0  0  0  0  0  0  0  0
   12.8205   -1.3086   23.6394 C   0  0  0  0  0  0  0  0  0  0  0  0
  1  2  1  0
  2  3  2  0
  2  4  2  0
  2  5  1  0
  5  6  1  0
  6  7  2  0
  7  8  1  0
  8  9  2  0
  9 10  1  0
 10 11  2  0
 11 12  1  0
 12 13  1  0
 13 14  1  0
 11  6  1  0
 14 12  1  0
M  END
