CVD-0002718|dock_bobby27042020.90|mol2|23|dock1
     RDKit          3D

 19 20  0  0  0  0  0  0  0  0999 V2000
    7.7289    1.6529   22.4914 C   0  0  0  0  0  0  0  0  0  0  0  0
    8.1091    0.7615   23.6633 C   0  0  0  0  0  0  0  0  0  0  0  0
    8.7271    1.5927   24.7724 C   0  0  0  0  0  0  0  0  0  0  0  0
    9.9912    2.1817   24.3208 N   0  0  0  0  0  0  0  0  0  0  0  0
    9.8355    3.1336   23.2113 C   0  0  0  0  0  0  0  0  0  0  0  0
   11.0610    3.9824   22.9707 C   0  0  0  0  0  0  0  0  0  0  0  0
   11.9098    3.7164   21.9079 C   0  0  0  0  0  0  0  0  0  0  0  0
   13.0354    4.4933   21.6897 C   0  0  0  0  0  0  0  0  0  0  0  0
   13.3285    5.5499   22.5352 C   0  0  0  0  0  0  0  0  0  0  0  0
   12.4820    5.8089   23.5908 C   0  0  0  0  0  0  0  0  0  0  0  0
   12.8372    7.1339   24.6634 Cl  0  0  0  0  0  0  0  0  0  0  0  0
   11.3578    5.0419   23.8181 C   0  0  0  0  0  0  0  0  0  0  0  0
   10.9119    1.1093   23.9525 C   0  0  0  0  0  0  0  0  0  0  0  0
   10.3311    0.2620   22.8351 C   0  0  0  0  0  0  0  0  0  0  0  0
    9.0339   -0.2910   23.2369 N   0  0  0  0  0  0  0  0  0  0  0  0
    8.6133   -1.5768   23.2727 C   0  0  0  0  0  0  0  0  0  0  0  0
    7.4832   -1.8618   23.6489 O   0  0  0  0  0  0  0  0  0  0  0  0
    9.5734   -2.6640   22.8298 C   0  0  0  0  0  0  0  0  0  0  0  0
    8.7971   -4.2513   22.9015 Cl  0  0  0  0  0  0  0  0  0  0  0  0
  1  2  1  0
  2  3  1  0
  3  4  1  0
  4  5  1  0
  5  6  1  0
  6  7  2  0
  7  8  1  0
  8  9  2  0
  9 10  1  0
 10 11  1  0
 10 12  2  0
  4 13  1  0
 13 14  1  0
 14 15  1  0
 15 16  1  0
 16 17  2  0
 16 18  1  0
 18 19  1  0
 15  2  1  0
 12  6  1  0
M  END
