CVD-0000111|dock_bobby27042020.71|mol2|24|dock3
     RDKit          3D

 18 20  0  0  0  0  0  0  0  0999 V2000
    5.6332    3.0665   20.9084 O   0  0  0  0  0  0  0  0  0  0  0  0
    6.3476    2.0065   20.4313 C   0  0  0  0  0  0  0  0  0  0  0  0
    6.0028    1.4436   19.2137 C   0  0  0  0  0  0  0  0  0  0  0  0
    6.7407    0.3736   18.7358 C   0  0  0  0  0  0  0  0  0  0  0  0
    6.4093   -0.1927   17.5396 O   0  0  0  0  0  0  0  0  0  0  0  0
    7.8140   -0.1282   19.4572 C   0  0  0  0  0  0  0  0  0  0  0  0
    8.1510    0.4302   20.6894 C   0  0  0  0  0  0  0  0  0  0  0  0
    7.4077    1.5067   21.1736 C   0  0  0  0  0  0  0  0  0  0  0  0
    9.2504   -0.0817   21.4593 N   0  0  0  0  0  0  0  0  0  0  0  0
   10.3988    1.1539   22.3011 Se  0  0  0  0  0  2  0  0  0  0  0  0
   10.8296   -0.3317   23.4698 C   0  0  0  0  0  0  0  0  0  0  0  0
   12.1755   -0.1687   24.1377 C   0  0  0  0  0  0  0  0  0  0  0  0
   13.2999   -0.5261   23.5196 C   0  0  0  0  0  0  0  0  0  0  0  0
   13.2706   -1.0887   22.2285 C   0  0  0  0  0  0  0  0  0  0  0  0
   12.1349   -1.5523   21.7104 C   0  0  0  0  0  0  0  0  0  0  0  0
   10.8495   -1.5120   22.4912 C   0  0  0  0  0  0  0  0  0  0  0  0
    9.5733   -1.3934   21.6717 C   0  0  0  0  0  0  0  0  0  0  0  0
    8.9343   -2.3478   21.2724 O   0  0  0  0  0  0  0  0  0  0  0  0
  1  2  1  0
  2  3  2  0
  3  4  1  0
  4  5  1  0
  4  6  2  0
  6  7  1  0
  7  8  2  0
  7  9  1  0
  9 10  1  0
 10 11  1  0
 11 12  1  0
 12 13  2  0
 13 14  1  0
 14 15  2  0
 15 16  1  0
 16 17  1  0
 17 18  2  0
  8  2  1  0
 17  9  1  0
 16 11  1  0
M  END
