CVD-0002931|dock_bobby27042020.89|mol2|33|dock2
     RDKit          3D

 19 21  0  0  0  0  0  0  0  0999 V2000
   13.9598   -1.1747   25.3828 C   0  0  0  0  0  0  0  0  0  0  0  0
   13.4109   -1.0352   23.9930 C   0  0  0  0  0  0  0  0  0  0  0  0
   14.1357   -1.1842   23.0152 O   0  0  0  0  0  0  0  0  0  0  0  0
   12.0922   -0.7554   23.8517 N   0  0  0  0  0  0  0  0  0  0  0  0
   11.1994   -0.6118   25.0088 C   0  0  0  0  0  0  0  0  0  0  0  0
    9.7479   -0.7563   24.6219 C   0  0  0  0  0  0  0  0  0  0  0  0
    9.6045   -1.8799   23.6868 N   0  0  0  0  0  0  0  0  0  0  0  0
   10.2264   -1.5533   22.4075 C   0  0  0  0  0  0  0  0  0  0  0  0
    9.2966   -0.7551   21.6510 N   0  0  0  0  0  0  0  0  0  0  0  0
    9.6089    0.5593   21.6433 C   0  0  0  0  0  0  0  0  0  0  0  0
    8.9117    1.4454   21.1646 O   0  0  0  0  0  0  0  0  0  0  0  0
   10.8440    0.7117   22.2627 N   0  0  0  0  0  0  0  0  0  0  0  0
   11.4464   -0.6029   22.5389 C   0  0  0  0  0  0  0  0  0  0  0  0
   11.5155    1.9507   22.5167 C   0  0  0  0  0  0  0  0  0  0  0  0
   10.7791    3.1118   22.7024 C   0  0  0  0  0  0  0  0  0  0  0  0
   11.4330    4.3106   22.9250 C   0  0  0  0  0  0  0  0  0  0  0  0
   12.8066    4.3095   22.9811 C   0  0  0  0  0  0  0  0  0  0  0  0
   13.5385    3.2063   22.8303 N   0  0  0  0  0  0  0  0  0  0  0  0
   12.8962    2.0588   22.5899 C   0  0  0  0  0  0  0  0  0  0  0  0
  1  2  1  0
  2  3  2  0
  2  4  1  0
  4  5  1  0
  5  6  1  0
  6  7  1  0
  7  8  1  0
  8  9  1  0
  9 10  1  0
 10 11  2  0
 10 12  1  0
 12 13  1  0
 12 14  1  0
 14 15  2  0
 15 16  1  0
 16 17  2  0
 17 18  1  0
 18 19  2  0
 13  4  1  0
 19 14  1  0
 13  8  1  0
M  END
