CVD-0001576|dock_bobby27042020.9|mol2|18|dock3
     RDKit          3D

 22 23  0  0  0  0  0  0  0  0999 V2000
    7.1515    4.2330   22.0417 C   0  0  0  0  0  0  0  0  0  0  0  0
    6.6736    3.0354   21.4328 O   0  0  0  0  0  0  0  0  0  0  0  0
    7.5369    1.9844   21.2835 C   0  0  0  0  0  0  0  0  0  0  0  0
    8.6805    1.7807   22.0424 C   0  0  0  0  0  0  0  0  0  0  0  0
    9.4820    0.6669   21.7925 C   0  0  0  0  0  0  0  0  0  0  0  0
   10.6968    0.1732   22.3755 C   0  0  0  0  0  0  0  0  0  0  0  0
   11.4631    0.8035   23.5012 C   0  0  0  0  0  0  0  0  0  0  0  0
   12.7493    1.4636   23.0457 C   0  0  0  0  0  0  0  0  0  0  0  0
   12.4958    2.6740   22.2774 N   0  0  0  0  0  0  0  0  0  0  0  0
   13.4414    3.5843   22.0361 C   0  0  0  0  0  0  0  0  0  0  0  0
   13.0150    4.7855   21.2445 C   0  0  0  0  0  0  0  0  0  0  0  0
   14.5889    3.4537   22.4506 O   0  0  0  0  0  0  0  0  0  0  0  0
   11.0050   -0.9714   21.7028 C   0  0  0  0  0  0  0  0  0  0  0  0
   10.0653   -1.2237   20.7414 N   0  0  0  0  0  0  0  0  0  0  0  0
    9.1148   -0.2323   20.7724 C   0  0  0  0  0  0  0  0  0  0  0  0
    7.9704   -0.0301   20.0117 C   0  0  0  0  0  0  0  0  0  0  0  0
    7.1809    1.0802   20.2680 C   0  0  0  0  0  0  0  0  0  0  0  0
    5.9958    1.3487   19.5275 O   0  0  0  0  0  0  0  0  0  0  0  0
    5.8281    0.8503   18.0283 S   0  0  0  0  0  0  0  0  0  0  0  0
    4.7252    1.6534   17.3749 O   0  0  0  0  0  0  0  0  0  0  0  0
    5.4531   -0.5415   18.0800 O   0  0  0  0  0  0  0  0  0  0  0  0
    7.0783    1.1006   17.3539 O   0  0  0  0  0  0  0  0  0  0  0  0
  1  2  1  0
  2  3  1  0
  3  4  2  0
  4  5  1  0
  5  6  1  0
  6  7  1  0
  7  8  1  0
  8  9  1  0
  9 10  1  0
 10 11  1  0
 10 12  2  0
  6 13  2  0
 13 14  1  0
 14 15  1  0
 15 16  1  0
 16 17  2  0
 17 18  1  0
 18 19  1  0
 19 20  1  0
 19 21  2  0
 19 22  2  0
 17  3  1  0
 15  5  2  0
M  END
