CVD-0003148|dock_bobby27042020.3|mol2|8|dock1
     RDKit          3D

 24 27  0  0  0  0  0  0  0  0999 V2000
   14.1428   -2.8639   26.2978 N   0  0  0  0  0  0  0  0  0  0  0  0
   14.5203   -1.7488   25.4568 C   0  0  0  0  0  0  0  0  0  0  0  0
   13.8109   -1.6622   24.1281 C   0  0  0  0  0  0  0  0  0  0  0  0
   14.1001   -2.5622   23.1214 C   0  0  0  0  0  0  0  0  0  0  0  0
   13.5299   -2.5286   21.9144 N   0  0  0  0  0  0  0  0  0  0  0  0
   12.6506   -1.5519   21.6703 C   0  0  0  0  0  0  0  0  0  0  0  0
   12.2293   -0.6358   22.6266 C   0  0  0  0  0  0  0  0  0  0  0  0
   12.8574   -0.6891   23.8656 C   0  0  0  0  0  0  0  0  0  0  0  0
   11.1665    0.4001   22.4036 C   0  0  0  0  0  0  0  0  0  0  0  0
   11.4695    1.5655   22.5925 O   0  0  0  0  0  0  0  0  0  0  0  0
    9.9016    0.1099   22.0264 N   0  0  0  0  0  0  0  0  0  0  0  0
    8.7240    1.0129   22.0573 C   0  0  0  0  0  0  0  0  0  0  0  0
    7.4622    0.1251   21.9627 C   0  0  0  0  0  0  0  0  0  0  0  0
    7.9554   -1.3049   21.7474 C   0  0  0  0  0  0  0  0  0  0  0  0
    7.5144   -2.3390   22.7919 C   0  0  0  0  0  0  0  0  0  0  0  0
    8.7456   -3.2493   22.9306 C   0  0  0  0  0  0  0  0  0  0  0  0
    9.8475   -2.2259   22.9640 C   0  0  0  0  0  0  0  0  0  0  0  0
    9.4888   -1.2907   21.8199 C   0  0  0  0  0  0  0  0  0  0  0  0
    6.4915    0.5086   20.8621 C   0  0  0  0  0  0  0  0  0  0  0  0
    6.9032    0.5589   19.5376 C   0  0  0  0  0  0  0  0  0  0  0  0
    6.0158    0.9061   18.5325 C   0  0  0  0  0  0  0  0  0  0  0  0
    4.7059    1.2064   18.8387 C   0  0  0  0  0  0  0  0  0  0  0  0
    4.2825    1.1594   20.1496 C   0  0  0  0  0  0  0  0  0  0  0  0
    5.1692    0.8123   21.1551 C   0  0  0  0  0  0  0  0  0  0  0  0
  1  2  1  0
  2  3  1  0
  3  4  2  0
  4  5  1  0
  5  6  2  0
  6  7  1  0
  7  8  2  0
  7  9  1  0
  9 10  2  0
  9 11  1  0
 11 12  1  0
 12 13  1  0
 13 14  1  0
 14 15  1  0
 15 16  1  0
 16 17  1  0
 18 17  1  0
 13 19  1  0
 19 20  2  0
 20 21  1  0
 21 22  2  0
 22 23  1  0
 23 24  2  0
  8  3  1  0
 18 11  1  0
 24 19  1  0
 18 14  1  0
M  END
