CVD-0000442|dock_bobby27042020.98|mol2|30|dock1
     RDKit          3D

 30 32  0  0  0  0  0  0  0  0999 V2000
   12.4743    6.9071   27.1966 C   0  0  0  0  0  0  0  0  0  0  0  0
   11.6779    6.5843   25.9713 C   0  0  0  0  0  0  0  0  0  0  0  0
   12.4310    6.8602   24.7592 N   0  0  0  0  0  0  0  0  0  0  0  0
   12.5180    6.0000   23.7076 C   0  0  0  0  0  0  0  0  0  0  0  0
   13.5253    6.1248   22.7519 C   0  0  0  0  0  0  0  0  0  0  0  0
   13.5496    5.2144   21.7119 C   0  0  0  0  0  0  0  0  0  0  0  0
   12.5811    4.2413   21.6822 C   0  0  0  0  0  0  0  0  0  0  0  0
   12.5860    3.3410   20.6726 F   0  0  0  0  0  0  0  0  0  0  0  0
   11.6031    4.1568   22.6537 C   0  0  0  0  0  0  0  0  0  0  0  0
   10.5252    3.0999   22.6429 C   0  0  0  0  0  0  0  0  0  0  0  0
   11.0868    1.6933   22.6814 C   0  0  0  0  0  0  0  0  0  0  0  0
   12.2363    1.4144   23.4075 C   0  0  0  0  0  0  0  0  0  0  0  0
   12.7295    0.1270   23.4339 C   0  0  0  0  0  0  0  0  0  0  0  0
   14.1706   -0.2107   24.3513 Cl  0  0  0  0  0  0  0  0  0  0  0  0
   12.1107   -0.9004   22.7518 C   0  0  0  0  0  0  0  0  0  0  0  0
   10.9595   -0.6338   22.0180 C   0  0  0  0  0  0  0  0  0  0  0  0
   10.3469   -1.6666   21.3305 N   0  0  0  0  0  0  0  0  0  0  0  0
    9.0886   -2.2803   21.7152 C   0  0  0  0  0  0  0  0  0  0  0  0
    7.8786   -1.5134   21.2142 C   0  0  0  0  0  0  0  0  0  0  0  0
    6.8747   -1.4356   21.9146 O   0  0  0  0  0  0  0  0  0  0  0  0
    8.0215   -0.9656   19.9828 N   0  0  0  0  0  0  0  0  0  0  0  0
    7.1888   -0.0773   19.2583 C   0  0  0  0  0  0  0  0  0  0  0  0
    5.9753    0.4138   19.7297 C   0  0  0  0  0  0  0  0  0  0  0  0
    5.2325    1.2786   18.9456 C   0  0  0  0  0  0  0  0  0  0  0  0
    5.7620    1.6006   17.7206 C   0  0  0  0  0  0  0  0  0  0  0  0
    5.0701    2.4427   16.9207 F   0  0  0  0  0  0  0  0  0  0  0  0
    6.8854    1.1782   17.2232 N   0  0  0  0  0  0  0  0  0  0  0  0
    7.5885    0.3436   17.9959 C   0  0  0  0  0  0  0  0  0  0  0  0
   10.4553    0.6639   21.9958 C   0  0  0  0  0  0  0  0  0  0  0  0
   11.5826    5.0425   23.6594 N   0  0  0  0  0  0  0  0  0  0  0  0
  1  2  1  0
  2  3  1  0
  3  4  1  0
  4  5  2  0
  5  6  1  0
  6  7  2  0
  7  8  1  0
  7  9  1  0
  9 10  1  0
 10 11  1  0
 11 12  2  0
 12 13  1  0
 13 14  1  0
 13 15  2  0
 15 16  1  0
 16 17  1  0
 17 18  1  0
 18 19  1  0
 19 20  2  0
 19 21  1  0
 21 22  1  0
 22 23  2  0
 23 24  1  0
 24 25  2  0
 25 26  1  0
 25 27  1  0
 27 28  2  0
 16 29  2  0
  9 30  2  0
 30  4  1  0
 29 11  1  0
 28 22  1  0
M  END
