CVD-0002641|dock_bobby27042020.62|mol2|24|dock2
     RDKit          3D

 23 24  0  0  0  0  0  0  0  0999 V2000
    8.0591   -0.1987   18.6160 C   0  0  0  0  0  0  0  0  0  0  0  0
    7.7619   -0.8383   19.9404 C   0  0  0  0  0  0  0  0  0  0  0  0
    6.7032   -0.6223   20.5208 O   0  0  0  0  0  0  0  0  0  0  0  0
    8.7517   -1.6528   20.3906 N   0  0  0  0  0  0  0  0  0  0  0  0
    8.8413   -2.4335   21.5754 C   0  0  0  0  0  0  0  0  0  0  0  0
    7.7351   -3.0579   22.1495 C   0  0  0  0  0  0  0  0  0  0  0  0
    7.7906   -3.8166   23.2475 N   0  0  0  0  0  0  0  0  0  0  0  0
    8.9826   -4.0116   23.8038 C   0  0  0  0  0  0  0  0  0  0  0  0
   10.1440   -3.4384   23.3346 C   0  0  0  0  0  0  0  0  0  0  0  0
   10.0836   -2.6097   22.2165 C   0  0  0  0  0  0  0  0  0  0  0  0
   11.2247   -1.9798   21.7689 N   0  0  0  0  0  0  0  0  0  0  0  0
   12.3222   -1.5797   22.6284 C   0  0  0  0  0  0  0  0  0  0  0  0
   13.0608   -0.3749   22.0947 C   0  0  0  0  0  0  0  0  0  0  0  0
   14.1835   -0.4903   21.6186 O   0  0  0  0  0  0  0  0  0  0  0  0
   12.3850    1.0128   22.1543 C   0  0  0  0  0  0  0  0  0  0  0  0
   11.1771    1.1538   21.9687 O   0  0  0  0  0  0  0  0  0  0  0  0
   13.2364    2.0097   22.4219 N   0  0  0  0  0  0  0  0  0  0  0  0
   12.8206    3.4084   22.5267 C   0  0  0  0  0  0  0  0  0  0  0  0
   14.0414    4.3486   22.6001 C   0  0  0  0  0  0  0  0  0  0  0  0
   13.6405    5.8111   22.7831 C   0  0  0  0  0  0  0  0  0  0  0  0
   12.7299    5.9897   23.9911 C   0  0  0  0  0  0  0  0  0  0  0  0
   11.5109    5.0832   23.8986 C   0  0  0  0  0  0  0  0  0  0  0  0
   11.9202    3.6208   23.7556 C   0  0  0  0  0  0  0  0  0  0  0  0
  1  2  1  0
  2  3  2  0
  2  4  1  0
  4  5  1  0
  5  6  2  0
  6  7  1  0
  7  8  2  0
  8  9  1  0
  9 10  2  0
 10 11  1  0
 11 12  1  0
 12 13  1  0
 13 14  2  0
 13 15  1  0
 15 16  2  0
 15 17  1  0
 17 18  1  0
 18 19  1  0
 19 20  1  0
 20 21  1  0
 21 22  1  0
 22 23  1  0
 10  5  1  0
 23 18  1  0
M  END
