CVD-0000221|dock_bobby27042020.85|mol2|11|dock2
     RDKit          3D

 24 26  0  0  0  0  0  0  0  0999 V2000
   10.1551   -2.0129   21.2636 O   0  0  0  0  0  0  0  0  0  0  0  0
   10.2052   -0.8140   21.5210 C   0  0  0  0  0  0  0  0  0  0  0  0
   11.1956   -0.3439   22.3573 N   0  0  0  0  0  0  0  0  0  0  0  0
   12.2674   -0.9581   23.0567 C   0  0  0  0  0  0  0  0  0  0  0  0
   12.7508   -0.5428   24.2933 C   0  0  0  0  0  0  0  0  0  0  0  0
   13.8133   -1.2145   24.8727 C   0  0  0  0  0  0  0  0  0  0  0  0
   14.3509   -2.2956   24.2135 C   0  0  0  0  0  0  0  0  0  0  0  0
   13.8941   -2.7353   23.0412 N   0  0  0  0  0  0  0  0  0  0  0  0
   12.8748   -2.0719   22.4876 C   0  0  0  0  0  0  0  0  0  0  0  0
    9.3266    0.1123   21.0018 N   0  0  0  0  0  0  0  0  0  0  0  0
    8.2310   -0.0499   20.1150 C   0  0  0  0  0  0  0  0  0  0  0  0
    8.0664   -1.1459   19.2704 C   0  0  0  0  0  0  0  0  0  0  0  0
    6.9662   -1.2146   18.4317 C   0  0  0  0  0  0  0  0  0  0  0  0
    6.0212   -0.2039   18.4279 C   0  0  0  0  0  0  0  0  0  0  0  0
    6.1615    0.8918   19.2625 C   0  0  0  0  0  0  0  0  0  0  0  0
    5.1339    1.9975   19.2727 C   0  0  0  0  0  0  0  0  0  0  0  0
    3.9057    1.6842   20.1175 C   0  0  0  0  0  0  0  0  0  0  0  0
    2.7673    2.6754   19.9221 C   0  0  0  0  0  0  0  0  0  0  0  0
    1.5908    2.4431   20.8180 C   0  0  0  0  0  0  0  0  0  0  0  0
    0.3449    1.9662   20.5397 C   0  0  0  0  0  0  0  0  0  0  0  0
   -0.3918    1.9425   21.7477 C   0  0  0  0  0  0  0  0  0  0  0  0
    0.4273    2.4063   22.7295 C   0  0  0  0  0  0  0  0  0  0  0  0
    1.6334    2.7112   22.1659 N   0  0  0  0  0  0  0  0  0  0  0  0
    7.2679    0.9541   20.0993 C   0  0  0  0  0  0  0  0  0  0  0  0
  1  2  2  0
  2  3  1  0
  3  4  1  0
  4  5  2  0
  5  6  1  0
  6  7  2  0
  7  8  1  0
  8  9  2  0
  2 10  1  0
 10 11  1  0
 11 12  2  0
 12 13  1  0
 13 14  2  0
 14 15  1  0
 15 16  1  0
 16 17  1  0
 17 18  1  0
 18 19  1  0
 19 20  2  0
 20 21  1  0
 21 22  2  0
 22 23  1  0
 15 24  2  0
  9  4  1  0
 24 11  1  0
 23 19  1  0
M  END
