CVD-0002671|dock_bobby27042020.33|mol2|25|dock1
     RDKit          3D

 14 15  0  0  0  0  0  0  0  0999 V2000
   11.2665   -2.0295   21.4674 N   0  0  0  0  0  0  0  0  0  0  0  0
   10.1094   -2.3032   22.0562 C   0  0  0  0  0  0  0  0  0  0  0  0
   10.0011   -2.5563   23.2615 O   0  0  0  0  0  0  0  0  0  0  0  0
    8.9046   -2.2932   21.1773 C   0  0  0  0  0  0  0  0  0  0  0  0
    7.9880   -3.2421   21.5335 N   0  0  0  0  0  0  0  0  0  0  0  0
    6.8403   -3.3187   20.7887 C   0  0  0  0  0  0  0  0  0  0  0  0
    5.9170   -4.2306   21.1004 O   0  0  0  0  0  0  0  0  0  0  0  0
    6.6890   -2.4027   19.6982 C   0  0  0  0  0  0  0  0  0  0  0  0
    5.6776   -2.1719   18.7222 C   0  0  0  0  0  0  0  0  0  0  0  0
    6.1353   -1.1218   17.9269 C   0  0  0  0  0  0  0  0  0  0  0  0
    7.3288   -0.7468   18.3851 C   0  0  0  0  0  0  0  0  0  0  0  0
    8.1490    0.2171   17.9434 F   0  0  0  0  0  0  0  0  0  0  0  0
    7.7011   -1.4986   19.4589 N   0  0  0  0  0  0  0  0  0  0  0  0
    8.8640   -1.3999   20.1910 N   0  0  0  0  0  0  0  0  0  0  0  0
  1  2  1  0
  2  3  2  0
  2  4  1  0
  4  5  1  0
  5  6  2  0
  6  7  1  0
  6  8  1  0
  8  9  2  0
  9 10  1  0
 10 11  2  0
 11 12  1  0
 11 13  1  0
 13 14  1  0
 14  4  2  0
 13  8  1  0
M  END
