CVD-0001784|dock_bobby27042020.8|mol2|26|dock3
     RDKit          3D

 25 27  0  0  0  0  0  0  0  0999 V2000
    3.3961   -5.3900   23.0010 C   0  0  0  0  0  0  0  0  0  0  0  0
    4.8715   -5.0725   23.0211 C   0  0  0  0  0  0  0  0  0  0  0  0
    5.8173   -6.0801   22.9126 C   0  0  0  0  0  0  0  0  0  0  0  0
    7.1700   -5.7847   22.9277 C   0  0  0  0  0  0  0  0  0  0  0  0
    7.5908   -4.4720   23.0514 C   0  0  0  0  0  0  0  0  0  0  0  0
    6.6634   -3.4462   23.1612 C   0  0  0  0  0  0  0  0  0  0  0  0
    5.3134   -3.7634   23.1428 C   0  0  0  0  0  0  0  0  0  0  0  0
    7.1125   -2.0049   23.2933 C   0  0  0  0  0  0  0  0  0  0  0  0
    8.1725   -1.7986   24.3651 C   0  0  0  0  0  0  0  0  0  0  0  0
    9.4349   -2.3846   23.9534 N   0  0  0  0  0  0  0  0  0  0  0  0
    9.9228   -1.8184   22.6965 C   0  0  0  0  0  0  0  0  0  0  0  0
    8.9296   -2.0416   21.6000 C   0  0  0  0  0  0  0  0  0  0  0  0
    7.6441   -1.4905   22.0117 N   0  0  0  0  0  0  0  0  0  0  0  0
    6.7145   -1.0927   21.0134 C   0  0  0  0  0  0  0  0  0  0  0  0
    6.4657    0.2716   20.8416 C   0  0  0  0  0  0  0  0  0  0  0  0
    5.6029    0.7186   19.8540 C   0  0  0  0  0  0  0  0  0  0  0  0
    4.9691   -0.1680   19.0158 C   0  0  0  0  0  0  0  0  0  0  0  0
    5.1757   -1.5235   19.1762 C   0  0  0  0  0  0  0  0  0  0  0  0
    6.0211   -2.0007   20.1790 C   0  0  0  0  0  0  0  0  0  0  0  0
    6.1144   -3.4331   20.2989 C   0  0  0  0  0  0  0  0  0  0  0  0
    6.1606   -4.5687   20.4145 N   0  0  0  0  0  0  0  0  0  0  0  0
   10.0661   -3.4185   24.5546 C   0  0  0  0  0  0  0  0  0  0  0  0
   11.1356   -3.8303   24.1233 O   0  0  0  0  0  0  0  0  0  0  0  0
    9.4543   -4.0729   25.7759 C   0  0  0  0  0  0  0  0  0  0  0  0
   10.4138   -5.4879   26.3662 S   0  0  0  0  0  0  0  0  0  0  0  0
  1  2  1  0
  2  3  2  0
  3  4  1  0
  4  5  2  0
  5  6  1  0
  6  7  2  0
  6  8  1  0
  8  9  1  0
  9 10  1  0
 10 11  1  0
 11 12  1  0
 12 13  1  0
 13 14  1  0
 14 15  2  0
 15 16  1  0
 16 17  2  0
 17 18  1  0
 18 19  2  0
 19 20  1  0
 20 21  3  0
 10 22  1  0
 22 23  2  0
 22 24  1  0
 24 25  1  0
  7  2  1  0
 13  8  1  0
 19 14  1  0
M  END
