CVD-0000450|dock_bobby27042020.70|mol2|11|dock2
     RDKit          3D

 14 13  0  0  0  0  0  0  0  0999 V2000
   13.8097    4.3988   22.2342 C   0  0  0  0  0  0  0  0  0  0  0  0
   12.4122    3.9671   22.5740 C   0  0  0  0  0  0  0  0  0  0  0  0
   11.4164    5.0891   22.5886 C   0  0  0  0  0  0  0  0  0  0  0  0
   12.0613    2.7177   22.8424 C   0  0  0  0  0  0  0  0  0  0  0  0
   12.9009    1.4714   22.8827 C   0  0  0  0  0  0  0  0  0  0  0  0
   12.3035    0.2072   23.5441 C   0  0  0  0  0  0  0  0  0  0  0  0
   10.9645   -0.2001   22.9381 C   0  0  0  0  0  0  0  0  0  0  0  0
   10.5299   -1.5284   23.3276 O   0  0  0  0  0  0  0  0  0  0  0  0
   10.1511   -1.8103   24.5798 C   0  0  0  0  0  0  0  0  0  0  0  0
    9.6754   -3.2201   24.6910 C   0  0  0  0  0  0  0  0  0  0  0  0
   10.1657   -1.0203   25.4818 O   0  0  0  0  0  0  0  0  0  0  0  0
   13.2828   -0.9452   23.6824 C   0  0  0  0  0  0  0  0  0  0  0  0
   13.4429   -1.7901   22.4692 C   0  0  0  0  0  0  0  0  0  0  0  0
   13.9673   -1.2298   24.7874 C   0  0  0  0  0  0  0  0  0  0  0  0
  1  2  1  0
  2  3  1  0
  2  4  2  3
  4  5  1  0
  5  6  1  0
  6  7  1  0
  7  8  1  0
  8  9  1  0
  9 10  1  0
  9 11  2  0
  6 12  1  0
 12 13  1  0
 12 14  2  0
M  END
