CVD-0001083|dock_bobby27042020.39|mol2|23|dock1
     RDKit          3D

 22 23  0  0  0  0  0  0  0  0999 V2000
   14.2474    5.8670   22.0190 C   0  0  0  0  0  0  0  0  0  0  0  0
   13.2156    4.7993   22.0844 C   0  0  0  0  0  0  0  0  0  0  0  0
   13.8732    3.5480   22.3179 O   0  0  0  0  0  0  0  0  0  0  0  0
   13.1565    2.3815   22.4232 C   0  0  0  0  0  0  0  0  0  0  0  0
   11.7748    2.3665   22.3148 C   0  0  0  0  0  0  0  0  0  0  0  0
   11.0905    1.1689   22.4260 C   0  0  0  0  0  0  0  0  0  0  0  0
   11.7566   -0.0323   22.6497 C   0  0  0  0  0  0  0  0  0  0  0  0
   11.0229   -1.2978   22.7657 C   0  0  0  0  0  0  0  0  0  0  0  0
    9.8293   -1.5785   22.2500 C   0  0  0  0  0  0  0  0  0  0  0  0
    9.1978   -2.8975   22.4409 C   0  0  0  0  0  0  0  0  0  0  0  0
    9.5611   -3.5867   23.4005 O   0  0  0  0  0  0  0  0  0  0  0  0
    8.1472   -3.4056   21.5134 C   0  0  0  0  0  0  0  0  0  0  0  0
    7.4831   -4.6051   21.7928 C   0  0  0  0  0  0  0  0  0  0  0  0
    6.5084   -5.0903   20.9458 C   0  0  0  0  0  0  0  0  0  0  0  0
    5.7104   -6.5879   21.3372 Cl  0  0  0  0  0  0  0  0  0  0  0  0
    6.1516   -4.4185   19.7986 C   0  0  0  0  0  0  0  0  0  0  0  0
    6.7980   -3.2344   19.5102 C   0  0  0  0  0  0  0  0  0  0  0  0
    6.3145   -2.3013   17.9328 Br  0  0  0  0  0  0  0  0  0  0  0  0
    7.7893   -2.7012   20.3324 C   0  0  0  0  0  0  0  0  0  0  0  0
    8.3520   -1.5215   19.9344 O   0  0  0  0  0  0  0  0  0  0  0  0
   13.1432    0.0092   22.7595 C   0  0  0  0  0  0  0  0  0  0  0  0
   13.8398    1.1994   22.6490 C   0  0  0  0  0  0  0  0  0  0  0  0
  1  2  1  0
  2  3  1  0
  3  4  1  0
  4  5  2  0
  5  6  1  0
  6  7  2  0
  7  8  1  0
  8  9  2  0
  9 10  1  0
 10 11  2  0
 10 12  1  0
 12 13  2  0
 13 14  1  0
 14 15  1  0
 14 16  2  0
 16 17  1  0
 17 18  1  0
 17 19  2  0
 19 20  1  0
  7 21  1  0
 21 22  2  0
 22  4  1  0
 19 12  1  0
M  END
