CVD-0002829|dock_bobby27042020.61|mol2|43|dock2
     RDKit          3D

 28 31  0  0  0  0  0  0  0  0999 V2000
   14.6630   -2.4612   23.4825 Cl  0  0  0  0  0  0  0  0  0  0  0  0
   13.7181   -2.2998   24.9685 C   0  0  0  0  0  0  0  0  0  0  0  0
   12.8555   -1.0529   24.9433 C   0  0  0  0  0  0  0  0  0  0  0  0
   13.0091   -0.1632   25.7707 O   0  0  0  0  0  0  0  0  0  0  0  0
   11.9064   -0.9522   23.9868 N   0  0  0  0  0  0  0  0  0  0  0  0
   11.6096   -1.9528   22.9594 C   0  0  0  0  0  0  0  0  0  0  0  0
   10.1500   -2.3627   23.0247 C   0  0  0  0  0  0  0  0  0  0  0  0
    9.2859   -1.1908   22.8547 N   0  0  0  0  0  0  0  0  0  0  0  0
    7.8623   -1.5559   22.8358 C   0  0  0  0  0  0  0  0  0  0  0  0
    6.9366   -0.4445   22.3868 C   0  0  0  0  0  0  0  0  0  0  0  0
    6.0975    0.1592   23.2865 C   0  0  0  0  0  0  0  0  0  0  0  0
    5.2338    1.1721   22.9059 C   0  0  0  0  0  0  0  0  0  0  0  0
    5.1917    1.6024   21.6138 C   0  0  0  0  0  0  0  0  0  0  0  0
    6.0345    1.0218   20.6358 C   0  0  0  0  0  0  0  0  0  0  0  0
    6.0246    1.4373   19.2827 C   0  0  0  0  0  0  0  0  0  0  0  0
    6.8521    0.8562   18.3686 C   0  0  0  0  0  0  0  0  0  0  0  0
    7.7189   -0.1490   18.7422 C   0  0  0  0  0  0  0  0  0  0  0  0
    7.7659   -0.5839   20.0333 C   0  0  0  0  0  0  0  0  0  0  0  0
    6.9260   -0.0199   21.0288 C   0  0  0  0  0  0  0  0  0  0  0  0
    9.5656   -0.2337   23.9220 C   0  0  0  0  0  0  0  0  0  0  0  0
   11.0169    0.2087   23.8809 C   0  0  0  0  0  0  0  0  0  0  0  0
   11.3287    1.0171   22.6163 C   0  0  0  0  0  0  0  0  0  0  0  0
   10.9750    2.4789   22.7450 C   0  0  0  0  0  0  0  0  0  0  0  0
   11.8947    3.4005   23.2171 C   0  0  0  0  0  0  0  0  0  0  0  0
   11.5414    4.7340   23.3269 C   0  0  0  0  0  0  0  0  0  0  0  0
   10.2688    5.1064   22.9585 C   0  0  0  0  0  0  0  0  0  0  0  0
    9.3604    4.2435   22.5013 N   0  0  0  0  0  0  0  0  0  0  0  0
    9.7251    2.9613   22.4045 C   0  0  0  0  0  0  0  0  0  0  0  0
  1  2  1  0
  2  3  1  0
  3  4  2  0
  3  5  1  0
  5  6  1  0
  6  7  1  0
  7  8  1  0
  8  9  1  0
  9 10  1  0
 10 11  2  0
 11 12  1  0
 12 13  2  0
 13 14  1  0
 14 15  2  0
 15 16  1  0
 16 17  2  0
 17 18  1  0
 18 19  2  0
  8 20  1  0
 20 21  1  0
 21 22  1  0
 22 23  1  0
 23 24  2  0
 24 25  1  0
 25 26  2  0
 26 27  1  0
 27 28  2  0
 21  5  1  0
 28 23  1  0
 19 10  1  0
 19 14  1  0
M  END
