CVD-0004024|dock_bobby27042020.0|mol2|9|dock1
     RDKit          3D

 48 51  0  0  0  0  0  0  0  0999 V2000
    4.2350   -3.1535   29.2134 C   0  0  0  0  0  0  0  0  0  0  0  0
    5.1131   -4.1312   29.7680 O   0  0  0  0  0  0  0  0  0  0  0  0
    5.9586   -4.8469   28.9571 C   0  0  0  0  0  0  0  0  0  0  0  0
    6.2589   -4.4302   27.6672 C   0  0  0  0  0  0  0  0  0  0  0  0
    7.1201   -5.1829   26.8767 C   0  0  0  0  0  0  0  0  0  0  0  0
    7.3928   -4.7127   25.5680 N   0  0  0  0  0  0  0  0  0  0  0  0
    7.3684   -3.4613   25.0458 C   0  0  0  0  0  0  0  0  0  0  0  0
    7.0883   -2.4197   25.6358 O   0  0  0  0  0  0  0  0  0  0  0  0
    7.7442   -3.4382   23.5515 C   0  0  0  0  0  0  0  0  0  0  0  0
    8.3984   -4.3419   23.0604 O   0  0  0  0  0  0  0  0  0  0  0  0
    7.2761   -2.2414   22.7299 C   0  0  0  0  0  0  0  0  0  0  0  0
    6.7947   -2.6944   21.3495 C   0  0  0  0  0  0  0  0  0  0  0  0
    6.6895   -1.5820   20.2972 C   0  0  0  0  0  0  0  0  0  0  0  0
    5.8776   -0.3489   20.7412 C   0  0  0  0  0  0  0  0  0  0  0  0
    5.0619    0.0617   19.5222 C   0  0  0  0  0  0  0  0  0  0  0  0
    5.0813   -1.1313   18.6973 N   0  0  0  0  0  0  0  0  0  0  0  0
    5.9961   -2.0414   19.0413 C   0  0  0  0  0  0  0  0  0  0  0  0
    6.2050   -3.0968   18.4493 O   0  0  0  0  0  0  0  0  0  0  0  0
    8.3629   -1.2821   22.6208 N   0  0  0  0  0  0  0  0  0  0  0  0
    9.4275   -1.5131   21.8473 C   0  0  0  0  0  0  0  0  0  0  0  0
    9.5612   -2.5376   21.1831 O   0  0  0  0  0  0  0  0  0  0  0  0
   10.5001   -0.4282   21.8183 C   0  0  0  0  0  0  0  0  0  0  0  0
   11.4551   -0.6099   22.9988 C   0  0  0  0  0  0  0  0  0  0  0  0
   12.7149    0.2491   22.9493 C   0  0  0  0  0  0  0  0  0  0  0  0
   13.8452   -0.5152   22.2820 C   0  0  0  0  0  0  0  0  0  0  0  0
   13.1221    0.6647   24.3522 C   0  0  0  0  0  0  0  0  0  0  0  0
    9.8986    0.8944   21.8661 N   0  0  0  0  0  0  0  0  0  0  0  0
    9.1248    1.9415   21.5352 C   0  0  0  0  0  0  0  0  0  0  0  0
    8.3816    1.9358   20.5614 O   0  0  0  0  0  0  0  0  0  0  0  0
    9.2130    3.0291   22.3560 N   0  0  0  0  0  0  0  0  0  0  0  0
   10.1176    3.0262   23.5050 C   0  0  0  0  0  0  0  0  0  0  0  0
   11.3785    3.8306   23.2950 C   0  0  0  0  0  0  0  0  0  0  0  0
   11.9389    4.5651   24.3293 C   0  0  0  0  0  0  0  0  0  0  0  0
   13.0959    5.2997   24.1295 C   0  0  0  0  0  0  0  0  0  0  0  0
   13.7062    5.3086   22.8938 C   0  0  0  0  0  0  0  0  0  0  0  0
   13.1599    4.5826   21.8575 C   0  0  0  0  0  0  0  0  0  0  0  0
   12.0029    3.8482   22.0574 C   0  0  0  0  0  0  0  0  0  0  0  0
    8.4106    4.2057   22.1115 C   0  0  0  0  0  0  0  0  0  0  0  0
    6.9772    4.0317   22.5649 C   0  0  0  0  0  0  0  0  0  0  0  0
    6.1972    5.3108   22.2800 C   0  0  0  0  0  0  0  0  0  0  0  0
    6.9132    6.5121   22.8603 C   0  0  0  0  0  0  0  0  0  0  0  0
    8.3439    6.5298   22.3945 C   0  0  0  0  0  0  0  0  0  0  0  0
    9.0226    5.3167   22.7469 O   0  0  0  0  0  0  0  0  0  0  0  0
    7.6756   -6.3526   27.3890 C   0  0  0  0  0  0  0  0  0  0  0  0
    7.3692   -6.7587   28.6773 C   0  0  0  0  0  0  0  0  0  0  0  0
    7.9430   -7.9189   29.1345 O   0  0  0  0  0  0  0  0  0  0  0  0
    7.2836   -8.7093   30.1218 C   0  0  0  0  0  0  0  0  0  0  0  0
    6.5096   -6.0098   29.4693 C   0  0  0  0  0  0  0  0  0  0  0  0
  1  2  1  0
  2  3  1  0
  3  4  2  0
  4  5  1  0
  5  6  1  0
  6  7  1  0
  7  8  2  0
  7  9  1  0
  9 10  2  0
  9 11  1  0
 11 12  1  0
 13 12  1  0
 13 14  1  0
 14 15  1  0
 15 16  1  0
 16 17  1  0
 17 18  2  0
 11 19  1  0
 19 20  1  0
 20 21  2  0
 20 22  1  0
 22 23  1  0
 23 24  1  0
 24 25  1  0
 24 26  1  0
 22 27  1  0
 27 28  1  0
 28 29  2  0
 28 30  1  0
 30 31  1  0
 31 32  1  0
 32 33  2  0
 33 34  1  0
 34 35  2  0
 35 36  1  0
 36 37  2  0
 30 38  1  0
 38 39  1  0
 39 40  1  0
 40 41  1  0
 41 42  1  0
 42 43  1  0
  5 44  2  0
 44 45  1  0
 45 46  1  0
 46 47  1  0
 45 48  2  0
 48  3  1  0
 17 13  1  0
 37 32  1  0
 43 38  1  0
M  END
