CVD-0003000|dock_bobby27042020.61|mol2|18|dock3
     RDKit          3D

 15 16  0  0  0  0  0  0  0  0999 V2000
   14.1073    6.0370   21.5810 Cl  0  0  0  0  0  0  0  0  0  0  0  0
   13.0072    4.7926   22.1040 C   0  0  0  0  0  0  0  0  0  0  0  0
   11.6478    5.0137   22.0788 C   0  0  0  0  0  0  0  0  0  0  0  0
   10.7734    4.0846   22.4746 N   0  0  0  0  0  0  0  0  0  0  0  0
   11.2489    2.9101   22.8987 C   0  0  0  0  0  0  0  0  0  0  0  0
   12.5950    2.6166   22.9450 C   0  0  0  0  0  0  0  0  0  0  0  0
   13.0129    1.3487   23.4056 O   0  0  0  0  0  0  0  0  0  0  0  0
   12.6242    0.1772   22.8335 C   0  0  0  0  0  0  0  0  0  0  0  0
   11.7956    0.0283   21.9645 O   0  0  0  0  0  0  0  0  0  0  0  0
   13.3682   -0.9574   23.4369 C   0  0  0  0  0  0  0  0  0  0  0  0
   13.5430   -2.2419   23.0598 C   0  0  0  0  0  0  0  0  0  0  0  0
   14.3581   -2.8457   24.0467 C   0  0  0  0  0  0  0  0  0  0  0  0
   14.6256   -1.9108   24.9479 C   0  0  0  0  0  0  0  0  0  0  0  0
   14.0319   -0.7243   24.6097 O   0  0  0  0  0  0  0  0  0  0  0  0
   13.5040    3.5839   22.5445 C   0  0  0  0  0  0  0  0  0  0  0  0
  1  2  1  0
  2  3  2  0
  3  4  1  0
  4  5  2  0
  5  6  1  0
  6  7  1  0
  7  8  1  0
  8  9  2  0
  8 10  1  0
 10 11  2  0
 11 12  1  0
 12 13  2  0
 13 14  1  0
  6 15  2  0
 15  2  1  0
 14 10  1  0
M  END
