CVD-0002104|dock_bobby27042020.35|mol2|36|dock3
     RDKit          3D

 31 35  0  0  0  0  0  0  0  0999 V2000
   13.7709   -1.5502   23.1561 N   0  0  0  0  0  0  0  0  0  0  0  0
   12.3252   -1.4707   23.4624 C   0  0  0  0  0  0  0  0  0  0  0  0
   11.9870   -0.3365   24.4219 C   0  0  0  0  0  0  0  0  0  0  0  0
   10.7648   -0.6758   25.0662 O   0  0  0  0  0  0  0  0  0  0  0  0
    9.6047   -0.4943   24.2280 C   0  0  0  0  0  0  0  0  0  0  0  0
    9.4229    1.0382   24.0630 C   0  0  0  0  0  0  0  0  0  0  0  0
   10.6842    1.5869   23.4210 C   0  0  0  0  0  0  0  0  0  0  0  0
   10.6672    2.7678   22.6637 C   0  0  0  0  0  0  0  0  0  0  0  0
    9.5044    3.4334   22.3886 O   0  0  0  0  0  0  0  0  0  0  0  0
   11.8564    3.3329   22.2067 C   0  0  0  0  0  0  0  0  0  0  0  0
   11.8043    4.4710   21.4670 O   0  0  0  0  0  0  0  0  0  0  0  0
   13.0751    2.7369   22.4930 C   0  0  0  0  0  0  0  0  0  0  0  0
   13.0995    1.5738   23.2381 C   0  0  0  0  0  0  0  0  0  0  0  0
   11.9220    0.9900   23.7060 C   0  0  0  0  0  0  0  0  0  0  0  0
    8.4507   -1.2197   24.9181 C   0  0  0  0  0  0  0  0  0  0  0  0
    8.8288   -2.6724   25.2489 C   0  0  0  0  0  0  0  0  0  0  0  0
    9.0140   -3.4864   23.9711 C   0  0  0  0  0  0  0  0  0  0  0  0
    7.7527   -3.4497   23.1112 C   0  0  0  0  0  0  0  0  0  0  0  0
    7.3138   -2.0271   22.8101 C   0  0  0  0  0  0  0  0  0  0  0  0
    7.1696   -1.1937   24.0883 C   0  0  0  0  0  0  0  0  0  0  0  0
    6.1298   -1.9696   21.9592 N   0  0  0  0  0  0  0  0  0  0  0  0
    5.8637   -0.9711   21.0702 C   0  0  0  0  0  0  0  0  0  0  0  0
    6.7766   -0.6730   20.0585 C   0  0  0  0  0  0  0  0  0  0  0  0
    6.4809    0.3300   19.1871 C   0  0  0  0  0  0  0  0  0  0  0  0
    5.2691    1.0457   19.3180 C   0  0  0  0  0  0  0  0  0  0  0  0
    4.8799    2.1012   18.4598 C   0  0  0  0  0  0  0  0  0  0  0  0
    3.6932    2.7448   18.6505 C   0  0  0  0  0  0  0  0  0  0  0  0
    2.8503    2.3817   19.6807 C   0  0  0  0  0  0  0  0  0  0  0  0
    3.1825    1.3707   20.5334 C   0  0  0  0  0  0  0  0  0  0  0  0
    4.4035    0.6748   20.3738 C   0  0  0  0  0  0  0  0  0  0  0  0
    4.7141   -0.3374   21.2439 N   0  0  0  0  0  0  0  0  0  0  0  0
  1  2  1  0
  2  3  1  0
  3  4  1  0
  4  5  1  0
  5  6  1  0
  6  7  1  0
  7  8  2  0
  8  9  1  0
  8 10  1  0
 10 11  1  0
 10 12  2  0
 12 13  1  0
 13 14  2  0
  5 15  1  0
 15 16  1  0
 16 17  1  0
 17 18  1  0
 18 19  1  0
 19 20  1  0
 19 21  1  0
 21 22  1  0
 22 23  2  0
 23 24  1  0
 24 25  2  0
 25 26  1  0
 26 27  2  0
 27 28  1  0
 28 29  2  0
 29 30  1  0
 30 31  2  0
 14  3  1  0
 20 15  1  0
 31 22  1  0
 14  7  1  0
 30 25  1  0
M  END
