CVD-0000313|dock_bobby27042020.42|mol2|7|dock1
     RDKit          3D

 22 23  0  0  0  0  0  0  0  0999 V2000
   13.5050   -0.0298   22.8362 C   0  0  0  0  0  0  0  0  0  0  0  0
   13.1131   -1.5038   21.9756 S   0  0  0  0  0  0  0  0  0  0  0  0
   13.9073   -1.5480   20.7868 O   0  0  0  0  0  0  0  0  0  0  0  0
   13.2027   -2.5935   22.8978 O   0  0  0  0  0  0  0  0  0  0  0  0
   11.5811   -1.4042   21.5136 N   0  0  0  0  0  0  0  0  0  0  0  0
   10.5344   -1.1742   22.5159 C   0  0  0  0  0  0  0  0  0  0  0  0
    9.2321   -1.9525   22.2744 C   0  0  0  0  0  0  0  0  0  0  0  0
    8.1582   -1.0188   21.7110 C   0  0  0  0  0  0  0  0  0  0  0  0
    7.2652   -0.5810   22.4304 O   0  0  0  0  0  0  0  0  0  0  0  0
    8.3013   -0.7570   20.3884 N   0  0  0  0  0  0  0  0  0  0  0  0
    7.5242    0.0377   19.5096 C   0  0  0  0  0  0  0  0  0  0  0  0
    6.5155    0.9002   19.9271 C   0  0  0  0  0  0  0  0  0  0  0  0
    5.8165    1.6316   18.9822 C   0  0  0  0  0  0  0  0  0  0  0  0
    6.1417    1.4830   17.6537 C   0  0  0  0  0  0  0  0  0  0  0  0
    7.1025    0.6653   17.2239 N   0  0  0  0  0  0  0  0  0  0  0  0
    7.7713   -0.0363   18.1436 C   0  0  0  0  0  0  0  0  0  0  0  0
    8.7179   -2.5749   23.5629 C   0  0  0  0  0  0  0  0  0  0  0  0
    8.3231   -3.9049   23.6002 C   0  0  0  0  0  0  0  0  0  0  0  0
    7.8577   -4.4723   24.7747 C   0  0  0  0  0  0  0  0  0  0  0  0
    7.7822   -3.7178   25.9258 C   0  0  0  0  0  0  0  0  0  0  0  0
    8.1723   -2.3958   25.9036 C   0  0  0  0  0  0  0  0  0  0  0  0
    8.6378   -1.8275   24.7296 C   0  0  0  0  0  0  0  0  0  0  0  0
  1  2  1  0
  2  3  2  0
  2  4  2  0
  2  5  1  0
  5  6  1  0
  7  6  1  0
  7  8  1  0
  8  9  2  0
  8 10  1  0
 10 11  1  0
 11 12  2  0
 12 13  1  0
 13 14  2  0
 14 15  1  0
 15 16  2  0
  7 17  1  0
 17 18  2  0
 18 19  1  0
 19 20  2  0
 20 21  1  0
 21 22  2  0
 16 11  1  0
 22 17  1  0
M  END
