CVD-0001089|dock_bobby27042020.53|mol2|44|dock1
     RDKit          3D

 22 23  0  0  0  0  0  0  0  0999 V2000
   12.4165    4.0629   21.9635 C   0  0  0  0  0  0  0  0  0  0  0  0
   13.0651    2.8213   22.4608 C   0  0  0  0  0  0  0  0  0  0  0  0
   12.3146    1.6951   21.9912 O   0  0  0  0  0  0  0  0  0  0  0  0
   12.6123    0.4352   22.4498 C   0  0  0  0  0  0  0  0  0  0  0  0
   13.8292    0.0663   23.0131 C   0  0  0  0  0  0  0  0  0  0  0  0
   14.0403   -1.2305   23.4529 C   0  0  0  0  0  0  0  0  0  0  0  0
   13.0468   -2.1783   23.3404 C   0  0  0  0  0  0  0  0  0  0  0  0
   11.8269   -1.8364   22.7851 C   0  0  0  0  0  0  0  0  0  0  0  0
   11.5847   -0.5296   22.3308 C   0  0  0  0  0  0  0  0  0  0  0  0
   10.2869   -0.1745   21.7432 C   0  0  0  0  0  0  0  0  0  0  0  0
    9.6100    0.9532   21.9406 C   0  0  0  0  0  0  0  0  0  0  0  0
    8.3078    1.1966   21.2935 C   0  0  0  0  0  0  0  0  0  0  0  0
    7.9199    2.3636   21.1687 O   0  0  0  0  0  0  0  0  0  0  0  0
    7.4266    0.1243   20.7546 C   0  0  0  0  0  0  0  0  0  0  0  0
    6.6946    0.4139   19.6002 C   0  0  0  0  0  0  0  0  0  0  0  0
    5.9244   -0.5524   18.9877 C   0  0  0  0  0  0  0  0  0  0  0  0
    5.0341   -0.1469   17.5471 Cl  0  0  0  0  0  0  0  0  0  0  0  0
    5.8474   -1.8319   19.4902 C   0  0  0  0  0  0  0  0  0  0  0  0
    6.5296   -2.1175   20.6556 C   0  0  0  0  0  0  0  0  0  0  0  0
    6.4199   -3.8738   21.3601 Br  0  0  0  0  0  0  0  0  0  0  0  0
    7.2886   -1.1648   21.3337 C   0  0  0  0  0  0  0  0  0  0  0  0
    7.8374   -1.5471   22.5235 O   0  0  0  0  0  0  0  0  0  0  0  0
  1  2  1  0
  2  3  1  0
  3  4  1  0
  4  5  2  0
  5  6  1  0
  6  7  2  0
  7  8  1  0
  8  9  2  0
  9 10  1  0
 10 11  2  0
 11 12  1  0
 12 13  2  0
 12 14  1  0
 14 15  2  0
 15 16  1  0
 16 17  1  0
 16 18  2  0
 18 19  1  0
 19 20  1  0
 19 21  2  0
 21 22  1  0
  9  4  1  0
 21 14  1  0
M  END
