CVD-0002635|dock_bobby27042020.48|mol2|1|dock1
     RDKit          3D

 24 25  0  0  0  0  0  0  0  0999 V2000
    5.6751   -2.6372   22.6205 C   0  0  0  0  0  0  0  0  0  0  0  0
    5.5365   -2.2068   21.1898 C   0  0  0  0  0  0  0  0  0  0  0  0
    5.2254   -3.0114   20.3185 O   0  0  0  0  0  0  0  0  0  0  0  0
    5.7692   -0.8830   20.9914 N   0  0  0  0  0  0  0  0  0  0  0  0
    5.7258   -0.0943   19.8086 C   0  0  0  0  0  0  0  0  0  0  0  0
    6.1837   -0.5266   18.5646 C   0  0  0  0  0  0  0  0  0  0  0  0
    6.1407    0.2177   17.4550 N   0  0  0  0  0  0  0  0  0  0  0  0
    5.6313    1.4432   17.5500 C   0  0  0  0  0  0  0  0  0  0  0  0
    5.1506    1.9727   18.7271 C   0  0  0  0  0  0  0  0  0  0  0  0
    5.1902    1.2038   19.8851 C   0  0  0  0  0  0  0  0  0  0  0  0
    4.6539    1.8273   21.1561 C   0  0  0  0  0  0  0  0  0  0  0  0
    5.5726    2.8730   21.7745 C   0  0  0  0  0  0  0  0  0  0  0  0
    6.8518    2.2855   22.3453 C   0  0  0  0  0  0  0  0  0  0  0  0
    7.8383    3.3420   22.8020 C   0  0  0  0  0  0  0  0  0  0  0  0
    9.2179    2.8925   22.6833 N   0  0  0  0  0  0  0  0  0  0  0  0
    9.6093    1.6797   23.1218 C   0  0  0  0  0  0  0  0  0  0  0  0
    8.8278    0.8889   23.6439 O   0  0  0  0  0  0  0  0  0  0  0  0
   10.9179    1.3913   22.9492 N   0  0  0  0  0  0  0  0  0  0  0  0
   11.5297    0.1573   23.4423 C   0  0  0  0  0  0  0  0  0  0  0  0
   11.1850   -1.0384   22.5308 C   0  0  0  0  0  0  0  0  0  0  0  0
   11.8688   -2.3289   22.9786 C   0  0  0  0  0  0  0  0  0  0  0  0
   13.3755   -2.1436   23.1039 C   0  0  0  0  0  0  0  0  0  0  0  0
   13.7109   -0.9827   24.0292 C   0  0  0  0  0  0  0  0  0  0  0  0
   13.0564    0.3099   23.5527 C   0  0  0  0  0  0  0  0  0  0  0  0
  1  2  1  0
  2  3  2  0
  2  4  1  0
  4  5  1  0
  5  6  2  0
  6  7  1  0
  7  8  2  0
  8  9  1  0
  9 10  2  0
 10 11  1  0
 11 12  1  0
 12 13  1  0
 13 14  1  0
 14 15  1  0
 15 16  1  0
 16 17  2  0
 16 18  1  0
 18 19  1  0
 19 20  1  0
 20 21  1  0
 21 22  1  0
 22 23  1  0
 23 24  1  0
 10  5  1  0
 24 19  1  0
M  END
