CVD-0002345|dock_bobby27042020.6|mol2|16|dock3
     RDKit          3D

 13 13  0  0  0  0  0  0  0  0999 V2000
   13.7415   -2.3995   22.6375 C   0  0  0  0  0  0  0  0  0  0  0  0
   12.7631   -1.2875   22.4334 C   0  0  0  0  0  0  0  0  0  0  0  0
   12.4190   -0.3216   23.3386 C   0  0  0  0  0  0  0  0  0  0  0  0
   12.9358   -0.2512   24.5645 N   0  0  0  0  0  0  0  0  0  0  0  0
   11.4137    0.7441   22.9983 C   0  0  0  0  0  0  0  0  0  0  0  0
   12.0213    2.1130   22.7913 C   0  0  0  0  0  0  0  0  0  0  0  0
   11.2279    3.2402   22.6549 C   0  0  0  0  0  0  0  0  0  0  0  0
   11.8049    4.4819   22.4629 C   0  0  0  0  0  0  0  0  0  0  0  0
   13.1933    4.5533   22.4120 C   0  0  0  0  0  0  0  0  0  0  0  0
   13.9906    3.4759   22.5400 N   0  0  0  0  0  0  0  0  0  0  0  0
   13.3903    2.2940   22.7241 C   0  0  0  0  0  0  0  0  0  0  0  0
   13.8586    5.8261   22.2135 C   0  0  0  0  0  0  0  0  0  0  0  0
   14.4003    6.8143   22.0267 N   0  0  0  0  0  0  0  0  0  0  0  0
  1  2  1  0
  2  3  2  0
  3  4  1  0
  3  5  1  0
  5  6  1  0
  6  7  2  0
  7  8  1  0
  8  9  2  0
  9 10  1  0
 10 11  2  0
  9 12  1  0
 12 13  3  0
 11  6  1  0
M  END
