CVD-0001526|dock_bobby27042020.37|mol2|49|dock2
     RDKit          3D

 31 35  0  0  0  0  0  0  0  0999 V2000
   12.4042    2.9173   21.6782 O   0  0  0  0  0  0  0  0  0  0  0  0
   12.2227    2.7168   22.8717 C   0  0  0  0  0  0  0  0  0  0  0  0
   12.4505    3.6830   23.8232 N   0  0  0  0  0  0  0  0  0  0  0  0
   12.8798    5.0298   23.6874 C   0  0  0  0  0  0  0  0  0  0  0  0
   13.4281    5.5755   22.5269 C   0  0  0  0  0  0  0  0  0  0  0  0
   13.8154    6.9053   22.4958 C   0  0  0  0  0  0  0  0  0  0  0  0
   13.6665    7.7058   23.6064 C   0  0  0  0  0  0  0  0  0  0  0  0
   13.1278    7.1780   24.7581 C   0  0  0  0  0  0  0  0  0  0  0  0
   12.7367    5.8507   24.8008 C   0  0  0  0  0  0  0  0  0  0  0  0
   11.7734    1.4800   23.2582 N   0  0  0  0  0  0  0  0  0  0  0  0
   11.1333    1.1661   24.5328 C   0  0  0  0  0  0  0  0  0  0  0  0
    9.9029    0.3144   24.2979 C   0  0  0  0  0  0  0  0  0  0  0  0
   10.2693   -0.9611   23.5492 C   0  0  0  0  0  0  0  0  0  0  0  0
   10.9848   -0.6021   22.2488 C   0  0  0  0  0  0  0  0  0  0  0  0
   12.1913    0.2878   22.5283 C   0  0  0  0  0  0  0  0  0  0  0  0
    9.0671   -1.7812   23.2821 N   0  0  0  0  0  0  0  0  0  0  0  0
    8.3345   -1.3143   22.0966 C   0  0  0  0  0  0  0  0  0  0  0  0
    6.9830   -2.0106   22.0047 C   0  0  0  0  0  0  0  0  0  0  0  0
    6.3396   -1.6817   20.6635 C   0  0  0  0  0  0  0  0  0  0  0  0
    5.5461   -0.5527   20.5147 C   0  0  0  0  0  0  0  0  0  0  0  0
    4.9593   -0.2559   19.2958 C   0  0  0  0  0  0  0  0  0  0  0  0
    5.1577   -1.0839   18.2118 C   0  0  0  0  0  0  0  0  0  0  0  0
    5.9426   -2.2091   18.3456 C   0  0  0  0  0  0  0  0  0  0  0  0
    6.5298   -2.5070   19.5639 C   0  0  0  0  0  0  0  0  0  0  0  0
    7.0725   -3.4991   22.2693 C   0  0  0  0  0  0  0  0  0  0  0  0
    5.9902   -4.3393   22.0028 C   0  0  0  0  0  0  0  0  0  0  0  0
    6.0700   -5.7011   22.2421 C   0  0  0  0  0  0  0  0  0  0  0  0
    7.2324   -6.2393   22.7509 C   0  0  0  0  0  0  0  0  0  0  0  0
    8.3097   -5.4137   23.0179 C   0  0  0  0  0  0  0  0  0  0  0  0
    8.2453   -4.0428   22.7828 C   0  0  0  0  0  0  0  0  0  0  0  0
    9.4550   -3.1772   23.0383 C   0  0  0  0  0  0  0  0  0  0  0  0
  1  2  2  0
  2  3  1  0
  3  4  1  0
  4  5  2  0
  5  6  1  0
  6  7  2  0
  7  8  1  0
  8  9  2  0
  2 10  1  0
 10 11  1  0
 11 12  1  0
 12 13  1  0
 13 14  1  0
 14 15  1  0
 13 16  1  0
 16 17  1  0
 17 18  1  0
 18 19  1  0
 19 20  2  0
 20 21  1  0
 21 22  2  0
 22 23  1  0
 23 24  2  0
 18 25  1  0
 25 26  2  0
 26 27  1  0
 27 28  2  0
 28 29  1  0
 29 30  2  0
 30 31  1  0
  9  4  1  0
 15 10  1  0
 31 16  1  0
 24 19  1  0
 30 25  1  0
M  END
