CVD-0000029|dock_bobby27042020.28|mol2|38|dock2
     RDKit          3D

 36 39  0  0  0  0  0  0  0  0999 V2000
    7.8860   -5.0753   26.0385 C   0  0  0  0  0  0  0  0  0  0  0  0
    9.1328   -4.6353   25.2722 C   0  0  0  0  0  0  0  0  0  0  0  0
   10.3537   -5.3671   25.8280 C   0  0  0  0  0  0  0  0  0  0  0  0
    9.3172   -3.1404   25.3612 C   0  0  0  0  0  0  0  0  0  0  0  0
    9.2868   -2.4759   26.5725 C   0  0  0  0  0  0  0  0  0  0  0  0
    9.4650   -1.1103   26.5130 C   0  0  0  0  0  0  0  0  0  0  0  0
    9.6573   -0.4380   25.3712 N   0  0  0  0  0  0  0  0  0  0  0  0
    9.6707   -1.1634   24.2459 C   0  0  0  0  0  0  0  0  0  0  0  0
    9.5060   -2.4951   24.2005 N   0  0  0  0  0  0  0  0  0  0  0  0
    9.8648   -0.4705   23.0954 N   0  0  0  0  0  0  0  0  0  0  0  0
   11.1304    0.2680   22.9745 C   0  0  0  0  0  0  0  0  0  0  0  0
   10.8618    1.7509   23.0007 C   0  0  0  0  0  0  0  0  0  0  0  0
    9.6101    2.1483   23.2415 N   0  0  0  0  0  0  0  0  0  0  0  0
    9.4266    3.4755   23.2523 C   0  0  0  0  0  0  0  0  0  0  0  0
   10.4214    4.4115   23.0364 C   0  0  0  0  0  0  0  0  0  0  0  0
   11.6782    3.8610   22.7970 C   0  0  0  0  0  0  0  0  0  0  0  0
   11.9142    2.5362   22.7757 N   0  0  0  0  0  0  0  0  0  0  0  0
   12.8176    4.7141   22.5538 C   0  0  0  0  0  0  0  0  0  0  0  0
   13.7238    5.4272   22.3148 C   0  0  0  0  0  0  0  0  0  0  0  0
    8.9814   -0.3387   22.0155 C   0  0  0  0  0  0  0  0  0  0  0  0
    9.3279    0.2977   21.0280 O   0  0  0  0  0  0  0  0  0  0  0  0
    7.7362   -0.9061   22.0957 N   0  0  0  0  0  0  0  0  0  0  0  0
    6.7201   -0.8351   21.0833 C   0  0  0  0  0  0  0  0  0  0  0  0
    6.2456    0.4377   20.7464 C   0  0  0  0  0  0  0  0  0  0  0  0
    6.7324    1.6632   21.4605 C   0  0  0  0  0  0  0  0  0  0  0  0
    5.3518    0.6085   19.7717 N   0  0  0  0  0  0  0  0  0  0  0  0
    4.9125   -0.4635   19.1033 C   0  0  0  0  0  0  0  0  0  0  0  0
    5.2925   -1.7540   19.4034 C   0  0  0  0  0  0  0  0  0  0  0  0
    6.1911   -1.9703   20.4427 C   0  0  0  0  0  0  0  0  0  0  0  0
    6.5162   -3.3950   20.8305 C   0  0  0  0  0  0  0  0  0  0  0  0
    5.5401   -3.9800   21.7616 N   0  0  0  0  0  0  0  0  0  0  0  0
    5.7707   -5.4165   21.9378 C   0  0  0  0  0  0  0  0  0  0  0  0
    4.7621   -5.9772   22.8857 C   0  0  0  0  0  0  0  0  0  0  0  0
    4.8299   -5.3443   24.1585 O   0  0  0  0  0  0  0  0  0  0  0  0
    4.6161   -3.9507   24.0087 C   0  0  0  0  0  0  0  0  0  0  0  0
    5.6072   -3.3309   23.0700 C   0  0  0  0  0  0  0  0  0  0  0  0
  1  2  1  0
  2  3  1  0
  2  4  1  0
  4  5  2  0
  5  6  1  0
  6  7  2  0
  7  8  1  0
  8  9  2  0
  8 10  1  0
 10 11  1  0
 11 12  1  0
 12 13  2  0
 13 14  1  0
 14 15  2  0
 15 16  1  0
 16 17  2  0
 16 18  1  0
 18 19  3  0
 10 20  1  0
 20 21  2  0
 20 22  1  0
 22 23  1  0
 23 24  2  0
 24 25  1  0
 24 26  1  0
 26 27  2  0
 27 28  1  0
 28 29  2  0
 29 30  1  0
 30 31  1  0
 31 32  1  0
 32 33  1  0
 33 34  1  0
 34 35  1  0
 35 36  1  0
  9  4  1  0
 17 12  1  0
 29 23  1  0
 36 31  1  0
M  END
