CVD-0000951|dock_bobby27042020.68|mol2|36|dock2
     RDKit          3D

 26 30  0  0  0  0  0  0  0  0999 V2000
    5.6784    0.5462   25.1746 C   0  0  0  0  0  0  0  0  0  0  0  0
    6.5959   -0.2768   24.3179 C   0  0  0  0  0  0  0  0  0  0  0  0
    7.5290   -0.8888   24.8257 O   0  0  0  0  0  0  0  0  0  0  0  0
    6.3756   -0.3160   22.9767 N   0  0  0  0  0  0  0  0  0  0  0  0
    7.2655   -1.1018   22.0865 C   0  0  0  0  0  0  0  0  0  0  0  0
    7.7434   -0.2764   20.9389 C   0  0  0  0  0  0  0  0  0  0  0  0
    6.5667    0.2581   20.1631 C   0  0  0  0  0  0  0  0  0  0  0  0
    6.6211    0.4339   18.7797 C   0  0  0  0  0  0  0  0  0  0  0  0
    5.5447    0.9316   18.0667 C   0  0  0  0  0  0  0  0  0  0  0  0
    4.3850    1.2651   18.7300 C   0  0  0  0  0  0  0  0  0  0  0  0
    4.3097    1.0987   20.1011 C   0  0  0  0  0  0  0  0  0  0  0  0
    5.3879    0.5990   20.8244 C   0  0  0  0  0  0  0  0  0  0  0  0
    5.2848    0.4533   22.3457 C   0  0  0  0  0  0  0  0  0  0  0  0
    8.7165    0.8056   21.4059 C   0  0  0  0  0  0  0  0  0  0  0  0
    8.2435    2.1091   21.5736 C   0  0  0  0  0  0  0  0  0  0  0  0
    9.1186    3.1037   21.9993 C   0  0  0  0  0  0  0  0  0  0  0  0
    8.9178    4.4418   22.2397 N   0  0  0  0  0  0  0  0  0  0  0  0
   10.0947    5.0092   22.6459 C   0  0  0  0  0  0  0  0  0  0  0  0
   11.0830    4.0723   22.6819 C   0  0  0  0  0  0  0  0  0  0  0  0
   12.5238    4.2677   23.0713 C   0  0  0  0  0  0  0  0  0  0  0  0
   13.3988    3.7153   22.0020 C   0  0  0  0  0  0  0  0  0  0  0  0
   13.3987    5.1695   22.2611 C   0  0  0  0  0  0  0  0  0  0  0  0
   10.4731    2.8378   22.2684 C   0  0  0  0  0  0  0  0  0  0  0  0
   10.9310    1.5366   22.0979 C   0  0  0  0  0  0  0  0  0  0  0  0
   10.0643    0.5474   21.6754 C   0  0  0  0  0  0  0  0  0  0  0  0
   10.7459   -1.0374   21.4979 Cl  0  0  0  0  0  0  0  0  0  0  0  0
  1  2  1  0
  2  3  2  0
  2  4  1  0
  4  5  1  0
  5  6  1  0
  6  7  1  0
  7  8  2  0
  8  9  1  0
  9 10  2  0
 10 11  1  0
 11 12  2  0
 12 13  1  0
  6 14  1  0
 14 15  2  0
 15 16  1  0
 16 17  1  0
 17 18  1  0
 18 19  2  0
 19 20  1  0
 20 21  1  0
 21 22  1  0
 19 23  1  0
 23 24  1  0
 24 25  2  0
 25 26  1  0
 13  4  1  0
 25 14  1  0
 12  7  1  0
 23 16  2  0
 22 20  1  0
M  END
