CVD-0001555|dock_bobby27042020.23|mol2|30|dock1
     RDKit          3D

 31 32  0  0  0  0  0  0  0  0999 V2000
    7.5987   -1.2330   20.3945 C   0  0  0  0  0  0  0  0  0  0  0  0
    8.5323   -1.4077   21.5560 C   0  0  0  0  0  0  0  0  0  0  0  0
    8.1628   -1.2408   22.7142 O   0  0  0  0  0  0  0  0  0  0  0  0
    9.7918   -1.7390   21.2497 N   0  0  0  0  0  0  0  0  0  0  0  0
   10.8228   -1.9280   22.2605 C   0  0  0  0  0  0  0  0  0  0  0  0
   10.1417   -2.4180   23.5471 C   0  0  0  0  0  0  0  0  0  0  0  0
   10.1196   -1.7107   24.5509 O   0  0  0  0  0  0  0  0  0  0  0  0
    9.5896   -3.6339   23.5034 N   0  0  0  0  0  0  0  0  0  0  0  0
    8.9165   -4.2085   24.6569 C   0  0  0  0  0  0  0  0  0  0  0  0
    8.2217   -5.5206   24.2838 C   0  0  0  0  0  0  0  0  0  0  0  0
    7.1124   -5.4051   23.2286 C   0  0  0  0  0  0  0  0  0  0  0  0
    5.7656   -4.8789   23.7637 C   0  0  0  0  0  0  0  0  0  0  0  0
    4.6974   -5.7104   23.0653 C   0  0  0  0  0  0  0  0  0  0  0  0
    5.4356   -6.8688   22.5995 N   0  0  0  0  0  0  0  0  0  0  0  0
    6.7642   -6.7345   22.6115 C   0  0  0  0  0  0  0  0  0  0  0  0
    7.5666   -7.5775   22.2190 O   0  0  0  0  0  0  0  0  0  0  0  0
    7.9112   -3.2347   25.2434 C   0  0  0  0  0  0  0  0  0  0  0  0
    7.2802   -2.4923   24.5228 O   0  0  0  0  0  0  0  0  0  0  0  0
    7.7469   -3.2450   26.7371 C   0  0  0  0  0  0  0  0  0  0  0  0
    8.1974   -4.7900   27.4700 Cl  0  0  0  0  0  0  0  0  0  0  0  0
   11.5538   -0.6111   22.5087 C   0  0  0  0  0  0  0  0  0  0  0  0
   10.8036    0.5481   22.7083 C   0  0  0  0  0  0  0  0  0  0  0  0
   11.4093    1.7676   22.9432 C   0  0  0  0  0  0  0  0  0  0  0  0
   12.7816    1.8435   22.9771 C   0  0  0  0  0  0  0  0  0  0  0  0
   13.5440    0.7056   22.7777 C   0  0  0  0  0  0  0  0  0  0  0  0
   12.9553   -0.5416   22.5413 C   0  0  0  0  0  0  0  0  0  0  0  0
   13.8092   -1.7744   22.3270 C   0  0  0  0  0  0  0  0  0  0  0  0
   14.0372   -2.2574   20.6472 S   0  0  0  0  0  0  0  0  0  0  0  0
   12.6620   -2.3055   20.0174 F   0  0  0  0  0  0  0  0  0  0  0  0
   14.5351   -3.5866   20.6339 O   0  0  0  0  0  0  0  0  0  0  0  0
   14.7910   -1.2624   19.9708 O   0  0  0  0  0  0  0  0  0  0  0  0
  1  2  1  0
  2  3  2  0
  2  4  1  0
  4  5  1  0
  5  6  1  0
  6  7  2  0
  6  8  1  0
  8  9  1  0
  9 10  1  0
 10 11  1  0
 11 12  1  0
 12 13  1  0
 13 14  1  0
 14 15  1  0
 15 16  2  0
  9 17  1  0
 17 18  2  0
 17 19  1  0
 19 20  1  0
  5 21  1  0
 21 22  2  0
 22 23  1  0
 23 24  2  0
 24 25  1  0
 25 26  2  0
 26 27  1  0
 27 28  1  0
 28 29  1  0
 28 30  2  0
 28 31  2  0
 15 11  1  0
 26 21  1  0
M  END
