CVD-0002131|dock_bobby27042020.92|mol2|35|dock3
     RDKit          3D

 21 22  0  0  0  0  0  0  0  0999 V2000
   14.4665    6.3778   22.0935 N   0  0  0  0  0  0  0  0  0  0  0  0
   13.7315    4.9551   22.1022 S   0  0  0  0  0  0  0  0  0  0  0  0
   12.9589    4.8240   20.9001 O   0  0  0  0  0  0  0  0  0  0  0  0
   14.6846    3.9418   22.4546 O   0  0  0  0  0  0  0  0  0  0  0  0
   12.5640    4.9888   23.4173 C   0  0  0  0  0  0  0  0  0  0  0  0
   11.4285    4.1525   23.1448 N   0  0  0  0  0  0  0  0  0  0  0  0
   11.7221    2.7277   22.9812 C   0  0  0  0  0  0  0  0  0  0  0  0
   10.4841    1.9162   22.6555 C   0  0  0  0  0  0  0  0  0  0  0  0
   10.7629    0.4464   22.4872 C   0  0  0  0  0  0  0  0  0  0  0  0
   11.9806   -0.1527   22.4814 C   0  0  0  0  0  0  0  0  0  0  0  0
   11.8676   -1.8338   22.2476 S   0  0  0  0  0  0  0  0  0  0  0  0
   10.1710   -1.7586   22.1408 C   0  0  0  0  0  0  0  0  0  0  0  0
    9.6950   -0.4952   22.2913 C   0  0  0  0  0  0  0  0  0  0  0  0
    8.2219   -0.1729   22.2298 C   0  0  0  0  0  0  0  0  0  0  0  0
    7.7272    0.2672   20.9214 N   0  0  0  0  0  0  0  0  0  0  0  0
    8.0301   -0.7289   19.8867 C   0  0  0  0  0  0  0  0  0  0  0  0
    7.5759   -0.2714   18.5147 C   0  0  0  0  0  0  0  0  0  0  0  0
    6.0917    0.0709   18.4700 C   0  0  0  0  0  0  0  0  0  0  0  0
    5.6634    0.6258   17.2234 O   0  0  0  0  0  0  0  0  0  0  0  0
    5.7839    1.0277   19.6166 C   0  0  0  0  0  0  0  0  0  0  0  0
    6.2819    0.5064   20.9543 C   0  0  0  0  0  0  0  0  0  0  0  0
  1  2  1  0
  2  3  2  0
  2  4  2  0
  2  5  1  0
  5  6  1  0
  6  7  1  0
  7  8  1  0
  8  9  1  0
  9 10  2  0
 10 11  1  0
 11 12  1  0
 12 13  2  0
 13 14  1  0
 14 15  1  0
 15 16  1  0
 16 17  1  0
 17 18  1  0
 18 19  1  0
 18 20  1  0
 20 21  1  0
 13  9  1  0
 21 15  1  0
M  END
