CVD-0003501|dock_bobby27042020.45|mol2|11|dock2
     RDKit          3D

 26 30  0  0  0  0  0  0  0  0999 V2000
   10.9690   -2.6972   22.9178 C   0  0  0  0  0  0  0  0  0  0  0  0
   11.8506   -1.5713   23.3911 C   0  0  0  0  0  0  0  0  0  0  0  0
   13.1734   -1.8301   23.7392 C   0  0  0  0  0  0  0  0  0  0  0  0
   13.9721   -0.7971   24.1828 C   0  0  0  0  0  0  0  0  0  0  0  0
   13.5406    0.4569   24.3043 N   0  0  0  0  0  0  0  0  0  0  0  0
   12.2683    0.6917   23.9697 C   0  0  0  0  0  0  0  0  0  0  0  0
   11.3875   -0.2553   23.5044 C   0  0  0  0  0  0  0  0  0  0  0  0
    9.9634    0.1004   23.1333 C   0  0  0  0  0  0  0  0  0  0  0  0
    8.9361   -0.4681   24.0774 C   0  0  0  0  0  0  0  0  0  0  0  0
    9.0853   -0.2605   25.3849 N   0  0  0  0  0  0  0  0  0  0  0  0
    8.0025   -0.8287   25.9623 N   0  0  0  0  0  0  0  0  0  0  0  0
    7.1923   -1.3924   25.0656 C   0  0  0  0  0  0  0  0  0  0  0  0
    7.7579   -1.2047   23.8232 C   0  0  0  0  0  0  0  0  0  0  0  0
    7.1720   -1.6972   22.5397 C   0  0  0  0  0  0  0  0  0  0  0  0
    6.7084   -0.8349   21.5268 C   0  0  0  0  0  0  0  0  0  0  0  0
    6.8864    0.6603   21.6333 C   0  0  0  0  0  0  0  0  0  0  0  0
    6.0844   -1.3446   20.3724 C   0  0  0  0  0  0  0  0  0  0  0  0
    5.9681   -2.7171   20.1718 C   0  0  0  0  0  0  0  0  0  0  0  0
    6.4827   -3.5704   21.1351 C   0  0  0  0  0  0  0  0  0  0  0  0
    6.5169   -5.3045   21.1427 S   0  0  0  0  0  0  0  0  0  0  0  0
    7.3072   -5.2323   22.6867 C   0  0  0  0  0  0  0  0  0  0  0  0
    7.5375   -4.0584   23.1722 N   0  0  0  0  0  0  0  0  0  0  0  0
    7.0759   -3.0841   22.3011 C   0  0  0  0  0  0  0  0  0  0  0  0
    5.5380   -0.3853   19.3319 C   0  0  0  0  0  0  0  0  0  0  0  0
    6.6706    0.2040   18.5675 C   0  0  0  0  0  0  0  0  0  0  0  0
    5.7134   -0.6847   17.8777 C   0  0  0  0  0  0  0  0  0  0  0  0
  1  2  1  0
  2  3  2  0
  3  4  1  0
  4  5  2  0
  5  6  1  0
  6  7  2  0
  7  8  1  0
  8  9  1  0
  9 10  2  0
 10 11  1  0
 11 12  1  0
 12 13  2  0
 13 14  1  0
 14 15  2  0
 15 16  1  0
 15 17  1  0
 17 18  2  0
 18 19  1  0
 19 20  1  0
 20 21  1  0
 21 22  2  0
 22 23  1  0
 17 24  1  0
 24 25  1  0
 25 26  1  0
  7  2  1  0
 13  9  1  0
 23 14  1  0
 26 24  1  0
 23 19  2  0
M  END
