CVD-0001613|dock_bobby27042020.66|mol2|33|dock1
     RDKit          3D

 18 19  0  0  0  0  0  0  0  0999 V2000
   11.1972    1.2930   23.0376 C   0  0  0  0  0  0  0  0  0  0  0  0
   10.9001    0.1903   24.0418 C   0  0  0  0  0  0  0  0  0  0  0  0
    9.4700   -0.3100   23.9569 C   0  0  0  0  0  0  0  0  0  0  0  0
    9.2433   -0.9832   22.6746 N   0  0  0  0  0  0  0  0  0  0  0  0
    9.2532   -0.1519   21.4678 C   0  0  0  0  0  0  0  0  0  0  0  0
    8.0899   -0.4365   20.5652 C   0  0  0  0  0  0  0  0  0  0  0  0
    7.2760   -1.5468   20.5688 C   0  0  0  0  0  0  0  0  0  0  0  0
    6.2761   -1.5137   19.5995 C   0  0  0  0  0  0  0  0  0  0  0  0
    6.3268   -0.3880   18.8628 C   0  0  0  0  0  0  0  0  0  0  0  0
    5.1917    0.0917   17.4542 Br  0  0  0  0  0  0  0  0  0  0  0  0
    7.5968    0.6662   19.3300 S   0  0  0  0  0  0  0  0  0  0  0  0
   10.1577   -2.1168   22.5632 C   0  0  0  0  0  0  0  0  0  0  0  0
   11.6011   -1.6523   22.6325 C   0  0  0  0  0  0  0  0  0  0  0  0
   11.8411   -0.9203   23.8801 N   0  0  0  0  0  0  0  0  0  0  0  0
   12.7536   -1.1307   24.8541 C   0  0  0  0  0  0  0  0  0  0  0  0
   12.7991   -0.4111   25.8438 O   0  0  0  0  0  0  0  0  0  0  0  0
   13.7152   -2.2914   24.6868 C   0  0  0  0  0  0  0  0  0  0  0  0
   14.8425   -2.3900   26.0457 Cl  0  0  0  0  0  0  0  0  0  0  0  0
  1  2  1  0
  2  3  1  0
  3  4  1  0
  4  5  1  0
  5  6  1  0
  6  7  2  0
  7  8  1  0
  8  9  2  0
  9 10  1  0
  9 11  1  0
  4 12  1  0
 12 13  1  0
 13 14  1  0
 14 15  1  0
 15 16  2  0
 15 17  1  0
 17 18  1  0
 14  2  1  0
 11  6  1  0
M  END
