CVD-0000742|dock_bobby27042020.40|mol2|32|dock1
     RDKit          3D

 16 17  0  0  0  0  0  0  0  0999 V2000
   13.1688    2.5713   22.5247 C   0  0  0  0  0  0  0  0  0  0  0  0
   12.6605    1.1622   22.4602 C   0  0  0  0  0  0  0  0  0  0  0  0
   13.3680    0.0073   22.4914 C   0  0  0  0  0  0  0  0  0  0  0  0
   12.5821   -1.1400   22.4111 C   0  0  0  0  0  0  0  0  0  0  0  0
   11.2379   -0.8662   22.3156 C   0  0  0  0  0  0  0  0  0  0  0  0
   10.0939   -1.8346   22.2118 C   0  0  0  0  0  0  0  0  0  0  0  0
    8.8080   -1.1421   21.8125 C   0  0  0  0  0  0  0  0  0  0  0  0
    8.0262   -0.7404   22.6680 O   0  0  0  0  0  0  0  0  0  0  0  0
    8.6309   -1.0389   20.4731 N   0  0  0  0  0  0  0  0  0  0  0  0
    7.5730   -0.4800   19.7143 C   0  0  0  0  0  0  0  0  0  0  0  0
    6.3447   -0.1087   20.2516 C   0  0  0  0  0  0  0  0  0  0  0  0
    5.3774    0.4289   19.4202 C   0  0  0  0  0  0  0  0  0  0  0  0
    5.6612    0.5805   18.0824 C   0  0  0  0  0  0  0  0  0  0  0  0
    6.8283    0.2342   17.5395 N   0  0  0  0  0  0  0  0  0  0  0  0
    7.7553   -0.2839   18.3501 C   0  0  0  0  0  0  0  0  0  0  0  0
   10.9689    0.8394   22.3275 S   0  0  0  0  0  0  0  0  0  0  0  0
  1  2  1  0
  2  3  2  0
  3  4  1  0
  4  5  2  0
  5  6  1  0
  6  7  1  0
  7  8  2  0
  7  9  1  0
  9 10  1  0
 10 11  2  0
 11 12  1  0
 12 13  2  0
 13 14  1  0
 14 15  2  0
  5 16  1  0
 16  2  1  0
 15 10  1  0
M  END
