CVD-0002783|dock_bobby27042020.47|mol2|22|dock2
     RDKit          3D

 17 18  0  0  0  0  0  0  0  0999 V2000
   14.5540   -1.8339   25.8042 C   0  0  0  0  0  0  0  0  0  0  0  0
   13.6592   -2.1049   24.5984 C   0  0  0  0  0  0  0  0  0  0  0  0
   12.2217   -1.8389   24.9719 C   0  0  0  0  0  0  0  0  0  0  0  0
   11.2990   -2.0863   23.7837 C   0  0  0  0  0  0  0  0  0  0  0  0
   11.7229   -1.2413   22.6118 C   0  0  0  0  0  0  0  0  0  0  0  0
   10.8232   -1.5138   21.3995 C   0  0  0  0  0  0  0  0  0  0  0  0
    9.4780   -0.8178   21.4086 C   0  0  0  0  0  0  0  0  0  0  0  0
    9.0163   -0.3084   22.4241 O   0  0  0  0  0  0  0  0  0  0  0  0
    8.8699   -0.8272   20.1976 N   0  0  0  0  0  0  0  0  0  0  0  0
    7.6262   -0.2973   19.7734 C   0  0  0  0  0  0  0  0  0  0  0  0
    6.4992   -0.2130   20.5848 C   0  0  0  0  0  0  0  0  0  0  0  0
    5.3321    0.3234   20.0684 C   0  0  0  0  0  0  0  0  0  0  0  0
    5.3220    0.7586   18.7633 C   0  0  0  0  0  0  0  0  0  0  0  0
    6.3853    0.6907   17.9624 N   0  0  0  0  0  0  0  0  0  0  0  0
    7.5068    0.1715   18.4701 C   0  0  0  0  0  0  0  0  0  0  0  0
   13.1604   -1.5073   22.2384 C   0  0  0  0  0  0  0  0  0  0  0  0
   14.0832   -1.2599   23.4265 C   0  0  0  0  0  0  0  0  0  0  0  0
  2  1  1  0
  2  3  1  0
  3  4  1  0
  4  5  1  0
  5  6  1  0
  6  7  1  0
  7  8  2  0
  7  9  1  0
  9 10  1  0
 10 11  2  0
 11 12  1  0
 12 13  2  0
 13 14  1  0
 14 15  2  0
  5 16  1  0
 16 17  1  0
 17  2  1  0
 15 10  1  0
M  END
