CVD-0002606|dock_bobby27042020.62|mol2|29|dock2
     RDKit          3D

 42 47  0  0  0  0  0  0  0  0999 V2000
   12.6978    7.1657   27.8093 C   0  0  0  0  0  0  0  0  0  0  0  0
   11.9327    6.6492   26.6152 C   0  0  0  0  0  0  0  0  0  0  0  0
   10.5718    6.8793   26.4885 C   0  0  0  0  0  0  0  0  0  0  0  0
    9.8740    6.4014   25.3923 C   0  0  0  0  0  0  0  0  0  0  0  0
   10.5336    5.6842   24.4092 C   0  0  0  0  0  0  0  0  0  0  0  0
   11.8933    5.4360   24.5128 C   0  0  0  0  0  0  0  0  0  0  0  0
   12.6290    4.6600   23.4444 C   0  0  0  0  0  0  0  0  0  0  0  0
   12.7777    3.2221   23.7216 N   0  0  0  0  0  0  0  0  0  0  0  0
   13.6604    2.5977   22.7318 C   0  0  0  0  0  0  0  0  0  0  0  0
   13.8430    1.1245   23.0462 C   0  0  0  0  0  0  0  0  0  0  0  0
   12.5473    0.4422   23.0705 N   0  0  0  0  0  0  0  0  0  0  0  0
   11.6196    1.0810   24.0092 C   0  0  0  0  0  0  0  0  0  0  0  0
   11.4775    2.5575   23.6872 C   0  0  0  0  0  0  0  0  0  0  0  0
   12.2832   -0.6565   22.3280 C   0  0  0  0  0  0  0  0  0  0  0  0
   13.1408   -1.0564   21.5594 O   0  0  0  0  0  0  0  0  0  0  0  0
   11.0032   -1.4437   22.3636 C   0  0  0  0  0  0  0  0  0  0  0  0
   10.7651   -2.2545   23.4684 C   0  0  0  0  0  0  0  0  0  0  0  0
    9.6150   -3.0171   23.5678 C   0  0  0  0  0  0  0  0  0  0  0  0
    8.6606   -2.9861   22.5574 C   0  0  0  0  0  0  0  0  0  0  0  0
    8.8803   -2.1658   21.4566 C   0  0  0  0  0  0  0  0  0  0  0  0
   10.0287   -1.3988   21.3698 C   0  0  0  0  0  0  0  0  0  0  0  0
    7.4704   -3.7850   22.6495 C   0  0  0  0  0  0  0  0  0  0  0  0
    6.4505   -4.3983   22.7629 C   0  0  0  0  0  0  0  0  0  0  0  0
    5.2010   -5.1040   22.8249 C   0  0  0  0  0  0  0  0  0  0  0  0
    4.0619   -4.5125   23.3598 C   0  0  0  0  0  0  0  0  0  0  0  0
    2.8761   -5.2227   23.4036 C   0  0  0  0  0  0  0  0  0  0  0  0
    2.8535   -6.5160   22.9101 C   0  0  0  0  0  0  0  0  0  0  0  0
    3.9371   -7.1051   22.3895 N   0  0  0  0  0  0  0  0  0  0  0  0
    5.0785   -6.4081   22.3528 C   0  0  0  0  0  0  0  0  0  0  0  0
    1.5896   -7.3371   22.9276 C   0  0  0  0  0  0  0  0  0  0  0  0
    1.0945   -7.6228   24.3433 C   0  0  0  0  0  0  0  0  0  0  0  0
   -0.2077   -8.4018   24.2760 C   0  0  0  0  0  0  0  0  0  0  0  0
   -0.0217   -9.6657   23.5706 N   0  0  0  0  0  0  0  0  0  0  0  0
   -1.2552  -10.4548   23.5898 C   0  0  0  0  0  0  0  0  0  0  0  0
   -1.1306  -11.7893   22.8992 C   0  0  0  0  0  0  0  0  0  0  0  0
   -1.7921  -12.1441   21.6978 C   0  0  0  0  0  0  0  0  0  0  0  0
   -1.5344  -13.4085   21.2617 C   0  0  0  0  0  0  0  0  0  0  0  0
   -0.4676  -14.1779   22.3359 S   0  0  0  0  0  0  0  0  0  0  0  0
   -0.3710  -12.8226   23.3579 C   0  0  0  0  0  0  0  0  0  0  0  0
    0.3904   -9.3799   22.1919 C   0  0  0  0  0  0  0  0  0  0  0  0
    1.7198   -8.6423   22.1565 C   0  0  0  0  0  0  0  0  0  0  0  0
   12.5741    5.9272   25.6199 C   0  0  0  0  0  0  0  0  0  0  0  0
  1  2  1  0
  2  3  2  0
  3  4  1  0
  4  5  2  0
  5  6  1  0
  6  7  1  0
  7  8  1  0
  8  9  1  0
  9 10  1  0
 10 11  1  0
 11 12  1  0
 12 13  1  0
 11 14  1  0
 14 15  2  0
 14 16  1  0
 16 17  2  0
 17 18  1  0
 18 19  2  0
 19 20  1  0
 20 21  2  0
 19 22  1  0
 22 23  3  0
 23 24  1  0
 24 25  2  0
 25 26  1  0
 26 27  2  0
 27 28  1  0
 28 29  2  0
 27 30  1  0
 30 31  1  0
 31 32  1  0
 32 33  1  0
 33 34  1  0
 34 35  1  0
 35 36  1  0
 36 37  2  0
 37 38  1  0
 38 39  1  0
 33 40  1  0
 40 41  1  0
  6 42  2  0
 42  2  1  0
 13  8  1  0
 21 16  1  0
 29 24  1  0
 41 30  1  0
 39 35  2  0
M  END
