CVD-0001957|dock_bobby27042020.79|mol2|19|dock2
     RDKit          3D

 26 28  0  0  0  0  0  0  0  0999 V2000
   13.8573    5.3861   22.1563 C   0  0  0  0  0  0  0  0  0  0  0  0
   13.2953    4.0441   22.3298 N   0  0  0  0  0  0  0  0  0  0  0  0
   11.9566    4.0194   22.9289 C   0  0  0  0  0  0  0  0  0  0  0  0
   11.2130    2.7572   22.5791 C   0  0  0  0  0  0  0  0  0  0  0  0
    9.8869    2.6795   22.1179 C   0  0  0  0  0  0  0  0  0  0  0  0
    9.5503    1.3545   21.9026 C   0  0  0  0  0  0  0  0  0  0  0  0
    8.2416    0.8571   21.4130 C   0  0  0  0  0  0  0  0  0  0  0  0
    7.1038    1.4174   21.9966 C   0  0  0  0  0  0  0  0  0  0  0  0
    5.8348    1.0705   21.5647 C   0  0  0  0  0  0  0  0  0  0  0  0
    5.6713    0.1562   20.5486 C   0  0  0  0  0  0  0  0  0  0  0  0
    6.7773   -0.4486   19.9791 C   0  0  0  0  0  0  0  0  0  0  0  0
    8.0281   -0.1149   20.4426 C   0  0  0  0  0  0  0  0  0  0  0  0
    9.0643   -0.8040   19.9158 F   0  0  0  0  0  0  0  0  0  0  0  0
   10.6732    0.5865   22.2162 N   0  0  0  0  0  0  0  0  0  0  0  0
   11.6684    1.4496   22.6191 C   0  0  0  0  0  0  0  0  0  0  0  0
   10.8847   -0.8769   22.1177 C   0  0  0  0  0  0  0  0  0  0  0  0
    9.6130   -1.5999   22.6000 C   0  0  0  0  0  0  0  0  0  0  0  0
    8.8497   -1.0687   23.4022 O   0  0  0  0  0  0  0  0  0  0  0  0
    9.4082   -2.8095   22.0971 N   0  0  0  0  0  0  0  0  0  0  0  0
    8.2538   -3.6121   22.4573 C   0  0  0  0  0  0  0  0  0  0  0  0
   12.0920   -1.2846   22.9484 C   0  0  0  0  0  0  0  0  0  0  0  0
   12.1039   -1.1592   24.3290 C   0  0  0  0  0  0  0  0  0  0  0  0
   13.2237   -1.5462   25.0443 C   0  0  0  0  0  0  0  0  0  0  0  0
   14.3023   -2.0503   24.3528 C   0  0  0  0  0  0  0  0  0  0  0  0
   14.3221   -2.1850   23.0256 N   0  0  0  0  0  0  0  0  0  0  0  0
   13.2302   -1.8052   22.3552 C   0  0  0  0  0  0  0  0  0  0  0  0
  1  2  1  0
  2  3  1  0
  3  4  1  0
  4  5  1  0
  5  6  2  0
  6  7  1  0
  7  8  2  0
  8  9  1  0
  9 10  2  0
 10 11  1  0
 11 12  2  0
 12 13  1  0
  6 14  1  0
 14 15  1  0
 14 16  1  0
 16 17  1  0
 17 18  2  0
 17 19  1  0
 19 20  1  0
 16 21  1  0
 21 22  2  0
 22 23  1  0
 23 24  2  0
 24 25  1  0
 25 26  2  0
 15  4  2  0
 26 21  1  0
 12  7  1  0
M  END
