CVD-0002383|dock_bobby27042020.20|mol2|19|dock1
     RDKit          3D

 29 30  0  0  0  0  0  0  0  0999 V2000
   13.9716   -2.4548   24.1868 C   0  0  0  0  0  0  0  0  0  0  0  0
   13.0450   -1.8007   23.2812 N   0  0  0  0  0  0  0  0  0  0  0  0
   12.2025   -0.8613   23.6886 C   0  0  0  0  0  0  0  0  0  0  0  0
   12.1413   -0.4752   24.8528 O   0  0  0  0  0  0  0  0  0  0  0  0
   11.2884   -0.2668   22.6183 C   0  0  0  0  0  0  0  0  0  0  0  0
   10.9298    1.1194   23.0586 N   0  0  0  0  0  0  0  0  0  0  0  0
   12.0855    2.0564   23.1542 C   0  0  0  0  0  0  0  0  0  0  0  0
   11.6375    3.4890   22.9952 C   0  0  0  0  0  0  0  0  0  0  0  0
   12.7522    4.4227   22.9173 N   0  0  0  0  0  0  0  0  0  0  0  0
   13.2873    4.8082   21.7572 C   0  0  0  0  0  0  0  0  0  0  0  0
   14.4185    5.7899   21.8456 C   0  0  0  0  0  0  0  0  0  0  0  0
   12.8684    4.3955   20.6802 O   0  0  0  0  0  0  0  0  0  0  0  0
   10.0468   -1.1052   22.4042 C   0  0  0  0  0  0  0  0  0  0  0  0
    9.7816   -2.2275   23.1727 C   0  0  0  0  0  0  0  0  0  0  0  0
    8.6339   -2.9656   22.9443 C   0  0  0  0  0  0  0  0  0  0  0  0
    7.7491   -2.5864   21.9480 C   0  0  0  0  0  0  0  0  0  0  0  0
    7.9978   -1.4694   21.1600 C   0  0  0  0  0  0  0  0  0  0  0  0
    7.0862   -1.0000   20.0506 C   0  0  0  0  0  0  0  0  0  0  0  0
    6.5363    0.4110   20.1064 N   0  0  0  0  0  0  0  0  0  0  0  0
    6.2780    0.8620   21.5039 C   0  0  0  0  0  0  0  0  0  0  0  0
    5.6328    2.2348   21.4998 C   0  0  0  0  0  0  0  0  0  0  0  0
    4.4256    2.2568   20.6743 N   0  0  0  0  0  0  0  0  0  0  0  0
    4.6928    1.8482   19.2909 C   0  0  0  0  0  0  0  0  0  0  0  0
    5.2738    0.4575   19.2938 C   0  0  0  0  0  0  0  0  0  0  0  0
    3.2150    2.5250   21.2053 C   0  0  0  0  0  0  0  0  0  0  0  0
    3.0660    2.7573   22.3983 O   0  0  0  0  0  0  0  0  0  0  0  0
    2.0412    2.5308   20.2456 C   0  0  0  0  0  0  0  0  0  0  0  0
    0.5333    3.0112   21.0348 Cl  0  0  0  0  0  0  0  0  0  0  0  0
    9.1545   -0.7396   21.4084 C   0  0  0  0  0  0  0  0  0  0  0  0
  1  2  1  0
  2  3  1  0
  3  4  2  0
  3  5  1  0
  5  6  1  0
  6  7  1  0
  7  8  1  0
  8  9  1  0
  9 10  1  0
 10 11  1  0
 10 12  2  0
  5 13  1  0
 13 14  2  0
 14 15  1  0
 15 16  2  0
 16 17  1  0
 17 18  1  0
 18 19  1  0
 19 20  1  0
 20 21  1  0
 21 22  1  0
 22 23  1  0
 23 24  1  0
 22 25  1  0
 25 26  2  0
 25 27  1  0
 27 28  1  0
 17 29  2  0
 29 13  1  0
 24 19  1  0
M  CHG  2   6   1  19   1
M  END
