CVD-0001073|dock_bobby27042020.82|mol2|16|dock3
     RDKit          3D

 24 27  0  0  0  0  0  0  0  0999 V2000
    8.9858   -2.4746   23.8198 O   0  0  0  0  0  0  0  0  0  0  0  0
    9.3735   -1.5813   23.0588 C   0  0  0  0  0  0  0  0  0  0  0  0
    8.3550   -0.8865   22.2445 C   0  0  0  0  0  0  0  0  0  0  0  0
    8.4547   -0.6614   20.9353 C   0  0  0  0  0  0  0  0  0  0  0  0
    7.4659    0.0225   20.0973 C   0  0  0  0  0  0  0  0  0  0  0  0
    7.6192    0.1231   18.7169 C   0  0  0  0  0  0  0  0  0  0  0  0
    6.7582    0.7265   17.9309 N   0  0  0  0  0  0  0  0  0  0  0  0
    5.6613    1.2747   18.5390 C   0  0  0  0  0  0  0  0  0  0  0  0
    4.6828    1.9436   17.7687 C   0  0  0  0  0  0  0  0  0  0  0  0
    3.5913    2.4883   18.3792 C   0  0  0  0  0  0  0  0  0  0  0  0
    3.4219    2.3985   19.7467 C   0  0  0  0  0  0  0  0  0  0  0  0
    4.3408    1.7624   20.5289 C   0  0  0  0  0  0  0  0  0  0  0  0
    5.4881    1.1824   19.9406 C   0  0  0  0  0  0  0  0  0  0  0  0
    6.4147    0.5425   20.7187 N   0  0  0  0  0  0  0  0  0  0  0  0
   10.8282   -1.2291   22.9972 C   0  0  0  0  0  0  0  0  0  0  0  0
   11.7359   -2.2653   23.0483 C   0  0  0  0  0  0  0  0  0  0  0  0
   13.0966   -2.0304   22.9536 C   0  0  0  0  0  0  0  0  0  0  0  0
   13.5854   -0.7704   22.8012 C   0  0  0  0  0  0  0  0  0  0  0  0
   12.7095    0.3380   22.7548 C   0  0  0  0  0  0  0  0  0  0  0  0
   13.1954    1.6582   22.5980 C   0  0  0  0  0  0  0  0  0  0  0  0
   12.3415    2.7186   22.5717 C   0  0  0  0  0  0  0  0  0  0  0  0
   10.9847    2.5243   22.7064 C   0  0  0  0  0  0  0  0  0  0  0  0
   10.4701    1.2715   22.8597 C   0  0  0  0  0  0  0  0  0  0  0  0
   11.3031    0.1184   22.8713 C   0  0  0  0  0  0  0  0  0  0  0  0
  1  2  2  0
  2  3  1  0
  3  4  2  0
  4  5  1  0
  5  6  2  0
  6  7  1  0
  7  8  2  0
  8  9  1  0
  9 10  2  0
 10 11  1  0
 11 12  2  0
 12 13  1  0
 13 14  2  0
  2 15  1  0
 15 16  2  0
 16 17  1  0
 17 18  2  0
 18 19  1  0
 19 20  2  0
 20 21  1  0
 21 22  2  0
 22 23  1  0
 23 24  2  0
 14  5  1  0
 24 15  1  0
 13  8  1  0
 24 19  1  0
M  END
