CVD-0000934|dock_bobby27042020.11|mol2|22|dock2
     RDKit          3D

 39 41  0  0  0  0  0  0  0  0999 V2000
    9.5161   -5.3104   27.2105 C   0  0  0  0  0  0  0  0  0  0  0  0
    9.9628   -5.8946   25.8790 C   0  0  0  0  0  0  0  0  0  0  0  0
    9.0089   -5.6411   24.7447 C   0  0  0  0  0  0  0  0  0  0  0  0
    8.5320   -6.5133   24.0422 O   0  0  0  0  0  0  0  0  0  0  0  0
    8.7559   -4.3305   24.6175 O   0  0  0  0  0  0  0  0  0  0  0  0
    7.7448   -3.9199   23.6903 C   0  0  0  0  0  0  0  0  0  0  0  0
    7.9471   -2.5320   23.4474 O   0  0  0  0  0  0  0  0  0  0  0  0
    9.2309   -1.7746   22.9071 P   0  0  0  0  0  0  0  0  0  0  0  0
   10.0862   -2.5476   21.9602 O   0  0  0  0  0  0  0  0  0  0  0  0
   10.1574   -1.2311   24.3462 C   0  0  0  0  0  0  0  0  0  0  0  0
   11.1778   -0.1047   24.1922 C   0  0  0  0  0  0  0  0  0  0  0  0
   11.9848   -0.2281   22.9111 C   0  0  0  0  0  0  0  0  0  0  0  0
   13.0103    0.8843   22.7338 C   0  0  0  0  0  0  0  0  0  0  0  0
   12.4072    2.2680   22.7181 C   0  0  0  0  0  0  0  0  0  0  0  0
   13.1815    3.3830   23.0001 C   0  0  0  0  0  0  0  0  0  0  0  0
   12.6295    4.6530   22.9826 C   0  0  0  0  0  0  0  0  0  0  0  0
   11.2954    4.8238   22.6816 C   0  0  0  0  0  0  0  0  0  0  0  0
   10.5142    3.7245   22.3979 C   0  0  0  0  0  0  0  0  0  0  0  0
   11.0672    2.4549   22.4157 C   0  0  0  0  0  0  0  0  0  0  0  0
    8.3557   -0.4138   22.0556 C   0  0  0  0  0  0  0  0  0  0  0  0
    7.1887   -0.8315   21.1815 C   0  0  0  0  0  0  0  0  0  0  0  0
    6.8355   -2.0023   21.2278 O   0  0  0  0  0  0  0  0  0  0  0  0
    6.5386    0.0198   20.3558 N   0  0  0  0  0  0  0  0  0  0  0  0
    6.6791    1.4805   20.3023 C   0  0  0  0  0  0  0  0  0  0  0  0
    5.4239    1.9204   19.5802 C   0  0  0  0  0  0  0  0  0  0  0  0
    5.0870    0.7676   18.6717 C   0  0  0  0  0  0  0  0  0  0  0  0
    5.4422   -0.4662   19.5096 C   0  0  0  0  0  0  0  0  0  0  0  0
    5.8742   -1.6349   18.6273 C   0  0  0  0  0  0  0  0  0  0  0  0
    7.0672   -1.5602   18.0844 O   0  0  0  0  0  0  0  0  0  0  0  0
    5.1431   -2.5839   18.4484 O   0  0  0  0  0  0  0  0  0  0  0  0
    4.2952    2.0776   20.6144 C   0  0  0  0  0  0  0  0  0  0  0  0
    4.4277    3.3171   21.4993 C   0  0  0  0  0  0  0  0  0  0  0  0
    3.2845    3.4034   22.5102 C   0  0  0  0  0  0  0  0  0  0  0  0
    1.9355    3.3819   21.8182 C   0  0  0  0  0  0  0  0  0  0  0  0
    1.7884    2.1670   20.9253 C   0  0  0  0  0  0  0  0  0  0  0  0
    2.9313    2.0691   19.9199 C   0  0  0  0  0  0  0  0  0  0  0  0
    6.4078   -4.2883   24.3011 C   0  0  0  0  0  0  0  0  0  0  0  0
    6.1949   -3.5709   25.6304 C   0  0  0  0  0  0  0  0  0  0  0  0
    5.2689   -3.8951   23.3651 C   0  0  0  0  0  0  0  0  0  0  0  0
  1  2  1  0
  2  3  1  0
  3  4  2  0
  3  5  1  0
  5  6  1  0
  6  7  1  0
  7  8  1  0
  8  9  2  0
  8 10  1  0
 10 11  1  0
 11 12  1  0
 12 13  1  0
 13 14  1  0
 14 15  2  0
 15 16  1  0
 16 17  2  0
 17 18  1  0
 18 19  2  0
  8 20  1  0
 20 21  1  0
 21 22  2  0
 21 23  1  0
 23 24  1  0
 24 25  1  0
 25 26  1  0
 26 27  1  0
 27 28  1  0
 28 29  1  0
 28 30  2  0
 25 31  1  0
 31 32  1  0
 32 33  1  0
 33 34  1  0
 34 35  1  0
 35 36  1  0
  6 37  1  0
 37 38  1  0
 37 39  1  0
 19 14  1  0
 27 23  1  0
 36 31  1  0
M  END
