CVD-0002809|dock_bobby27042020.76|mol2|3|dock3
     RDKit          3D

 27 29  0  0  0  0  0  0  0  0999 V2000
   10.2863    0.0251   21.5457 N   0  0  0  0  0  0  0  0  0  0  0  0
    9.6323   -1.0906   21.8822 C   0  0  0  0  0  0  0  0  0  0  0  0
    8.3422   -1.1650   21.5161 N   0  0  0  0  0  0  0  0  0  0  0  0
    7.6158   -2.2584   21.7824 C   0  0  0  0  0  0  0  0  0  0  0  0
    6.2411   -2.1809   21.1565 C   0  0  0  0  0  0  0  0  0  0  0  0
    6.0220   -0.9122   20.3569 C   0  0  0  0  0  0  0  0  0  0  0  0
    5.8441   -0.9361   18.9833 C   0  0  0  0  0  0  0  0  0  0  0  0
    5.6427    0.2471   18.2943 C   0  0  0  0  0  0  0  0  0  0  0  0
    5.6257    1.4248   19.0061 C   0  0  0  0  0  0  0  0  0  0  0  0
    5.7940    1.4805   20.3280 N   0  0  0  0  0  0  0  0  0  0  0  0
    5.9861    0.3253   20.9720 C   0  0  0  0  0  0  0  0  0  0  0  0
    8.1427   -3.3270   22.5502 C   0  0  0  0  0  0  0  0  0  0  0  0
    9.4857   -3.2596   22.9203 C   0  0  0  0  0  0  0  0  0  0  0  0
   10.2594   -2.1528   22.5910 C   0  0  0  0  0  0  0  0  0  0  0  0
   11.7167   -2.1068   22.9946 C   0  0  0  0  0  0  0  0  0  0  0  0
   11.9154   -1.2983   24.2775 C   0  0  0  0  0  0  0  0  0  0  0  0
   13.4062   -1.6264   25.1799 S   0  0  0  0  0  0  0  0  0  0  0  0
   14.6247   -1.7548   24.1490 N   0  0  0  0  0  0  0  0  0  0  0  0
   13.6697   -0.4948   26.0223 O   0  0  0  0  0  0  0  0  0  0  0  0
   13.2357   -2.9078   25.8031 O   0  0  0  0  0  0  0  0  0  0  0  0
    7.3608   -4.4466   22.9455 N   0  0  0  0  0  0  0  0  0  0  0  0
    6.3545   -4.3728   24.0149 C   0  0  0  0  0  0  0  0  0  0  0  0
    5.1319   -5.1972   23.6528 C   0  0  0  0  0  0  0  0  0  0  0  0
    5.5039   -6.5826   23.3672 N   0  0  0  0  0  0  0  0  0  0  0  0
    4.3120   -7.3857   23.1456 O   0  0  0  0  0  0  0  0  0  0  0  0
    6.3887   -6.5767   22.2011 C   0  0  0  0  0  0  0  0  0  0  0  0
    7.6680   -5.8119   22.4963 C   0  0  0  0  0  0  0  0  0  0  0  0
  1  2  1  0
  2  3  2  0
  3  4  1  0
  4  5  1  0
  5  6  1  0
  6  7  2  0
  7  8  1  0
  8  9  2  0
  9 10  1  0
 10 11  2  0
  4 12  2  0
 12 13  1  0
 13 14  2  0
 14 15  1  0
 15 16  1  0
 16 17  1  0
 17 18  1  0
 17 19  2  0
 17 20  2  0
 12 21  1  0
 21 22  1  0
 22 23  1  0
 23 24  1  0
 24 25  1  0
 24 26  1  0
 26 27  1  0
 14  2  1  0
 27 21  1  0
 11  6  1  0
M  END
