CVD-0000520|dock_bobby27042020.12|mol2|39|dock2
     RDKit          3D

 26 27  0  0  0  0  0  0  0  0999 V2000
    4.5272    1.0003   21.0055 C   0  0  0  0  0  0  0  0  0  0  0  0
    5.3460    0.9803   19.7399 C   0  0  0  0  0  0  0  0  0  0  0  0
    4.7605    1.4576   18.5711 C   0  0  0  0  0  0  0  0  0  0  0  0
    5.4725    1.4428   17.3933 C   0  0  0  0  0  0  0  0  0  0  0  0
    6.7199    0.9915   17.3071 N   0  0  0  0  0  0  0  0  0  0  0  0
    7.2981    0.5444   18.4262 C   0  0  0  0  0  0  0  0  0  0  0  0
    6.6687    0.4983   19.6718 C   0  0  0  0  0  0  0  0  0  0  0  0
    7.2663    0.0051   20.8680 N   0  0  0  0  0  0  0  0  0  0  0  0
    8.5552    0.1436   21.3256 C   0  0  0  0  0  0  0  0  0  0  0  0
    9.4206    0.7567   20.7151 O   0  0  0  0  0  0  0  0  0  0  0  0
    8.9305   -0.4228   22.5195 N   0  0  0  0  0  0  0  0  0  0  0  0
    7.8965   -0.8315   23.4725 C   0  0  0  0  0  0  0  0  0  0  0  0
    7.3207   -2.2056   23.1794 C   0  0  0  0  0  0  0  0  0  0  0  0
    7.8150   -3.2623   24.1522 C   0  0  0  0  0  0  0  0  0  0  0  0
    7.5950   -4.6770   23.6545 C   0  0  0  0  0  0  0  0  0  0  0  0
    6.1955   -4.8776   23.2596 N   0  0  0  0  0  0  0  0  0  0  0  0
    5.8609   -5.6850   21.7883 S   0  0  0  0  0  0  0  0  0  0  0  0
    4.5846   -6.5133   21.9512 N   0  0  0  0  0  0  0  0  0  0  0  0
    5.6077   -4.6634   20.7500 O   0  0  0  0  0  0  0  0  0  0  0  0
    6.9738   -6.6182   21.5121 O   0  0  0  0  0  0  0  0  0  0  0  0
   10.3120   -0.7030   22.9601 C   0  0  0  0  0  0  0  0  0  0  0  0
   11.0727   -1.4369   21.8804 C   0  0  0  0  0  0  0  0  0  0  0  0
   12.5274   -1.6525   22.2850 C   0  0  0  0  0  0  0  0  0  0  0  0
   13.2010   -0.3502   22.6313 C   0  0  0  0  0  0  0  0  0  0  0  0
   12.4341    0.3986   23.6955 C   0  0  0  0  0  0  0  0  0  0  0  0
   10.9795    0.6131   23.2993 C   0  0  0  0  0  0  0  0  0  0  0  0
  1  2  1  0
  2  3  2  0
  3  4  1  0
  4  5  2  0
  5  6  1  0
  6  7  2  0
  7  8  1  0
  8  9  1  0
  9 10  2  0
  9 11  1  0
 11 12  1  0
 12 13  1  0
 13 14  1  0
 14 15  1  0
 15 16  1  0
 16 17  1  0
 17 18  1  0
 17 19  2  0
 17 20  2  0
 11 21  1  0
 21 22  1  0
 22 23  1  0
 23 24  1  0
 24 25  1  0
 25 26  1  0
  7  2  1  0
 26 21  1  0
M  END
