CVD-0002693|dock_bobby27042020.47|mol2|35|dock3
     RDKit          3D

 15 15  0  0  0  0  0  0  0  0999 V2000
    7.5340   -1.7627   20.5599 C   0  0  0  0  0  0  0  0  0  0  0  0
    8.8952   -2.1526   20.8570 N   0  0  0  0  0  0  0  0  0  0  0  0
    9.2203   -2.8746   21.9375 C   0  0  0  0  0  0  0  0  0  0  0  0
    8.4444   -3.9456   22.1963 N   0  0  0  0  0  0  0  0  0  0  0  0
    8.7181   -4.6649   23.2889 C   0  0  0  0  0  0  0  0  0  0  0  0
    9.7445   -4.3917   24.1719 C   0  0  0  0  0  0  0  0  0  0  0  0
    9.9941   -5.2431   25.3928 C   0  0  0  0  0  0  0  0  0  0  0  0
   10.5370   -3.2976   23.8731 C   0  0  0  0  0  0  0  0  0  0  0  0
   10.3183   -2.5102   22.7466 C   0  0  0  0  0  0  0  0  0  0  0  0
   11.2498   -1.3498   22.4744 C   0  0  0  0  0  0  0  0  0  0  0  0
   12.2257   -1.6309   21.4129 N   0  0  0  0  0  0  0  0  0  0  0  0
   13.7835   -1.3765   21.6945 S   0  0  0  0  0  0  0  0  0  0  0  0
   13.9467    0.2360   22.3576 C   0  0  0  0  0  0  0  0  0  0  0  0
   14.1860   -2.3122   22.6985 O   0  0  0  0  0  0  0  0  0  0  0  0
   14.4483   -1.4052   20.4283 O   0  0  0  0  0  0  0  0  0  0  0  0
  1  2  1  0
  2  3  1  0
  3  4  2  0
  4  5  1  0
  5  6  2  0
  6  7  1  0
  6  8  1  0
  8  9  2  0
  9 10  1  0
 10 11  1  0
 11 12  1  0
 12 13  1  0
 12 14  2  0
 12 15  2  0
  9  3  1  0
M  END
