CVD-0000839|dock_bobby27042020.97|mol2|19|dock2
     RDKit          3D

 25 27  0  0  0  0  0  0  0  0999 V2000
   12.8059    5.3067   24.3619 N   0  0  0  0  0  0  0  0  0  0  0  0
   13.4325    4.6640   23.0363 S   0  0  0  0  0  0  0  0  0  0  0  0
   14.8205    4.4254   23.2966 O   0  0  0  0  0  0  0  0  0  0  0  0
   13.0701    5.5135   21.9418 O   0  0  0  0  0  0  0  0  0  0  0  0
   12.6698    3.0939   22.7607 C   0  0  0  0  0  0  0  0  0  0  0  0
   11.2884    3.0127   22.6848 C   0  0  0  0  0  0  0  0  0  0  0  0
   10.6859    1.8106   22.4680 C   0  0  0  0  0  0  0  0  0  0  0  0
   11.4446    0.6216   22.3146 C   0  0  0  0  0  0  0  0  0  0  0  0
   10.8534   -0.6518   22.0882 C   0  0  0  0  0  0  0  0  0  0  0  0
    9.3475   -0.7888   22.0058 C   0  0  0  0  0  0  0  0  0  0  0  0
    8.6519   -0.6559   23.2940 N   0  0  0  0  0  0  0  0  0  0  0  0
    7.2667   -1.1216   23.1791 C   0  0  0  0  0  0  0  0  0  0  0  0
    6.5416   -0.9440   24.5001 C   0  0  0  0  0  0  0  0  0  0  0  0
    7.2337   -1.6726   25.5656 N   0  0  0  0  0  0  0  0  0  0  0  0
    8.6404   -1.2716   25.6666 C   0  0  0  0  0  0  0  0  0  0  0  0
    9.3324   -1.4344   24.3255 C   0  0  0  0  0  0  0  0  0  0  0  0
    6.6155   -2.5729   26.3566 C   0  0  0  0  0  0  0  0  0  0  0  0
    5.4250   -2.8324   26.2341 O   0  0  0  0  0  0  0  0  0  0  0  0
    7.4690   -3.2467   27.4132 C   0  0  0  0  0  0  0  0  0  0  0  0
    6.5317   -4.3555   28.4229 Cl  0  0  0  0  0  0  0  0  0  0  0  0
   11.6582   -1.7525   21.9503 C   0  0  0  0  0  0  0  0  0  0  0  0
   13.0378   -1.6556   22.0254 C   0  0  0  0  0  0  0  0  0  0  0  0
   13.6413   -0.4529   22.2414 C   0  0  0  0  0  0  0  0  0  0  0  0
   12.8644    0.7205   22.3927 C   0  0  0  0  0  0  0  0  0  0  0  0
   13.4526    1.9863   22.6187 C   0  0  0  0  0  0  0  0  0  0  0  0
  1  2  1  0
  2  3  2  0
  2  4  2  0
  2  5  1  0
  5  6  2  0
  6  7  1  0
  7  8  2  0
  8  9  1  0
  9 10  1  0
 10 11  1  0
 11 12  1  0
 12 13  1  0
 13 14  1  0
 14 15  1  0
 15 16  1  0
 14 17  1  0
 17 18  2  0
 17 19  1  0
 19 20  1  0
  9 21  2  0
 21 22  1  0
 22 23  2  0
 23 24  1  0
 24 25  2  0
 25  5  1  0
 24  8  1  0
 16 11  1  0
M  END
