CVD-0000282|dock_bobby27042020.85|mol2|2|dock1
     RDKit          3D

 27 30  0  0  0  0  0  0  0  0999 V2000
    6.2034   -1.1625   20.1470 C   0  0  0  0  0  0  0  0  0  0  0  0
    6.3895   -2.4919   20.7153 N   0  0  0  0  0  0  0  0  0  0  0  0
    5.8727   -3.5902   20.1184 N   0  0  0  0  0  0  0  0  0  0  0  0
    6.2216   -4.6275   20.8459 N   0  0  0  0  0  0  0  0  0  0  0  0
    6.9707   -4.1944   21.8868 C   0  0  0  0  0  0  0  0  0  0  0  0
    7.0946   -2.8383   21.8194 C   0  0  0  0  0  0  0  0  0  0  0  0
    7.8104   -1.8664   22.6983 C   0  0  0  0  0  0  0  0  0  0  0  0
    9.1685   -1.4799   22.1518 C   0  0  0  0  0  0  0  0  0  0  0  0
    9.5362   -1.8474   21.0403 O   0  0  0  0  0  0  0  0  0  0  0  0
    9.9192   -0.7131   22.9459 N   0  0  0  0  0  0  0  0  0  0  0  0
   11.2379   -0.2608   22.5269 C   0  0  0  0  0  0  0  0  0  0  0  0
   11.3181    1.2404   22.7239 C   0  0  0  0  0  0  0  0  0  0  0  0
   12.4022    1.8557   23.1521 N   0  0  0  0  0  0  0  0  0  0  0  0
   12.0521    3.2017   23.2025 C   0  0  0  0  0  0  0  0  0  0  0  0
   12.7958    4.3179   23.5824 C   0  0  0  0  0  0  0  0  0  0  0  0
   12.1897    5.5649   23.5450 C   0  0  0  0  0  0  0  0  0  0  0  0
   10.8761    5.7114   23.1415 C   0  0  0  0  0  0  0  0  0  0  0  0
   10.1208    4.6146   22.7573 C   0  0  0  0  0  0  0  0  0  0  0  0
   10.7322    3.3678   22.7933 C   0  0  0  0  0  0  0  0  0  0  0  0
   10.2740    2.0943   22.4753 N   0  0  0  0  0  0  0  0  0  0  0  0
    8.9232    1.7762   22.0217 C   0  0  0  0  0  0  0  0  0  0  0  0
   12.3529   -0.9562   23.2964 C   0  0  0  0  0  0  0  0  0  0  0  0
   13.1290   -1.9342   22.6902 C   0  0  0  0  0  0  0  0  0  0  0  0
   14.1449   -2.5651   23.3886 C   0  0  0  0  0  0  0  0  0  0  0  0
   14.3977   -2.2257   24.7005 C   0  0  0  0  0  0  0  0  0  0  0  0
   13.6355   -1.2552   25.3148 C   0  0  0  0  0  0  0  0  0  0  0  0
   12.6193   -0.6236   24.6174 C   0  0  0  0  0  0  0  0  0  0  0  0
  1  2  1  0
  2  3  1  0
  3  4  2  0
  4  5  1  0
  5  6  2  0
  6  7  1  0
  7  8  1  0
  8  9  2  0
  8 10  1  0
 10 11  1  0
 11 12  1  0
 12 13  2  0
 13 14  1  0
 14 15  2  0
 15 16  1  0
 16 17  2  0
 17 18  1  0
 18 19  2  0
 19 20  1  0
 20 21  1  0
 11 22  1  0
 22 23  2  0
 23 24  1  0
 24 25  2  0
 25 26  1  0
 26 27  2  0
  6  2  1  0
 20 12  1  0
 27 22  1  0
 19 14  1  0
M  END
