CVD-0000096|dock_bobby27042020.99|mol2|39|dock2
     RDKit          3D

 29 31  0  0  0  0  0  0  0  0999 V2000
   12.4066    6.4000   26.2242 C   0  0  0  0  0  0  0  0  0  0  0  0
   11.9747    6.3027   24.8063 C   0  0  0  0  0  0  0  0  0  0  0  0
   11.8235    4.9438   24.4216 O   0  0  0  0  0  0  0  0  0  0  0  0
   11.3292    4.7320   23.1047 C   0  0  0  0  0  0  0  0  0  0  0  0
   11.3303    3.2524   22.7756 C   0  0  0  0  0  0  0  0  0  0  0  0
   11.4028    2.2196   23.8374 C   0  0  0  0  0  0  0  0  0  0  0  0
   10.1399    2.4450   23.1238 N   0  0  0  0  0  0  0  0  0  0  0  0
    9.8352    1.4080   22.1300 C   0  0  0  0  0  0  0  0  0  0  0  0
    9.0701    0.2854   22.8299 C   0  0  0  0  0  0  0  0  0  0  0  0
    8.8164    0.3646   24.0253 O   0  0  0  0  0  0  0  0  0  0  0  0
    8.6983   -0.7821   22.0934 N   0  0  0  0  0  0  0  0  0  0  0  0
    7.9890   -1.9079   22.7067 C   0  0  0  0  0  0  0  0  0  0  0  0
    8.8825   -3.0442   22.8636 N   0  0  0  0  0  0  0  0  0  0  0  0
   10.1922   -3.0099   23.8054 S   0  0  0  0  0  0  0  0  0  0  0  0
   11.2917   -3.4817   23.0135 O   0  0  0  0  0  0  0  0  0  0  0  0
   10.2703   -1.6949   24.3742 O   0  0  0  0  0  0  0  0  0  0  0  0
    9.9749   -4.1440   25.1261 C   0  0  0  0  0  0  0  0  0  0  0  0
    9.7114   -5.5814   24.6775 C   0  0  0  0  0  0  0  0  0  0  0  0
    9.5462   -6.5163   25.8753 C   0  0  0  0  0  0  0  0  0  0  0  0
    8.4464   -6.0348   26.8013 C   0  0  0  0  0  0  0  0  0  0  0  0
    8.6817   -4.6065   27.2478 C   0  0  0  0  0  0  0  0  0  0  0  0
    8.8571   -3.6691   26.0573 C   0  0  0  0  0  0  0  0  0  0  0  0
    8.8982   -0.8871   20.6583 C   0  0  0  0  0  0  0  0  0  0  0  0
    7.7620   -0.3046   19.8788 C   0  0  0  0  0  0  0  0  0  0  0  0
    6.5981    0.2973   20.3678 C   0  0  0  0  0  0  0  0  0  0  0  0
    5.8975    0.6540   19.2853 C   0  0  0  0  0  0  0  0  0  0  0  0
    4.5840    1.3301   19.0657 C   0  0  0  0  0  0  0  0  0  0  0  0
    6.5745    0.3007   18.1760 O   0  0  0  0  0  0  0  0  0  0  0  0
    7.7823   -0.3202   18.5792 N   0  0  0  0  0  0  0  0  0  0  0  0
  1  2  1  0
  2  3  1  0
  3  4  1  0
  4  5  1  0
  5  6  1  0
  6  7  1  0
  7  8  1  0
  8  9  1  0
  9 10  2  0
  9 11  1  0
 11 12  1  0
 12 13  1  0
 13 14  1  0
 14 15  2  0
 14 16  2  0
 14 17  1  0
 17 18  1  0
 18 19  1  0
 19 20  1  0
 20 21  1  0
 21 22  1  0
 11 23  1  0
 23 24  1  0
 24 25  1  0
 25 26  2  0
 26 27  1  0
 26 28  1  0
 28 29  1  0
  7  5  1  0
 22 17  1  0
 29 24  2  0
M  END
