CVD-0000278|dock_bobby27042020.42|mol2|12|dock3
     RDKit          3D

 25 27  0  0  0  0  0  0  0  0999 V2000
    9.6647   -2.5341   23.8822 O   0  0  0  0  0  0  0  0  0  0  0  0
    9.9599   -2.4642   22.6928 C   0  0  0  0  0  0  0  0  0  0  0  0
    9.0261   -2.5925   21.7249 N   0  0  0  0  0  0  0  0  0  0  0  0
    7.6470   -2.9050   22.0617 C   0  0  0  0  0  0  0  0  0  0  0  0
    7.5349   -4.3505   22.5725 C   0  0  0  0  0  0  0  0  0  0  0  0
    6.1163   -4.7925   22.8419 C   0  0  0  0  0  0  0  0  0  0  0  0
    5.5601   -5.8536   22.1444 C   0  0  0  0  0  0  0  0  0  0  0  0
    4.2595   -6.2599   22.3921 C   0  0  0  0  0  0  0  0  0  0  0  0
    3.5000   -5.6098   23.3410 C   0  0  0  0  0  0  0  0  0  0  0  0
    4.0412   -4.5537   24.0419 C   0  0  0  0  0  0  0  0  0  0  0  0
    5.3418   -4.1477   23.7937 C   0  0  0  0  0  0  0  0  0  0  0  0
    6.7910   -2.7043   20.8094 C   0  0  0  0  0  0  0  0  0  0  0  0
    6.2117   -3.6483   20.3068 O   0  0  0  0  0  0  0  0  0  0  0  0
    6.7012   -1.4678   20.2859 N   0  0  0  0  0  0  0  0  0  0  0  0
    5.9274   -1.1806   19.0850 C   0  0  0  0  0  0  0  0  0  0  0  0
    6.0909    0.2816   18.8722 C   0  0  0  0  0  0  0  0  0  0  0  0
    6.8973    0.8316   19.8924 C   0  0  0  0  0  0  0  0  0  0  0  0
    7.3171   -0.2661   20.8504 C   0  0  0  0  0  0  0  0  0  0  0  0
   11.2202   -2.2555   22.1884 N   0  0  0  0  0  0  0  0  0  0  0  0
   12.4591   -2.0731   22.8516 C   0  0  0  0  0  0  0  0  0  0  0  0
   12.6181   -2.5696   24.1380 C   0  0  0  0  0  0  0  0  0  0  0  0
   13.8331   -2.3792   24.7620 C   0  0  0  0  0  0  0  0  0  0  0  0
   14.8438   -1.7502   24.1936 N   0  0  0  0  0  0  0  0  0  0  0  0
   14.6985   -1.2660   22.9478 N   0  0  0  0  0  0  0  0  0  0  0  0
   13.5549   -1.4169   22.2953 C   0  0  0  0  0  0  0  0  0  0  0  0
  1  2  2  0
  2  3  1  0
  3  4  1  0
  4  5  1  0
  5  6  1  0
  6  7  2  0
  7  8  1  0
  8  9  2  0
  9 10  1  0
 10 11  2  0
  4 12  1  0
 12 13  2  0
 12 14  1  0
 14 15  1  0
 15 16  1  0
 16 17  1  0
 17 18  1  0
  2 19  1  0
 19 20  1  0
 20 21  2  0
 21 22  1  0
 22 23  2  0
 23 24  1  0
 24 25  2  0
 11  6  1  0
 18 14  1  0
 25 20  1  0
M  END
