CVD-0002321|dock_bobby27042020.49|mol2|16|dock3
     RDKit          3D

 25 27  0  0  0  0  0  0  0  0999 V2000
    8.8469    0.9598   27.6680 C   0  0  0  0  0  0  0  0  0  0  0  0
    9.8242    1.1812   26.5513 C   0  0  0  0  0  0  0  0  0  0  0  0
   10.1871    2.3137   26.2529 O   0  0  0  0  0  0  0  0  0  0  0  0
   10.2191    0.0342   25.9382 N   0  0  0  0  0  0  0  0  0  0  0  0
   11.1041   -0.1995   24.8483 C   0  0  0  0  0  0  0  0  0  0  0  0
   12.2606    0.5518   24.6398 C   0  0  0  0  0  0  0  0  0  0  0  0
   13.1230    0.3406   23.6434 N   0  0  0  0  0  0  0  0  0  0  0  0
   12.8642   -0.6656   22.8161 C   0  0  0  0  0  0  0  0  0  0  0  0
   11.7504   -1.4688   22.9198 C   0  0  0  0  0  0  0  0  0  0  0  0
   10.8156   -1.2350   23.9330 C   0  0  0  0  0  0  0  0  0  0  0  0
    9.5485   -2.0905   24.0149 C   0  0  0  0  0  0  0  0  0  0  0  0
    9.0892   -2.4806   22.6737 N   0  0  0  0  0  0  0  0  0  0  0  0
    8.7538   -1.2997   21.8613 C   0  0  0  0  0  0  0  0  0  0  0  0
    8.3309   -1.7064   20.4736 C   0  0  0  0  0  0  0  0  0  0  0  0
    7.2005   -2.6384   20.5290 N   0  0  0  0  0  0  0  0  0  0  0  0
    7.4686   -3.7930   21.3844 C   0  0  0  0  0  0  0  0  0  0  0  0
    7.8940   -3.3217   22.7545 C   0  0  0  0  0  0  0  0  0  0  0  0
    6.0699   -2.5741   19.7807 C   0  0  0  0  0  0  0  0  0  0  0  0
    5.9112   -1.4527   18.7958 C   0  0  0  0  0  0  0  0  0  0  0  0
    5.1899   -3.4158   19.9207 O   0  0  0  0  0  0  0  0  0  0  0  0
    9.6481   -3.3130   24.9180 C   0  0  0  0  0  0  0  0  0  0  0  0
    8.8626   -3.6277   26.0668 C   0  0  0  0  0  0  0  0  0  0  0  0
    9.1956   -4.8037   26.6687 C   0  0  0  0  0  0  0  0  0  0  0  0
   10.4768   -5.5402   25.8323 S   0  0  0  0  0  0  0  0  0  0  0  0
   10.5710   -4.2899   24.6844 C   0  0  0  0  0  0  0  0  0  0  0  0
  1  2  1  0
  2  3  2  0
  2  4  1  0
  4  5  1  0
  5  6  2  0
  6  7  1  0
  7  8  2  0
  8  9  1  0
  9 10  2  0
 10 11  1  0
 11 12  1  0
 12 13  1  0
 13 14  1  0
 14 15  1  0
 15 16  1  0
 16 17  1  0
 15 18  1  0
 18 19  1  0
 18 20  2  0
 11 21  1  0
 21 22  1  0
 22 23  2  0
 23 24  1  0
 24 25  1  0
 10  5  1  0
 17 12  1  0
 25 21  2  0
M  END
