CVD-0000673|dock_bobby27042020.69|mol2|30|dock2
     RDKit          3D

 22 23  0  0  0  0  0  0  0  0999 V2000
    6.5237    1.8752   21.7952 C   0  0  0  0  0  0  0  0  0  0  0  0
    6.7096    1.1889   20.4662 C   0  0  0  0  0  0  0  0  0  0  0  0
    5.8595    1.5297   19.4182 C   0  0  0  0  0  0  0  0  0  0  0  0
    6.0077    0.9212   18.1921 C   0  0  0  0  0  0  0  0  0  0  0  0
    6.9387    0.0047   17.9440 N   0  0  0  0  0  0  0  0  0  0  0  0
    7.7624   -0.3299   18.9422 C   0  0  0  0  0  0  0  0  0  0  0  0
    7.7031    0.2211   20.2225 C   0  0  0  0  0  0  0  0  0  0  0  0
    8.5797   -0.1351   21.2850 N   0  0  0  0  0  0  0  0  0  0  0  0
    9.3726   -1.2237   21.4462 C   0  0  0  0  0  0  0  0  0  0  0  0
    9.4882   -2.1586   20.6594 O   0  0  0  0  0  0  0  0  0  0  0  0
   10.1586   -1.2183   22.7512 C   0  0  0  0  0  0  0  0  0  0  0  0
   11.3486   -2.1730   22.6615 C   0  0  0  0  0  0  0  0  0  0  0  0
   12.2380   -1.9034   21.5260 N   0  0  0  0  0  0  0  0  0  0  0  0
   13.7476   -1.4352   21.7949 S   0  0  0  0  0  0  0  0  0  0  0  0
   13.6866    0.1340   22.5702 C   0  0  0  0  0  0  0  0  0  0  0  0
   14.3707   -1.2752   20.5174 O   0  0  0  0  0  0  0  0  0  0  0  0
   14.3163   -2.3657   22.7204 O   0  0  0  0  0  0  0  0  0  0  0  0
    9.1987   -1.6223   23.8506 C   0  0  0  0  0  0  0  0  0  0  0  0
    8.9868   -0.9720   25.0604 C   0  0  0  0  0  0  0  0  0  0  0  0
    8.0107   -1.6474   25.8324 C   0  0  0  0  0  0  0  0  0  0  0  0
    7.5173   -2.7449   25.2340 C   0  0  0  0  0  0  0  0  0  0  0  0
    8.2174   -3.0101   23.7001 S   0  0  0  0  0  0  0  0  0  0  0  0
  1  2  1  0
  2  3  2  0
  3  4  1  0
  4  5  2  0
  5  6  1  0
  6  7  2  0
  7  8  1  0
  8  9  1  0
  9 10  2  0
  9 11  1  0
 11 12  1  0
 12 13  1  0
 13 14  1  0
 14 15  1  0
 14 16  2  0
 14 17  2  0
 11 18  1  0
 18 19  2  0
 19 20  1  0
 20 21  2  0
 21 22  1  0
  7  2  1  0
 22 18  1  0
M  END
