CVD-0000615|dock_bobby27042020.12|mol2|25|dock3
     RDKit          3D

 24 26  0  0  0  0  0  0  0  0999 V2000
   13.0461    6.3174   24.0332 N   0  0  0  0  0  0  0  0  0  0  0  0
   13.5899    5.2416   22.9796 S   0  0  0  0  0  0  0  0  0  0  0  0
   13.7059    5.9070   21.7167 O   0  0  0  0  0  0  0  0  0  0  0  0
   14.7554    4.6387   23.5534 O   0  0  0  0  0  0  0  0  0  0  0  0
   12.3743    3.9720   22.7974 C   0  0  0  0  0  0  0  0  0  0  0  0
   11.0296    4.2900   22.8970 C   0  0  0  0  0  0  0  0  0  0  0  0
   10.0856    3.2875   22.7508 C   0  0  0  0  0  0  0  0  0  0  0  0
   10.4780    1.9822   22.5059 C   0  0  0  0  0  0  0  0  0  0  0  0
   11.8255    1.6841   22.4003 C   0  0  0  0  0  0  0  0  0  0  0  0
   12.2534    0.3646   22.1477 O   0  0  0  0  0  0  0  0  0  0  0  0
   12.0630   -0.8064   22.9994 C   0  0  0  0  0  0  0  0  0  0  0  0
   11.2309   -1.9308   22.3652 C   0  0  0  0  0  0  0  0  0  0  0  0
    9.7702   -1.5837   22.1720 C   0  0  0  0  0  0  0  0  0  0  0  0
    9.0288   -1.4205   23.1352 O   0  0  0  0  0  0  0  0  0  0  0  0
    9.4051   -1.4813   20.8709 N   0  0  0  0  0  0  0  0  0  0  0  0
    8.1586   -1.1796   20.2679 C   0  0  0  0  0  0  0  0  0  0  0  0
    7.0478   -0.9912   21.0801 C   0  0  0  0  0  0  0  0  0  0  0  0
    5.8229   -0.6959   20.5081 C   0  0  0  0  0  0  0  0  0  0  0  0
    5.7428   -0.5970   19.1386 C   0  0  0  0  0  0  0  0  0  0  0  0
    6.7896   -0.7721   18.3320 N   0  0  0  0  0  0  0  0  0  0  0  0
    7.9687   -1.0571   18.8933 C   0  0  0  0  0  0  0  0  0  0  0  0
   11.9363   -0.5838   24.5036 C   0  0  0  0  0  0  0  0  0  0  0  0
   13.1901   -1.1907   23.9523 C   0  0  0  0  0  0  0  0  0  0  0  0
   12.7856    2.6717   22.5481 C   0  0  0  0  0  0  0  0  0  0  0  0
  1  2  1  0
  2  3  2  0
  2  4  2  0
  2  5  1  0
  5  6  2  0
  6  7  1  0
  7  8  2  0
  8  9  1  0
  9 10  1  0
 10 11  1  0
 11 12  1  0
 12 13  1  0
 13 14  2  0
 13 15  1  0
 15 16  1  0
 16 17  2  0
 17 18  1  0
 18 19  2  0
 19 20  1  0
 20 21  2  0
 11 22  1  0
 22 23  1  0
  9 24  2  0
 24  5  1  0
 23 11  1  0
 21 16  1  0
M  END
