CVD-0003261|dock_bobby27042020.88|mol2|30|dock1
     RDKit          3D

 41 42  0  0  0  0  0  0  0  0999 V2000
   12.3681    7.9526   25.6296 C   0  0  0  0  0  0  0  0  0  0  0  0
   12.9305    6.5923   25.3385 C   0  0  0  0  0  0  0  0  0  0  0  0
   13.5427    5.9483   26.1847 O   0  0  0  0  0  0  0  0  0  0  0  0
   12.7107    6.1171   24.1077 N   0  0  0  0  0  0  0  0  0  0  0  0
   12.7200    5.2235   22.9613 C   0  0  0  0  0  0  0  0  0  0  0  0
   14.1545    4.9666   22.5057 C   0  0  0  0  0  0  0  0  0  0  0  0
   14.9012    6.1760   22.4586 O   0  0  0  0  0  0  0  0  0  0  0  0
   12.0492    3.8958   23.3013 C   0  0  0  0  0  0  0  0  0  0  0  0
   11.7604    3.6436   24.4677 O   0  0  0  0  0  0  0  0  0  0  0  0
   11.8185    3.0778   22.2664 N   0  0  0  0  0  0  0  0  0  0  0  0
   11.1930    1.7659   22.3749 C   0  0  0  0  0  0  0  0  0  0  0  0
   11.8865    0.8896   23.4278 C   0  0  0  0  0  0  0  0  0  0  0  0
   11.2913   -0.4790   23.5767 C   0  0  0  0  0  0  0  0  0  0  0  0
   11.3695   -1.5177   22.6959 C   0  0  0  0  0  0  0  0  0  0  0  0
   10.7013   -2.6080   23.1824 N   0  0  0  0  0  0  0  0  0  0  0  0
   10.1688   -2.2921   24.4081 C   0  0  0  0  0  0  0  0  0  0  0  0
    9.4124   -3.0492   25.2960 C   0  0  0  0  0  0  0  0  0  0  0  0
    9.0025   -2.4637   26.4827 C   0  0  0  0  0  0  0  0  0  0  0  0
    9.3380   -1.1575   26.7764 C   0  0  0  0  0  0  0  0  0  0  0  0
   10.0916   -0.4013   25.8926 C   0  0  0  0  0  0  0  0  0  0  0  0
   10.5210   -0.9583   24.6889 C   0  0  0  0  0  0  0  0  0  0  0  0
    9.6950    1.8746   22.6554 C   0  0  0  0  0  0  0  0  0  0  0  0
    9.1329    1.0178   23.3322 O   0  0  0  0  0  0  0  0  0  0  0  0
    9.0479    2.9253   22.1434 N   0  0  0  0  0  0  0  0  0  0  0  0
    7.6236    3.1226   22.3573 C   0  0  0  0  0  0  0  0  0  0  0  0
    7.3531    3.3860   23.8384 C   0  0  0  0  0  0  0  0  0  0  0  0
    8.2097    4.3857   24.3774 O   0  0  0  0  0  0  0  0  0  0  0  0
    6.8362    1.9098   21.8669 C   0  0  0  0  0  0  0  0  0  0  0  0
    6.0082    1.3937   22.6134 O   0  0  0  0  0  0  0  0  0  0  0  0
    7.1215    1.4877   20.6257 N   0  0  0  0  0  0  0  0  0  0  0  0
    6.5052    0.3543   19.9412 C   0  0  0  0  0  0  0  0  0  0  0  0
    4.9950    0.5674   19.7685 C   0  0  0  0  0  0  0  0  0  0  0  0
    4.5698    1.7987   18.9802 C   0  0  0  0  0  0  0  0  0  0  0  0
    3.1733    2.2504   19.3588 C   0  0  0  0  0  0  0  0  0  0  0  0
    2.6749    3.2933   18.4735 N   0  0  0  0  0  0  0  0  0  0  0  0
    1.3841    3.6659   18.4429 C   0  0  0  0  0  0  0  0  0  0  0  0
    1.0688    4.6340   17.5832 N   0  0  0  0  0  0  0  0  0  0  0  0
    0.5468    3.1280   19.1804 O   0  0  0  0  0  0  0  0  0  0  0  0
    7.2086   -0.0049   18.6279 C   0  0  0  0  0  0  0  0  0  0  0  0
    8.4775   -0.3780   18.7010 N   0  0  0  0  0  0  0  0  0  0  0  0
    6.6193    0.0639   17.5466 O   0  0  0  0  0  0  0  0  0  0  0  0
  1  2  1  0
  2  3  2  0
  2  4  1  0
  4  5  1  0
  5  6  1  0
  6  7  1  0
  5  8  1  0
  8  9  2  0
  8 10  1  0
 10 11  1  0
 11 12  1  0
 12 13  1  0
 13 14  2  0
 14 15  1  0
 15 16  1  0
 16 17  2  0
 17 18  1  0
 18 19  2  0
 19 20  1  0
 20 21  2  0
 11 22  1  0
 22 23  2  0
 22 24  1  0
 24 25  1  0
 25 26  1  0
 26 27  1  0
 25 28  1  0
 28 29  2  0
 28 30  1  0
 30 31  1  0
 31 32  1  0
 32 33  1  0
 33 34  1  0
 34 35  1  0
 35 36  1  0
 36 37  1  0
 36 38  2  0
 31 39  1  0
 39 40  1  0
 39 41  2  0
 21 13  1  0
 21 16  1  0
M  END
