CVD-0003775|dock_bobby27042020.86|mol2|42|dock3
     RDKit          3D

 29 32  0  0  0  0  0  0  0  0999 V2000
   12.9748    6.0480   23.4752 N   0  0  0  0  0  0  0  0  0  0  0  0
   13.4317    4.9669   22.3863 S   0  0  0  0  0  0  0  0  0  0  0  0
   14.7810    4.5992   22.6950 O   0  0  0  0  0  0  0  0  0  0  0  0
   13.1425    5.5172   21.0961 O   0  0  0  0  0  0  0  0  0  0  0  0
   12.4335    3.5215   22.5792 C   0  0  0  0  0  0  0  0  0  0  0  0
   11.0543    3.6292   22.5642 C   0  0  0  0  0  0  0  0  0  0  0  0
   10.2775    2.4954   22.7229 C   0  0  0  0  0  0  0  0  0  0  0  0
   10.8589    1.2429   22.8953 C   0  0  0  0  0  0  0  0  0  0  0  0
   12.2480    1.1592   22.9063 C   0  0  0  0  0  0  0  0  0  0  0  0
   13.0341    2.2873   22.7529 C   0  0  0  0  0  0  0  0  0  0  0  0
   10.0744    0.1083   23.0518 N   0  0  0  0  0  0  0  0  0  0  0  0
    9.8334   -0.8481   21.9672 C   0  0  0  0  0  0  0  0  0  0  0  0
    9.9891   -2.2710   22.4241 C   0  0  0  0  0  0  0  0  0  0  0  0
    9.0689   -2.5710   23.6125 C   0  0  0  0  0  0  0  0  0  0  0  0
    9.2133   -4.0127   24.0861 C   0  0  0  0  0  0  0  0  0  0  0  0
    8.6656   -4.2939   25.4199 N   0  0  0  0  0  0  0  0  0  0  0  0
    7.2355   -4.5742   25.3411 C   0  0  0  0  0  0  0  0  0  0  0  0
    6.6452   -4.7697   26.7268 C   0  0  0  0  0  0  0  0  0  0  0  0
    7.3461   -5.9367   27.4179 C   0  0  0  0  0  0  0  0  0  0  0  0
    8.8475   -5.6909   27.4435 C   0  0  0  0  0  0  0  0  0  0  0  0
    9.3396   -5.4478   26.0252 C   0  0  0  0  0  0  0  0  0  0  0  0
    6.7703   -6.2327   28.7949 C   0  0  0  0  0  0  0  0  0  0  0  0
    5.8969   -5.3927   29.4786 C   0  0  0  0  0  0  0  0  0  0  0  0
    5.4147   -5.7331   30.7320 C   0  0  0  0  0  0  0  0  0  0  0  0
    5.7929   -6.9159   31.3276 C   0  0  0  0  0  0  0  0  0  0  0  0
    6.6564   -7.7608   30.6671 C   0  0  0  0  0  0  0  0  0  0  0  0
    7.1382   -7.4203   29.4146 C   0  0  0  0  0  0  0  0  0  0  0  0
    9.3490   -1.5708   24.7057 C   0  0  0  0  0  0  0  0  0  0  0  0
    9.2241   -0.1358   24.2401 C   0  0  0  0  0  0  0  0  0  0  0  0
  1  2  1  0
  2  3  2  0
  2  4  2  0
  2  5  1  0
  5  6  2  0
  6  7  1  0
  7  8  2  0
  8  9  1  0
  9 10  2  0
  8 11  1  0
 11 12  1  0
 12 13  1  0
 13 14  1  0
 14 15  1  0
 15 16  1  0
 16 17  1  0
 17 18  1  0
 18 19  1  0
 19 20  1  0
 20 21  1  0
 19 22  1  0
 22 23  2  0
 23 24  1  0
 24 25  2  0
 25 26  1  0
 26 27  2  0
 14 28  1  0
 28 29  1  0
 10  5  1  0
 29 11  1  0
 21 16  1  0
 27 22  1  0
M  END
