CVD-0000229|dock_bobby27042020.71|mol2|6|dock3
     RDKit          3D

 30 32  0  0  0  0  0  0  0  0999 V2000
   13.0758    4.3466   19.8221 F   0  0  0  0  0  0  0  0  0  0  0  0
   12.9136    4.5712   21.1540 C   0  0  0  0  0  0  0  0  0  0  0  0
   13.6750    5.5361   21.7566 C   0  0  0  0  0  0  0  0  0  0  0  0
   13.5056    5.7592   23.1126 C   0  0  0  0  0  0  0  0  0  0  0  0
   12.5839    5.0110   23.8075 C   0  0  0  0  0  0  0  0  0  0  0  0
   12.4277    5.2368   25.1320 F   0  0  0  0  0  0  0  0  0  0  0  0
   11.8139    4.0366   23.1933 C   0  0  0  0  0  0  0  0  0  0  0  0
   11.9907    3.8178   21.8356 C   0  0  0  0  0  0  0  0  0  0  0  0
   10.6284    3.0645   24.0814 S   0  0  0  0  0  0  0  0  0  0  0  0
    9.3904    3.7821   24.0741 O   0  0  0  0  0  0  0  0  0  0  0  0
   11.2178    2.6841   25.3288 O   0  0  0  0  0  0  0  0  0  0  0  0
   10.3790    1.6917   23.2330 N   0  0  0  0  0  0  0  0  0  0  0  0
   11.3912    0.7400   22.9017 C   0  0  0  0  0  0  0  0  0  0  0  0
   12.7050    0.9642   23.3162 C   0  0  0  0  0  0  0  0  0  0  0  0
   13.6941    0.0460   23.0139 C   0  0  0  0  0  0  0  0  0  0  0  0
   13.3959   -1.0881   22.2964 C   0  0  0  0  0  0  0  0  0  0  0  0
   12.1033   -1.3237   21.8651 C   0  0  0  0  0  0  0  0  0  0  0  0
   11.0715   -0.4265   22.1621 C   0  0  0  0  0  0  0  0  0  0  0  0
    9.6704   -0.7285   21.6853 C   0  0  0  0  0  0  0  0  0  0  0  0
    8.7079   -0.6213   22.4393 O   0  0  0  0  0  0  0  0  0  0  0  0
    9.4584   -1.1217   20.4242 N   0  0  0  0  0  0  0  0  0  0  0  0
    8.1092   -1.3188   19.9141 C   0  0  0  0  0  0  0  0  0  0  0  0
    7.8745   -0.5297   18.6440 C   0  0  0  0  0  0  0  0  0  0  0  0
    6.4827   -0.5982   18.2306 N   0  0  0  0  0  0  0  0  0  0  0  0
    5.6326    0.4635   18.2689 C   0  0  0  0  0  0  0  0  0  0  0  0
    4.5582    0.4752   19.1559 C   0  0  0  0  0  0  0  0  0  0  0  0
    3.7369    1.5880   19.1377 C   0  0  0  0  0  0  0  0  0  0  0  0
    4.0397    2.5941   18.2510 C   0  0  0  0  0  0  0  0  0  0  0  0
    5.0690    2.5438   17.4258 N   0  0  0  0  0  0  0  0  0  0  0  0
    5.8742    1.4669   17.4348 N   0  0  0  0  0  0  0  0  0  0  0  0
  1  2  1  0
  2  3  2  0
  3  4  1  0
  4  5  2  0
  5  6  1  0
  5  7  1  0
  7  8  2  0
  7  9  1  0
  9 10  2  0
  9 11  2  0
  9 12  1  0
 12 13  1  0
 13 14  2  0
 14 15  1  0
 15 16  2  0
 16 17  1  0
 17 18  2  0
 18 19  1  0
 19 20  2  0
 19 21  1  0
 21 22  1  0
 22 23  1  0
 23 24  1  0
 24 25  1  0
 25 26  2  0
 26 27  1  0
 27 28  2  0
 28 29  1  0
 29 30  2  0
  8  2  1  0
 18 13  1  0
 30 25  1  0
M  END
