CVD-0003659|dock_bobby27042020.44|mol2|36|dock3
     RDKit          3D

 34 36  0  0  0  0  0  0  0  0999 V2000
   -0.3359   -8.9911   25.0345 C   0  0  0  0  0  0  0  0  0  0  0  0
    0.9703   -9.6111   24.6113 C   0  0  0  0  0  0  0  0  0  0  0  0
    2.0828   -8.6006   24.4095 C   0  0  0  0  0  0  0  0  0  0  0  0
    2.3810   -8.1127   23.1468 C   0  0  0  0  0  0  0  0  0  0  0  0
    3.3930   -7.1882   22.9590 C   0  0  0  0  0  0  0  0  0  0  0  0
    4.1374   -6.7241   24.0371 C   0  0  0  0  0  0  0  0  0  0  0  0
    3.8391   -7.2111   25.3043 C   0  0  0  0  0  0  0  0  0  0  0  0
    2.8254   -8.1355   25.4837 C   0  0  0  0  0  0  0  0  0  0  0  0
    5.2138   -5.7421   23.8420 C   0  0  0  0  0  0  0  0  0  0  0  0
    5.9756   -5.3419   24.8191 N   0  0  0  0  0  0  0  0  0  0  0  0
    6.8475   -4.4207   24.1885 O   0  0  0  0  0  0  0  0  0  0  0  0
    6.4867   -4.3936   22.8972 C   0  0  0  0  0  0  0  0  0  0  0  0
    5.4978   -5.1770   22.6318 N   0  0  0  0  0  0  0  0  0  0  0  0
    7.2336   -3.4946   21.9519 C   0  0  0  0  0  0  0  0  0  0  0  0
    6.3148   -2.4015   21.4233 C   0  0  0  0  0  0  0  0  0  0  0  0
    8.3653   -2.9042   22.6489 N   0  0  0  0  0  0  0  0  0  0  0  0
    9.4588   -2.5000   21.9921 C   0  0  0  0  0  0  0  0  0  0  0  0
    9.5983   -2.5902   20.7733 O   0  0  0  0  0  0  0  0  0  0  0  0
   10.5470   -1.9035   22.8940 C   0  0  0  0  0  0  0  0  0  0  0  0
   10.4596   -1.9205   24.1208 O   0  0  0  0  0  0  0  0  0  0  0  0
   11.5794   -1.3737   22.2277 N   0  0  0  0  0  0  0  0  0  0  0  0
   12.7191   -0.7551   22.9123 C   0  0  0  0  0  0  0  0  0  0  0  0
   13.9995   -1.3389   22.3272 C   0  0  0  0  0  0  0  0  0  0  0  0
   12.6837    0.7556   22.7745 C   0  0  0  0  0  0  0  0  0  0  0  0
   11.4758    1.4387   22.7384 C   0  0  0  0  0  0  0  0  0  0  0  0
   11.4337    2.8154   22.6077 C   0  0  0  0  0  0  0  0  0  0  0  0
   12.6192    3.5250   22.5098 C   0  0  0  0  0  0  0  0  0  0  0  0
   13.8367    2.8654   22.5456 C   0  0  0  0  0  0  0  0  0  0  0  0
   13.8585    1.4883   22.6769 C   0  0  0  0  0  0  0  0  0  0  0  0
   12.5786    5.2776   22.3491 S   0  0  0  0  0  0  0  0  0  0  0  0
   13.4838    5.6423   21.3025 O   0  0  0  0  0  0  0  0  0  0  0  0
   11.2072    5.6775   22.2623 O   0  0  0  0  0  0  0  0  0  0  0  0
   13.1640    5.9079   23.7148 N   0  0  0  0  0  0  0  0  0  0  0  0
   12.3462    5.8395   24.9237 C   0  0  0  0  0  0  0  0  0  0  0  0
  1  2  1  0
  2  3  1  0
  3  4  2  0
  4  5  1  0
  5  6  2  0
  6  7  1  0
  7  8  2  0
  6  9  1  0
  9 10  2  0
 10 11  1  0
 11 12  1  0
 12 13  2  0
 12 14  1  0
 14 15  1  0
 14 16  1  0
 16 17  1  0
 17 18  2  0
 17 19  1  0
 19 20  2  0
 19 21  1  0
 21 22  1  0
 22 23  1  0
 22 24  1  0
 24 25  2  0
 25 26  1  0
 26 27  2  0
 27 28  1  0
 28 29  2  0
 27 30  1  0
 30 31  2  0
 30 32  2  0
 30 33  1  0
 33 34  1  0
  8  3  1  0
 13  9  1  0
 29 24  1  0
M  END
