CVD-0001262|dock_bobby27042020.38|mol2|39|dock3
     RDKit          3D

 30 33  0  0  0  0  0  0  0  0999 V2000
   13.8130    1.1484   22.5671 C   0  0  0  0  0  0  0  0  0  0  0  0
   13.8623   -0.2884   22.9454 C   0  0  0  0  0  0  0  0  0  0  0  0
   12.5159   -0.7471   23.2713 O   0  0  0  0  0  0  0  0  0  0  0  0
   11.6682   -1.0026   22.2765 C   0  0  0  0  0  0  0  0  0  0  0  0
   11.9787   -1.1019   21.1176 O   0  0  0  0  0  0  0  0  0  0  0  0
   10.2479   -1.1843   22.8058 C   0  0  0  0  0  0  0  0  0  0  0  0
   10.0986   -2.2715   23.8694 C   0  0  0  0  0  0  0  0  0  0  0  0
    9.0170   -2.3638   24.7048 C   0  0  0  0  0  0  0  0  0  0  0  0
    7.9556   -1.5570   24.7040 O   0  0  0  0  0  0  0  0  0  0  0  0
    8.9268   -3.4029   25.7151 C   0  0  0  0  0  0  0  0  0  0  0  0
    7.8459   -3.5320   26.5866 C   0  0  0  0  0  0  0  0  0  0  0  0
    7.8322   -4.5476   27.5292 C   0  0  0  0  0  0  0  0  0  0  0  0
    8.8823   -5.4379   27.6159 C   0  0  0  0  0  0  0  0  0  0  0  0
    9.9644   -5.3281   26.7586 C   0  0  0  0  0  0  0  0  0  0  0  0
    9.9807   -4.3132   25.8120 C   0  0  0  0  0  0  0  0  0  0  0  0
   11.0631   -4.2281   24.9698 O   0  0  0  0  0  0  0  0  0  0  0  0
   11.1610   -3.2543   24.0026 C   0  0  0  0  0  0  0  0  0  0  0  0
   12.1678   -3.3359   23.3373 O   0  0  0  0  0  0  0  0  0  0  0  0
    9.2023   -1.2768   21.6969 C   0  0  0  0  0  0  0  0  0  0  0  0
    8.7697   -0.2422   20.9114 C   0  0  0  0  0  0  0  0  0  0  0  0
    9.1935    1.0175   20.9811 O   0  0  0  0  0  0  0  0  0  0  0  0
    7.7610   -0.4451   19.8867 C   0  0  0  0  0  0  0  0  0  0  0  0
    7.2892    0.5771   19.0637 C   0  0  0  0  0  0  0  0  0  0  0  0
    6.3230    0.3079   18.1077 C   0  0  0  0  0  0  0  0  0  0  0  0
    5.8195   -0.9678   17.9597 C   0  0  0  0  0  0  0  0  0  0  0  0
    6.2748   -1.9972   18.7663 C   0  0  0  0  0  0  0  0  0  0  0  0
    7.2430   -1.7321   19.7250 C   0  0  0  0  0  0  0  0  0  0  0  0
    7.6787   -2.7721   20.5113 O   0  0  0  0  0  0  0  0  0  0  0  0
    8.6354   -2.5951   21.4841 C   0  0  0  0  0  0  0  0  0  0  0  0
    8.9221   -3.6024   22.0901 O   0  0  0  0  0  0  0  0  0  0  0  0
  1  2  1  0
  2  3  1  0
  3  4  1  0
  4  5  2  0
  4  6  1  0
  6  7  1  0
  7  8  2  0
  8  9  1  0
  8 10  1  0
 10 11  2  0
 11 12  1  0
 12 13  2  0
 13 14  1  0
 14 15  2  0
 15 16  1  0
 16 17  1  0
 17 18  2  0
  6 19  1  0
 19 20  2  0
 20 21  1  0
 20 22  1  0
 22 23  2  0
 23 24  1  0
 24 25  2  0
 25 26  1  0
 26 27  2  0
 27 28  1  0
 28 29  1  0
 29 30  2  0
 17  7  1  0
 29 19  1  0
 15 10  1  0
 27 22  1  0
M  END
