CVD-0003269|dock_bobby27042020.74|mol2|24|dock2
     RDKit          3D

 36 37  0  0  0  0  0  0  0  0999 V2000
    5.6561   -1.6040   17.7464 N   0  0  0  0  0  0  0  0  0  0  0  0
    6.5054   -0.7341   18.5848 C   0  0  0  0  0  0  0  0  0  0  0  0
    5.9479    0.6407   18.7132 C   0  0  0  0  0  0  0  0  0  0  0  0
    5.8932    1.1799   17.3979 O   0  0  0  0  0  0  0  0  0  0  0  0
    6.6322   -1.3505   19.9703 C   0  0  0  0  0  0  0  0  0  0  0  0
    5.7190   -2.0292   20.4321 O   0  0  0  0  0  0  0  0  0  0  0  0
    7.7761   -1.1069   20.6200 N   0  0  0  0  0  0  0  0  0  0  0  0
    8.0643   -1.6222   21.9520 C   0  0  0  0  0  0  0  0  0  0  0  0
    8.6882   -3.0226   21.8743 C   0  0  0  0  0  0  0  0  0  0  0  0
    8.9870   -3.6330   23.2109 C   0  0  0  0  0  0  0  0  0  0  0  0
   10.1748   -3.6155   23.8813 C   0  0  0  0  0  0  0  0  0  0  0  0
   10.0607   -4.2793   25.0722 N   0  0  0  0  0  0  0  0  0  0  0  0
    8.7760   -4.7476   25.1984 C   0  0  0  0  0  0  0  0  0  0  0  0
    8.1664   -5.4747   26.2151 C   0  0  0  0  0  0  0  0  0  0  0  0
    6.8317   -5.8183   26.0744 C   0  0  0  0  0  0  0  0  0  0  0  0
    6.1235   -5.4470   24.9496 C   0  0  0  0  0  0  0  0  0  0  0  0
    6.7292   -4.7224   23.9353 C   0  0  0  0  0  0  0  0  0  0  0  0
    8.0708   -4.3592   24.0434 C   0  0  0  0  0  0  0  0  0  0  0  0
    8.9777   -0.6904   22.7473 C   0  0  0  0  0  0  0  0  0  0  0  0
    8.6248   -0.2162   23.8242 O   0  0  0  0  0  0  0  0  0  0  0  0
   10.1679   -0.4306   22.2065 N   0  0  0  0  0  0  0  0  0  0  0  0
   11.1206    0.4350   22.8673 C   0  0  0  0  0  0  0  0  0  0  0  0
   10.9332    1.8997   22.5221 C   0  0  0  0  0  0  0  0  0  0  0  0
   10.2340    2.2324   21.5702 O   0  0  0  0  0  0  0  0  0  0  0  0
   11.5607    2.7698   23.3196 N   0  0  0  0  0  0  0  0  0  0  0  0
   11.4680    4.2149   23.1617 C   0  0  0  0  0  0  0  0  0  0  0  0
   10.1395    4.7398   23.7169 C   0  0  0  0  0  0  0  0  0  0  0  0
    9.9155    6.2423   23.5814 C   0  0  0  0  0  0  0  0  0  0  0  0
    8.5904    6.7263   24.1416 C   0  0  0  0  0  0  0  0  0  0  0  0
    7.7206    7.3260   23.1398 N   0  0  0  0  0  0  0  0  0  0  0  0
    7.1153    6.6484   22.1737 C   0  0  0  0  0  0  0  0  0  0  0  0
    6.3363    7.2977   21.3040 N   0  0  0  0  0  0  0  0  0  0  0  0
    7.2741    5.3405   22.0622 N   0  0  0  0  0  0  0  0  0  0  0  0
   12.6377    4.9294   23.8252 C   0  0  0  0  0  0  0  0  0  0  0  0
   13.6529    5.0973   23.0161 O   0  0  0  0  0  0  0  0  0  0  0  0
   12.6307    5.2985   24.9791 O   0  0  0  0  0  0  0  0  0  0  0  0
  2  1  1  0
  2  3  1  0
  3  4  1  0
  2  5  1  0
  5  6  2  0
  5  7  1  0
  7  8  1  0
  8  9  1  0
  9 10  1  0
 10 11  2  0
 11 12  1  0
 12 13  1  0
 13 14  2  0
 14 15  1  0
 15 16  2  0
 16 17  1  0
 17 18  2  0
  8 19  1  0
 19 20  2  0
 19 21  1  0
 21 22  1  0
 22 23  1  0
 23 24  2  0
 23 25  1  0
 25 26  1  0
 26 27  1  0
 27 28  1  0
 28 29  1  0
 29 30  1  0
 30 31  1  0
 31 32  1  0
 31 33  2  0
 26 34  1  0
 34 35  1  0
 34 36  2  0
 18 10  1  0
 18 13  1  0
M  END
