CVD-0002416|dock_bobby27042020.63|mol2|23|dock3
     RDKit          3D

 27 30  0  0  0  0  0  0  0  0999 V2000
    8.4511   -1.7947   20.4686 C   0  0  0  0  0  0  0  0  0  0  0  0
    8.7332   -1.4877   21.8435 O   0  0  0  0  0  0  0  0  0  0  0  0
   10.0281   -0.9550   22.1610 C   0  0  0  0  0  0  0  0  0  0  0  0
   10.4342   -1.1487   23.6169 C   0  0  0  0  0  0  0  0  0  0  0  0
   11.7412   -0.4596   23.9568 C   0  0  0  0  0  0  0  0  0  0  0  0
   11.6971    0.9748   23.6487 N   0  0  0  0  0  0  0  0  0  0  0  0
   12.9496    1.6287   24.0335 C   0  0  0  0  0  0  0  0  0  0  0  0
   13.0493    3.0699   23.6010 C   0  0  0  0  0  0  0  0  0  0  0  0
   14.0390    3.5867   22.7292 C   0  0  0  0  0  0  0  0  0  0  0  0
   13.9365    4.9228   22.4849 C   0  0  0  0  0  0  0  0  0  0  0  0
   12.6104    5.5595   23.3337 S   0  0  0  0  0  0  0  0  0  0  0  0
   12.2014    4.0541   24.0098 C   0  0  0  0  0  0  0  0  0  0  0  0
   11.4221    1.1547   22.2207 C   0  0  0  0  0  0  0  0  0  0  0  0
   10.0886    0.5341   21.8388 C   0  0  0  0  0  0  0  0  0  0  0  0
    7.0390   -1.5066   20.0339 C   0  0  0  0  0  0  0  0  0  0  0  0
    6.7560   -0.0363   20.1642 C   0  0  0  0  0  0  0  0  0  0  0  0
    5.3955    0.2535   19.7085 N   0  0  0  0  0  0  0  0  0  0  0  0
    5.0581    1.6799   19.8198 C   0  0  0  0  0  0  0  0  0  0  0  0
    3.5715    1.9441   19.8345 C   0  0  0  0  0  0  0  0  0  0  0  0
    2.9836    2.7379   18.8620 C   0  0  0  0  0  0  0  0  0  0  0  0
    1.6197    2.9777   18.8737 C   0  0  0  0  0  0  0  0  0  0  0  0
    0.8282    2.4255   19.8578 C   0  0  0  0  0  0  0  0  0  0  0  0
    1.4003    1.6333   20.8299 C   0  0  0  0  0  0  0  0  0  0  0  0
    2.7642    1.3936   20.8179 C   0  0  0  0  0  0  0  0  0  0  0  0
    5.2528   -0.2049   18.3290 C   0  0  0  0  0  0  0  0  0  0  0  0
    5.5736   -1.6734   18.2326 C   0  0  0  0  0  0  0  0  0  0  0  0
    6.8830   -1.9537   18.6971 O   0  0  0  0  0  0  0  0  0  0  0  0
  1  2  1  0
  2  3  1  0
  3  4  1  0
  4  5  1  0
  5  6  1  0
  6  7  1  0
  7  8  1  0
  8  9  1  0
  9 10  2  0
 10 11  1  0
 11 12  1  0
  6 13  1  0
 13 14  1  0
  1 15  1  0
 15 16  1  0
 16 17  1  0
 17 18  1  0
 18 19  1  0
 19 20  2  0
 20 21  1  0
 21 22  2  0
 22 23  1  0
 23 24  2  0
 17 25  1  0
 25 26  1  0
 26 27  1  0
 14  3  1  0
 27 15  1  0
 12  8  2  0
 24 19  1  0
M  END
