CVD-0000480|dock_bobby27042020.84|mol2|12|dock2
     RDKit          3D

 16 17  0  0  0  0  0  0  0  0999 V2000
    4.2160    0.4963   21.5251 F   0  0  0  0  0  0  0  0  0  0  0  0
    5.2171    0.4560   20.6048 C   0  0  0  0  0  0  0  0  0  0  0  0
    4.9987    1.0274   19.3820 C   0  0  0  0  0  0  0  0  0  0  0  0
    6.0233    0.9809   18.4535 C   0  0  0  0  0  0  0  0  0  0  0  0
    7.2258    0.3711   18.7688 C   0  0  0  0  0  0  0  0  0  0  0  0
    7.4237   -0.2032   20.0195 C   0  0  0  0  0  0  0  0  0  0  0  0
    8.6789   -0.8104   20.2745 N   0  0  0  0  0  0  0  0  0  0  0  0
    9.3573   -1.0067   21.4528 C   0  0  0  0  0  0  0  0  0  0  0  0
    8.9714   -0.6687   22.5680 O   0  0  0  0  0  0  0  0  0  0  0  0
   10.5823   -1.6541   21.2709 N   0  0  0  0  0  0  0  0  0  0  0  0
   11.5091   -1.9986   22.2780 C   0  0  0  0  0  0  0  0  0  0  0  0
   12.9236   -1.8733   22.1163 C   0  0  0  0  0  0  0  0  0  0  0  0
   13.4968   -2.2949   23.2832 C   0  0  0  0  0  0  0  0  0  0  0  0
   12.5076   -2.6651   24.1334 N   0  0  0  0  0  0  0  0  0  0  0  0
   11.2931   -2.4911   23.5375 C   0  0  0  0  0  0  0  0  0  0  0  0
    6.3938   -0.1584   20.9579 C   0  0  0  0  0  0  0  0  0  0  0  0
  1  2  1  0
  2  3  2  0
  3  4  1  0
  4  5  2  0
  5  6  1  0
  6  7  1  0
  7  8  1  0
  8  9  2  0
  8 10  1  0
 10 11  1  0
 11 12  1  0
 12 13  2  0
 13 14  1  0
 14 15  1  0
  6 16  2  0
 16  2  1  0
 15 11  2  0
M  END
