CVD-0001364|dock_bobby27042020.24|mol2|12|dock3
     RDKit          3D

 27 30  0  0  0  0  0  0  0  0999 V2000
   10.5443   -2.4811   23.7618 C   0  0  0  0  0  0  0  0  0  0  0  0
   11.0893   -1.1789   23.1283 C   0  0  0  0  0  0  0  0  0  0  0  0
   10.7258   -1.1230   21.6300 C   0  0  0  0  0  0  0  0  0  0  0  0
    9.4642   -0.2572   21.3535 C   0  0  0  0  0  0  0  0  0  0  0  0
    9.8255    1.1204   21.2353 O   0  0  0  0  0  0  0  0  0  0  0  0
    8.4463   -0.4247   22.4790 C   0  0  0  0  0  0  0  0  0  0  0  0
    8.9660    0.2323   23.7747 C   0  0  0  0  0  0  0  0  0  0  0  0
    8.7461    1.6999   23.7337 N   0  0  0  0  0  0  0  0  0  0  0  0
    8.2626   -0.3959   24.9840 C   0  0  0  0  0  0  0  0  0  0  0  0
    6.8055   -0.8037   24.6762 C   0  0  0  0  0  0  0  0  0  0  0  0
    6.2677    0.0590   23.5725 C   0  0  0  0  0  0  0  0  0  0  0  0
    5.4136    1.0738   23.7896 C   0  0  0  0  0  0  0  0  0  0  0  0
    5.4680    2.2832   22.9701 C   0  0  0  0  0  0  0  0  0  0  0  0
    4.8766    3.3220   23.2776 O   0  0  0  0  0  0  0  0  0  0  0  0
    6.1459    2.1675   21.6794 C   0  0  0  0  0  0  0  0  0  0  0  0
    6.7281    1.0344   21.3079 C   0  0  0  0  0  0  0  0  0  0  0  0
    6.9396   -0.1423   22.2188 C   0  0  0  0  0  0  0  0  0  0  0  0
    6.2733   -1.3573   21.5223 C   0  0  0  0  0  0  0  0  0  0  0  0
   10.4986    0.0438   23.8347 C   0  0  0  0  0  0  0  0  0  0  0  0
   11.3476    1.1966   23.2671 C   0  0  0  0  0  0  0  0  0  0  0  0
   12.7382    0.5790   23.0409 C   0  0  0  0  0  0  0  0  0  0  0  0
   12.6216   -0.9339   23.3635 C   0  0  0  0  0  0  0  0  0  0  0  0
   13.3363   -1.7404   22.4194 O   0  0  0  0  0  0  0  0  0  0  0  0
   13.0515   -1.2745   24.7879 C   0  0  0  0  0  0  0  0  0  0  0  0
   12.8405   -0.5335   25.7206 O   0  0  0  0  0  0  0  0  0  0  0  0
   13.8002   -2.5625   25.0210 C   0  0  0  0  0  0  0  0  0  0  0  0
   15.2044   -2.3872   24.9656 O   0  0  0  0  0  0  0  0  0  0  0  0
  1  2  1  0
  2  3  1  0
  3  4  1  0
  4  5  1  0
  4  6  1  0
  6  7  1  0
  7  8  1  0
  7  9  1  0
  9 10  1  0
 10 11  1  0
 11 12  2  0
 12 13  1  0
 13 14  2  0
 13 15  1  0
 15 16  2  0
 16 17  1  0
 17 18  1  0
  7 19  1  0
 19 20  1  0
 20 21  1  0
 21 22  1  0
 22 23  1  0
 22 24  1  0
 24 25  2  0
 24 26  1  0
 26 27  1  0
 19  2  1  0
 22  2  1  0
 17  6  1  0
 17 11  1  0
M  END
