CVD-0001205|dock_bobby27042020.10|mol2|26|dock3
     RDKit          3D

 27 30  0  0  0  0  0  0  0  0999 V2000
   11.8463    6.8538   26.0651 C   0  0  0  0  0  0  0  0  0  0  0  0
   12.6158    6.8982   24.7778 C   0  0  0  0  0  0  0  0  0  0  0  0
   13.1244    7.9340   24.3606 O   0  0  0  0  0  0  0  0  0  0  0  0
   12.7291    5.7420   24.1211 N   0  0  0  0  0  0  0  0  0  0  0  0
   13.4595    5.6196   22.8676 C   0  0  0  0  0  0  0  0  0  0  0  0
   13.9469    4.2036   22.6333 C   0  0  0  0  0  0  0  0  0  0  0  0
   12.8277    3.2190   22.4610 C   0  0  0  0  0  0  0  0  0  0  0  0
   11.5080    3.4935   22.2556 C   0  0  0  0  0  0  0  0  0  0  0  0
   10.7912    2.3335   22.1461 N   0  0  0  0  0  0  0  0  0  0  0  0
   11.6500    1.2700   22.2812 C   0  0  0  0  0  0  0  0  0  0  0  0
   11.4053   -0.1094   22.2454 C   0  0  0  0  0  0  0  0  0  0  0  0
   10.1255   -0.5661   22.0473 N   0  0  0  0  0  0  0  0  0  0  0  0
    9.8412   -1.8931   21.5380 C   0  0  0  0  0  0  0  0  0  0  0  0
    8.6051   -1.9661   20.6745 C   0  0  0  0  0  0  0  0  0  0  0  0
    7.8137   -3.1068   20.6635 C   0  0  0  0  0  0  0  0  0  0  0  0
    6.6780   -3.1929   19.8752 C   0  0  0  0  0  0  0  0  0  0  0  0
    6.3165   -2.1127   19.0712 C   0  0  0  0  0  0  0  0  0  0  0  0
    5.2479   -1.9304   18.1982 N   0  0  0  0  0  0  0  0  0  0  0  0
    5.4211   -0.7158   17.7179 C   0  0  0  0  0  0  0  0  0  0  0  0
    6.5130   -0.0883   18.2033 N   0  0  0  0  0  0  0  0  0  0  0  0
    7.1073   -0.9657   19.0769 C   0  0  0  0  0  0  0  0  0  0  0  0
    8.2443   -0.8907   19.8717 C   0  0  0  0  0  0  0  0  0  0  0  0
   12.4848   -0.9728   22.4148 C   0  0  0  0  0  0  0  0  0  0  0  0
   13.7374   -0.4397   22.6083 C   0  0  0  0  0  0  0  0  0  0  0  0
   14.7766   -1.3023   22.7713 F   0  0  0  0  0  0  0  0  0  0  0  0
   14.0089    0.9065   22.6482 C   0  0  0  0  0  0  0  0  0  0  0  0
   12.9437    1.7887   22.4813 C   0  0  0  0  0  0  0  0  0  0  0  0
  1  2  1  0
  2  3  2  0
  2  4  1  0
  4  5  1  0
  5  6  1  0
  6  7  1  0
  7  8  2  0
  8  9  1  0
  9 10  1  0
 10 11  2  0
 11 12  1  0
 12 13  1  0
 13 14  1  0
 14 15  2  0
 15 16  1  0
 16 17  2  0
 17 18  1  0
 18 19  2  0
 19 20  1  0
 20 21  1  0
 21 22  2  0
 11 23  1  0
 23 24  2  0
 24 25  1  0
 24 26  1  0
 26 27  2  0
 27  7  1  0
 27 10  1  0
 22 14  1  0
 21 17  1  0
M  END
