CVD-0000666|dock_bobby27042020.69|mol2|31|dock2
     RDKit          3D

 25 27  0  0  0  0  0  0  0  0999 V2000
   13.6086    4.5583   22.3260 C   0  0  0  0  0  0  0  0  0  0  0  0
   12.3276    4.7353   23.5070 S   0  0  0  0  0  0  0  0  0  0  0  0
   11.3073    5.5587   22.9352 O   0  0  0  0  0  0  0  0  0  0  0  0
   12.9182    5.1407   24.7451 O   0  0  0  0  0  0  0  0  0  0  0  0
   11.6832    3.2869   23.7461 N   0  0  0  0  0  0  0  0  0  0  0  0
   10.9972    2.6012   22.6461 C   0  0  0  0  0  0  0  0  0  0  0  0
   10.4778    1.2103   23.0352 C   0  0  0  0  0  0  0  0  0  0  0  0
    9.8136    0.5790   21.8162 C   0  0  0  0  0  0  0  0  0  0  0  0
    9.8352    1.1673   20.7520 O   0  0  0  0  0  0  0  0  0  0  0  0
    9.2012   -0.6354   21.9019 N   0  0  0  0  0  0  0  0  0  0  0  0
    9.4620   -1.6243   22.9743 C   0  0  0  0  0  0  0  0  0  0  0  0
    8.4838   -2.7839   22.6838 C   0  0  0  0  0  0  0  0  0  0  0  0
    7.6751   -2.2999   21.5130 C   0  0  0  0  0  0  0  0  0  0  0  0
    6.6108   -2.8966   20.8476 C   0  0  0  0  0  0  0  0  0  0  0  0
    6.0050   -2.1880   19.8301 C   0  0  0  0  0  0  0  0  0  0  0  0
    6.3832   -0.9664   19.4515 N   0  0  0  0  0  0  0  0  0  0  0  0
    7.4093   -0.3903   20.0926 C   0  0  0  0  0  0  0  0  0  0  0  0
    8.0822   -1.0237   21.1293 C   0  0  0  0  0  0  0  0  0  0  0  0
   11.6039    0.3136   23.5249 C   0  0  0  0  0  0  0  0  0  0  0  0
   12.4233   -0.3542   22.6257 C   0  0  0  0  0  0  0  0  0  0  0  0
   13.4518   -1.1694   23.0637 C   0  0  0  0  0  0  0  0  0  0  0  0
   13.6606   -1.3152   24.4175 C   0  0  0  0  0  0  0  0  0  0  0  0
   14.9524   -2.3395   24.9785 Cl  0  0  0  0  0  0  0  0  0  0  0  0
   12.8655   -0.6649   25.3354 C   0  0  0  0  0  0  0  0  0  0  0  0
   11.8409    0.1469   24.8820 C   0  0  0  0  0  0  0  0  0  0  0  0
  1  2  1  0
  2  3  2  0
  2  4  2  0
  2  5  1  0
  5  6  1  0
  7  6  1  0
  7  8  1  0
  8  9  2  0
  8 10  1  0
 10 11  1  0
 11 12  1  0
 12 13  1  0
 13 14  2  0
 14 15  1  0
 15 16  2  0
 16 17  1  0
 17 18  2  0
  7 19  1  0
 19 20  2  0
 20 21  1  0
 21 22  2  0
 22 23  1  0
 22 24  1  0
 24 25  2  0
 18 10  1  0
 25 19  1  0
 18 13  1  0
M  END
