CVD-0000339|dock_bobby27042020.42|mol2|3|dock2
     RDKit          3D

 28 31  0  0  0  0  0  0  0  0999 V2000
    4.7975    0.5277   21.2269 C   0  0  0  0  0  0  0  0  0  0  0  0
    5.4492    0.4838   19.8692 C   0  0  0  0  0  0  0  0  0  0  0  0
    4.7849    1.1168   18.8209 C   0  0  0  0  0  0  0  0  0  0  0  0
    5.3556    1.1752   17.5676 C   0  0  0  0  0  0  0  0  0  0  0  0
    6.5451    0.6532   17.2819 N   0  0  0  0  0  0  0  0  0  0  0  0
    7.1724    0.0108   18.2701 C   0  0  0  0  0  0  0  0  0  0  0  0
    6.6842   -0.1280   19.5758 C   0  0  0  0  0  0  0  0  0  0  0  0
    7.5125   -0.9051   20.5403 C   0  0  0  0  0  0  0  0  0  0  0  0
    6.9877   -2.1051   21.1025 C   0  0  0  0  0  0  0  0  0  0  0  0
    7.6913   -2.8464   21.9831 C   0  0  0  0  0  0  0  0  0  0  0  0
    9.0055   -2.4750   22.4128 C   0  0  0  0  0  0  0  0  0  0  0  0
    9.6360   -3.1366   23.2360 O   0  0  0  0  0  0  0  0  0  0  0  0
    9.5165   -1.2873   21.8378 N   0  0  0  0  0  0  0  0  0  0  0  0
    8.7702   -0.5444   20.9437 C   0  0  0  0  0  0  0  0  0  0  0  0
   10.8371   -0.7887   22.1677 C   0  0  0  0  0  0  0  0  0  0  0  0
   11.9437   -1.6293   22.2337 C   0  0  0  0  0  0  0  0  0  0  0  0
   13.1867   -1.1257   22.5707 C   0  0  0  0  0  0  0  0  0  0  0  0
   13.3467    0.2230   22.8260 C   0  0  0  0  0  0  0  0  0  0  0  0
   12.2597    1.0831   22.7465 C   0  0  0  0  0  0  0  0  0  0  0  0
   12.4965    2.4560   23.0096 N   0  0  0  0  0  0  0  0  0  0  0  0
   13.5654    3.2506   22.7408 C   0  0  0  0  0  0  0  0  0  0  0  0
   14.5980    2.8925   22.1777 O   0  0  0  0  0  0  0  0  0  0  0  0
   13.4372    4.6480   23.1754 C   0  0  0  0  0  0  0  0  0  0  0  0
   13.6585    5.8278   22.5552 C   0  0  0  0  0  0  0  0  0  0  0  0
   13.3579    6.8444   23.4926 C   0  0  0  0  0  0  0  0  0  0  0  0
   12.9784    6.2367   24.6076 C   0  0  0  0  0  0  0  0  0  0  0  0
   13.0127    4.8768   24.4556 O   0  0  0  0  0  0  0  0  0  0  0  0
   11.0037    0.5725   22.4187 C   0  0  0  0  0  0  0  0  0  0  0  0
  1  2  1  0
  2  3  2  0
  3  4  1  0
  4  5  2  0
  5  6  1  0
  6  7  2  0
  7  8  1  0
  8  9  1  0
  9 10  2  0
 10 11  1  0
 11 12  2  0
 11 13  1  0
 13 14  1  0
 13 15  1  0
 15 16  2  0
 16 17  1  0
 17 18  2  0
 18 19  1  0
 19 20  1  0
 20 21  1  0
 21 22  2  0
 21 23  1  0
 23 24  2  0
 24 25  1  0
 25 26  2  0
 26 27  1  0
 19 28  2  0
  7  2  1  0
 14  8  2  0
 28 15  1  0
 27 23  1  0
M  END
