CVD-0004011|dock_bobby27042020.72|mol2|7|dock2
     RDKit          3D

 27 29  0  0  0  0  0  0  0  0999 V2000
   11.5410   -0.2563   25.4023 C   0  0  0  0  0  0  0  0  0  0  0  0
   12.8112   -0.7052   24.6828 C   0  0  0  0  0  0  0  0  0  0  0  0
   13.7669   -1.4057   25.6546 C   0  0  0  0  0  0  0  0  0  0  0  0
   14.8494   -2.1568   24.9602 C   0  0  0  0  0  0  0  0  0  0  0  0
   14.9247   -2.4546   23.7366 N   0  0  0  0  0  0  0  0  0  0  0  0
   13.8117   -2.0837   22.7996 C   0  0  0  0  0  0  0  0  0  0  0  0
   12.5208   -1.6881   23.5350 C   0  0  0  0  0  0  0  0  0  0  0  0
   11.5932   -1.1277   22.5573 N   0  0  0  0  0  0  0  0  0  0  0  0
   10.3220   -1.5174   22.4383 C   0  0  0  0  0  0  0  0  0  0  0  0
    9.8124   -2.3849   23.1409 O   0  0  0  0  0  0  0  0  0  0  0  0
    9.5002   -0.8414   21.3695 C   0  0  0  0  0  0  0  0  0  0  0  0
    8.7258    0.2400   21.8620 O   0  0  0  0  0  0  0  0  0  0  0  0
    7.8131   -0.1201   22.8606 C   0  0  0  0  0  0  0  0  0  0  0  0
    6.7356    0.8524   22.9770 N   0  0  0  0  0  0  0  0  0  0  0  0
    6.3359    1.2577   24.3180 C   0  0  0  0  0  0  0  0  0  0  0  0
    5.6810    2.6266   24.2745 C   0  0  0  0  0  0  0  0  0  0  0  0
    4.4715    2.5932   23.3636 C   0  0  0  0  0  0  0  0  0  0  0  0
    4.8337    2.0442   22.0046 C   0  0  0  0  0  0  0  0  0  0  0  0
    4.0806    2.3600   20.8797 C   0  0  0  0  0  0  0  0  0  0  0  0
    4.3616    1.8030   19.6476 C   0  0  0  0  0  0  0  0  0  0  0  0
    5.4166    0.9128   19.5386 C   0  0  0  0  0  0  0  0  0  0  0  0
    6.1889    0.5752   20.6400 C   0  0  0  0  0  0  0  0  0  0  0  0
    5.9069    1.1363   21.8844 C   0  0  0  0  0  0  0  0  0  0  0  0
    5.8216    0.2290   17.9601 S   0  0  0  0  0  0  0  0  0  0  0  0
    5.6479   -1.3607   18.0362 N   0  0  0  0  0  0  0  0  0  0  0  0
    7.2094    0.4923   17.7233 O   0  0  0  0  0  0  0  0  0  0  0  0
    4.8552    0.7163   17.0223 O   0  0  0  0  0  0  0  0  0  0  0  0
  1  2  1  0
  2  3  1  0
  3  4  1  0
  4  5  2  0
  5  6  1  0
  6  7  1  0
  7  8  1  0
  8  9  1  0
  9 10  2  0
  9 11  1  0
 11 12  1  0
 12 13  1  0
 13 14  1  0
 14 15  1  0
 15 16  1  0
 16 17  1  0
 17 18  1  0
 18 19  2  0
 19 20  1  0
 20 21  2  0
 21 22  1  0
 22 23  2  0
 21 24  1  0
 24 25  1  0
 24 26  2  0
 24 27  2  0
  7  2  1  0
 23 14  1  0
 23 18  1  0
M  END
