CVD-0000528|dock_bobby27042020.98|mol2|17|dock1
     RDKit          3D

 23 24  0  0  0  0  0  0  0  0999 V2000
   12.7322    6.4171   24.4198 C   0  0  0  0  0  0  0  0  0  0  0  0
   12.1540    5.5754   23.3205 C   0  0  0  0  0  0  0  0  0  0  0  0
   11.0219    5.7632   22.8860 O   0  0  0  0  0  0  0  0  0  0  0  0
   12.9485    4.6214   22.8311 N   0  0  0  0  0  0  0  0  0  0  0  0
   12.5378    3.7352   21.7515 C   0  0  0  0  0  0  0  0  0  0  0  0
   11.3993    2.8227   22.1707 C   0  0  0  0  0  0  0  0  0  0  0  0
   11.8795    1.4821   22.6716 C   0  0  0  0  0  0  0  0  0  0  0  0
   12.9363    1.3912   23.5637 C   0  0  0  0  0  0  0  0  0  0  0  0
   13.3673    0.1573   24.0206 C   0  0  0  0  0  0  0  0  0  0  0  0
   12.7417   -0.9993   23.5873 C   0  0  0  0  0  0  0  0  0  0  0  0
   11.6830   -0.9337   22.6955 C   0  0  0  0  0  0  0  0  0  0  0  0
   10.9912   -2.1912   22.2200 C   0  0  0  0  0  0  0  0  0  0  0  0
    9.4818   -2.0901   22.3139 C   0  0  0  0  0  0  0  0  0  0  0  0
    8.8937   -2.2241   23.3825 O   0  0  0  0  0  0  0  0  0  0  0  0
    8.8474   -1.8404   21.1716 N   0  0  0  0  0  0  0  0  0  0  0  0
    7.4001   -1.7058   21.0987 C   0  0  0  0  0  0  0  0  0  0  0  0
    6.9378   -0.8460   19.9473 C   0  0  0  0  0  0  0  0  0  0  0  0
    5.9948   -1.2940   19.0374 C   0  0  0  0  0  0  0  0  0  0  0  0
    5.6017   -0.4741   17.9942 C   0  0  0  0  0  0  0  0  0  0  0  0
    6.1694    0.7757   17.8942 C   0  0  0  0  0  0  0  0  0  0  0  0
    7.0803    1.2345   18.7539 N   0  0  0  0  0  0  0  0  0  0  0  0
    7.4446    0.4251   19.7530 C   0  0  0  0  0  0  0  0  0  0  0  0
   11.2620    0.3121   22.2479 C   0  0  0  0  0  0  0  0  0  0  0  0
  1  2  1  0
  2  3  2  0
  2  4  1  0
  4  5  1  0
  5  6  1  0
  6  7  1  0
  7  8  2  0
  8  9  1  0
  9 10  2  0
 10 11  1  0
 11 12  1  0
 12 13  1  0
 13 14  2  0
 13 15  1  0
 15 16  1  0
 16 17  1  0
 17 18  2  0
 18 19  1  0
 19 20  2  0
 20 21  1  0
 21 22  2  0
 11 23  2  0
 23  7  1  0
 22 17  1  0
M  END
