CVD-0003122|dock_bobby27042020.3|mol2|12|dock2
     RDKit          3D

 18 20  0  0  0  0  0  0  0  0999 V2000
    7.1492   -2.8300   26.4588 O   0  0  0  0  0  0  0  0  0  0  0  0
    8.1406   -3.7488   26.3260 C   0  0  0  0  0  0  0  0  0  0  0  0
    8.3403   -4.7281   27.2898 C   0  0  0  0  0  0  0  0  0  0  0  0
    9.3631   -5.6438   27.1143 C   0  0  0  0  0  0  0  0  0  0  0  0
   10.1428   -5.5423   25.9841 C   0  0  0  0  0  0  0  0  0  0  0  0
    9.9680   -4.6054   25.0416 N   0  0  0  0  0  0  0  0  0  0  0  0
    8.9764   -3.7177   25.2089 C   0  0  0  0  0  0  0  0  0  0  0  0
    8.8211   -2.6781   24.1202 C   0  0  0  0  0  0  0  0  0  0  0  0
    9.8580   -2.7279   23.0808 N   0  0  0  0  0  0  0  0  0  0  0  0
    9.4610   -1.9059   21.9018 C   0  0  0  0  0  0  0  0  0  0  0  0
   10.7104   -1.0192   21.6307 C   0  0  0  0  0  0  0  0  0  0  0  0
   11.6505   -1.2671   22.7496 C   0  0  0  0  0  0  0  0  0  0  0  0
   11.1779   -2.4219   23.5636 C   0  0  0  0  0  0  0  0  0  0  0  0
   13.0044   -1.6704   22.1735 C   0  0  0  0  0  0  0  0  0  0  0  0
   14.0362   -1.7937   23.2765 C   0  0  0  0  0  0  0  0  0  0  0  0
   14.1728   -0.5707   24.0051 O   0  0  0  0  0  0  0  0  0  0  0  0
   12.9372   -0.2436   24.6432 C   0  0  0  0  0  0  0  0  0  0  0  0
   11.8267   -0.0347   23.6294 C   0  0  0  0  0  0  0  0  0  0  0  0
  1  2  1  0
  2  3  2  0
  3  4  1  0
  4  5  2  0
  5  6  1  0
  6  7  2  0
  7  8  1  0
  8  9  1  0
  9 10  1  0
 10 11  1  0
 11 12  1  0
 12 13  1  0
 12 14  1  0
 14 15  1  0
 15 16  1  0
 16 17  1  0
 17 18  1  0
  7  2  1  0
 13  9  1  0
 18 12  1  0
M  END
