CVD-0000964|dock_bobby27042020.82|mol2|34|dock2
     RDKit          3D

 26 29  0  0  0  0  0  0  0  0999 V2000
   12.8199    3.4029   22.3397 C   0  0  0  0  0  0  0  0  0  0  0  0
   12.3083    2.0018   22.5077 C   0  0  0  0  0  0  0  0  0  0  0  0
   13.0647    1.0616   22.3052 O   0  0  0  0  0  0  0  0  0  0  0  0
   11.0040    1.8484   22.8575 N   0  0  0  0  0  0  0  0  0  0  0  0
   10.0997    3.0056   22.9161 C   0  0  0  0  0  0  0  0  0  0  0  0
    8.6557    2.5636   22.8200 C   0  0  0  0  0  0  0  0  0  0  0  0
    8.4926    1.5573   21.7589 N   0  0  0  0  0  0  0  0  0  0  0  0
    7.1204    1.0317   21.7072 C   0  0  0  0  0  0  0  0  0  0  0  0
    6.9055    0.0753   20.5712 C   0  0  0  0  0  0  0  0  0  0  0  0
    6.1391   -1.0704   20.5899 C   0  0  0  0  0  0  0  0  0  0  0  0
    6.1611   -1.7244   19.3342 C   0  0  0  0  0  0  0  0  0  0  0  0
    6.9095   -1.0921   18.4153 C   0  0  0  0  0  0  0  0  0  0  0  0
    7.6185    0.3272   19.0428 S   0  0  0  0  0  0  0  0  0  0  0  0
    9.4605    0.4453   21.9127 C   0  0  0  0  0  0  0  0  0  0  0  0
    8.9927   -0.9927   22.0606 C   0  0  0  0  0  0  0  0  0  0  0  0
   10.2398   -1.6746   22.5554 C   0  0  0  0  0  0  0  0  0  0  0  0
   10.5008   -2.8658   22.4522 O   0  0  0  0  0  0  0  0  0  0  0  0
   10.9868   -0.7026   23.1817 N   0  0  0  0  0  0  0  0  0  0  0  0
   10.2824    0.5888   23.1105 C   0  0  0  0  0  0  0  0  0  0  0  0
   12.1745   -0.9272   23.9679 C   0  0  0  0  0  0  0  0  0  0  0  0
   12.1581   -0.4711   25.2780 C   0  0  0  0  0  0  0  0  0  0  0  0
   13.1607   -0.6620   26.1402 N   0  0  0  0  0  0  0  0  0  0  0  0
   14.2190   -1.3390   25.7004 C   0  0  0  0  0  0  0  0  0  0  0  0
   14.3446   -1.7917   24.4043 C   0  0  0  0  0  0  0  0  0  0  0  0
   13.3246   -1.5594   23.4854 C   0  0  0  0  0  0  0  0  0  0  0  0
   13.5418   -1.9759   22.0542 C   0  0  0  0  0  0  0  0  0  0  0  0
  1  2  1  0
  2  3  2  0
  2  4  1  0
  4  5  1  0
  5  6  1  0
  6  7  1  0
  7  8  1  0
  8  9  1  0
  9 10  2  0
 10 11  1  0
 11 12  2  0
 12 13  1  0
  7 14  1  0
 14 15  1  0
 15 16  1  0
 16 17  2  0
 16 18  1  0
 18 19  1  0
 18 20  1  0
 20 21  2  0
 21 22  1  0
 22 23  2  0
 23 24  1  0
 24 25  2  0
 25 26  1  0
 19  4  1  0
 25 20  1  0
 13  9  1  0
 19 14  1  0
M  END
