CVD-0003731|dock_bobby27042020.44|mol2|25|dock2
     RDKit          3D

 25 27  0  0  0  0  0  0  0  0999 V2000
   12.7096   -0.9442   21.8829 C   0  0  0  0  0  0  0  0  0  0  0  0
   12.2707    0.5024   21.9483 C   0  0  0  0  0  0  0  0  0  0  0  0
   13.1573    1.4689   22.4505 C   0  0  0  0  0  0  0  0  0  0  0  0
   14.4428    1.1584   22.8359 N   0  0  0  0  0  0  0  0  0  0  0  0
   12.7169    2.7825   22.5600 C   0  0  0  0  0  0  0  0  0  0  0  0
   11.4999    3.1853   22.2020 N   0  0  0  0  0  0  0  0  0  0  0  0
   10.6724    2.2756   21.6832 C   0  0  0  0  0  0  0  0  0  0  0  0
   10.9934    0.9269   21.5314 C   0  0  0  0  0  0  0  0  0  0  0  0
   10.0990   -0.0315   20.9761 N   0  0  0  0  0  0  0  0  0  0  0  0
    8.7555   -0.1615   21.1084 C   0  0  0  0  0  0  0  0  0  0  0  0
    8.0277    0.5678   21.7737 O   0  0  0  0  0  0  0  0  0  0  0  0
    8.1967   -1.3368   20.3309 C   0  0  0  0  0  0  0  0  0  0  0  0
    6.7002   -1.6840   20.5518 C   0  0  0  0  0  0  0  0  0  0  0  0
    6.4951   -2.0719   22.0156 C   0  0  0  0  0  0  0  0  0  0  0  0
    7.2079   -3.3714   22.3461 C   0  0  0  0  0  0  0  0  0  0  0  0
    6.7808   -4.4928   21.4216 C   0  0  0  0  0  0  0  0  0  0  0  0
    6.9941   -4.1135   19.9655 C   0  0  0  0  0  0  0  0  0  0  0  0
    6.2782   -2.8164   19.6214 C   0  0  0  0  0  0  0  0  0  0  0  0
    6.0479   -0.3525   20.1427 C   0  0  0  0  0  0  0  0  0  0  0  0
    5.3338    0.4392   21.0417 C   0  0  0  0  0  0  0  0  0  0  0  0
    4.7449    1.6299   20.6497 C   0  0  0  0  0  0  0  0  0  0  0  0
    4.8584    2.0709   19.3441 C   0  0  0  0  0  0  0  0  0  0  0  0
    5.5703    1.3008   18.4541 C   0  0  0  0  0  0  0  0  0  0  0  0
    5.7327    1.8370   16.8052 Cl  0  0  0  0  0  0  0  0  0  0  0  0
    6.1602    0.1130   18.8347 C   0  0  0  0  0  0  0  0  0  0  0  0
  1  2  1  0
  2  3  2  0
  3  4  1  0
  3  5  1  0
  5  6  2  0
  6  7  1  0
  7  8  2  0
  8  9  1  0
  9 10  1  0
 10 11  2  0
 10 12  1  0
 12 13  1  0
 13 14  1  0
 14 15  1  0
 15 16  1  0
 16 17  1  0
 17 18  1  0
 13 19  1  0
 19 20  2  0
 20 21  1  0
 21 22  2  0
 22 23  1  0
 23 24  1  0
 23 25  2  0
  8  2  1  0
 18 13  1  0
 25 19  1  0
M  END
