CVD-0001669|dock_bobby27042020.52|mol2|1|dock2
     RDKit          3D

 53 58  0  0  0  0  0  0  0  0999 V2000
   12.0656    0.1067   25.8330 C   0  0  0  0  0  0  0  0  0  0  0  0
   12.0144    0.3245   24.3268 C   0  0  0  0  0  0  0  0  0  0  0  0
   11.7489    1.7295   23.9985 N   0  0  0  0  0  0  0  0  0  0  0  0
   12.3244    2.3061   22.9418 C   0  0  0  0  0  0  0  0  0  0  0  0
   13.0832    1.6728   22.2139 O   0  0  0  0  0  0  0  0  0  0  0  0
   12.0056    3.7867   22.6915 C   0  0  0  0  0  0  0  0  0  0  0  0
   12.6637    4.6422   23.7820 C   0  0  0  0  0  0  0  0  0  0  0  0
   12.5187    6.1437   23.5682 C   0  0  0  0  0  0  0  0  0  0  0  0
   13.1873    6.9349   24.6748 C   0  0  0  0  0  0  0  0  0  0  0  0
   12.2235    7.4723   25.6246 N   0  0  0  0  0  0  0  0  0  0  0  0
   12.3223    8.6655   26.1954 C   0  0  0  0  0  0  0  0  0  0  0  0
   11.3802    9.0627   27.0552 N   0  0  0  0  0  0  0  0  0  0  0  0
   13.3405    9.4638   25.9231 N   0  0  0  0  0  0  0  0  0  0  0  0
   10.5718    4.0309   22.7223 N   0  0  0  0  0  0  0  0  0  0  0  0
    9.7903    3.3455   21.8790 C   0  0  0  0  0  0  0  0  0  0  0  0
   10.2866    2.5214   21.1155 O   0  0  0  0  0  0  0  0  0  0  0  0
    8.3067    3.6397   21.9224 C   0  0  0  0  0  0  0  0  0  0  0  0
    7.6080    2.4098   21.5570 N   0  0  0  0  0  0  0  0  0  0  0  0
    6.3874    2.1359   22.0408 C   0  0  0  0  0  0  0  0  0  0  0  0
    5.7677    3.0286   22.6075 O   0  0  0  0  0  0  0  0  0  0  0  0
    5.9192    0.6736   21.8335 C   0  0  0  0  0  0  0  0  0  0  0  0
    6.9640   -0.2532   22.2643 N   0  0  0  0  0  0  0  0  0  0  0  0
    7.4720   -0.1525   23.5050 C   0  0  0  0  0  0  0  0  0  0  0  0
    7.0407    0.7580   24.2052 O   0  0  0  0  0  0  0  0  0  0  0  0
    8.5191   -1.1754   23.9162 C   0  0  0  0  0  0  0  0  0  0  0  0
    9.7067   -0.4434   24.3337 N   0  0  0  0  0  0  0  0  0  0  0  0
   10.9064   -0.5574   23.7626 C   0  0  0  0  0  0  0  0  0  0  0  0
   11.1662   -1.2823   22.8059 O   0  0  0  0  0  0  0  0  0  0  0  0
    8.0086   -2.1253   25.0220 C   0  0  0  0  0  0  0  0  0  0  0  0
    9.0226   -3.2210   25.4285 C   0  0  0  0  0  0  0  0  0  0  0  0
    9.2943   -4.2560   24.3368 C   0  0  0  0  0  0  0  0  0  0  0  0
   10.3129   -5.2977   24.7990 C   0  0  0  0  0  0  0  0  0  0  0  0
    9.8641   -5.9755   26.0790 C   0  0  0  0  0  0  0  0  0  0  0  0
    9.5766   -4.9658   27.1711 C   0  0  0  0  0  0  0  0  0  0  0  0
    8.5679   -3.9173   26.7133 C   0  0  0  0  0  0  0  0  0  0  0  0
    7.5149   -1.3553   26.2283 C   0  0  0  0  0  0  0  0  0  0  0  0
    8.3863   -0.7890   27.1510 C   0  0  0  0  0  0  0  0  0  0  0  0
    7.9090   -0.0888   28.2462 C   0  0  0  0  0  0  0  0  0  0  0  0
    6.5521    0.0571   28.4372 C   0  0  0  0  0  0  0  0  0  0  0  0
    5.6734   -0.4975   27.5322 C   0  0  0  0  0  0  0  0  0  0  0  0
    6.1514   -1.1978   26.4371 C   0  0  0  0  0  0  0  0  0  0  0  0
    5.5859    0.3528   20.3752 C   0  0  0  0  0  0  0  0  0  0  0  0
    5.2831    1.4222   19.5510 C   0  0  0  0  0  0  0  0  0  0  0  0
    4.9848    1.3313   18.2525 N   0  0  0  0  0  0  0  0  0  0  0  0
    4.9745    0.1179   17.6969 C   0  0  0  0  0  0  0  0  0  0  0  0
    5.2437   -1.0373   18.4170 C   0  0  0  0  0  0  0  0  0  0  0  0
    5.2847   -2.3696   18.0833 N   0  0  0  0  0  0  0  0  0  0  0  0
    5.5910   -3.1050   19.2007 C   0  0  0  0  0  0  0  0  0  0  0  0
    5.7588   -2.2849   20.2646 C   0  0  0  0  0  0  0  0  0  0  0  0
    5.5515   -0.9413   19.7916 C   0  0  0  0  0  0  0  0  0  0  0  0
    8.0280    4.4172   23.2169 C   0  0  0  0  0  0  0  0  0  0  0  0
    8.2145    5.8811   23.3341 C   0  0  0  0  0  0  0  0  0  0  0  0
    6.8555    5.3088   23.4491 C   0  0  0  0  0  0  0  0  0  0  0  0
  2  1  1  0
  2  3  1  0
  3  4  1  0
  4  5  2  0
  4  6  1  0
  6  7  1  0
  7  8  1  0
  8  9  1  0
  9 10  1  0
 10 11  1  0
 11 12  1  0
 11 13  2  0
  6 14  1  0
 14 15  1  0
 15 16  2  0
 15 17  1  0
 17 18  1  0
 18 19  1  0
 19 20  2  0
 19 21  1  0
 21 22  1  0
 22 23  1  0
 23 24  2  0
 23 25  1  0
 25 26  1  0
 26 27  1  0
 27 28  2  0
 25 29  1  0
 29 30  1  0
 30 31  1  0
 31 32  1  0
 32 33  1  0
 33 34  1  0
 34 35  1  0
 29 36  1  0
 36 37  2  0
 37 38  1  0
 38 39  2  0
 39 40  1  0
 40 41  2  0
 21 42  1  0
 42 43  2  0
 43 44  1  0
 44 45  2  0
 45 46  1  0
 46 47  1  0
 47 48  1  0
 48 49  2  0
 49 50  1  0
 17 51  1  0
 51 52  1  0
 52 53  1  0
 27  2  1  0
 35 30  1  0
 41 36  1  0
 50 42  1  0
 53 51  1  0
 50 46  2  0
M  END
