CVD-0000388|dock_bobby27042020.98|mol2|38|dock1
     RDKit          3D

 28 30  0  0  0  0  0  0  0  0999 V2000
   14.0186    6.0422   21.9433 C   0  0  0  0  0  0  0  0  0  0  0  0
   12.7745    5.3140   22.0673 N   0  0  0  0  0  0  0  0  0  0  0  0
   12.7103    3.9700   22.3265 C   0  0  0  0  0  0  0  0  0  0  0  0
   11.5103    3.2921   22.4996 C   0  0  0  0  0  0  0  0  0  0  0  0
   11.4410    1.9810   22.7541 N   0  0  0  0  0  0  0  0  0  0  0  0
   12.6088    1.3375   22.8349 C   0  0  0  0  0  0  0  0  0  0  0  0
   13.8222    1.8757   22.6871 N   0  0  0  0  0  0  0  0  0  0  0  0
   13.8525    3.1886   22.4344 C   0  0  0  0  0  0  0  0  0  0  0  0
   12.5965   -0.0994   23.1113 C   0  0  0  0  0  0  0  0  0  0  0  0
   14.1374   -0.8877   23.1395 S   0  0  0  0  0  0  0  0  0  0  0  0
   13.4053   -2.3893   23.4823 C   0  0  0  0  0  0  0  0  0  0  0  0
   12.0532   -2.2952   23.5723 C   0  0  0  0  0  0  0  0  0  0  0  0
   11.5709   -0.9600   23.3581 C   0  0  0  0  0  0  0  0  0  0  0  0
   10.1276   -0.5413   23.3897 C   0  0  0  0  0  0  0  0  0  0  0  0
    9.3202   -1.5575   24.2284 C   0  0  0  0  0  0  0  0  0  0  0  0
    8.7138   -2.5628   23.2449 C   0  0  0  0  0  0  0  0  0  0  0  0
    9.2304   -2.1849   21.8578 C   0  0  0  0  0  0  0  0  0  0  0  0
    9.5712   -0.6902   21.9462 C   0  0  0  0  0  0  0  0  0  0  0  0
    8.3191    0.1543   21.8158 C   0  0  0  0  0  0  0  0  0  0  0  0
    7.8087    0.7005   22.7905 O   0  0  0  0  0  0  0  0  0  0  0  0
    7.8176    0.2547   20.5537 N   0  0  0  0  0  0  0  0  0  0  0  0
    6.7016    0.9518   20.1550 C   0  0  0  0  0  0  0  0  0  0  0  0
    5.9333    1.5451   20.8825 O   0  0  0  0  0  0  0  0  0  0  0  0
    6.6074    0.8633   18.8168 O   0  0  0  0  0  0  0  0  0  0  0  0
    5.4958    1.4342   18.2064 C   0  0  0  0  0  0  0  0  0  0  0  0
    4.3917    0.7886   18.5347 F   0  0  0  0  0  0  0  0  0  0  0  0
    5.3444    2.6951   18.5686 F   0  0  0  0  0  0  0  0  0  0  0  0
    5.6016    1.4015   16.8904 F   0  0  0  0  0  0  0  0  0  0  0  0
  1  2  1  0
  2  3  1  0
  3  4  2  0
  4  5  1  0
  5  6  2  0
  6  7  1  0
  7  8  2  0
  6  9  1  0
  9 10  1  0
 10 11  1  0
 11 12  2  0
 12 13  1  0
 14 13  1  0
 14 15  1  0
 15 16  1  0
 16 17  1  0
 17 18  1  0
 18 19  1  0
 19 20  2  0
 19 21  1  0
 21 22  1  0
 22 23  2  0
 22 24  1  0
 24 25  1  0
 25 26  1  0
 25 27  1  0
 25 28  1  0
  8  3  1  0
 13  9  2  0
 18 14  1  0
M  END
