CVD-0000417|dock_bobby27042020.70|mol2|16|dock1
     RDKit          3D

 23 25  0  0  0  0  0  0  0  0999 V2000
   12.9582   -3.1544   25.2174 C   0  0  0  0  0  0  0  0  0  0  0  0
   14.1832   -2.4895   24.6333 C   0  0  0  0  0  0  0  0  0  0  0  0
   13.9502   -1.0219   24.3267 C   0  0  0  0  0  0  0  0  0  0  0  0
   12.8955   -0.7310   23.2997 C   0  0  0  0  0  0  0  0  0  0  0  0
   12.4657   -1.5515   22.2988 C   0  0  0  0  0  0  0  0  0  0  0  0
   11.4920   -0.9362   21.5600 N   0  0  0  0  0  0  0  0  0  0  0  0
   11.2807    0.3200   22.0755 C   0  0  0  0  0  0  0  0  0  0  0  0
   10.4143    1.3456   21.6804 C   0  0  0  0  0  0  0  0  0  0  0  0
    9.6526    1.1218   20.5620 O   0  0  0  0  0  0  0  0  0  0  0  0
    8.3356    0.5222   20.6536 C   0  0  0  0  0  0  0  0  0  0  0  0
    7.3765    1.3324   21.5230 C   0  0  0  0  0  0  0  0  0  0  0  0
    5.9753    0.7553   21.5267 C   0  0  0  0  0  0  0  0  0  0  0  0
    5.4819    0.5800   20.1570 N   0  0  0  0  0  0  0  0  0  0  0  0
    6.3306   -0.2911   19.3521 C   0  0  0  0  0  0  0  0  0  0  0  0
    7.7222    0.2973   19.2774 C   0  0  0  0  0  0  0  0  0  0  0  0
    4.3116    1.0629   19.6702 C   0  0  0  0  0  0  0  0  0  0  0  0
    3.4305    1.8544   20.5917 C   0  0  0  0  0  0  0  0  0  0  0  0
    3.9921    0.8659   18.5032 O   0  0  0  0  0  0  0  0  0  0  0  0
   10.3581    2.5188   22.4148 C   0  0  0  0  0  0  0  0  0  0  0  0
   11.1985    2.6365   23.4974 C   0  0  0  0  0  0  0  0  0  0  0  0
   11.1470    3.7912   24.2149 F   0  0  0  0  0  0  0  0  0  0  0  0
   12.0874    1.6705   23.9049 C   0  0  0  0  0  0  0  0  0  0  0  0
   12.1329    0.4791   23.1839 C   0  0  0  0  0  0  0  0  0  0  0  0
  1  2  1  0
  2  3  1  0
  3  4  1  0
  4  5  2  0
  5  6  1  0
  6  7  1  0
  7  8  2  0
  8  9  1  0
  9 10  1  0
 10 11  1  0
 11 12  1  0
 12 13  1  0
 13 14  1  0
 14 15  1  0
 13 16  1  0
 16 17  1  0
 16 18  2  0
  8 19  1  0
 19 20  2  0
 20 21  1  0
 20 22  1  0
 22 23  2  0
 23  4  1  0
 23  7  1  0
 15 10  1  0
M  END
