CVD-0002795|dock_bobby27042020.76|mol2|5|dock3
     RDKit          3D

 23 25  0  0  0  0  0  0  0  0999 V2000
    9.1938   -0.6211   20.8824 O   0  0  0  0  0  0  0  0  0  0  0  0
    8.9027   -1.5763   21.5919 C   0  0  0  0  0  0  0  0  0  0  0  0
    7.4983   -2.1354   21.4789 C   0  0  0  0  0  0  0  0  0  0  0  0
    6.7689   -1.6362   20.2521 C   0  0  0  0  0  0  0  0  0  0  0  0
    6.3308   -0.3234   20.1737 C   0  0  0  0  0  0  0  0  0  0  0  0
    5.6599    0.1332   19.0514 C   0  0  0  0  0  0  0  0  0  0  0  0
    5.4185   -0.7185   17.9949 C   0  0  0  0  0  0  0  0  0  0  0  0
    5.8477   -2.0266   18.0609 C   0  0  0  0  0  0  0  0  0  0  0  0
    6.5187   -2.4828   19.1833 C   0  0  0  0  0  0  0  0  0  0  0  0
    9.8738   -2.1097   22.4791 N   0  0  0  0  0  0  0  0  0  0  0  0
    9.8400   -3.3079   23.2848 C   0  0  0  0  0  0  0  0  0  0  0  0
    8.8386   -4.0122   23.2345 O   0  0  0  0  0  0  0  0  0  0  0  0
   10.8465   -3.6918   24.0933 N   0  0  0  0  0  0  0  0  0  0  0  0
   10.6947   -4.9181   24.8662 C   0  0  0  0  0  0  0  0  0  0  0  0
    9.8351   -4.7259   26.1012 C   0  0  0  0  0  0  0  0  0  0  0  0
    9.6284   -6.2970   26.5400 C   0  0  0  0  0  0  0  0  0  0  0  0
    9.9409   -5.2569   27.5542 C   0  0  0  0  0  0  0  0  0  0  0  0
   11.1066   -1.3605   22.6101 C   0  0  0  0  0  0  0  0  0  0  0  0
   11.3082   -0.5004   23.6815 C   0  0  0  0  0  0  0  0  0  0  0  0
   12.4996    0.1967   23.7764 C   0  0  0  0  0  0  0  0  0  0  0  0
   13.4502    0.0110   22.7990 C   0  0  0  0  0  0  0  0  0  0  0  0
   13.2816   -0.8097   21.7616 N   0  0  0  0  0  0  0  0  0  0  0  0
   12.1273   -1.4787   21.6790 C   0  0  0  0  0  0  0  0  0  0  0  0
  1  2  2  0
  2  3  1  0
  3  4  1  0
  4  5  2  0
  5  6  1  0
  6  7  2  0
  7  8  1  0
  8  9  2  0
  2 10  1  0
 10 11  1  0
 11 12  2  0
 11 13  1  0
 13 14  1  0
 14 15  1  0
 15 16  1  0
 16 17  1  0
 10 18  1  0
 18 19  2  0
 19 20  1  0
 20 21  2  0
 21 22  1  0
 22 23  2  0
  9  4  1  0
 17 15  1  0
 23 18  1  0
M  END
