CVD-0001683|dock_bobby27042020.51|mol2|37|dock2
     RDKit          3D

 22 23  0  0  0  0  0  0  0  0999 V2000
   13.4703   -1.2955   22.0840 C   0  0  0  0  0  0  0  0  0  0  0  0
   12.1911   -0.7324   22.6914 C   0  0  0  0  0  0  0  0  0  0  0  0
   11.0473   -1.3400   22.0040 N   0  0  0  0  0  0  0  0  0  0  0  0
    9.9152   -1.6707   22.6319 C   0  0  0  0  0  0  0  0  0  0  0  0
    9.7453   -1.4911   23.8349 O   0  0  0  0  0  0  0  0  0  0  0  0
    8.8353   -2.2915   21.7519 C   0  0  0  0  0  0  0  0  0  0  0  0
    7.9701   -3.2339   22.5851 C   0  0  0  0  0  0  0  0  0  0  0  0
    8.0300   -1.1633   21.1217 C   0  0  0  0  0  0  0  0  0  0  0  0
    8.2373   -0.7936   19.7991 C   0  0  0  0  0  0  0  0  0  0  0  0
    7.5133    0.2328   19.2186 C   0  0  0  0  0  0  0  0  0  0  0  0
    6.5755    0.8893   19.9784 C   0  0  0  0  0  0  0  0  0  0  0  0
    5.8553    1.8958   19.4321 F   0  0  0  0  0  0  0  0  0  0  0  0
    6.3631    0.5318   21.2888 C   0  0  0  0  0  0  0  0  0  0  0  0
    5.4342    1.1938   22.0159 F   0  0  0  0  0  0  0  0  0  0  0  0
    7.0780   -0.4844   21.8684 C   0  0  0  0  0  0  0  0  0  0  0  0
   12.1488    0.7799   22.5835 C   0  0  0  0  0  0  0  0  0  0  0  0
   13.3033    1.5341   22.7405 C   0  0  0  0  0  0  0  0  0  0  0  0
   13.2679    2.9149   22.6392 C   0  0  0  0  0  0  0  0  0  0  0  0
   12.0730    3.5637   22.3775 C   0  0  0  0  0  0  0  0  0  0  0  0
   10.9486    2.7993   22.2253 C   0  0  0  0  0  0  0  0  0  0  0  0
    9.7677    3.4234   21.9674 F   0  0  0  0  0  0  0  0  0  0  0  0
   10.9519    1.4293   22.3201 C   0  0  0  0  0  0  0  0  0  0  0  0
  2  1  1  0
  2  3  1  0
  3  4  1  0
  4  5  2  0
  4  6  1  0
  6  7  1  0
  6  8  1  0
  8  9  2  0
  9 10  1  0
 10 11  2  0
 11 12  1  0
 11 13  1  0
 13 14  1  0
 13 15  2  0
  2 16  1  0
 16 17  2  0
 17 18  1  0
 18 19  2  0
 19 20  1  0
 20 21  1  0
 20 22  2  0
 15  8  1  0
 22 16  1  0
M  END
