CVD-0001660|dock_bobby27042020.80|mol2|25|dock2
     RDKit          3D

 27 29  0  0  0  0  0  0  0  0999 V2000
    9.1303    6.2343   23.5864 C   0  0  0  0  0  0  0  0  0  0  0  0
   10.4155    5.9548   22.8723 C   0  0  0  0  0  0  0  0  0  0  0  0
   10.6306    4.5275   22.7029 N   0  0  0  0  0  0  0  0  0  0  0  0
   11.8608    3.9675   22.5467 C   0  0  0  0  0  0  0  0  0  0  0  0
   12.9063    4.6952   21.9818 C   0  0  0  0  0  0  0  0  0  0  0  0
   14.1318    4.0640   21.8525 C   0  0  0  0  0  0  0  0  0  0  0  0
   14.2810    2.7553   22.2784 C   0  0  0  0  0  0  0  0  0  0  0  0
   13.1874    2.1074   22.8271 C   0  0  0  0  0  0  0  0  0  0  0  0
   13.2885    0.6806   23.3134 C   0  0  0  0  0  0  0  0  0  0  0  0
   11.9356    0.0241   23.4992 C   0  0  0  0  0  0  0  0  0  0  0  0
   11.2049    0.2200   24.6600 C   0  0  0  0  0  0  0  0  0  0  0  0
    9.9708   -0.3844   24.8263 C   0  0  0  0  0  0  0  0  0  0  0  0
    9.4521   -1.1956   23.8313 C   0  0  0  0  0  0  0  0  0  0  0  0
   10.1700   -1.4068   22.6605 C   0  0  0  0  0  0  0  0  0  0  0  0
    9.6434   -2.2196   21.6742 N   0  0  0  0  0  0  0  0  0  0  0  0
    8.4134   -2.9722   21.8294 C   0  0  0  0  0  0  0  0  0  0  0  0
    7.1849   -2.1018   21.6494 C   0  0  0  0  0  0  0  0  0  0  0  0
    6.2945   -2.1116   22.4926 O   0  0  0  0  0  0  0  0  0  0  0  0
    7.1943   -1.3647   20.5124 N   0  0  0  0  0  0  0  0  0  0  0  0
    6.3406   -0.3267   20.0632 C   0  0  0  0  0  0  0  0  0  0  0  0
    6.5632    0.2333   18.8118 C   0  0  0  0  0  0  0  0  0  0  0  0
    5.7382    1.2476   18.3588 C   0  0  0  0  0  0  0  0  0  0  0  0
    4.7128    1.6739   19.1704 C   0  0  0  0  0  0  0  0  0  0  0  0
    4.4731    1.1572   20.3757 N   0  0  0  0  0  0  0  0  0  0  0  0
    5.2751    0.1780   20.8051 C   0  0  0  0  0  0  0  0  0  0  0  0
   11.4093   -0.7917   22.5058 C   0  0  0  0  0  0  0  0  0  0  0  0
   11.9929    2.7021   22.9622 N   0  0  0  0  0  0  0  0  0  0  0  0
  1  2  1  0
  2  3  1  0
  3  4  1  0
  4  5  2  0
  5  6  1  0
  6  7  2  0
  7  8  1  0
  8  9  1  0
  9 10  1  0
 10 11  2  0
 11 12  1  0
 12 13  2  0
 13 14  1  0
 14 15  1  0
 15 16  1  0
 16 17  1  0
 17 18  2  0
 17 19  1  0
 19 20  1  0
 20 21  2  0
 21 22  1  0
 22 23  2  0
 23 24  1  0
 24 25  2  0
 14 26  2  0
  8 27  2  0
 27  4  1  0
 26 10  1  0
 25 20  1  0
M  END
