CVD-0000005|dock_bobby27042020.100|mol2|5|dock2
     RDKit          3D

 42 47  0  0  0  0  0  0  0  0999 V2000
    1.4314    4.3250   16.5178 C   0  0  0  0  0  0  0  0  0  0  0  0
    1.8055    4.5859   17.9512 C   0  0  0  0  0  0  0  0  0  0  0  0
    1.3405    5.5914   18.5107 O   0  0  0  0  0  0  0  0  0  0  0  0
    2.6989    3.6944   18.7080 C   0  0  0  0  0  0  0  0  0  0  0  0
    3.4861    2.7567   18.2000 C   0  0  0  0  0  0  0  0  0  0  0  0
    4.4147    1.8255   18.9511 C   0  0  0  0  0  0  0  0  0  0  0  0
    5.0325    0.8261   17.9538 C   0  0  0  0  0  0  0  0  0  0  0  0
    6.0586   -0.1111   18.5435 C   0  0  0  0  0  0  0  0  0  0  0  0
    5.6995   -1.3826   18.9635 C   0  0  0  0  0  0  0  0  0  0  0  0
    6.6413   -2.2438   19.5015 C   0  0  0  0  0  0  0  0  0  0  0  0
    7.9543   -1.8437   19.6255 C   0  0  0  0  0  0  0  0  0  0  0  0
    8.3253   -0.5828   19.2107 C   0  0  0  0  0  0  0  0  0  0  0  0
    7.3831    0.2778   18.6727 C   0  0  0  0  0  0  0  0  0  0  0  0
    3.7296    1.1815   20.1774 C   0  0  0  0  0  0  0  0  0  0  0  0
    4.3649    1.8219   21.3135 O   0  0  0  0  0  0  0  0  0  0  0  0
    5.3413    2.6163   20.8046 C   0  0  0  0  0  0  0  0  0  0  0  0
    6.1404    3.3524   21.8287 C   0  0  0  0  0  0  0  0  0  0  0  0
    7.5172    2.8821   21.8779 N   0  0  0  0  0  0  0  0  0  0  0  0
    7.9687    1.6293   21.6940 C   0  0  0  0  0  0  0  0  0  0  0  0
    9.3157    1.6642   21.8872 C   0  0  0  0  0  0  0  0  0  0  0  0
   10.6081    0.8862   21.8913 C   0  0  0  0  0  0  0  0  0  0  0  0
   11.6946    1.8890   22.2300 C   0  0  0  0  0  0  0  0  0  0  0  0
   11.0791    3.2426   22.3888 C   0  0  0  0  0  0  0  0  0  0  0  0
    9.5982    3.0579   22.2003 C   0  0  0  0  0  0  0  0  0  0  0  0
    8.4926    3.7701   22.1874 N   0  0  0  0  0  0  0  0  0  0  0  0
   12.4580    1.4472   23.3924 N   0  0  0  0  0  0  0  0  0  0  0  0
   13.4371    0.5655   23.3819 C   0  0  0  0  0  0  0  0  0  0  0  0
   14.0642    0.2401   24.5156 N   0  0  0  0  0  0  0  0  0  0  0  0
   13.8074   -0.0048   22.2480 N   0  0  0  0  0  0  0  0  0  0  0  0
   10.5231   -0.2487   22.8936 C   0  0  0  0  0  0  0  0  0  0  0  0
   10.6903   -1.5113   22.6967 N   0  0  0  0  0  0  0  0  0  0  0  0
   10.4974   -2.0953   23.9353 C   0  0  0  0  0  0  0  0  0  0  0  0
   10.6161   -3.5789   24.0927 C   0  0  0  0  0  0  0  0  0  0  0  0
    9.8322   -4.1002   25.2758 C   0  0  0  0  0  0  0  0  0  0  0  0
   10.4299   -4.9300   26.2118 C   0  0  0  0  0  0  0  0  0  0  0  0
    9.7128   -5.4049   27.2972 C   0  0  0  0  0  0  0  0  0  0  0  0
    8.3897   -5.0546   27.4596 C   0  0  0  0  0  0  0  0  0  0  0  0
    7.7838   -4.2293   26.5369 C   0  0  0  0  0  0  0  0  0  0  0  0
    8.5012   -3.7545   25.4515 C   0  0  0  0  0  0  0  0  0  0  0  0
   10.2177   -1.1351   24.8274 C   0  0  0  0  0  0  0  0  0  0  0  0
   10.2257    0.0728   24.1840 O   0  0  0  0  0  0  0  0  0  0  0  0
    5.4713    2.6860   19.5415 N   0  0  0  0  0  0  0  0  0  0  0  0
  1  2  1  0
  2  3  2  0
  2  4  1  0
  4  5  2  0
  5  6  1  0
  6  7  1  0
  7  8  1  0
  8  9  2  0
  9 10  1  0
 10 11  2  0
 11 12  1  0
 12 13  2  0
  6 14  1  0
 14 15  1  0
 15 16  1  0
 16 17  1  0
 17 18  1  0
 18 19  1  0
 19 20  2  0
 20 21  1  0
 21 22  1  0
 22 23  1  0
 23 24  1  0
 24 25  2  0
 22 26  1  0
 26 27  1  0
 27 28  1  0
 27 29  2  0
 21 30  1  0
 30 31  2  0
 31 32  1  0
 32 33  1  0
 33 34  1  0
 34 35  2  0
 35 36  1  0
 36 37  2  0
 37 38  1  0
 38 39  2  0
 32 40  2  0
 40 41  1  0
 16 42  2  0
 42  6  1  0
 13  8  1  0
 25 18  1  0
 41 30  1  0
 24 20  1  0
 39 34  1  0
M  END
