CVD-0000441|dock_bobby27042020.13|mol2|4|dock2
     RDKit          3D

 30 32  0  0  0  0  0  0  0  0999 V2000
    3.7017    1.3702   19.7729 C   0  0  0  0  0  0  0  0  0  0  0  0
    5.1319    1.8028   19.6866 C   0  0  0  0  0  0  0  0  0  0  0  0
    6.0186    0.8369   20.3132 N   0  0  0  0  0  0  0  0  0  0  0  0
    6.0305   -0.4863   19.9966 C   0  0  0  0  0  0  0  0  0  0  0  0
    5.8425   -0.9039   18.6808 C   0  0  0  0  0  0  0  0  0  0  0  0
    5.8647   -2.2615   18.4213 C   0  0  0  0  0  0  0  0  0  0  0  0
    6.0710   -3.1166   19.4760 C   0  0  0  0  0  0  0  0  0  0  0  0
    6.0956   -4.4493   19.2451 F   0  0  0  0  0  0  0  0  0  0  0  0
    6.2539   -2.6542   20.7648 C   0  0  0  0  0  0  0  0  0  0  0  0
    6.4786   -3.5727   21.9416 C   0  0  0  0  0  0  0  0  0  0  0  0
    7.8828   -3.4708   22.5014 C   0  0  0  0  0  0  0  0  0  0  0  0
    8.2079   -4.0886   23.7012 C   0  0  0  0  0  0  0  0  0  0  0  0
    9.4902   -3.9691   24.1752 C   0  0  0  0  0  0  0  0  0  0  0  0
    9.8015   -4.5775   25.3514 F   0  0  0  0  0  0  0  0  0  0  0  0
   10.4753   -3.2679   23.5251 C   0  0  0  0  0  0  0  0  0  0  0  0
   10.1556   -2.6461   22.3229 C   0  0  0  0  0  0  0  0  0  0  0  0
   11.1282   -1.9335   21.6469 N   0  0  0  0  0  0  0  0  0  0  0  0
   12.0361   -1.0062   22.2943 C   0  0  0  0  0  0  0  0  0  0  0  0
   11.8129    0.4236   21.8411 C   0  0  0  0  0  0  0  0  0  0  0  0
   10.9737    0.6735   20.9823 O   0  0  0  0  0  0  0  0  0  0  0  0
   12.6090    1.3284   22.4605 N   0  0  0  0  0  0  0  0  0  0  0  0
   12.8345    2.7041   22.2061 C   0  0  0  0  0  0  0  0  0  0  0  0
   13.7210    3.4052   23.0134 C   0  0  0  0  0  0  0  0  0  0  0  0
   13.9572    4.7485   22.7843 C   0  0  0  0  0  0  0  0  0  0  0  0
   13.2734    5.3132   21.7369 C   0  0  0  0  0  0  0  0  0  0  0  0
   13.4691    6.6241   21.4711 F   0  0  0  0  0  0  0  0  0  0  0  0
   12.4330    4.7169   20.9454 N   0  0  0  0  0  0  0  0  0  0  0  0
   12.2172    3.4180   21.1825 C   0  0  0  0  0  0  0  0  0  0  0  0
    8.8601   -2.7531   21.8234 C   0  0  0  0  0  0  0  0  0  0  0  0
    6.2300   -1.3369   21.0116 N   0  0  0  0  0  0  0  0  0  0  0  0
  1  2  1  0
  2  3  1  0
  3  4  1  0
  4  5  2  0
  5  6  1  0
  6  7  2  0
  7  8  1  0
  7  9  1  0
  9 10  1  0
 10 11  1  0
 11 12  2  0
 12 13  1  0
 13 14  1  0
 13 15  2  0
 15 16  1  0
 16 17  1  0
 17 18  1  0
 18 19  1  0
 19 20  2  0
 19 21  1  0
 21 22  1  0
 22 23  2  0
 23 24  1  0
 24 25  2  0
 25 26  1  0
 25 27  1  0
 27 28  2  0
 16 29  2  0
  9 30  2  0
 30  4  1  0
 29 11  1  0
 28 22  1  0
M  END
