CVD-0001588|dock_bobby27042020.23|mol2|25|dock1
     RDKit          3D

 18 20  0  0  0  0  0  0  0  0999 V2000
    9.5690   -6.4441   25.1052 C   0  0  0  0  0  0  0  0  0  0  0  0
   10.3674   -5.3471   25.7930 C   0  0  0  0  0  0  0  0  0  0  0  0
    9.8212   -3.9656   25.5301 C   0  0  0  0  0  0  0  0  0  0  0  0
    9.1779   -3.3545   26.3778 O   0  0  0  0  0  0  0  0  0  0  0  0
   10.0827   -3.4606   24.3276 N   0  0  0  0  0  0  0  0  0  0  0  0
    9.6295   -2.1398   23.9107 C   0  0  0  0  0  0  0  0  0  0  0  0
    9.4994   -2.0285   22.4011 C   0  0  0  0  0  0  0  0  0  0  0  0
    9.7794   -0.7527   21.6527 C   0  0  0  0  0  0  0  0  0  0  0  0
    8.3759   -1.1021   22.0341 C   0  0  0  0  0  0  0  0  0  0  0  0
    7.4155   -1.5504   20.9464 C   0  0  0  0  0  0  0  0  0  0  0  0
    7.1135   -0.6848   19.8936 C   0  0  0  0  0  0  0  0  0  0  0  0
    6.2807   -1.0683   18.8541 C   0  0  0  0  0  0  0  0  0  0  0  0
    5.7237   -2.3371   18.8394 C   0  0  0  0  0  0  0  0  0  0  0  0
    6.0171   -3.2067   19.8813 C   0  0  0  0  0  0  0  0  0  0  0  0
    5.5309   -4.4795   20.0251 O   0  0  0  0  0  0  0  0  0  0  0  0
    5.8392   -4.9055   21.3797 C   0  0  0  0  0  0  0  0  0  0  0  0
    6.9551   -3.9989   21.8697 C   0  0  0  0  0  0  0  0  0  0  0  0
    6.8492   -2.8336   20.9269 C   0  0  0  0  0  0  0  0  0  0  0  0
  1  2  1  0
  2  3  1  0
  3  4  2  0
  3  5  1  0
  5  6  1  0
  7  6  1  0
  7  8  1  0
  8  9  1  0
  9 10  1  0
 10 11  2  0
 11 12  1  0
 12 13  2  0
 13 14  1  0
 14 15  1  0
 15 16  1  0
 16 17  1  0
 17 18  1  0
  9  7  1  0
 18 10  1  0
 18 14  2  0
M  END
