CVD-0002805|dock_bobby27042020.33|mol2|4|dock1
     RDKit          3D

 27 29  0  0  0  0  0  0  0  0999 V2000
   13.3011   -1.6037   21.7390 C   0  0  0  0  0  0  0  0  0  0  0  0
   12.8619   -0.1818   21.9768 C   0  0  0  0  0  0  0  0  0  0  0  0
   13.7546    0.7065   22.5689 C   0  0  0  0  0  0  0  0  0  0  0  0
   13.3663    2.0057   22.8108 C   0  0  0  0  0  0  0  0  0  0  0  0
   12.1619    2.4762   22.4973 N   0  0  0  0  0  0  0  0  0  0  0  0
   11.3040    1.6391   21.9055 C   0  0  0  0  0  0  0  0  0  0  0  0
   11.5836    0.2990   21.6382 C   0  0  0  0  0  0  0  0  0  0  0  0
   10.6675   -0.5880   21.0476 N   0  0  0  0  0  0  0  0  0  0  0  0
    9.3375   -0.8517   21.3435 C   0  0  0  0  0  0  0  0  0  0  0  0
    8.9135   -2.1786   21.3163 C   0  0  0  0  0  0  0  0  0  0  0  0
    7.5812   -2.4787   21.6002 C   0  0  0  0  0  0  0  0  0  0  0  0
    6.7276   -1.4287   21.9336 C   0  0  0  0  0  0  0  0  0  0  0  0
    7.2247   -0.1267   21.9513 C   0  0  0  0  0  0  0  0  0  0  0  0
    6.4444    0.9217   22.2671 N   0  0  0  0  0  0  0  0  0  0  0  0
    8.5119    0.1545   21.6531 N   0  0  0  0  0  0  0  0  0  0  0  0
    7.0593   -3.8762   21.5639 C   0  0  0  0  0  0  0  0  0  0  0  0
    6.6746   -4.3630   20.3131 C   0  0  0  0  0  0  0  0  0  0  0  0
    6.1534   -5.6379   20.1744 C   0  0  0  0  0  0  0  0  0  0  0  0
    6.0091   -6.4465   21.2792 C   0  0  0  0  0  0  0  0  0  0  0  0
    6.3999   -5.9858   22.5237 C   0  0  0  0  0  0  0  0  0  0  0  0
    6.9395   -4.7128   22.6887 C   0  0  0  0  0  0  0  0  0  0  0  0
    7.3699   -4.3204   24.0863 C   0  0  0  0  0  0  0  0  0  0  0  0
    8.6183   -5.0942   24.5092 C   0  0  0  0  0  0  0  0  0  0  0  0
    8.8936   -5.1564   26.2584 S   0  0  0  0  0  0  0  0  0  0  0  0
   10.3265   -5.8129   26.5417 N   0  0  0  0  0  0  0  0  0  0  0  0
    8.9403   -3.7993   26.7227 O   0  0  0  0  0  0  0  0  0  0  0  0
    7.8997   -6.0342   26.8070 O   0  0  0  0  0  0  0  0  0  0  0  0
  1  2  1  0
  2  3  2  0
  3  4  1  0
  4  5  2  0
  5  6  1  0
  6  7  2  0
  7  8  1  0
  8  9  1  0
  9 10  2  0
 10 11  1  0
 11 12  2  0
 12 13  1  0
 13 14  1  0
 13 15  2  0
 11 16  1  0
 16 17  2  0
 17 18  1  0
 18 19  2  0
 19 20  1  0
 20 21  2  0
 21 22  1  0
 22 23  1  0
 23 24  1  0
 24 25  1  0
 24 26  2  0
 24 27  2  0
  7  2  1  0
 15  9  1  0
 21 16  1  0
M  END
