CVD-0001710|dock_bobby27042020.66|mol2|19|dock3
     RDKit          3D

 17 19  0  0  0  0  0  0  0  0999 V2000
   14.0303   -2.2202   20.1666 N   0  0  0  0  0  0  0  0  0  0  0  0
   13.2163   -2.1689   20.9616 C   0  0  0  0  0  0  0  0  0  0  0  0
   12.1983   -2.1200   22.0232 C   0  0  0  0  0  0  0  0  0  0  0  0
   12.7870   -2.5544   23.3751 C   0  0  0  0  0  0  0  0  0  0  0  0
   13.8222   -1.5444   23.8627 C   0  0  0  0  0  0  0  0  0  0  0  0
   13.2144   -0.1480   23.9735 C   0  0  0  0  0  0  0  0  0  0  0  0
   12.5708    0.2946   22.6709 C   0  0  0  0  0  0  0  0  0  0  0  0
   11.5628   -0.7382   22.1547 C   0  0  0  0  0  0  0  0  0  0  0  0
   11.9991    1.6799   22.7467 C   0  0  0  0  0  0  0  0  0  0  0  0
   10.7270    1.9133   22.8267 N   0  0  0  0  0  0  0  0  0  0  0  0
   10.4731    3.2812   22.8893 C   0  0  0  0  0  0  0  0  0  0  0  0
    9.2280    3.9066   22.9792 C   0  0  0  0  0  0  0  0  0  0  0  0
    9.1539    5.2902   23.0323 C   0  0  0  0  0  0  0  0  0  0  0  0
   10.2945    6.0648   22.9976 C   0  0  0  0  0  0  0  0  0  0  0  0
   11.5401    5.4686   22.9089 C   0  0  0  0  0  0  0  0  0  0  0  0
   11.6215    4.0805   22.8553 C   0  0  0  0  0  0  0  0  0  0  0  0
   13.0420    3.0838   22.7432 S   0  0  0  0  0  0  0  0  0  0  0  0
  1  2  3  0
  2  3  1  0
  3  4  1  0
  4  5  1  0
  5  6  1  0
  6  7  1  0
  7  8  1  0
  7  9  1  0
  9 10  2  0
 10 11  1  0
 11 12  2  0
 12 13  1  0
 13 14  2  0
 14 15  1  0
 15 16  2  0
 16 17  1  0
  8  3  1  0
 17  9  1  0
 16 11  1  0
M  END
