CVD-0003710|dock_bobby27042020.73|mol2|2|dock1
     RDKit          3D

 24 24  0  0  0  0  0  0  0  0999 V2000
    6.4149   -6.5602   22.3983 C   0  0  0  0  0  0  0  0  0  0  0  0
    7.5103   -5.6779   21.8184 C   0  0  0  0  0  0  0  0  0  0  0  0
    7.4868   -4.2262   22.1523 C   0  0  0  0  0  0  0  0  0  0  0  0
    6.9395   -3.3075   21.3767 C   0  0  0  0  0  0  0  0  0  0  0  0
    8.1366   -3.8576   23.4528 C   0  0  0  0  0  0  0  0  0  0  0  0
    8.6562   -2.5150   23.3531 O   0  0  0  0  0  0  0  0  0  0  0  0
    9.8044   -2.3302   22.7030 C   0  0  0  0  0  0  0  0  0  0  0  0
   10.6391   -3.1796   22.5251 O   0  0  0  0  0  0  0  0  0  0  0  0
    9.9385   -0.9009   22.2001 C   0  0  0  0  0  0  0  0  0  0  0  0
   11.4163   -0.5061   22.0392 C   0  0  0  0  0  0  0  0  0  0  0  0
   12.3116   -0.9661   23.1645 C   0  0  0  0  0  0  0  0  0  0  0  0
   13.1476   -2.0603   23.0050 C   0  0  0  0  0  0  0  0  0  0  0  0
   13.9729   -2.4853   24.0308 C   0  0  0  0  0  0  0  0  0  0  0  0
   13.9714   -1.8118   25.2417 C   0  0  0  0  0  0  0  0  0  0  0  0
   14.7825   -2.2259   26.2577 O   0  0  0  0  0  0  0  0  0  0  0  0
   13.1419   -0.7156   25.4153 C   0  0  0  0  0  0  0  0  0  0  0  0
   12.3218   -0.3014   24.3809 C   0  0  0  0  0  0  0  0  0  0  0  0
    9.2463   -0.7633   20.9292 N   0  0  0  0  0  0  0  0  0  0  0  0
    8.1948    0.0463   20.7859 C   0  0  0  0  0  0  0  0  0  0  0  0
    7.7498    0.7198   21.7100 O   0  0  0  0  0  0  0  0  0  0  0  0
    7.5713    0.0838   19.4084 C   0  0  0  0  0  0  0  0  0  0  0  0
    6.1873    0.7300   19.3720 C   0  0  0  0  0  0  0  0  0  0  0  0
    5.6891    0.8550   17.9419 C   0  0  0  0  0  0  0  0  0  0  0  0
    5.2090   -0.1003   20.1845 C   0  0  0  0  0  0  0  0  0  0  0  0
  1  2  1  0
  2  3  1  0
  3  4  2  0
  3  5  1  0
  5  6  1  0
  6  7  1  0
  7  8  2  0
  7  9  1  0
  9 10  1  0
 10 11  1  0
 11 12  2  0
 12 13  1  0
 13 14  2  0
 14 15  1  0
 14 16  1  0
 16 17  2  0
  9 18  1  0
 18 19  1  0
 19 20  2  0
 19 21  1  0
 21 22  1  0
 22 23  1  0
 22 24  1  0
 17 11  1  0
M  END
