CVD-0003433|dock_bobby27042020.16|mol2|34|dock2
     RDKit          3D

 17 18  0  0  0  0  0  0  0  0999 V2000
    8.4964   -1.8618   17.7318 Cl  0  0  0  0  0  0  0  0  0  0  0  0
    7.6177   -0.5671   18.4842 C   0  0  0  0  0  0  0  0  0  0  0  0
    6.7925    0.0597   17.6662 N   0  0  0  0  0  0  0  0  0  0  0  0
    6.0807    1.0697   18.1749 C   0  0  0  0  0  0  0  0  0  0  0  0
    6.1741    1.4695   19.4858 C   0  0  0  0  0  0  0  0  0  0  0  0
    7.0440    0.8022   20.3319 C   0  0  0  0  0  0  0  0  0  0  0  0
    7.8076   -0.2597   19.8413 C   0  0  0  0  0  0  0  0  0  0  0  0
    8.7260   -1.0033   20.6328 N   0  0  0  0  0  0  0  0  0  0  0  0
    8.7515   -1.2270   21.9699 C   0  0  0  0  0  0  0  0  0  0  0  0
    7.9401   -0.8055   22.7871 O   0  0  0  0  0  0  0  0  0  0  0  0
    9.9218   -2.0773   22.4115 C   0  0  0  0  0  0  0  0  0  0  0  0
   11.2641   -1.3409   22.3637 C   0  0  0  0  0  0  0  0  0  0  0  0
   11.2159   -0.0402   23.1913 C   0  0  0  0  0  0  0  0  0  0  0  0
   12.5622    0.6809   23.2230 C   0  0  0  0  0  0  0  0  0  0  0  0
   13.6745   -0.2419   23.7045 C   0  0  0  0  0  0  0  0  0  0  0  0
   13.7385   -1.5095   22.8646 C   0  0  0  0  0  0  0  0  0  0  0  0
   12.4016   -2.2437   22.8708 C   0  0  0  0  0  0  0  0  0  0  0  0
  1  2  1  0
  2  3  2  0
  3  4  1  0
  4  5  2  0
  5  6  1  0
  6  7  2  0
  7  8  1  0
  8  9  1  0
  9 10  2  0
  9 11  1  0
 11 12  1  0
 12 13  1  0
 13 14  1  0
 14 15  1  0
 15 16  1  0
 16 17  1  0
  7  2  1  0
 17 12  1  0
M  END
