CVD-0003382|dock_bobby27042020.45|mol2|28|dock2
     RDKit          3D

 20 22  0  0  0  0  0  0  0  0999 V2000
   14.9471   -2.1344   25.5723 C   0  0  0  0  0  0  0  0  0  0  0  0
   14.1835   -1.3958   24.5681 N   0  0  0  0  0  0  0  0  0  0  0  0
   13.0861   -0.6570   25.1995 C   0  0  0  0  0  0  0  0  0  0  0  0
   12.3222    0.1402   24.1585 C   0  0  0  0  0  0  0  0  0  0  0  0
   11.8011   -0.7467   23.1160 N   0  0  0  0  0  0  0  0  0  0  0  0
   12.8685   -1.5450   22.5049 C   0  0  0  0  0  0  0  0  0  0  0  0
   13.6313   -2.3096   23.5713 C   0  0  0  0  0  0  0  0  0  0  0  0
   10.4994   -0.7783   22.7665 C   0  0  0  0  0  0  0  0  0  0  0  0
    9.6681   -0.0519   23.2964 O   0  0  0  0  0  0  0  0  0  0  0  0
   10.0949   -1.7523   21.6743 C   0  0  0  0  0  0  0  0  0  0  0  0
    8.6206   -1.7710   21.3949 C   0  0  0  0  0  0  0  0  0  0  0  0
    7.6361   -2.4569   22.0614 C   0  0  0  0  0  0  0  0  0  0  0  0
    7.7119   -3.2754   23.1138 F   0  0  0  0  0  0  0  0  0  0  0  0
    6.4245   -2.2106   21.5005 N   0  0  0  0  0  0  0  0  0  0  0  0
    6.5805   -1.3530   20.4462 C   0  0  0  0  0  0  0  0  0  0  0  0
    5.6504   -0.8512   19.6194 N   0  0  0  0  0  0  0  0  0  0  0  0
    6.1271   -0.0283   18.6749 C   0  0  0  0  0  0  0  0  0  0  0  0
    7.4729    0.2770   18.5649 C   0  0  0  0  0  0  0  0  0  0  0  0
    8.4057   -0.2231   19.3901 N   0  0  0  0  0  0  0  0  0  0  0  0
    7.9602   -1.0509   20.3471 C   0  0  0  0  0  0  0  0  0  0  0  0
  1  2  1  0
  2  3  1  0
  3  4  1  0
  4  5  1  0
  5  6  1  0
  6  7  1  0
  5  8  1  0
  8  9  2  0
  8 10  1  0
 10 11  1  0
 11 12  2  0
 12 13  1  0
 12 14  1  0
 14 15  1  0
 15 16  2  0
 16 17  1  0
 17 18  2  0
 18 19  1  0
 19 20  2  0
  7  2  1  0
 20 11  1  0
 20 15  1  0
M  END
