CVD-0003826|dock_bobby27042020.58|mol2|29|dock3
     RDKit          3D

 25 27  0  0  0  0  0  0  0  0999 V2000
    9.0996   -3.5234   24.7442 C   0  0  0  0  0  0  0  0  0  0  0  0
    8.2185   -3.2240   23.6235 N   0  0  0  0  0  0  0  0  0  0  0  0
    8.3422   -1.8938   22.9970 C   0  0  0  0  0  0  0  0  0  0  0  0
    9.5859   -1.7766   22.1728 C   0  0  0  0  0  0  0  0  0  0  0  0
    9.7799   -0.3889   21.5838 C   0  0  0  0  0  0  0  0  0  0  0  0
    9.6968    0.6169   22.6312 N   0  0  0  0  0  0  0  0  0  0  0  0
    8.4689    0.5812   23.4163 C   0  0  0  0  0  0  0  0  0  0  0  0
    8.3135   -0.7980   24.0508 C   0  0  0  0  0  0  0  0  0  0  0  0
   10.6031    1.6667   22.7179 C   0  0  0  0  0  0  0  0  0  0  0  0
   11.9761    1.4485   22.7954 C   0  0  0  0  0  0  0  0  0  0  0  0
   12.8672    2.5045   22.8674 C   0  0  0  0  0  0  0  0  0  0  0  0
   12.3919    3.8033   22.8733 C   0  0  0  0  0  0  0  0  0  0  0  0
   11.0317    4.0460   22.8103 C   0  0  0  0  0  0  0  0  0  0  0  0
   10.1494    2.9832   22.7318 C   0  0  0  0  0  0  0  0  0  0  0  0
   13.5247    5.1559   22.9725 S   0  0  0  0  0  0  0  0  0  0  0  0
   13.7734    5.7189   21.4945 N   0  0  0  0  0  0  0  0  0  0  0  0
   14.7732    4.6347   23.4426 O   0  0  0  0  0  0  0  0  0  0  0  0
   12.8843    6.1964   23.7197 O   0  0  0  0  0  0  0  0  0  0  0  0
    7.2954   -4.1803   23.1759 C   0  0  0  0  0  0  0  0  0  0  0  0
    5.9417   -3.8692   23.0820 C   0  0  0  0  0  0  0  0  0  0  0  0
    5.0204   -4.8014   22.6390 C   0  0  0  0  0  0  0  0  0  0  0  0
    5.4648   -6.0467   22.2956 C   0  0  0  0  0  0  0  0  0  0  0  0
    4.5622   -6.9671   21.8609 F   0  0  0  0  0  0  0  0  0  0  0  0
    6.7815   -6.4027   22.3725 C   0  0  0  0  0  0  0  0  0  0  0  0
    7.6973   -5.4636   22.8129 C   0  0  0  0  0  0  0  0  0  0  0  0
  1  2  1  0
  2  3  1  0
  3  4  1  0
  4  5  1  0
  5  6  1  0
  6  7  1  0
  7  8  1  0
  6  9  1  0
  9 10  2  0
 10 11  1  0
 11 12  2  0
 12 13  1  0
 13 14  2  0
 12 15  1  0
 15 16  1  0
 15 17  2  0
 15 18  2  0
  2 19  1  0
 19 20  2  0
 20 21  1  0
 21 22  2  0
 22 23  1  0
 22 24  1  0
 24 25  2  0
  8  3  1  0
 14  9  1  0
 25 19  1  0
M  END
