CVD-0003168|dock_bobby27042020.17|mol2|18|dock2
     RDKit          3D

 40 44  0  0  0  0  0  0  0  0999 V2000
    7.5396   -6.0162   22.1298 C   0  0  0  0  0  0  0  0  0  0  0  0
    6.5593   -4.8575   22.2799 C   0  0  0  0  0  0  0  0  0  0  0  0
    5.1361   -5.3984   22.3796 C   0  0  0  0  0  0  0  0  0  0  0  0
    6.5865   -4.1098   21.0481 O   0  0  0  0  0  0  0  0  0  0  0  0
    6.9572   -3.9508   23.4663 C   0  0  0  0  0  0  0  0  0  0  0  0
    6.2669   -4.0775   24.6711 C   0  0  0  0  0  0  0  0  0  0  0  0
    6.5639   -3.2667   25.7532 C   0  0  0  0  0  0  0  0  0  0  0  0
    7.5615   -2.3257   25.6612 C   0  0  0  0  0  0  0  0  0  0  0  0
    8.2699   -2.2016   24.4819 C   0  0  0  0  0  0  0  0  0  0  0  0
    7.9924   -3.0025   23.3773 C   0  0  0  0  0  0  0  0  0  0  0  0
    8.8668   -2.7629   22.1645 C   0  0  0  0  0  0  0  0  0  0  0  0
    8.3851   -1.5489   21.3685 C   0  0  0  0  0  0  0  0  0  0  0  0
    8.7842   -0.1619   21.8541 C   0  0  0  0  0  0  0  0  0  0  0  0
    7.9427    1.1771   20.9128 S   0  0  0  0  0  0  0  0  0  0  0  0
    6.2457    0.7122   20.3800 C   0  0  0  0  0  0  0  0  0  0  0  0
    6.1706    0.0209   18.9999 C   0  0  0  0  0  0  0  0  0  0  0  0
    6.2233    0.9394   17.8102 C   0  0  0  0  0  0  0  0  0  0  0  0
    5.2240    1.7865   17.7481 O   0  0  0  0  0  0  0  0  0  0  0  0
    7.1085    0.9015   16.9841 O   0  0  0  0  0  0  0  0  0  0  0  0
    5.0931    1.6258   20.7863 C   0  0  0  0  0  0  0  0  0  0  0  0
    5.2468    0.2934   21.4536 C   0  0  0  0  0  0  0  0  0  0  0  0
   10.3017    0.0223   21.9084 C   0  0  0  0  0  0  0  0  0  0  0  0
   11.0354   -0.7215   21.2869 O   0  0  0  0  0  0  0  0  0  0  0  0
   10.8192    1.0113   22.6636 N   0  0  0  0  0  0  0  0  0  0  0  0
   12.2595    1.1891   22.8607 C   0  0  0  0  0  0  0  0  0  0  0  0
   12.6747    2.6011   22.4914 C   0  0  0  0  0  0  0  0  0  0  0  0
   11.9295    3.5754   23.2941 N   0  0  0  0  0  0  0  0  0  0  0  0
   12.3564    4.9432   22.9687 C   0  0  0  0  0  0  0  0  0  0  0  0
   11.7387    5.9841   23.8712 C   0  0  0  0  0  0  0  0  0  0  0  0
   10.5091    6.5411   23.5525 C   0  0  0  0  0  0  0  0  0  0  0  0
    9.9290    7.4840   24.3458 C   0  0  0  0  0  0  0  0  0  0  0  0
   10.5656    7.9300   25.5282 C   0  0  0  0  0  0  0  0  0  0  0  0
   10.0081    8.9061   26.3881 C   0  0  0  0  0  0  0  0  0  0  0  0
   10.6690    9.2971   27.5149 C   0  0  0  0  0  0  0  0  0  0  0  0
   11.8931    8.7511   27.8412 C   0  0  0  0  0  0  0  0  0  0  0  0
   12.4706    7.8075   27.0442 C   0  0  0  0  0  0  0  0  0  0  0  0
   11.8236    7.3694   25.8644 C   0  0  0  0  0  0  0  0  0  0  0  0
   12.3839    6.3937   25.0082 C   0  0  0  0  0  0  0  0  0  0  0  0
   10.5010    3.4109   23.0381 C   0  0  0  0  0  0  0  0  0  0  0  0
   10.0463    2.0106   23.4076 C   0  0  0  0  0  0  0  0  0  0  0  0
  1  2  1  0
  2  3  1  0
  2  4  1  0
  2  5  1  0
  5  6  2  0
  6  7  1  0
  7  8  2  0
  8  9  1  0
  9 10  2  0
 10 11  1  0
 11 12  1  0
 13 12  1  0
 13 14  1  0
 14 15  1  0
 15 16  1  0
 16 17  1  0
 17 18  1  0
 17 19  2  0
 15 20  1  0
 20 21  1  0
 13 22  1  0
 22 23  2  0
 22 24  1  0
 24 25  1  0
 25 26  1  0
 26 27  1  0
 27 28  1  0
 28 29  1  0
 29 30  2  0
 30 31  1  0
 31 32  2  0
 32 33  1  0
 33 34  2  0
 34 35  1  0
 35 36  2  0
 36 37  1  0
 37 38  2  0
 27 39  1  0
 39 40  1  0
 10  5  1  0
 21 15  1  0
 40 24  1  0
 38 29  1  0
 37 32  1  0
M  END
