CVD-0003235|dock_bobby27042020.60|mol2|25|dock3
     RDKit          3D

 33 36  0  0  0  0  0  0  0  0999 V2000
    3.9801    1.1214   19.8449 C   0  0  0  0  0  0  0  0  0  0  0  0
    5.3633    0.8195   19.4731 N   0  0  0  0  0  0  0  0  0  0  0  0
    5.9697    1.1527   18.2938 C   0  0  0  0  0  0  0  0  0  0  0  0
    7.2598    0.7116   18.3462 C   0  0  0  0  0  0  0  0  0  0  0  0
    7.4894    0.0876   19.5938 C   0  0  0  0  0  0  0  0  0  0  0  0
    8.7797   -0.5366   20.0615 C   0  0  0  0  0  0  0  0  0  0  0  0
    8.9606   -0.4890   21.5105 N   0  0  0  0  0  0  0  0  0  0  0  0
    8.4965   -1.5851   22.1834 C   0  0  0  0  0  0  0  0  0  0  0  0
    7.9576   -2.4983   21.5705 O   0  0  0  0  0  0  0  0  0  0  0  0
    8.6224   -1.6942   23.6917 C   0  0  0  0  0  0  0  0  0  0  0  0
    8.8988   -3.1072   24.1531 C   0  0  0  0  0  0  0  0  0  0  0  0
    7.9283   -3.8606   24.7923 C   0  0  0  0  0  0  0  0  0  0  0  0
    8.2054   -5.1498   25.2084 C   0  0  0  0  0  0  0  0  0  0  0  0
    9.4915   -5.6766   24.9692 C   0  0  0  0  0  0  0  0  0  0  0  0
    9.8135   -6.9244   25.3526 N   0  0  0  0  0  0  0  0  0  0  0  0
   10.4374   -4.9473   24.3495 N   0  0  0  0  0  0  0  0  0  0  0  0
   10.1309   -3.7036   23.9619 C   0  0  0  0  0  0  0  0  0  0  0  0
    9.5516    0.7030   22.0634 C   0  0  0  0  0  0  0  0  0  0  0  0
   10.7904    0.7114   22.6956 C   0  0  0  0  0  0  0  0  0  0  0  0
   11.3114    1.8727   23.2395 C   0  0  0  0  0  0  0  0  0  0  0  0
   10.6181    3.0765   23.1448 C   0  0  0  0  0  0  0  0  0  0  0  0
   11.0766    4.3116   23.6720 N   0  0  0  0  0  0  0  0  0  0  0  0
   12.3250    4.8569   23.7037 C   0  0  0  0  0  0  0  0  0  0  0  0
   13.3181    4.3073   23.2391 O   0  0  0  0  0  0  0  0  0  0  0  0
   12.5197    6.2082   24.3394 C   0  0  0  0  0  0  0  0  0  0  0  0
   12.0430    6.5553   25.6042 C   0  0  0  0  0  0  0  0  0  0  0  0
   12.2623    7.8210   26.1225 C   0  0  0  0  0  0  0  0  0  0  0  0
   12.9570    8.7628   25.3966 C   0  0  0  0  0  0  0  0  0  0  0  0
   13.4352    8.4392   24.1467 C   0  0  0  0  0  0  0  0  0  0  0  0
   13.2194    7.1759   23.6229 C   0  0  0  0  0  0  0  0  0  0  0  0
    9.3937    3.0732   22.4894 C   0  0  0  0  0  0  0  0  0  0  0  0
    8.8692    1.9086   21.9591 C   0  0  0  0  0  0  0  0  0  0  0  0
    6.2767    0.1829   20.2659 C   0  0  0  0  0  0  0  0  0  0  0  0
  1  2  1  0
  2  3  1  0
  3  4  2  0
  4  5  1  0
  5  6  1  0
  6  7  1  0
  7  8  1  0
  8  9  2  0
  8 10  1  0
 10 11  1  0
 11 12  2  0
 12 13  1  0
 13 14  2  0
 14 15  1  0
 14 16  1  0
 16 17  2  0
  7 18  1  0
 18 19  2  0
 19 20  1  0
 20 21  2  0
 21 22  1  0
 22 23  1  0
 23 24  2  0
 23 25  1  0
 25 26  2  0
 26 27  1  0
 27 28  2  0
 28 29  1  0
 29 30  2  0
 21 31  1  0
 31 32  2  0
  5 33  2  0
 33  2  1  0
 17 11  1  0
 32 18  1  0
 30 25  1  0
M  END
