CVD-0000076|dock_bobby27042020.43|mol2|1|dock3
     RDKit          3D

 17 18  0  0  0  0  0  0  0  0999 V2000
   13.7125   -0.7472   23.9313 C   0  0  0  0  0  0  0  0  0  0  0  0
   12.2705   -0.8232   23.7028 N   0  0  0  0  0  0  0  0  0  0  0  0
   11.9519   -1.9370   22.8047 C   0  0  0  0  0  0  0  0  0  0  0  0
   10.4512   -2.0368   22.6036 C   0  0  0  0  0  0  0  0  0  0  0  0
    9.9231   -0.7828   22.0617 N   0  0  0  0  0  0  0  0  0  0  0  0
   10.2772    0.3610   22.9078 C   0  0  0  0  0  0  0  0  0  0  0  0
   11.7800    0.4199   23.1132 C   0  0  0  0  0  0  0  0  0  0  0  0
    9.1708   -0.7264   20.9201 C   0  0  0  0  0  0  0  0  0  0  0  0
    9.2337   -1.6676   20.1405 O   0  0  0  0  0  0  0  0  0  0  0  0
    8.3816    0.3807   20.7087 N   0  0  0  0  0  0  0  0  0  0  0  0
    7.4463    0.6490   19.6666 C   0  0  0  0  0  0  0  0  0  0  0  0
    7.5446    0.1641   18.3605 C   0  0  0  0  0  0  0  0  0  0  0  0
    6.6523    0.4111   17.3965 N   0  0  0  0  0  0  0  0  0  0  0  0
    5.6124    1.1822   17.6985 C   0  0  0  0  0  0  0  0  0  0  0  0
    5.4193    1.7230   18.9493 C   0  0  0  0  0  0  0  0  0  0  0  0
    6.3358    1.4650   19.9642 C   0  0  0  0  0  0  0  0  0  0  0  0
    6.0799    2.0688   21.3215 C   0  0  0  0  0  0  0  0  0  0  0  0
  1  2  1  0
  2  3  1  0
  3  4  1  0
  4  5  1  0
  5  6  1  0
  6  7  1  0
  5  8  1  0
  8  9  2  0
  8 10  1  0
 10 11  1  0
 11 12  2  0
 12 13  1  0
 13 14  2  0
 14 15  1  0
 15 16  2  0
 16 17  1  0
  7  2  1  0
 16 11  1  0
M  END
