CVD-0002981|dock_bobby27042020.32|mol2|26|dock1
     RDKit          3D

 22 23  0  0  0  0  0  0  0  0999 V2000
    6.0437   -0.8110   18.2167 C   0  0  0  0  0  0  0  0  0  0  0  0
    5.9131   -1.4449   19.5662 C   0  0  0  0  0  0  0  0  0  0  0  0
    7.1987   -1.5349   20.2384 N   0  0  0  0  0  0  0  0  0  0  0  0
    7.4473   -2.4290   21.2111 C   0  0  0  0  0  0  0  0  0  0  0  0
    6.4150   -3.2459   21.4969 N   0  0  0  0  0  0  0  0  0  0  0  0
    6.5799   -4.1486   22.4684 C   0  0  0  0  0  0  0  0  0  0  0  0
    7.7555   -4.2944   23.1936 C   0  0  0  0  0  0  0  0  0  0  0  0
    8.8299   -3.4623   22.8970 C   0  0  0  0  0  0  0  0  0  0  0  0
    8.6872   -2.5143   21.8865 C   0  0  0  0  0  0  0  0  0  0  0  0
    9.7460   -1.6889   21.5694 N   0  0  0  0  0  0  0  0  0  0  0  0
   10.3245   -0.6925   22.4657 C   0  0  0  0  0  0  0  0  0  0  0  0
   10.0063    0.7398   22.0418 C   0  0  0  0  0  0  0  0  0  0  0  0
   10.6980    1.7664   22.9158 C   0  0  0  0  0  0  0  0  0  0  0  0
   12.1395    1.5060   22.9818 N   0  0  0  0  0  0  0  0  0  0  0  0
   12.4566    0.1800   23.4994 C   0  0  0  0  0  0  0  0  0  0  0  0
   11.8312   -0.8680   22.6056 C   0  0  0  0  0  0  0  0  0  0  0  0
   13.1171    2.4025   22.7081 C   0  0  0  0  0  0  0  0  0  0  0  0
   14.3012    2.0987   22.7812 O   0  0  0  0  0  0  0  0  0  0  0  0
   12.7185    3.8112   22.3111 C   0  0  0  0  0  0  0  0  0  0  0  0
   14.1447    4.8320   22.0852 Cl  0  0  0  0  0  0  0  0  0  0  0  0
    7.8657   -5.2870   24.2339 C   0  0  0  0  0  0  0  0  0  0  0  0
    7.9233   -6.0634   25.0699 N   0  0  0  0  0  0  0  0  0  0  0  0
  1  2  1  0
  2  3  1  0
  3  4  1  0
  4  5  2  0
  5  6  1  0
  6  7  2  0
  7  8  1  0
  8  9  2  0
  9 10  1  0
 10 11  1  0
 11 12  1  0
 12 13  1  0
 13 14  1  0
 14 15  1  0
 15 16  1  0
 14 17  1  0
 17 18  2  0
 17 19  1  0
 19 20  1  0
  7 21  1  0
 21 22  3  0
  9  4  1  0
 16 11  1  0
M  END
