CVD-0003194|dock_bobby27042020.46|mol2|7|dock2
     RDKit          3D

 20 21  0  0  0  0  0  0  0  0999 V2000
   14.4272    6.4209   21.8845 Cl  0  0  0  0  0  0  0  0  0  0  0  0
   13.1735    5.2947   22.2035 C   0  0  0  0  0  0  0  0  0  0  0  0
   13.3252    4.0042   22.5551 C   0  0  0  0  0  0  0  0  0  0  0  0
   12.0788    3.3537   22.7439 C   0  0  0  0  0  0  0  0  0  0  0  0
   12.0737    1.9895   23.1171 N   0  0  0  0  0  0  0  0  0  0  0  0
   11.0263    1.2769   23.7272 C   0  0  0  0  0  0  0  0  0  0  0  0
    9.9632    1.8275   23.9841 O   0  0  0  0  0  0  0  0  0  0  0  0
   11.1951   -0.0487   24.0418 N   0  0  0  0  0  0  0  0  0  0  0  0
   10.0308   -0.7727   24.5669 C   0  0  0  0  0  0  0  0  0  0  0  0
    9.8664   -2.2244   24.1401 C   0  0  0  0  0  0  0  0  0  0  0  0
    9.6426   -2.4922   22.6574 C   0  0  0  0  0  0  0  0  0  0  0  0
   10.8480   -2.5628   21.7369 C   0  0  0  0  0  0  0  0  0  0  0  0
   11.6406   -1.3315   21.6538 N   0  0  0  0  0  0  0  0  0  0  0  0
   13.2369   -1.3083   21.8372 S   0  0  0  0  0  0  0  0  0  0  0  0
   13.7298    0.0212   21.6372 O   0  0  0  0  0  0  0  0  0  0  0  0
   13.8061   -2.4328   21.1574 O   0  0  0  0  0  0  0  0  0  0  0  0
   13.0966   -1.6561   23.5717 C   0  0  0  0  0  0  0  0  0  0  0  0
   12.5045   -0.5668   24.4593 C   0  0  0  0  0  0  0  0  0  0  0  0
   11.0240    4.1798   22.5271 C   0  0  0  0  0  0  0  0  0  0  0  0
   11.5187    5.7619   22.0902 S   0  0  0  0  0  0  0  0  0  0  0  0
  1  2  1  0
  2  3  2  0
  3  4  1  0
  4  5  1  0
  5  6  1  0
  6  7  2  0
  6  8  1  0
  8  9  1  0
  9 10  1  0
 10 11  1  0
 11 12  1  0
 12 13  1  0
 13 14  1  0
 14 15  2  0
 14 16  2  0
 14 17  1  0
 17 18  1  0
  4 19  2  0
 19 20  1  0
 20  2  1  0
 18  8  1  0
M  END
