CVD-0003140|dock_bobby27042020.17|mol2|22|dock3
     RDKit          3D

 18 20  0  0  0  0  0  0  0  0999 V2000
   14.3381    5.2740   21.9518 C   0  0  0  0  0  0  0  0  0  0  0  0
   12.9740    4.7707   22.2451 C   0  0  0  0  0  0  0  0  0  0  0  0
   12.4429    3.6363   21.9398 N   0  0  0  0  0  0  0  0  0  0  0  0
   11.1650    3.6887   22.4629 C   0  0  0  0  0  0  0  0  0  0  0  0
   10.2088    2.5477   22.3172 C   0  0  0  0  0  0  0  0  0  0  0  0
   10.8415    1.2849   22.6620 N   0  0  0  0  0  0  0  0  0  0  0  0
   10.3883    0.0302   22.2271 C   0  0  0  0  0  0  0  0  0  0  0  0
    9.4207   -0.1358   21.4941 O   0  0  0  0  0  0  0  0  0  0  0  0
   11.2032   -0.8998   22.7622 N   0  0  0  0  0  0  0  0  0  0  0  0
   12.2113   -0.3108   23.6357 C   0  0  0  0  0  0  0  0  0  0  0  0
   12.1154   -0.8459   25.0878 C   0  0  0  0  0  0  0  0  0  0  0  0
   13.2939   -1.7486   25.2758 C   0  0  0  0  0  0  0  0  0  0  0  0
   14.1666   -1.6111   24.1166 C   0  0  0  0  0  0  0  0  0  0  0  0
   13.6366   -0.6371   23.1435 C   0  0  0  0  0  0  0  0  0  0  0  0
   11.9063    1.1720   23.5198 C   0  0  0  0  0  0  0  0  0  0  0  0
   12.4448    2.0716   24.1286 O   0  0  0  0  0  0  0  0  0  0  0  0
   10.9913    4.8703   23.0690 C   0  0  0  0  0  0  0  0  0  0  0  0
   12.1478    5.5928   22.9469 O   0  0  0  0  0  0  0  0  0  0  0  0
  1  2  1  0
  2  3  2  0
  3  4  1  0
  4  5  1  0
  5  6  1  0
  6  7  1  0
  7  8  2  0
  7  9  1  0
  9 10  1  0
 10 11  1  0
 11 12  1  0
 12 13  1  0
 13 14  1  0
 10 15  1  0
 15 16  2  0
  4 17  2  0
 17 18  1  0
 18  2  1  0
 15  6  1  0
 14 10  1  0
M  END
