CVD-0002038|dock_bobby27042020.50|mol2|28|dock1
     RDKit          3D

 26 28  0  0  0  0  0  0  0  0999 V2000
    9.9618    1.2795   25.8731 C   0  0  0  0  0  0  0  0  0  0  0  0
   11.2578    1.7214   25.2594 C   0  0  0  0  0  0  0  0  0  0  0  0
   12.1692    0.9236   25.0664 O   0  0  0  0  0  0  0  0  0  0  0  0
   11.3046    3.0473   24.9681 N   0  0  0  0  0  0  0  0  0  0  0  0
   12.3400    3.8348   24.3976 C   0  0  0  0  0  0  0  0  0  0  0  0
   12.6452    5.1260   24.8227 C   0  0  0  0  0  0  0  0  0  0  0  0
   13.5877    5.8886   24.2620 N   0  0  0  0  0  0  0  0  0  0  0  0
   14.2465    5.3909   23.2186 C   0  0  0  0  0  0  0  0  0  0  0  0
   14.0474    4.1199   22.7244 C   0  0  0  0  0  0  0  0  0  0  0  0
   13.1009    3.3007   23.3389 C   0  0  0  0  0  0  0  0  0  0  0  0
   12.9848    1.9096   22.8104 C   0  0  0  0  0  0  0  0  0  0  0  0
   13.9484    0.9423   23.0760 C   0  0  0  0  0  0  0  0  0  0  0  0
   13.8208   -0.3385   22.5684 C   0  0  0  0  0  0  0  0  0  0  0  0
   12.7297   -0.6739   21.7854 C   0  0  0  0  0  0  0  0  0  0  0  0
   11.7514    0.2711   21.4994 C   0  0  0  0  0  0  0  0  0  0  0  0
   10.6614   -0.1399   20.6905 N   0  0  0  0  0  0  0  0  0  0  0  0
    9.3795    0.3509   20.5868 C   0  0  0  0  0  0  0  0  0  0  0  0
    8.9459    1.2992   21.2324 O   0  0  0  0  0  0  0  0  0  0  0  0
    8.6458   -0.3600   19.6645 N   0  0  0  0  0  0  0  0  0  0  0  0
    7.3019   -0.2126   19.2364 C   0  0  0  0  0  0  0  0  0  0  0  0
    6.6895    1.0249   19.3879 C   0  0  0  0  0  0  0  0  0  0  0  0
    5.3790    1.1979   18.9790 C   0  0  0  0  0  0  0  0  0  0  0  0
    4.7147    0.1269   18.4287 C   0  0  0  0  0  0  0  0  0  0  0  0
    5.2727   -1.0730   18.2692 N   0  0  0  0  0  0  0  0  0  0  0  0
    6.5391   -1.2307   18.6671 C   0  0  0  0  0  0  0  0  0  0  0  0
   11.8927    1.5580   22.0172 C   0  0  0  0  0  0  0  0  0  0  0  0
  1  2  1  0
  2  3  2  0
  2  4  1  0
  4  5  1  0
  5  6  2  0
  6  7  1  0
  7  8  2  0
  8  9  1  0
  9 10  2  0
 10 11  1  0
 11 12  2  0
 12 13  1  0
 13 14  2  0
 14 15  1  0
 15 16  1  0
 16 17  1  0
 17 18  2  0
 17 19  1  0
 19 20  1  0
 20 21  2  0
 21 22  1  0
 22 23  2  0
 23 24  1  0
 24 25  2  0
 15 26  2  0
 10  5  1  0
 26 11  1  0
 25 20  1  0
M  END
