CVD-0000827|dock_bobby27042020.97|mol2|21|dock2
     RDKit          3D

 28 30  0  0  0  0  0  0  0  0999 V2000
    6.2324   -3.1013   19.8631 C   0  0  0  0  0  0  0  0  0  0  0  0
    7.3246   -2.2050   20.0574 O   0  0  0  0  0  0  0  0  0  0  0  0
    8.2634   -2.4572   21.0267 C   0  0  0  0  0  0  0  0  0  0  0  0
    8.0283   -3.3655   22.0505 C   0  0  0  0  0  0  0  0  0  0  0  0
    9.0326   -3.5960   22.9886 C   0  0  0  0  0  0  0  0  0  0  0  0
    8.9900   -4.2856   24.2825 C   0  0  0  0  0  0  0  0  0  0  0  0
    7.8463   -5.1068   24.8082 C   0  0  0  0  0  0  0  0  0  0  0  0
    8.0508   -5.5589   26.2404 C   0  0  0  0  0  0  0  0  0  0  0  0
    6.8777   -6.2417   26.7670 N   0  0  0  0  0  0  0  0  0  0  0  0
    6.8526   -6.7967   27.9803 C   0  0  0  0  0  0  0  0  0  0  0  0
    5.5738   -7.4793   28.3681 C   0  0  0  0  0  0  0  0  0  0  0  0
    7.8239   -6.7638   28.7294 O   0  0  0  0  0  0  0  0  0  0  0  0
   10.1566   -4.1145   24.9073 C   0  0  0  0  0  0  0  0  0  0  0  0
   11.0661   -3.2211   24.1220 C   0  0  0  0  0  0  0  0  0  0  0  0
   10.2477   -2.9279   22.8997 C   0  0  0  0  0  0  0  0  0  0  0  0
   10.4911   -2.0117   21.8709 C   0  0  0  0  0  0  0  0  0  0  0  0
   11.7651   -1.1928   21.9152 C   0  0  0  0  0  0  0  0  0  0  0  0
   11.7280    0.0839   22.6488 N   0  0  0  0  0  0  0  0  0  0  0  0
   10.8670    1.0478   21.9573 C   0  0  0  0  0  0  0  0  0  0  0  0
   10.7996    2.3469   22.7386 C   0  0  0  0  0  0  0  0  0  0  0  0
   12.1413    2.9054   22.9189 N   0  0  0  0  0  0  0  0  0  0  0  0
   13.0449    1.9419   23.5553 C   0  0  0  0  0  0  0  0  0  0  0  0
   13.0715    0.6446   22.7678 C   0  0  0  0  0  0  0  0  0  0  0  0
   12.4636    4.1644   22.5596 C   0  0  0  0  0  0  0  0  0  0  0  0
   11.6457    4.9289   22.0635 O   0  0  0  0  0  0  0  0  0  0  0  0
   13.9007    4.5845   22.7978 C   0  0  0  0  0  0  0  0  0  0  0  0
   14.1617    6.2694   22.3285 Cl  0  0  0  0  0  0  0  0  0  0  0  0
    9.4778   -1.7929   20.9425 C   0  0  0  0  0  0  0  0  0  0  0  0
  1  2  1  0
  2  3  1  0
  3  4  2  0
  4  5  1  0
  5  6  1  0
  6  7  1  0
  7  8  1  0
  8  9  1  0
  9 10  1  0
 10 11  1  0
 10 12  2  0
  6 13  2  0
 13 14  1  0
 14 15  1  0
 15 16  1  0
 16 17  1  0
 17 18  1  0
 18 19  1  0
 19 20  1  0
 20 21  1  0
 21 22  1  0
 22 23  1  0
 21 24  1  0
 24 25  2  0
 24 26  1  0
 26 27  1  0
 16 28  2  0
 28  3  1  0
 15  5  2  0
 23 18  1  0
M  END
