CVD-0001004|dock_bobby27042020.96|mol2|39|dock2
     RDKit          3D

 39 43  0  0  0  0  0  0  0  0999 V2000
    9.4364  -14.1955   32.4811 C   0  0  0  0  0  0  0  0  0  0  0  0
    8.3185  -13.3313   32.6754 O   0  0  0  0  0  0  0  0  0  0  0  0
    8.1936  -12.1866   31.9284 C   0  0  0  0  0  0  0  0  0  0  0  0
    7.4692  -11.1370   32.4598 C   0  0  0  0  0  0  0  0  0  0  0  0
    7.3181   -9.9654   31.7419 C   0  0  0  0  0  0  0  0  0  0  0  0
    7.8823   -9.8017   30.4741 C   0  0  0  0  0  0  0  0  0  0  0  0
    7.6597   -8.5079   29.7926 C   0  0  0  0  0  0  0  0  0  0  0  0
    6.6636   -7.6833   29.9482 N   0  0  0  0  0  0  0  0  0  0  0  0
    6.9369   -6.6315   29.0805 C   0  0  0  0  0  0  0  0  0  0  0  0
    6.2538   -5.4530   28.7914 C   0  0  0  0  0  0  0  0  0  0  0  0
    6.7820   -4.5731   27.8584 C   0  0  0  0  0  0  0  0  0  0  0  0
    7.9863   -4.8476   27.2042 C   0  0  0  0  0  0  0  0  0  0  0  0
    8.5648   -3.9794   26.2444 N   0  0  0  0  0  0  0  0  0  0  0  0
    8.2227   -2.7294   25.8443 C   0  0  0  0  0  0  0  0  0  0  0  0
    7.2779   -2.0740   26.2737 O   0  0  0  0  0  0  0  0  0  0  0  0
    9.1282   -2.1558   24.7743 C   0  0  0  0  0  0  0  0  0  0  0  0
    8.8269   -2.7232   23.4226 C   0  0  0  0  0  0  0  0  0  0  0  0
    9.6655   -2.1025   22.3171 C   0  0  0  0  0  0  0  0  0  0  0  0
    9.5588   -0.6527   22.3601 N   0  0  0  0  0  0  0  0  0  0  0  0
    9.9090   -0.0522   23.6416 C   0  0  0  0  0  0  0  0  0  0  0  0
    9.0215   -0.6394   24.7354 C   0  0  0  0  0  0  0  0  0  0  0  0
    9.3365    0.2380   21.0128 S   0  0  0  0  0  0  0  0  0  0  0  0
    9.6562   -0.6114   19.9079 O   0  0  0  0  0  0  0  0  0  0  0  0
   10.0599    1.4559   21.2082 O   0  0  0  0  0  0  0  0  0  0  0  0
    7.6233    0.6290   20.9233 C   0  0  0  0  0  0  0  0  0  0  0  0
    7.1723    1.8454   21.4107 C   0  0  0  0  0  0  0  0  0  0  0  0
    5.8254    2.1525   21.3348 C   0  0  0  0  0  0  0  0  0  0  0  0
    4.9405    1.2461   20.7731 C   0  0  0  0  0  0  0  0  0  0  0  0
    5.3963    0.0320   20.2852 C   0  0  0  0  0  0  0  0  0  0  0  0
    6.7423   -0.2798   20.3589 C   0  0  0  0  0  0  0  0  0  0  0  0
    3.5110    1.5744   20.6943 N   0  0  0  0  0  0  0  0  0  0  0  0
    3.1552    2.6918   21.0629 O   0  0  0  0  0  0  0  0  0  0  0  0
    2.7518    0.7212   20.2671 O   0  0  0  0  0  0  0  0  0  0  0  0
    8.6647   -6.0279   27.4976 C   0  0  0  0  0  0  0  0  0  0  0  0
    8.1165   -6.8859   28.4301 C   0  0  0  0  0  0  0  0  0  0  0  0
    8.6013   -8.0976   28.8776 O   0  0  0  0  0  0  0  0  0  0  0  0
    8.6089  -10.8794   29.9627 C   0  0  0  0  0  0  0  0  0  0  0  0
    9.4450  -10.8398   28.2606 Br  0  0  0  0  0  0  0  0  0  0  0  0
    8.7671  -12.0570   30.6720 C   0  0  0  0  0  0  0  0  0  0  0  0
  1  2  1  0
  2  3  1  0
  3  4  2  0
  4  5  1  0
  5  6  2  0
  6  7  1  0
  7  8  2  0
  8  9  1  0
  9 10  2  0
 10 11  1  0
 11 12  2  0
 12 13  1  0
 13 14  1  0
 14 15  2  0
 14 16  1  0
 16 17  1  0
 17 18  1  0
 18 19  1  0
 19 20  1  0
 20 21  1  0
 19 22  1  0
 22 23  2  0
 22 24  2  0
 22 25  1  0
 25 26  2  0
 26 27  1  0
 27 28  2  0
 28 29  1  0
 29 30  2  0
 28 31  1  0
 31 32  1  0
 31 33  2  0
 12 34  1  0
 34 35  2  0
 35 36  1  0
  6 37  1  0
 37 38  1  0
 37 39  2  0
 39  3  1  0
 36  7  1  0
 35  9  1  0
 21 16  1  0
 30 25  1  0
M  CHG  2  31   1  32  -1
M  END
