CVD-0000207|dock_bobby27042020.85|mol2|13|dock1
     RDKit          3D

 25 28  0  0  0  0  0  0  0  0999 V2000
   13.1530    6.9792   23.2415 F   0  0  0  0  0  0  0  0  0  0  0  0
   12.2303    5.9826   23.1633 C   0  0  0  0  0  0  0  0  0  0  0  0
   12.5882    4.8037   22.5684 C   0  0  0  0  0  0  0  0  0  0  0  0
   11.6500    3.7892   22.4883 C   0  0  0  0  0  0  0  0  0  0  0  0
   10.3691    3.9699   23.0019 C   0  0  0  0  0  0  0  0  0  0  0  0
    9.3873    2.9807   22.9465 O   0  0  0  0  0  0  0  0  0  0  0  0
    9.6981    1.7174   22.5436 C   0  0  0  0  0  0  0  0  0  0  0  0
   10.7248    1.1068   23.0821 N   0  0  0  0  0  0  0  0  0  0  0  0
   11.0023   -0.1308   22.6489 C   0  0  0  0  0  0  0  0  0  0  0  0
   10.3366   -0.8159   21.7228 N   0  0  0  0  0  0  0  0  0  0  0  0
    9.2542   -0.1905   21.1643 C   0  0  0  0  0  0  0  0  0  0  0  0
    8.4948   -0.8644   20.1792 C   0  0  0  0  0  0  0  0  0  0  0  0
    7.4101   -0.2611   19.6124 C   0  0  0  0  0  0  0  0  0  0  0  0
    7.0293    1.0125   19.9838 C   0  0  0  0  0  0  0  0  0  0  0  0
    7.7316    1.7010   20.9278 C   0  0  0  0  0  0  0  0  0  0  0  0
    8.8678    1.1183   21.5448 C   0  0  0  0  0  0  0  0  0  0  0  0
   12.1683   -0.8100   23.2599 C   0  0  0  0  0  0  0  0  0  0  0  0
   12.7197   -1.9522   22.6919 C   0  0  0  0  0  0  0  0  0  0  0  0
   13.8091   -2.5622   23.2885 C   0  0  0  0  0  0  0  0  0  0  0  0
   14.3194   -2.0109   24.4417 C   0  0  0  0  0  0  0  0  0  0  0  0
   13.8153   -0.9165   25.0135 N   0  0  0  0  0  0  0  0  0  0  0  0
   12.7634   -0.3408   24.4234 C   0  0  0  0  0  0  0  0  0  0  0  0
   10.0570    5.1874   23.5982 C   0  0  0  0  0  0  0  0  0  0  0  0
    8.3241    5.4699   24.3125 Br  0  0  0  0  0  0  0  0  0  0  0  0
   10.9822    6.2101   23.6870 C   0  0  0  0  0  0  0  0  0  0  0  0
  1  2  1  0
  2  3  2  0
  3  4  1  0
  4  5  2  0
  5  6  1  0
  6  7  1  0
  7  8  2  0
  8  9  1  0
  9 10  2  0
 10 11  1  0
 11 12  2  0
 12 13  1  0
 13 14  2  0
 14 15  1  0
 15 16  2  0
  9 17  1  0
 17 18  2  0
 18 19  1  0
 19 20  2  0
 20 21  1  0
 21 22  2  0
  5 23  1  0
 23 24  1  0
 23 25  2  0
 25  2  1  0
 16  7  1  0
 22 17  1  0
 16 11  1  0
M  END
