CVD-0002096|dock_bobby27042020.50|mol2|19|dock2
     RDKit          3D

 22 24  0  0  0  0  0  0  0  0999 V2000
    8.8389    3.7636   22.5681 N   0  0  0  0  0  0  0  0  0  0  0  0
    9.4348    2.4172   22.7213 C   0  0  0  0  0  0  0  0  0  0  0  0
    8.3964    1.3090   22.8037 C   0  0  0  0  0  0  0  0  0  0  0  0
    9.0006    0.2170   23.4782 O   0  0  0  0  0  0  0  0  0  0  0  0
    9.8381   -0.5805   22.6142 C   0  0  0  0  0  0  0  0  0  0  0  0
    8.8589   -1.3007   21.6491 C   0  0  0  0  0  0  0  0  0  0  0  0
    8.1425   -0.2331   20.8373 C   0  0  0  0  0  0  0  0  0  0  0  0
    7.6634   -0.4545   19.5398 C   0  0  0  0  0  0  0  0  0  0  0  0
    8.1196   -1.5090   18.7926 O   0  0  0  0  0  0  0  0  0  0  0  0
    6.8134    0.4605   18.9241 C   0  0  0  0  0  0  0  0  0  0  0  0
    6.4282    0.2477   17.6388 O   0  0  0  0  0  0  0  0  0  0  0  0
    6.4250    1.6156   19.5906 C   0  0  0  0  0  0  0  0  0  0  0  0
    6.8922    1.8442   20.8709 C   0  0  0  0  0  0  0  0  0  0  0  0
    7.7448    0.9337   21.4971 C   0  0  0  0  0  0  0  0  0  0  0  0
   10.7297   -1.4194   23.5285 C   0  0  0  0  0  0  0  0  0  0  0  0
   11.5041   -0.5300   24.5143 C   0  0  0  0  0  0  0  0  0  0  0  0
   12.5157    0.3418   23.7750 C   0  0  0  0  0  0  0  0  0  0  0  0
   13.4833   -0.5136   22.9603 C   0  0  0  0  0  0  0  0  0  0  0  0
   12.7523   -1.4492   22.0129 C   0  0  0  0  0  0  0  0  0  0  0  0
   11.7042   -2.2949   22.7447 C   0  0  0  0  0  0  0  0  0  0  0  0
   13.6873   -2.2751   21.1741 C   0  0  0  0  0  0  0  0  0  0  0  0
   13.9281   -2.0799   20.0196 O   0  0  0  0  0  0  0  0  0  0  0  0
  1  2  1  0
  2  3  1  0
  3  4  1  0
  4  5  1  0
  5  6  1  0
  6  7  1  0
  7  8  2  0
  8  9  1  0
  8 10  1  0
 10 11  1  0
 10 12  2  0
 12 13  1  0
 13 14  2  0
  5 15  1  0
 15 16  1  0
 16 17  1  0
 17 18  1  0
 18 19  1  0
 19 20  1  0
 19 21  1  0
 21 22  2  0
 14  3  1  0
 20 15  1  0
 14  7  1  0
M  END
