CVD-0004024|dock_bobby27042020.14|mol2|37|dock2
     RDKit          3D

 48 51  0  0  0  0  0  0  0  0999 V2000
    5.8551    8.2001   20.5916 C   0  0  0  0  0  0  0  0  0  0  0  0
    6.3945    8.5630   21.8610 O   0  0  0  0  0  0  0  0  0  0  0  0
    7.2019    7.6906   22.5479 C   0  0  0  0  0  0  0  0  0  0  0  0
    7.5222    6.4380   22.0432 C   0  0  0  0  0  0  0  0  0  0  0  0
    8.3439    5.5844   22.7713 C   0  0  0  0  0  0  0  0  0  0  0  0
    8.6353    4.3187   22.2042 N   0  0  0  0  0  0  0  0  0  0  0  0
    8.8248    3.1032   22.7754 C   0  0  0  0  0  0  0  0  0  0  0  0
    8.7796    2.8351   23.9744 O   0  0  0  0  0  0  0  0  0  0  0  0
    9.1220    2.0055   21.7349 C   0  0  0  0  0  0  0  0  0  0  0  0
    8.6874    2.0939   20.5996 O   0  0  0  0  0  0  0  0  0  0  0  0
    9.9751    0.8216   22.1802 C   0  0  0  0  0  0  0  0  0  0  0  0
   11.4542    1.0770   21.8850 C   0  0  0  0  0  0  0  0  0  0  0  0
   12.0880    2.2082   22.7058 C   0  0  0  0  0  0  0  0  0  0  0  0
   12.1697    3.5651   21.9785 C   0  0  0  0  0  0  0  0  0  0  0  0
   13.5269    4.1463   22.3527 C   0  0  0  0  0  0  0  0  0  0  0  0
   14.2627    2.9871   22.8205 N   0  0  0  0  0  0  0  0  0  0  0  0
   13.5153    1.9130   23.0867 C   0  0  0  0  0  0  0  0  0  0  0  0
   13.9355    0.8483   23.5316 O   0  0  0  0  0  0  0  0  0  0  0  0
    9.5241   -0.3717   21.4830 N   0  0  0  0  0  0  0  0  0  0  0  0
    8.2940   -0.8633   21.6574 C   0  0  0  0  0  0  0  0  0  0  0  0
    7.4693   -0.3492   22.4083 O   0  0  0  0  0  0  0  0  0  0  0  0
    7.9420   -2.1208   20.8679 C   0  0  0  0  0  0  0  0  0  0  0  0
    6.7280   -1.8526   19.9774 C   0  0  0  0  0  0  0  0  0  0  0  0
    6.7639   -0.5309   19.2164 C   0  0  0  0  0  0  0  0  0  0  0  0
    7.9482   -0.5048   18.2658 C   0  0  0  0  0  0  0  0  0  0  0  0
    5.4703   -0.3341   18.4450 C   0  0  0  0  0  0  0  0  0  0  0  0
    7.6645   -3.2323   21.7626 N   0  0  0  0  0  0  0  0  0  0  0  0
    8.5399   -3.5001   22.7527 C   0  0  0  0  0  0  0  0  0  0  0  0
    9.5365   -2.8011   22.8920 O   0  0  0  0  0  0  0  0  0  0  0  0
    8.2996   -4.5596   23.5949 N   0  0  0  0  0  0  0  0  0  0  0  0
    9.2344   -4.8760   24.6821 C   0  0  0  0  0  0  0  0  0  0  0  0
    8.5670   -5.0796   26.0209 C   0  0  0  0  0  0  0  0  0  0  0  0
    8.8768   -6.1787   26.8068 C   0  0  0  0  0  0  0  0  0  0  0  0
    8.2635   -6.3665   28.0342 C   0  0  0  0  0  0  0  0  0  0  0  0
    7.3329   -5.4572   28.4893 C   0  0  0  0  0  0  0  0  0  0  0  0
    7.0155   -4.3604   27.7172 C   0  0  0  0  0  0  0  0  0  0  0  0
    7.6289   -4.1729   26.4898 C   0  0  0  0  0  0  0  0  0  0  0  0
    7.1068   -5.3727   23.4632 C   0  0  0  0  0  0  0  0  0  0  0  0
    7.1843   -6.3265   22.2909 C   0  0  0  0  0  0  0  0  0  0  0  0
    5.8971   -7.1406   22.2144 C   0  0  0  0  0  0  0  0  0  0  0  0
    4.6885   -6.2288   22.2220 C   0  0  0  0  0  0  0  0  0  0  0  0
    4.7675   -5.2834   23.3899 C   0  0  0  0  0  0  0  0  0  0  0  0
    5.9794   -4.5175   23.3605 O   0  0  0  0  0  0  0  0  0  0  0  0
    8.8434    5.9908   24.0071 C   0  0  0  0  0  0  0  0  0  0  0  0
    8.5147    7.2472   24.5000 C   0  0  0  0  0  0  0  0  0  0  0  0
    8.9807    7.6947   25.7117 O   0  0  0  0  0  0  0  0  0  0  0  0
   10.1890    7.1745   26.2630 C   0  0  0  0  0  0  0  0  0  0  0  0
    7.6966    8.0969   23.7750 C   0  0  0  0  0  0  0  0  0  0  0  0
  1  2  1  0
  2  3  1  0
  3  4  2  0
  4  5  1  0
  5  6  1  0
  6  7  1  0
  7  8  2  0
  7  9  1  0
  9 10  2  0
  9 11  1  0
 11 12  1  0
 13 12  1  0
 13 14  1  0
 14 15  1  0
 15 16  1  0
 16 17  1  0
 17 18  2  0
 11 19  1  0
 19 20  1  0
 20 21  2  0
 20 22  1  0
 22 23  1  0
 23 24  1  0
 24 25  1  0
 24 26  1  0
 22 27  1  0
 27 28  1  0
 28 29  2  0
 28 30  1  0
 30 31  1  0
 31 32  1  0
 32 33  2  0
 33 34  1  0
 34 35  2  0
 35 36  1  0
 36 37  2  0
 30 38  1  0
 38 39  1  0
 39 40  1  0
 40 41  1  0
 41 42  1  0
 42 43  1  0
  5 44  2  0
 44 45  1  0
 45 46  1  0
 46 47  1  0
 45 48  2  0
 48  3  1  0
 17 13  1  0
 37 32  1  0
 43 38  1  0
M  END
