CVD-0001813|dock_bobby27042020.94|mol2|10|dock3
     RDKit          3D

 20 22  0  0  0  0  0  0  0  0999 V2000
    8.8082   -5.5507   27.6014 C   0  0  0  0  0  0  0  0  0  0  0  0
    8.9104   -5.4675   26.1063 C   0  0  0  0  0  0  0  0  0  0  0  0
    9.2655   -6.4373   25.4458 O   0  0  0  0  0  0  0  0  0  0  0  0
    8.6162   -4.2937   25.4917 N   0  0  0  0  0  0  0  0  0  0  0  0
    8.1836   -3.0562   26.1484 C   0  0  0  0  0  0  0  0  0  0  0  0
    8.9501   -1.8743   25.6140 C   0  0  0  0  0  0  0  0  0  0  0  0
    8.8011   -1.7707   24.1531 N   0  0  0  0  0  0  0  0  0  0  0  0
    9.3278   -3.0017   23.5618 C   0  0  0  0  0  0  0  0  0  0  0  0
    8.5497   -4.2066   24.0342 C   0  0  0  0  0  0  0  0  0  0  0  0
    9.5131   -0.5826   23.6245 C   0  0  0  0  0  0  0  0  0  0  0  0
    8.8280    0.0912   22.4387 C   0  0  0  0  0  0  0  0  0  0  0  0
    8.9058   -0.7089   21.1551 C   0  0  0  0  0  0  0  0  0  0  0  0
   10.2480   -1.2326   20.9352 N   0  0  0  0  0  0  0  0  0  0  0  0
   11.2205   -1.2976   21.9198 C   0  0  0  0  0  0  0  0  0  0  0  0
   12.5142   -1.6736   21.5684 C   0  0  0  0  0  0  0  0  0  0  0  0
   13.5065   -1.7323   22.5300 C   0  0  0  0  0  0  0  0  0  0  0  0
   13.2052   -1.4165   23.8355 C   0  0  0  0  0  0  0  0  0  0  0  0
   14.4590   -1.4935   25.0419 Cl  0  0  0  0  0  0  0  0  0  0  0  0
   11.9327   -1.0411   24.2102 C   0  0  0  0  0  0  0  0  0  0  0  0
   10.9194   -0.9759   23.2556 C   0  0  0  0  0  0  0  0  0  0  0  0
  1  2  1  0
  2  3  2  0
  2  4  1  0
  4  5  1  0
  5  6  1  0
  6  7  1  0
  7  8  1  0
  8  9  1  0
  7 10  1  0
 10 11  1  0
 11 12  1  0
 12 13  1  0
 13 14  1  0
 14 15  2  0
 15 16  1  0
 16 17  2  0
 17 18  1  0
 17 19  1  0
 19 20  2  0
  9  4  1  0
 20 10  1  0
 20 14  1  0
M  END
