CVD-0000394|dock_bobby27042020.98|mol2|37|dock3
     RDKit          3D

 25 27  0  0  0  0  0  0  0  0999 V2000
   12.8942    6.6330   23.9390 C   0  0  0  0  0  0  0  0  0  0  0  0
   12.0060    5.8242   23.1327 N   0  0  0  0  0  0  0  0  0  0  0  0
   12.1120    4.4620   23.0300 C   0  0  0  0  0  0  0  0  0  0  0  0
   13.3223    3.7891   23.1358 C   0  0  0  0  0  0  0  0  0  0  0  0
   13.4310    2.4598   23.0375 N   0  0  0  0  0  0  0  0  0  0  0  0
   12.2971    1.7885   22.8264 C   0  0  0  0  0  0  0  0  0  0  0  0
   11.0785    2.3226   22.7064 N   0  0  0  0  0  0  0  0  0  0  0  0
   11.0054    3.6537   22.8104 C   0  0  0  0  0  0  0  0  0  0  0  0
   12.3318    0.3290   22.7068 C   0  0  0  0  0  0  0  0  0  0  0  0
   13.8550   -0.3096   22.1868 S   0  0  0  0  0  0  0  0  0  0  0  0
   13.2608   -1.9047   22.2551 C   0  0  0  0  0  0  0  0  0  0  0  0
   11.9643   -1.9499   22.6536 C   0  0  0  0  0  0  0  0  0  0  0  0
   11.4065   -0.6534   22.9204 C   0  0  0  0  0  0  0  0  0  0  0  0
    9.9868   -0.4459   23.3786 C   0  0  0  0  0  0  0  0  0  0  0  0
    9.6593   -1.1494   24.7223 C   0  0  0  0  0  0  0  0  0  0  0  0
    8.2764   -1.7698   24.5618 C   0  0  0  0  0  0  0  0  0  0  0  0
    7.7074   -1.1698   23.2771 C   0  0  0  0  0  0  0  0  0  0  0  0
    8.9477   -1.0010   22.3874 C   0  0  0  0  0  0  0  0  0  0  0  0
    8.7218   -0.1605   21.1422 C   0  0  0  0  0  0  0  0  0  0  0  0
    9.4712    0.7913   20.9433 O   0  0  0  0  0  0  0  0  0  0  0  0
    7.7149   -0.3912   20.2398 N   0  0  0  0  0  0  0  0  0  0  0  0
    7.2356    0.1679   19.0636 C   0  0  0  0  0  0  0  0  0  0  0  0
    7.8214    1.1661   18.6206 O   0  0  0  0  0  0  0  0  0  0  0  0
    6.0712   -0.3563   18.3075 C   0  0  0  0  0  0  0  0  0  0  0  0
    5.2713    0.3680   17.5731 C   0  0  0  0  0  0  0  0  0  0  0  0
  1  2  1  0
  2  3  1  0
  3  4  2  0
  4  5  1  0
  5  6  2  0
  6  7  1  0
  7  8  2  0
  6  9  1  0
  9 10  1  0
 10 11  1  0
 11 12  2  0
 12 13  1  0
 14 13  1  0
 14 15  1  0
 15 16  1  0
 16 17  1  0
 17 18  1  0
 18 19  1  0
 19 20  2  0
 19 21  1  0
 21 22  1  0
 22 23  2  0
 22 24  1  0
 24 25  2  0
  8  3  1  0
 13  9  2  0
 18 14  1  0
M  END
