CVD-0002736|dock_bobby27042020.18|mol2|43|dock3
     RDKit          3D

 25 27  0  0  0  0  0  0  0  0999 V2000
   14.1180    6.5017   21.9958 C   0  0  0  0  0  0  0  0  0  0  0  0
   12.9383    6.4009   22.7903 O   0  0  0  0  0  0  0  0  0  0  0  0
   12.2643    5.2107   22.8069 C   0  0  0  0  0  0  0  0  0  0  0  0
   12.7596    3.9960   22.3503 C   0  0  0  0  0  0  0  0  0  0  0  0
   11.9730    2.8610   22.4240 C   0  0  0  0  0  0  0  0  0  0  0  0
   10.6892    2.9097   22.9491 C   0  0  0  0  0  0  0  0  0  0  0  0
   10.1923    4.1224   23.4050 C   0  0  0  0  0  0  0  0  0  0  0  0
   10.9664    5.2704   23.3391 C   0  0  0  0  0  0  0  0  0  0  0  0
   10.5760    6.5128   23.7592 O   0  0  0  0  0  0  0  0  0  0  0  0
    9.1924    6.8525   23.6984 C   0  0  0  0  0  0  0  0  0  0  0  0
    9.8320    1.6625   23.0250 C   0  0  0  0  0  0  0  0  0  0  0  0
    8.5583    1.7266   22.1774 C   0  0  0  0  0  0  0  0  0  0  0  0
    8.7131    0.5750   21.2301 C   0  0  0  0  0  0  0  0  0  0  0  0
    9.7894   -0.1190   21.4166 N   0  0  0  0  0  0  0  0  0  0  0  0
   10.4968    0.4559   22.4658 N   0  0  0  0  0  0  0  0  0  0  0  0
   11.5625   -0.1572   23.0309 C   0  0  0  0  0  0  0  0  0  0  0  0
   12.1657    0.3748   23.9544 O   0  0  0  0  0  0  0  0  0  0  0  0
   11.9629   -1.5126   22.4822 C   0  0  0  0  0  0  0  0  0  0  0  0
   13.5069   -2.0482   23.1575 Cl  0  0  0  0  0  0  0  0  0  0  0  0
    7.7478    0.2216   20.1754 C   0  0  0  0  0  0  0  0  0  0  0  0
    6.6095    0.9929   19.9694 C   0  0  0  0  0  0  0  0  0  0  0  0
    5.7038    0.6579   18.9767 C   0  0  0  0  0  0  0  0  0  0  0  0
    5.9230   -0.4465   18.1812 C   0  0  0  0  0  0  0  0  0  0  0  0
    7.0479   -1.2192   18.3756 C   0  0  0  0  0  0  0  0  0  0  0  0
    7.9575   -0.8896   19.3665 C   0  0  0  0  0  0  0  0  0  0  0  0
  1  2  1  0
  2  3  1  0
  3  4  2  0
  4  5  1  0
  5  6  2  0
  6  7  1  0
  7  8  2  0
  8  9  1  0
  9 10  1  0
  6 11  1  0
 11 12  1  0
 12 13  1  0
 13 14  2  0
 14 15  1  0
 15 16  1  0
 16 17  2  0
 16 18  1  0
 18 19  1  0
 13 20  1  0
 20 21  2  0
 21 22  1  0
 22 23  2  0
 23 24  1  0
 24 25  2  0
  8  3  1  0
 15 11  1  0
 25 20  1  0
M  END
