CVD-0000950|dock_bobby27042020.82|mol2|36|dock2
     RDKit          3D

 21 25  0  0  0  0  0  0  0  0999 V2000
    9.1097    1.9066   24.0749 Cl  0  0  0  0  0  0  0  0  0  0  0  0
    8.7479    0.1676   23.7900 C   0  0  0  0  0  0  0  0  0  0  0  0
    9.9992   -0.6209   24.1744 C   0  0  0  0  0  0  0  0  0  0  0  0
   10.9457   -0.5568   22.9768 C   0  0  0  0  0  0  0  0  0  0  0  0
   10.3131   -1.3778   21.8669 C   0  0  0  0  0  0  0  0  0  0  0  0
   11.4415   -1.6411   20.9801 N   0  0  0  0  0  0  0  0  0  0  0  0
   12.5751   -1.6156   21.6842 C   0  0  0  0  0  0  0  0  0  0  0  0
   12.3557   -1.1031   22.9444 C   0  0  0  0  0  0  0  0  0  0  0  0
   13.3139   -0.9897   24.0975 C   0  0  0  0  0  0  0  0  0  0  0  0
   14.1070   -2.2446   24.1997 C   0  0  0  0  0  0  0  0  0  0  0  0
   13.1651   -1.8909   25.2811 C   0  0  0  0  0  0  0  0  0  0  0  0
    9.0768   -0.6568   21.4218 C   0  0  0  0  0  0  0  0  0  0  0  0
    8.4507   -0.6476   19.8068 S   0  0  0  0  0  0  0  0  0  0  0  0
    7.1414    0.3508   20.3445 C   0  0  0  0  0  0  0  0  0  0  0  0
    7.2337    0.6281   21.6850 C   0  0  0  0  0  0  0  0  0  0  0  0
    8.3531    0.0547   22.3363 C   0  0  0  0  0  0  0  0  0  0  0  0
    6.1334    0.7719   19.3796 C   0  0  0  0  0  0  0  0  0  0  0  0
    6.0828    0.5697   18.1103 N   0  0  0  0  0  0  0  0  0  0  0  0
    4.9170    1.1798   17.6681 N   0  0  0  0  0  0  0  0  0  0  0  0
    4.3747    1.6898   18.6987 C   0  0  0  0  0  0  0  0  0  0  0  0
    5.0767    1.4824   19.8400 O   0  0  0  0  0  0  0  0  0  0  0  0
  1  2  1  0
  2  3  1  0
  3  4  1  0
  4  5  1  0
  5  6  1  0
  6  7  1  0
  7  8  2  0
  8  9  1  0
  9 10  1  0
 10 11  1  0
  5 12  1  0
 12 13  1  0
 13 14  1  0
 14 15  2  0
 15 16  1  0
 14 17  1  0
 17 18  2  0
 18 19  1  0
 19 20  2  0
 20 21  1  0
 16  2  1  0
 21 17  1  0
  8  4  1  0
 11  9  1  0
 16 12  2  0
M  END
