CVD-0003167|dock_bobby27042020.31|mol2|40|dock2
     RDKit          3D

 22 24  0  0  0  0  0  0  0  0999 V2000
   14.4754   -0.6357   22.3607 O   0  0  0  0  0  0  0  0  0  0  0  0
   13.8327   -0.0979   23.4295 B   0  0  0  0  0  0  0  0  0  0  0  0
   13.8553   -0.7863   24.5999 O   0  0  0  0  0  0  0  0  0  0  0  0
   12.6481    0.9061   23.1690 C   0  0  0  0  0  0  0  0  0  0  0  0
   12.9446    2.2331   22.8836 C   0  0  0  0  0  0  0  0  0  0  0  0
   11.9201    3.1366   22.6533 C   0  0  0  0  0  0  0  0  0  0  0  0
   10.6190    2.6624   22.7189 C   0  0  0  0  0  0  0  0  0  0  0  0
   10.3875    1.3278   23.0100 C   0  0  0  0  0  0  0  0  0  0  0  0
    8.9809    0.7814   23.0855 C   0  0  0  0  0  0  0  0  0  0  0  0
    8.3096    0.6927   21.7302 C   0  0  0  0  0  0  0  0  0  0  0  0
    8.6411   -0.3162   20.8391 C   0  0  0  0  0  0  0  0  0  0  0  0
    8.0253   -0.3996   19.6014 C   0  0  0  0  0  0  0  0  0  0  0  0
    7.0694    0.5252   19.2402 C   0  0  0  0  0  0  0  0  0  0  0  0
    6.7292    1.5327   20.1169 C   0  0  0  0  0  0  0  0  0  0  0  0
    7.3455    1.6153   21.3545 C   0  0  0  0  0  0  0  0  0  0  0  0
   11.3754    0.4473   23.2343 N   0  0  0  0  0  0  0  0  0  0  0  0
   12.2123    4.5943   22.3346 C   0  0  0  0  0  0  0  0  0  0  0  0
   13.0667    4.8196   21.0713 C   0  0  0  0  0  0  0  0  0  0  0  0
   14.0302    5.9445   21.4268 C   0  0  0  0  0  0  0  0  0  0  0  0
   14.0033    5.9536   22.8771 N   0  0  0  0  0  0  0  0  0  0  0  0
   12.9920    5.2773   23.4277 C   0  0  0  0  0  0  0  0  0  0  0  0
   12.7642    5.1968   24.6319 O   0  0  0  0  0  0  0  0  0  0  0  0
  1  2  1  0
  2  3  1  0
  2  4  1  0
  4  5  2  0
  5  6  1  0
  6  7  2  0
  7  8  1  0
  8  9  1  0
  9 10  1  0
 10 11  2  0
 11 12  1  0
 12 13  2  0
 13 14  1  0
 14 15  2  0
  8 16  2  0
 17  6  1  0
 17 18  1  0
 18 19  1  0
 19 20  1  0
 20 21  1  0
 21 22  2  0
 16  4  1  0
 21 17  1  0
 15 10  1  0
M  END
