CVD-0003538|dock_bobby27042020.16|mol2|19|dock2
     RDKit          3D

 20 21  0  0  0  0  0  0  0  0999 V2000
    8.1590    0.6489   18.1654 O   0  0  0  0  0  0  0  0  0  0  0  0
    6.9611    0.8424   18.7760 C   0  0  0  0  0  0  0  0  0  0  0  0
    5.8558    1.2629   18.0497 C   0  0  0  0  0  0  0  0  0  0  0  0
    4.6491    1.4515   18.6985 C   0  0  0  0  0  0  0  0  0  0  0  0
    4.5501    1.2226   20.0547 C   0  0  0  0  0  0  0  0  0  0  0  0
    5.6462    0.8023   20.7931 C   0  0  0  0  0  0  0  0  0  0  0  0
    6.8715    0.6074   20.1524 C   0  0  0  0  0  0  0  0  0  0  0  0
    8.0790    0.1820   20.7650 N   0  0  0  0  0  0  0  0  0  0  0  0
    8.5476    0.4209   22.0346 C   0  0  0  0  0  0  0  0  0  0  0  0
    7.9065    1.0412   22.8729 O   0  0  0  0  0  0  0  0  0  0  0  0
    9.7848   -0.0568   22.3692 N   0  0  0  0  0  0  0  0  0  0  0  0
   10.4966   -1.1312   21.6793 C   0  0  0  0  0  0  0  0  0  0  0  0
   10.9224   -2.1966   22.6667 C   0  0  0  0  0  0  0  0  0  0  0  0
   11.6978   -1.5967   23.7502 N   0  0  0  0  0  0  0  0  0  0  0  0
   10.9859   -0.5224   24.4401 C   0  0  0  0  0  0  0  0  0  0  0  0
   10.5602    0.5431   23.4528 C   0  0  0  0  0  0  0  0  0  0  0  0
   12.9174   -2.0678   24.0801 C   0  0  0  0  0  0  0  0  0  0  0  0
   13.4277   -3.0123   23.4910 O   0  0  0  0  0  0  0  0  0  0  0  0
   13.6258   -1.3712   25.2254 C   0  0  0  0  0  0  0  0  0  0  0  0
   15.1933   -2.1168   25.5634 Cl  0  0  0  0  0  0  0  0  0  0  0  0
  1  2  1  0
  2  3  2  0
  3  4  1  0
  4  5  2  0
  5  6  1  0
  6  7  2  0
  7  8  1  0
  8  9  1  0
  9 10  2  0
  9 11  1  0
 11 12  1  0
 12 13  1  0
 13 14  1  0
 14 15  1  0
 15 16  1  0
 14 17  1  0
 17 18  2  0
 17 19  1  0
 19 20  1  0
  7  2  1  0
 16 11  1  0
M  END
