CVD-0001953|dock_bobby27042020.36|mol2|24|dock2
     RDKit          3D

 23 25  0  0  0  0  0  0  0  0999 V2000
    9.6165   -5.5923   27.2912 C   0  0  0  0  0  0  0  0  0  0  0  0
    9.8966   -5.2603   25.8919 N   0  0  0  0  0  0  0  0  0  0  0  0
    8.7040   -5.1343   25.0473 C   0  0  0  0  0  0  0  0  0  0  0  0
    8.9270   -4.1747   23.9080 C   0  0  0  0  0  0  0  0  0  0  0  0
    7.9728   -3.7980   22.9490 C   0  0  0  0  0  0  0  0  0  0  0  0
    8.5490   -2.9073   22.0609 C   0  0  0  0  0  0  0  0  0  0  0  0
    7.8979   -2.2601   20.8895 C   0  0  0  0  0  0  0  0  0  0  0  0
    8.0632   -0.8948   20.6281 C   0  0  0  0  0  0  0  0  0  0  0  0
    7.4799   -0.3001   19.5216 C   0  0  0  0  0  0  0  0  0  0  0  0
    6.6938   -1.0348   18.6642 C   0  0  0  0  0  0  0  0  0  0  0  0
    6.4857   -2.3794   18.9060 C   0  0  0  0  0  0  0  0  0  0  0  0
    7.0886   -2.9569   19.9981 C   0  0  0  0  0  0  0  0  0  0  0  0
    6.8608   -4.2786   20.1756 F   0  0  0  0  0  0  0  0  0  0  0  0
    9.8660   -2.7273   22.4640 N   0  0  0  0  0  0  0  0  0  0  0  0
   10.9515   -1.9314   21.8762 C   0  0  0  0  0  0  0  0  0  0  0  0
   11.5203   -0.9113   22.8340 C   0  0  0  0  0  0  0  0  0  0  0  0
   10.7308   -0.4150   23.8677 C   0  0  0  0  0  0  0  0  0  0  0  0
   11.2291    0.5229   24.7556 C   0  0  0  0  0  0  0  0  0  0  0  0
   12.5233    0.9750   24.6174 C   0  0  0  0  0  0  0  0  0  0  0  0
   13.3170    0.4889   23.5923 C   0  0  0  0  0  0  0  0  0  0  0  0
   12.8348   -0.4562   22.6889 C   0  0  0  0  0  0  0  0  0  0  0  0
   13.7240   -0.9606   21.5830 C   0  0  0  0  0  0  0  0  0  0  0  0
   10.0870   -3.4974   23.5682 C   0  0  0  0  0  0  0  0  0  0  0  0
  1  2  1  0
  2  3  1  0
  3  4  1  0
  4  5  1  0
  5  6  2  0
  6  7  1  0
  7  8  2  0
  8  9  1  0
  9 10  2  0
 10 11  1  0
 11 12  2  0
 12 13  1  0
  6 14  1  0
 14 15  1  0
 15 16  1  0
 16 17  2  0
 17 18  1  0
 18 19  2  0
 19 20  1  0
 20 21  2  0
 21 22  1  0
 14 23  1  0
 23  4  2  0
 12  7  1  0
 21 16  1  0
M  END
