CVD-0000172|dock_bobby27042020.85|mol2|18|dock1
     RDKit          3D

 15 16  0  0  0  0  0  0  0  0999 V2000
   13.8599   -1.3003   23.5077 C   0  0  0  0  0  0  0  0  0  0  0  0
   12.9448   -1.6065   22.3316 C   0  0  0  0  0  0  0  0  0  0  0  0
   11.4942   -1.7277   22.7278 C   0  0  0  0  0  0  0  0  0  0  0  0
   11.1371   -1.6504   23.8993 O   0  0  0  0  0  0  0  0  0  0  0  0
   10.6374   -1.9221   21.7290 N   0  0  0  0  0  0  0  0  0  0  0  0
    9.2015   -2.0605   21.9367 C   0  0  0  0  0  0  0  0  0  0  0  0
    8.4612   -0.7531   21.7117 C   0  0  0  0  0  0  0  0  0  0  0  0
    7.7020   -0.0499   22.8050 C   0  0  0  0  0  0  0  0  0  0  0  0
    6.9799   -0.9528   21.8561 C   0  0  0  0  0  0  0  0  0  0  0  0
    6.0782   -0.3334   20.8073 C   0  0  0  0  0  0  0  0  0  0  0  0
    5.0260    0.4940   21.1741 C   0  0  0  0  0  0  0  0  0  0  0  0
    4.2011    1.0585   20.2155 C   0  0  0  0  0  0  0  0  0  0  0  0
    4.4173    0.8027   18.8785 C   0  0  0  0  0  0  0  0  0  0  0  0
    5.4580   -0.0177   18.4993 C   0  0  0  0  0  0  0  0  0  0  0  0
    6.2833   -0.5825   19.4574 C   0  0  0  0  0  0  0  0  0  0  0  0
  1  2  1  0
  2  3  1  0
  3  4  2  0
  3  5  1  0
  5  6  1  0
  7  6  1  0
  7  8  1  0
  8  9  1  0
  9 10  1  0
 10 11  2  0
 11 12  1  0
 12 13  2  0
 13 14  1  0
 14 15  2  0
  9  7  1  0
 15 10  1  0
M  END
