CVD-0003763|dock_bobby27042020.58|mol2|38|dock2
     RDKit          3D

 20 21  0  0  0  0  0  0  0  0999 V2000
    7.3962   -6.7720   22.4313 Cl  0  0  0  0  0  0  0  0  0  0  0  0
    5.9303   -5.8955   21.9733 C   0  0  0  0  0  0  0  0  0  0  0  0
    6.2710   -4.6583   21.1655 C   0  0  0  0  0  0  0  0  0  0  0  0
    6.0409   -4.5983   19.9642 O   0  0  0  0  0  0  0  0  0  0  0  0
    6.8334   -3.6300   21.8336 N   0  0  0  0  0  0  0  0  0  0  0  0
    7.1629   -3.6169   23.2563 C   0  0  0  0  0  0  0  0  0  0  0  0
    8.5576   -3.0616   23.4592 C   0  0  0  0  0  0  0  0  0  0  0  0
    8.6686   -1.6624   22.8664 C   0  0  0  0  0  0  0  0  0  0  0  0
    8.2657   -1.6984   21.3940 C   0  0  0  0  0  0  0  0  0  0  0  0
    6.8739   -2.3010   21.2331 C   0  0  0  0  0  0  0  0  0  0  0  0
   10.0392   -1.1274   23.0267 N   0  0  0  0  0  0  0  0  0  0  0  0
   11.0402   -2.2060   22.9832 C   0  0  0  0  0  0  0  0  0  0  0  0
   12.4348   -1.6477   23.0980 C   0  0  0  0  0  0  0  0  0  0  0  0
   12.5760   -0.8554   24.3236 N   0  0  0  0  0  0  0  0  0  0  0  0
   11.5548    0.1840   24.4389 C   0  0  0  0  0  0  0  0  0  0  0  0
   10.1836   -0.4351   24.3082 C   0  0  0  0  0  0  0  0  0  0  0  0
   13.5940   -0.9264   25.2066 C   0  0  0  0  0  0  0  0  0  0  0  0
   13.6203   -0.2283   26.2122 O   0  0  0  0  0  0  0  0  0  0  0  0
   14.7126   -1.9034   24.8988 C   0  0  0  0  0  0  0  0  0  0  0  0
   14.1779   -3.5766   25.1036 Cl  0  0  0  0  0  0  0  0  0  0  0  0
  1  2  1  0
  2  3  1  0
  3  4  2  0
  3  5  1  0
  5  6  1  0
  6  7  1  0
  7  8  1  0
  8  9  1  0
  9 10  1  0
  8 11  1  0
 11 12  1  0
 12 13  1  0
 13 14  1  0
 14 15  1  0
 15 16  1  0
 14 17  1  0
 17 18  2  0
 17 19  1  0
 19 20  1  0
 10  5  1  0
 16 11  1  0
M  END
