CVD-0001746|dock_bobby27042020.51|mol2|28|dock2
     RDKit          3D

 26 28  0  0  0  0  0  0  0  0999 V2000
    9.9702    2.4686   22.5877 O   0  0  0  0  0  0  0  0  0  0  0  0
   11.0162    1.8364   22.6557 C   0  0  0  0  0  0  0  0  0  0  0  0
   12.2465    2.4386   22.7566 N   0  0  0  0  0  0  0  0  0  0  0  0
   12.5960    3.8134   22.8050 C   0  0  0  0  0  0  0  0  0  0  0  0
   13.8426    4.1885   22.3198 C   0  0  0  0  0  0  0  0  0  0  0  0
   14.2198    5.5195   22.3429 C   0  0  0  0  0  0  0  0  0  0  0  0
   13.3382    6.4442   22.8513 C   0  0  0  0  0  0  0  0  0  0  0  0
   12.1365    6.1191   23.3269 N   0  0  0  0  0  0  0  0  0  0  0  0
   11.7839    4.8299   23.3066 C   0  0  0  0  0  0  0  0  0  0  0  0
   10.9326    0.4423   22.6114 N   0  0  0  0  0  0  0  0  0  0  0  0
    9.5625   -0.0851   22.4784 C   0  0  0  0  0  0  0  0  0  0  0  0
    9.0677   -0.0182   21.0413 C   0  0  0  0  0  0  0  0  0  0  0  0
    7.5672   -0.2497   20.8696 C   0  0  0  0  0  0  0  0  0  0  0  0
    6.7678    1.0366   21.1619 C   0  0  0  0  0  0  0  0  0  0  0  0
    5.2689    0.8571   20.9286 C   0  0  0  0  0  0  0  0  0  0  0  0
    4.9845    0.3342   19.5265 C   0  0  0  0  0  0  0  0  0  0  0  0
    5.7509   -0.9523   19.2543 C   0  0  0  0  0  0  0  0  0  0  0  0
    7.2502   -0.7537   19.4514 C   0  0  0  0  0  0  0  0  0  0  0  0
   11.9983   -0.5198   22.7289 C   0  0  0  0  0  0  0  0  0  0  0  0
   12.3166   -1.3758   21.6801 C   0  0  0  0  0  0  0  0  0  0  0  0
   13.3498   -2.2907   21.7984 C   0  0  0  0  0  0  0  0  0  0  0  0
   14.0864   -2.3656   22.9667 C   0  0  0  0  0  0  0  0  0  0  0  0
   13.7830   -1.5154   24.0228 C   0  0  0  0  0  0  0  0  0  0  0  0
   12.7431   -0.5964   23.9023 C   0  0  0  0  0  0  0  0  0  0  0  0
   14.5422   -1.5800   25.2472 C   0  0  0  0  0  0  0  0  0  0  0  0
   15.1453   -1.6642   26.2137 N   0  0  0  0  0  0  0  0  0  0  0  0
  1  2  2  0
  2  3  1  0
  3  4  1  0
  4  5  2  0
  5  6  1  0
  6  7  2  0
  7  8  1  0
  8  9  2  0
  2 10  1  0
 10 11  1  0
 11 12  1  0
 12 13  1  0
 13 14  1  0
 14 15  1  0
 15 16  1  0
 16 17  1  0
 17 18  1  0
 10 19  1  0
 19 20  2  0
 20 21  1  0
 21 22  2  0
 22 23  1  0
 23 24  2  0
 23 25  1  0
 25 26  3  0
  9  4  1  0
 18 13  1  0
 24 19  1  0
M  END
