CVD-0000020|dock_bobby27042020.85|mol2|43|dock1
     RDKit          3D

 33 35  0  0  0  0  0  0  0  0999 V2000
    5.0622    0.9338   23.7482 C   0  0  0  0  0  0  0  0  0  0  0  0
    6.0378    1.1087   22.6671 N   0  0  0  0  0  0  0  0  0  0  0  0
    7.3513    1.3755   23.0031 C   0  0  0  0  0  0  0  0  0  0  0  0
    7.7217    1.3700   24.1713 O   0  0  0  0  0  0  0  0  0  0  0  0
    8.2644    1.6719   22.0181 N   0  0  0  0  0  0  0  0  0  0  0  0
    9.6435    1.9690   22.2849 C   0  0  0  0  0  0  0  0  0  0  0  0
   10.6472    0.9891   22.4109 C   0  0  0  0  0  0  0  0  0  0  0  0
   10.4347   -0.4796   22.0853 C   0  0  0  0  0  0  0  0  0  0  0  0
    9.8675   -1.2902   23.2379 C   0  0  0  0  0  0  0  0  0  0  0  0
    9.3110   -2.5568   22.7845 N   0  0  0  0  0  0  0  0  0  0  0  0
    8.1404   -3.0233   23.2107 C   0  0  0  0  0  0  0  0  0  0  0  0
    7.4317   -2.4284   24.0167 O   0  0  0  0  0  0  0  0  0  0  0  0
    7.7259   -4.3678   22.6380 C   0  0  0  0  0  0  0  0  0  0  0  0
    6.3637   -4.7684   22.9970 N   0  0  0  0  0  0  0  0  0  0  0  0
    6.3289   -5.2635   24.3750 C   0  0  0  0  0  0  0  0  0  0  0  0
    4.9434   -5.7401   24.7491 C   0  0  0  0  0  0  0  0  0  0  0  0
    4.4680   -6.7887   23.8343 N   0  0  0  0  0  0  0  0  0  0  0  0
    4.5382   -6.3137   22.4429 C   0  0  0  0  0  0  0  0  0  0  0  0
    5.9222   -5.8306   22.0970 C   0  0  0  0  0  0  0  0  0  0  0  0
   11.9137    1.3999   22.8461 C   0  0  0  0  0  0  0  0  0  0  0  0
   13.0187    0.4219   23.1470 C   0  0  0  0  0  0  0  0  0  0  0  0
   12.1402    2.7605   23.0029 C   0  0  0  0  0  0  0  0  0  0  0  0
   11.2356    3.7128   22.7620 N   0  0  0  0  0  0  0  0  0  0  0  0
    9.9841    3.3303   22.4200 C   0  0  0  0  0  0  0  0  0  0  0  0
    8.9980    4.3942   22.2036 C   0  0  0  0  0  0  0  0  0  0  0  0
    9.2396    5.6692   22.2829 C   0  0  0  0  0  0  0  0  0  0  0  0
    5.5175    0.9655   21.3335 C   0  0  0  0  0  0  0  0  0  0  0  0
    5.9747   -0.0128   20.4491 C   0  0  0  0  0  0  0  0  0  0  0  0
    5.4220   -0.1100   19.1804 C   0  0  0  0  0  0  0  0  0  0  0  0
    5.8966   -1.1618   18.2075 C   0  0  0  0  0  0  0  0  0  0  0  0
    4.4291    0.7871   18.8309 C   0  0  0  0  0  0  0  0  0  0  0  0
    4.0354    1.7315   19.7535 C   0  0  0  0  0  0  0  0  0  0  0  0
    4.5615    1.8300   20.9796 N   0  0  0  0  0  0  0  0  0  0  0  0
  1  2  1  0
  2  3  1  0
  3  4  2  0
  3  5  1  0
  5  6  1  0
  6  7  1  0
  7  8  1  0
  8  9  1  0
  9 10  1  0
 10 11  1  0
 11 12  2  0
 11 13  1  0
 13 14  1  0
 14 15  1  0
 15 16  1  0
 16 17  1  0
 17 18  1  0
 18 19  1  0
  7 20  2  0
 20 21  1  0
 20 22  1  0
 22 23  2  0
 23 24  1  0
 24 25  1  0
 25 26  2  0
  2 27  1  0
 27 28  2  0
 28 29  1  0
 29 30  1  0
 29 31  2  0
 31 32  1  0
 32 33  2  0
 24  6  2  0
 33 27  1  0
 19 14  1  0
M  END
