CVD-0001882|dock_bobby27042020.79|mol2|33|dock2
     RDKit          3D

 32 34  0  0  0  0  0  0  0  0999 V2000
    6.2059   -5.6178   26.3883 C   0  0  0  0  0  0  0  0  0  0  0  0
    7.5349   -6.0914   26.5718 O   0  0  0  0  0  0  0  0  0  0  0  0
    8.4327   -5.0837   26.9966 C   0  0  0  0  0  0  0  0  0  0  0  0
    9.6732   -5.8254   27.4512 C   0  0  0  0  0  0  0  0  0  0  0  0
    8.7281   -4.1120   25.8788 C   0  0  0  0  0  0  0  0  0  0  0  0
    8.8941   -2.7590   26.1356 C   0  0  0  0  0  0  0  0  0  0  0  0
    9.1624   -1.8653   25.1141 C   0  0  0  0  0  0  0  0  0  0  0  0
    9.2733   -2.3052   23.8018 C   0  0  0  0  0  0  0  0  0  0  0  0
    9.1040   -3.6592   23.5394 C   0  0  0  0  0  0  0  0  0  0  0  0
    8.8356   -4.5469   24.5661 C   0  0  0  0  0  0  0  0  0  0  0  0
    9.5476   -1.3765   22.7462 N   0  0  0  0  0  0  0  0  0  0  0  0
    8.5246   -0.3459   22.4265 C   0  0  0  0  0  0  0  0  0  0  0  0
    9.2069    0.9954   22.0654 C   0  0  0  0  0  0  0  0  0  0  0  0
    8.7058    1.6569   21.1614 O   0  0  0  0  0  0  0  0  0  0  0  0
   10.3161    1.3512   22.7721 N   0  0  0  0  0  0  0  0  0  0  0  0
   11.1489    2.5023   22.6737 C   0  0  0  0  0  0  0  0  0  0  0  0
   10.6505    3.7903   22.4499 C   0  0  0  0  0  0  0  0  0  0  0  0
   11.5062    4.8772   22.3671 C   0  0  0  0  0  0  0  0  0  0  0  0
   12.8663    4.7202   22.4968 C   0  0  0  0  0  0  0  0  0  0  0  0
   13.3907    3.4614   22.7139 C   0  0  0  0  0  0  0  0  0  0  0  0
   12.5407    2.3735   22.8013 C   0  0  0  0  0  0  0  0  0  0  0  0
   13.3900    0.7040   23.1060 Br  0  0  0  0  0  0  0  0  0  0  0  0
    7.5001   -0.8350   21.4098 C   0  0  0  0  0  0  0  0  0  0  0  0
    7.7636   -0.8110   20.0486 C   0  0  0  0  0  0  0  0  0  0  0  0
    6.8110   -1.2651   19.1532 C   0  0  0  0  0  0  0  0  0  0  0  0
    5.6153   -1.7331   19.6491 C   0  0  0  0  0  0  0  0  0  0  0  0
    5.3294   -1.7703   20.9514 N   0  0  0  0  0  0  0  0  0  0  0  0
    6.2632   -1.3259   21.7980 C   0  0  0  0  0  0  0  0  0  0  0  0
   10.7125   -1.3530   21.9848 C   0  0  0  0  0  0  0  0  0  0  0  0
   10.8582   -0.5128   21.0979 O   0  0  0  0  0  0  0  0  0  0  0  0
   11.8577   -2.2991   22.1675 C   0  0  0  0  0  0  0  0  0  0  0  0
   12.9819   -2.2587   21.4979 C   0  0  0  0  0  0  0  0  0  0  0  0
  1  2  1  0
  2  3  1  0
  3  4  1  0
  3  5  1  0
  5  6  2  0
  6  7  1  0
  7  8  2  0
  8  9  1  0
  9 10  2  0
  8 11  1  0
 11 12  1  0
 12 13  1  0
 13 14  2  0
 13 15  1  0
 15 16  1  0
 16 17  2  0
 17 18  1  0
 18 19  2  0
 19 20  1  0
 20 21  2  0
 21 22  1  0
 12 23  1  0
 23 24  2  0
 24 25  1  0
 25 26  2  0
 26 27  1  0
 27 28  2  0
 11 29  1  0
 29 30  2  0
 29 31  1  0
 31 32  2  0
 10  5  1  0
 21 16  1  0
 28 23  1  0
M  END
