CVD-0002793|dock_bobby27042020.4|mol2|26|dock1
     RDKit          3D

 24 26  0  0  0  0  0  0  0  0999 V2000
    7.9472   -2.0395   21.1925 O   0  0  0  0  0  0  0  0  0  0  0  0
    8.2682   -0.8930   20.9051 C   0  0  0  0  0  0  0  0  0  0  0  0
    7.7633   -0.3250   19.5901 C   0  0  0  0  0  0  0  0  0  0  0  0
    6.4649    0.4362   19.7373 C   0  0  0  0  0  0  0  0  0  0  0  0
    5.9301    1.1383   18.6682 C   0  0  0  0  0  0  0  0  0  0  0  0
    4.7394    1.8328   18.8018 C   0  0  0  0  0  0  0  0  0  0  0  0
    4.0693    1.8325   20.0062 C   0  0  0  0  0  0  0  0  0  0  0  0
    4.5895    1.1374   21.0767 C   0  0  0  0  0  0  0  0  0  0  0  0
    5.7803    0.4429   20.9426 C   0  0  0  0  0  0  0  0  0  0  0  0
    9.0865   -0.1768   21.7912 N   0  0  0  0  0  0  0  0  0  0  0  0
    9.5073   -0.9163   22.9962 C   0  0  0  0  0  0  0  0  0  0  0  0
   10.9272   -1.4262   22.9231 C   0  0  0  0  0  0  0  0  0  0  0  0
   11.6116   -1.5165   21.7221 C   0  0  0  0  0  0  0  0  0  0  0  0
   12.9124   -1.9887   21.7044 C   0  0  0  0  0  0  0  0  0  0  0  0
   13.4919   -2.3579   22.8969 C   0  0  0  0  0  0  0  0  0  0  0  0
   12.8597   -2.2821   24.0688 N   0  0  0  0  0  0  0  0  0  0  0  0
   11.6045   -1.8231   24.0609 C   0  0  0  0  0  0  0  0  0  0  0  0
    9.5600    1.1672   21.6290 C   0  0  0  0  0  0  0  0  0  0  0  0
    9.0569    1.9059   20.7925 O   0  0  0  0  0  0  0  0  0  0  0  0
   10.5684    1.6491   22.3839 N   0  0  0  0  0  0  0  0  0  0  0  0
   10.9852    3.0320   22.1897 C   0  0  0  0  0  0  0  0  0  0  0  0
   12.1855    3.4039   23.0395 C   0  0  0  0  0  0  0  0  0  0  0  0
   12.2266    5.0244   22.7642 C   0  0  0  0  0  0  0  0  0  0  0  0
   13.4737    4.2164   22.7493 C   0  0  0  0  0  0  0  0  0  0  0  0
  1  2  2  0
  2  3  1  0
  3  4  1  0
  4  5  2  0
  5  6  1  0
  6  7  2  0
  7  8  1  0
  8  9  2  0
  2 10  1  0
 10 11  1  0
 11 12  1  0
 12 13  2  0
 13 14  1  0
 14 15  2  0
 15 16  1  0
 16 17  2  0
 10 18  1  0
 18 19  2  0
 18 20  1  0
 20 21  1  0
 21 22  1  0
 22 23  1  0
 23 24  1  0
  9  4  1  0
 17 12  1  0
 24 22  1  0
M  END
