CVD-0003545|dock_bobby27042020.16|mol2|17|dock1
     RDKit          3D

 22 23  0  0  0  0  0  0  0  0999 V2000
   14.6553   -1.8633   26.2406 Cl  0  0  0  0  0  0  0  0  0  0  0  0
   13.6543   -0.9341   25.1172 C   0  0  0  0  0  0  0  0  0  0  0  0
   12.8540   -1.8558   24.2167 C   0  0  0  0  0  0  0  0  0  0  0  0
   12.8663   -3.0693   24.3804 O   0  0  0  0  0  0  0  0  0  0  0  0
   12.1378   -1.2800   23.2283 N   0  0  0  0  0  0  0  0  0  0  0  0
   12.0569    0.1550   22.9619 C   0  0  0  0  0  0  0  0  0  0  0  0
   10.6103    0.5968   22.9038 C   0  0  0  0  0  0  0  0  0  0  0  0
    9.8768   -0.2106   21.9314 N   0  0  0  0  0  0  0  0  0  0  0  0
    9.9577   -1.6456   22.1979 C   0  0  0  0  0  0  0  0  0  0  0  0
   11.4043   -2.0874   22.2560 C   0  0  0  0  0  0  0  0  0  0  0  0
    9.1527    0.3715   20.9322 C   0  0  0  0  0  0  0  0  0  0  0  0
    9.3806    1.5291   20.6021 O   0  0  0  0  0  0  0  0  0  0  0  0
    8.1897   -0.3387   20.3162 N   0  0  0  0  0  0  0  0  0  0  0  0
    7.4610    0.2353   19.1946 C   0  0  0  0  0  0  0  0  0  0  0  0
    6.1072    0.7815   19.5793 C   0  0  0  0  0  0  0  0  0  0  0  0
    5.6258    0.6405   20.8718 C   0  0  0  0  0  0  0  0  0  0  0  0
    4.3848    1.1355   21.2309 C   0  0  0  0  0  0  0  0  0  0  0  0
    3.5938    1.7875   20.2908 C   0  0  0  0  0  0  0  0  0  0  0  0
    4.0696    1.9316   18.9919 C   0  0  0  0  0  0  0  0  0  0  0  0
    5.3128    1.4313   18.6474 C   0  0  0  0  0  0  0  0  0  0  0  0
    2.2994    2.3065   20.6576 C   0  0  0  0  0  0  0  0  0  0  0  0
    1.2597    2.6914   20.9333 N   0  0  0  0  0  0  0  0  0  0  0  0
  1  2  1  0
  2  3  1  0
  3  4  2  0
  3  5  1  0
  5  6  1  0
  6  7  1  0
  7  8  1  0
  8  9  1  0
  9 10  1  0
  8 11  1  0
 11 12  2  0
 11 13  1  0
 13 14  1  0
 14 15  1  0
 15 16  2  0
 16 17  1  0
 17 18  2  0
 18 19  1  0
 19 20  2  0
 18 21  1  0
 21 22  3  0
 10  5  1  0
 20 15  1  0
M  END
