CVD-0001279|dock_bobby27042020.81|mol2|33|dock2
     RDKit          3D

 22 24  0  0  0  0  0  0  0  0999 V2000
   11.7096   -1.6798   20.6902 O   0  0  0  0  0  0  0  0  0  0  0  0
   11.3448   -1.1955   21.7445 C   0  0  0  0  0  0  0  0  0  0  0  0
    9.8785   -0.8695   21.9493 C   0  0  0  0  0  0  0  0  0  0  0  0
    8.9956   -1.6659   21.0406 C   0  0  0  0  0  0  0  0  0  0  0  0
    7.5263   -1.2980   21.1668 C   0  0  0  0  0  0  0  0  0  0  0  0
    7.3532    0.1378   21.0106 N   0  0  0  0  0  0  0  0  0  0  0  0
    8.1461    0.9515   21.9242 C   0  0  0  0  0  0  0  0  0  0  0  0
    9.6245    0.6161   21.7479 C   0  0  0  0  0  0  0  0  0  0  0  0
    6.3426    0.6773   20.2210 C   0  0  0  0  0  0  0  0  0  0  0  0
    5.2448    1.3236   20.7797 C   0  0  0  0  0  0  0  0  0  0  0  0
    4.2653    1.8368   19.9528 C   0  0  0  0  0  0  0  0  0  0  0  0
    4.3007    1.7671   18.6235 N   0  0  0  0  0  0  0  0  0  0  0  0
    5.3559    1.1532   18.0921 C   0  0  0  0  0  0  0  0  0  0  0  0
    6.3800    0.5971   18.8328 C   0  0  0  0  0  0  0  0  0  0  0  0
   12.2229   -0.9555   22.7387 N   0  0  0  0  0  0  0  0  0  0  0  0
   11.8609   -0.3215   24.0029 C   0  0  0  0  0  0  0  0  0  0  0  0
   12.0472   -1.2635   25.1907 C   0  0  0  0  0  0  0  0  0  0  0  0
   13.7396   -1.7628   25.2961 S   0  0  0  0  0  0  0  0  0  0  0  0
   14.5725   -0.6049   25.4788 O   0  0  0  0  0  0  0  0  0  0  0  0
   13.8448   -2.8278   26.2565 O   0  0  0  0  0  0  0  0  0  0  0  0
   13.9848   -2.4162   23.6674 C   0  0  0  0  0  0  0  0  0  0  0  0
   13.6168   -1.3543   22.6192 C   0  0  0  0  0  0  0  0  0  0  0  0
  1  2  2  0
  2  3  1  0
  3  4  1  0
  4  5  1  0
  5  6  1  0
  6  7  1  0
  7  8  1  0
  6  9  1  0
  9 10  2  0
 10 11  1  0
 11 12  2  0
 12 13  1  0
 13 14  2  0
  2 15  1  0
 15 16  1  0
 16 17  1  0
 17 18  1  0
 18 19  2  0
 18 20  2  0
 18 21  1  0
 21 22  1  0
  8  3  1  0
 14  9  1  0
 22 15  1  0
M  END
