CVD-0003073|dock_bobby27042020.3|mol2|20|dock2
     RDKit          3D

 29 31  0  0  0  0  0  0  0  0999 V2000
    9.7783    3.1830   22.7317 C   0  0  0  0  0  0  0  0  0  0  0  0
   11.2579    3.4694   22.7108 C   0  0  0  0  0  0  0  0  0  0  0  0
   11.6762    4.7962   22.6728 C   0  0  0  0  0  0  0  0  0  0  0  0
   13.0214    5.0889   22.6563 C   0  0  0  0  0  0  0  0  0  0  0  0
   13.9678    4.1549   22.6755 N   0  0  0  0  0  0  0  0  0  0  0  0
   13.5783    2.8767   22.7127 C   0  0  0  0  0  0  0  0  0  0  0  0
   12.2454    2.4654   22.7328 C   0  0  0  0  0  0  0  0  0  0  0  0
   11.8278    1.1054   22.7738 N   0  0  0  0  0  0  0  0  0  0  0  0
   12.4695    0.0032   23.2340 C   0  0  0  0  0  0  0  0  0  0  0  0
   13.5920   -0.0246   23.7268 O   0  0  0  0  0  0  0  0  0  0  0  0
   11.6537   -1.2672   23.0961 C   0  0  0  0  0  0  0  0  0  0  0  0
   10.4493   -1.3195   24.0125 C   0  0  0  0  0  0  0  0  0  0  0  0
   10.4440   -0.5338   25.1626 C   0  0  0  0  0  0  0  0  0  0  0  0
    9.3579   -0.5358   26.0331 C   0  0  0  0  0  0  0  0  0  0  0  0
    8.2607   -1.3392   25.7534 C   0  0  0  0  0  0  0  0  0  0  0  0
    8.2626   -2.1257   24.6171 C   0  0  0  0  0  0  0  0  0  0  0  0
    9.3409   -2.1341   23.7335 C   0  0  0  0  0  0  0  0  0  0  0  0
    9.2959   -3.0098   22.5036 C   0  0  0  0  0  0  0  0  0  0  0  0
    8.7919   -2.3379   21.3147 N   0  0  0  0  0  0  0  0  0  0  0  0
    7.5059   -1.9462   21.2578 C   0  0  0  0  0  0  0  0  0  0  0  0
    6.7741   -2.1375   22.2215 O   0  0  0  0  0  0  0  0  0  0  0  0
    7.0092   -1.3371   20.1385 N   0  0  0  0  0  0  0  0  0  0  0  0
    7.8668   -0.7074   19.1276 C   0  0  0  0  0  0  0  0  0  0  0  0
    7.3140    0.6540   18.7580 C   0  0  0  0  0  0  0  0  0  0  0  0
    5.9727    0.5779   18.3191 O   0  0  0  0  0  0  0  0  0  0  0  0
    5.1487    0.0295   19.3482 C   0  0  0  0  0  0  0  0  0  0  0  0
    5.6013   -1.3622   19.7303 C   0  0  0  0  0  0  0  0  0  0  0  0
    9.3777    0.2913   27.2143 C   0  0  0  0  0  0  0  0  0  0  0  0
    9.4159    0.9259   28.1634 N   0  0  0  0  0  0  0  0  0  0  0  0
  1  2  1  0
  2  3  2  0
  3  4  1  0
  4  5  2  0
  5  6  1  0
  6  7  2  0
  7  8  1  0
  8  9  1  0
  9 10  2  0
  9 11  1  0
 11 12  1  0
 12 13  2  0
 13 14  1  0
 14 15  2  0
 15 16  1  0
 16 17  2  0
 17 18  1  0
 18 19  1  0
 19 20  1  0
 20 21  2  0
 20 22  1  0
 22 23  1  0
 23 24  1  0
 24 25  1  0
 25 26  1  0
 26 27  1  0
 14 28  1  0
 28 29  3  0
  7  2  1  0
 17 12  1  0
 27 22  1  0
M  END
