CVD-0000621|dock_bobby27042020.26|mol2|39|dock3
     RDKit          3D

 24 26  0  0  0  0  0  0  0  0999 V2000
    9.6938    0.3361   23.0490 O   0  0  0  0  0  0  0  0  0  0  0  0
   10.1291   -0.3855   22.1576 C   0  0  0  0  0  0  0  0  0  0  0  0
   11.4854   -1.0554   22.2579 C   0  0  0  0  0  0  0  0  0  0  0  0
   12.5122   -0.4165   23.2266 C   0  0  0  0  0  0  0  0  0  0  0  0
   13.8487   -1.0598   22.8658 C   0  0  0  0  0  0  0  0  0  0  0  0
   13.8625   -2.5300   23.2336 C   0  0  0  0  0  0  0  0  0  0  0  0
   13.5529   -2.7361   24.7085 C   0  0  0  0  0  0  0  0  0  0  0  0
   12.2286   -2.0891   25.0803 C   0  0  0  0  0  0  0  0  0  0  0  0
   12.2013   -0.6132   24.7036 C   0  0  0  0  0  0  0  0  0  0  0  0
   12.6777    1.0224   22.9876 C   0  0  0  0  0  0  0  0  0  0  0  0
   12.8546    2.1936   22.8393 C   0  0  0  0  0  0  0  0  0  0  0  0
   13.0516    3.6126   22.7362 C   0  0  0  0  0  0  0  0  0  0  0  0
   14.2749    4.1573   22.3651 C   0  0  0  0  0  0  0  0  0  0  0  0
   14.3699    5.5324   22.2929 C   0  0  0  0  0  0  0  0  0  0  0  0
   13.3633    6.3462   22.5573 N   0  0  0  0  0  0  0  0  0  0  0  0
   12.1735    5.8322   22.9177 N   0  0  0  0  0  0  0  0  0  0  0  0
   12.0301    4.5188   23.0019 C   0  0  0  0  0  0  0  0  0  0  0  0
    9.4813   -0.6723   21.0020 N   0  0  0  0  0  0  0  0  0  0  0  0
    8.2165   -0.2663   20.5078 C   0  0  0  0  0  0  0  0  0  0  0  0
    7.2269    0.0934   21.4136 C   0  0  0  0  0  0  0  0  0  0  0  0
    5.9857    0.4924   20.9504 C   0  0  0  0  0  0  0  0  0  0  0  0
    5.7679    0.5209   19.5926 C   0  0  0  0  0  0  0  0  0  0  0  0
    6.6960    0.1822   18.6977 N   0  0  0  0  0  0  0  0  0  0  0  0
    7.8921   -0.2021   19.1544 C   0  0  0  0  0  0  0  0  0  0  0  0
  1  2  2  0
  2  3  1  0
  3  4  1  0
  4  5  1  0
  5  6  1  0
  6  7  1  0
  7  8  1  0
  8  9  1  0
  4 10  1  0
 10 11  3  0
 11 12  1  0
 12 13  2  0
 13 14  1  0
 14 15  2  0
 15 16  1  0
 16 17  2  0
  2 18  1  0
 18 19  1  0
 19 20  2  0
 20 21  1  0
 21 22  2  0
 22 23  1  0
 23 24  2  0
  9  4  1  0
 17 12  1  0
 24 19  1  0
M  END
