CVD-0001927|dock_bobby27042020.8|mol2|3|dock2
     RDKit          3D

 24 26  0  0  0  0  0  0  0  0999 V2000
    8.1163   -5.1338   21.2053 N   0  0  0  0  0  0  0  0  0  0  0  0
    8.1131   -4.5339   22.5581 C   0  0  0  0  0  0  0  0  0  0  0  0
    8.4882   -3.0587   22.5478 C   0  0  0  0  0  0  0  0  0  0  0  0
    9.9138   -2.9810   22.4638 O   0  0  0  0  0  0  0  0  0  0  0  0
   10.3586   -1.6165   22.4369 C   0  0  0  0  0  0  0  0  0  0  0  0
    9.9396   -0.9589   21.1501 C   0  0  0  0  0  0  0  0  0  0  0  0
    8.5429   -1.3268   20.7214 C   0  0  0  0  0  0  0  0  0  0  0  0
    7.9223   -0.6807   19.6404 C   0  0  0  0  0  0  0  0  0  0  0  0
    8.5296    0.3380   18.9568 O   0  0  0  0  0  0  0  0  0  0  0  0
    6.6076   -0.9916   19.2938 C   0  0  0  0  0  0  0  0  0  0  0  0
    6.0112   -0.3096   18.2816 O   0  0  0  0  0  0  0  0  0  0  0  0
    5.8985   -1.9427   20.0133 C   0  0  0  0  0  0  0  0  0  0  0  0
    6.5118   -2.5774   21.0769 C   0  0  0  0  0  0  0  0  0  0  0  0
    7.8267   -2.2768   21.4356 C   0  0  0  0  0  0  0  0  0  0  0  0
   11.8760   -1.6380   22.6257 C   0  0  0  0  0  0  0  0  0  0  0  0
   12.2638   -2.3948   23.9061 C   0  0  0  0  0  0  0  0  0  0  0  0
   11.7871   -1.6407   25.1445 C   0  0  0  0  0  0  0  0  0  0  0  0
   12.3544   -0.2233   25.1742 C   0  0  0  0  0  0  0  0  0  0  0  0
   12.0404    0.5393   23.8988 C   0  0  0  0  0  0  0  0  0  0  0  0
   12.4777   -0.2351   22.6505 C   0  0  0  0  0  0  0  0  0  0  0  0
   12.5490    1.9246   23.9217 N   0  0  0  0  0  0  0  0  0  0  0  0
   11.7089    2.9154   23.2372 C   0  0  0  0  0  0  0  0  0  0  0  0
   12.3506    4.2769   23.2889 C   0  0  0  0  0  0  0  0  0  0  0  0
   11.4597    5.2916   22.8542 O   0  0  0  0  0  0  0  0  0  0  0  0
  1  2  1  0
  2  3  1  0
  3  4  1  0
  4  5  1  0
  5  6  1  0
  6  7  1  0
  7  8  2  0
  8  9  1  0
  8 10  1  0
 10 11  1  0
 10 12  2  0
 12 13  1  0
 13 14  2  0
  5 15  1  0
 15 16  1  0
 16 17  1  0
 17 18  1  0
 18 19  1  0
 19 20  1  0
 19 21  1  0
 21 22  1  0
 22 23  1  0
 23 24  1  0
 14  3  1  0
 20 15  1  0
 14  7  1  0
M  END
