CVD-0000187|dock_bobby27042020.71|mol2|12|dock1
     RDKit          3D

 24 26  0  0  0  0  0  0  0  0999 V2000
    5.3789    0.0565   17.6641 C   0  0  0  0  0  0  0  0  0  0  0  0
    6.7576   -0.1231   17.9825 O   0  0  0  0  0  0  0  0  0  0  0  0
    7.1459   -1.1022   18.8630 C   0  0  0  0  0  0  0  0  0  0  0  0
    6.4270   -2.2813   19.0037 C   0  0  0  0  0  0  0  0  0  0  0  0
    6.8594   -3.2392   19.9058 C   0  0  0  0  0  0  0  0  0  0  0  0
    7.9978   -3.0300   20.6643 C   0  0  0  0  0  0  0  0  0  0  0  0
    8.7126   -1.8509   20.5206 C   0  0  0  0  0  0  0  0  0  0  0  0
    8.2873   -0.8841   19.6188 C   0  0  0  0  0  0  0  0  0  0  0  0
    9.8895   -1.6251   21.2993 N   0  0  0  0  0  0  0  0  0  0  0  0
   10.6746   -0.5284   21.3598 C   0  0  0  0  0  0  0  0  0  0  0  0
   11.6565   -0.8404   22.2522 C   0  0  0  0  0  0  0  0  0  0  0  0
   12.8161   -0.0266   22.7326 C   0  0  0  0  0  0  0  0  0  0  0  0
   12.6091    1.4086   22.5338 N   0  0  0  0  0  0  0  0  0  0  0  0
   13.8150    2.1563   22.9018 C   0  0  0  0  0  0  0  0  0  0  0  0
   13.6093    3.6394   22.6549 C   0  0  0  0  0  0  0  0  0  0  0  0
   12.4580    4.1298   23.4157 N   0  0  0  0  0  0  0  0  0  0  0  0
   11.2462    3.3616   23.1140 C   0  0  0  0  0  0  0  0  0  0  0  0
   11.4895    1.8811   23.3442 C   0  0  0  0  0  0  0  0  0  0  0  0
   12.5323    5.1794   24.2589 C   0  0  0  0  0  0  0  0  0  0  0  0
   13.5754    5.7965   24.4343 O   0  0  0  0  0  0  0  0  0  0  0  0
   11.2565    5.5557   24.9866 C   0  0  0  0  0  0  0  0  0  0  0  0
   11.5111    6.9573   26.0344 Cl  0  0  0  0  0  0  0  0  0  0  0  0
   11.4396   -2.1040   22.7014 N   0  0  0  0  0  0  0  0  0  0  0  0
   10.3629   -2.5893   22.1243 N   0  0  0  0  0  0  0  0  0  0  0  0
  1  2  1  0
  2  3  1  0
  3  4  2  0
  4  5  1  0
  5  6  2  0
  6  7  1  0
  7  8  2  0
  7  9  1  0
  9 10  1  0
 10 11  2  0
 11 12  1  0
 12 13  1  0
 13 14  1  0
 14 15  1  0
 15 16  1  0
 16 17  1  0
 17 18  1  0
 16 19  1  0
 19 20  2  0
 19 21  1  0
 21 22  1  0
 11 23  1  0
 23 24  2  0
  8  3  1  0
 24  9  1  0
 18 13  1  0
M  END
