CVD-0000535|dock_bobby27042020.98|mol2|16|dock2
     RDKit          3D

 24 26  0  0  0  0  0  0  0  0999 V2000
    6.5782   -0.9957   18.0257 C   0  0  0  0  0  0  0  0  0  0  0  0
    6.1843    0.3005   18.6863 C   0  0  0  0  0  0  0  0  0  0  0  0
    5.1182    1.0176   18.1516 C   0  0  0  0  0  0  0  0  0  0  0  0
    4.7356    2.2069   18.7296 C   0  0  0  0  0  0  0  0  0  0  0  0
    5.3408    2.7228   19.7952 N   0  0  0  0  0  0  0  0  0  0  0  0
    6.3668    2.0434   20.3173 C   0  0  0  0  0  0  0  0  0  0  0  0
    6.8403    0.8303   19.8147 C   0  0  0  0  0  0  0  0  0  0  0  0
    7.9328    0.0992   20.3623 N   0  0  0  0  0  0  0  0  0  0  0  0
    8.2745   -0.1177   21.6768 C   0  0  0  0  0  0  0  0  0  0  0  0
    7.6581    0.3082   22.6490 O   0  0  0  0  0  0  0  0  0  0  0  0
    9.3967   -0.8726   21.7817 N   0  0  0  0  0  0  0  0  0  0  0  0
    9.9855   -1.2575   23.0411 C   0  0  0  0  0  0  0  0  0  0  0  0
   10.5309    0.0388   23.6346 C   0  0  0  0  0  0  0  0  0  0  0  0
   11.7023    0.5582   22.8251 C   0  0  0  0  0  0  0  0  0  0  0  0
   12.8056   -0.4830   22.7147 C   0  0  0  0  0  0  0  0  0  0  0  0
   12.2699   -1.7820   22.1350 C   0  0  0  0  0  0  0  0  0  0  0  0
   11.0844   -2.3056   22.9359 C   0  0  0  0  0  0  0  0  0  0  0  0
    9.0143   -1.7332   23.9640 O   0  0  0  0  0  0  0  0  0  0  0  0
    8.2361   -2.9036   23.8294 C   0  0  0  0  0  0  0  0  0  0  0  0
    7.9144   -3.4226   22.5850 C   0  0  0  0  0  0  0  0  0  0  0  0
    7.1686   -4.5872   22.5067 C   0  0  0  0  0  0  0  0  0  0  0  0
    6.7280   -5.2145   23.6520 C   0  0  0  0  0  0  0  0  0  0  0  0
    7.0281   -4.6802   24.8861 C   0  0  0  0  0  0  0  0  0  0  0  0
    7.7814   -3.5223   24.9818 C   0  0  0  0  0  0  0  0  0  0  0  0
  1  2  1  0
  2  3  2  0
  3  4  1  0
  4  5  2  0
  5  6  1  0
  6  7  2  0
  7  8  1  0
  8  9  1  0
  9 10  2  0
  9 11  1  0
 11 12  1  0
 12 13  1  0
 13 14  1  0
 14 15  1  0
 15 16  1  0
 16 17  1  0
 12 18  1  0
 18 19  1  0
 19 20  2  0
 20 21  1  0
 21 22  2  0
 22 23  1  0
 23 24  2  0
  7  2  1  0
 17 12  1  0
 24 19  1  0
M  END
