CVD-0002836|dock_bobby27042020.47|mol2|14|dock3
     RDKit          3D

 20 21  0  0  0  0  0  0  0  0999 V2000
   13.9705   -1.1989   23.9496 C   0  0  0  0  0  0  0  0  0  0  0  0
   12.5800   -0.6511   23.6371 C   0  0  0  0  0  0  0  0  0  0  0  0
   12.6312    0.2936   22.4108 C   0  0  0  0  0  0  0  0  0  0  0  0
   11.3376    0.3299   21.7442 O   0  0  0  0  0  0  0  0  0  0  0  0
   10.1788    0.7566   22.4492 C   0  0  0  0  0  0  0  0  0  0  0  0
    9.8749   -0.1725   23.6748 C   0  0  0  0  0  0  0  0  0  0  0  0
   10.3306   -1.5462   23.4251 N   0  0  0  0  0  0  0  0  0  0  0  0
    9.2923   -2.5434   23.2223 C   0  0  0  0  0  0  0  0  0  0  0  0
   11.6513   -1.8074   23.3383 C   0  0  0  0  0  0  0  0  0  0  0  0
   12.0339   -2.9176   23.0219 O   0  0  0  0  0  0  0  0  0  0  0  0
    9.0427    0.7226   21.4587 C   0  0  0  0  0  0  0  0  0  0  0  0
    8.1091    1.7487   21.4146 C   0  0  0  0  0  0  0  0  0  0  0  0
    7.0632    1.7273   20.5091 C   0  0  0  0  0  0  0  0  0  0  0  0
    6.9468    0.6579   19.6367 C   0  0  0  0  0  0  0  0  0  0  0  0
    7.8719   -0.3727   19.6535 C   0  0  0  0  0  0  0  0  0  0  0  0
    8.9106   -0.3325   20.5666 C   0  0  0  0  0  0  0  0  0  0  0  0
    5.6153    0.6329   18.4395 S   0  0  0  0  0  0  0  0  0  0  0  0
    4.3709    1.6334   19.1696 C   0  0  0  0  0  0  0  0  0  0  0  0
    5.0743   -0.7749   18.3520 N   0  0  0  0  0  0  0  0  0  0  0  0
    6.0836    1.3268   17.2531 O   0  0  0  0  0  0  0  0  0  0  0  0
  1  2  1  0
  2  3  1  0
  3  4  1  0
  4  5  1  0
  5  6  1  0
  6  7  1  0
  7  8  1  0
  7  9  1  0
  9 10  2  0
  5 11  1  0
 11 12  2  0
 12 13  1  0
 13 14  2  0
 14 15  1  0
 15 16  2  0
 14 17  1  0
 17 18  1  0
 17 19  2  0
 17 20  2  0
  9  2  1  0
 16 11  1  0
M  END
