CVD-0001821|dock_bobby27042020.66|mol2|3|dock1
     RDKit          3D

 32 35  0  0  0  0  0  0  0  0999 V2000
   14.7545   -2.3869   24.9484 C   0  0  0  0  0  0  0  0  0  0  0  0
   13.7612   -1.2927   25.2123 C   0  0  0  0  0  0  0  0  0  0  0  0
   14.0364   -0.3736   25.9754 O   0  0  0  0  0  0  0  0  0  0  0  0
   12.5435   -1.3308   24.6110 N   0  0  0  0  0  0  0  0  0  0  0  0
   12.0239   -2.3224   23.6820 C   0  0  0  0  0  0  0  0  0  0  0  0
   11.3995   -1.6796   22.4486 C   0  0  0  0  0  0  0  0  0  0  0  0
   10.4126   -0.6618   22.8389 N   0  0  0  0  0  0  0  0  0  0  0  0
   11.0551    0.3697   23.6929 C   0  0  0  0  0  0  0  0  0  0  0  0
   11.5629   -0.2884   24.9484 C   0  0  0  0  0  0  0  0  0  0  0  0
    9.4473   -0.2763   21.9390 C   0  0  0  0  0  0  0  0  0  0  0  0
    9.4655    0.8987   21.3495 N   0  0  0  0  0  0  0  0  0  0  0  0
    8.3470    0.9487   20.5205 N   0  0  0  0  0  0  0  0  0  0  0  0
    7.7018   -0.1900   20.6445 C   0  0  0  0  0  0  0  0  0  0  0  0
    6.4300   -0.4910   19.8953 C   0  0  0  0  0  0  0  0  0  0  0  0
    6.4457    0.1655   18.5119 C   0  0  0  0  0  0  0  0  0  0  0  0
    5.1044    0.8918   18.4396 C   0  0  0  0  0  0  0  0  0  0  0  0
    4.6009    0.9729   19.8157 C   0  0  0  0  0  0  0  0  0  0  0  0
    3.7257    1.6807   20.3043 O   0  0  0  0  0  0  0  0  0  0  0  0
    5.2636    0.0750   20.5429 N   0  0  0  0  0  0  0  0  0  0  0  0
    8.3558   -1.0091   21.5207 N   0  0  0  0  0  0  0  0  0  0  0  0
    7.8817   -2.3373   21.8846 C   0  0  0  0  0  0  0  0  0  0  0  0
    8.1448   -2.6446   23.3491 C   0  0  0  0  0  0  0  0  0  0  0  0
    9.0026   -3.4601   23.6723 O   0  0  0  0  0  0  0  0  0  0  0  0
    7.3395   -1.9607   24.1984 N   0  0  0  0  0  0  0  0  0  0  0  0
    7.3252   -2.0490   25.6330 C   0  0  0  0  0  0  0  0  0  0  0  0
    7.6355   -0.9594   26.4638 C   0  0  0  0  0  0  0  0  0  0  0  0
    7.8889    0.4386   25.9619 C   0  0  0  0  0  0  0  0  0  0  0  0
    7.6877   -1.1803   27.8387 C   0  0  0  0  0  0  0  0  0  0  0  0
    7.3799   -2.4124   28.3859 C   0  0  0  0  0  0  0  0  0  0  0  0
    7.0081   -3.4532   27.5559 C   0  0  0  0  0  0  0  0  0  0  0  0
    6.9728   -3.2908   26.1737 C   0  0  0  0  0  0  0  0  0  0  0  0
    6.5723   -4.4473   25.2960 C   0  0  0  0  0  0  0  0  0  0  0  0
  1  2  1  0
  2  3  2  0
  2  4  1  0
  4  5  1  0
  5  6  1  0
  6  7  1  0
  7  8  1  0
  8  9  1  0
  7 10  1  0
 10 11  2  0
 11 12  1  0
 12 13  2  0
 13 14  1  0
 14 15  1  0
 15 16  1  0
 16 17  1  0
 17 18  2  0
 17 19  1  0
 13 20  1  0
 20 21  1  0
 21 22  1  0
 22 23  2  0
 22 24  1  0
 24 25  1  0
 25 26  2  0
 26 27  1  0
 26 28  1  0
 28 29  2  0
 29 30  1  0
 30 31  2  0
 31 32  1  0
  9  4  1  0
 20 10  1  0
 31 25  1  0
 19 14  1  0
M  END
