CVD-0000602|dock_bobby27042020.12|mol2|27|dock2
     RDKit          3D

 18 19  0  0  0  0  0  0  0  0999 V2000
   14.5933   -1.0407   25.9136 O   0  0  0  0  0  0  0  0  0  0  0  0
   14.4113   -1.7795   24.9482 N   0  0  0  0  0  0  0  0  0  0  0  0
   15.1061   -2.7467   24.6867 O   0  0  0  0  0  0  0  0  0  0  0  0
   13.2861   -1.4785   24.0533 C   0  0  0  0  0  0  0  0  0  0  0  0
   13.1193   -2.2003   22.8843 C   0  0  0  0  0  0  0  0  0  0  0  0
   12.0579   -1.9125   22.0454 C   0  0  0  0  0  0  0  0  0  0  0  0
   11.1497   -0.9057   22.3559 C   0  0  0  0  0  0  0  0  0  0  0  0
   10.0918   -0.6799   21.4372 N   0  0  0  0  0  0  0  0  0  0  0  0
    8.9256    0.0122   21.5737 C   0  0  0  0  0  0  0  0  0  0  0  0
    8.5952    0.5906   22.6034 O   0  0  0  0  0  0  0  0  0  0  0  0
    7.9745    0.0842   20.4082 C   0  0  0  0  0  0  0  0  0  0  0  0
    7.8144   -0.9301   19.4632 C   0  0  0  0  0  0  0  0  0  0  0  0
    6.9176   -0.7901   18.4168 C   0  0  0  0  0  0  0  0  0  0  0  0
    6.1653    0.3564   18.2897 C   0  0  0  0  0  0  0  0  0  0  0  0
    6.3090    1.3682   19.2121 C   0  0  0  0  0  0  0  0  0  0  0  0
    7.2038    1.2346   20.2604 C   0  0  0  0  0  0  0  0  0  0  0  0
   11.3312   -0.1874   23.5374 C   0  0  0  0  0  0  0  0  0  0  0  0
   12.3923   -0.4729   24.3790 C   0  0  0  0  0  0  0  0  0  0  0  0
  1  2  1  0
  2  3  2  0
  2  4  1  0
  4  5  2  0
  5  6  1  0
  6  7  2  0
  7  8  1  0
  8  9  1  0
  9 10  2  0
  9 11  1  0
 11 12  2  0
 12 13  1  0
 13 14  2  0
 14 15  1  0
 15 16  2  0
  7 17  1  0
 17 18  2  0
 18  4  1  0
 16 11  1  0
M  CHG  2   1  -1   2   1
M  END
