CVD-0003067|dock_bobby27042020.3|mol2|21|dock1
     RDKit          3D

 21 22  0  0  0  0  0  0  0  0999 V2000
   11.9444    4.1098   23.0756 C   0  0  0  0  0  0  0  0  0  0  0  0
   11.6208    2.8078   22.4122 C   0  0  0  0  0  0  0  0  0  0  0  0
   11.0429    1.8613   23.3515 N   0  0  0  0  0  0  0  0  0  0  0  0
   11.6464    0.7026   23.6697 C   0  0  0  0  0  0  0  0  0  0  0  0
   12.4488    0.7878   24.7483 N   0  0  0  0  0  0  0  0  0  0  0  0
   13.1426   -0.2964   25.1016 C   0  0  0  0  0  0  0  0  0  0  0  0
   13.0563   -1.5100   24.4342 C   0  0  0  0  0  0  0  0  0  0  0  0
   12.1979   -1.6160   23.3449 C   0  0  0  0  0  0  0  0  0  0  0  0
   11.4660   -0.4981   22.9400 C   0  0  0  0  0  0  0  0  0  0  0  0
   10.5597   -0.5309   21.8437 N   0  0  0  0  0  0  0  0  0  0  0  0
    9.3295    0.0740   21.7084 C   0  0  0  0  0  0  0  0  0  0  0  0
    8.7989    0.7734   22.5653 O   0  0  0  0  0  0  0  0  0  0  0  0
    8.7646   -0.2119   20.4857 N   0  0  0  0  0  0  0  0  0  0  0  0
    7.5253    0.1826   19.9200 C   0  0  0  0  0  0  0  0  0  0  0  0
    6.4230    0.2414   20.7653 C   0  0  0  0  0  0  0  0  0  0  0  0
    5.1817    0.6186   20.2816 C   0  0  0  0  0  0  0  0  0  0  0  0
    5.0237    0.9413   18.9524 C   0  0  0  0  0  0  0  0  0  0  0  0
    6.1076    0.8870   18.1040 C   0  0  0  0  0  0  0  0  0  0  0  0
    7.3544    0.5109   18.5764 C   0  0  0  0  0  0  0  0  0  0  0  0
   13.8381   -2.6447   24.8595 C   0  0  0  0  0  0  0  0  0  0  0  0
   14.4610   -3.5293   25.2263 N   0  0  0  0  0  0  0  0  0  0  0  0
  1  2  1  0
  2  3  1  0
  3  4  1  0
  4  5  2  0
  5  6  1  0
  6  7  2  0
  7  8  1  0
  8  9  2  0
  9 10  1  0
 10 11  1  0
 11 12  2  0
 11 13  1  0
 13 14  1  0
 14 15  2  0
 15 16  1  0
 16 17  2  0
 17 18  1  0
 18 19  2  0
  7 20  1  0
 20 21  3  0
  9  4  1  0
 19 14  1  0
M  END
