CVD-0002065|dock_bobby27042020.65|mol2|5|dock3
     RDKit          3D

 34 37  0  0  0  0  0  0  0  0999 V2000
   14.3105    6.2244   22.0487 C   0  0  0  0  0  0  0  0  0  0  0  0
   13.5708    4.9647   22.3744 C   0  0  0  0  0  0  0  0  0  0  0  0
   12.1324    5.1731   22.3583 N   0  0  0  0  0  0  0  0  0  0  0  0
   11.4751    5.7641   23.3713 C   0  0  0  0  0  0  0  0  0  0  0  0
   12.2657    6.4317   24.2340 N   0  0  0  0  0  0  0  0  0  0  0  0
   11.6863    7.0458   25.2696 C   0  0  0  0  0  0  0  0  0  0  0  0
   10.3175    7.0331   25.5052 C   0  0  0  0  0  0  0  0  0  0  0  0
    9.4940    6.3459   24.6196 C   0  0  0  0  0  0  0  0  0  0  0  0
   10.0710    5.6970   23.5298 C   0  0  0  0  0  0  0  0  0  0  0  0
    9.2732    5.0114   22.6409 N   0  0  0  0  0  0  0  0  0  0  0  0
    8.0213    4.3667   22.9890 C   0  0  0  0  0  0  0  0  0  0  0  0
    7.9689    2.9069   22.6223 C   0  0  0  0  0  0  0  0  0  0  0  0
    8.8935    1.9317   23.0375 C   0  0  0  0  0  0  0  0  0  0  0  0
    8.5457    0.7009   22.5142 C   0  0  0  0  0  0  0  0  0  0  0  0
    9.2826   -0.5685   22.7234 C   0  0  0  0  0  0  0  0  0  0  0  0
   10.6731   -0.5185   22.6096 C   0  0  0  0  0  0  0  0  0  0  0  0
   11.4484   -1.6419   22.8430 C   0  0  0  0  0  0  0  0  0  0  0  0
   10.8572   -2.8368   23.1882 C   0  0  0  0  0  0  0  0  0  0  0  0
    9.4794   -2.9277   23.2710 C   0  0  0  0  0  0  0  0  0  0  0  0
    8.7262   -1.8080   23.0084 C   0  0  0  0  0  0  0  0  0  0  0  0
    7.3844   -1.9613   23.0192 F   0  0  0  0  0  0  0  0  0  0  0  0
    7.3537    0.9143   21.7693 N   0  0  0  0  0  0  0  0  0  0  0  0
    7.0209    2.2614   21.8415 C   0  0  0  0  0  0  0  0  0  0  0  0
    6.3503   -0.1408   20.8987 S   0  0  0  0  0  0  0  0  0  0  0  0
    5.1737   -0.2796   21.6993 O   0  0  0  0  0  0  0  0  0  0  0  0
    7.1141   -1.3049   20.5738 O   0  0  0  0  0  0  0  0  0  0  0  0
    5.8910    0.7145   19.4305 C   0  0  0  0  0  0  0  0  0  0  0  0
    4.7048    1.4263   19.3764 C   0  0  0  0  0  0  0  0  0  0  0  0
    4.3810    2.0803   18.2002 C   0  0  0  0  0  0  0  0  0  0  0  0
    5.2485    1.9956   17.1347 C   0  0  0  0  0  0  0  0  0  0  0  0
    6.3932    1.3122   17.1721 N   0  0  0  0  0  0  0  0  0  0  0  0
    6.6998    0.6831   18.3105 C   0  0  0  0  0  0  0  0  0  0  0  0
    9.7559    7.7171   26.6438 C   0  0  0  0  0  0  0  0  0  0  0  0
    9.2847    8.2386   27.5443 N   0  0  0  0  0  0  0  0  0  0  0  0
  1  2  1  0
  2  3  1  0
  3  4  1  0
  4  5  2  0
  5  6  1  0
  6  7  2  0
  7  8  1  0
  8  9  2  0
  9 10  1  0
 10 11  1  0
 11 12  1  0
 12 13  1  0
 13 14  2  0
 14 15  1  0
 15 16  2  0
 16 17  1  0
 17 18  2  0
 18 19  1  0
 19 20  2  0
 20 21  1  0
 14 22  1  0
 22 23  1  0
 22 24  1  0
 24 25  2  0
 24 26  2  0
 24 27  1  0
 27 28  2  0
 28 29  1  0
 29 30  2  0
 30 31  1  0
 31 32  2  0
  7 33  1  0
 33 34  3  0
  9  4  1  0
 23 12  2  0
 32 27  1  0
 20 15  1  0
M  END
