CVD-0002597|dock_bobby27042020.90|mol2|42|dock3
     RDKit          3D

 61 68  0  0  0  0  0  0  0  0999 V2000
    7.6688    2.6395   34.4444 Cl  0  0  0  0  0  0  0  0  0  0  0  0
    7.8910    0.9001   34.2147 C   0  0  0  0  0  0  0  0  0  0  0  0
    9.0100    0.6213   33.2293 C   0  0  0  0  0  0  0  0  0  0  0  0
   10.0190    0.0186   33.5735 O   0  0  0  0  0  0  0  0  0  0  0  0
    8.8391    1.0593   31.9637 N   0  0  0  0  0  0  0  0  0  0  0  0
    9.8660    0.8251   30.9619 C   0  0  0  0  0  0  0  0  0  0  0  0
    9.2792    0.1817   29.7451 C   0  0  0  0  0  0  0  0  0  0  0  0
    8.1793    1.0182   29.2441 N   0  0  0  0  0  0  0  0  0  0  0  0
    7.1136    1.1752   30.2449 C   0  0  0  0  0  0  0  0  0  0  0  0
    7.6862    1.8204   31.4721 C   0  0  0  0  0  0  0  0  0  0  0  0
    7.7543    0.8299   27.6922 S   0  0  0  0  0  0  0  0  0  0  0  0
    6.9197    1.9380   27.3482 O   0  0  0  0  0  0  0  0  0  0  0  0
    8.9560    0.6019   26.9527 O   0  0  0  0  0  0  0  0  0  0  0  0
    6.7839   -0.6082   27.5542 C   0  0  0  0  0  0  0  0  0  0  0  0
    5.4453   -0.7197   27.8378 C   0  0  0  0  0  0  0  0  0  0  0  0
    4.9588   -2.0090   27.6219 C   0  0  0  0  0  0  0  0  0  0  0  0
    5.9086   -2.9043   27.1702 C   0  0  0  0  0  0  0  0  0  0  0  0
    5.7876   -4.3625   26.8254 C   0  0  0  0  0  0  0  0  0  0  0  0
    5.8192   -4.7109   25.4009 N   0  0  0  0  0  0  0  0  0  0  0  0
    5.1330   -3.6948   24.6131 C   0  0  0  0  0  0  0  0  0  0  0  0
    5.1269   -4.0670   23.1423 C   0  0  0  0  0  0  0  0  0  0  0  0
    6.5253   -4.2217   22.6974 N   0  0  0  0  0  0  0  0  0  0  0  0
    7.2361   -5.2485   23.4825 C   0  0  0  0  0  0  0  0  0  0  0  0
    7.1950   -4.8428   24.9402 C   0  0  0  0  0  0  0  0  0  0  0  0
    6.8192   -4.1812   21.0943 S   0  0  0  0  0  0  0  0  0  0  0  0
    5.7116   -4.8260   20.4600 O   0  0  0  0  0  0  0  0  0  0  0  0
    8.1437   -4.6873   20.9090 O   0  0  0  0  0  0  0  0  0  0  0  0
    6.8131   -2.4727   20.6063 C   0  0  0  0  0  0  0  0  0  0  0  0
    5.9011   -2.1034   19.6561 C   0  0  0  0  0  0  0  0  0  0  0  0
    5.8339   -0.7898   19.2212 C   0  0  0  0  0  0  0  0  0  0  0  0
    6.6714    0.1605   19.7253 C   0  0  0  0  0  0  0  0  0  0  0  0
    7.6329   -0.1754   20.7082 C   0  0  0  0  0  0  0  0  0  0  0  0
    8.5212    0.7772   21.2540 C   0  0  0  0  0  0  0  0  0  0  0  0
    9.4521    0.4471   22.2021 C   0  0  0  0  0  0  0  0  0  0  0  0
   10.3917    1.5031   22.7431 C   0  0  0  0  0  0  0  0  0  0  0  0
    9.8289    2.8613   22.7271 N   0  0  0  0  0  0  0  0  0  0  0  0
   10.8461    3.8381   23.0948 C   0  0  0  0  0  0  0  0  0  0  0  0
   10.2837    5.2464   23.0429 C   0  0  0  0  0  0  0  0  0  0  0  0
    9.1295    5.3189   23.9592 N   0  0  0  0  0  0  0  0  0  0  0  0
    8.0876    4.3380   23.6013 C   0  0  0  0  0  0  0  0  0  0  0  0
    8.7027    2.9557   23.6466 C   0  0  0  0  0  0  0  0  0  0  0  0
    8.6280    6.7878   24.4237 S   0  0  0  0  0  0  0  0  0  0  0  0
    9.7393    7.6750   24.2802 O   0  0  0  0  0  0  0  0  0  0  0  0
    8.0145    6.6357   25.7056 O   0  0  0  0  0  0  0  0  0  0  0  0
    7.3934    7.3277   23.3223 C   0  0  0  0  0  0  0  0  0  0  0  0
    6.2847    8.0665   23.6549 C   0  0  0  0  0  0  0  0  0  0  0  0
    5.4790    8.3394   22.5524 C   0  0  0  0  0  0  0  0  0  0  0  0
    5.9821    7.8079   21.4195 C   0  0  0  0  0  0  0  0  0  0  0  0
    5.3003    7.9126   19.8492 Cl  0  0  0  0  0  0  0  0  0  0  0  0
    7.4526    6.9566   21.6496 S   0  0  0  0  0  0  0  0  0  0  0  0
    9.5220   -0.8789   22.6630 C   0  0  0  0  0  0  0  0  0  0  0  0
   10.5096   -1.3214   23.7221 C   0  0  0  0  0  0  0  0  0  0  0  0
   11.9495   -1.3186   23.2137 C   0  0  0  0  0  0  0  0  0  0  0  0
   12.9379   -1.7573   24.2604 C   0  0  0  0  0  0  0  0  0  0  0  0
   12.9881   -3.0436   24.8529 C   0  0  0  0  0  0  0  0  0  0  0  0
   13.9778   -3.2103   25.7736 C   0  0  0  0  0  0  0  0  0  0  0  0
   14.8677   -1.7724   25.9222 S   0  0  0  0  0  0  0  0  0  0  0  0
   13.9246   -0.9630   24.7619 C   0  0  0  0  0  0  0  0  0  0  0  0
    8.6821   -1.8325   22.1551 C   0  0  0  0  0  0  0  0  0  0  0  0
    7.7159   -1.5177   21.1692 C   0  0  0  0  0  0  0  0  0  0  0  0
    7.4306   -2.1000   27.0193 S   0  0  0  0  0  0  0  0  0  0  0  0
  1  2  1  0
  2  3  1  0
  3  4  2  0
  3  5  1  0
  5  6  1  0
  6  7  1  0
  7  8  1  0
  8  9  1  0
  9 10  1  0
  8 11  1  0
 11 12  2  0
 11 13  2  0
 11 14  1  0
 14 15  2  0
 15 16  1  0
 16 17  2  0
 17 18  1  0
 18 19  1  0
 19 20  1  0
 20 21  1  0
 21 22  1  0
 22 23  1  0
 23 24  1  0
 22 25  1  0
 25 26  2  0
 25 27  2  0
 25 28  1  0
 28 29  2  0
 29 30  1  0
 30 31  2  0
 31 32  1  0
 32 33  2  0
 33 34  1  0
 34 35  1  0
 35 36  1  0
 36 37  1  0
 37 38  1  0
 38 39  1  0
 39 40  1  0
 40 41  1  0
 39 42  1  0
 42 43  2  0
 42 44  2  0
 42 45  1  0
 45 46  2  0
 46 47  1  0
 47 48  2  0
 48 49  1  0
 48 50  1  0
 34 51  2  0
 51 52  1  0
 52 53  1  0
 53 54  1  0
 54 55  1  0
 55 56  2  0
 56 57  1  0
 57 58  1  0
 51 59  1  0
 59 60  2  0
 17 61  1  0
 10  5  1  0
 61 14  1  0
 24 19  1  0
 60 28  1  0
 60 32  1  0
 41 36  1  0
 50 45  1  0
 58 54  2  0
M  END
