CVD-0003420|dock_bobby27042020.2|mol2|11|dock2
     RDKit          3D

 18 19  0  0  0  0  0  0  0  0999 V2000
    4.5260    1.0428   21.0958 N   0  0  0  0  0  0  0  0  0  0  0  0
    5.5711    0.5987   20.3201 C   0  0  0  0  0  0  0  0  0  0  0  0
    5.5040    0.6446   18.9345 C   0  0  0  0  0  0  0  0  0  0  0  0
    6.4913    0.2258   18.1406 N   0  0  0  0  0  0  0  0  0  0  0  0
    7.5773   -0.2522   18.7201 C   0  0  0  0  0  0  0  0  0  0  0  0
    8.7966   -0.7674   17.5966 Cl  0  0  0  0  0  0  0  0  0  0  0  0
    7.7808   -0.3572   20.1064 C   0  0  0  0  0  0  0  0  0  0  0  0
    8.9955   -0.8903   20.6196 N   0  0  0  0  0  0  0  0  0  0  0  0
    9.5114   -0.8491   21.8728 C   0  0  0  0  0  0  0  0  0  0  0  0
    8.9936   -0.3144   22.8477 O   0  0  0  0  0  0  0  0  0  0  0  0
   10.8498   -1.5446   21.9900 C   0  0  0  0  0  0  0  0  0  0  0  0
   11.4566   -1.4724   23.3948 C   0  0  0  0  0  0  0  0  0  0  0  0
   12.6267   -2.4655   23.5481 C   0  0  0  0  0  0  0  0  0  0  0  0
   13.3000   -2.3664   24.9156 C   0  0  0  0  0  0  0  0  0  0  0  0
   13.7412   -0.9394   25.2145 C   0  0  0  0  0  0  0  0  0  0  0  0
   12.5762    0.0324   25.0929 C   0  0  0  0  0  0  0  0  0  0  0  0
   11.9348   -0.0451   23.7113 C   0  0  0  0  0  0  0  0  0  0  0  0
    6.7284    0.0894   20.9082 C   0  0  0  0  0  0  0  0  0  0  0  0
  1  2  1  0
  2  3  2  0
  3  4  1  0
  4  5  2  0
  5  6  1  0
  5  7  1  0
  7  8  1  0
  8  9  1  0
  9 10  2  0
  9 11  1  0
 11 12  1  0
 12 13  1  0
 13 14  1  0
 14 15  1  0
 15 16  1  0
 16 17  1  0
  7 18  2  0
 18  2  1  0
 17 12  1  0
M  END
