CVD-0000104|dock_bobby27042020.85|mol2|29|dock1
     RDKit          3D

 15 16  0  0  0  0  0  0  0  0999 V2000
   14.5369   -2.5267   24.6544 N   0  0  0  0  0  0  0  0  0  0  0  0
   13.9339   -1.2791   24.3842 N   0  0  0  0  0  0  0  0  0  0  0  0
   12.9125   -1.1767   23.5298 C   0  0  0  0  0  0  0  0  0  0  0  0
   12.4692   -2.1665   22.9550 O   0  0  0  0  0  0  0  0  0  0  0  0
   12.2931    0.1662   23.2644 C   0  0  0  0  0  0  0  0  0  0  0  0
   10.9140    0.3746   23.2547 C   0  0  0  0  0  0  0  0  0  0  0  0
   10.3862    1.6066   23.0107 C   0  0  0  0  0  0  0  0  0  0  0  0
   11.2172    2.7227   22.7572 C   0  0  0  0  0  0  0  0  0  0  0  0
   10.7174    4.0209   22.4986 C   0  0  0  0  0  0  0  0  0  0  0  0
   11.5628    5.0617   22.2604 C   0  0  0  0  0  0  0  0  0  0  0  0
   12.9365    4.8718   22.2659 C   0  0  0  0  0  0  0  0  0  0  0  0
   13.7567    5.9348   22.0236 O   0  0  0  0  0  0  0  0  0  0  0  0
   13.4645    3.6334   22.5113 C   0  0  0  0  0  0  0  0  0  0  0  0
   12.6202    2.5275   22.7631 C   0  0  0  0  0  0  0  0  0  0  0  0
   13.1238    1.2322   23.0212 C   0  0  0  0  0  0  0  0  0  0  0  0
  1  2  1  0
  2  3  1  0
  3  4  2  0
  3  5  1  0
  5  6  2  0
  6  7  1  0
  7  8  2  0
  8  9  1  0
  9 10  2  0
 10 11  1  0
 11 12  1  0
 11 13  2  0
 13 14  1  0
 14 15  2  0
 15  5  1  0
 14  8  1  0
M  END
