CVD-0002108|dock_bobby27042020.92|mol2|39|dock2
     RDKit          3D

 21 21  0  0  0  0  0  0  0  0999 V2000
    9.5920    0.7796   22.0273 C   0  0  0  0  0  0  0  0  0  0  0  0
    8.9581   -0.5612   21.7346 C   0  0  0  0  0  0  0  0  0  0  0  0
    8.7709   -0.7522   20.3204 O   0  0  0  0  0  0  0  0  0  0  0  0
    7.7896    0.0527   19.6230 C   0  0  0  0  0  0  0  0  0  0  0  0
    7.8276   -0.0447   18.0379 C   0  0  0  0  0  0  0  0  0  0  0  0
    6.1519   -0.8104   18.1130 S   0  0  0  0  0  0  0  0  0  0  0  0
    6.1690   -2.1888   17.7018 O   0  0  0  0  0  0  0  0  0  0  0  0
    5.1452    0.0437   17.5430 O   0  0  0  0  0  0  0  0  0  0  0  0
    6.3979   -0.5652   19.9124 C   0  0  0  0  0  0  0  0  0  0  0  0
    9.7884   -1.7400   22.2605 C   0  0  0  0  0  0  0  0  0  0  0  0
    9.1727   -2.3076   23.4497 N   0  0  0  0  0  0  0  0  0  0  0  0
    8.1538   -3.1707   23.3749 C   0  0  0  0  0  0  0  0  0  0  0  0
    7.6099   -3.6627   24.6839 C   0  0  0  0  0  0  0  0  0  0  0  0
    7.6810   -3.5279   22.3003 O   0  0  0  0  0  0  0  0  0  0  0  0
   11.2204   -1.3235   22.5834 C   0  0  0  0  0  0  0  0  0  0  0  0
   11.5264   -0.9774   23.7213 O   0  0  0  0  0  0  0  0  0  0  0  0
   12.0993   -1.3658   21.5821 N   0  0  0  0  0  0  0  0  0  0  0  0
   13.4929   -0.9873   21.7741 C   0  0  0  0  0  0  0  0  0  0  0  0
   14.0796   -1.5825   22.9806 C   0  0  0  0  0  0  0  0  0  0  0  0
   14.5242   -2.0231   23.9878 C   0  0  0  0  0  0  0  0  0  0  0  0
   15.1648   -2.6510   25.5495 Br  0  0  0  0  0  0  0  0  0  0  0  0
  2  1  1  0
  2  3  1  0
  3  4  1  0
  4  5  1  0
  5  6  1  0
  6  7  2  0
  6  8  2  0
  6  9  1  0
  2 10  1  0
 10 11  1  0
 11 12  1  0
 12 13  1  0
 12 14  2  0
 10 15  1  0
 15 16  2  0
 15 17  1  0
 17 18  1  0
 18 19  1  0
 19 20  3  0
 20 21  1  0
  9  4  1  0
M  END
