CVD-0002073|dock_bobby27042020.50|mol2|23|dock2
     RDKit          3D

 24 25  0  0  0  0  0  0  0  0999 V2000
    5.6744    1.9691   17.0453 C   0  0  0  0  0  0  0  0  0  0  0  0
    6.1525    0.6724   17.5324 N   0  0  0  0  0  0  0  0  0  0  0  0
    5.0582   -0.1899   17.9770 C   0  0  0  0  0  0  0  0  0  0  0  0
    5.5635   -1.4656   18.6221 C   0  0  0  0  0  0  0  0  0  0  0  0
    6.2347   -1.1261   20.2735 S   0  0  0  0  0  0  0  0  0  0  0  0
    6.5467   -2.7678   20.8439 C   0  0  0  0  0  0  0  0  0  0  0  0
    5.7986   -3.6837   20.5781 O   0  0  0  0  0  0  0  0  0  0  0  0
    7.7744   -2.9845   21.6674 C   0  0  0  0  0  0  0  0  0  0  0  0
    7.7291   -3.8991   22.7137 C   0  0  0  0  0  0  0  0  0  0  0  0
    8.8468   -4.1256   23.4982 C   0  0  0  0  0  0  0  0  0  0  0  0
   10.0214   -3.4396   23.2438 C   0  0  0  0  0  0  0  0  0  0  0  0
   10.0909   -2.5244   22.2059 C   0  0  0  0  0  0  0  0  0  0  0  0
   11.3700   -1.7718   21.9280 C   0  0  0  0  0  0  0  0  0  0  0  0
   11.4990   -0.5452   22.7266 N   0  0  0  0  0  0  0  0  0  0  0  0
   10.5466    0.4692   22.2655 C   0  0  0  0  0  0  0  0  0  0  0  0
   10.6555    1.7186   23.1197 C   0  0  0  0  0  0  0  0  0  0  0  0
   12.0198    2.2495   23.0780 N   0  0  0  0  0  0  0  0  0  0  0  0
   13.0038    1.2383   23.4770 C   0  0  0  0  0  0  0  0  0  0  0  0
   12.8537   -0.0085   22.6244 C   0  0  0  0  0  0  0  0  0  0  0  0
   12.2986    3.5253   22.7382 C   0  0  0  0  0  0  0  0  0  0  0  0
   11.4131    4.3201   22.4486 O   0  0  0  0  0  0  0  0  0  0  0  0
   13.7578    3.9396   22.7373 C   0  0  0  0  0  0  0  0  0  0  0  0
   13.9461    5.6396   22.2879 Cl  0  0  0  0  0  0  0  0  0  0  0  0
    8.9644   -2.3015   21.4238 C   0  0  0  0  0  0  0  0  0  0  0  0
  1  2  1  0
  2  3  1  0
  3  4  1  0
  4  5  1  0
  5  6  1  0
  6  7  2  0
  6  8  1  0
  8  9  2  0
  9 10  1  0
 10 11  2  0
 11 12  1  0
 12 13  1  0
 13 14  1  0
 14 15  1  0
 15 16  1  0
 16 17  1  0
 17 18  1  0
 18 19  1  0
 17 20  1  0
 20 21  2  0
 20 22  1  0
 22 23  1  0
 12 24  2  0
 24  8  1  0
 19 14  1  0
M  END
