CVD-0003681|dock_bobby27042020.87|mol2|12|dock2
     RDKit          3D

 25 26  0  0  0  0  0  0  0  0999 V2000
    9.9289   -6.0340   27.1781 N   0  0  0  0  0  0  0  0  0  0  0  0
    9.3308   -4.8948   26.8339 C   0  0  0  0  0  0  0  0  0  0  0  0
    8.6933   -4.2399   27.6712 O   0  0  0  0  0  0  0  0  0  0  0  0
    9.4369   -4.4157   25.4289 C   0  0  0  0  0  0  0  0  0  0  0  0
    9.5735   -3.1528   25.0625 C   0  0  0  0  0  0  0  0  0  0  0  0
    9.6800   -2.6732   23.6485 C   0  0  0  0  0  0  0  0  0  0  0  0
   10.8855   -1.7583   23.4180 C   0  0  0  0  0  0  0  0  0  0  0  0
   11.0098   -1.2577   21.9871 C   0  0  0  0  0  0  0  0  0  0  0  0
   11.4883   -2.3261   21.1743 O   0  0  0  0  0  0  0  0  0  0  0  0
    9.6892   -0.7357   21.4595 C   0  0  0  0  0  0  0  0  0  0  0  0
    8.8631   -1.5372   20.6855 C   0  0  0  0  0  0  0  0  0  0  0  0
    7.6583   -1.0592   20.2015 C   0  0  0  0  0  0  0  0  0  0  0  0
    7.2338    0.2388   20.4723 C   0  0  0  0  0  0  0  0  0  0  0  0
    5.9535    0.7371   19.9548 C   0  0  0  0  0  0  0  0  0  0  0  0
    5.1052    1.5260   20.5936 C   0  0  0  0  0  0  0  0  0  0  0  0
    3.8240    2.0269   20.0804 C   0  0  0  0  0  0  0  0  0  0  0  0
    2.6257    1.7426   20.7357 C   0  0  0  0  0  0  0  0  0  0  0  0
    1.4234    2.2235   20.2378 C   0  0  0  0  0  0  0  0  0  0  0  0
    0.2590    1.9376   20.8889 O   0  0  0  0  0  0  0  0  0  0  0  0
    1.3949    2.9925   19.0837 C   0  0  0  0  0  0  0  0  0  0  0  0
    2.5840    3.2775   18.4291 C   0  0  0  0  0  0  0  0  0  0  0  0
    2.5672    4.0330   17.2931 O   0  0  0  0  0  0  0  0  0  0  0  0
    3.7903    2.8004   18.9205 C   0  0  0  0  0  0  0  0  0  0  0  0
    8.0690    1.0378   21.2490 C   0  0  0  0  0  0  0  0  0  0  0  0
    9.2737    0.5592   21.7327 C   0  0  0  0  0  0  0  0  0  0  0  0
  1  2  1  0
  2  3  2  0
  2  4  1  0
  4  5  2  0
  5  6  1  0
  6  7  1  0
  7  8  1  0
  8  9  1  0
  8 10  1  0
 10 11  2  0
 11 12  1  0
 12 13  2  0
 13 14  1  0
 14 15  2  0
 15 16  1  0
 16 17  2  0
 17 18  1  0
 18 19  1  0
 18 20  2  0
 20 21  1  0
 21 22  1  0
 21 23  2  0
 13 24  1  0
 24 25  2  0
 25 10  1  0
 23 16  1  0
M  END
