CVD-0000322|dock_bobby27042020.84|mol2|36|dock1
     RDKit          3D

 26 29  0  0  0  0  0  0  0  0999 V2000
   13.9015    5.0636   21.8570 C   0  0  0  0  0  0  0  0  0  0  0  0
   12.4531    4.9612   22.9074 S   0  0  0  0  0  0  0  0  0  0  0  0
   11.9487    3.2943   22.7364 C   0  0  0  0  0  0  0  0  0  0  0  0
   12.7735    1.8525   22.9134 C   0  0  0  0  0  0  0  0  0  0  0  0
   11.8008    0.8377   22.6358 C   0  0  0  0  0  0  0  0  0  0  0  0
   11.8084   -0.5894   22.6012 C   0  0  0  0  0  0  0  0  0  0  0  0
   10.6098   -1.2600   22.3291 C   0  0  0  0  0  0  0  0  0  0  0  0
    9.4444   -0.5710   22.0513 C   0  0  0  0  0  0  0  0  0  0  0  0
    9.4269    0.8116   22.0412 C   0  0  0  0  0  0  0  0  0  0  0  0
    8.2663    1.5212   21.7400 O   0  0  0  0  0  0  0  0  0  0  0  0
    7.4738    1.1526   20.6904 C   0  0  0  0  0  0  0  0  0  0  0  0
    6.1986    1.6902   20.6702 C   0  0  0  0  0  0  0  0  0  0  0  0
    5.3571    1.3403   19.6215 C   0  0  0  0  0  0  0  0  0  0  0  0
    5.8341    0.4715   18.6490 C   0  0  0  0  0  0  0  0  0  0  0  0
    7.1238   -0.0031   18.7727 C   0  0  0  0  0  0  0  0  0  0  0  0
    7.9477    0.3239   19.7770 N   0  0  0  0  0  0  0  0  0  0  0  0
    3.9946    1.8818   19.5504 C   0  0  0  0  0  0  0  0  0  0  0  0
    2.8762    1.5886   20.2698 C   0  0  0  0  0  0  0  0  0  0  0  0
    1.8160    2.3533   19.8526 N   0  0  0  0  0  0  0  0  0  0  0  0
    2.2970    3.1066   18.8820 C   0  0  0  0  0  0  0  0  0  0  0  0
    3.6013    2.8590   18.6645 N   0  0  0  0  0  0  0  0  0  0  0  0
   10.5867    1.5272   22.3460 C   0  0  0  0  0  0  0  0  0  0  0  0
   10.6969    2.9125   22.4058 N   0  0  0  0  0  0  0  0  0  0  0  0
   13.0057   -1.3499   22.8409 N   0  0  0  0  0  0  0  0  0  0  0  0
   13.5721   -2.1606   21.7757 C   0  0  0  0  0  0  0  0  0  0  0  0
   13.7724   -1.2186   24.0674 C   0  0  0  0  0  0  0  0  0  0  0  0
  1  2  1  0
  2  3  1  0
  3  4  2  0
  4  5  1  0
  5  6  2  0
  6  7  1  0
  7  8  2  0
  8  9  1  0
  9 10  1  0
 10 11  1  0
 11 12  2  0
 12 13  1  0
 13 14  2  0
 14 15  1  0
 15 16  2  0
 13 17  1  0
 17 18  2  0
 18 19  1  0
 19 20  2  0
 20 21  1  0
  9 22  2  0
 22 23  1  0
  6 24  1  0
 24 25  1  0
 24 26  1  0
 23  3  1  0
 22  5  1  0
 16 11  1  0
 21 17  1  0
M  END
