CVD-0003941|dock_bobby27042020.0|mol2|22|dock2
     RDKit          3D

 25 27  0  0  0  0  0  0  0  0999 V2000
    5.3902    0.2219   20.1025 Cl  0  0  0  0  0  0  0  0  0  0  0  0
    6.1616   -1.2440   19.4832 C   0  0  0  0  0  0  0  0  0  0  0  0
    6.5861   -2.1605   20.6138 C   0  0  0  0  0  0  0  0  0  0  0  0
    6.1000   -3.2758   20.7530 O   0  0  0  0  0  0  0  0  0  0  0  0
    7.5211   -1.6779   21.4567 N   0  0  0  0  0  0  0  0  0  0  0  0
    8.1628   -0.3628   21.3593 C   0  0  0  0  0  0  0  0  0  0  0  0
    9.6719   -0.4998   21.3667 C   0  0  0  0  0  0  0  0  0  0  0  0
   10.1754   -1.3110   22.5587 C   0  0  0  0  0  0  0  0  0  0  0  0
    9.4038   -2.6209   22.6561 C   0  0  0  0  0  0  0  0  0  0  0  0
    7.9055   -2.4126   22.6563 C   0  0  0  0  0  0  0  0  0  0  0  0
   11.6356   -1.5383   22.5204 N   0  0  0  0  0  0  0  0  0  0  0  0
   12.5593   -0.7547   23.3615 C   0  0  0  0  0  0  0  0  0  0  0  0
   13.9561   -1.1713   22.9080 C   0  0  0  0  0  0  0  0  0  0  0  0
   14.2454   -2.6099   23.2868 C   0  0  0  0  0  0  0  0  0  0  0  0
   14.0820   -2.8336   24.7824 C   0  0  0  0  0  0  0  0  0  0  0  0
   12.6974   -2.4110   25.2462 C   0  0  0  0  0  0  0  0  0  0  0  0
   12.3933   -0.9693   24.8593 C   0  0  0  0  0  0  0  0  0  0  0  0
   12.4602    0.6952   23.0963 C   0  0  0  0  0  0  0  0  0  0  0  0
   12.4841    1.8619   22.8655 C   0  0  0  0  0  0  0  0  0  0  0  0
   12.5310    3.2978   22.5601 C   0  0  0  0  0  0  0  0  0  0  0  0
   11.5399    4.1230   23.3617 C   0  0  0  0  0  0  0  0  0  0  0  0
   11.6790    5.6060   23.0576 C   0  0  0  0  0  0  0  0  0  0  0  0
   13.1035    6.0654   23.2632 C   0  0  0  0  0  0  0  0  0  0  0  0
   14.0489    5.2027   22.4739 C   0  0  0  0  0  0  0  0  0  0  0  0
   13.8814    3.7992   22.8520 N   0  0  0  0  0  0  0  0  0  0  0  0
  1  2  1  0
  2  3  1  0
  3  4  2  0
  3  5  1  0
  5  6  1  0
  6  7  1  0
  7  8  1  0
  8  9  1  0
  9 10  1  0
  8 11  1  0
 11 12  1  0
 12 13  1  0
 13 14  1  0
 14 15  1  0
 15 16  1  0
 16 17  1  0
 12 18  1  0
 18 19  3  0
 19 20  1  0
 20 21  1  0
 21 22  1  0
 22 23  1  0
 23 24  1  0
 24 25  1  0
 10  5  1  0
 17 12  1  0
 25 20  1  0
M  END
