CVD-0001184|dock_bobby27042020.10|mol2|29|dock1
     RDKit          3D

 17 18  0  0  0  0  0  0  0  0999 V2000
   14.5416   -0.6780   23.6204 F   0  0  0  0  0  0  0  0  0  0  0  0
   13.5440   -0.9850   24.5663 C   0  0  0  0  0  0  0  0  0  0  0  0
   12.9730   -2.3342   24.2112 C   0  0  0  0  0  0  0  0  0  0  0  0
   12.1665   -2.2981   22.9208 C   0  0  0  0  0  0  0  0  0  0  0  0
   11.0924   -1.2397   22.9530 C   0  0  0  0  0  0  0  0  0  0  0  0
   11.6788    0.1107   23.2939 C   0  0  0  0  0  0  0  0  0  0  0  0
   12.4624    0.0691   24.5903 C   0  0  0  0  0  0  0  0  0  0  0  0
   10.3493   -1.2061   21.6933 N   0  0  0  0  0  0  0  0  0  0  0  0
    9.1726   -0.5568   21.5543 C   0  0  0  0  0  0  0  0  0  0  0  0
    8.6222   -0.0140   22.5079 O   0  0  0  0  0  0  0  0  0  0  0  0
    8.7001   -0.5860   20.2651 N   0  0  0  0  0  0  0  0  0  0  0  0
    7.5207   -0.0335   19.7071 C   0  0  0  0  0  0  0  0  0  0  0  0
    6.3784    0.2667   20.4424 C   0  0  0  0  0  0  0  0  0  0  0  0
    5.2793    0.8049   19.7953 C   0  0  0  0  0  0  0  0  0  0  0  0
    5.3500    1.0274   18.4394 C   0  0  0  0  0  0  0  0  0  0  0  0
    6.4299    0.7500   17.7090 N   0  0  0  0  0  0  0  0  0  0  0  0
    7.4853    0.2310   18.3427 C   0  0  0  0  0  0  0  0  0  0  0  0
  1  2  1  0
  2  3  1  0
  3  4  1  0
  4  5  1  0
  5  6  1  0
  6  7  1  0
  5  8  1  0
  8  9  1  0
  9 10  2  0
  9 11  1  0
 11 12  1  0
 12 13  2  0
 13 14  1  0
 14 15  2  0
 15 16  1  0
 16 17  2  0
  7  2  1  0
 17 12  1  0
M  END
