CVD-0002105|dock_bobby27042020.7|mol2|22|dock1
     RDKit          3D

 22 24  0  0  0  0  0  0  0  0999 V2000
    3.6653    2.6729   18.7658 C   0  0  0  0  0  0  0  0  0  0  0  0
    4.5130    2.2757   19.9468 C   0  0  0  0  0  0  0  0  0  0  0  0
    5.5723    1.3070   19.6187 N   0  0  0  0  0  0  0  0  0  0  0  0
    4.9825    0.0146   19.3055 C   0  0  0  0  0  0  0  0  0  0  0  0
    6.0885   -1.0180   18.9090 C   0  0  0  0  0  0  0  0  0  0  0  0
    7.1998   -1.0985   19.9703 C   0  0  0  0  0  0  0  0  0  0  0  0
    7.6978    0.3043   20.3132 C   0  0  0  0  0  0  0  0  0  0  0  0
    6.5380    1.2046   20.7106 C   0  0  0  0  0  0  0  0  0  0  0  0
    8.7390    0.2812   21.4320 C   0  0  0  0  0  0  0  0  0  0  0  0
    9.9396   -0.5618   21.0967 C   0  0  0  0  0  0  0  0  0  0  0  0
   11.1415   -0.2463   21.9484 C   0  0  0  0  0  0  0  0  0  0  0  0
   12.2965   -1.0431   21.8846 C   0  0  0  0  0  0  0  0  0  0  0  0
   12.3596   -2.1738   21.1153 O   0  0  0  0  0  0  0  0  0  0  0  0
   13.3931   -0.7644   22.6983 C   0  0  0  0  0  0  0  0  0  0  0  0
   14.4596   -1.6061   22.6841 O   0  0  0  0  0  0  0  0  0  0  0  0
   13.3531    0.3046   23.5801 C   0  0  0  0  0  0  0  0  0  0  0  0
   12.2155    1.0875   23.6414 C   0  0  0  0  0  0  0  0  0  0  0  0
   11.1061    0.8233   22.8333 C   0  0  0  0  0  0  0  0  0  0  0  0
    9.9139    1.7549   22.8584 C   0  0  0  0  0  0  0  0  0  0  0  0
   10.2997    3.2210   23.0137 C   0  0  0  0  0  0  0  0  0  0  0  0
   11.3641    3.6715   22.0865 N   0  0  0  0  0  0  0  0  0  0  0  0
    9.1385    1.6406   21.6622 O   0  0  0  0  0  0  0  0  0  0  0  0
  1  2  1  0
  2  3  1  0
  3  4  1  0
  4  5  1  0
  5  6  1  0
  6  7  1  0
  7  8  1  0
  7  9  1  0
  9 10  1  0
 10 11  1  0
 11 12  2  0
 12 13  1  0
 12 14  1  0
 14 15  1  0
 14 16  2  0
 16 17  1  0
 17 18  2  0
 18 19  1  0
 19 20  1  0
 20 21  1  0
 19 22  1  0
  8  3  1  0
 22  9  1  0
 18 11  1  0
M  END
