CVD-0002076|dock_bobby27042020.50|mol2|22|dock3
     RDKit          3D

 34 37  0  0  0  0  0  0  0  0999 V2000
   11.2633   -2.4520   22.7764 C   0  0  0  0  0  0  0  0  0  0  0  0
   10.3075   -1.3290   23.2054 C   0  0  0  0  0  0  0  0  0  0  0  0
    9.8109   -0.5952   21.9567 C   0  0  0  0  0  0  0  0  0  0  0  0
   10.8327   -0.2499   21.0306 O   0  0  0  0  0  0  0  0  0  0  0  0
    9.0759   -1.8506   23.9474 C   0  0  0  0  0  0  0  0  0  0  0  0
    8.4727   -2.9852   23.2787 O   0  0  0  0  0  0  0  0  0  0  0  0
    7.4178   -3.6145   23.8610 C   0  0  0  0  0  0  0  0  0  0  0  0
    6.9142   -3.5588   25.1038 C   0  0  0  0  0  0  0  0  0  0  0  0
    5.8262   -4.3869   25.1925 N   0  0  0  0  0  0  0  0  0  0  0  0
    5.6129   -4.9959   23.9772 C   0  0  0  0  0  0  0  0  0  0  0  0
    4.6490   -5.9081   23.5624 C   0  0  0  0  0  0  0  0  0  0  0  0
    4.6731   -6.3610   22.2537 C   0  0  0  0  0  0  0  0  0  0  0  0
    5.6456   -5.8973   21.4054 C   0  0  0  0  0  0  0  0  0  0  0  0
    5.6522   -6.3534   20.1238 F   0  0  0  0  0  0  0  0  0  0  0  0
    6.6177   -4.9968   21.7721 C   0  0  0  0  0  0  0  0  0  0  0  0
    6.6000   -4.5377   23.0869 C   0  0  0  0  0  0  0  0  0  0  0  0
   11.0606   -0.3614   24.1516 C   0  0  0  0  0  0  0  0  0  0  0  0
   11.7384    0.8487   23.5536 C   0  0  0  0  0  0  0  0  0  0  0  0
   13.0742    0.8128   23.1853 C   0  0  0  0  0  0  0  0  0  0  0  0
   13.6845    1.9309   22.6425 C   0  0  0  0  0  0  0  0  0  0  0  0
   12.9607    3.0976   22.4643 C   0  0  0  0  0  0  0  0  0  0  0  0
   11.6241    3.1573   22.8257 C   0  0  0  0  0  0  0  0  0  0  0  0
   10.8285    4.4269   22.6387 C   0  0  0  0  0  0  0  0  0  0  0  0
   10.5803    5.1437   23.8983 N   0  0  0  0  0  0  0  0  0  0  0  0
    9.5706    6.1884   23.7033 C   0  0  0  0  0  0  0  0  0  0  0  0
    9.2883    6.8973   25.0150 C   0  0  0  0  0  0  0  0  0  0  0  0
   10.5185    7.4777   25.5577 N   0  0  0  0  0  0  0  0  0  0  0  0
   11.5701    6.4672   25.7086 C   0  0  0  0  0  0  0  0  0  0  0  0
   11.8119    5.7569   24.3891 C   0  0  0  0  0  0  0  0  0  0  0  0
   10.6272    8.7847   25.8955 C   0  0  0  0  0  0  0  0  0  0  0  0
    9.6864    9.5581   25.7673 O   0  0  0  0  0  0  0  0  0  0  0  0
   11.9483    9.2826   26.4500 C   0  0  0  0  0  0  0  0  0  0  0  0
   11.8642   11.0018   26.8557 Cl  0  0  0  0  0  0  0  0  0  0  0  0
   11.0269    2.0275   23.3700 C   0  0  0  0  0  0  0  0  0  0  0  0
  1  2  1  0
  2  3  1  0
  3  4  1  0
  2  5  1  0
  5  6  1  0
  6  7  1  0
  7  8  2  0
  8  9  1  0
  9 10  1  0
 10 11  2  0
 11 12  1  0
 12 13  2  0
 13 14  1  0
 13 15  1  0
 15 16  2  0
  2 17  1  0
 17 18  1  0
 18 19  2  0
 19 20  1  0
 20 21  2  0
 21 22  1  0
 22 23  1  0
 23 24  1  0
 24 25  1  0
 25 26  1  0
 26 27  1  0
 27 28  1  0
 28 29  1  0
 27 30  1  0
 30 31  2  0
 30 32  1  0
 32 33  1  0
 22 34  2  0
 16  7  1  0
 34 18  1  0
 16 10  1  0
 29 24  1  0
M  END
