CVD-0003250|dock_bobby27042020.45|mol2|47|dock3
     RDKit          3D

 26 28  0  0  0  0  0  0  0  0999 V2000
    9.1008   -1.0078   26.8284 F   0  0  0  0  0  0  0  0  0  0  0  0
    8.5578   -1.1616   25.5906 C   0  0  0  0  0  0  0  0  0  0  0  0
    7.2305   -1.4701   25.4892 C   0  0  0  0  0  0  0  0  0  0  0  0
    6.6774   -1.6070   24.2284 C   0  0  0  0  0  0  0  0  0  0  0  0
    7.4661   -1.4339   23.0916 C   0  0  0  0  0  0  0  0  0  0  0  0
    6.8306   -1.5450   21.8049 N   0  0  0  0  0  0  0  0  0  0  0  0
    6.6484   -0.2888   21.0071 C   0  0  0  0  0  0  0  0  0  0  0  0
    7.3431   -0.3795   19.6469 C   0  0  0  0  0  0  0  0  0  0  0  0
    6.0408   -0.1178   18.4038 S   0  0  0  0  0  0  0  0  0  0  0  0
    5.7500   -1.3274   17.6843 O   0  0  0  0  0  0  0  0  0  0  0  0
    6.2970    1.0619   17.6239 O   0  0  0  0  0  0  0  0  0  0  0  0
    4.7714    0.2265   19.5659 C   0  0  0  0  0  0  0  0  0  0  0  0
    5.2168    0.0842   20.8201 C   0  0  0  0  0  0  0  0  0  0  0  0
    6.4710   -2.7702   21.3026 C   0  0  0  0  0  0  0  0  0  0  0  0
    5.9624   -2.8721   20.1935 O   0  0  0  0  0  0  0  0  0  0  0  0
    6.7091   -4.0075   22.1486 C   0  0  0  0  0  0  0  0  0  0  0  0
    6.4920   -5.5004   21.2256 Cl  0  0  0  0  0  0  0  0  0  0  0  0
    8.8365   -1.1559   23.2233 C   0  0  0  0  0  0  0  0  0  0  0  0
    9.7696   -1.0308   22.0307 C   0  0  0  0  0  0  0  0  0  0  0  0
   11.2467   -0.9097   22.3570 C   0  0  0  0  0  0  0  0  0  0  0  0
   11.9881   -2.0518   22.6196 C   0  0  0  0  0  0  0  0  0  0  0  0
   13.3369   -1.9740   22.9230 C   0  0  0  0  0  0  0  0  0  0  0  0
   13.9655   -0.7490   22.9686 C   0  0  0  0  0  0  0  0  0  0  0  0
   13.2439    0.3958   22.7100 C   0  0  0  0  0  0  0  0  0  0  0  0
   11.8949    0.3177   22.4057 C   0  0  0  0  0  0  0  0  0  0  0  0
    9.3703   -1.0013   24.4977 C   0  0  0  0  0  0  0  0  0  0  0  0
  1  2  1  0
  2  3  2  0
  3  4  1  0
  4  5  2  0
  5  6  1  0
  6  7  1  0
  7  8  1  0
  8  9  1  0
  9 10  2  0
  9 11  2  0
  9 12  1  0
 12 13  2  0
  6 14  1  0
 14 15  2  0
 14 16  1  0
 16 17  1  0
  5 18  1  0
 18 19  1  0
 19 20  1  0
 20 21  2  0
 21 22  1  0
 22 23  2  0
 23 24  1  0
 24 25  2  0
 18 26  2  0
 26  2  1  0
 13  7  1  0
 25 20  1  0
M  END
