CVD-0004044|dock_bobby27042020.86|mol2|2|dock2
     RDKit          3D

 26 30  0  0  0  0  0  0  0  0999 V2000
    5.2118    0.1123   19.0338 C   0  0  0  0  0  0  0  0  0  0  0  0
    6.4074    0.5758   19.8192 C   0  0  0  0  0  0  0  0  0  0  0  0
    6.5428    1.9642   20.2139 C   0  0  0  0  0  0  0  0  0  0  0  0
    7.5463    2.4539   20.9057 N   0  0  0  0  0  0  0  0  0  0  0  0
    8.5161    1.5808   21.2745 C   0  0  0  0  0  0  0  0  0  0  0  0
    9.7469    1.7224   22.0116 C   0  0  0  0  0  0  0  0  0  0  0  0
   10.2777    0.3947   22.0379 C   0  0  0  0  0  0  0  0  0  0  0  0
    9.5033   -0.4611   21.3679 N   0  0  0  0  0  0  0  0  0  0  0  0
    8.4272    0.2537   20.9169 N   0  0  0  0  0  0  0  0  0  0  0  0
    7.3973   -0.2584   20.2042 C   0  0  0  0  0  0  0  0  0  0  0  0
   11.4869   -0.1763   22.6690 C   0  0  0  0  0  0  0  0  0  0  0  0
   12.0512    0.3581   23.8234 C   0  0  0  0  0  0  0  0  0  0  0  0
   13.2063   -0.1759   24.3668 C   0  0  0  0  0  0  0  0  0  0  0  0
   13.7677   -1.2664   23.7615 C   0  0  0  0  0  0  0  0  0  0  0  0
   14.9038   -1.7942   24.2919 F   0  0  0  0  0  0  0  0  0  0  0  0
   13.2327   -1.8483   22.6457 C   0  0  0  0  0  0  0  0  0  0  0  0
   12.0860   -1.2968   22.1027 C   0  0  0  0  0  0  0  0  0  0  0  0
   10.2555    3.0279   22.5548 C   0  0  0  0  0  0  0  0  0  0  0  0
    9.3563    3.9735   23.0531 C   0  0  0  0  0  0  0  0  0  0  0  0
    9.8029    5.1690   23.5994 C   0  0  0  0  0  0  0  0  0  0  0  0
   11.1545    5.4704   23.6690 C   0  0  0  0  0  0  0  0  0  0  0  0
   12.0663    4.5528   23.1604 C   0  0  0  0  0  0  0  0  0  0  0  0
   13.4227    4.5356   23.0633 N   0  0  0  0  0  0  0  0  0  0  0  0
   13.8719    3.4041   22.4438 N   0  0  0  0  0  0  0  0  0  0  0  0
   12.8026    2.6874   22.1557 C   0  0  0  0  0  0  0  0  0  0  0  0
   11.6293    3.3438   22.5946 C   0  0  0  0  0  0  0  0  0  0  0  0
  1  2  1  0
  2  3  1  0
  3  4  2  0
  4  5  1  0
  5  6  2  0
  6  7  1  0
  7  8  2  0
  8  9  1  0
  9 10  1  0
  7 11  1  0
 11 12  2  0
 12 13  1  0
 13 14  2  0
 14 15  1  0
 14 16  1  0
 16 17  2  0
  6 18  1  0
 18 19  2  0
 19 20  1  0
 20 21  2  0
 21 22  1  0
 22 23  1  0
 23 24  1  0
 24 25  2  0
 25 26  1  0
 10  2  2  0
 17 11  1  0
 26 18  1  0
  9  5  1  0
 26 22  2  0
M  END
