CVD-0001619|dock_bobby27042020.80|mol2|31|dock1
     RDKit          3D

 20 22  0  0  0  0  0  0  0  0999 V2000
   12.8824    5.3252   22.2528 Br  0  0  0  0  0  0  0  0  0  0  0  0
   12.1543    3.6210   22.5150 C   0  0  0  0  0  0  0  0  0  0  0  0
   10.8495    3.2978   22.5854 C   0  0  0  0  0  0  0  0  0  0  0  0
   10.6625    1.9325   22.7884 C   0  0  0  0  0  0  0  0  0  0  0  0
   11.8316    1.2201   22.8738 C   0  0  0  0  0  0  0  0  0  0  0  0
   13.1949    2.2691   22.6943 S   0  0  0  0  0  0  0  0  0  0  0  0
   12.0669   -0.2678   23.0851 C   0  0  0  0  0  0  0  0  0  0  0  0
   13.3941   -0.5956   23.8016 C   0  0  0  0  0  0  0  0  0  0  0  0
   13.8337   -1.1682   22.4527 C   0  0  0  0  0  0  0  0  0  0  0  0
   12.5526   -0.8192   21.8403 O   0  0  0  0  0  0  0  0  0  0  0  0
   10.8671   -0.9264   23.5525 N   0  0  0  0  0  0  0  0  0  0  0  0
   10.6048   -0.6138   24.9670 C   0  0  0  0  0  0  0  0  0  0  0  0
    9.3277   -1.2641   25.4317 C   0  0  0  0  0  0  0  0  0  0  0  0
    9.3780   -2.7140   25.2193 N   0  0  0  0  0  0  0  0  0  0  0  0
    9.7058   -3.0666   23.8392 C   0  0  0  0  0  0  0  0  0  0  0  0
   10.9874   -2.3800   23.4309 C   0  0  0  0  0  0  0  0  0  0  0  0
    9.0239   -3.6688   26.1162 C   0  0  0  0  0  0  0  0  0  0  0  0
    8.6354   -3.3523   27.2397 O   0  0  0  0  0  0  0  0  0  0  0  0
    9.0950   -5.1174   25.7683 C   0  0  0  0  0  0  0  0  0  0  0  0
    9.9521   -5.9018   26.3661 C   0  0  0  0  0  0  0  0  0  0  0  0
  1  2  1  0
  2  3  2  0
  3  4  1  0
  4  5  2  0
  5  6  1  0
  5  7  1  0
  7  8  1  0
  8  9  1  0
  9 10  1  0
  7 11  1  0
 11 12  1  0
 12 13  1  0
 13 14  1  0
 14 15  1  0
 15 16  1  0
 14 17  1  0
 17 18  2  0
 17 19  1  0
 19 20  2  0
  6  2  1  0
 10  7  1  0
 16 11  1  0
M  END
