CVD-0003739|dock_bobby27042020.30|mol2|4|dock1
     RDKit          3D

 21 22  0  0  0  0  0  0  0  0999 V2000
   13.9664    3.8723   22.8533 C   0  0  0  0  0  0  0  0  0  0  0  0
   13.1530    2.6046   22.7569 C   0  0  0  0  0  0  0  0  0  0  0  0
   11.7730    2.6490   22.6470 C   0  0  0  0  0  0  0  0  0  0  0  0
   11.0278    1.4882   22.5600 C   0  0  0  0  0  0  0  0  0  0  0  0
   11.6615    0.2553   22.5784 C   0  0  0  0  0  0  0  0  0  0  0  0
   13.0563    0.1657   22.6960 C   0  0  0  0  0  0  0  0  0  0  0  0
   13.8118   -1.1363   22.7405 C   0  0  0  0  0  0  0  0  0  0  0  0
   13.7668    1.3611   22.7818 C   0  0  0  0  0  0  0  0  0  0  0  0
   10.6341   -1.1840   22.4586 S   0  0  0  0  0  0  0  0  0  0  0  0
    9.7451   -1.1788   23.5801 O   0  0  0  0  0  0  0  0  0  0  0  0
   11.4766   -2.3155   22.2178 O   0  0  0  0  0  0  0  0  0  0  0  0
    9.7147   -0.9895   21.1114 N   0  0  0  0  0  0  0  0  0  0  0  0
    8.4900   -0.3298   21.0962 C   0  0  0  0  0  0  0  0  0  0  0  0
    8.0283    0.1522   22.1264 O   0  0  0  0  0  0  0  0  0  0  0  0
    7.8980   -0.2889   19.8572 N   0  0  0  0  0  0  0  0  0  0  0  0
    6.6701    0.2800   19.4355 C   0  0  0  0  0  0  0  0  0  0  0  0
    5.5142    0.2732   20.2130 C   0  0  0  0  0  0  0  0  0  0  0  0
    4.3494    0.8498   19.7333 C   0  0  0  0  0  0  0  0  0  0  0  0
    4.3192    1.4347   18.4864 C   0  0  0  0  0  0  0  0  0  0  0  0
    5.4569    1.4464   17.7104 C   0  0  0  0  0  0  0  0  0  0  0  0
    6.6270    0.8734   18.1789 C   0  0  0  0  0  0  0  0  0  0  0  0
  1  2  1  0
  2  3  2  0
  3  4  1  0
  4  5  2  0
  5  6  1  0
  6  7  1  0
  6  8  2  0
  5  9  1  0
  9 10  2  0
  9 11  2  0
  9 12  1  0
 12 13  1  0
 13 14  2  0
 13 15  1  0
 15 16  1  0
 16 17  2  0
 17 18  1  0
 18 19  2  0
 19 20  1  0
 20 21  2  0
  8  2  1  0
 21 16  1  0
M  END
