CVD-0002038|dock_bobby27042020.65|mol2|9|dock3
     RDKit          3D

 26 28  0  0  0  0  0  0  0  0999 V2000
    9.6711    1.1453   25.8779 C   0  0  0  0  0  0  0  0  0  0  0  0
   11.0023    1.5721   25.3325 C   0  0  0  0  0  0  0  0  0  0  0  0
   11.9268    0.7731   25.2272 O   0  0  0  0  0  0  0  0  0  0  0  0
   11.0633    2.8870   24.9970 N   0  0  0  0  0  0  0  0  0  0  0  0
   12.1304    3.6594   24.4659 C   0  0  0  0  0  0  0  0  0  0  0  0
   12.4073    4.9645   24.8674 C   0  0  0  0  0  0  0  0  0  0  0  0
   13.3812    5.7120   24.3410 N   0  0  0  0  0  0  0  0  0  0  0  0
   14.1032    5.1836   23.3563 C   0  0  0  0  0  0  0  0  0  0  0  0
   13.9365    3.8968   22.8918 C   0  0  0  0  0  0  0  0  0  0  0  0
   12.9553    3.0945   23.4732 C   0  0  0  0  0  0  0  0  0  0  0  0
   12.8734    1.6869   22.9835 C   0  0  0  0  0  0  0  0  0  0  0  0
   13.8076    0.7448   23.3971 C   0  0  0  0  0  0  0  0  0  0  0  0
   13.7346   -0.5639   22.9530 C   0  0  0  0  0  0  0  0  0  0  0  0
   12.7275   -0.9610   22.0891 C   0  0  0  0  0  0  0  0  0  0  0  0
   11.7752   -0.0393   21.6604 C   0  0  0  0  0  0  0  0  0  0  0  0
   10.7106   -0.3580   20.7791 N   0  0  0  0  0  0  0  0  0  0  0  0
    9.4186    0.1132   20.7197 C   0  0  0  0  0  0  0  0  0  0  0  0
    8.9506    0.9509   21.4836 O   0  0  0  0  0  0  0  0  0  0  0  0
    8.7187   -0.4770   19.6921 N   0  0  0  0  0  0  0  0  0  0  0  0
    7.3789   -0.3014   19.2619 C   0  0  0  0  0  0  0  0  0  0  0  0
    6.8024    0.9564   19.3840 C   0  0  0  0  0  0  0  0  0  0  0  0
    5.4966    1.1569   18.9725 C   0  0  0  0  0  0  0  0  0  0  0  0
    4.8011    0.0923   18.4489 C   0  0  0  0  0  0  0  0  0  0  0  0
    5.3243   -1.1265   18.3181 N   0  0  0  0  0  0  0  0  0  0  0  0
    6.5863   -1.3108   18.7183 C   0  0  0  0  0  0  0  0  0  0  0  0
   11.8629    1.2720   22.1160 C   0  0  0  0  0  0  0  0  0  0  0  0
  1  2  1  0
  2  3  2  0
  2  4  1  0
  4  5  1  0
  5  6  2  0
  6  7  1  0
  7  8  2  0
  8  9  1  0
  9 10  2  0
 10 11  1  0
 11 12  2  0
 12 13  1  0
 13 14  2  0
 14 15  1  0
 15 16  1  0
 16 17  1  0
 17 18  2  0
 17 19  1  0
 19 20  1  0
 20 21  2  0
 21 22  1  0
 22 23  2  0
 23 24  1  0
 24 25  2  0
 15 26  2  0
 10  5  1  0
 26 11  1  0
 25 20  1  0
M  END
