CVD-0002678|dock_bobby27042020.33|mol2|24|dock2
     RDKit          3D

 36 39  0  0  0  0  0  0  0  0999 V2000
    4.6486   -6.3092   24.0444 C   0  0  0  0  0  0  0  0  0  0  0  0
    5.7533   -6.0023   24.9276 O   0  0  0  0  0  0  0  0  0  0  0  0
    6.9199   -5.7568   24.3199 C   0  0  0  0  0  0  0  0  0  0  0  0
    7.0634   -5.7006   23.1227 O   0  0  0  0  0  0  0  0  0  0  0  0
    7.9147   -5.5831   25.2151 N   0  0  0  0  0  0  0  0  0  0  0  0
    7.8427   -5.8229   26.6633 C   0  0  0  0  0  0  0  0  0  0  0  0
    9.2514   -5.5371   27.1498 C   0  0  0  0  0  0  0  0  0  0  0  0
   10.1058   -5.8640   25.9576 C   0  0  0  0  0  0  0  0  0  0  0  0
    9.2889   -5.3237   24.7856 C   0  0  0  0  0  0  0  0  0  0  0  0
    9.5836   -3.8496   24.5189 C   0  0  0  0  0  0  0  0  0  0  0  0
   10.3352   -3.2158   25.2550 O   0  0  0  0  0  0  0  0  0  0  0  0
    8.9791   -3.3243   23.4456 N   0  0  0  0  0  0  0  0  0  0  0  0
    9.1448   -1.9446   23.0042 C   0  0  0  0  0  0  0  0  0  0  0  0
    7.8133   -1.3081   22.5723 C   0  0  0  0  0  0  0  0  0  0  0  0
    7.4696   -1.5712   21.1263 C   0  0  0  0  0  0  0  0  0  0  0  0
    6.5806   -2.5773   20.7809 C   0  0  0  0  0  0  0  0  0  0  0  0
    6.2626   -2.8168   19.4544 C   0  0  0  0  0  0  0  0  0  0  0  0
    6.8296   -2.0521   18.4578 C   0  0  0  0  0  0  0  0  0  0  0  0
    7.7139   -1.0477   18.7875 C   0  0  0  0  0  0  0  0  0  0  0  0
    8.0315   -0.8086   20.1141 C   0  0  0  0  0  0  0  0  0  0  0  0
    9.7971   -1.0840   24.0853 C   0  0  0  0  0  0  0  0  0  0  0  0
    9.2366   -0.8611   25.1446 O   0  0  0  0  0  0  0  0  0  0  0  0
   11.1964   -0.5488   23.7372 C   0  0  0  0  0  0  0  0  0  0  0  0
   11.8878   -1.3254   23.0883 O   0  0  0  0  0  0  0  0  0  0  0  0
   11.6541    0.6660   24.1027 N   0  0  0  0  0  0  0  0  0  0  0  0
   10.9551    1.7157   24.8280 C   0  0  0  0  0  0  0  0  0  0  0  0
   11.0977    3.0733   24.1492 C   0  0  0  0  0  0  0  0  0  0  0  0
   12.5131    3.3764   23.8905 N   0  0  0  0  0  0  0  0  0  0  0  0
   13.1172    2.3104   23.0510 C   0  0  0  0  0  0  0  0  0  0  0  0
   13.0526    1.0071   23.8023 C   0  0  0  0  0  0  0  0  0  0  0  0
   12.9034    4.6930   23.6910 C   0  0  0  0  0  0  0  0  0  0  0  0
   13.3424    5.1314   22.4456 C   0  0  0  0  0  0  0  0  0  0  0  0
   13.7201    6.4502   22.2555 C   0  0  0  0  0  0  0  0  0  0  0  0
   13.6751    7.3462   23.2997 C   0  0  0  0  0  0  0  0  0  0  0  0
   13.2508    6.9234   24.5393 C   0  0  0  0  0  0  0  0  0  0  0  0
   12.8662    5.6080   24.7391 C   0  0  0  0  0  0  0  0  0  0  0  0
  1  2  1  0
  2  3  1  0
  3  4  2  0
  3  5  1  0
  5  6  1  0
  6  7  1  0
  7  8  1  0
  8  9  1  0
  9 10  1  0
 10 11  2  0
 10 12  1  0
 12 13  1  0
 13 14  1  0
 14 15  1  0
 15 16  2  0
 16 17  1  0
 17 18  2  0
 18 19  1  0
 19 20  2  0
 13 21  1  0
 21 22  2  0
 21 23  1  0
 23 24  2  0
 23 25  1  0
 25 26  1  0
 26 27  1  0
 27 28  1  0
 28 29  1  0
 29 30  1  0
 28 31  1  0
 31 32  2  0
 32 33  1  0
 33 34  2  0
 34 35  1  0
 35 36  2  0
  9  5  1  0
 20 15  1  0
 30 25  1  0
 36 31  1  0
M  END
