CVD-0002867|dock_bobby27042020.4|mol2|15|dock1
     RDKit          3D

 33 37  0  0  0  0  0  0  0  0999 V2000
    3.1973    1.8820   20.5260 N   0  0  0  0  0  0  0  0  0  0  0  0
    4.5091    1.6578   20.8306 C   0  0  0  0  0  0  0  0  0  0  0  0
    5.0977    2.2587   21.9644 C   0  0  0  0  0  0  0  0  0  0  0  0
    4.3945    3.0310   22.8367 O   0  0  0  0  0  0  0  0  0  0  0  0
    6.4436    2.0803   22.2415 C   0  0  0  0  0  0  0  0  0  0  0  0
    7.2284    1.2856   21.4363 C   0  0  0  0  0  0  0  0  0  0  0  0
    6.6928    0.6134   20.2958 C   0  0  0  0  0  0  0  0  0  0  0  0
    7.4743   -0.2283   19.4632 C   0  0  0  0  0  0  0  0  0  0  0  0
    6.9297   -0.8502   18.3813 C   0  0  0  0  0  0  0  0  0  0  0  0
    5.5989   -0.6730   18.0724 C   0  0  0  0  0  0  0  0  0  0  0  0
    4.8024    0.1241   18.8399 C   0  0  0  0  0  0  0  0  0  0  0  0
    5.3080    0.8018   19.9838 C   0  0  0  0  0  0  0  0  0  0  0  0
    8.9381    1.1399   21.8996 S   0  0  0  0  0  0  0  0  0  0  0  0
    9.7406    1.4345   20.7535 O   0  0  0  0  0  0  0  0  0  0  0  0
    9.1284    1.8730   23.1126 O   0  0  0  0  0  0  0  0  0  0  0  0
    9.2035   -0.4281   22.2582 N   0  0  0  0  0  0  0  0  0  0  0  0
    8.2696   -1.0701   23.1941 C   0  0  0  0  0  0  0  0  0  0  0  0
    8.3305   -2.5530   23.0038 C   0  0  0  0  0  0  0  0  0  0  0  0
    9.6941   -3.0335   23.1550 N   0  0  0  0  0  0  0  0  0  0  0  0
   10.6670   -2.3536   22.2941 C   0  0  0  0  0  0  0  0  0  0  0  0
   10.5888   -0.8675   22.4822 C   0  0  0  0  0  0  0  0  0  0  0  0
    9.9683   -4.0458   24.0022 C   0  0  0  0  0  0  0  0  0  0  0  0
   11.1301   -4.3866   24.1929 O   0  0  0  0  0  0  0  0  0  0  0  0
    8.9455   -4.8176   24.7513 C   0  0  0  0  0  0  0  0  0  0  0  0
    7.7469   -5.4359   24.4824 C   0  0  0  0  0  0  0  0  0  0  0  0
    7.2777   -6.0114   25.7064 C   0  0  0  0  0  0  0  0  0  0  0  0
    6.1424   -6.7471   26.0710 C   0  0  0  0  0  0  0  0  0  0  0  0
    6.0136   -7.1525   27.3772 C   0  0  0  0  0  0  0  0  0  0  0  0
    4.9078   -7.8661   27.7213 F   0  0  0  0  0  0  0  0  0  0  0  0
    6.9403   -6.8750   28.3475 C   0  0  0  0  0  0  0  0  0  0  0  0
    8.0687   -6.1485   28.0056 C   0  0  0  0  0  0  0  0  0  0  0  0
    8.2324   -5.7206   26.6916 C   0  0  0  0  0  0  0  0  0  0  0  0
    9.2410   -4.9939   26.0881 N   0  0  0  0  0  0  0  0  0  0  0  0
  1  2  1  0
  2  3  2  0
  3  4  1  0
  3  5  1  0
  5  6  2  0
  6  7  1  0
  7  8  2  0
  8  9  1  0
  9 10  2  0
 10 11  1  0
 11 12  2  0
  6 13  1  0
 13 14  2  0
 13 15  2  0
 13 16  1  0
 16 17  1  0
 17 18  1  0
 18 19  1  0
 19 20  1  0
 20 21  1  0
 19 22  1  0
 22 23  2  0
 22 24  1  0
 24 25  2  0
 25 26  1  0
 26 27  2  0
 27 28  1  0
 28 29  1  0
 28 30  2  0
 30 31  1  0
 31 32  2  0
 32 33  1  0
 12  2  1  0
 21 16  1  0
 33 24  1  0
 12  7  1  0
 32 26  1  0
M  END
