CVD-0002175|dock_bobby27042020.7|mol2|8|dock3
     RDKit          3D

 25 27  0  0  0  0  0  0  0  0999 V2000
   14.7961    6.7888   22.4181 O   0  0  0  0  0  0  0  0  0  0  0  0
   13.7053    5.9073   22.1376 C   0  0  0  0  0  0  0  0  0  0  0  0
   14.1282    4.4666   21.8781 C   0  0  0  0  0  0  0  0  0  0  0  0
   12.9471    3.5294   21.7188 C   0  0  0  0  0  0  0  0  0  0  0  0
   12.0547    3.5745   22.8833 N   0  0  0  0  0  0  0  0  0  0  0  0
   10.9510    2.6240   22.7306 C   0  0  0  0  0  0  0  0  0  0  0  0
   11.3049    1.2123   23.1222 C   0  0  0  0  0  0  0  0  0  0  0  0
   12.5632    0.8511   23.6831 C   0  0  0  0  0  0  0  0  0  0  0  0
   12.6735   -0.4767   23.9524 C   0  0  0  0  0  0  0  0  0  0  0  0
   11.2616   -1.3416   23.5382 S   0  0  0  0  0  0  0  0  0  0  0  0
   10.5075    0.0990   22.9932 C   0  0  0  0  0  0  0  0  0  0  0  0
    8.8676    0.0276   22.3406 S   0  0  0  0  0  0  0  0  0  0  0  0
    7.9585   -0.1056   23.4364 O   0  0  0  0  0  0  0  0  0  0  0  0
    8.7056    1.1144   21.4253 O   0  0  0  0  0  0  0  0  0  0  0  0
    8.7503   -1.3241   21.4771 N   0  0  0  0  0  0  0  0  0  0  0  0
    7.5730   -2.1819   21.6585 C   0  0  0  0  0  0  0  0  0  0  0  0
    7.9311   -3.4203   22.4601 C   0  0  0  0  0  0  0  0  0  0  0  0
    6.7824   -4.3928   22.5769 C   0  0  0  0  0  0  0  0  0  0  0  0
    6.5219   -5.3078   21.5685 C   0  0  0  0  0  0  0  0  0  0  0  0
    5.4663   -6.1981   21.6735 C   0  0  0  0  0  0  0  0  0  0  0  0
    4.6571   -6.1836   22.7890 C   0  0  0  0  0  0  0  0  0  0  0  0
    4.9036   -5.2785   23.7987 C   0  0  0  0  0  0  0  0  0  0  0  0
    5.9595   -4.3886   23.6926 C   0  0  0  0  0  0  0  0  0  0  0  0
   11.5567    4.9414   23.0587 C   0  0  0  0  0  0  0  0  0  0  0  0
   12.7014    5.9148   23.2852 C   0  0  0  0  0  0  0  0  0  0  0  0
  1  2  1  0
  2  3  1  0
  3  4  1  0
  4  5  1  0
  5  6  1  0
  6  7  1  0
  7  8  1  0
  8  9  2  0
  9 10  1  0
 10 11  1  0
 11 12  1  0
 12 13  2  0
 12 14  2  0
 12 15  1  0
 15 16  1  0
 16 17  1  0
 17 18  1  0
 18 19  2  0
 19 20  1  0
 20 21  2  0
 21 22  1  0
 22 23  2  0
  5 24  1  0
 24 25  1  0
 25  2  1  0
 11  7  2  0
 23 18  1  0
M  END
