CVD-0003086|dock_bobby27042020.17|mol2|31|dock3
     RDKit          3D

 19 20  0  0  0  0  0  0  0  0999 V2000
   13.8911   -1.1940   24.0999 C   0  0  0  0  0  0  0  0  0  0  0  0
   13.5480   -1.0459   22.6399 C   0  0  0  0  0  0  0  0  0  0  0  0
   12.3098   -0.2567   22.4363 N   0  0  0  0  0  0  0  0  0  0  0  0
   11.0892   -0.7651   22.1028 C   0  0  0  0  0  0  0  0  0  0  0  0
   10.1627    0.2242   22.0228 C   0  0  0  0  0  0  0  0  0  0  0  0
    8.7084    0.0876   21.6788 C   0  0  0  0  0  0  0  0  0  0  0  0
    8.3737   -1.2452   21.0393 C   0  0  0  0  0  0  0  0  0  0  0  0
    7.0566   -1.2344   20.4190 N   0  0  0  0  0  0  0  0  0  0  0  0
    6.8568   -0.8350   19.1615 C   0  0  0  0  0  0  0  0  0  0  0  0
    5.4372   -0.8659   18.6763 C   0  0  0  0  0  0  0  0  0  0  0  0
    7.7783   -0.4503   18.4485 O   0  0  0  0  0  0  0  0  0  0  0  0
   10.8467    1.4457   22.3373 C   0  0  0  0  0  0  0  0  0  0  0  0
   10.4511    2.7793   22.4214 C   0  0  0  0  0  0  0  0  0  0  0  0
   11.3797    3.7585   22.7688 C   0  0  0  0  0  0  0  0  0  0  0  0
   12.7015    3.4092   23.0325 C   0  0  0  0  0  0  0  0  0  0  0  0
   13.1129    2.0899   22.9506 C   0  0  0  0  0  0  0  0  0  0  0  0
   12.1861    1.1137   22.6004 C   0  0  0  0  0  0  0  0  0  0  0  0
   10.9647    5.1369   22.8543 C   0  0  0  0  0  0  0  0  0  0  0  0
   10.6080    6.2190   22.9372 N   0  0  0  0  0  0  0  0  0  0  0  0
  1  2  1  0
  2  3  1  0
  3  4  1  0
  4  5  2  0
  5  6  1  0
  6  7  1  0
  7  8  1  0
  8  9  1  0
  9 10  1  0
  9 11  2  0
  5 12  1  0
 12 13  2  0
 13 14  1  0
 14 15  2  0
 15 16  1  0
 16 17  2  0
 14 18  1  0
 18 19  3  0
 17  3  1  0
 17 12  1  0
M  END
