CVD-0001502|dock_bobby27042020.9|mol2|29|dock2
     RDKit          3D

 25 27  0  0  0  0  0  0  0  0999 V2000
    9.5174   -3.4670   25.9176 O   0  0  0  0  0  0  0  0  0  0  0  0
   10.3576   -3.9671   25.0441 C   0  0  0  0  0  0  0  0  0  0  0  0
   11.2295   -4.7555   25.3369 O   0  0  0  0  0  0  0  0  0  0  0  0
   10.1278   -3.4632   23.6484 C   0  0  0  0  0  0  0  0  0  0  0  0
    9.6903   -2.0096   23.5879 C   0  0  0  0  0  0  0  0  0  0  0  0
   10.6840   -0.9959   24.1185 C   0  0  0  0  0  0  0  0  0  0  0  0
   10.6040   -0.5430   25.3371 C   0  0  0  0  0  0  0  0  0  0  0  0
   11.6070    0.3498   25.8651 C   0  0  0  0  0  0  0  0  0  0  0  0
   12.7198    0.6223   25.3196 N   0  0  0  0  0  0  0  0  0  0  0  0
   12.8950    0.2303   23.9358 C   0  0  0  0  0  0  0  0  0  0  0  0
   13.0402    1.4459   23.0768 N   0  0  0  0  0  0  0  0  0  0  0  0
   12.0899    1.4403   22.0267 C   0  0  0  0  0  0  0  0  0  0  0  0
   11.3975    0.3052   22.0619 C   0  0  0  0  0  0  0  0  0  0  0  0
   10.5533   -0.1294   21.0136 N   0  0  0  0  0  0  0  0  0  0  0  0
    9.2226    0.2222   20.7626 C   0  0  0  0  0  0  0  0  0  0  0  0
    8.6041    1.0029   21.4790 O   0  0  0  0  0  0  0  0  0  0  0  0
    8.7155   -0.4142   19.6556 N   0  0  0  0  0  0  0  0  0  0  0  0
    7.4296   -0.3608   19.0612 C   0  0  0  0  0  0  0  0  0  0  0  0
    6.7820   -1.4757   18.5339 C   0  0  0  0  0  0  0  0  0  0  0  0
    5.5244   -1.3469   17.9673 C   0  0  0  0  0  0  0  0  0  0  0  0
    4.8950   -0.1154   17.9166 C   0  0  0  0  0  0  0  0  0  0  0  0
    5.5342    0.9958   18.4395 C   0  0  0  0  0  0  0  0  0  0  0  0
    4.9242    2.2156   18.3959 O   0  0  0  0  0  0  0  0  0  0  0  0
    6.7933    0.8751   19.0084 C   0  0  0  0  0  0  0  0  0  0  0  0
   11.8037   -0.5981   23.2066 C   0  0  0  0  0  0  0  0  0  0  0  0
  1  2  1  0
  2  3  2  0
  2  4  1  0
  4  5  1  0
  5  6  1  0
  6  7  2  0
  7  8  1  0
  8  9  2  0
  9 10  1  0
 10 11  1  0
 11 12  1  0
 12 13  2  0
 13 14  1  0
 14 15  1  0
 15 16  2  0
 15 17  1  0
 17 18  1  0
 18 19  2  0
 19 20  1  0
 20 21  2  0
 21 22  1  0
 22 23  1  0
 22 24  2  0
 13 25  1  0
 25  6  1  0
 25 10  1  0
 24 18  1  0
M  END
