CVD-0000800|dock_bobby27042020.11|mol2|42|dock1
     RDKit          3D

 22 24  0  0  0  0  0  0  0  0999 V2000
   14.1168    5.8547   21.8907 C   0  0  0  0  0  0  0  0  0  0  0  0
   12.9825    5.1607   22.4895 N   0  0  0  0  0  0  0  0  0  0  0  0
   12.7180    5.7101   23.8145 C   0  0  0  0  0  0  0  0  0  0  0  0
   13.2530    3.7214   22.5714 C   0  0  0  0  0  0  0  0  0  0  0  0
   12.0065    2.8774   22.5142 C   0  0  0  0  0  0  0  0  0  0  0  0
   10.7184    3.3114   22.4789 C   0  0  0  0  0  0  0  0  0  0  0  0
    9.8598    2.2484   22.4346 N   0  0  0  0  0  0  0  0  0  0  0  0
   10.5809    1.0712   22.4525 C   0  0  0  0  0  0  0  0  0  0  0  0
   10.2077   -0.2922   22.4419 C   0  0  0  0  0  0  0  0  0  0  0  0
   11.2296   -1.2447   22.4144 C   0  0  0  0  0  0  0  0  0  0  0  0
   12.5684   -0.8789   22.4283 C   0  0  0  0  0  0  0  0  0  0  0  0
   13.6157   -1.9175   22.4039 C   0  0  0  0  0  0  0  0  0  0  0  0
   14.8037   -1.6499   23.0546 F   0  0  0  0  0  0  0  0  0  0  0  0
   12.9227    0.4584   22.4720 C   0  0  0  0  0  0  0  0  0  0  0  0
   11.9436    1.4456   22.4814 C   0  0  0  0  0  0  0  0  0  0  0  0
    8.8492   -0.7127   22.4613 N   0  0  0  0  0  0  0  0  0  0  0  0
    8.3216   -1.6863   21.5035 C   0  0  0  0  0  0  0  0  0  0  0  0
    8.0705   -3.0001   22.0530 C   0  0  0  0  0  0  0  0  0  0  0  0
    8.3155   -3.3634   23.4437 C   0  0  0  0  0  0  0  0  0  0  0  0
    7.6764   -2.6256   24.5307 C   0  0  0  0  0  0  0  0  0  0  0  0
    8.0914   -1.2242   24.7462 C   0  0  0  0  0  0  0  0  0  0  0  0
    7.9692   -0.3455   23.5661 C   0  0  0  0  0  0  0  0  0  0  0  0
  1  2  1  0
  2  3  1  0
  2  4  1  0
  4  5  1  0
  5  6  2  0
  6  7  1  0
  7  8  1  0
  8  9  2  0
  9 10  1  0
 10 11  2  0
 11 12  1  0
 12 13  1  0
 11 14  1  0
 14 15  2  0
  9 16  1  0
 16 17  1  0
 17 18  1  0
 18 19  1  0
 19 20  1  0
 20 21  1  0
 21 22  1  0
 15  5  1  0
 22 16  1  0
 15  8  1  0
M  END
