CVD-0000838|dock_bobby27042020.26|mol2|7|dock2
     RDKit          3D

 22 24  0  0  0  0  0  0  0  0999 V2000
    7.1559   -1.4019   18.4586 Cl  0  0  0  0  0  0  0  0  0  0  0  0
    5.9448   -0.1136   18.4880 C   0  0  0  0  0  0  0  0  0  0  0  0
    5.4855    0.1781   19.9039 C   0  0  0  0  0  0  0  0  0  0  0  0
    4.3317   -0.0630   20.2366 O   0  0  0  0  0  0  0  0  0  0  0  0
    6.3780    0.6994   20.7784 N   0  0  0  0  0  0  0  0  0  0  0  0
    6.0408    1.0033   22.1708 C   0  0  0  0  0  0  0  0  0  0  0  0
    7.0155    0.3217   23.1132 C   0  0  0  0  0  0  0  0  0  0  0  0
    8.3871    0.7477   22.8197 N   0  0  0  0  0  0  0  0  0  0  0  0
    9.3316    0.1209   23.7557 C   0  0  0  0  0  0  0  0  0  0  0  0
   10.7913    0.3613   23.4300 C   0  0  0  0  0  0  0  0  0  0  0  0
   11.6852   -0.6871   23.4217 C   0  0  0  0  0  0  0  0  0  0  0  0
   13.0155   -0.4823   23.1177 C   0  0  0  0  0  0  0  0  0  0  0  0
   14.0971   -1.8471   23.1255 Cl  0  0  0  0  0  0  0  0  0  0  0  0
   13.5052    0.7507   22.8128 C   0  0  0  0  0  0  0  0  0  0  0  0
   12.6332    1.8630   22.8066 C   0  0  0  0  0  0  0  0  0  0  0  0
   13.0947    3.1641   22.4945 C   0  0  0  0  0  0  0  0  0  0  0  0
   12.2390    4.2246   22.4944 C   0  0  0  0  0  0  0  0  0  0  0  0
   10.9063    4.0514   22.8009 C   0  0  0  0  0  0  0  0  0  0  0  0
   10.4158    2.8175   23.1098 C   0  0  0  0  0  0  0  0  0  0  0  0
   11.2557    1.6721   23.1219 C   0  0  0  0  0  0  0  0  0  0  0  0
    8.7145    0.3852   21.4432 C   0  0  0  0  0  0  0  0  0  0  0  0
    7.7653    1.0593   20.4693 C   0  0  0  0  0  0  0  0  0  0  0  0
  1  2  1  0
  2  3  1  0
  3  4  2  0
  3  5  1  0
  5  6  1  0
  6  7  1  0
  7  8  1  0
  8  9  1  0
  9 10  1  0
 10 11  2  0
 11 12  1  0
 12 13  1  0
 12 14  2  0
 14 15  1  0
 15 16  2  0
 16 17  1  0
 17 18  2  0
 18 19  1  0
 19 20  2  0
  8 21  1  0
 21 22  1  0
 22  5  1  0
 20 10  1  0
 20 15  1  0
M  END
