CVD-0002766|dock_bobby27042020.90|mol2|16|dock1
     RDKit          3D

 33 36  0  0  0  0  0  0  0  0999 V2000
    5.8014   -1.2088   17.3476 N   0  0  0  0  0  0  0  0  0  0  0  0
    5.5343   -0.5149   18.6149 C   0  0  0  0  0  0  0  0  0  0  0  0
    5.4694    0.9980   18.4515 C   0  0  0  0  0  0  0  0  0  0  0  0
    5.1436    1.6962   19.7651 C   0  0  0  0  0  0  0  0  0  0  0  0
    6.1166    1.2948   20.8633 C   0  0  0  0  0  0  0  0  0  0  0  0
    6.1803   -0.2170   21.0442 C   0  0  0  0  0  0  0  0  0  0  0  0
    6.5279   -0.9142   19.7144 C   0  0  0  0  0  0  0  0  0  0  0  0
    7.8424   -0.5442   19.3070 O   0  0  0  0  0  0  0  0  0  0  0  0
    7.1171   -0.6233   22.1646 C   0  0  0  0  0  0  0  0  0  0  0  0
    6.7113   -1.2399   23.1460 O   0  0  0  0  0  0  0  0  0  0  0  0
    8.3935   -0.2703   22.0134 N   0  0  0  0  0  0  0  0  0  0  0  0
    9.4196   -0.5850   22.9993 C   0  0  0  0  0  0  0  0  0  0  0  0
   10.8132   -0.2295   22.5095 C   0  0  0  0  0  0  0  0  0  0  0  0
   12.0529   -0.9175   23.0155 C   0  0  0  0  0  0  0  0  0  0  0  0
   11.6224    0.3828   23.6166 C   0  0  0  0  0  0  0  0  0  0  0  0
   12.4219    1.6296   23.3000 C   0  0  0  0  0  0  0  0  0  0  0  0
   13.6369    1.5808   23.3225 O   0  0  0  0  0  0  0  0  0  0  0  0
   11.7560    2.8499   22.9879 N   0  0  0  0  0  0  0  0  0  0  0  0
   10.3304    3.0531   22.9256 C   0  0  0  0  0  0  0  0  0  0  0  0
    9.6008    2.1316   23.2681 O   0  0  0  0  0  0  0  0  0  0  0  0
    9.8550    4.2619   22.4803 N   0  0  0  0  0  0  0  0  0  0  0  0
    8.5259    4.7299   22.3112 C   0  0  0  0  0  0  0  0  0  0  0  0
    7.3889    4.0322   22.7166 C   0  0  0  0  0  0  0  0  0  0  0  0
    6.1292    4.5698   22.5088 C   0  0  0  0  0  0  0  0  0  0  0  0
    5.9817    5.7970   21.9012 C   0  0  0  0  0  0  0  0  0  0  0  0
    7.0975    6.4951   21.4970 C   0  0  0  0  0  0  0  0  0  0  0  0
    8.3615    5.9677   21.6992 C   0  0  0  0  0  0  0  0  0  0  0  0
   12.5450    4.0294   22.7014 C   0  0  0  0  0  0  0  0  0  0  0  0
   12.6239    5.0766   23.6096 C   0  0  0  0  0  0  0  0  0  0  0  0
   13.3896    6.1864   23.2986 C   0  0  0  0  0  0  0  0  0  0  0  0
   14.0506    6.2125   22.0921 C   0  0  0  0  0  0  0  0  0  0  0  0
   13.9911    5.2198   21.2038 N   0  0  0  0  0  0  0  0  0  0  0  0
   13.2488    4.1521   21.5133 C   0  0  0  0  0  0  0  0  0  0  0  0
  2  1  1  0
  2  3  1  0
  3  4  1  0
  4  5  1  0
  5  6  1  0
  6  7  1  0
  7  8  1  0
  6  9  1  0
  9 10  2  0
  9 11  1  0
 11 12  1  0
 13 12  1  0
 13 14  1  0
 14 15  1  0
 15 16  1  0
 16 17  2  0
 16 18  1  0
 18 19  1  0
 19 20  2  0
 19 21  1  0
 21 22  1  0
 22 23  2  0
 23 24  1  0
 24 25  2  0
 25 26  1  0
 26 27  2  0
 18 28  1  0
 28 29  2  0
 29 30  1  0
 30 31  2  0
 31 32  1  0
 32 33  2  0
  7  2  1  0
 15 13  1  0
 27 22  1  0
 33 28  1  0
M  END
