CVD-0000524|dock_bobby27042020.55|mol2|38|dock2
     RDKit          3D

 24 25  0  0  0  0  0  0  0  0999 V2000
    3.5306    2.3908   21.0792 C   0  0  0  0  0  0  0  0  0  0  0  0
    4.9131    2.1086   21.2873 O   0  0  0  0  0  0  0  0  0  0  0  0
    5.6060    1.3322   20.3919 C   0  0  0  0  0  0  0  0  0  0  0  0
    5.2620    1.2868   19.0493 C   0  0  0  0  0  0  0  0  0  0  0  0
    5.9953    0.4865   18.1904 C   0  0  0  0  0  0  0  0  0  0  0  0
    7.0615   -0.2643   18.6549 C   0  0  0  0  0  0  0  0  0  0  0  0
    7.4092   -0.2207   20.0018 C   0  0  0  0  0  0  0  0  0  0  0  0
    8.4873   -0.9610   20.5481 N   0  0  0  0  0  0  0  0  0  0  0  0
    8.7196   -1.4164   21.8035 C   0  0  0  0  0  0  0  0  0  0  0  0
    7.9812   -1.2579   22.7698 O   0  0  0  0  0  0  0  0  0  0  0  0
   10.0199   -2.1840   21.9365 C   0  0  0  0  0  0  0  0  0  0  0  0
   11.2142   -1.2703   22.0938 C   0  0  0  0  0  0  0  0  0  0  0  0
   12.4714   -1.6642   21.6640 C   0  0  0  0  0  0  0  0  0  0  0  0
   13.5603   -0.8227   21.8142 C   0  0  0  0  0  0  0  0  0  0  0  0
   13.3986    0.4221   22.3986 C   0  0  0  0  0  0  0  0  0  0  0  0
   12.1517    0.8371   22.8387 C   0  0  0  0  0  0  0  0  0  0  0  0
   11.9643    2.1934   23.4743 C   0  0  0  0  0  0  0  0  0  0  0  0
   11.3421    3.2045   22.5281 C   0  0  0  0  0  0  0  0  0  0  0  0
   12.3511    4.0063   21.8507 N   0  0  0  0  0  0  0  0  0  0  0  0
   13.0965    4.9120   22.4868 C   0  0  0  0  0  0  0  0  0  0  0  0
   14.1053    5.6425   21.6500 C   0  0  0  0  0  0  0  0  0  0  0  0
   12.9745    5.1242   23.6892 O   0  0  0  0  0  0  0  0  0  0  0  0
   11.0694   -0.0190   22.6791 C   0  0  0  0  0  0  0  0  0  0  0  0
    6.6721    0.5837   20.8647 C   0  0  0  0  0  0  0  0  0  0  0  0
  1  2  1  0
  2  3  1  0
  3  4  2  0
  4  5  1  0
  5  6  2  0
  6  7  1  0
  7  8  1  0
  8  9  1  0
  9 10  2  0
  9 11  1  0
 11 12  1  0
 12 13  2  0
 13 14  1  0
 14 15  2  0
 15 16  1  0
 16 17  1  0
 17 18  1  0
 18 19  1  0
 19 20  1  0
 20 21  1  0
 20 22  2  0
 16 23  2  0
  7 24  2  0
 24  3  1  0
 23 12  1  0
M  END
