CVD-0001022|dock_bobby27042020.39|mol2|32|dock2
     RDKit          3D

 26 28  0  0  0  0  0  0  0  0999 V2000
    4.8743    0.3851   17.2383 F   0  0  0  0  0  0  0  0  0  0  0  0
    5.0633    1.6723   17.5058 C   0  0  0  0  0  0  0  0  0  0  0  0
    4.7793    2.3162   16.3793 F   0  0  0  0  0  0  0  0  0  0  0  0
    6.3708    1.8195   17.6871 F   0  0  0  0  0  0  0  0  0  0  0  0
    4.2611    2.1377   18.6907 C   0  0  0  0  0  0  0  0  0  0  0  0
    3.2031    3.0060   18.4525 C   0  0  0  0  0  0  0  0  0  0  0  0
    2.4147    3.4500   19.4966 C   0  0  0  0  0  0  0  0  0  0  0  0
    2.6835    3.0418   20.7814 C   0  0  0  0  0  0  0  0  0  0  0  0
    3.7438    2.1922   21.0450 C   0  0  0  0  0  0  0  0  0  0  0  0
    4.5476    1.7183   20.0034 C   0  0  0  0  0  0  0  0  0  0  0  0
    5.6435    0.8350   20.2258 N   0  0  0  0  0  0  0  0  0  0  0  0
    5.7782   -0.1864   21.1384 C   0  0  0  0  0  0  0  0  0  0  0  0
    4.8836   -0.5238   21.9032 O   0  0  0  0  0  0  0  0  0  0  0  0
    6.9657   -0.8655   21.1936 N   0  0  0  0  0  0  0  0  0  0  0  0
    8.2508   -0.3837   20.6774 C   0  0  0  0  0  0  0  0  0  0  0  0
    9.3190   -0.4491   21.7502 C   0  0  0  0  0  0  0  0  0  0  0  0
    9.4236   -1.8358   22.3815 C   0  0  0  0  0  0  0  0  0  0  0  0
   10.4262   -1.8862   23.5409 C   0  0  0  0  0  0  0  0  0  0  0  0
   11.7080   -1.1287   23.2926 C   0  0  0  0  0  0  0  0  0  0  0  0
   11.9382    0.0943   23.9037 C   0  0  0  0  0  0  0  0  0  0  0  0
   13.1128    0.7909   23.6737 C   0  0  0  0  0  0  0  0  0  0  0  0
   14.0709    0.2729   22.8291 C   0  0  0  0  0  0  0  0  0  0  0  0
   13.8541   -0.9414   22.2141 C   0  0  0  0  0  0  0  0  0  0  0  0
   12.6793   -1.6377   22.4444 C   0  0  0  0  0  0  0  0  0  0  0  0
    8.0425   -2.3147   22.8100 C   0  0  0  0  0  0  0  0  0  0  0  0
    7.0281   -2.2352   21.6907 C   0  0  0  0  0  0  0  0  0  0  0  0
  1  2  1  0
  2  3  1  0
  2  4  1  0
  2  5  1  0
  5  6  2  0
  6  7  1  0
  7  8  2  0
  8  9  1  0
  9 10  2  0
 10 11  1  0
 11 12  1  0
 12 13  2  0
 12 14  1  0
 14 15  1  0
 15 16  1  0
 16 17  1  0
 17 18  1  0
 18 19  1  0
 19 20  2  0
 20 21  1  0
 21 22  2  0
 22 23  1  0
 23 24  2  0
 17 25  1  0
 25 26  1  0
 10  5  1  0
 26 14  1  0
 24 19  1  0
M  END
