CVD-0002501|dock_bobby27042020.91|mol2|15|dock2
     RDKit          3D

 31 34  0  0  0  0  0  0  0  0999 V2000
    5.7294    9.2947   20.7618 C   0  0  0  0  0  0  0  0  0  0  0  0
    5.3275    8.0742   21.5289 C   0  0  0  0  0  0  0  0  0  0  0  0
    5.7837    6.8598   20.8735 N   0  0  0  0  0  0  0  0  0  0  0  0
    6.7375    6.0336   21.3847 C   0  0  0  0  0  0  0  0  0  0  0  0
    7.9000    6.5398   21.9645 C   0  0  0  0  0  0  0  0  0  0  0  0
    8.8293    5.6454   22.4632 C   0  0  0  0  0  0  0  0  0  0  0  0
    8.5798    4.2871   22.3631 C   0  0  0  0  0  0  0  0  0  0  0  0
    9.4892    3.3213   22.8477 O   0  0  0  0  0  0  0  0  0  0  0  0
   10.8414    3.3135   22.7098 C   0  0  0  0  0  0  0  0  0  0  0  0
   11.4788    4.3635   22.2951 N   0  0  0  0  0  0  0  0  0  0  0  0
   12.8582    4.3321   22.1584 N   0  0  0  0  0  0  0  0  0  0  0  0
   13.5311    3.2478   22.4424 C   0  0  0  0  0  0  0  0  0  0  0  0
   12.9455    2.0438   22.8999 C   0  0  0  0  0  0  0  0  0  0  0  0
   13.3164    0.7677   23.2760 C   0  0  0  0  0  0  0  0  0  0  0  0
   12.1998    0.0632   23.6332 N   0  0  0  0  0  0  0  0  0  0  0  0
   12.2173   -1.3324   24.0691 C   0  0  0  0  0  0  0  0  0  0  0  0
   11.0858    0.8588   23.4844 C   0  0  0  0  0  0  0  0  0  0  0  0
    9.7171    0.3441   23.7915 C   0  0  0  0  0  0  0  0  0  0  0  0
    9.2365   -0.6505   22.8306 N   0  0  0  0  0  0  0  0  0  0  0  0
    7.9164   -1.1499   23.2267 C   0  0  0  0  0  0  0  0  0  0  0  0
    7.4412   -2.2098   22.2503 C   0  0  0  0  0  0  0  0  0  0  0  0
    7.3898   -1.6671   20.8911 N   0  0  0  0  0  0  0  0  0  0  0  0
    8.6819   -1.1043   20.4865 C   0  0  0  0  0  0  0  0  0  0  0  0
    9.1443   -0.0679   21.4944 C   0  0  0  0  0  0  0  0  0  0  0  0
    6.2780   -1.7215   20.1203 C   0  0  0  0  0  0  0  0  0  0  0  0
    5.2455   -2.2413   20.5248 O   0  0  0  0  0  0  0  0  0  0  0  0
    6.3294   -1.1136   18.7315 C   0  0  0  0  0  0  0  0  0  0  0  0
    6.5068    0.6441   18.8119 Cl  0  0  0  0  0  0  0  0  0  0  0  0
   11.5124    2.0966   23.0361 C   0  0  0  0  0  0  0  0  0  0  0  0
    7.4026    3.8709   21.7805 C   0  0  0  0  0  0  0  0  0  0  0  0
    6.4915    4.7228   21.2966 N   0  0  0  0  0  0  0  0  0  0  0  0
  1  2  1  0
  2  3  1  0
  3  4  1  0
  4  5  2  0
  5  6  1  0
  6  7  2  0
  7  8  1  0
  8  9  1  0
  9 10  2  0
 10 11  1  0
 11 12  2  0
 12 13  1  0
 13 14  2  0
 14 15  1  0
 15 16  1  0
 15 17  1  0
 17 18  1  0
 18 19  1  0
 19 20  1  0
 20 21  1  0
 21 22  1  0
 22 23  1  0
 23 24  1  0
 22 25  1  0
 25 26  2  0
 25 27  1  0
 27 28  1  0
 17 29  2  0
  7 30  1  0
 30 31  2  0
 31  4  1  0
 29  9  1  0
 29 13  1  0
 24 19  1  0
M  END
