CVD-0002019|dock_bobby27042020.79|mol2|10|dock3
     RDKit          3D

 34 38  0  0  0  0  0  0  0  0999 V2000
    2.5115    1.4084   20.7794 C   0  0  0  0  0  0  0  0  0  0  0  0
    3.4855    1.5075   19.6422 C   0  0  0  0  0  0  0  0  0  0  0  0
    3.4018    2.3869   18.7906 O   0  0  0  0  0  0  0  0  0  0  0  0
    4.4579    0.5939   19.6203 N   0  0  0  0  0  0  0  0  0  0  0  0
    5.4883    0.5683   18.5921 C   0  0  0  0  0  0  0  0  0  0  0  0
    6.7406   -0.1426   19.0668 C   0  0  0  0  0  0  0  0  0  0  0  0
    6.5089   -1.5700   19.4732 C   0  0  0  0  0  0  0  0  0  0  0  0
    5.8078   -2.4566   18.7118 C   0  0  0  0  0  0  0  0  0  0  0  0
    5.7304   -3.6684   19.3300 N   0  0  0  0  0  0  0  0  0  0  0  0
    6.3757   -3.5866   20.5362 C   0  0  0  0  0  0  0  0  0  0  0  0
    6.5082   -4.5558   21.5208 C   0  0  0  0  0  0  0  0  0  0  0  0
    7.2082   -4.2479   22.6658 C   0  0  0  0  0  0  0  0  0  0  0  0
    7.7800   -3.0057   22.7791 C   0  0  0  0  0  0  0  0  0  0  0  0
    8.4882   -2.7800   23.9096 F   0  0  0  0  0  0  0  0  0  0  0  0
    7.6867   -1.9966   21.8155 C   0  0  0  0  0  0  0  0  0  0  0  0
    8.3390   -0.7671   22.0222 N   0  0  0  0  0  0  0  0  0  0  0  0
    7.6042    0.3460   22.6411 C   0  0  0  0  0  0  0  0  0  0  0  0
    8.2741    1.6767   22.3179 C   0  0  0  0  0  0  0  0  0  0  0  0
    9.6936    1.6655   22.6359 N   0  0  0  0  0  0  0  0  0  0  0  0
   10.4042    0.5159   22.0564 C   0  0  0  0  0  0  0  0  0  0  0  0
    9.7490   -0.7688   22.4891 C   0  0  0  0  0  0  0  0  0  0  0  0
   10.4076    2.5808   23.3314 C   0  0  0  0  0  0  0  0  0  0  0  0
   11.6085    2.4400   23.5259 O   0  0  0  0  0  0  0  0  0  0  0  0
    9.6991    3.8020   23.8917 C   0  0  0  0  0  0  0  0  0  0  0  0
   10.6292    4.9172   24.2650 C   0  0  0  0  0  0  0  0  0  0  0  0
   10.5473    5.7282   25.3587 C   0  0  0  0  0  0  0  0  0  0  0  0
   11.5752    6.6333   25.3651 N   0  0  0  0  0  0  0  0  0  0  0  0
   12.3486    6.4201   24.2620 C   0  0  0  0  0  0  0  0  0  0  0  0
   13.4531    7.0936   23.8984 N   0  0  0  0  0  0  0  0  0  0  0  0
   14.0438    6.6947   22.7635 C   0  0  0  0  0  0  0  0  0  0  0  0
   13.5822    5.6586   21.9802 C   0  0  0  0  0  0  0  0  0  0  0  0
   12.4415    4.9745   22.3699 C   0  0  0  0  0  0  0  0  0  0  0  0
   11.7897    5.3504   23.5426 C   0  0  0  0  0  0  0  0  0  0  0  0
    6.9219   -2.2857   20.6509 C   0  0  0  0  0  0  0  0  0  0  0  0
  1  2  1  0
  2  3  2  0
  2  4  1  0
  4  5  1  0
  5  6  1  0
  6  7  1  0
  7  8  2  0
  8  9  1  0
  9 10  1  0
 10 11  2  0
 11 12  1  0
 12 13  2  0
 13 14  1  0
 13 15  1  0
 15 16  1  0
 16 17  1  0
 17 18  1  0
 18 19  1  0
 19 20  1  0
 20 21  1  0
 19 22  1  0
 22 23  2  0
 22 24  1  0
 24 25  1  0
 25 26  2  0
 26 27  1  0
 27 28  1  0
 28 29  2  0
 29 30  1  0
 30 31  2  0
 31 32  1  0
 32 33  2  0
 15 34  2  0
 34  7  1  0
 34 10  1  0
 21 16  1  0
 33 25  1  0
 33 28  1  0
M  END
