CVD-0003872|dock_bobby27042020.0|mol2|32|dock3
     RDKit          3D

 24 26  0  0  0  0  0  0  0  0999 V2000
   13.1159    5.5761   21.6946 N   0  0  0  0  0  0  0  0  0  0  0  0
   13.4462    4.7243   23.0092 S   0  0  0  0  0  0  0  0  0  0  0  0
   12.8613    5.4148   24.1193 O   0  0  0  0  0  0  0  0  0  0  0  0
   14.8573    4.4800   23.0122 O   0  0  0  0  0  0  0  0  0  0  0  0
   12.6397    3.1573   22.8783 C   0  0  0  0  0  0  0  0  0  0  0  0
   11.2589    3.0864   22.9151 C   0  0  0  0  0  0  0  0  0  0  0  0
   10.6330    1.8578   22.8004 C   0  0  0  0  0  0  0  0  0  0  0  0
   11.3644    0.6816   22.6608 C   0  0  0  0  0  0  0  0  0  0  0  0
   12.7524    0.7812   22.6312 C   0  0  0  0  0  0  0  0  0  0  0  0
   13.3901    2.0049   22.7308 C   0  0  0  0  0  0  0  0  0  0  0  0
   10.7324   -0.5531   22.5544 N   0  0  0  0  0  0  0  0  0  0  0  0
    9.6438   -0.8106   21.6068 C   0  0  0  0  0  0  0  0  0  0  0  0
    8.5024   -1.5503   22.2452 C   0  0  0  0  0  0  0  0  0  0  0  0
    8.9814   -2.8629   22.8752 C   0  0  0  0  0  0  0  0  0  0  0  0
    7.8298   -3.6294   23.5271 C   0  0  0  0  0  0  0  0  0  0  0  0
    8.2321   -5.3878   23.6750 S   0  0  0  0  0  0  0  0  0  0  0  0
    8.2997   -5.6791   25.3995 C   0  0  0  0  0  0  0  0  0  0  0  0
    9.3805   -5.6676   26.2229 C   0  0  0  0  0  0  0  0  0  0  0  0
    9.0623   -5.9454   27.5524 C   0  0  0  0  0  0  0  0  0  0  0  0
    7.7426   -6.1659   27.7304 C   0  0  0  0  0  0  0  0  0  0  0  0
    6.9497   -6.5371   29.2052 Cl  0  0  0  0  0  0  0  0  0  0  0  0
    6.8370   -6.0431   26.2817 S   0  0  0  0  0  0  0  0  0  0  0  0
   10.0955   -2.5562   23.8439 C   0  0  0  0  0  0  0  0  0  0  0  0
   11.2329   -1.7829   23.2112 C   0  0  0  0  0  0  0  0  0  0  0  0
  1  2  1  0
  2  3  2  0
  2  4  2  0
  2  5  1  0
  5  6  2  0
  6  7  1  0
  7  8  2  0
  8  9  1  0
  9 10  2  0
  8 11  1  0
 11 12  1  0
 12 13  1  0
 13 14  1  0
 14 15  1  0
 15 16  1  0
 16 17  1  0
 17 18  2  0
 18 19  1  0
 19 20  2  0
 20 21  1  0
 20 22  1  0
 14 23  1  0
 23 24  1  0
 10  5  1  0
 24 11  1  0
 22 17  1  0
M  END
