CVD-0000169|dock_bobby27042020.28|mol2|15|dock2
     RDKit          3D

 21 22  0  0  0  0  0  0  0  0999 V2000
   12.6114    5.7893   23.8192 C   0  0  0  0  0  0  0  0  0  0  0  0
   12.8198    5.1381   22.5310 N   0  0  0  0  0  0  0  0  0  0  0  0
   14.0044    5.6959   21.8882 C   0  0  0  0  0  0  0  0  0  0  0  0
   12.9523    3.6933   22.7022 C   0  0  0  0  0  0  0  0  0  0  0  0
   11.6974    2.9205   22.3340 C   0  0  0  0  0  0  0  0  0  0  0  0
   11.8582    1.4389   22.5105 C   0  0  0  0  0  0  0  0  0  0  0  0
   12.9406    0.7752   23.0088 C   0  0  0  0  0  0  0  0  0  0  0  0
   12.7119   -0.5741   23.0139 N   0  0  0  0  0  0  0  0  0  0  0  0
   11.4566   -0.8128   22.5106 C   0  0  0  0  0  0  0  0  0  0  0  0
   10.7570   -1.9974   22.3082 C   0  0  0  0  0  0  0  0  0  0  0  0
    9.4812   -1.9370   21.7740 C   0  0  0  0  0  0  0  0  0  0  0  0
    8.8947   -0.7244   21.4393 C   0  0  0  0  0  0  0  0  0  0  0  0
    7.5056   -0.6800   20.8632 C   0  0  0  0  0  0  0  0  0  0  0  0
    7.4419    0.2028   19.3106 S   0  0  0  0  0  0  0  0  0  0  0  0
    8.3542   -0.4274   18.4101 O   0  0  0  0  0  0  0  0  0  0  0  0
    7.5963    1.5949   19.5912 O   0  0  0  0  0  0  0  0  0  0  0  0
    5.9516   -0.0131   18.7241 N   0  0  0  0  0  0  0  0  0  0  0  0
    5.5694   -1.2839   18.0991 C   0  0  0  0  0  0  0  0  0  0  0  0
    5.0383    1.1231   18.5622 C   0  0  0  0  0  0  0  0  0  0  0  0
    9.6033    0.4530   21.6473 C   0  0  0  0  0  0  0  0  0  0  0  0
   10.8895    0.4324   22.1829 C   0  0  0  0  0  0  0  0  0  0  0  0
  1  2  1  0
  2  3  1  0
  2  4  1  0
  4  5  1  0
  5  6  1  0
  6  7  2  0
  7  8  1  0
  8  9  1  0
  9 10  2  0
 10 11  1  0
 11 12  2  0
 12 13  1  0
 13 14  1  0
 14 15  2  0
 14 16  2  0
 14 17  1  0
 17 18  1  0
 17 19  1  0
 12 20  1  0
 20 21  2  0
 21  6  1  0
 21  9  1  0
M  END
