CVD-0002209|dock_bobby27042020.21|mol2|11|dock2
     RDKit          3D

 22 24  0  0  0  0  0  0  0  0999 V2000
    5.5837    0.7756   18.5961 C   0  0  0  0  0  0  0  0  0  0  0  0
    6.9880    0.2580   18.6180 C   0  0  0  0  0  0  0  0  0  0  0  0
    7.4852    0.1286   19.9780 N   0  0  0  0  0  0  0  0  0  0  0  0
    7.5798   -1.0712   20.6497 C   0  0  0  0  0  0  0  0  0  0  0  0
    6.6847   -2.1048   20.3667 C   0  0  0  0  0  0  0  0  0  0  0  0
    6.7826   -3.3175   21.0234 C   0  0  0  0  0  0  0  0  0  0  0  0
    7.7770   -3.5222   21.9695 C   0  0  0  0  0  0  0  0  0  0  0  0
    8.6700   -2.4964   22.2598 C   0  0  0  0  0  0  0  0  0  0  0  0
    8.5803   -1.2612   21.6218 C   0  0  0  0  0  0  0  0  0  0  0  0
    9.5590   -0.1579   21.9958 C   0  0  0  0  0  0  0  0  0  0  0  0
   10.6050   -0.5360   23.0255 C   0  0  0  0  0  0  0  0  0  0  0  0
   10.5131   -0.0829   24.3350 C   0  0  0  0  0  0  0  0  0  0  0  0
   11.4514   -0.4488   25.2862 C   0  0  0  0  0  0  0  0  0  0  0  0
   12.5105   -1.2833   24.9433 C   0  0  0  0  0  0  0  0  0  0  0  0
   13.5594   -1.9279   25.8169 C   0  0  0  0  0  0  0  0  0  0  0  0
   14.5182   -2.5956   24.8268 C   0  0  0  0  0  0  0  0  0  0  0  0
   13.8222   -2.5510   23.4867 C   0  0  0  0  0  0  0  0  0  0  0  0
   14.2262   -3.0585   22.4565 O   0  0  0  0  0  0  0  0  0  0  0  0
   12.6080   -1.7392   23.6370 C   0  0  0  0  0  0  0  0  0  0  0  0
   11.6632   -1.3699   22.6816 C   0  0  0  0  0  0  0  0  0  0  0  0
    7.8882   -4.7886   22.6504 C   0  0  0  0  0  0  0  0  0  0  0  0
    7.9966   -5.7774   23.2119 N   0  0  0  0  0  0  0  0  0  0  0  0
  1  2  1  0
  2  3  1  0
  3  4  1  0
  4  5  2  0
  5  6  1  0
  6  7  2  0
  7  8  1  0
  8  9  2  0
  9 10  1  0
 10 11  1  0
 11 12  2  0
 12 13  1  0
 13 14  2  0
 14 15  1  0
 15 16  1  0
 16 17  1  0
 17 18  2  0
 17 19  1  0
 19 20  2  0
  7 21  1  0
 21 22  3  0
  9  4  1  0
 20 11  1  0
 19 14  1  0
M  END
