CVD-0001432|dock_bobby27042020.23|mol2|49|dock2
     RDKit          3D

 23 24  0  0  0  0  0  0  0  0999 V2000
    9.1287   -5.8348   27.3301 O   0  0  0  0  0  0  0  0  0  0  0  0
    9.8654   -6.0059   26.1927 B   0  0  0  0  0  0  0  0  0  0  0  0
    9.8753   -7.2758   25.6895 O   0  0  0  0  0  0  0  0  0  0  0  0
   10.0809   -4.7936   25.2260 C   0  0  0  0  0  0  0  0  0  0  0  0
    8.8959   -4.5902   24.3092 C   0  0  0  0  0  0  0  0  0  0  0  0
    7.8938   -5.2898   24.3852 O   0  0  0  0  0  0  0  0  0  0  0  0
    9.0084   -3.5985   23.4025 N   0  0  0  0  0  0  0  0  0  0  0  0
    7.9266   -3.3329   22.4685 C   0  0  0  0  0  0  0  0  0  0  0  0
    7.5412   -1.8875   22.5051 C   0  0  0  0  0  0  0  0  0  0  0  0
    8.7318   -1.0672   22.2410 N   0  0  0  0  0  0  0  0  0  0  0  0
    9.7828   -1.2919   23.2446 C   0  0  0  0  0  0  0  0  0  0  0  0
   10.1814   -2.7378   23.2200 C   0  0  0  0  0  0  0  0  0  0  0  0
    8.4850    0.4532   21.7071 S   0  0  0  0  0  0  0  0  0  0  0  0
    9.7067    0.8785   21.0975 O   0  0  0  0  0  0  0  0  0  0  0  0
    7.9483    1.1927   22.8070 O   0  0  0  0  0  0  0  0  0  0  0  0
    7.2457    0.2448   20.4232 C   0  0  0  0  0  0  0  0  0  0  0  0
    7.4083   -0.5886   19.3119 C   0  0  0  0  0  0  0  0  0  0  0  0
    8.5544   -1.2896   19.1552 F   0  0  0  0  0  0  0  0  0  0  0  0
    6.4478   -0.7432   18.3403 C   0  0  0  0  0  0  0  0  0  0  0  0
    5.2602   -0.0409   18.4527 C   0  0  0  0  0  0  0  0  0  0  0  0
    5.0462    0.8063   19.5260 C   0  0  0  0  0  0  0  0  0  0  0  0
    6.0319    0.9326   20.4756 C   0  0  0  0  0  0  0  0  0  0  0  0
    5.8001    1.7724   21.5104 F   0  0  0  0  0  0  0  0  0  0  0  0
  1  2  1  0
  2  3  1  0
  2  4  1  0
  4  5  1  0
  5  6  2  0
  5  7  1  0
  7  8  1  0
  8  9  1  0
  9 10  1  0
 10 11  1  0
 11 12  1  0
 10 13  1  0
 13 14  2  0
 13 15  2  0
 13 16  1  0
 16 17  2  0
 17 18  1  0
 17 19  1  0
 19 20  2  0
 20 21  1  0
 21 22  2  0
 22 23  1  0
 12  7  1  0
 22 16  1  0
M  END
