CVD-0002665|dock_bobby27042020.19|mol2|8|dock2
     RDKit          3D

 18 19  0  0  0  0  0  0  0  0999 V2000
    9.2099   -1.3637   23.9330 O   0  0  0  0  0  0  0  0  0  0  0  0
    9.7736   -1.4255   22.8436 C   0  0  0  0  0  0  0  0  0  0  0  0
    9.2057   -1.9761   21.7708 N   0  0  0  0  0  0  0  0  0  0  0  0
    7.8685   -2.5511   21.7999 C   0  0  0  0  0  0  0  0  0  0  0  0
    6.8075   -1.5039   21.5381 C   0  0  0  0  0  0  0  0  0  0  0  0
    6.1426   -1.7330   20.2660 N   0  0  0  0  0  0  0  0  0  0  0  0
    5.8587   -0.7273   19.3628 C   0  0  0  0  0  0  0  0  0  0  0  0
    5.9504   -0.9074   17.9881 C   0  0  0  0  0  0  0  0  0  0  0  0
    5.6785    0.0607   17.1092 N   0  0  0  0  0  0  0  0  0  0  0  0
    5.3077    1.2254   17.6313 C   0  0  0  0  0  0  0  0  0  0  0  0
    5.1804    1.5259   18.9195 N   0  0  0  0  0  0  0  0  0  0  0  0
    5.4598    0.5381   19.7736 C   0  0  0  0  0  0  0  0  0  0  0  0
   11.1685   -0.8751   22.6372 C   0  0  0  0  0  0  0  0  0  0  0  0
   12.1560   -2.0004   22.4330 C   0  0  0  0  0  0  0  0  0  0  0  0
   13.5795   -1.4659   22.3148 C   0  0  0  0  0  0  0  0  0  0  0  0
   13.9535   -0.6282   23.5099 C   0  0  0  0  0  0  0  0  0  0  0  0
   12.9588    0.4864   23.7321 C   0  0  0  0  0  0  0  0  0  0  0  0
   11.5347   -0.0407   23.8465 C   0  0  0  0  0  0  0  0  0  0  0  0
  1  2  2  0
  2  3  1  0
  3  4  1  0
  4  5  1  0
  5  6  1  0
  6  7  1  0
  7  8  2  0
  8  9  1  0
  9 10  2  0
 10 11  1  0
 11 12  2  0
  2 13  1  0
 13 14  1  0
 14 15  1  0
 15 16  1  0
 16 17  1  0
 17 18  1  0
 12  7  1  0
 18 13  1  0
M  END
