CVD-0001677|dock_bobby27042020.37|mol2|27|dock1
     RDKit          3D

 27 29  0  0  0  0  0  0  0  0999 V2000
    6.1533   -7.3095   29.6804 C   0  0  0  0  0  0  0  0  0  0  0  0
    6.9271   -6.9839   28.4377 C   0  0  0  0  0  0  0  0  0  0  0  0
    8.2959   -7.2563   28.6196 F   0  0  0  0  0  0  0  0  0  0  0  0
    6.7812   -5.5293   28.0214 C   0  0  0  0  0  0  0  0  0  0  0  0
    6.0842   -4.8143   28.7155 O   0  0  0  0  0  0  0  0  0  0  0  0
    7.3911   -5.0265   26.9266 N   0  0  0  0  0  0  0  0  0  0  0  0
    8.2300   -5.7821   25.9982 C   0  0  0  0  0  0  0  0  0  0  0  0
    9.5696   -5.0983   25.8264 C   0  0  0  0  0  0  0  0  0  0  0  0
    9.3757   -3.7070   25.4239 N   0  0  0  0  0  0  0  0  0  0  0  0
    8.5367   -2.9513   26.3523 C   0  0  0  0  0  0  0  0  0  0  0  0
    7.1973   -3.6351   26.5241 C   0  0  0  0  0  0  0  0  0  0  0  0
    9.9951   -3.1962   24.3119 C   0  0  0  0  0  0  0  0  0  0  0  0
   10.9755   -3.7782   23.8754 O   0  0  0  0  0  0  0  0  0  0  0  0
    9.5664   -2.0660   23.6641 N   0  0  0  0  0  0  0  0  0  0  0  0
   10.4275   -1.2876   22.7710 C   0  0  0  0  0  0  0  0  0  0  0  0
    9.7674   -1.1151   21.4157 C   0  0  0  0  0  0  0  0  0  0  0  0
    8.4662   -0.4570   21.5651 N   0  0  0  0  0  0  0  0  0  0  0  0
    7.8387   -0.2511   20.2484 C   0  0  0  0  0  0  0  0  0  0  0  0
    6.5947    0.6117   20.1887 C   0  0  0  0  0  0  0  0  0  0  0  0
    5.4947    0.2918   19.3938 C   0  0  0  0  0  0  0  0  0  0  0  0
    4.3776    1.1086   19.3536 C   0  0  0  0  0  0  0  0  0  0  0  0
    4.3386    2.2563   20.1135 C   0  0  0  0  0  0  0  0  0  0  0  0
    5.4189    2.5837   20.9136 C   0  0  0  0  0  0  0  0  0  0  0  0
    6.5524    1.7751   20.9652 C   0  0  0  0  0  0  0  0  0  0  0  0
    7.7087    2.1680   21.8464 C   0  0  0  0  0  0  0  0  0  0  0  0
    7.6108   -1.2800   22.4162 C   0  0  0  0  0  0  0  0  0  0  0  0
    8.2349   -1.4649   23.7875 C   0  0  0  0  0  0  0  0  0  0  0  0
  1  2  1  0
  2  3  1  0
  2  4  1  0
  4  5  2  0
  4  6  1  0
  6  7  1  0
  7  8  1  0
  8  9  1  0
  9 10  1  0
 10 11  1  0
  9 12  1  0
 12 13  2  0
 12 14  1  0
 14 15  1  0
 15 16  1  0
 16 17  1  0
 17 18  1  0
 18 19  1  0
 19 20  2  0
 20 21  1  0
 21 22  2  0
 22 23  1  0
 23 24  2  0
 24 25  1  0
 17 26  1  0
 26 27  1  0
 11  6  1  0
 27 14  1  0
 24 19  1  0
M  END
