CVD-0003863|dock_bobby27042020.29|mol2|29|dock2
     RDKit          3D

 28 31  0  0  0  0  0  0  0  0999 V2000
   13.3082    5.3425   21.4038 N   0  0  0  0  0  0  0  0  0  0  0  0
   13.3133    4.6426   22.8437 S   0  0  0  0  0  0  0  0  0  0  0  0
   12.6842    5.5485   23.7572 O   0  0  0  0  0  0  0  0  0  0  0  0
   14.6566    4.2194   23.1041 O   0  0  0  0  0  0  0  0  0  0  0  0
   12.3087    3.1908   22.7642 C   0  0  0  0  0  0  0  0  0  0  0  0
   12.8852    1.9440   22.9282 C   0  0  0  0  0  0  0  0  0  0  0  0
   12.0930    0.8111   22.8722 C   0  0  0  0  0  0  0  0  0  0  0  0
   10.7222    0.9015   22.6501 C   0  0  0  0  0  0  0  0  0  0  0  0
   10.1650    2.1662   22.4875 C   0  0  0  0  0  0  0  0  0  0  0  0
   10.9474    3.3059   22.5462 C   0  0  0  0  0  0  0  0  0  0  0  0
    9.9325   -0.2390   22.5925 N   0  0  0  0  0  0  0  0  0  0  0  0
    9.9065   -1.2435   23.6600 C   0  0  0  0  0  0  0  0  0  0  0  0
    8.5061   -1.6624   24.0074 C   0  0  0  0  0  0  0  0  0  0  0  0
    7.7643   -2.1809   22.7703 C   0  0  0  0  0  0  0  0  0  0  0  0
    6.3428   -2.6126   23.1071 C   0  0  0  0  0  0  0  0  0  0  0  0
    6.2416   -3.9056   23.7990 N   0  0  0  0  0  0  0  0  0  0  0  0
    5.5520   -4.9518   23.0599 C   0  0  0  0  0  0  0  0  0  0  0  0
    5.8052   -6.3506   23.7126 C   0  0  0  0  0  0  0  0  0  0  0  0
    5.4717   -6.3473   25.2149 C   0  0  0  0  0  0  0  0  0  0  0  0
    6.1554   -5.1649   25.8994 C   0  0  0  0  0  0  0  0  0  0  0  0
    5.8101   -3.8622   25.1944 C   0  0  0  0  0  0  0  0  0  0  0  0
    7.6405   -5.3554   26.0633 C   0  0  0  0  0  0  0  0  0  0  0  0
    8.2760   -5.6545   27.2635 C   0  0  0  0  0  0  0  0  0  0  0  0
    9.6764   -5.7704   27.0903 C   0  0  0  0  0  0  0  0  0  0  0  0
   10.0783   -5.5690   25.8247 C   0  0  0  0  0  0  0  0  0  0  0  0
    8.7674   -5.2289   24.7870 S   0  0  0  0  0  0  0  0  0  0  0  0
    7.8099   -1.1206   21.6992 C   0  0  0  0  0  0  0  0  0  0  0  0
    9.2181   -0.6733   21.3696 C   0  0  0  0  0  0  0  0  0  0  0  0
  1  2  1  0
  2  3  2  0
  2  4  2  0
  2  5  1  0
  5  6  2  0
  6  7  1  0
  7  8  2  0
  8  9  1  0
  9 10  2  0
  8 11  1  0
 11 12  1  0
 12 13  1  0
 13 14  1  0
 14 15  1  0
 15 16  1  0
 16 17  1  0
 17 18  1  0
 18 19  1  0
 19 20  1  0
 20 21  1  0
 20 22  1  0
 22 23  2  0
 23 24  1  0
 24 25  2  0
 25 26  1  0
 14 27  1  0
 27 28  1  0
 10  5  1  0
 28 11  1  0
 21 16  1  0
 26 22  1  0
M  END
