CVD-0002356|dock_bobby27042020.34|mol2|34|dock2
     RDKit          3D

 38 42  0  0  0  0  0  0  0  0999 V2000
    9.3096    5.2959   24.6929 C   0  0  0  0  0  0  0  0  0  0  0  0
    9.3422    3.8823   24.3089 N   0  0  0  0  0  0  0  0  0  0  0  0
    8.5445    3.0010   25.1684 C   0  0  0  0  0  0  0  0  0  0  0  0
    8.5385    1.5833   24.6599 C   0  0  0  0  0  0  0  0  0  0  0  0
    8.0875    1.1813   23.4981 C   0  0  0  0  0  0  0  0  0  0  0  0
    8.3125   -0.3006   23.2834 C   0  0  0  0  0  0  0  0  0  0  0  0
    7.0663   -1.0355   22.9617 N   0  0  0  0  0  0  0  0  0  0  0  0
    6.5470   -1.9755   23.9796 C   0  0  0  0  0  0  0  0  0  0  0  0
    6.9358   -3.3831   23.6001 C   0  0  0  0  0  0  0  0  0  0  0  0
    6.3713   -3.7333   22.2502 C   0  0  0  0  0  0  0  0  0  0  0  0
    6.3101   -2.5938   21.2594 C   0  0  0  0  0  0  0  0  0  0  0  0
    5.8565   -2.8487   19.9687 C   0  0  0  0  0  0  0  0  0  0  0  0
    5.7388   -1.8485   19.0283 C   0  0  0  0  0  0  0  0  0  0  0  0
    6.0860   -0.5621   19.3966 C   0  0  0  0  0  0  0  0  0  0  0  0
    6.5416   -0.2783   20.6768 C   0  0  0  0  0  0  0  0  0  0  0  0
    6.6581   -1.2925   21.6213 C   0  0  0  0  0  0  0  0  0  0  0  0
    6.0820    0.7218   18.1816 S   0  0  0  0  0  0  0  0  0  0  0  0
    5.1777    1.9278   18.7209 N   0  0  0  0  0  0  0  0  0  0  0  0
    5.4404    0.2015   17.0117 O   0  0  0  0  0  0  0  0  0  0  0  0
    7.4231    1.2132   18.0744 O   0  0  0  0  0  0  0  0  0  0  0  0
    8.9405   -0.6937   24.6582 C   0  0  0  0  0  0  0  0  0  0  0  0
    8.9821    0.4243   25.3660 C   0  0  0  0  0  0  0  0  0  0  0  0
    9.2822   -2.0752   25.1135 C   0  0  0  0  0  0  0  0  0  0  0  0
   10.2117   -2.7971   24.3593 C   0  0  0  0  0  0  0  0  0  0  0  0
   10.5827   -4.0817   24.7192 C   0  0  0  0  0  0  0  0  0  0  0  0
   10.0395   -4.6779   25.8343 C   0  0  0  0  0  0  0  0  0  0  0  0
    9.1173   -3.9917   26.6026 C   0  0  0  0  0  0  0  0  0  0  0  0
    8.7605   -2.7165   26.2319 C   0  0  0  0  0  0  0  0  0  0  0  0
    7.8574   -2.1008   27.0247 F   0  0  0  0  0  0  0  0  0  0  0  0
    9.5741   -0.6475   21.9614 S   0  0  0  0  0  0  0  0  0  0  0  0
    9.4487   -1.9962   21.4864 O   0  0  0  0  0  0  0  0  0  0  0  0
    9.2851    0.3639   20.9833 O   0  0  0  0  0  0  0  0  0  0  0  0
   11.2431   -0.3033   22.4334 C   0  0  0  0  0  0  0  0  0  0  0  0
   12.2742   -1.0472   21.8837 C   0  0  0  0  0  0  0  0  0  0  0  0
   13.5748   -0.7745   22.2711 C   0  0  0  0  0  0  0  0  0  0  0  0
   13.7963    0.2242   23.1910 C   0  0  0  0  0  0  0  0  0  0  0  0
   12.8173    0.9478   23.7345 N   0  0  0  0  0  0  0  0  0  0  0  0
   11.5651    0.6768   23.3548 C   0  0  0  0  0  0  0  0  0  0  0  0
  1  2  1  0
  2  3  1  0
  3  4  1  0
  4  5  2  0
  5  6  1  0
  6  7  1  0
  7  8  1  0
  8  9  1  0
  9 10  1  0
 10 11  1  0
 11 12  2  0
 12 13  1  0
 13 14  2  0
 14 15  1  0
 15 16  2  0
 14 17  1  0
 17 18  1  0
 17 19  2  0
 17 20  2  0
  6 21  1  0
 21 22  2  0
 21 23  1  0
 23 24  2  0
 24 25  1  0
 25 26  2  0
 26 27  1  0
 27 28  2  0
 28 29  1  0
  6 30  1  0
 30 31  2  0
 30 32  2  0
 30 33  1  0
 33 34  2  0
 34 35  1  0
 35 36  2  0
 36 37  1  0
 37 38  2  0
 22  4  1  0
 28 23  1  0
 38 33  1  0
 16  7  1  0
 16 11  1  0
M  END
