CVD-0003832|dock_bobby27042020.72|mol2|33|dock3
     RDKit          3D

 26 28  0  0  0  0  0  0  0  0999 V2000
    7.6498   -5.6502   22.9531 C   0  0  0  0  0  0  0  0  0  0  0  0
    8.4496   -4.7244   23.8636 C   0  0  0  0  0  0  0  0  0  0  0  0
    8.2231   -3.2977   23.5382 N   0  0  0  0  0  0  0  0  0  0  0  0
    6.8442   -3.0529   23.1011 C   0  0  0  0  0  0  0  0  0  0  0  0
    9.2364   -2.5659   22.7341 C   0  0  0  0  0  0  0  0  0  0  0  0
    8.7169   -1.2523   22.2398 C   0  0  0  0  0  0  0  0  0  0  0  0
    9.7611   -0.4463   21.4848 C   0  0  0  0  0  0  0  0  0  0  0  0
   10.9683   -0.3137   22.2854 N   0  0  0  0  0  0  0  0  0  0  0  0
   11.5465   -1.5753   22.7320 C   0  0  0  0  0  0  0  0  0  0  0  0
   10.5086   -2.3506   23.5385 C   0  0  0  0  0  0  0  0  0  0  0  0
   11.6398    0.8967   22.4111 C   0  0  0  0  0  0  0  0  0  0  0  0
   13.0228    0.9900   22.2776 C   0  0  0  0  0  0  0  0  0  0  0  0
   13.6773    2.2009   22.4178 C   0  0  0  0  0  0  0  0  0  0  0  0
   12.9499    3.3468   22.6830 C   0  0  0  0  0  0  0  0  0  0  0  0
   11.5745    3.2823   22.8118 C   0  0  0  0  0  0  0  0  0  0  0  0
   10.9303    2.0654   22.6765 C   0  0  0  0  0  0  0  0  0  0  0  0
   13.7809    4.8954   22.8679 S   0  0  0  0  0  0  0  0  0  0  0  0
   13.0835    5.7063   24.0593 N   0  0  0  0  0  0  0  0  0  0  0  0
   13.5662    5.6423   21.6650 O   0  0  0  0  0  0  0  0  0  0  0  0
   15.1242    4.6139   23.2769 O   0  0  0  0  0  0  0  0  0  0  0  0
    8.1539   -4.9690   25.3360 C   0  0  0  0  0  0  0  0  0  0  0  0
    8.5037   -6.1731   25.9312 C   0  0  0  0  0  0  0  0  0  0  0  0
    8.2336   -6.4086   27.2689 C   0  0  0  0  0  0  0  0  0  0  0  0
    7.6092   -5.4434   28.0292 C   0  0  0  0  0  0  0  0  0  0  0  0
    7.2556   -4.2426   27.4524 C   0  0  0  0  0  0  0  0  0  0  0  0
    7.5264   -4.0056   26.1150 C   0  0  0  0  0  0  0  0  0  0  0  0
  1  2  1  0
  2  3  1  0
  3  4  1  0
  3  5  1  0
  5  6  1  0
  6  7  1  0
  7  8  1  0
  8  9  1  0
  9 10  1  0
  8 11  1  0
 11 12  2  0
 12 13  1  0
 13 14  2  0
 14 15  1  0
 15 16  2  0
 14 17  1  0
 17 18  1  0
 17 19  2  0
 17 20  2  0
  2 21  1  0
 21 22  2  0
 22 23  1  0
 23 24  2  0
 24 25  1  0
 25 26  2  0
 10  5  1  0
 16 11  1  0
 26 21  1  0
M  END
