CVD-0003904|dock_bobby27042020.29|mol2|23|dock1
     RDKit          3D

 27 30  0  0  0  0  0  0  0  0999 V2000
   12.4446    5.9955   24.1981 Cl  0  0  0  0  0  0  0  0  0  0  0  0
   12.0142    4.2805   24.2262 C   0  0  0  0  0  0  0  0  0  0  0  0
   13.1478    3.4274   23.6920 C   0  0  0  0  0  0  0  0  0  0  0  0
   14.1846    3.9263   23.2730 O   0  0  0  0  0  0  0  0  0  0  0  0
   12.9525    2.0935   23.7084 N   0  0  0  0  0  0  0  0  0  0  0  0
   13.9511    1.1385   23.2232 C   0  0  0  0  0  0  0  0  0  0  0  0
   13.3412    0.2156   22.1846 C   0  0  0  0  0  0  0  0  0  0  0  0
   12.1923   -0.4971   22.7512 N   0  0  0  0  0  0  0  0  0  0  0  0
   11.6219   -1.4222   21.7612 C   0  0  0  0  0  0  0  0  0  0  0  0
   10.5525   -2.3222   22.3372 C   0  0  0  0  0  0  0  0  0  0  0  0
   10.8245   -3.0300   23.5027 C   0  0  0  0  0  0  0  0  0  0  0  0
    9.8595   -3.8668   24.0203 C   0  0  0  0  0  0  0  0  0  0  0  0
    8.6586   -4.0287   23.4688 N   0  0  0  0  0  0  0  0  0  0  0  0
    8.3796   -3.3209   22.3696 C   0  0  0  0  0  0  0  0  0  0  0  0
    9.2930   -2.4810   21.7376 C   0  0  0  0  0  0  0  0  0  0  0  0
    9.0258   -1.7725   20.5361 N   0  0  0  0  0  0  0  0  0  0  0  0
    8.0064   -0.9492   20.1992 C   0  0  0  0  0  0  0  0  0  0  0  0
    7.0573   -0.4226   21.0553 C   0  0  0  0  0  0  0  0  0  0  0  0
    6.1947    0.4721   20.3740 C   0  0  0  0  0  0  0  0  0  0  0  0
    5.0212    1.1520   21.0194 C   0  0  0  0  0  0  0  0  0  0  0  0
    3.9738    1.5041   19.9860 C   0  0  0  0  0  0  0  0  0  0  0  0
    4.5016    2.0443   18.7690 C   0  0  0  0  0  0  0  0  0  0  0  0
    5.5819    1.2544   18.0590 C   0  0  0  0  0  0  0  0  0  0  0  0
    6.4929    0.6053   19.0587 C   0  0  0  0  0  0  0  0  0  0  0  0
    7.8498   -0.3536   18.5567 S   0  0  0  0  0  0  0  0  0  0  0  0
   11.1907    0.4766   23.1780 C   0  0  0  0  0  0  0  0  0  0  0  0
   11.7628    1.4117   24.2279 C   0  0  0  0  0  0  0  0  0  0  0  0
  1  2  1  0
  2  3  1  0
  3  4  2  0
  3  5  1  0
  5  6  1  0
  6  7  1  0
  7  8  1  0
  8  9  1  0
  9 10  1  0
 10 11  2  0
 11 12  1  0
 12 13  2  0
 13 14  1  0
 14 15  2  0
 15 16  1  0
 16 17  1  0
 17 18  2  0
 18 19  1  0
 19 20  1  0
 20 21  1  0
 21 22  1  0
 22 23  1  0
 23 24  1  0
 24 25  1  0
  8 26  1  0
 26 27  1  0
 27  5  1  0
 15 10  1  0
 25 17  1  0
 24 19  2  0
M  END
