CVD-0003412|dock_bobby27042020.16|mol2|37|dock3
     RDKit          3D

 30 32  0  0  0  0  0  0  0  0999 V2000
    8.5305    5.4794   22.4091 C   0  0  0  0  0  0  0  0  0  0  0  0
    9.6980    4.6101   22.7571 C   0  0  0  0  0  0  0  0  0  0  0  0
    9.6403    3.3369   22.0585 N   0  0  0  0  0  0  0  0  0  0  0  0
   10.5322    2.3545   22.2790 C   0  0  0  0  0  0  0  0  0  0  0  0
   11.7371    2.8042   22.6800 N   0  0  0  0  0  0  0  0  0  0  0  0
   12.7077    1.9101   22.8805 C   0  0  0  0  0  0  0  0  0  0  0  0
   12.5332    0.5435   22.7167 C   0  0  0  0  0  0  0  0  0  0  0  0
   11.2838    0.0695   22.3307 C   0  0  0  0  0  0  0  0  0  0  0  0
   10.2471    0.9770   22.1053 C   0  0  0  0  0  0  0  0  0  0  0  0
    8.9437    0.5577   21.7183 N   0  0  0  0  0  0  0  0  0  0  0  0
    8.5346   -0.4832   20.9496 C   0  0  0  0  0  0  0  0  0  0  0  0
    9.2722   -1.3052   20.4141 O   0  0  0  0  0  0  0  0  0  0  0  0
    7.0136   -0.5569   20.7810 C   0  0  0  0  0  0  0  0  0  0  0  0
    6.6945   -1.9563   20.5961 N   0  0  0  0  0  0  0  0  0  0  0  0
    7.0185   -2.8824   21.5067 C   0  0  0  0  0  0  0  0  0  0  0  0
    7.6118   -2.6001   22.5574 O   0  0  0  0  0  0  0  0  0  0  0  0
    6.6181   -4.2675   21.1699 C   0  0  0  0  0  0  0  0  0  0  0  0
    6.8889   -5.2810   21.9490 C   0  0  0  0  0  0  0  0  0  0  0  0
    6.5309    0.2845   19.6260 C   0  0  0  0  0  0  0  0  0  0  0  0
    7.1478    0.5244   18.4255 C   0  0  0  0  0  0  0  0  0  0  0  0
    8.3183    0.0956   17.9464 F   0  0  0  0  0  0  0  0  0  0  0  0
    6.3736    1.3369   17.6658 N   0  0  0  0  0  0  0  0  0  0  0  0
    5.2339    1.6439   18.3574 C   0  0  0  0  0  0  0  0  0  0  0  0
    4.2239    2.4236   17.9370 N   0  0  0  0  0  0  0  0  0  0  0  0
    3.2052    2.5806   18.7940 C   0  0  0  0  0  0  0  0  0  0  0  0
    3.1526    1.9971   20.0425 C   0  0  0  0  0  0  0  0  0  0  0  0
    4.2044    1.1958   20.4585 C   0  0  0  0  0  0  0  0  0  0  0  0
    5.2866    1.0019   19.6031 C   0  0  0  0  0  0  0  0  0  0  0  0
   13.6231   -0.3733   22.9428 C   0  0  0  0  0  0  0  0  0  0  0  0
   14.4646   -1.1219   23.1338 N   0  0  0  0  0  0  0  0  0  0  0  0
  1  2  1  0
  2  3  1  0
  3  4  1  0
  4  5  2  0
  5  6  1  0
  6  7  2  0
  7  8  1  0
  8  9  2  0
  9 10  1  0
 10 11  1  0
 11 12  2  0
 11 13  1  0
 13 14  1  0
 14 15  1  0
 15 16  2  0
 15 17  1  0
 17 18  2  0
 13 19  1  0
 19 20  2  0
 20 21  1  0
 20 22  1  0
 22 23  1  0
 23 24  2  0
 24 25  1  0
 25 26  2  0
 26 27  1  0
 27 28  2  0
  7 29  1  0
 29 30  3  0
  9  4  1  0
 28 19  1  0
 28 23  1  0
M  END
