CVD-0003045|dock_bobby27042020.32|mol2|16|dock3
     RDKit          3D

 30 32  0  0  0  0  0  0  0  0999 V2000
    5.7255   -7.3160   28.3708 F   0  0  0  0  0  0  0  0  0  0  0  0
    6.9126   -6.8186   28.6986 C   0  0  0  0  0  0  0  0  0  0  0  0
    7.5855   -7.8182   29.2572 F   0  0  0  0  0  0  0  0  0  0  0  0
    6.6853   -5.9433   29.6714 F   0  0  0  0  0  0  0  0  0  0  0  0
    7.6304   -6.2165   27.5334 C   0  0  0  0  0  0  0  0  0  0  0  0
    8.9817   -5.9056   27.6126 C   0  0  0  0  0  0  0  0  0  0  0  0
    9.6440   -5.3513   26.5318 C   0  0  0  0  0  0  0  0  0  0  0  0
    8.9798   -5.0915   25.3430 C   0  0  0  0  0  0  0  0  0  0  0  0
    9.7058   -4.4893   24.1643 C   0  0  0  0  0  0  0  0  0  0  0  0
    9.7106   -2.9616   24.1813 C   0  0  0  0  0  0  0  0  0  0  0  0
   10.0113   -2.3427   22.8112 C   0  0  0  0  0  0  0  0  0  0  0  0
    8.7846   -1.7983   22.1811 N   0  0  0  0  0  0  0  0  0  0  0  0
    9.0866   -1.1671   20.8859 C   0  0  0  0  0  0  0  0  0  0  0  0
    7.8432   -0.5741   20.2759 C   0  0  0  0  0  0  0  0  0  0  0  0
    6.8017   -1.5953   20.1273 N   0  0  0  0  0  0  0  0  0  0  0  0
    6.5216   -2.2955   21.3795 C   0  0  0  0  0  0  0  0  0  0  0  0
    7.8041   -2.8587   21.9436 C   0  0  0  0  0  0  0  0  0  0  0  0
    6.0466   -1.8100   19.0313 C   0  0  0  0  0  0  0  0  0  0  0  0
    5.2022   -2.6958   18.9882 O   0  0  0  0  0  0  0  0  0  0  0  0
    6.3027   -0.8976   17.8479 C   0  0  0  0  0  0  0  0  0  0  0  0
    6.0038    0.7936   18.2691 Cl  0  0  0  0  0  0  0  0  0  0  0  0
   11.0977   -1.2971   22.9629 C   0  0  0  0  0  0  0  0  0  0  0  0
   12.2966   -1.4162   22.2743 C   0  0  0  0  0  0  0  0  0  0  0  0
   13.2907   -0.4625   22.4139 C   0  0  0  0  0  0  0  0  0  0  0  0
   13.0989    0.6265   23.2473 C   0  0  0  0  0  0  0  0  0  0  0  0
   11.9067    0.7382   23.9285 C   0  0  0  0  0  0  0  0  0  0  0  0
   11.6515    2.1023   24.9805 Cl  0  0  0  0  0  0  0  0  0  0  0  0
   10.9085   -0.2057   23.7976 C   0  0  0  0  0  0  0  0  0  0  0  0
    7.6316   -5.4047   25.2646 C   0  0  0  0  0  0  0  0  0  0  0  0
    6.9641   -5.9592   26.3422 C   0  0  0  0  0  0  0  0  0  0  0  0
  1  2  1  0
  2  3  1  0
  2  4  1  0
  2  5  1  0
  5  6  2  0
  6  7  1  0
  7  8  2  0
  8  9  1  0
  9 10  1  0
 10 11  1  0
 11 12  1  0
 12 13  1  0
 13 14  1  0
 14 15  1  0
 15 16  1  0
 16 17  1  0
 15 18  1  0
 18 19  2  0
 18 20  1  0
 20 21  1  0
 11 22  1  0
 22 23  2  0
 23 24  1  0
 24 25  2  0
 25 26  1  0
 26 27  1  0
 26 28  2  0
  8 29  1  0
 29 30  2  0
 30  5  1  0
 17 12  1  0
 28 22  1  0
M  END
