CVD-0003911|dock_bobby27042020.29|mol2|22|dock3
     RDKit          3D

 27 30  0  0  0  0  0  0  0  0999 V2000
   13.5523    1.2025   24.9458 O   0  0  0  0  0  0  0  0  0  0  0  0
   13.0853    1.7072   23.6919 C   0  0  0  0  0  0  0  0  0  0  0  0
   11.6198    2.1432   23.7492 C   0  0  0  0  0  0  0  0  0  0  0  0
   10.6564    0.9589   23.8721 C   0  0  0  0  0  0  0  0  0  0  0  0
   10.8838    0.0006   22.7115 C   0  0  0  0  0  0  0  0  0  0  0  0
   12.3284   -0.4873   22.6564 C   0  0  0  0  0  0  0  0  0  0  0  0
   13.2828    0.7030   22.5629 C   0  0  0  0  0  0  0  0  0  0  0  0
    9.9339   -1.1397   22.7589 N   0  0  0  0  0  0  0  0  0  0  0  0
   10.0583   -1.9716   23.9843 C   0  0  0  0  0  0  0  0  0  0  0  0
    8.7592   -1.9654   24.7806 C   0  0  0  0  0  0  0  0  0  0  0  0
    8.8821   -2.8464   26.0067 C   0  0  0  0  0  0  0  0  0  0  0  0
    9.2396   -4.2058   25.6103 N   0  0  0  0  0  0  0  0  0  0  0  0
   10.5066   -4.2684   24.8898 C   0  0  0  0  0  0  0  0  0  0  0  0
   10.4342   -3.4091   23.6320 C   0  0  0  0  0  0  0  0  0  0  0  0
    8.6645   -5.3393   26.0723 C   0  0  0  0  0  0  0  0  0  0  0  0
    9.0253   -6.4368   25.6660 O   0  0  0  0  0  0  0  0  0  0  0  0
    7.5552   -5.2270   27.1008 C   0  0  0  0  0  0  0  0  0  0  0  0
    7.1282   -6.8221   27.7338 Cl  0  0  0  0  0  0  0  0  0  0  0  0
    9.0459   -1.3810   21.7558 C   0  0  0  0  0  0  0  0  0  0  0  0
    8.8820   -0.6514   20.5876 C   0  0  0  0  0  0  0  0  0  0  0  0
    7.8965   -1.2023   19.7337 C   0  0  0  0  0  0  0  0  0  0  0  0
    7.4477   -0.5760   18.4448 C   0  0  0  0  0  0  0  0  0  0  0  0
    6.0362   -1.0029   18.1067 C   0  0  0  0  0  0  0  0  0  0  0  0
    5.7640   -2.3899   18.3385 C   0  0  0  0  0  0  0  0  0  0  0  0
    6.0839   -2.9508   19.7091 C   0  0  0  0  0  0  0  0  0  0  0  0
    7.3333   -2.3208   20.2496 C   0  0  0  0  0  0  0  0  0  0  0  0
    7.9772   -2.7568   21.8027 S   0  0  0  0  0  0  0  0  0  0  0  0
  1  2  1  0
  2  3  1  0
  3  4  1  0
  4  5  1  0
  5  6  1  0
  6  7  1  0
  5  8  1  0
  8  9  1  0
  9 10  1  0
 10 11  1  0
 11 12  1  0
 12 13  1  0
 13 14  1  0
 12 15  1  0
 15 16  2  0
 15 17  1  0
 17 18  1  0
  8 19  1  0
 19 20  2  0
 20 21  1  0
 21 22  1  0
 22 23  1  0
 23 24  1  0
 24 25  1  0
 25 26  1  0
 26 27  1  0
  7  2  1  0
 14  9  1  0
 27 19  1  0
 26 21  2  0
M  END
