CVD-0000522|dock_bobby27042020.84|mol2|6|dock1
     RDKit          3D

 22 23  0  0  0  0  0  0  0  0999 V2000
   14.1259    5.9543   21.6492 C   0  0  0  0  0  0  0  0  0  0  0  0
   13.1237    5.1432   22.4168 C   0  0  0  0  0  0  0  0  0  0  0  0
   12.9331    5.3135   23.6169 O   0  0  0  0  0  0  0  0  0  0  0  0
   12.4636    4.2146   21.7220 N   0  0  0  0  0  0  0  0  0  0  0  0
   11.4729    3.3370   22.3286 C   0  0  0  0  0  0  0  0  0  0  0  0
   12.0957    2.3994   23.3473 C   0  0  0  0  0  0  0  0  0  0  0  0
   12.1835    0.9756   22.8534 C   0  0  0  0  0  0  0  0  0  0  0  0
   13.3974    0.4276   22.4696 C   0  0  0  0  0  0  0  0  0  0  0  0
   13.4688   -0.8805   22.0215 C   0  0  0  0  0  0  0  0  0  0  0  0
   12.3220   -1.6533   21.9541 C   0  0  0  0  0  0  0  0  0  0  0  0
   11.0969   -1.1274   22.3324 C   0  0  0  0  0  0  0  0  0  0  0  0
    9.8401   -1.9654   22.2659 C   0  0  0  0  0  0  0  0  0  0  0  0
    8.6347   -1.1631   21.8177 C   0  0  0  0  0  0  0  0  0  0  0  0
    7.7667   -0.8286   22.6169 O   0  0  0  0  0  0  0  0  0  0  0  0
    8.6318   -0.8837   20.4917 N   0  0  0  0  0  0  0  0  0  0  0  0
    7.7005   -0.1775   19.6908 C   0  0  0  0  0  0  0  0  0  0  0  0
    6.6394    0.5618   20.2035 C   0  0  0  0  0  0  0  0  0  0  0  0
    5.7861    1.2151   19.3309 C   0  0  0  0  0  0  0  0  0  0  0  0
    6.0142    1.1129   17.9779 C   0  0  0  0  0  0  0  0  0  0  0  0
    7.0219    0.4125   17.4578 N   0  0  0  0  0  0  0  0  0  0  0  0
    7.8398   -0.2143   18.3082 C   0  0  0  0  0  0  0  0  0  0  0  0
   11.0429    0.1861   22.7809 C   0  0  0  0  0  0  0  0  0  0  0  0
  1  2  1  0
  2  3  2  0
  2  4  1  0
  4  5  1  0
  5  6  1  0
  6  7  1  0
  7  8  2  0
  8  9  1  0
  9 10  2  0
 10 11  1  0
 11 12  1  0
 12 13  1  0
 13 14  2  0
 13 15  1  0
 15 16  1  0
 16 17  2  0
 17 18  1  0
 18 19  2  0
 19 20  1  0
 20 21  2  0
 11 22  2  0
 22  7  1  0
 21 16  1  0
M  END
