CVD-0001482|dock_bobby27042020.95|mol2|13|dock2
     RDKit          3D

 21 22  0  0  0  0  0  0  0  0999 V2000
   13.9074   -1.7185   22.9819 C   0  0  0  0  0  0  0  0  0  0  0  0
   12.9584   -0.6633   23.4689 C   0  0  0  0  0  0  0  0  0  0  0  0
   13.3101    0.1849   24.2812 O   0  0  0  0  0  0  0  0  0  0  0  0
   11.6966   -0.6666   22.9744 N   0  0  0  0  0  0  0  0  0  0  0  0
   10.6879    0.3209   23.3647 C   0  0  0  0  0  0  0  0  0  0  0  0
    9.4329   -0.3716   23.8623 C   0  0  0  0  0  0  0  0  0  0  0  0
    8.8980   -1.2591   22.8255 N   0  0  0  0  0  0  0  0  0  0  0  0
    7.6599   -1.9023   23.2878 C   0  0  0  0  0  0  0  0  0  0  0  0
    7.1283   -2.9309   22.3154 C   0  0  0  0  0  0  0  0  0  0  0  0
    7.2322   -4.2789   22.6396 C   0  0  0  0  0  0  0  0  0  0  0  0
    6.7473   -5.2337   21.7740 C   0  0  0  0  0  0  0  0  0  0  0  0
    6.8788   -6.9223   22.1792 Cl  0  0  0  0  0  0  0  0  0  0  0  0
    6.1612   -4.8420   20.5930 C   0  0  0  0  0  0  0  0  0  0  0  0
    6.0412   -3.5573   20.2408 N   0  0  0  0  0  0  0  0  0  0  0  0
    6.5201   -2.6193   21.0818 C   0  0  0  0  0  0  0  0  0  0  0  0
    6.3937   -1.3416   20.6871 N   0  0  0  0  0  0  0  0  0  0  0  0
    5.6692   -0.9551   19.4878 C   0  0  0  0  0  0  0  0  0  0  0  0
    6.5363   -0.1573   18.5497 C   0  0  0  0  0  0  0  0  0  0  0  0
    5.8092    0.2858   17.4152 O   0  0  0  0  0  0  0  0  0  0  0  0
    9.9038   -2.2649   22.4938 C   0  0  0  0  0  0  0  0  0  0  0  0
   11.1722   -1.6082   21.9802 C   0  0  0  0  0  0  0  0  0  0  0  0
  1  2  1  0
  2  3  2  0
  2  4  1  0
  4  5  1  0
  5  6  1  0
  6  7  1  0
  7  8  1  0
  8  9  1  0
  9 10  2  0
 10 11  1  0
 11 12  1  0
 11 13  2  0
 13 14  1  0
 14 15  2  0
 15 16  1  0
 16 17  1  0
 17 18  1  0
 18 19  1  0
  7 20  1  0
 20 21  1  0
 21  4  1  0
 15  9  1  0
M  END
