CVD-0003857|dock_bobby27042020.15|mol2|19|dock1
     RDKit          3D

 33 37  0  0  0  0  0  0  0  0999 V2000
   13.7018    5.8341   21.9206 N   0  0  0  0  0  0  0  0  0  0  0  0
   13.2443    5.1511   23.2944 S   0  0  0  0  0  0  0  0  0  0  0  0
   12.3215    6.0462   23.9255 O   0  0  0  0  0  0  0  0  0  0  0  0
   14.4342    4.7752   23.9972 O   0  0  0  0  0  0  0  0  0  0  0  0
   12.3640    3.6664   22.9154 C   0  0  0  0  0  0  0  0  0  0  0  0
   12.1144    2.7393   23.9109 C   0  0  0  0  0  0  0  0  0  0  0  0
   11.4340    1.5738   23.6064 C   0  0  0  0  0  0  0  0  0  0  0  0
   10.9918    1.3126   22.3121 C   0  0  0  0  0  0  0  0  0  0  0  0
   11.2478    2.2652   21.3295 C   0  0  0  0  0  0  0  0  0  0  0  0
   11.9333    3.4308   21.6224 C   0  0  0  0  0  0  0  0  0  0  0  0
   10.3155    0.1321   22.0304 N   0  0  0  0  0  0  0  0  0  0  0  0
   10.9674   -1.1810   22.0444 C   0  0  0  0  0  0  0  0  0  0  0  0
   10.1483   -2.2105   22.7700 C   0  0  0  0  0  0  0  0  0  0  0  0
    8.7431   -2.3200   22.1676 C   0  0  0  0  0  0  0  0  0  0  0  0
    7.8996   -3.3640   22.8924 C   0  0  0  0  0  0  0  0  0  0  0  0
    6.4753   -3.4153   22.5358 N   0  0  0  0  0  0  0  0  0  0  0  0
    6.2723   -3.9415   21.1949 C   0  0  0  0  0  0  0  0  0  0  0  0
    6.6918   -5.4466   21.1207 C   0  0  0  0  0  0  0  0  0  0  0  0
    6.0036   -6.2844   22.2128 C   0  0  0  0  0  0  0  0  0  0  0  0
    6.1809   -5.6151   23.5745 C   0  0  0  0  0  0  0  0  0  0  0  0
    5.7122   -4.1689   23.5282 C   0  0  0  0  0  0  0  0  0  0  0  0
    5.4684   -6.3556   24.6827 C   0  0  0  0  0  0  0  0  0  0  0  0
    4.2806   -6.9980   24.4375 C   0  0  0  0  0  0  0  0  0  0  0  0
    3.5925   -7.6652   25.4363 C   0  0  0  0  0  0  0  0  0  0  0  0
    4.0783   -7.7118   26.7073 C   0  0  0  0  0  0  0  0  0  0  0  0
    5.3034   -7.0822   27.0305 C   0  0  0  0  0  0  0  0  0  0  0  0
    5.8412   -7.1132   28.3396 C   0  0  0  0  0  0  0  0  0  0  0  0
    7.0256   -6.5022   28.6223 C   0  0  0  0  0  0  0  0  0  0  0  0
    7.7272   -5.8421   27.6367 C   0  0  0  0  0  0  0  0  0  0  0  0
    7.2504   -5.7849   26.3610 C   0  0  0  0  0  0  0  0  0  0  0  0
    6.0184   -6.3952   26.0040 C   0  0  0  0  0  0  0  0  0  0  0  0
    8.1061   -0.9532   22.1745 C   0  0  0  0  0  0  0  0  0  0  0  0
    8.9441    0.0933   21.4717 C   0  0  0  0  0  0  0  0  0  0  0  0
  1  2  1  0
  2  3  2  0
  2  4  2  0
  2  5  1  0
  5  6  2  0
  6  7  1  0
  7  8  2  0
  8  9  1  0
  9 10  2  0
  8 11  1  0
 11 12  1  0
 12 13  1  0
 13 14  1  0
 14 15  1  0
 15 16  1  0
 16 17  1  0
 17 18  1  0
 18 19  1  0
 19 20  1  0
 20 21  1  0
 20 22  1  0
 22 23  2  0
 23 24  1  0
 24 25  2  0
 25 26  1  0
 26 27  2  0
 27 28  1  0
 28 29  2  0
 29 30  1  0
 30 31  2  0
 14 32  1  0
 32 33  1  0
 10  5  1  0
 33 11  1  0
 21 16  1  0
 31 22  1  0
 31 26  1  0
M  END
