CVD-0003923|dock_bobby27042020.58|mol2|15|dock3
     RDKit          3D

 31 34  0  0  0  0  0  0  0  0999 V2000
   14.3584    0.0705   22.9396 O   0  0  0  0  0  0  0  0  0  0  0  0
   13.9532   -1.2407   23.3420 C   0  0  0  0  0  0  0  0  0  0  0  0
   13.1046   -1.2228   24.6150 C   0  0  0  0  0  0  0  0  0  0  0  0
   11.7103   -0.6317   24.3861 C   0  0  0  0  0  0  0  0  0  0  0  0
   11.0058   -1.4119   23.2852 C   0  0  0  0  0  0  0  0  0  0  0  0
   11.8087   -1.4087   21.9878 C   0  0  0  0  0  0  0  0  0  0  0  0
   13.2076   -1.9734   22.2331 C   0  0  0  0  0  0  0  0  0  0  0  0
    9.6185   -0.9048   23.0626 N   0  0  0  0  0  0  0  0  0  0  0  0
    9.4441    0.4847   22.9575 C   0  0  0  0  0  0  0  0  0  0  0  0
   10.4076    1.1868   22.6851 O   0  0  0  0  0  0  0  0  0  0  0  0
    8.2083    1.0605   23.1545 N   0  0  0  0  0  0  0  0  0  0  0  0
    7.7828    2.4116   23.0406 C   0  0  0  0  0  0  0  0  0  0  0  0
    6.6018    2.7463   23.6950 C   0  0  0  0  0  0  0  0  0  0  0  0
    6.1008    4.0359   23.6433 C   0  0  0  0  0  0  0  0  0  0  0  0
    6.7689    5.0119   22.9392 C   0  0  0  0  0  0  0  0  0  0  0  0
    7.9403    4.6980   22.2872 C   0  0  0  0  0  0  0  0  0  0  0  0
    8.4517    3.4111   22.3331 C   0  0  0  0  0  0  0  0  0  0  0  0
    8.4768   -1.9049   22.9675 C   0  0  0  0  0  0  0  0  0  0  0  0
    8.8485   -3.2379   22.3192 C   0  0  0  0  0  0  0  0  0  0  0  0
    7.6441   -4.1577   22.2218 C   0  0  0  0  0  0  0  0  0  0  0  0
    6.9957   -4.3729   23.5739 C   0  0  0  0  0  0  0  0  0  0  0  0
    6.6153   -3.0490   24.2159 C   0  0  0  0  0  0  0  0  0  0  0  0
    7.8161   -2.1221   24.3249 C   0  0  0  0  0  0  0  0  0  0  0  0
    7.5610   -1.1729   22.0632 C   0  0  0  0  0  0  0  0  0  0  0  0
    6.9433   -0.5673   21.2406 C   0  0  0  0  0  0  0  0  0  0  0  0
    6.2062    0.2362   20.3015 C   0  0  0  0  0  0  0  0  0  0  0  0
    6.6778    0.4080   19.0039 C   0  0  0  0  0  0  0  0  0  0  0  0
    5.9355    1.1891   18.1356 C   0  0  0  0  0  0  0  0  0  0  0  0
    4.7645    1.7687   18.5725 C   0  0  0  0  0  0  0  0  0  0  0  0
    4.3733    1.5452   19.8733 C   0  0  0  0  0  0  0  0  0  0  0  0
    5.0639    0.7959   20.7434 N   0  0  0  0  0  0  0  0  0  0  0  0
  1  2  1  0
  2  3  1  0
  3  4  1  0
  4  5  1  0
  5  6  1  0
  6  7  1  0
  5  8  1  0
  8  9  1  0
  9 10  2  0
  9 11  1  0
 11 12  1  0
 12 13  2  0
 13 14  1  0
 14 15  2  0
 15 16  1  0
 16 17  2  0
  8 18  1  0
 18 19  1  0
 19 20  1  0
 20 21  1  0
 21 22  1  0
 22 23  1  0
 18 24  1  0
 24 25  3  0
 25 26  1  0
 26 27  2  0
 27 28  1  0
 28 29  2  0
 29 30  1  0
 30 31  2  0
  7  2  1  0
 17 12  1  0
 23 18  1  0
 31 26  1  0
M  END
