CVD-0003265|dock_bobby27042020.31|mol2|26|dock3
     RDKit          3D

 40 41  0  0  0  0  0  0  0  0999 V2000
    7.0852    6.2586   21.4378 N   0  0  0  0  0  0  0  0  0  0  0  0
    7.4558    5.4149   22.5919 C   0  0  0  0  0  0  0  0  0  0  0  0
    6.2645    4.9568   23.3588 C   0  0  0  0  0  0  0  0  0  0  0  0
    6.7555    4.1712   24.4385 O   0  0  0  0  0  0  0  0  0  0  0  0
    8.2231    4.1995   22.0923 C   0  0  0  0  0  0  0  0  0  0  0  0
    7.7348    3.4585   21.2432 O   0  0  0  0  0  0  0  0  0  0  0  0
    9.4312    3.9999   22.6266 N   0  0  0  0  0  0  0  0  0  0  0  0
   10.2715    2.8859   22.2190 C   0  0  0  0  0  0  0  0  0  0  0  0
   11.5797    2.8848   23.0243 C   0  0  0  0  0  0  0  0  0  0  0  0
   12.4633    4.0723   22.7284 C   0  0  0  0  0  0  0  0  0  0  0  0
   12.4631    5.1809   23.5608 C   0  0  0  0  0  0  0  0  0  0  0  0
   13.2761    6.2691   23.2913 C   0  0  0  0  0  0  0  0  0  0  0  0
   14.0998    6.2610   22.1863 C   0  0  0  0  0  0  0  0  0  0  0  0
   14.1107    5.1645   21.3512 C   0  0  0  0  0  0  0  0  0  0  0  0
   13.2975    4.0765   21.6212 C   0  0  0  0  0  0  0  0  0  0  0  0
    9.5450    1.5586   22.4164 C   0  0  0  0  0  0  0  0  0  0  0  0
    8.6972    1.4388   23.2969 O   0  0  0  0  0  0  0  0  0  0  0  0
    9.8822    0.5631   21.5916 N   0  0  0  0  0  0  0  0  0  0  0  0
    9.2164   -0.7281   21.6416 C   0  0  0  0  0  0  0  0  0  0  0  0
    9.5210   -1.4230   22.9790 C   0  0  0  0  0  0  0  0  0  0  0  0
   10.9715   -1.3612   23.3929 C   0  0  0  0  0  0  0  0  0  0  0  0
   11.8643   -2.3448   22.9963 C   0  0  0  0  0  0  0  0  0  0  0  0
   13.1956   -2.2867   23.3732 C   0  0  0  0  0  0  0  0  0  0  0  0
   13.6499   -1.2434   24.1507 C   0  0  0  0  0  0  0  0  0  0  0  0
   12.7731   -0.2580   24.5509 C   0  0  0  0  0  0  0  0  0  0  0  0
   11.4419   -0.3166   24.1737 C   0  0  0  0  0  0  0  0  0  0  0  0
    7.7109   -0.5582   21.4496 C   0  0  0  0  0  0  0  0  0  0  0  0
    6.9664   -0.5146   22.4254 O   0  0  0  0  0  0  0  0  0  0  0  0
    7.2619   -0.4555   20.1950 N   0  0  0  0  0  0  0  0  0  0  0  0
    5.8487   -0.2795   19.9031 C   0  0  0  0  0  0  0  0  0  0  0  0
    5.4312    1.1687   20.1761 C   0  0  0  0  0  0  0  0  0  0  0  0
    3.9286    1.4122   20.1389 C   0  0  0  0  0  0  0  0  0  0  0  0
    3.5985    2.8856   20.0044 C   0  0  0  0  0  0  0  0  0  0  0  0
    2.1646    3.1332   20.0514 N   0  0  0  0  0  0  0  0  0  0  0  0
    1.6081    4.3299   19.9200 C   0  0  0  0  0  0  0  0  0  0  0  0
    2.3858    5.3994   19.7308 N   0  0  0  0  0  0  0  0  0  0  0  0
    0.2949    4.4753   19.9743 N   0  0  0  0  0  0  0  0  0  0  0  0
    5.5680   -0.6588   18.4572 C   0  0  0  0  0  0  0  0  0  0  0  0
    5.5884   -1.9508   18.2491 O   0  0  0  0  0  0  0  0  0  0  0  0
    5.3554    0.1646   17.5945 O   0  0  0  0  0  0  0  0  0  0  0  0
  2  1  1  0
  2  3  1  0
  3  4  1  0
  2  5  1  0
  5  6  2  0
  5  7  1  0
  7  8  1  0
  8  9  1  0
  9 10  1  0
 10 11  2  0
 11 12  1  0
 12 13  2  0
 13 14  1  0
 14 15  2  0
  8 16  1  0
 16 17  2  0
 16 18  1  0
 18 19  1  0
 19 20  1  0
 20 21  1  0
 21 22  2  0
 22 23  1  0
 23 24  2  0
 24 25  1  0
 25 26  2  0
 19 27  1  0
 27 28  2  0
 27 29  1  0
 29 30  1  0
 30 31  1  0
 31 32  1  0
 32 33  1  0
 33 34  1  0
 34 35  1  0
 35 36  1  0
 35 37  2  0
 30 38  1  0
 38 39  1  0
 38 40  2  0
 15 10  1  0
 26 21  1  0
M  END
