CVD-0002528|dock_bobby27042020.5|mol2|22|dock2
     RDKit          3D

 28 30  0  0  0  0  0  0  0  0999 V2000
    7.8518    1.5758   22.2203 O   0  0  0  0  0  0  0  0  0  0  0  0
    7.4701    0.4266   22.0248 C   0  0  0  0  0  0  0  0  0  0  0  0
    5.9956    0.1010   21.9323 C   0  0  0  0  0  0  0  0  0  0  0  0
    5.4241    0.2469   20.5186 C   0  0  0  0  0  0  0  0  0  0  0  0
    5.4938    1.7107   20.0376 C   0  0  0  0  0  0  0  0  0  0  0  0
    4.9977    1.8771   18.6024 C   0  0  0  0  0  0  0  0  0  0  0  0
    5.7344    0.9448   17.6494 C   0  0  0  0  0  0  0  0  0  0  0  0
    5.6358   -0.5021   18.1111 C   0  0  0  0  0  0  0  0  0  0  0  0
    6.1696   -0.6662   19.5304 C   0  0  0  0  0  0  0  0  0  0  0  0
    8.2710   -0.6554   21.8679 N   0  0  0  0  0  0  0  0  0  0  0  0
    9.6819   -0.7882   21.8792 C   0  0  0  0  0  0  0  0  0  0  0  0
   10.3645   -1.8587   21.3035 C   0  0  0  0  0  0  0  0  0  0  0  0
   11.6954   -1.9824   21.3160 N   0  0  0  0  0  0  0  0  0  0  0  0
   12.4080   -1.0250   21.9139 C   0  0  0  0  0  0  0  0  0  0  0  0
   11.8200    0.0731   22.5087 C   0  0  0  0  0  0  0  0  0  0  0  0
   10.4407    0.1998   22.4972 C   0  0  0  0  0  0  0  0  0  0  0  0
   12.8047    1.3060   23.2897 S   0  0  0  0  0  0  0  0  0  0  0  0
   12.3917    1.3971   24.6567 O   0  0  0  0  0  0  0  0  0  0  0  0
   14.1757    1.0309   22.9857 O   0  0  0  0  0  0  0  0  0  0  0  0
   12.4492    2.7178   22.6008 N   0  0  0  0  0  0  0  0  0  0  0  0
   13.5136    3.6923   22.3323 C   0  0  0  0  0  0  0  0  0  0  0  0
   12.9325    5.0823   22.1459 C   0  0  0  0  0  0  0  0  0  0  0  0
   12.1070    5.5333   23.3266 C   0  0  0  0  0  0  0  0  0  0  0  0
   10.7669    5.8543   23.1744 C   0  0  0  0  0  0  0  0  0  0  0  0
   10.0099    6.2713   24.2566 C   0  0  0  0  0  0  0  0  0  0  0  0
   10.5846    6.3731   25.5051 C   0  0  0  0  0  0  0  0  0  0  0  0
   11.9160    6.0584   25.6707 C   0  0  0  0  0  0  0  0  0  0  0  0
   12.6722    5.6416   24.5879 C   0  0  0  0  0  0  0  0  0  0  0  0
  1  2  2  0
  2  3  1  0
  3  4  1  0
  4  5  1  0
  5  6  1  0
  6  7  1  0
  7  8  1  0
  8  9  1  0
  2 10  1  0
 10 11  1  0
 11 12  2  0
 12 13  1  0
 13 14  2  0
 14 15  1  0
 15 16  2  0
 15 17  1  0
 17 18  2  0
 17 19  2  0
 17 20  1  0
 20 21  1  0
 21 22  1  0
 22 23  1  0
 23 24  2  0
 24 25  1  0
 25 26  2  0
 26 27  1  0
 27 28  2  0
  9  4  1  0
 16 11  1  0
 28 23  1  0
M  END
