CVD-0003891|dock_bobby27042020.29|mol2|25|dock2
     RDKit          3D

 27 30  0  0  0  0  0  0  0  0999 V2000
    9.5835   -6.5851   26.6998 C   0  0  0  0  0  0  0  0  0  0  0  0
    9.1596   -5.3949   25.8742 C   0  0  0  0  0  0  0  0  0  0  0  0
    8.7152   -5.5504   24.5709 C   0  0  0  0  0  0  0  0  0  0  0  0
    8.3199   -4.4638   23.8110 C   0  0  0  0  0  0  0  0  0  0  0  0
    8.3522   -3.1786   24.3398 C   0  0  0  0  0  0  0  0  0  0  0  0
    8.8045   -3.0182   25.6464 C   0  0  0  0  0  0  0  0  0  0  0  0
    9.1972   -4.1121   26.3970 C   0  0  0  0  0  0  0  0  0  0  0  0
    7.9400   -2.0110   23.4939 C   0  0  0  0  0  0  0  0  0  0  0  0
    7.0567   -1.3002   23.9421 O   0  0  0  0  0  0  0  0  0  0  0  0
    8.4653   -1.6875   22.2338 N   0  0  0  0  0  0  0  0  0  0  0  0
    9.7781   -2.2856   21.9540 C   0  0  0  0  0  0  0  0  0  0  0  0
   10.9475   -1.3697   22.2892 C   0  0  0  0  0  0  0  0  0  0  0  0
   10.9784   -1.0336   23.7944 C   0  0  0  0  0  0  0  0  0  0  0  0
   12.1827   -0.1745   24.1752 C   0  0  0  0  0  0  0  0  0  0  0  0
   13.4876   -0.8175   23.7237 C   0  0  0  0  0  0  0  0  0  0  0  0
   13.4645   -1.1180   22.2320 C   0  0  0  0  0  0  0  0  0  0  0  0
   12.2813   -2.0086   21.8667 C   0  0  0  0  0  0  0  0  0  0  0  0
    7.8629   -0.9234   21.2394 C   0  0  0  0  0  0  0  0  0  0  0  0
    6.7798   -0.2140   21.4981 N   0  0  0  0  0  0  0  0  0  0  0  0
    6.4689    0.4106   20.3005 C   0  0  0  0  0  0  0  0  0  0  0  0
    5.4300    1.2789   19.9430 C   0  0  0  0  0  0  0  0  0  0  0  0
    4.3797    1.7098   20.9323 C   0  0  0  0  0  0  0  0  0  0  0  0
    5.4133    1.7342   18.6250 C   0  0  0  0  0  0  0  0  0  0  0  0
    6.3940    1.3236   17.7390 C   0  0  0  0  0  0  0  0  0  0  0  0
    7.3944    0.4924   18.0643 N   0  0  0  0  0  0  0  0  0  0  0  0
    7.3933    0.0666   19.3383 C   0  0  0  0  0  0  0  0  0  0  0  0
    8.2807   -0.7748   19.9499 N   0  0  0  0  0  0  0  0  0  0  0  0
  1  2  1  0
  2  3  2  0
  3  4  1  0
  4  5  2  0
  5  6  1  0
  6  7  2  0
  5  8  1  0
  8  9  2  0
  8 10  1  0
 10 11  1  0
 11 12  1  0
 12 13  1  0
 13 14  1  0
 14 15  1  0
 15 16  1  0
 16 17  1  0
 10 18  1  0
 18 19  2  0
 19 20  1  0
 20 21  2  0
 21 22  1  0
 21 23  1  0
 23 24  2  0
 24 25  1  0
 25 26  2  0
 26 27  1  0
  7  2  1  0
 17 12  1  0
 27 18  1  0
 26 20  1  0
M  END
