CVD-0001087|dock_bobby27042020.82|mol2|14|dock1
     RDKit          3D

 22 23  0  0  0  0  0  0  0  0999 V2000
   14.4616    6.0534   22.0610 C   0  0  0  0  0  0  0  0  0  0  0  0
   13.2891    5.1627   22.2635 C   0  0  0  0  0  0  0  0  0  0  0  0
   13.7637    3.8792   22.6878 O   0  0  0  0  0  0  0  0  0  0  0  0
   12.9251    2.7926   22.7262 C   0  0  0  0  0  0  0  0  0  0  0  0
   13.4750    1.5340   22.8959 C   0  0  0  0  0  0  0  0  0  0  0  0
   12.6537    0.4215   22.9385 C   0  0  0  0  0  0  0  0  0  0  0  0
   11.2723    0.5345   22.8148 C   0  0  0  0  0  0  0  0  0  0  0  0
   10.4070   -0.6500   22.8588 C   0  0  0  0  0  0  0  0  0  0  0  0
   10.7628   -1.9052   22.5932 C   0  0  0  0  0  0  0  0  0  0  0  0
    9.8608   -3.0745   22.6491 C   0  0  0  0  0  0  0  0  0  0  0  0
   10.1060   -3.9344   23.5025 O   0  0  0  0  0  0  0  0  0  0  0  0
    8.6916   -3.2838   21.7468 C   0  0  0  0  0  0  0  0  0  0  0  0
    7.8626   -4.4017   21.8840 C   0  0  0  0  0  0  0  0  0  0  0  0
    6.7673   -4.6382   21.0683 C   0  0  0  0  0  0  0  0  0  0  0  0
    5.9143   -5.8691   21.2564 C   0  0  0  0  0  0  0  0  0  0  0  0
    6.4711   -3.7142   20.0819 C   0  0  0  0  0  0  0  0  0  0  0  0
    7.2624   -2.5887   19.9208 C   0  0  0  0  0  0  0  0  0  0  0  0
    6.7684   -1.2131   18.4174 I   0  0  0  0  0  0  0  0  0  0  0  0
    8.3766   -2.3462   20.7285 C   0  0  0  0  0  0  0  0  0  0  0  0
    9.0955   -1.2116   20.4747 O   0  0  0  0  0  0  0  0  0  0  0  0
   10.7416    1.8102   22.6484 C   0  0  0  0  0  0  0  0  0  0  0  0
   11.5513    2.9314   22.6056 C   0  0  0  0  0  0  0  0  0  0  0  0
  1  2  1  0
  2  3  1  0
  3  4  1  0
  4  5  2  0
  5  6  1  0
  6  7  2  0
  7  8  1  0
  8  9  2  0
  9 10  1  0
 10 11  2  0
 10 12  1  0
 12 13  2  0
 13 14  1  0
 14 15  1  0
 14 16  2  0
 16 17  1  0
 17 18  1  0
 17 19  2  0
 19 20  1  0
  7 21  1  0
 21 22  2  0
 22  4  1  0
 19 12  1  0
M  END
