CVD-0003308|dock_bobby27042020.2|mol2|27|dock3
     RDKit          3D

 36 39  0  0  0  0  0  0  0  0999 V2000
    9.8281   -2.0422   20.5922 O   0  0  0  0  0  0  0  0  0  0  0  0
   10.0178   -1.1009   21.3525 C   0  0  0  0  0  0  0  0  0  0  0  0
    8.9082   -0.0753   21.5852 C   0  0  0  0  0  0  0  0  0  0  0  0
    7.7359   -0.4678   20.7914 N   0  0  0  0  0  0  0  0  0  0  0  0
    7.6463    0.2809   19.5472 C   0  0  0  0  0  0  0  0  0  0  0  0
    6.2377   -0.0221   19.0841 C   0  0  0  0  0  0  0  0  0  0  0  0
    5.4426    0.0268   20.3841 C   0  0  0  0  0  0  0  0  0  0  0  0
    6.4591   -0.2191   21.4954 C   0  0  0  0  0  0  0  0  0  0  0  0
    6.1407   -1.4192   22.3666 C   0  0  0  0  0  0  0  0  0  0  0  0
    7.2232   -1.6880   23.2483 O   0  0  0  0  0  0  0  0  0  0  0  0
    6.9835   -2.7669   24.1371 C   0  0  0  0  0  0  0  0  0  0  0  0
    6.9186   -4.1256   23.4711 C   0  0  0  0  0  0  0  0  0  0  0  0
    7.2356   -4.2234   22.2920 O   0  0  0  0  0  0  0  0  0  0  0  0
    6.4490   -5.3356   24.3163 C   0  0  0  0  0  0  0  0  0  0  0  0
    6.9930   -5.5023   25.4021 O   0  0  0  0  0  0  0  0  0  0  0  0
    5.4836   -6.1847   23.9016 N   0  0  0  0  0  0  0  0  0  0  0  0
    5.1016   -7.3194   24.7260 C   0  0  0  0  0  0  0  0  0  0  0  0
    3.6208   -7.3413   24.9398 C   0  0  0  0  0  0  0  0  0  0  0  0
    2.9479   -7.3383   23.6331 N   0  0  0  0  0  0  0  0  0  0  0  0
    3.2850   -6.1414   22.8484 C   0  0  0  0  0  0  0  0  0  0  0  0
    4.7679   -6.1052   22.6244 C   0  0  0  0  0  0  0  0  0  0  0  0
    1.4138   -7.8880   23.5845 S   0  0  0  0  0  0  0  0  0  0  0  0
    1.4934   -9.3157   23.5788 O   0  0  0  0  0  0  0  0  0  0  0  0
    0.7100   -7.2181   24.6336 O   0  0  0  0  0  0  0  0  0  0  0  0
    0.7243   -7.3735   22.0497 C   0  0  0  0  0  0  0  0  0  0  0  0
    0.0404   -6.1709   21.9757 C   0  0  0  0  0  0  0  0  0  0  0  0
   -0.4945   -5.7723   20.7621 C   0  0  0  0  0  0  0  0  0  0  0  0
   -0.3473   -6.5618   19.6415 C   0  0  0  0  0  0  0  0  0  0  0  0
    0.3364   -7.7561   19.7237 C   0  0  0  0  0  0  0  0  0  0  0  0
    0.8787   -8.1721   20.9281 C   0  0  0  0  0  0  0  0  0  0  0  0
   11.2013   -0.9444   21.9867 N   0  0  0  0  0  0  0  0  0  0  0  0
   12.3209   -1.8794   21.8254 C   0  0  0  0  0  0  0  0  0  0  0  0
   12.9075   -2.2203   23.1801 C   0  0  0  0  0  0  0  0  0  0  0  0
   13.3016   -1.0641   23.8910 O   0  0  0  0  0  0  0  0  0  0  0  0
   12.1785   -0.2068   24.0972 C   0  0  0  0  0  0  0  0  0  0  0  0
   11.5726    0.2300   22.7819 C   0  0  0  0  0  0  0  0  0  0  0  0
  1  2  2  0
  2  3  1  0
  3  4  1  0
  4  5  1  0
  5  6  1  0
  6  7  1  0
  7  8  1  0
  8  9  1  0
  9 10  1  0
 10 11  1  0
 11 12  1  0
 12 13  2  0
 12 14  1  0
 14 15  2  0
 14 16  1  0
 16 17  1  0
 17 18  1  0
 18 19  1  0
 19 20  1  0
 20 21  1  0
 19 22  1  0
 22 23  2  0
 22 24  2  0
 22 25  1  0
 25 26  2  0
 26 27  1  0
 27 28  2  0
 28 29  1  0
 29 30  2  0
  2 31  1  0
 31 32  1  0
 32 33  1  0
 33 34  1  0
 34 35  1  0
 35 36  1  0
  8  4  1  0
 21 16  1  0
 30 25  1  0
 36 31  1  0
M  END
