CVD-0000144|dock_bobby27042020.28|mol2|19|dock1
     RDKit          3D

 19 21  0  0  0  0  0  0  0  0999 V2000
   10.3244    2.4264   21.0481 O   0  0  0  0  0  0  0  0  0  0  0  0
   10.4877    2.2489   22.2516 C   0  0  0  0  0  0  0  0  0  0  0  0
   11.3405    2.9588   23.0332 N   0  0  0  0  0  0  0  0  0  0  0  0
   12.2186    4.0242   22.7134 C   0  0  0  0  0  0  0  0  0  0  0  0
   12.7769    4.1002   21.4435 C   0  0  0  0  0  0  0  0  0  0  0  0
   13.6111    5.0725   21.0677 N   0  0  0  0  0  0  0  0  0  0  0  0
   13.8841    5.9838   21.9947 C   0  0  0  0  0  0  0  0  0  0  0  0
   13.4207    6.0278   23.2392 N   0  0  0  0  0  0  0  0  0  0  0  0
   12.5890    5.0422   23.5875 C   0  0  0  0  0  0  0  0  0  0  0  0
    9.7042    1.1574   22.9601 C   0  0  0  0  0  0  0  0  0  0  0  0
    8.8733    0.2331   22.0877 C   0  0  0  0  0  0  0  0  0  0  0  0
    8.3945   -0.8053   23.0550 C   0  0  0  0  0  0  0  0  0  0  0  0
    9.5097   -0.9714   24.1171 C   0  0  0  0  0  0  0  0  0  0  0  0
   10.5356    0.1615   23.8235 C   0  0  0  0  0  0  0  0  0  0  0  0
   11.8110   -0.2996   23.1562 C   0  0  0  0  0  0  0  0  0  0  0  0
   11.8907   -1.3136   22.1573 C   0  0  0  0  0  0  0  0  0  0  0  0
   13.1548   -1.5589   21.7121 C   0  0  0  0  0  0  0  0  0  0  0  0
   14.2589   -0.5485   22.5154 S   0  0  0  0  0  0  0  0  0  0  0  0
   13.0473    0.1981   23.4452 C   0  0  0  0  0  0  0  0  0  0  0  0
  1  2  2  0
  2  3  1  0
  3  4  1  0
  4  5  2  0
  5  6  1  0
  6  7  2  0
  7  8  1  0
  8  9  2  0
 10  2  1  0
 10 11  1  0
 11 12  1  0
 12 13  1  0
 13 14  1  0
 14 15  1  0
 15 16  1  0
 16 17  2  0
 17 18  1  0
 18 19  1  0
  9  4  1  0
 14 10  1  0
 19 15  2  0
M  END
