CVD-0002759|dock_bobby27042020.90|mol2|17|dock3
     RDKit          3D

 20 22  0  0  0  0  0  0  0  0999 V2000
   14.1757   -1.3484   20.7495 N   0  0  0  0  0  0  0  0  0  0  0  0
   14.1140   -0.9985   22.0250 C   0  0  0  0  0  0  0  0  0  0  0  0
   14.4569    0.1165   22.4242 O   0  0  0  0  0  0  0  0  0  0  0  0
   13.6075   -2.0495   22.9929 C   0  0  0  0  0  0  0  0  0  0  0  0
   14.5034   -2.1026   24.2413 C   0  0  0  0  0  0  0  0  0  0  0  0
   13.5639   -1.9467   25.4355 C   0  0  0  0  0  0  0  0  0  0  0  0
   13.5051   -3.1235   26.2462 O   0  0  0  0  0  0  0  0  0  0  0  0
   12.3070   -1.7250   24.9625 C   0  0  0  0  0  0  0  0  0  0  0  0
   12.1592   -1.7683   23.5224 C   0  0  0  0  0  0  0  0  0  0  0  0
   11.5119   -0.5248   22.9603 C   0  0  0  0  0  0  0  0  0  0  0  0
   10.4757   -0.5348   22.0737 C   0  0  0  0  0  0  0  0  0  0  0  0
    9.9720    1.0448   21.6405 S   0  0  0  0  0  0  0  0  0  0  0  0
   11.1500    1.7663   22.6569 C   0  0  0  0  0  0  0  0  0  0  0  0
   11.8876    0.8096   23.2890 C   0  0  0  0  0  0  0  0  0  0  0  0
   11.2770    3.2259   22.7712 C   0  0  0  0  0  0  0  0  0  0  0  0
   10.1580    4.0499   22.8134 C   0  0  0  0  0  0  0  0  0  0  0  0
   10.3411    5.4144   22.9214 C   0  0  0  0  0  0  0  0  0  0  0  0
   11.5363    6.0011   22.9888 N   0  0  0  0  0  0  0  0  0  0  0  0
   12.6021    5.2014   22.9474 C   0  0  0  0  0  0  0  0  0  0  0  0
   12.5282    3.8266   22.8406 C   0  0  0  0  0  0  0  0  0  0  0  0
  1  2  1  0
  2  3  2  0
  4  2  1  0
  4  5  1  0
  5  6  1  0
  6  7  1  0
  6  8  1  0
  8  9  1  0
  9 10  1  0
 10 11  2  0
 11 12  1  0
 12 13  1  0
 13 14  2  0
 13 15  1  0
 15 16  2  0
 16 17  1  0
 17 18  2  0
 18 19  1  0
 19 20  2  0
  9  4  1  0
 14 10  1  0
 20 15  1  0
M  END
