CVD-0001521|dock_bobby27042020.9|mol2|26|dock2
     RDKit          3D

 28 32  0  0  0  0  0  0  0  0999 V2000
    9.4847    1.5916   20.7592 O   0  0  0  0  0  0  0  0  0  0  0  0
    9.2654    1.9033   21.9175 C   0  0  0  0  0  0  0  0  0  0  0  0
    8.8373    0.9703   22.8005 N   0  0  0  0  0  0  0  0  0  0  0  0
    8.6823   -0.4279   22.3280 C   0  0  0  0  0  0  0  0  0  0  0  0
    9.3220   -1.3915   23.2712 C   0  0  0  0  0  0  0  0  0  0  0  0
   10.8309   -1.1821   23.2744 C   0  0  0  0  0  0  0  0  0  0  0  0
   11.4605   -0.5717   24.3502 C   0  0  0  0  0  0  0  0  0  0  0  0
   12.8319   -0.3791   24.3513 C   0  0  0  0  0  0  0  0  0  0  0  0
   13.5902   -0.7935   23.2774 C   0  0  0  0  0  0  0  0  0  0  0  0
   12.9780   -1.4002   22.2017 C   0  0  0  0  0  0  0  0  0  0  0  0
   11.6067   -1.5933   22.1996 C   0  0  0  0  0  0  0  0  0  0  0  0
    8.7291   -1.2307   24.6479 C   0  0  0  0  0  0  0  0  0  0  0  0
    8.5791   -2.3208   25.5059 C   0  0  0  0  0  0  0  0  0  0  0  0
    8.0414   -2.1790   26.7733 C   0  0  0  0  0  0  0  0  0  0  0  0
    7.6414   -0.9355   27.2084 C   0  0  0  0  0  0  0  0  0  0  0  0
    7.7811    0.1588   26.3739 C   0  0  0  0  0  0  0  0  0  0  0  0
    8.3207    0.0249   25.0984 C   0  0  0  0  0  0  0  0  0  0  0  0
    8.4915    1.2588   24.2070 C   0  0  0  0  0  0  0  0  0  0  0  0
    9.4926    3.3408   22.3159 C   0  0  0  0  0  0  0  0  0  0  0  0
    8.4088    4.1790   22.4713 C   0  0  0  0  0  0  0  0  0  0  0  0
    8.5774    5.4929   22.8740 C   0  0  0  0  0  0  0  0  0  0  0  0
    9.8135    5.9985   23.1342 C   0  0  0  0  0  0  0  0  0  0  0  0
   10.9657    5.1933   22.9834 C   0  0  0  0  0  0  0  0  0  0  0  0
   12.2635    5.6938   23.2459 C   0  0  0  0  0  0  0  0  0  0  0  0
   13.3626    4.9065   23.0808 C   0  0  0  0  0  0  0  0  0  0  0  0
   13.2314    3.6054   22.6475 C   0  0  0  0  0  0  0  0  0  0  0  0
   12.0023    3.0789   22.3826 C   0  0  0  0  0  0  0  0  0  0  0  0
   10.8141    3.8407   22.5529 C   0  0  0  0  0  0  0  0  0  0  0  0
  1  2  2  0
  2  3  1  0
  3  4  1  0
  4  5  1  0
  5  6  1  0
  6  7  2  0
  7  8  1  0
  8  9  2  0
  9 10  1  0
 10 11  2  0
  5 12  1  0
 12 13  2  0
 13 14  1  0
 14 15  2  0
 15 16  1  0
 16 17  2  0
 17 18  1  0
  2 19  1  0
 19 20  2  0
 20 21  1  0
 21 22  2  0
 22 23  1  0
 23 24  2  0
 24 25  1  0
 25 26  2  0
 26 27  1  0
 27 28  2  0
 18  3  1  0
 28 19  1  0
 11  6  1  0
 17 12  1  0
 28 23  1  0
M  END
