CVD-0000403|dock_bobby27042020.70|mol2|18|dock3
     RDKit          3D

 24 26  0  0  0  0  0  0  0  0999 V2000
   12.6877    7.5265   26.9003 C   0  0  0  0  0  0  0  0  0  0  0  0
   11.9633    7.8688   25.6072 C   0  0  0  0  0  0  0  0  0  0  0  0
   11.3594    6.6622   24.9305 C   0  0  0  0  0  0  0  0  0  0  0  0
   10.1546    6.0904   25.2150 C   0  0  0  0  0  0  0  0  0  0  0  0
    9.9318    5.0129   24.4023 N   0  0  0  0  0  0  0  0  0  0  0  0
   11.0073    4.8642   23.5613 C   0  0  0  0  0  0  0  0  0  0  0  0
   11.2494    3.9160   22.5573 C   0  0  0  0  0  0  0  0  0  0  0  0
   10.2436    2.9578   22.3665 N   0  0  0  0  0  0  0  0  0  0  0  0
   10.2965    1.5989   22.0902 C   0  0  0  0  0  0  0  0  0  0  0  0
    9.1536    1.0025   21.5562 C   0  0  0  0  0  0  0  0  0  0  0  0
    9.1556   -0.3525   21.2614 C   0  0  0  0  0  0  0  0  0  0  0  0
    7.9363   -1.0305   20.6856 C   0  0  0  0  0  0  0  0  0  0  0  0
   10.3161   -1.0607   21.5205 C   0  0  0  0  0  0  0  0  0  0  0  0
   11.3896   -0.3918   22.0475 C   0  0  0  0  0  0  0  0  0  0  0  0
   11.4193    0.9129   22.3384 N   0  0  0  0  0  0  0  0  0  0  0  0
   12.9178   -1.2598   22.3944 S   0  0  0  0  0  0  0  0  0  0  0  0
   13.4394   -1.8664   21.0076 N   0  0  0  0  0  0  0  0  0  0  0  0
   13.8793   -0.2903   22.8266 O   0  0  0  0  0  0  0  0  0  0  0  0
   12.6056   -2.3622   23.2537 O   0  0  0  0  0  0  0  0  0  0  0  0
   12.4495    4.0098   21.8502 C   0  0  0  0  0  0  0  0  0  0  0  0
   13.3295    5.0177   22.1680 C   0  0  0  0  0  0  0  0  0  0  0  0
   14.4918    5.0877   21.4647 F   0  0  0  0  0  0  0  0  0  0  0  0
   13.1169    5.9583   23.1457 C   0  0  0  0  0  0  0  0  0  0  0  0
   11.9272    5.8858   23.8650 C   0  0  0  0  0  0  0  0  0  0  0  0
  1  2  1  0
  2  3  1  0
  3  4  2  0
  4  5  1  0
  5  6  1  0
  6  7  2  0
  7  8  1  0
  8  9  1  0
  9 10  2  0
 10 11  1  0
 11 12  1  0
 11 13  2  0
 13 14  1  0
 14 15  2  0
 14 16  1  0
 16 17  1  0
 16 18  2  0
 16 19  2  0
  7 20  1  0
 20 21  2  0
 21 22  1  0
 21 23  1  0
 23 24  2  0
 24  3  1  0
 24  6  1  0
 15  9  1  0
M  END
