CVD-0002000|dock_bobby27042020.65|mol2|15|dock2
     RDKit          3D

 19 21  0  0  0  0  0  0  0  0999 V2000
   13.0957   -1.9970   21.9814 C   0  0  0  0  0  0  0  0  0  0  0  0
   13.6294   -0.8124   22.7842 C   0  0  0  0  0  0  0  0  0  0  0  0
   13.8814   -1.2105   24.2268 C   0  0  0  0  0  0  0  0  0  0  0  0
   14.7403   -2.1893   24.3642 O   0  0  0  0  0  0  0  0  0  0  0  0
   13.3342   -0.6685   25.1618 O   0  0  0  0  0  0  0  0  0  0  0  0
   12.6964    0.3928   22.7704 C   0  0  0  0  0  0  0  0  0  0  0  0
   11.3200    0.1949   22.7531 C   0  0  0  0  0  0  0  0  0  0  0  0
   10.4299    1.2544   22.7474 C   0  0  0  0  0  0  0  0  0  0  0  0
   10.9277    2.5543   22.7603 C   0  0  0  0  0  0  0  0  0  0  0  0
   12.3202    2.7578   22.7773 C   0  0  0  0  0  0  0  0  0  0  0  0
   13.2067    1.6865   22.7813 C   0  0  0  0  0  0  0  0  0  0  0  0
   12.5797    4.1179   22.7879 N   0  0  0  0  0  0  0  0  0  0  0  0
   11.3929    4.8019   22.7781 C   0  0  0  0  0  0  0  0  0  0  0  0
   11.2373    6.1248   22.7836 N   0  0  0  0  0  0  0  0  0  0  0  0
    9.9941    6.6195   22.7720 N   0  0  0  0  0  0  0  0  0  0  0  0
    8.9713    5.7946   22.7557 C   0  0  0  0  0  0  0  0  0  0  0  0
    7.4075    6.5544   22.7419 Cl  0  0  0  0  0  0  0  0  0  0  0  0
    9.0451    4.4184   22.7489 C   0  0  0  0  0  0  0  0  0  0  0  0
   10.3264    3.8759   22.7607 C   0  0  0  0  0  0  0  0  0  0  0  0
  2  1  1  0
  2  3  1  0
  3  4  1  0
  3  5  2  0
  2  6  1  0
  6  7  2  0
  7  8  1  0
  8  9  2  0
  9 10  1  0
 10 11  2  0
 10 12  1  0
 12 13  1  0
 13 14  2  0
 14 15  1  0
 15 16  2  0
 16 17  1  0
 16 18  1  0
 18 19  2  0
 11  6  1  0
 19 13  1  0
 19  9  1  0
M  END
