CVD-0002062|dock_bobby27042020.7|mol2|31|dock3
     RDKit          3D

 34 37  0  0  0  0  0  0  0  0999 V2000
    9.2149   -5.2168   27.6346 C   0  0  0  0  0  0  0  0  0  0  0  0
    9.0994   -6.4004   26.7787 N   0  0  0  0  0  0  0  0  0  0  0  0
    9.9295   -6.3591   25.5700 C   0  0  0  0  0  0  0  0  0  0  0  0
    9.4228   -5.3427   24.5808 C   0  0  0  0  0  0  0  0  0  0  0  0
    9.9898   -4.0752   24.3563 C   0  0  0  0  0  0  0  0  0  0  0  0
    9.2759   -3.4071   23.3797 C   0  0  0  0  0  0  0  0  0  0  0  0
    9.5736   -2.0484   22.8664 C   0  0  0  0  0  0  0  0  0  0  0  0
   10.1621   -1.1484   23.7564 C   0  0  0  0  0  0  0  0  0  0  0  0
   10.4371    0.1676   23.4084 C   0  0  0  0  0  0  0  0  0  0  0  0
   11.0707    1.1076   24.4051 C   0  0  0  0  0  0  0  0  0  0  0  0
   10.5716    2.4666   24.3315 N   0  0  0  0  0  0  0  0  0  0  0  0
   11.3336    3.5347   23.9674 C   0  0  0  0  0  0  0  0  0  0  0  0
   11.0978    4.8061   24.4903 C   0  0  0  0  0  0  0  0  0  0  0  0
   11.9083    5.8486   24.0786 C   0  0  0  0  0  0  0  0  0  0  0  0
   12.9281    5.6107   23.1644 C   0  0  0  0  0  0  0  0  0  0  0  0
   13.0844    4.3081   22.7005 C   0  0  0  0  0  0  0  0  0  0  0  0
   12.3098    3.2885   23.0880 N   0  0  0  0  0  0  0  0  0  0  0  0
   13.7918    6.6739   22.7135 C   0  0  0  0  0  0  0  0  0  0  0  0
   14.4608    7.5367   22.3777 N   0  0  0  0  0  0  0  0  0  0  0  0
   10.1214    0.5952   22.1300 C   0  0  0  0  0  0  0  0  0  0  0  0
    9.5725   -0.2777   21.2096 C   0  0  0  0  0  0  0  0  0  0  0  0
    9.3388   -1.5803   21.5811 C   0  0  0  0  0  0  0  0  0  0  0  0
    8.8787   -2.4163   20.6253 F   0  0  0  0  0  0  0  0  0  0  0  0
    8.2179   -4.2784   23.0023 N   0  0  0  0  0  0  0  0  0  0  0  0
    8.3259   -5.4520   23.7383 C   0  0  0  0  0  0  0  0  0  0  0  0
    6.9400   -4.1075   21.8996 S   0  0  0  0  0  0  0  0  0  0  0  0
    7.3623   -4.6584   20.6497 O   0  0  0  0  0  0  0  0  0  0  0  0
    6.5750   -2.7265   21.9654 O   0  0  0  0  0  0  0  0  0  0  0  0
    5.5969   -5.0392   22.5526 C   0  0  0  0  0  0  0  0  0  0  0  0
    4.7201   -4.4649   23.4570 C   0  0  0  0  0  0  0  0  0  0  0  0
    3.6754   -5.2328   23.9416 C   0  0  0  0  0  0  0  0  0  0  0  0
    3.5504   -6.5323   23.5048 C   0  0  0  0  0  0  0  0  0  0  0  0
    4.3863   -7.0977   22.6327 N   0  0  0  0  0  0  0  0  0  0  0  0
    5.3925   -6.3510   22.1689 C   0  0  0  0  0  0  0  0  0  0  0  0
  1  2  1  0
  2  3  1  0
  3  4  1  0
  4  5  1  0
  5  6  2  0
  6  7  1  0
  7  8  2  0
  8  9  1  0
  9 10  1  0
 10 11  1  0
 11 12  1  0
 12 13  2  0
 13 14  1  0
 14 15  2  0
 15 16  1  0
 16 17  2  0
 15 18  1  0
 18 19  3  0
  9 20  2  0
 20 21  1  0
 21 22  2  0
 22 23  1  0
  6 24  1  0
 24 25  1  0
 24 26  1  0
 26 27  2  0
 26 28  2  0
 26 29  1  0
 29 30  2  0
 30 31  1  0
 31 32  2  0
 32 33  1  0
 33 34  2  0
 25  4  2  0
 34 29  1  0
 22  7  1  0
 17 12  1  0
M  END
