CVD-0001181|dock_bobby27042020.53|mol2|29|dock1
     RDKit          3D

 35 38  0  0  0  0  0  0  0  0999 V2000
   13.9005   -0.4440   22.3564 C   0  0  0  0  0  0  0  0  0  0  0  0
   12.8489    0.4915   22.9475 C   0  0  0  0  0  0  0  0  0  0  0  0
   13.0595    1.9279   22.4782 C   0  0  0  0  0  0  0  0  0  0  0  0
   12.1348    2.8155   23.1811 N   0  0  0  0  0  0  0  0  0  0  0  0
   12.3602    4.2218   22.8160 C   0  0  0  0  0  0  0  0  0  0  0  0
   11.6767    5.1914   23.7499 C   0  0  0  0  0  0  0  0  0  0  0  0
   12.2748    5.5667   24.9428 C   0  0  0  0  0  0  0  0  0  0  0  0
   11.6490    6.4579   25.7984 C   0  0  0  0  0  0  0  0  0  0  0  0
   10.4182    6.9844   25.4701 C   0  0  0  0  0  0  0  0  0  0  0  0
    9.8134    6.6203   24.2863 C   0  0  0  0  0  0  0  0  0  0  0  0
   10.4394    5.7290   23.4309 C   0  0  0  0  0  0  0  0  0  0  0  0
   10.7531    2.4433   22.8419 C   0  0  0  0  0  0  0  0  0  0  0  0
   10.4603    0.9978   23.1955 C   0  0  0  0  0  0  0  0  0  0  0  0
   11.4455    0.0110   22.5710 C   0  0  0  0  0  0  0  0  0  0  0  0
   11.1799   -1.3554   23.0073 N   0  0  0  0  0  0  0  0  0  0  0  0
    9.9952   -1.9414   22.7989 C   0  0  0  0  0  0  0  0  0  0  0  0
    9.0494   -1.3930   22.2348 O   0  0  0  0  0  0  0  0  0  0  0  0
    9.9048   -3.3785   23.3280 C   0  0  0  0  0  0  0  0  0  0  0  0
   10.8751   -3.9529   23.8199 O   0  0  0  0  0  0  0  0  0  0  0  0
    8.6979   -3.9285   23.2037 N   0  0  0  0  0  0  0  0  0  0  0  0
    8.4159   -5.2853   23.6484 C   0  0  0  0  0  0  0  0  0  0  0  0
    7.0094   -5.7378   23.3406 C   0  0  0  0  0  0  0  0  0  0  0  0
    6.6641   -6.0678   22.0325 C   0  0  0  0  0  0  0  0  0  0  0  0
    5.3838   -6.4808   21.7104 C   0  0  0  0  0  0  0  0  0  0  0  0
    4.4297   -6.5720   22.6982 C   0  0  0  0  0  0  0  0  0  0  0  0
    4.7557   -6.2511   24.0046 C   0  0  0  0  0  0  0  0  0  0  0  0
    6.0400   -5.8272   24.3490 C   0  0  0  0  0  0  0  0  0  0  0  0
    6.4119   -5.4658   25.7731 C   0  0  0  0  0  0  0  0  0  0  0  0
    7.0803   -4.1701   25.9725 N   0  0  0  0  0  0  0  0  0  0  0  0
    6.2021   -3.1609   25.3754 C   0  0  0  0  0  0  0  0  0  0  0  0
    6.8503   -1.8005   25.4937 C   0  0  0  0  0  0  0  0  0  0  0  0
    7.1073   -1.4698   26.9559 C   0  0  0  0  0  0  0  0  0  0  0  0
    7.8853   -2.5957   27.6163 C   0  0  0  0  0  0  0  0  0  0  0  0
    7.2253   -3.9597   27.4329 C   0  0  0  0  0  0  0  0  0  0  0  0
    8.0206   -5.0915   28.0637 C   0  0  0  0  0  0  0  0  0  0  0  0
  2  1  1  0
  2  3  1  0
  3  4  1  0
  4  5  1  0
  5  6  1  0
  6  7  2  0
  7  8  1  0
  8  9  2  0
  9 10  1  0
 10 11  2  0
  4 12  1  0
 12 13  1  0
 13 14  1  0
 14 15  1  0
 15 16  1  0
 16 17  2  0
 16 18  1  0
 18 19  2  0
 18 20  1  0
 20 21  1  0
 21 22  1  0
 22 23  2  0
 23 24  1  0
 24 25  2  0
 25 26  1  0
 26 27  2  0
 27 28  1  0
 28 29  1  0
 29 30  1  0
 30 31  1  0
 31 32  1  0
 32 33  1  0
 33 34  1  0
 34 35  1  0
 14  2  1  0
 27 22  1  0
 34 29  1  0
 11  6  1  0
M  END
