CVD-0002139|dock_bobby27042020.92|mol2|33|dock2
     RDKit          3D

 22 24  0  0  0  0  0  0  0  0999 V2000
    7.7748    1.0261   22.0716 N   0  0  0  0  0  0  0  0  0  0  0  0
    9.1443    0.4630   22.0972 C   0  0  0  0  0  0  0  0  0  0  0  0
    9.1726   -1.0540   21.9799 C   0  0  0  0  0  0  0  0  0  0  0  0
    9.0123   -1.5998   23.2901 O   0  0  0  0  0  0  0  0  0  0  0  0
    9.1132   -3.0308   23.2396 C   0  0  0  0  0  0  0  0  0  0  0  0
    7.9828   -3.6164   22.4515 C   0  0  0  0  0  0  0  0  0  0  0  0
    7.4577   -2.7481   21.3371 C   0  0  0  0  0  0  0  0  0  0  0  0
    6.4036   -3.1649   20.5086 C   0  0  0  0  0  0  0  0  0  0  0  0
    5.5065   -4.1211   20.9094 O   0  0  0  0  0  0  0  0  0  0  0  0
    6.0943   -2.4409   19.3557 C   0  0  0  0  0  0  0  0  0  0  0  0
    5.0171   -2.8059   18.6123 O   0  0  0  0  0  0  0  0  0  0  0  0
    6.8223   -1.3059   19.0186 C   0  0  0  0  0  0  0  0  0  0  0  0
    7.8588   -0.9008   19.8392 C   0  0  0  0  0  0  0  0  0  0  0  0
    8.1758   -1.6183   20.9947 C   0  0  0  0  0  0  0  0  0  0  0  0
    9.1757   -3.5282   24.6805 C   0  0  0  0  0  0  0  0  0  0  0  0
    8.0251   -3.0548   25.5674 C   0  0  0  0  0  0  0  0  0  0  0  0
    8.3226   -3.4499   27.0129 C   0  0  0  0  0  0  0  0  0  0  0  0
    8.5011   -4.9597   27.1485 C   0  0  0  0  0  0  0  0  0  0  0  0
    9.5631   -5.4696   26.1858 C   0  0  0  0  0  0  0  0  0  0  0  0
    9.5996   -6.8920   26.3104 O   0  0  0  0  0  0  0  0  0  0  0  0
    9.2548   -5.0575   24.7544 C   0  0  0  0  0  0  0  0  0  0  0  0
   10.2514   -5.6000   23.8928 O   0  0  0  0  0  0  0  0  0  0  0  0
  1  2  1  0
  2  3  1  0
  3  4  1  0
  4  5  1  0
  5  6  1  0
  6  7  1  0
  7  8  2  0
  8  9  1  0
  8 10  1  0
 10 11  1  0
 10 12  2  0
 12 13  1  0
 13 14  2  0
  5 15  1  0
 15 16  1  0
 16 17  1  0
 17 18  1  0
 18 19  1  0
 19 20  1  0
 19 21  1  0
 21 22  1  0
 14  3  1  0
 21 15  1  0
 14  7  1  0
M  END
