CVD-0003096|dock_bobby27042020.75|mol2|2|dock2
     RDKit          3D

 29 32  0  0  0  0  0  0  0  0999 V2000
    1.5106   -5.5480   23.6551 C   0  0  0  0  0  0  0  0  0  0  0  0
    2.9770   -5.5223   23.2989 C   0  0  0  0  0  0  0  0  0  0  0  0
    3.5071   -6.4229   22.3899 C   0  0  0  0  0  0  0  0  0  0  0  0
    4.8494   -6.4029   22.0563 C   0  0  0  0  0  0  0  0  0  0  0  0
    5.6914   -5.4688   22.6344 C   0  0  0  0  0  0  0  0  0  0  0  0
    7.0182   -5.4785   22.2801 O   0  0  0  0  0  0  0  0  0  0  0  0
    7.7798   -4.2761   22.3167 C   0  0  0  0  0  0  0  0  0  0  0  0
    7.1029   -3.2184   21.4621 C   0  0  0  0  0  0  0  0  0  0  0  0
    6.0971   -3.4859   20.8167 O   0  0  0  0  0  0  0  0  0  0  0  0
    7.6585   -1.9895   21.4594 N   0  0  0  0  0  0  0  0  0  0  0  0
    7.0856   -0.9039   20.6785 C   0  0  0  0  0  0  0  0  0  0  0  0
    8.1768   -0.1530   19.9432 C   0  0  0  0  0  0  0  0  0  0  0  0
    9.2417    0.2910   20.8449 N   0  0  0  0  0  0  0  0  0  0  0  0
    8.8080    1.3151   21.8036 C   0  0  0  0  0  0  0  0  0  0  0  0
   10.0309    1.8936   22.4710 C   0  0  0  0  0  0  0  0  0  0  0  0
   10.9997    0.8522   22.9511 C   0  0  0  0  0  0  0  0  0  0  0  0
   11.9188    1.1477   23.9566 C   0  0  0  0  0  0  0  0  0  0  0  0
   12.7775    0.1869   24.4598 C   0  0  0  0  0  0  0  0  0  0  0  0
   12.7195   -1.0991   23.9489 C   0  0  0  0  0  0  0  0  0  0  0  0
   11.8122   -1.4137   22.9480 C   0  0  0  0  0  0  0  0  0  0  0  0
   10.9506   -0.4452   22.4443 C   0  0  0  0  0  0  0  0  0  0  0  0
    9.8619   -0.8560   21.4726 C   0  0  0  0  0  0  0  0  0  0  0  0
    8.8475   -1.6626   22.2574 C   0  0  0  0  0  0  0  0  0  0  0  0
   13.8880   -2.3153   24.4785 S   0  0  0  0  0  0  0  0  0  0  0  0
   14.6582   -1.7526   25.7643 N   0  0  0  0  0  0  0  0  0  0  0  0
   13.1465   -3.4662   24.8990 O   0  0  0  0  0  0  0  0  0  0  0  0
   14.8573   -2.4604   23.4343 O   0  0  0  0  0  0  0  0  0  0  0  0
    5.1798   -4.5568   23.5464 C   0  0  0  0  0  0  0  0  0  0  0  0
    3.8340   -4.5935   23.8665 C   0  0  0  0  0  0  0  0  0  0  0  0
  1  2  1  0
  2  3  2  0
  3  4  1  0
  4  5  2  0
  5  6  1  0
  6  7  1  0
  7  8  1  0
  8  9  2  0
  8 10  1  0
 10 11  1  0
 11 12  1  0
 12 13  1  0
 13 14  1  0
 14 15  1  0
 15 16  1  0
 16 17  2  0
 17 18  1  0
 18 19  2  0
 19 20  1  0
 20 21  2  0
 21 22  1  0
 22 23  1  0
 19 24  1  0
 24 25  1  0
 24 26  2  0
 24 27  2  0
  5 28  1  0
 28 29  2  0
 29  2  1  0
 23 10  1  0
 22 13  1  0
 21 16  1  0
M  END
