CVD-0003949|dock_bobby27042020.86|mol2|17|dock1
     RDKit          3D

 17 18  0  0  0  0  0  0  0  0999 V2000
    5.7542    1.3080   17.4963 C   0  0  0  0  0  0  0  0  0  0  0  0
    6.1447    0.7443   18.8409 C   0  0  0  0  0  0  0  0  0  0  0  0
    5.2415    0.7329   19.8911 C   0  0  0  0  0  0  0  0  0  0  0  0
    5.5984    0.2134   21.1224 C   0  0  0  0  0  0  0  0  0  0  0  0
    6.8671   -0.3032   21.3174 C   0  0  0  0  0  0  0  0  0  0  0  0
    7.7912   -0.3047   20.2794 C   0  0  0  0  0  0  0  0  0  0  0  0
    9.0732   -0.8494   20.5466 N   0  0  0  0  0  0  0  0  0  0  0  0
    9.8068   -0.9012   21.7102 C   0  0  0  0  0  0  0  0  0  0  0  0
    9.4335   -0.4460   22.7861 O   0  0  0  0  0  0  0  0  0  0  0  0
   11.0146   -1.5304   21.5111 N   0  0  0  0  0  0  0  0  0  0  0  0
   12.0755   -1.8065   22.4108 C   0  0  0  0  0  0  0  0  0  0  0  0
   11.7636   -2.1220   23.7272 C   0  0  0  0  0  0  0  0  0  0  0  0
   12.7783   -2.3960   24.6272 C   0  0  0  0  0  0  0  0  0  0  0  0
   14.0799   -2.3470   24.1861 C   0  0  0  0  0  0  0  0  0  0  0  0
   14.4132   -2.0479   22.9307 N   0  0  0  0  0  0  0  0  0  0  0  0
   13.4264   -1.7846   22.0684 C   0  0  0  0  0  0  0  0  0  0  0  0
    7.4142    0.2230   19.0448 C   0  0  0  0  0  0  0  0  0  0  0  0
  1  2  1  0
  2  3  2  0
  3  4  1  0
  4  5  2  0
  5  6  1  0
  6  7  1  0
  7  8  1  0
  8  9  2  0
  8 10  1  0
 10 11  1  0
 11 12  2  0
 12 13  1  0
 13 14  2  0
 14 15  1  0
 15 16  2  0
  6 17  2  0
 17  2  1  0
 16 11  1  0
M  END
