CVD-0001319|dock_bobby27042020.10|mol2|9|dock1
     RDKit          3D

 24 26  0  0  0  0  0  0  0  0999 V2000
    8.6180   -2.4786   22.6829 O   0  0  0  0  0  0  0  0  0  0  0  0
    9.4663   -1.7653   22.1558 C   0  0  0  0  0  0  0  0  0  0  0  0
    9.1177   -0.8230   21.2679 N   0  0  0  0  0  0  0  0  0  0  0  0
    7.7306   -0.5977   20.8770 C   0  0  0  0  0  0  0  0  0  0  0  0
    7.6964   -0.1689   19.4246 C   0  0  0  0  0  0  0  0  0  0  0  0
    6.2435    0.0464   18.9673 C   0  0  0  0  0  0  0  0  0  0  0  0
    5.5241    1.0337   19.8598 C   0  0  0  0  0  0  0  0  0  0  0  0
    5.5841    0.6108   21.3248 C   0  0  0  0  0  0  0  0  0  0  0  0
    7.0119    0.3794   21.7980 C   0  0  0  0  0  0  0  0  0  0  0  0
    7.7264    1.6501   21.8467 N   0  0  0  0  0  0  0  0  0  0  0  0
    8.8408    1.8173   22.5732 C   0  0  0  0  0  0  0  0  0  0  0  0
    9.3111    0.8934   23.2303 O   0  0  0  0  0  0  0  0  0  0  0  0
    9.5261    3.1536   22.5853 C   0  0  0  0  0  0  0  0  0  0  0  0
   10.9141    3.2033   22.6430 C   0  0  0  0  0  0  0  0  0  0  0  0
   11.5408    4.4334   22.6544 C   0  0  0  0  0  0  0  0  0  0  0  0
   10.8922    5.5968   22.6131 N   0  0  0  0  0  0  0  0  0  0  0  0
    9.5616    5.5399   22.5576 C   0  0  0  0  0  0  0  0  0  0  0  0
    8.8384    4.3634   22.5413 C   0  0  0  0  0  0  0  0  0  0  0  0
   10.9125   -1.9561   22.5146 C   0  0  0  0  0  0  0  0  0  0  0  0
   11.9501   -1.8072   21.5965 C   0  0  0  0  0  0  0  0  0  0  0  0
   13.2663   -1.9951   21.9850 C   0  0  0  0  0  0  0  0  0  0  0  0
   13.5685   -2.3329   23.2862 C   0  0  0  0  0  0  0  0  0  0  0  0
   12.5535   -2.4842   24.2051 C   0  0  0  0  0  0  0  0  0  0  0  0
   11.2355   -2.2977   23.8237 C   0  0  0  0  0  0  0  0  0  0  0  0
  1  2  2  0
  2  3  1  0
  3  4  1  0
  4  5  1  0
  5  6  1  0
  6  7  1  0
  7  8  1  0
  8  9  1  0
  9 10  1  0
 10 11  1  0
 11 12  2  0
 11 13  1  0
 13 14  2  0
 14 15  1  0
 15 16  2  0
 16 17  1  0
 17 18  2  0
  2 19  1  0
 19 20  2  0
 20 21  1  0
 21 22  2  0
 22 23  1  0
 23 24  2  0
  9  4  1  0
 18 13  1  0
 24 19  1  0
M  END
