CVD-0002705|dock_bobby27042020.76|mol2|18|dock2
     RDKit          3D

 32 35  0  0  0  0  0  0  0  0999 V2000
    4.7277   -7.4389   23.2668 C   0  0  0  0  0  0  0  0  0  0  0  0
    4.9243   -6.2906   22.3213 C   0  0  0  0  0  0  0  0  0  0  0  0
    4.0373   -5.4720   22.1008 O   0  0  0  0  0  0  0  0  0  0  0  0
    6.1143   -6.2210   21.7213 N   0  0  0  0  0  0  0  0  0  0  0  0
    6.4521   -5.1764   20.7651 C   0  0  0  0  0  0  0  0  0  0  0  0
    6.3696   -3.7952   21.3852 C   0  0  0  0  0  0  0  0  0  0  0  0
    7.7002   -3.1070   21.4795 C   0  0  0  0  0  0  0  0  0  0  0  0
    8.1295   -2.0776   20.6955 C   0  0  0  0  0  0  0  0  0  0  0  0
    9.3949   -1.6999   21.0486 N   0  0  0  0  0  0  0  0  0  0  0  0
    9.8206   -2.4925   22.0861 C   0  0  0  0  0  0  0  0  0  0  0  0
   11.0481   -2.4944   22.7752 C   0  0  0  0  0  0  0  0  0  0  0  0
   11.1826   -3.4122   23.8189 C   0  0  0  0  0  0  0  0  0  0  0  0
   10.1696   -4.3045   24.1585 C   0  0  0  0  0  0  0  0  0  0  0  0
   10.3561   -5.2436   25.2336 C   0  0  0  0  0  0  0  0  0  0  0  0
   10.4883   -5.9665   26.1080 N   0  0  0  0  0  0  0  0  0  0  0  0
    8.9720   -4.2663   23.4370 C   0  0  0  0  0  0  0  0  0  0  0  0
    7.7211   -5.3648   23.8855 Cl  0  0  0  0  0  0  0  0  0  0  0  0
    8.7691   -3.3782   22.3894 C   0  0  0  0  0  0  0  0  0  0  0  0
   12.1714   -1.5842   22.4510 C   0  0  0  0  0  0  0  0  0  0  0  0
   12.9963   -1.8809   21.3726 N   0  0  0  0  0  0  0  0  0  0  0  0
   13.8556   -0.9285   21.3326 C   0  0  0  0  0  0  0  0  0  0  0  0
   13.7030    0.0123   22.2950 O   0  0  0  0  0  0  0  0  0  0  0  0
   12.6193   -0.4312   23.0092 C   0  0  0  0  0  0  0  0  0  0  0  0
   12.2487    0.4527   24.1748 C   0  0  0  0  0  0  0  0  0  0  0  0
   12.6005    1.8612   23.9517 C   0  0  0  0  0  0  0  0  0  0  0  0
   12.8465    3.0084   23.7383 C   0  0  0  0  0  0  0  0  0  0  0  0
   13.2107    4.3727   23.4756 C   0  0  0  0  0  0  0  0  0  0  0  0
   12.8994    5.3890   24.3717 C   0  0  0  0  0  0  0  0  0  0  0  0
   13.2694    6.6903   24.0791 C   0  0  0  0  0  0  0  0  0  0  0  0
   13.9384    6.9378   22.9018 C   0  0  0  0  0  0  0  0  0  0  0  0
   14.2516    5.9853   22.0221 N   0  0  0  0  0  0  0  0  0  0  0  0
   13.8895    4.7327   22.3148 C   0  0  0  0  0  0  0  0  0  0  0  0
  1  2  1  0
  2  3  2  0
  2  4  1  0
  4  5  1  0
  5  6  1  0
  6  7  1  0
  7  8  2  0
  8  9  1  0
  9 10  1  0
 10 11  2  0
 11 12  1  0
 12 13  2  0
 13 14  1  0
 14 15  3  0
 13 16  1  0
 16 17  1  0
 16 18  2  0
 11 19  1  0
 19 20  1  0
 20 21  2  0
 21 22  1  0
 22 23  1  0
 23 24  1  0
 24 25  1  0
 25 26  3  0
 26 27  1  0
 27 28  2  0
 28 29  1  0
 29 30  2  0
 30 31  1  0
 31 32  2  0
 18  7  1  0
 23 19  2  0
 32 27  1  0
 18 10  1  0
M  END
