CVD-0000630|dock_bobby27042020.98|mol2|2|dock2
     RDKit          3D

 22 24  0  0  0  0  0  0  0  0999 V2000
    8.6059    0.0551   22.4997 O   0  0  0  0  0  0  0  0  0  0  0  0
    9.2203   -0.6198   21.6803 C   0  0  0  0  0  0  0  0  0  0  0  0
   10.4694   -1.3930   22.0538 C   0  0  0  0  0  0  0  0  0  0  0  0
   10.8210   -1.4838   23.5620 C   0  0  0  0  0  0  0  0  0  0  0  0
   11.9344   -2.5139   23.7474 C   0  0  0  0  0  0  0  0  0  0  0  0
   13.2315   -2.0429   23.1136 C   0  0  0  0  0  0  0  0  0  0  0  0
   13.6514   -0.6872   23.6435 C   0  0  0  0  0  0  0  0  0  0  0  0
   12.5496    0.3416   23.4503 C   0  0  0  0  0  0  0  0  0  0  0  0
   11.2471   -0.1169   24.0876 C   0  0  0  0  0  0  0  0  0  0  0  0
    9.4579   -1.9020   24.1352 C   0  0  0  0  0  0  0  0  0  0  0  0
    8.8882   -3.1163   23.7655 C   0  0  0  0  0  0  0  0  0  0  0  0
    7.6639   -3.5258   24.2658 C   0  0  0  0  0  0  0  0  0  0  0  0
    6.9767   -2.7259   25.1514 C   0  0  0  0  0  0  0  0  0  0  0  0
    7.5162   -1.5168   25.5306 C   0  0  0  0  0  0  0  0  0  0  0  0
    8.7399   -1.1071   25.0273 C   0  0  0  0  0  0  0  0  0  0  0  0
    8.8770   -0.7612   20.3769 N   0  0  0  0  0  0  0  0  0  0  0  0
    7.8006   -0.2206   19.6308 C   0  0  0  0  0  0  0  0  0  0  0  0
    6.6127    0.2332   20.1956 C   0  0  0  0  0  0  0  0  0  0  0  0
    5.6238    0.7438   19.3724 C   0  0  0  0  0  0  0  0  0  0  0  0
    5.8463    0.7874   18.0154 C   0  0  0  0  0  0  0  0  0  0  0  0
    6.9732    0.3605   17.4459 N   0  0  0  0  0  0  0  0  0  0  0  0
    7.9214   -0.1306   18.2488 C   0  0  0  0  0  0  0  0  0  0  0  0
  1  2  2  0
  2  3  1  0
  3  4  1  0
  4  5  1  0
  5  6  1  0
  6  7  1  0
  7  8  1  0
  8  9  1  0
  4 10  1  0
 10 11  2  0
 11 12  1  0
 12 13  2  0
 13 14  1  0
 14 15  2  0
  2 16  1  0
 16 17  1  0
 17 18  2  0
 18 19  1  0
 19 20  2  0
 20 21  1  0
 21 22  2  0
  9  4  1  0
 15 10  1  0
 22 17  1  0
M  END
