CVD-0001781|dock_bobby27042020.51|mol2|23|dock1
     RDKit          3D

  6  6  0  0  0  0  0  0  0  0999 V2000
   13.5063   -0.3777   24.0055 C   0  0  0  0  0  0  0  0  0  0  0  0
   14.1274   -1.3459   24.7638 C   0  0  0  0  0  0  0  0  0  0  0  0
   14.4124   -2.5548   24.1707 C   0  0  0  0  0  0  0  0  0  0  0  0
   14.1181   -2.8355   22.9005 N   0  0  0  0  0  0  0  0  0  0  0  0
   13.5171   -1.8844   22.1841 C   0  0  0  0  0  0  0  0  0  0  0  0
   13.1932   -0.6465   22.6910 C   0  0  0  0  0  0  0  0  0  0  0  0
  1  2  2  0
  2  3  1  0
  3  4  2  0
  4  5  1  0
  5  6  2  0
  6  1  1  0
M  END
