CVD-0002476|dock_bobby27042020.5|mol2|30|dock2
     RDKit          3D

 29 32  0  0  0  0  0  0  0  0999 V2000
   11.8223    6.6074   27.2651 F   0  0  0  0  0  0  0  0  0  0  0  0
   11.3175    6.5485   25.9963 C   0  0  0  0  0  0  0  0  0  0  0  0
   10.0798    6.8284   25.6372 C   0  0  0  0  0  0  0  0  0  0  0  0
    9.6228    6.7604   24.2268 C   0  0  0  0  0  0  0  0  0  0  0  0
   10.6052    5.9504   23.3986 C   0  0  0  0  0  0  0  0  0  0  0  0
   11.9947    6.3328   23.6156 N   0  0  0  0  0  0  0  0  0  0  0  0
   12.9060    5.6111   22.7246 C   0  0  0  0  0  0  0  0  0  0  0  0
   12.5471    4.1633   22.5713 C   0  0  0  0  0  0  0  0  0  0  0  0
   11.5646    3.7738   21.8346 N   0  0  0  0  0  0  0  0  0  0  0  0
   11.4135    2.3887   21.8333 N   0  0  0  0  0  0  0  0  0  0  0  0
   12.2883    1.7643   22.5683 C   0  0  0  0  0  0  0  0  0  0  0  0
   13.3969    2.8572   23.3410 S   0  0  0  0  0  0  0  0  0  0  0  0
   12.3211    0.2946   22.7176 C   0  0  0  0  0  0  0  0  0  0  0  0
   13.4939   -0.2514   23.2504 C   0  0  0  0  0  0  0  0  0  0  0  0
   13.6286   -1.6138   23.4317 C   0  0  0  0  0  0  0  0  0  0  0  0
   12.6021   -2.4581   23.0876 C   0  0  0  0  0  0  0  0  0  0  0  0
   11.4268   -1.9574   22.5578 C   0  0  0  0  0  0  0  0  0  0  0  0
   11.2598   -0.5821   22.3622 C   0  0  0  0  0  0  0  0  0  0  0  0
   10.0640   -0.0293   21.8193 N   0  0  0  0  0  0  0  0  0  0  0  0
    9.2424   -0.4830   20.8093 C   0  0  0  0  0  0  0  0  0  0  0  0
    9.4186   -1.5116   20.1655 O   0  0  0  0  0  0  0  0  0  0  0  0
    8.1824    0.3728   20.6074 N   0  0  0  0  0  0  0  0  0  0  0  0
    7.1022    0.3134   19.6901 C   0  0  0  0  0  0  0  0  0  0  0  0
    5.8678    0.8101   20.0894 C   0  0  0  0  0  0  0  0  0  0  0  0
    4.7942    0.7666   19.2177 C   0  0  0  0  0  0  0  0  0  0  0  0
    4.9836    0.2267   17.9671 C   0  0  0  0  0  0  0  0  0  0  0  0
    6.1538   -0.2582   17.5526 N   0  0  0  0  0  0  0  0  0  0  0  0
    7.1852   -0.2119   18.4016 C   0  0  0  0  0  0  0  0  0  0  0  0
   12.3501    6.1229   25.0178 C   0  0  0  0  0  0  0  0  0  0  0  0
  1  2  1  0
  2  3  2  0
  3  4  1  0
  4  5  1  0
  5  6  1  0
  6  7  1  0
  7  8  1  0
  8  9  2  0
  9 10  1  0
 10 11  2  0
 11 12  1  0
 11 13  1  0
 13 14  2  0
 14 15  1  0
 15 16  2  0
 16 17  1  0
 17 18  2  0
 18 19  1  0
 19 20  1  0
 20 21  2  0
 20 22  1  0
 22 23  1  0
 23 24  2  0
 24 25  1  0
 25 26  2  0
 26 27  1  0
 27 28  2  0
  6 29  1  0
 29  2  1  0
 12  8  1  0
 18 13  1  0
 28 23  1  0
M  END
