CVD-0000217|dock_bobby27042020.42|mol2|21|dock2
     RDKit          3D

 27 31  0  0  0  0  0  0  0  0999 V2000
   13.2852   -0.3465   24.4052 C   0  0  0  0  0  0  0  0  0  0  0  0
   13.7366    0.2003   23.1252 N   0  0  0  0  0  0  0  0  0  0  0  0
   13.8391   -0.8314   22.0950 C   0  0  0  0  0  0  0  0  0  0  0  0
   12.5013   -1.5543   21.9716 C   0  0  0  0  0  0  0  0  0  0  0  0
   11.4036   -0.5678   21.7863 N   0  0  0  0  0  0  0  0  0  0  0  0
   11.4973    0.7493   22.2152 C   0  0  0  0  0  0  0  0  0  0  0  0
   12.8521    1.2430   22.6413 C   0  0  0  0  0  0  0  0  0  0  0  0
   10.3899    1.5291   22.1838 C   0  0  0  0  0  0  0  0  0  0  0  0
    9.1281    1.0695   21.7326 C   0  0  0  0  0  0  0  0  0  0  0  0
    8.0292    2.0262   21.7121 C   0  0  0  0  0  0  0  0  0  0  0  0
    8.0131    3.3843   21.8549 C   0  0  0  0  0  0  0  0  0  0  0  0
    6.6974    3.8213   21.7345 C   0  0  0  0  0  0  0  0  0  0  0  0
    6.2678    4.9633   21.8400 O   0  0  0  0  0  0  0  0  0  0  0  0
    5.8473    2.6025   21.4440 C   0  0  0  0  0  0  0  0  0  0  0  0
    6.8155    1.4975   21.5038 O   0  0  0  0  0  0  0  0  0  0  0  0
    9.0538   -0.2584   21.3050 C   0  0  0  0  0  0  0  0  0  0  0  0
    7.8301   -0.8705   20.7544 C   0  0  0  0  0  0  0  0  0  0  0  0
    7.2442   -2.0125   21.1852 C   0  0  0  0  0  0  0  0  0  0  0  0
    6.1095   -2.3421   20.4757 O   0  0  0  0  0  0  0  0  0  0  0  0
    5.9743   -1.3505   19.5388 C   0  0  0  0  0  0  0  0  0  0  0  0
    4.9817   -1.3345   18.6713 N   0  0  0  0  0  0  0  0  0  0  0  0
    4.9940   -0.3074   17.8097 C   0  0  0  0  0  0  0  0  0  0  0  0
    5.9587    0.6789   17.8045 C   0  0  0  0  0  0  0  0  0  0  0  0
    6.9814    0.6238   18.7389 C   0  0  0  0  0  0  0  0  0  0  0  0
    6.9971   -0.4284   19.6517 C   0  0  0  0  0  0  0  0  0  0  0  0
   10.2113   -1.1280   21.3210 C   0  0  0  0  0  0  0  0  0  0  0  0
   10.1937   -2.3259   21.0644 O   0  0  0  0  0  0  0  0  0  0  0  0
  1  2  1  0
  2  3  1  0
  3  4  1  0
  4  5  1  0
  5  6  1  0
  6  7  1  0
  6  8  2  0
  8  9  1  0
  9 10  1  0
 10 11  2  0
 11 12  1  0
 12 13  2  0
 12 14  1  0
 14 15  1  0
  9 16  2  0
 16 17  1  0
 17 18  2  0
 18 19  1  0
 19 20  1  0
 20 21  2  0
 21 22  1  0
 22 23  2  0
 23 24  1  0
 24 25  2  0
 16 26  1  0
 26 27  2  0
  7  2  1  0
 15 10  1  0
 25 17  1  0
 26  5  1  0
 25 20  1  0
M  END
