CVD-0000880|dock_bobby27042020.83|mol2|6|dock3
     RDKit          3D

 28 29  0  0  0  0  0  0  0  0999 V2000
    4.3527   -6.5125   22.7191 C   0  0  0  0  0  0  0  0  0  0  0  0
    5.8334   -6.2740   22.6709 C   0  0  0  0  0  0  0  0  0  0  0  0
    6.6070   -7.0916   22.1824 O   0  0  0  0  0  0  0  0  0  0  0  0
    6.2575   -5.1108   23.1766 N   0  0  0  0  0  0  0  0  0  0  0  0
    7.6629   -4.7313   23.1843 C   0  0  0  0  0  0  0  0  0  0  0  0
    7.7606   -3.2397   22.8323 C   0  0  0  0  0  0  0  0  0  0  0  0
    6.8166   -2.4839   23.0470 O   0  0  0  0  0  0  0  0  0  0  0  0
    8.9111   -2.8289   22.2916 N   0  0  0  0  0  0  0  0  0  0  0  0
    9.1465   -1.4398   21.9339 C   0  0  0  0  0  0  0  0  0  0  0  0
    8.7894   -1.2259   20.5414 N   0  0  0  0  0  0  0  0  0  0  0  0
    7.6037   -0.7315   20.1788 C   0  0  0  0  0  0  0  0  0  0  0  0
    6.7260   -0.4196   20.9777 O   0  0  0  0  0  0  0  0  0  0  0  0
    7.4138   -0.5903   18.6846 C   0  0  0  0  0  0  0  0  0  0  0  0
    5.7238   -0.3371   18.2295 Cl  0  0  0  0  0  0  0  0  0  0  0  0
   10.5966   -1.0684   22.1732 C   0  0  0  0  0  0  0  0  0  0  0  0
   10.9418   -0.0904   23.0951 C   0  0  0  0  0  0  0  0  0  0  0  0
   12.2693    0.2403   23.3097 C   0  0  0  0  0  0  0  0  0  0  0  0
   13.2707   -0.4051   22.6039 C   0  0  0  0  0  0  0  0  0  0  0  0
   12.9197   -1.3758   21.6913 C   0  0  0  0  0  0  0  0  0  0  0  0
   14.1690   -2.1959   20.7973 Cl  0  0  0  0  0  0  0  0  0  0  0  0
   11.6007   -1.7147   21.4682 C   0  0  0  0  0  0  0  0  0  0  0  0
    8.3208   -4.9430   24.5412 C   0  0  0  0  0  0  0  0  0  0  0  0
    9.0586   -6.0887   24.8029 C   0  0  0  0  0  0  0  0  0  0  0  0
    9.6561   -6.2885   26.0348 C   0  0  0  0  0  0  0  0  0  0  0  0
    9.5202   -5.3344   27.0305 C   0  0  0  0  0  0  0  0  0  0  0  0
   10.1073   -5.5252   28.2472 O   0  0  0  0  0  0  0  0  0  0  0  0
    8.7853   -4.1854   26.7849 C   0  0  0  0  0  0  0  0  0  0  0  0
    8.1927   -3.9975   25.5489 C   0  0  0  0  0  0  0  0  0  0  0  0
  1  2  1  0
  2  3  2  0
  2  4  1  0
  4  5  1  0
  5  6  1  0
  6  7  2  0
  6  8  1  0
  8  9  1  0
  9 10  1  0
 10 11  1  0
 11 12  2  0
 11 13  1  0
 13 14  1  0
  9 15  1  0
 15 16  2  0
 16 17  1  0
 17 18  2  0
 18 19  1  0
 19 20  1  0
 19 21  2  0
  5 22  1  0
 22 23  2  0
 23 24  1  0
 24 25  2  0
 25 26  1  0
 25 27  1  0
 27 28  2  0
 21 15  1  0
 28 22  1  0
M  END
