CVD-0000014|dock_bobby27042020.71|mol2|40|dock1
     RDKit          3D

 20 21  0  0  0  0  0  0  0  0999 V2000
   10.0785   -5.3179   25.9829 C   0  0  0  0  0  0  0  0  0  0  0  0
    9.2349   -4.2080   25.5315 N   0  0  0  0  0  0  0  0  0  0  0  0
    9.7166   -3.6185   24.2830 C   0  0  0  0  0  0  0  0  0  0  0  0
    8.6923   -2.6777   23.6703 C   0  0  0  0  0  0  0  0  0  0  0  0
    9.2239   -1.9589   22.4207 C   0  0  0  0  0  0  0  0  0  0  0  0
    8.1126   -1.0890   21.8300 C   0  0  0  0  0  0  0  0  0  0  0  0
    7.1435   -0.7574   22.5063 O   0  0  0  0  0  0  0  0  0  0  0  0
    8.3232   -0.7491   20.5343 N   0  0  0  0  0  0  0  0  0  0  0  0
    7.5466    0.0312   19.6422 C   0  0  0  0  0  0  0  0  0  0  0  0
    6.3709    0.6831   20.0003 C   0  0  0  0  0  0  0  0  0  0  0  0
    5.6890    1.4207   19.0477 C   0  0  0  0  0  0  0  0  0  0  0  0
    6.1965    1.4868   17.7706 C   0  0  0  0  0  0  0  0  0  0  0  0
    7.3197    0.8732   17.3982 N   0  0  0  0  0  0  0  0  0  0  0  0
    7.9704    0.1641   18.3249 C   0  0  0  0  0  0  0  0  0  0  0  0
   10.4420   -1.0945   22.7088 C   0  0  0  0  0  0  0  0  0  0  0  0
   11.6522   -1.3529   22.0802 C   0  0  0  0  0  0  0  0  0  0  0  0
   12.7674   -0.5740   22.3404 C   0  0  0  0  0  0  0  0  0  0  0  0
   12.6873    0.4730   23.2332 C   0  0  0  0  0  0  0  0  0  0  0  0
   11.4925    0.7415   23.8657 C   0  0  0  0  0  0  0  0  0  0  0  0
   10.3766   -0.0366   23.6057 C   0  0  0  0  0  0  0  0  0  0  0  0
  1  2  1  0
  2  3  1  0
  3  4  1  0
  4  5  1  0
  5  6  1  0
  6  7  2  0
  6  8  1  0
  8  9  1  0
  9 10  2  0
 10 11  1  0
 11 12  2  0
 12 13  1  0
 13 14  2  0
  5 15  1  0
 15 16  2  0
 16 17  1  0
 17 18  2  0
 18 19  1  0
 19 20  2  0
 14  9  1  0
 20 15  1  0
M  END
