CVD-0001199|dock_bobby27042020.96|mol2|9|dock1
     RDKit          3D

 27 30  0  0  0  0  0  0  0  0999 V2000
   12.3792    6.6006   25.7077 C   0  0  0  0  0  0  0  0  0  0  0  0
   12.8221    6.5538   24.2749 C   0  0  0  0  0  0  0  0  0  0  0  0
   13.2630    7.5435   23.6988 O   0  0  0  0  0  0  0  0  0  0  0  0
   12.6931    5.3773   23.6583 N   0  0  0  0  0  0  0  0  0  0  0  0
   13.0624    5.1770   22.2643 C   0  0  0  0  0  0  0  0  0  0  0  0
   13.4823    3.7465   21.9907 C   0  0  0  0  0  0  0  0  0  0  0  0
   12.4500    2.7418   22.4111 C   0  0  0  0  0  0  0  0  0  0  0  0
   11.1145    2.9529   22.5934 C   0  0  0  0  0  0  0  0  0  0  0  0
   10.4948    1.7951   22.9787 N   0  0  0  0  0  0  0  0  0  0  0  0
   11.4382    0.8001   23.0525 C   0  0  0  0  0  0  0  0  0  0  0  0
   11.2894   -0.5451   23.4010 C   0  0  0  0  0  0  0  0  0  0  0  0
    9.9415   -1.1147   23.7685 C   0  0  0  0  0  0  0  0  0  0  0  0
    9.4097   -2.0292   22.7689 N   0  0  0  0  0  0  0  0  0  0  0  0
    8.4358   -2.9078   23.0079 C   0  0  0  0  0  0  0  0  0  0  0  0
    7.7404   -3.1532   24.1720 C   0  0  0  0  0  0  0  0  0  0  0  0
    6.8020   -4.1964   23.8909 C   0  0  0  0  0  0  0  0  0  0  0  0
    5.8287   -4.8800   24.6358 C   0  0  0  0  0  0  0  0  0  0  0  0
    5.0649   -5.8703   24.0404 C   0  0  0  0  0  0  0  0  0  0  0  0
    5.2532   -6.1936   22.7115 C   0  0  0  0  0  0  0  0  0  0  0  0
    6.2065   -5.5371   21.9481 C   0  0  0  0  0  0  0  0  0  0  0  0
    6.9749   -4.5419   22.5446 C   0  0  0  0  0  0  0  0  0  0  0  0
    7.9779   -3.7359   22.0412 N   0  0  0  0  0  0  0  0  0  0  0  0
   12.4261   -1.3456   23.3924 C   0  0  0  0  0  0  0  0  0  0  0  0
   13.6358   -0.7886   23.0481 C   0  0  0  0  0  0  0  0  0  0  0  0
   14.7317   -1.5945   23.0490 F   0  0  0  0  0  0  0  0  0  0  0  0
   13.8072    0.5320   22.7029 C   0  0  0  0  0  0  0  0  0  0  0  0
   12.6822    1.3557   22.7023 C   0  0  0  0  0  0  0  0  0  0  0  0
  1  2  1  0
  2  3  2  0
  2  4  1  0
  4  5  1  0
  5  6  1  0
  6  7  1  0
  7  8  2  0
  8  9  1  0
  9 10  1  0
 10 11  2  0
 11 12  1  0
 12 13  1  0
 13 14  1  0
 14 15  2  0
 15 16  1  0
 16 17  2  0
 17 18  1  0
 18 19  2  0
 19 20  1  0
 20 21  2  0
 21 22  1  0
 11 23  1  0
 23 24  2  0
 24 25  1  0
 24 26  1  0
 26 27  2  0
 27  7  1  0
 27 10  1  0
 22 14  1  0
 21 16  1  0
M  END
