CVD-0003243|dock_bobby27042020.45|mol2|48|dock1
     RDKit          3D

 22 24  0  0  0  0  0  0  0  0999 V2000
   14.6915   -1.2814   24.2283 Cl  0  0  0  0  0  0  0  0  0  0  0  0
   13.6235   -2.2268   25.2738 C   0  0  0  0  0  0  0  0  0  0  0  0
   12.2796   -2.4678   24.6135 C   0  0  0  0  0  0  0  0  0  0  0  0
   11.9431   -3.5898   24.2557 O   0  0  0  0  0  0  0  0  0  0  0  0
   11.4861   -1.3899   24.4371 N   0  0  0  0  0  0  0  0  0  0  0  0
   11.8501   -0.0312   24.8448 C   0  0  0  0  0  0  0  0  0  0  0  0
   11.7644    0.9175   23.6636 C   0  0  0  0  0  0  0  0  0  0  0  0
   10.4119    0.9035   23.0988 N   0  0  0  0  0  0  0  0  0  0  0  0
   10.1334    1.9799   22.1369 C   0  0  0  0  0  0  0  0  0  0  0  0
   10.9687    3.2016   22.3852 C   0  0  0  0  0  0  0  0  0  0  0  0
   10.7301    4.1970   23.3061 C   0  0  0  0  0  0  0  0  0  0  0  0
   11.6867    5.2097   23.3044 C   0  0  0  0  0  0  0  0  0  0  0  0
   12.6488    4.9905   22.3891 C   0  0  0  0  0  0  0  0  0  0  0  0
   14.1317    6.0734   22.0271 Br  0  0  0  0  0  0  0  0  0  0  0  0
   12.4151    3.5411   21.5024 S   0  0  0  0  0  0  0  0  0  0  0  0
   10.0957   -0.4510   22.6526 C   0  0  0  0  0  0  0  0  0  0  0  0
   10.1602   -1.4279   23.8125 C   0  0  0  0  0  0  0  0  0  0  0  0
    8.7416   -0.4544   22.0231 C   0  0  0  0  0  0  0  0  0  0  0  0
    7.5478   -0.0276   22.5074 C   0  0  0  0  0  0  0  0  0  0  0  0
    6.5703   -0.2325   21.5628 N   0  0  0  0  0  0  0  0  0  0  0  0
    7.1782   -0.7765   20.5251 C   0  0  0  0  0  0  0  0  0  0  0  0
    8.4912   -0.9271   20.7634 N   0  0  0  0  0  0  0  0  0  0  0  0
  1  2  1  0
  2  3  1  0
  3  4  2  0
  3  5  1  0
  5  6  1  0
  6  7  1  0
  7  8  1  0
  8  9  1  0
  9 10  1  0
 10 11  2  0
 11 12  1  0
 12 13  2  0
 13 14  1  0
 13 15  1  0
  8 16  1  0
 16 17  1  0
 16 18  1  0
 18 19  2  0
 19 20  1  0
 20 21  2  0
 21 22  1  0
 17  5  1  0
 22 18  1  0
 15 10  1  0
M  END
