CVD-0004073|dock_bobby27042020.71|mol2|43|dock1
     RDKit          3D

 21 24  0  0  0  0  0  0  0  0999 V2000
    4.9379    0.9170   21.6833 C   0  0  0  0  0  0  0  0  0  0  0  0
    5.7187    0.2177   20.6022 C   0  0  0  0  0  0  0  0  0  0  0  0
    5.1618   -0.0211   19.3461 C   0  0  0  0  0  0  0  0  0  0  0  0
    5.9019   -0.6690   18.3724 C   0  0  0  0  0  0  0  0  0  0  0  0
    7.1584   -1.1008   18.5517 N   0  0  0  0  0  0  0  0  0  0  0  0
    7.6766   -0.8632   19.7680 C   0  0  0  0  0  0  0  0  0  0  0  0
    8.9203   -1.1856   20.2373 N   0  0  0  0  0  0  0  0  0  0  0  0
    8.9798   -0.7458   21.5163 C   0  0  0  0  0  0  0  0  0  0  0  0
   10.1982   -0.9183   22.3602 C   0  0  0  0  0  0  0  0  0  0  0  0
   11.0424    0.3308   22.4747 C   0  0  0  0  0  0  0  0  0  0  0  0
   12.4217    0.2320   22.5836 C   0  0  0  0  0  0  0  0  0  0  0  0
   13.2081    1.3393   22.6851 C   0  0  0  0  0  0  0  0  0  0  0  0
   12.6411    2.6356   22.6819 C   0  0  0  0  0  0  0  0  0  0  0  0
   13.4105    3.8190   22.7848 C   0  0  0  0  0  0  0  0  0  0  0  0
   12.8075    5.0418   22.7758 C   0  0  0  0  0  0  0  0  0  0  0  0
   11.4368    5.1528   22.6666 C   0  0  0  0  0  0  0  0  0  0  0  0
   10.6532    4.0417   22.5650 C   0  0  0  0  0  0  0  0  0  0  0  0
   11.2325    2.7505   22.5698 C   0  0  0  0  0  0  0  0  0  0  0  0
   10.4600    1.5709   22.4670 C   0  0  0  0  0  0  0  0  0  0  0  0
    7.8668   -0.1573   21.9135 N   0  0  0  0  0  0  0  0  0  0  0  0
    7.0301   -0.2274   20.8093 C   0  0  0  0  0  0  0  0  0  0  0  0
  1  2  1  0
  2  3  2  0
  3  4  1  0
  4  5  2  0
  5  6  1  0
  6  7  1  0
  7  8  1  0
  8  9  1  0
  9 10  1  0
 10 11  2  0
 11 12  1  0
 12 13  2  0
 13 14  1  0
 14 15  2  0
 15 16  1  0
 16 17  2  0
 17 18  1  0
 18 19  2  0
  8 20  2  0
 20 21  1  0
 21  2  1  0
 21  6  2  0
 19 10  1  0
 18 13  1  0
M  END
