CVD-0002376|dock_bobby27042020.20|mol2|20|dock3
     RDKit          3D

 38 42  0  0  0  0  0  0  0  0999 V2000
   12.8348    0.4388   24.7180 C   0  0  0  0  0  0  0  0  0  0  0  0
   11.9597    1.1324   23.7780 N   0  0  0  0  0  0  0  0  0  0  0  0
   10.6762    0.4634   23.4229 C   0  0  0  0  0  0  0  0  0  0  0  0
    9.4557    1.3531   23.6993 C   0  0  0  0  0  0  0  0  0  0  0  0
    9.7043    2.4004   24.7730 C   0  0  0  0  0  0  0  0  0  0  0  0
   10.8912    3.2269   24.3594 C   0  0  0  0  0  0  0  0  0  0  0  0
   10.9022    4.6165   24.3945 C   0  0  0  0  0  0  0  0  0  0  0  0
   11.9769    5.3347   23.9093 C   0  0  0  0  0  0  0  0  0  0  0  0
   13.0573    4.6503   23.3808 C   0  0  0  0  0  0  0  0  0  0  0  0
   13.0815    3.2630   23.3293 C   0  0  0  0  0  0  0  0  0  0  0  0
   11.9896    2.5510   23.8229 C   0  0  0  0  0  0  0  0  0  0  0  0
   14.4741    5.5510   22.8285 S   0  0  0  0  0  0  0  0  0  0  0  0
   14.1845    7.1147   23.0126 N   0  0  0  0  0  0  0  0  0  0  0  0
   14.6141    5.3086   21.4240 O   0  0  0  0  0  0  0  0  0  0  0  0
   15.5603    5.2160   23.6999 O   0  0  0  0  0  0  0  0  0  0  0  0
   10.6898    0.0826   22.0255 N   0  0  0  0  0  0  0  0  0  0  0  0
   10.9269   -1.3297   21.7490 C   0  0  0  0  0  0  0  0  0  0  0  0
    9.6393   -2.1085   21.6837 C   0  0  0  0  0  0  0  0  0  0  0  0
    9.1849   -3.0118   22.6600 C   0  0  0  0  0  0  0  0  0  0  0  0
    7.9604   -3.5424   22.2927 C   0  0  0  0  0  0  0  0  0  0  0  0
    7.1556   -4.5282   23.0640 C   0  0  0  0  0  0  0  0  0  0  0  0
    6.4772   -5.5689   22.4239 C   0  0  0  0  0  0  0  0  0  0  0  0
    5.7329   -6.4920   23.1392 C   0  0  0  0  0  0  0  0  0  0  0  0
    5.6264   -6.3950   24.5074 C   0  0  0  0  0  0  0  0  0  0  0  0
    6.2718   -5.3711   25.1742 C   0  0  0  0  0  0  0  0  0  0  0  0
    7.0182   -4.4739   24.4474 C   0  0  0  0  0  0  0  0  0  0  0  0
    7.6402   -3.5048   25.1573 F   0  0  0  0  0  0  0  0  0  0  0  0
    7.6521   -2.9474   21.0353 N   0  0  0  0  0  0  0  0  0  0  0  0
    8.6776   -2.0773   20.6864 C   0  0  0  0  0  0  0  0  0  0  0  0
    6.3433   -3.1120   19.9676 S   0  0  0  0  0  0  0  0  0  0  0  0
    5.1966   -3.5055   20.7255 O   0  0  0  0  0  0  0  0  0  0  0  0
    6.8194   -3.9718   18.9290 O   0  0  0  0  0  0  0  0  0  0  0  0
    6.0865   -1.5222   19.2568 C   0  0  0  0  0  0  0  0  0  0  0  0
    5.9550   -0.4065   20.0658 C   0  0  0  0  0  0  0  0  0  0  0  0
    5.7594    0.8248   19.4645 C   0  0  0  0  0  0  0  0  0  0  0  0
    5.7050    0.8900   18.0906 C   0  0  0  0  0  0  0  0  0  0  0  0
    5.8319   -0.1761   17.2991 N   0  0  0  0  0  0  0  0  0  0  0  0
    6.0206   -1.3616   17.8858 C   0  0  0  0  0  0  0  0  0  0  0  0
  1  2  1  0
  2  3  1  0
  3  4  1  0
  4  5  1  0
  5  6  1  0
  6  7  2  0
  7  8  1  0
  8  9  2  0
  9 10  1  0
 10 11  2  0
  9 12  1  0
 12 13  1  0
 12 14  2  0
 12 15  2  0
  3 16  1  0
 16 17  1  0
 17 18  1  0
 18 19  1  0
 19 20  2  0
 20 21  1  0
 21 22  2  0
 22 23  1  0
 23 24  2  0
 24 25  1  0
 25 26  2  0
 26 27  1  0
 20 28  1  0
 28 29  1  0
 28 30  1  0
 30 31  2  0
 30 32  2  0
 30 33  1  0
 33 34  2  0
 34 35  1  0
 35 36  2  0
 36 37  1  0
 37 38  2  0
 11  2  1  0
 29 18  2  0
 38 33  1  0
 11  6  1  0
 26 21  1  0
M  END
