CVD-0002179|dock_bobby27042020.50|mol2|1|dock2
     RDKit          3D

 25 27  0  0  0  0  0  0  0  0999 V2000
    5.8067   -0.4080   17.3946 O   0  0  0  0  0  0  0  0  0  0  0  0
    5.7943    0.0171   18.7601 C   0  0  0  0  0  0  0  0  0  0  0  0
    5.2459    1.4510   18.8657 C   0  0  0  0  0  0  0  0  0  0  0  0
    5.3984    2.0244   20.3130 C   0  0  0  0  0  0  0  0  0  0  0  0
    6.7722    1.8995   20.7749 N   0  0  0  0  0  0  0  0  0  0  0  0
    6.9528    2.6273   22.0377 C   0  0  0  0  0  0  0  0  0  0  0  0
    6.4862    4.0595   21.9686 C   0  0  0  0  0  0  0  0  0  0  0  0
    5.2063    4.5141   22.3714 C   0  0  0  0  0  0  0  0  0  0  0  0
    5.0094    5.8539   22.2248 C   0  0  0  0  0  0  0  0  0  0  0  0
    6.4094    6.5715   21.5852 S   0  0  0  0  0  0  0  0  0  0  0  0
    7.2487    5.0944   21.5185 C   0  0  0  0  0  0  0  0  0  0  0  0
    7.2150    0.5070   20.7681 C   0  0  0  0  0  0  0  0  0  0  0  0
    7.2007   -0.0495   19.3527 C   0  0  0  0  0  0  0  0  0  0  0  0
    8.8419    0.3890   21.4616 S   0  0  0  0  0  0  0  0  0  0  0  0
    8.6897    0.5326   22.8811 O   0  0  0  0  0  0  0  0  0  0  0  0
    9.6560    1.3301   20.7474 O   0  0  0  0  0  0  0  0  0  0  0  0
    9.4368   -1.0839   21.1800 N   0  0  0  0  0  0  0  0  0  0  0  0
    9.0054   -2.2183   22.0056 C   0  0  0  0  0  0  0  0  0  0  0  0
    9.9117   -2.3774   23.2130 C   0  0  0  0  0  0  0  0  0  0  0  0
   11.1420   -1.5057   23.1384 C   0  0  0  0  0  0  0  0  0  0  0  0
   11.3369   -0.4742   24.0439 C   0  0  0  0  0  0  0  0  0  0  0  0
   12.4639    0.3277   23.9739 C   0  0  0  0  0  0  0  0  0  0  0  0
   13.4100    0.1082   22.9961 C   0  0  0  0  0  0  0  0  0  0  0  0
   13.2285   -0.9129   22.0885 C   0  0  0  0  0  0  0  0  0  0  0  0
   12.1013   -1.7142   22.1593 C   0  0  0  0  0  0  0  0  0  0  0  0
  1  2  1  0
  2  3  1  0
  3  4  1  0
  4  5  1  0
  5  6  1  0
  6  7  1  0
  7  8  1  0
  8  9  2  0
  9 10  1  0
 10 11  1  0
  5 12  1  0
 12 13  1  0
 12 14  1  0
 14 15  2  0
 14 16  2  0
 14 17  1  0
 17 18  1  0
 18 19  1  0
 19 20  1  0
 20 21  2  0
 21 22  1  0
 22 23  2  0
 23 24  1  0
 24 25  2  0
 13  2  1  0
 25 20  1  0
 11  7  2  0
M  END
