CVD-0003409|dock_bobby27042020.59|mol2|47|dock2
     RDKit          3D

 27 28  0  0  0  0  0  0  0  0999 V2000
    9.9788   -2.8405   23.2027 C   0  0  0  0  0  0  0  0  0  0  0  0
    8.5622   -3.2972   23.3593 C   0  0  0  0  0  0  0  0  0  0  0  0
    7.6250   -2.2067   23.1461 N   0  0  0  0  0  0  0  0  0  0  0  0
    7.3522   -1.7149   21.9243 C   0  0  0  0  0  0  0  0  0  0  0  0
    6.5020   -2.4761   21.2084 N   0  0  0  0  0  0  0  0  0  0  0  0
    6.1244   -2.0361   20.0060 C   0  0  0  0  0  0  0  0  0  0  0  0
    6.5806   -0.8504   19.4475 C   0  0  0  0  0  0  0  0  0  0  0  0
    7.4875   -0.0778   20.1653 C   0  0  0  0  0  0  0  0  0  0  0  0
    7.9002   -0.5064   21.4277 C   0  0  0  0  0  0  0  0  0  0  0  0
    8.8402    0.2259   22.2036 N   0  0  0  0  0  0  0  0  0  0  0  0
    9.5258    1.3619   21.9211 C   0  0  0  0  0  0  0  0  0  0  0  0
    9.4652    2.0155   20.8837 O   0  0  0  0  0  0  0  0  0  0  0  0
   10.4505    1.8250   23.0565 C   0  0  0  0  0  0  0  0  0  0  0  0
   10.9389    3.1574   22.7320 N   0  0  0  0  0  0  0  0  0  0  0  0
   12.1294    3.3350   22.1401 C   0  0  0  0  0  0  0  0  0  0  0  0
   12.8425    2.3638   21.8505 O   0  0  0  0  0  0  0  0  0  0  0  0
   12.5757    4.7194   21.8388 C   0  0  0  0  0  0  0  0  0  0  0  0
   13.7904    5.0670   21.4962 C   0  0  0  0  0  0  0  0  0  0  0  0
   11.5734    0.8065   23.1995 C   0  0  0  0  0  0  0  0  0  0  0  0
   12.3893    0.7578   24.3176 C   0  0  0  0  0  0  0  0  0  0  0  0
   13.3862   -0.1170   24.4825 N   0  0  0  0  0  0  0  0  0  0  0  0
   13.6115   -1.0015   23.5055 C   0  0  0  0  0  0  0  0  0  0  0  0
   12.8547   -1.0429   22.3382 C   0  0  0  0  0  0  0  0  0  0  0  0
   13.1141   -1.9663   21.3526 N   0  0  0  0  0  0  0  0  0  0  0  0
   11.8226   -0.1169   22.1977 C   0  0  0  0  0  0  0  0  0  0  0  0
    6.1277   -0.4236   18.1466 C   0  0  0  0  0  0  0  0  0  0  0  0
    5.7984   -0.0949   17.1034 N   0  0  0  0  0  0  0  0  0  0  0  0
  1  2  1  0
  2  3  1  0
  3  4  1  0
  4  5  2  0
  5  6  1  0
  6  7  2  0
  7  8  1  0
  8  9  2  0
  9 10  1  0
 10 11  1  0
 11 12  2  0
 11 13  1  0
 13 14  1  0
 14 15  1  0
 15 16  2  0
 15 17  1  0
 17 18  2  0
 13 19  1  0
 19 20  2  0
 20 21  1  0
 21 22  2  0
 22 23  1  0
 23 24  1  0
 23 25  2  0
  7 26  1  0
 26 27  3  0
  9  4  1  0
 25 19  1  0
M  END
