CVD-0000943|dock_bobby27042020.82|mol2|37|dock2
     RDKit          3D

 25 28  0  0  0  0  0  0  0  0999 V2000
   13.1243    6.3405   23.0126 F   0  0  0  0  0  0  0  0  0  0  0  0
   12.7262    5.0574   22.7987 C   0  0  0  0  0  0  0  0  0  0  0  0
   11.3877    4.7961   22.6953 C   0  0  0  0  0  0  0  0  0  0  0  0
   10.9859    3.4907   22.4757 C   0  0  0  0  0  0  0  0  0  0  0  0
   11.9272    2.4816   22.3640 C   0  0  0  0  0  0  0  0  0  0  0  0
   11.4928    1.1905   22.1457 O   0  0  0  0  0  0  0  0  0  0  0  0
   10.9100    0.4269   23.1900 C   0  0  0  0  0  0  0  0  0  0  0  0
   11.8032    0.5029   24.4100 C   0  0  0  0  0  0  0  0  0  0  0  0
   13.0945   -0.2430   24.2469 C   0  0  0  0  0  0  0  0  0  0  0  0
   13.1265   -1.3294   23.4545 C   0  0  0  0  0  0  0  0  0  0  0  0
   11.8318   -1.8496   22.9076 C   0  0  0  0  0  0  0  0  0  0  0  0
   11.7438   -3.0376   22.6008 O   0  0  0  0  0  0  0  0  0  0  0  0
   10.7971   -0.9824   22.7646 N   0  0  0  0  0  0  0  0  0  0  0  0
    9.6058   -1.3336   22.1595 C   0  0  0  0  0  0  0  0  0  0  0  0
    8.7941   -2.4241   22.4074 C   0  0  0  0  0  0  0  0  0  0  0  0
    7.7058   -2.3438   21.5442 C   0  0  0  0  0  0  0  0  0  0  0  0
    7.8687   -1.1823   20.7643 C   0  0  0  0  0  0  0  0  0  0  0  0
    9.0409   -0.5989   21.1747 N   0  0  0  0  0  0  0  0  0  0  0  0
    7.0237   -0.6730   19.7477 C   0  0  0  0  0  0  0  0  0  0  0  0
    7.0600    0.6621   19.2492 C   0  0  0  0  0  0  0  0  0  0  0  0
    6.0937    0.7519   18.2838 C   0  0  0  0  0  0  0  0  0  0  0  0
    5.4777   -0.4529   18.1722 N   0  0  0  0  0  0  0  0  0  0  0  0
    6.0297   -1.3329   19.0549 C   0  0  0  0  0  0  0  0  0  0  0  0
   13.2768    2.7790   22.4782 C   0  0  0  0  0  0  0  0  0  0  0  0
   13.6817    4.0840   22.6963 C   0  0  0  0  0  0  0  0  0  0  0  0
  1  2  1  0
  2  3  2  0
  3  4  1  0
  4  5  2  0
  5  6  1  0
  7  6  1  0
  7  8  1  0
  8  9  1  0
  9 10  2  0
 10 11  1  0
 11 12  2  0
 11 13  1  0
 13 14  1  0
 14 15  2  0
 15 16  1  0
 16 17  2  0
 17 18  1  0
 17 19  1  0
 19 20  1  0
 20 21  2  0
 21 22  1  0
 22 23  1  0
  5 24  1  0
 24 25  2  0
 25  2  1  0
 13  7  1  0
 18 14  1  0
 23 19  2  0
M  END
