CVD-0002985|dock_bobby27042020.75|mol2|19|dock2
     RDKit          3D

 22 24  0  0  0  0  0  0  0  0999 V2000
    8.3133   -0.9670   19.0617 N   0  0  0  0  0  0  0  0  0  0  0  0
    7.7508   -1.4546   20.1558 C   0  0  0  0  0  0  0  0  0  0  0  0
    6.5547   -1.2974   20.4116 O   0  0  0  0  0  0  0  0  0  0  0  0
    8.6704   -2.2242   21.0829 C   0  0  0  0  0  0  0  0  0  0  0  0
    9.7038   -1.3495   21.8111 C   0  0  0  0  0  0  0  0  0  0  0  0
    9.6527   -1.7645   23.2957 C   0  0  0  0  0  0  0  0  0  0  0  0
    8.8462   -3.0672   23.3086 C   0  0  0  0  0  0  0  0  0  0  0  0
    7.8446   -2.8946   22.1788 C   0  0  0  0  0  0  0  0  0  0  0  0
    7.2288   -4.2182   21.7935 C   0  0  0  0  0  0  0  0  0  0  0  0
    6.7863   -4.5483   20.4798 C   0  0  0  0  0  0  0  0  0  0  0  0
    6.2578   -5.7994   20.3708 C   0  0  0  0  0  0  0  0  0  0  0  0
    6.2991   -6.5803   21.8791 S   0  0  0  0  0  0  0  0  0  0  0  0
    7.0145   -5.2496   22.6587 C   0  0  0  0  0  0  0  0  0  0  0  0
    8.9792   -0.6962   24.1655 C   0  0  0  0  0  0  0  0  0  0  0  0
    9.8214    0.5764   24.2543 C   0  0  0  0  0  0  0  0  0  0  0  0
   11.2665    0.3033   24.6700 C   0  0  0  0  0  0  0  0  0  0  0  0
   11.8497   -0.7767   23.8632 N   0  0  0  0  0  0  0  0  0  0  0  0
   11.0572   -2.0130   23.8509 C   0  0  0  0  0  0  0  0  0  0  0  0
   12.9428   -0.6819   23.0755 C   0  0  0  0  0  0  0  0  0  0  0  0
   13.3654   -1.6376   22.4369 O   0  0  0  0  0  0  0  0  0  0  0  0
   13.6362    0.6653   23.0154 C   0  0  0  0  0  0  0  0  0  0  0  0
   12.6022    1.8917   22.2712 Cl  0  0  0  0  0  0  0  0  0  0  0  0
  1  2  1  0
  2  3  2  0
  2  4  1  0
  4  5  1  0
  5  6  1  0
  6  7  1  0
  7  8  1  0
  8  9  1  0
  9 10  1  0
 10 11  2  0
 11 12  1  0
 12 13  1  0
  6 14  1  0
 14 15  1  0
 15 16  1  0
 16 17  1  0
 17 18  1  0
 17 19  1  0
 19 20  2  0
 19 21  1  0
 21 22  1  0
  8  4  1  0
 13  9  2  0
 18  6  1  0
M  END
