CVD-0003554|dock_bobby27042020.45|mol2|2|dock1
     RDKit          3D

 27 30  0  0  0  0  0  0  0  0999 V2000
   13.8443    4.7376   23.4043 N   0  0  0  0  0  0  0  0  0  0  0  0
   12.4792    4.5616   22.5868 S   0  0  0  0  0  0  0  0  0  0  0  0
   12.7919    4.7291   21.1992 O   0  0  0  0  0  0  0  0  0  0  0  0
   11.5110    5.4295   23.1873 O   0  0  0  0  0  0  0  0  0  0  0  0
   11.9070    2.9035   22.8024 C   0  0  0  0  0  0  0  0  0  0  0  0
   10.5680    2.6622   23.0545 C   0  0  0  0  0  0  0  0  0  0  0  0
   10.1113    1.3594   23.1485 C   0  0  0  0  0  0  0  0  0  0  0  0
   10.9959    0.2933   22.9901 C   0  0  0  0  0  0  0  0  0  0  0  0
   10.5066   -1.0473   23.1353 N   0  0  0  0  0  0  0  0  0  0  0  0
   10.9912   -1.7963   24.3007 C   0  0  0  0  0  0  0  0  0  0  0  0
   12.3308   -2.4498   24.0524 C   0  0  0  0  0  0  0  0  0  0  0  0
   13.4791   -1.4891   23.7727 C   0  0  0  0  0  0  0  0  0  0  0  0
   13.3804   -0.5720   22.5243 C   0  0  0  0  0  0  0  0  0  0  0  0
   12.3516    0.5376   22.7345 C   0  0  0  0  0  0  0  0  0  0  0  0
   12.7934    1.8517   22.6434 C   0  0  0  0  0  0  0  0  0  0  0  0
    9.6498   -1.6579   22.2674 C   0  0  0  0  0  0  0  0  0  0  0  0
    9.2763   -2.8130   22.4299 O   0  0  0  0  0  0  0  0  0  0  0  0
    9.1549   -0.8589   21.0740 C   0  0  0  0  0  0  0  0  0  0  0  0
    7.7371   -0.3903   21.2090 C   0  0  0  0  0  0  0  0  0  0  0  0
    6.9633   -0.4179   22.3320 C   0  0  0  0  0  0  0  0  0  0  0  0
    5.7201    0.0951   22.0729 N   0  0  0  0  0  0  0  0  0  0  0  0
    5.6684    0.4676   20.7618 C   0  0  0  0  0  0  0  0  0  0  0  0
    4.6282    1.0143   20.1101 N   0  0  0  0  0  0  0  0  0  0  0  0
    4.8220    1.2953   18.8143 C   0  0  0  0  0  0  0  0  0  0  0  0
    6.0028    1.0555   18.1444 C   0  0  0  0  0  0  0  0  0  0  0  0
    7.0658    0.4911   18.8318 C   0  0  0  0  0  0  0  0  0  0  0  0
    6.9153    0.1800   20.1816 C   0  0  0  0  0  0  0  0  0  0  0  0
  1  2  1  0
  2  3  2  0
  2  4  2  0
  2  5  1  0
  5  6  2  0
  6  7  1  0
  7  8  2  0
  8  9  1  0
  9 10  1  0
 10 11  1  0
 11 12  1  0
 12 13  1  0
 13 14  1  0
 14 15  2  0
  9 16  1  0
 16 17  2  0
 16 18  1  0
 18 19  1  0
 19 20  2  0
 20 21  1  0
 21 22  1  0
 22 23  2  0
 23 24  1  0
 24 25  2  0
 25 26  1  0
 26 27  2  0
 15  5  1  0
 27 19  1  0
 14  8  1  0
 27 22  1  0
M  END
