CVD-0001735|dock_bobby27042020.8|mol2|33|dock1
     RDKit          3D

 22 24  0  0  0  0  0  0  0  0999 V2000
   13.9495   -2.3170   20.5322 Cl  0  0  0  0  0  0  0  0  0  0  0  0
   13.0440   -1.3817   21.6888 C   0  0  0  0  0  0  0  0  0  0  0  0
   13.6383   -0.2939   22.2867 C   0  0  0  0  0  0  0  0  0  0  0  0
   12.9070    0.4391   23.2042 C   0  0  0  0  0  0  0  0  0  0  0  0
   11.6042    0.0825   23.5101 C   0  0  0  0  0  0  0  0  0  0  0  0
   11.0060   -1.0153   22.9024 C   0  0  0  0  0  0  0  0  0  0  0  0
   11.7475   -1.7511   21.9826 C   0  0  0  0  0  0  0  0  0  0  0  0
    9.6543   -1.3858   23.2352 N   0  0  0  0  0  0  0  0  0  0  0  0
    9.4285   -1.9728   24.5683 C   0  0  0  0  0  0  0  0  0  0  0  0
    9.3506   -3.4911   24.5125 C   0  0  0  0  0  0  0  0  0  0  0  0
    9.3221   -4.1793   25.8762 C   0  0  0  0  0  0  0  0  0  0  0  0
    8.8421   -5.6830   25.4160 C   0  0  0  0  0  0  0  0  0  0  0  0
    9.9364   -5.5012   26.4049 C   0  0  0  0  0  0  0  0  0  0  0  0
    8.5120   -1.3075   22.4343 C   0  0  0  0  0  0  0  0  0  0  0  0
    7.4459   -1.6409   22.9351 O   0  0  0  0  0  0  0  0  0  0  0  0
    8.6196   -0.8532   21.1427 N   0  0  0  0  0  0  0  0  0  0  0  0
    7.6251   -0.6696   20.1467 C   0  0  0  0  0  0  0  0  0  0  0  0
    6.3578   -0.2717   20.5539 C   0  0  0  0  0  0  0  0  0  0  0  0
    5.3580   -0.0875   19.6154 C   0  0  0  0  0  0  0  0  0  0  0  0
    5.6513   -0.3072   18.2902 C   0  0  0  0  0  0  0  0  0  0  0  0
    6.8559   -0.6865   17.8647 N   0  0  0  0  0  0  0  0  0  0  0  0
    7.8171   -0.8552   18.7781 C   0  0  0  0  0  0  0  0  0  0  0  0
  1  2  1  0
  2  3  2  0
  3  4  1  0
  4  5  2  0
  5  6  1  0
  6  7  2  0
  6  8  1  0
  8  9  1  0
  9 10  1  0
 10 11  1  0
 11 12  1  0
 12 13  1  0
  8 14  1  0
 14 15  2  0
 14 16  1  0
 16 17  1  0
 17 18  2  0
 18 19  1  0
 19 20  2  0
 20 21  1  0
 21 22  2  0
  7  2  1  0
 13 11  1  0
 22 17  1  0
M  END
