CVD-0003802|dock_bobby27042020.0|mol2|42|dock1
     RDKit          3D

 28 31  0  0  0  0  0  0  0  0999 V2000
   13.2637    6.1989   23.3807 N   0  0  0  0  0  0  0  0  0  0  0  0
   13.8325    4.9509   22.5548 S   0  0  0  0  0  0  0  0  0  0  0  0
   15.0028    4.4884   23.2388 O   0  0  0  0  0  0  0  0  0  0  0  0
   13.9480    5.3644   21.1886 O   0  0  0  0  0  0  0  0  0  0  0  0
   12.6384    3.6495   22.6133 C   0  0  0  0  0  0  0  0  0  0  0  0
   13.0534    2.3375   22.7506 C   0  0  0  0  0  0  0  0  0  0  0  0
   12.1131    1.3243   22.8077 C   0  0  0  0  0  0  0  0  0  0  0  0
   10.7503    1.5936   22.7167 C   0  0  0  0  0  0  0  0  0  0  0  0
   10.3603    2.9222   22.5742 C   0  0  0  0  0  0  0  0  0  0  0  0
   11.2901    3.9459   22.5300 C   0  0  0  0  0  0  0  0  0  0  0  0
    9.8093    0.5703   22.7664 N   0  0  0  0  0  0  0  0  0  0  0  0
    9.7483   -0.4019   23.8619 C   0  0  0  0  0  0  0  0  0  0  0  0
    9.5868   -1.8089   23.3600 C   0  0  0  0  0  0  0  0  0  0  0  0
    8.3480   -1.9353   22.4664 C   0  0  0  0  0  0  0  0  0  0  0  0
    8.4499   -0.9241   21.3525 C   0  0  0  0  0  0  0  0  0  0  0  0
    8.6447    0.4907   21.8543 C   0  0  0  0  0  0  0  0  0  0  0  0
    8.1765   -3.2980   21.9733 N   0  0  0  0  0  0  0  0  0  0  0  0
    7.1640   -4.1502   22.4053 C   0  0  0  0  0  0  0  0  0  0  0  0
    6.5413   -5.0027   21.5019 C   0  0  0  0  0  0  0  0  0  0  0  0
    5.5333   -5.8537   21.9187 C   0  0  0  0  0  0  0  0  0  0  0  0
    5.1216   -5.8756   23.2460 C   0  0  0  0  0  0  0  0  0  0  0  0
    5.7478   -5.0216   24.1462 C   0  0  0  0  0  0  0  0  0  0  0  0
    6.7568   -4.1690   23.7345 C   0  0  0  0  0  0  0  0  0  0  0  0
    4.0424   -6.7863   23.6901 C   0  0  0  0  0  0  0  0  0  0  0  0
    3.9498   -7.3578   24.9867 C   0  0  0  0  0  0  0  0  0  0  0  0
    2.8680   -8.1667   25.1668 C   0  0  0  0  0  0  0  0  0  0  0  0
    1.9489   -8.2346   23.7394 S   0  0  0  0  0  0  0  0  0  0  0  0
    2.9957   -7.1909   22.8998 C   0  0  0  0  0  0  0  0  0  0  0  0
  1  2  1  0
  2  3  2  0
  2  4  2  0
  2  5  1  0
  5  6  2  0
  6  7  1  0
  7  8  2  0
  8  9  1  0
  9 10  2  0
  8 11  1  0
 11 12  1  0
 12 13  1  0
 13 14  1  0
 14 15  1  0
 15 16  1  0
 14 17  1  0
 17 18  1  0
 18 19  2  0
 19 20  1  0
 20 21  2  0
 21 22  1  0
 22 23  2  0
 21 24  1  0
 24 25  1  0
 25 26  2  0
 26 27  1  0
 27 28  1  0
 10  5  1  0
 16 11  1  0
 23 18  1  0
 28 24  2  0
M  END
