CVD-0002655|dock_bobby27042020.62|mol2|22|dock3
     RDKit          3D

 27 28  0  0  0  0  0  0  0  0999 V2000
    6.9197    3.6745   22.5533 C   0  0  0  0  0  0  0  0  0  0  0  0
    8.2387    4.3108   22.2268 C   0  0  0  0  0  0  0  0  0  0  0  0
    8.2902    5.3561   21.5879 O   0  0  0  0  0  0  0  0  0  0  0  0
    9.3090    3.6303   22.7148 N   0  0  0  0  0  0  0  0  0  0  0  0
   10.7041    3.9016   22.6391 C   0  0  0  0  0  0  0  0  0  0  0  0
   11.2355    5.1757   22.4408 C   0  0  0  0  0  0  0  0  0  0  0  0
   12.5442    5.4370   22.3710 N   0  0  0  0  0  0  0  0  0  0  0  0
   13.3864    4.4160   22.5021 C   0  0  0  0  0  0  0  0  0  0  0  0
   12.9739    3.1171   22.7004 C   0  0  0  0  0  0  0  0  0  0  0  0
   11.6133    2.8347   22.7706 C   0  0  0  0  0  0  0  0  0  0  0  0
   11.1717    1.4050   22.9783 C   0  0  0  0  0  0  0  0  0  0  0  0
   12.2642    0.4440   22.9356 N   0  0  0  0  0  0  0  0  0  0  0  0
   12.6437   -0.2531   24.0062 C   0  0  0  0  0  0  0  0  0  0  0  0
   12.1058   -0.1408   25.1046 O   0  0  0  0  0  0  0  0  0  0  0  0
   13.8015   -1.2203   23.8078 C   0  0  0  0  0  0  0  0  0  0  0  0
   14.5087   -1.4316   25.0861 N   0  0  0  0  0  0  0  0  0  0  0  0
   13.2462   -2.5480   23.2909 C   0  0  0  0  0  0  0  0  0  0  0  0
   12.2030   -2.3416   22.2945 N   0  0  0  0  0  0  0  0  0  0  0  0
   10.8946   -2.4098   22.6106 C   0  0  0  0  0  0  0  0  0  0  0  0
   10.5088   -2.6489   23.7519 O   0  0  0  0  0  0  0  0  0  0  0  0
   10.0359   -2.1978   21.5894 N   0  0  0  0  0  0  0  0  0  0  0  0
    8.5852   -2.3184   21.7352 C   0  0  0  0  0  0  0  0  0  0  0  0
    8.0447   -1.3174   22.7769 C   0  0  0  0  0  0  0  0  0  0  0  0
    6.5418   -1.4681   23.0051 C   0  0  0  0  0  0  0  0  0  0  0  0
    6.1775   -2.9009   23.3720 C   0  0  0  0  0  0  0  0  0  0  0  0
    6.6853   -3.8819   22.3249 C   0  0  0  0  0  0  0  0  0  0  0  0
    8.1927   -3.7518   22.1319 C   0  0  0  0  0  0  0  0  0  0  0  0
  1  2  1  0
  2  3  2  0
  2  4  1  0
  4  5  1  0
  5  6  2  0
  6  7  1  0
  7  8  2  0
  8  9  1  0
  9 10  2  0
 10 11  1  0
 11 12  1  0
 12 13  1  0
 13 14  2  0
 13 15  1  0
 15 16  1  0
 15 17  1  0
 17 18  1  0
 18 19  1  0
 19 20  2  0
 19 21  1  0
 21 22  1  0
 22 23  1  0
 23 24  1  0
 24 25  1  0
 25 26  1  0
 26 27  1  0
 10  5  1  0
 27 22  1  0
M  END
