CVD-0003870|dock_bobby27042020.29|mol2|28|dock3
     RDKit          3D

 20 21  0  0  0  0  0  0  0  0999 V2000
    9.6728   -5.8679   27.0819 C   0  0  0  0  0  0  0  0  0  0  0  0
    9.0497   -5.5675   25.7545 C   0  0  0  0  0  0  0  0  0  0  0  0
    9.7886   -4.1152   24.9640 S   0  0  0  0  0  0  0  0  0  0  0  0
    8.5419   -3.7196   23.7136 C   0  0  0  0  0  0  0  0  0  0  0  0
    8.6648   -2.3325   23.0816 C   0  0  0  0  0  0  0  0  0  0  0  0
    9.9801   -2.1769   22.3103 C   0  0  0  0  0  0  0  0  0  0  0  0
   10.0849   -0.8110   21.6931 C   0  0  0  0  0  0  0  0  0  0  0  0
    9.9497    0.2557   22.6897 N   0  0  0  0  0  0  0  0  0  0  0  0
    8.7022    0.1547   23.4821 C   0  0  0  0  0  0  0  0  0  0  0  0
    8.5650   -1.2219   24.0966 C   0  0  0  0  0  0  0  0  0  0  0  0
   10.7968    1.3583   22.7350 C   0  0  0  0  0  0  0  0  0  0  0  0
   12.1785    1.2053   22.8082 C   0  0  0  0  0  0  0  0  0  0  0  0
   13.0238    2.3000   22.8459 C   0  0  0  0  0  0  0  0  0  0  0  0
   12.4919    3.5766   22.8265 C   0  0  0  0  0  0  0  0  0  0  0  0
   11.1225    3.7569   22.7594 C   0  0  0  0  0  0  0  0  0  0  0  0
   10.2888    2.6539   22.7080 C   0  0  0  0  0  0  0  0  0  0  0  0
   13.5649    4.9798   22.8769 S   0  0  0  0  0  0  0  0  0  0  0  0
   13.8934    5.4216   21.3736 N   0  0  0  0  0  0  0  0  0  0  0  0
   12.8368    6.0533   23.4842 O   0  0  0  0  0  0  0  0  0  0  0  0
   14.7964    4.5555   23.4724 O   0  0  0  0  0  0  0  0  0  0  0  0
  1  2  1  0
  2  3  1  0
  3  4  1  0
  4  5  1  0
  5  6  1  0
  6  7  1  0
  7  8  1  0
  8  9  1  0
  9 10  1  0
  8 11  1  0
 11 12  2  0
 12 13  1  0
 13 14  2  0
 14 15  1  0
 15 16  2  0
 14 17  1  0
 17 18  1  0
 17 19  2  0
 17 20  2  0
 10  5  1  0
 16 11  1  0
M  END
