CVD-0002100|dock_bobby27042020.64|mol2|37|dock1
     RDKit          3D

 23 25  0  0  0  0  0  0  0  0999 V2000
    9.3489    3.3730   22.1921 N   0  0  0  0  0  0  0  0  0  0  0  0
   10.5256    2.6352   22.7045 C   0  0  0  0  0  0  0  0  0  0  0  0
   10.1737    1.2933   23.3366 C   0  0  0  0  0  0  0  0  0  0  0  0
    8.9504    0.8660   22.7497 O   0  0  0  0  0  0  0  0  0  0  0  0
    9.1086    0.3344   21.4178 C   0  0  0  0  0  0  0  0  0  0  0  0
    9.8385   -1.0261   21.5755 C   0  0  0  0  0  0  0  0  0  0  0  0
   11.1717   -0.7600   22.2508 C   0  0  0  0  0  0  0  0  0  0  0  0
   12.2661   -1.6201   22.0734 C   0  0  0  0  0  0  0  0  0  0  0  0
   12.2214   -2.6789   21.2091 O   0  0  0  0  0  0  0  0  0  0  0  0
   13.4343   -1.4413   22.8122 C   0  0  0  0  0  0  0  0  0  0  0  0
   14.4819   -2.2801   22.6026 O   0  0  0  0  0  0  0  0  0  0  0  0
   13.5340   -0.4105   23.7341 C   0  0  0  0  0  0  0  0  0  0  0  0
   12.4607    0.4402   23.9138 C   0  0  0  0  0  0  0  0  0  0  0  0
   11.2813    0.2807   23.1856 C   0  0  0  0  0  0  0  0  0  0  0  0
    7.7020    0.3091   20.8074 C   0  0  0  0  0  0  0  0  0  0  0  0
    6.8647   -0.7336   21.5557 C   0  0  0  0  0  0  0  0  0  0  0  0
    6.9800   -0.4739   22.9554 O   0  0  0  0  0  0  0  0  0  0  0  0
    5.4076   -0.6667   21.1518 C   0  0  0  0  0  0  0  0  0  0  0  0
    5.2673   -0.8389   19.6391 C   0  0  0  0  0  0  0  0  0  0  0  0
    6.0782    0.2045   18.8896 C   0  0  0  0  0  0  0  0  0  0  0  0
    5.9443   -0.0517   17.4909 O   0  0  0  0  0  0  0  0  0  0  0  0
    7.5605    0.1458   19.2853 C   0  0  0  0  0  0  0  0  0  0  0  0
    8.1527   -1.0903   18.8943 O   0  0  0  0  0  0  0  0  0  0  0  0
  1  2  1  0
  2  3  1  0
  3  4  1  0
  4  5  1  0
  5  6  1  0
  6  7  1  0
  7  8  2  0
  8  9  1  0
  8 10  1  0
 10 11  1  0
 10 12  2  0
 12 13  1  0
 13 14  2  0
  5 15  1  0
 15 16  1  0
 16 17  1  0
 16 18  1  0
 18 19  1  0
 19 20  1  0
 20 21  1  0
 20 22  1  0
 22 23  1  0
 14  3  1  0
 22 15  1  0
 14  7  1  0
M  END
