CVD-0003276|dock_bobby27042020.74|mol2|23|dock1
     RDKit          3D

 25 28  0  0  0  0  0  0  0  0999 V2000
   12.3612    2.5846   21.5300 O   0  0  0  0  0  0  0  0  0  0  0  0
   12.0588    2.2708   22.8930 C   0  0  0  0  0  0  0  0  0  0  0  0
   13.1285    1.3366   23.3983 C   0  0  0  0  0  0  0  0  0  0  0  0
   13.0504   -0.0367   22.7465 C   0  0  0  0  0  0  0  0  0  0  0  0
   11.6791   -0.6504   22.8800 C   0  0  0  0  0  0  0  0  0  0  0  0
   11.6185   -2.0171   22.1927 C   0  0  0  0  0  0  0  0  0  0  0  0
   10.3470   -2.7698   22.4756 C   0  0  0  0  0  0  0  0  0  0  0  0
    9.1690   -2.6662   21.7486 C   0  0  0  0  0  0  0  0  0  0  0  0
    9.0187   -1.8342   20.6539 N   0  0  0  0  0  0  0  0  0  0  0  0
    7.8393   -1.1489   20.3648 C   0  0  0  0  0  0  0  0  0  0  0  0
    6.8483   -1.2501   21.0834 O   0  0  0  0  0  0  0  0  0  0  0  0
    7.8444   -0.3472   19.2232 N   0  0  0  0  0  0  0  0  0  0  0  0
    6.8123    0.4361   18.7094 C   0  0  0  0  0  0  0  0  0  0  0  0
    5.6360    0.8286   19.2653 C   0  0  0  0  0  0  0  0  0  0  0  0
    5.0268    1.5793   18.3042 N   0  0  0  0  0  0  0  0  0  0  0  0
    5.8349    1.6093   17.2384 C   0  0  0  0  0  0  0  0  0  0  0  0
    6.9496    0.9214   17.4326 N   0  0  0  0  0  0  0  0  0  0  0  0
    7.8703   -3.6637   22.3075 S   0  0  0  0  0  0  0  0  0  0  0  0
    8.8774   -4.2831   23.5665 C   0  0  0  0  0  0  0  0  0  0  0  0
    8.7949   -5.2046   24.6410 C   0  0  0  0  0  0  0  0  0  0  0  0
   10.0301   -5.1802   25.2347 C   0  0  0  0  0  0  0  0  0  0  0  0
   10.8456   -4.2967   24.5761 N   0  0  0  0  0  0  0  0  0  0  0  0
   10.1524   -3.7246   23.5336 C   0  0  0  0  0  0  0  0  0  0  0  0
   10.6170    0.2881   22.3556 C   0  0  0  0  0  0  0  0  0  0  0  0
   10.6901    1.6456   23.0252 C   0  0  0  0  0  0  0  0  0  0  0  0
  1  2  1  0
  2  3  1  0
  3  4  1  0
  4  5  1  0
  5  6  1  0
  6  7  1  0
  7  8  2  0
  8  9  1  0
  9 10  1  0
 10 11  2  0
 10 12  1  0
 12 13  1  0
 13 14  2  0
 14 15  1  0
 15 16  1  0
 16 17  2  0
  8 18  1  0
 18 19  1  0
 19 20  1  0
 20 21  2  0
 21 22  1  0
 22 23  1  0
  5 24  1  0
 24 25  1  0
 25  2  1  0
 23  7  1  0
 17 13  1  0
 23 19  2  0
M  END
