CVD-0000393|dock_bobby27042020.13|mol2|11|dock3
     RDKit          3D

 25 27  0  0  0  0  0  0  0  0999 V2000
   14.0878    6.1116   21.6762 C   0  0  0  0  0  0  0  0  0  0  0  0
   12.8656    5.4013   21.9842 N   0  0  0  0  0  0  0  0  0  0  0  0
   12.8183    4.0545   22.2317 C   0  0  0  0  0  0  0  0  0  0  0  0
   11.6287    3.3396   22.2881 C   0  0  0  0  0  0  0  0  0  0  0  0
   11.5758    2.0254   22.5305 N   0  0  0  0  0  0  0  0  0  0  0  0
   12.7498    1.4168   22.7194 C   0  0  0  0  0  0  0  0  0  0  0  0
   13.9547    1.9925   22.6891 N   0  0  0  0  0  0  0  0  0  0  0  0
   13.9685    3.3072   22.4448 C   0  0  0  0  0  0  0  0  0  0  0  0
   12.6680   -0.0203   22.9833 C   0  0  0  0  0  0  0  0  0  0  0  0
   14.1742   -0.8696   23.0636 S   0  0  0  0  0  0  0  0  0  0  0  0
   13.3707   -2.3422   23.3693 C   0  0  0  0  0  0  0  0  0  0  0  0
   12.0209   -2.1944   23.4081 C   0  0  0  0  0  0  0  0  0  0  0  0
   11.5995   -0.8403   23.1833 C   0  0  0  0  0  0  0  0  0  0  0  0
   10.1749   -0.3580   23.1697 C   0  0  0  0  0  0  0  0  0  0  0  0
    9.3092   -1.3010   24.0351 C   0  0  0  0  0  0  0  0  0  0  0  0
    8.6758   -2.3206   23.0838 C   0  0  0  0  0  0  0  0  0  0  0  0
    9.2324   -2.0256   21.6919 C   0  0  0  0  0  0  0  0  0  0  0  0
    9.6373   -0.5447   21.7235 C   0  0  0  0  0  0  0  0  0  0  0  0
    8.4260    0.3471   21.5336 C   0  0  0  0  0  0  0  0  0  0  0  0
    7.9540    0.9981   22.4622 O   0  0  0  0  0  0  0  0  0  0  0  0
    7.9143    0.3665   20.2718 N   0  0  0  0  0  0  0  0  0  0  0  0
    6.8286    1.0827   19.8265 C   0  0  0  0  0  0  0  0  0  0  0  0
    6.1123    1.7940   20.4988 O   0  0  0  0  0  0  0  0  0  0  0  0
    6.6762    0.8741   18.5133 O   0  0  0  0  0  0  0  0  0  0  0  0
    5.4394    1.3615   17.9411 C   0  0  0  0  0  0  0  0  0  0  0  0
  1  2  1  0
  2  3  1  0
  3  4  2  0
  4  5  1  0
  5  6  2  0
  6  7  1  0
  7  8  2  0
  6  9  1  0
  9 10  1  0
 10 11  1  0
 11 12  2  0
 12 13  1  0
 14 13  1  0
 14 15  1  0
 15 16  1  0
 16 17  1  0
 17 18  1  0
 18 19  1  0
 19 20  2  0
 19 21  1  0
 21 22  1  0
 22 23  2  0
 22 24  1  0
 24 25  1  0
  8  3  1  0
 13  9  2  0
 18 14  1  0
M  END
