CVD-0002301|dock_bobby27042020.35|mol2|2|dock1
     RDKit          3D

 40 43  0  0  0  0  0  0  0  0999 V2000
    9.3637   -2.5858   25.6734 C   0  0  0  0  0  0  0  0  0  0  0  0
    8.8349   -2.0735   24.3431 C   0  0  0  0  0  0  0  0  0  0  0  0
    8.1915   -3.1882   23.5353 C   0  0  0  0  0  0  0  0  0  0  0  0
    9.9161   -1.4365   23.5520 N   0  0  0  0  0  0  0  0  0  0  0  0
   10.7815   -2.3039   22.7532 C   0  0  0  0  0  0  0  0  0  0  0  0
   10.0490   -0.0891   23.6022 C   0  0  0  0  0  0  0  0  0  0  0  0
    9.2832    0.5605   24.2890 O   0  0  0  0  0  0  0  0  0  0  0  0
   11.1428    0.5992   22.8067 C   0  0  0  0  0  0  0  0  0  0  0  0
   12.4255    0.7486   23.6393 C   0  0  0  0  0  0  0  0  0  0  0  0
   13.5214    1.4724   22.8701 C   0  0  0  0  0  0  0  0  0  0  0  0
   13.0278    2.7569   22.3846 N   0  0  0  0  0  0  0  0  0  0  0  0
   11.8234    2.6708   21.5557 C   0  0  0  0  0  0  0  0  0  0  0  0
   10.6904    1.9891   22.3190 C   0  0  0  0  0  0  0  0  0  0  0  0
    9.4820    1.9220   21.4829 N   0  0  0  0  0  0  0  0  0  0  0  0
    8.3074    2.5856   22.0388 C   0  0  0  0  0  0  0  0  0  0  0  0
    7.1041    2.4222   21.1481 C   0  0  0  0  0  0  0  0  0  0  0  0
    5.9867    3.2743   21.1260 C   0  0  0  0  0  0  0  0  0  0  0  0
    5.0615    2.8343   20.1947 C   0  0  0  0  0  0  0  0  0  0  0  0
    3.7558    3.4750   19.8763 C   0  0  0  0  0  0  0  0  0  0  0  0
    3.2580    3.4990   18.5706 C   0  0  0  0  0  0  0  0  0  0  0  0
    2.0464    4.0988   18.2701 C   0  0  0  0  0  0  0  0  0  0  0  0
    1.3014    4.7028   19.2561 C   0  0  0  0  0  0  0  0  0  0  0  0
    1.7630    4.7049   20.5585 C   0  0  0  0  0  0  0  0  0  0  0  0
    2.9617    4.0925   20.8381 C   0  0  0  0  0  0  0  0  0  0  0  0
    3.3474    4.1111   22.1345 F   0  0  0  0  0  0  0  0  0  0  0  0
    5.6293    1.6561   19.6276 N   0  0  0  0  0  0  0  0  0  0  0  0
    6.8663    1.4249   20.2161 C   0  0  0  0  0  0  0  0  0  0  0  0
    5.0956    0.5587   18.4477 S   0  0  0  0  0  0  0  0  0  0  0  0
    5.8768    0.8587   17.2881 O   0  0  0  0  0  0  0  0  0  0  0  0
    3.6716    0.6679   18.3710 O   0  0  0  0  0  0  0  0  0  0  0  0
    5.5580   -1.0523   18.9843 C   0  0  0  0  0  0  0  0  0  0  0  0
    5.4561   -1.4015   20.3201 C   0  0  0  0  0  0  0  0  0  0  0  0
    5.8354   -2.6775   20.6992 C   0  0  0  0  0  0  0  0  0  0  0  0
    6.2987   -3.5446   19.7355 C   0  0  0  0  0  0  0  0  0  0  0  0
    6.4039   -3.2213   18.4458 N   0  0  0  0  0  0  0  0  0  0  0  0
    6.0363   -1.9879   18.0867 C   0  0  0  0  0  0  0  0  0  0  0  0
   13.6506    3.9005   22.7394 C   0  0  0  0  0  0  0  0  0  0  0  0
   14.6336    3.9079   23.4699 O   0  0  0  0  0  0  0  0  0  0  0  0
   13.0692    5.1897   22.1922 C   0  0  0  0  0  0  0  0  0  0  0  0
   14.0444    6.5880   22.6628 Cl  0  0  0  0  0  0  0  0  0  0  0  0
  1  2  1  0
  2  3  1  0
  2  4  1  0
  4  5  1  0
  4  6  1  0
  6  7  2  0
  6  8  1  0
  8  9  1  0
  9 10  1  0
 10 11  1  0
 11 12  1  0
 12 13  1  0
 13 14  1  0
 14 15  1  0
 15 16  1  0
 16 17  1  0
 17 18  2  0
 18 19  1  0
 19 20  2  0
 20 21  1  0
 21 22  2  0
 22 23  1  0
 23 24  2  0
 24 25  1  0
 18 26  1  0
 26 27  1  0
 26 28  1  0
 28 29  2  0
 28 30  2  0
 28 31  1  0
 31 32  2  0
 32 33  1  0
 33 34  2  0
 34 35  1  0
 35 36  2  0
 11 37  1  0
 37 38  2  0
 37 39  1  0
 39 40  1  0
 13  8  1  0
 27 16  2  0
 36 31  1  0
 24 19  1  0
M  END
