CVD-0001306|dock_bobby27042020.95|mol2|41|dock1
     RDKit          3D

 20 21  0  0  0  0  0  0  0  0999 V2000
   14.5782   -1.8798   23.7668 F   0  0  0  0  0  0  0  0  0  0  0  0
   14.0047   -0.8641   23.0330 C   0  0  0  0  0  0  0  0  0  0  0  0
   12.4189   -0.3759   23.6620 S   0  0  0  0  0  0  0  0  0  0  0  0
   11.4482   -1.7562   23.1780 C   0  0  0  0  0  0  0  0  0  0  0  0
   11.9134   -2.8519   22.9998 O   0  0  0  0  0  0  0  0  0  0  0  0
    9.9942   -1.3828   23.0230 C   0  0  0  0  0  0  0  0  0  0  0  0
    9.8124   -0.3493   21.9181 C   0  0  0  0  0  0  0  0  0  0  0  0
    8.3467   -0.0092   21.7430 C   0  0  0  0  0  0  0  0  0  0  0  0
    7.5854   -1.2204   21.4489 N   0  0  0  0  0  0  0  0  0  0  0  0
    7.6859   -2.2204   22.5064 C   0  0  0  0  0  0  0  0  0  0  0  0
    9.1446   -2.6138   22.7151 C   0  0  0  0  0  0  0  0  0  0  0  0
    6.6509   -1.3495   20.4779 C   0  0  0  0  0  0  0  0  0  0  0  0
    6.0651   -2.4120   20.3592 O   0  0  0  0  0  0  0  0  0  0  0  0
    6.2648   -0.2763   19.4952 C   0  0  0  0  0  0  0  0  0  0  0  0
    5.0053    0.3185   19.4100 C   0  0  0  0  0  0  0  0  0  0  0  0
    4.7541    1.3264   18.4934 C   0  0  0  0  0  0  0  0  0  0  0  0
    5.7417    1.7441   17.6197 C   0  0  0  0  0  0  0  0  0  0  0  0
    6.9590    1.1277   17.6948 C   0  0  0  0  0  0  0  0  0  0  0  0
    7.9376    1.5151   16.8328 F   0  0  0  0  0  0  0  0  0  0  0  0
    7.2470    0.1354   18.5988 C   0  0  0  0  0  0  0  0  0  0  0  0
  1  2  1  0
  2  3  1  0
  3  4  1  0
  4  5  2  0
  4  6  1  0
  6  7  1  0
  7  8  1  0
  8  9  1  0
  9 10  1  0
 10 11  1  0
  9 12  1  0
 12 13  2  0
 12 14  1  0
 14 15  2  0
 15 16  1  0
 16 17  2  0
 17 18  1  0
 18 19  1  0
 18 20  2  0
 11  6  1  0
 20 14  1  0
M  END
