CVD-0003835|dock_bobby27042020.29|mol2|33|dock2
     RDKit          3D

 26 28  0  0  0  0  0  0  0  0999 V2000
    6.8497   -5.7726   21.7767 C   0  0  0  0  0  0  0  0  0  0  0  0
    7.1625   -4.8112   22.8270 N   0  0  0  0  0  0  0  0  0  0  0  0
    6.9891   -3.4113   22.4933 C   0  0  0  0  0  0  0  0  0  0  0  0
    8.2522   -2.7412   21.9693 C   0  0  0  0  0  0  0  0  0  0  0  0
    7.9533   -1.3645   21.3653 C   0  0  0  0  0  0  0  0  0  0  0  0
    9.2079   -0.7176   20.8505 C   0  0  0  0  0  0  0  0  0  0  0  0
   10.2362   -0.6054   21.8893 N   0  0  0  0  0  0  0  0  0  0  0  0
   10.5623   -1.9030   22.5254 C   0  0  0  0  0  0  0  0  0  0  0  0
    9.3090   -2.5834   23.0333 C   0  0  0  0  0  0  0  0  0  0  0  0
   10.9714    0.5533   22.0996 C   0  0  0  0  0  0  0  0  0  0  0  0
   10.3433    1.7921   22.1863 C   0  0  0  0  0  0  0  0  0  0  0  0
   11.0710    2.9505   22.3939 C   0  0  0  0  0  0  0  0  0  0  0  0
   12.4467    2.8808   22.5209 C   0  0  0  0  0  0  0  0  0  0  0  0
   13.0929    1.6601   22.4419 C   0  0  0  0  0  0  0  0  0  0  0  0
   12.3562    0.5083   22.2295 C   0  0  0  0  0  0  0  0  0  0  0  0
   13.3813    4.3554   22.7955 S   0  0  0  0  0  0  0  0  0  0  0  0
   12.9428    4.9790   24.2033 N   0  0  0  0  0  0  0  0  0  0  0  0
   13.0065    5.2944   21.7812 O   0  0  0  0  0  0  0  0  0  0  0  0
   14.7570    3.9744   22.9113 O   0  0  0  0  0  0  0  0  0  0  0  0
    7.4607   -5.2251   24.1206 C   0  0  0  0  0  0  0  0  0  0  0  0
    6.7296   -4.7545   25.2082 C   0  0  0  0  0  0  0  0  0  0  0  0
    7.0276   -5.1703   26.4952 C   0  0  0  0  0  0  0  0  0  0  0  0
    8.0595   -6.0612   26.7261 C   0  0  0  0  0  0  0  0  0  0  0  0
    8.7816   -6.5225   25.6502 C   0  0  0  0  0  0  0  0  0  0  0  0
   10.0858   -7.6441   25.9215 Cl  0  0  0  0  0  0  0  0  0  0  0  0
    8.5015   -6.1208   24.3602 C   0  0  0  0  0  0  0  0  0  0  0  0
  1  2  1  0
  2  3  1  0
  3  4  1  0
  4  5  1  0
  5  6  1  0
  6  7  1  0
  7  8  1  0
  8  9  1  0
  7 10  1  0
 10 11  2  0
 11 12  1  0
 12 13  2  0
 13 14  1  0
 14 15  2  0
 13 16  1  0
 16 17  1  0
 16 18  2  0
 16 19  2  0
  2 20  1  0
 20 21  2  0
 21 22  1  0
 22 23  2  0
 23 24  1  0
 24 25  1  0
 24 26  2  0
  9  4  1  0
 15 10  1  0
 26 20  1  0
M  END
