CVD-0004030|dock_bobby27042020.86|mol2|4|dock1
     RDKit          3D

 18 19  0  0  0  0  0  0  0  0999 V2000
    9.3591    1.9691   21.4708 O   0  0  0  0  0  0  0  0  0  0  0  0
    9.3598    0.7414   21.4362 C   0  0  0  0  0  0  0  0  0  0  0  0
    8.3559    0.0447   20.8580 N   0  0  0  0  0  0  0  0  0  0  0  0
    7.2011    0.6908   20.2341 C   0  0  0  0  0  0  0  0  0  0  0  0
    6.8725    0.0487   18.8706 C   0  0  0  0  0  0  0  0  0  0  0  0
    5.6265    0.6537   18.2266 C   0  0  0  0  0  0  0  0  0  0  0  0
    4.4313    0.5957   19.1690 C   0  0  0  0  0  0  0  0  0  0  0  0
    4.7500    1.2586   20.5015 C   0  0  0  0  0  0  0  0  0  0  0  0
    5.9717    0.6223   21.1562 C   0  0  0  0  0  0  0  0  0  0  0  0
   10.4231    0.0354   22.0076 N   0  0  0  0  0  0  0  0  0  0  0  0
   11.5464    0.4978   22.6653 C   0  0  0  0  0  0  0  0  0  0  0  0
   11.7522    1.6948   22.8435 O   0  0  0  0  0  0  0  0  0  0  0  0
   12.5596   -0.4839   23.1860 C   0  0  0  0  0  0  0  0  0  0  0  0
   13.1132   -0.2520   24.4412 C   0  0  0  0  0  0  0  0  0  0  0  0
   14.0512   -1.1169   24.9788 C   0  0  0  0  0  0  0  0  0  0  0  0
   14.4531   -2.2288   24.2725 C   0  0  0  0  0  0  0  0  0  0  0  0
   13.9164   -2.4755   23.0279 C   0  0  0  0  0  0  0  0  0  0  0  0
   12.9776   -1.6142   22.4844 C   0  0  0  0  0  0  0  0  0  0  0  0
  1  2  2  0
  2  3  1  0
  3  4  1  0
  4  5  1  0
  5  6  1  0
  6  7  1  0
  7  8  1  0
  8  9  1  0
  2 10  1  0
 10 11  1  0
 11 12  2  0
 11 13  1  0
 13 14  2  0
 14 15  1  0
 15 16  2  0
 16 17  1  0
 17 18  2  0
  9  4  1  0
 18 13  1  0
M  END
