CVD-0001657|dock_bobby27042020.37|mol2|30|dock1
     RDKit          3D

 24 26  0  0  0  0  0  0  0  0999 V2000
    9.2446   -2.7690   24.0870 O   0  0  0  0  0  0  0  0  0  0  0  0
    9.4539   -2.5743   22.8942 C   0  0  0  0  0  0  0  0  0  0  0  0
   10.7066   -2.3800   22.3912 N   0  0  0  0  0  0  0  0  0  0  0  0
   11.9709   -2.3829   23.0354 C   0  0  0  0  0  0  0  0  0  0  0  0
   12.1715   -2.5409   24.4044 C   0  0  0  0  0  0  0  0  0  0  0  0
   13.4607   -2.5205   24.9085 C   0  0  0  0  0  0  0  0  0  0  0  0
   14.5122   -2.3473   24.0389 C   0  0  0  0  0  0  0  0  0  0  0  0
   14.3535   -2.1975   22.7243 N   0  0  0  0  0  0  0  0  0  0  0  0
   13.1053   -2.2169   22.2485 C   0  0  0  0  0  0  0  0  0  0  0  0
    8.2828   -2.5432   21.9408 C   0  0  0  0  0  0  0  0  0  0  0  0
    7.9196   -1.3278   21.3518 C   0  0  0  0  0  0  0  0  0  0  0  0
    6.8414   -1.2379   20.4746 C   0  0  0  0  0  0  0  0  0  0  0  0
    6.1651   -2.4137   20.1902 C   0  0  0  0  0  0  0  0  0  0  0  0
    6.4825   -3.6006   20.7154 N   0  0  0  0  0  0  0  0  0  0  0  0
    7.5118   -3.6623   21.5798 C   0  0  0  0  0  0  0  0  0  0  0  0
    7.7410   -4.9921   22.1040 C   0  0  0  0  0  0  0  0  0  0  0  0
    7.8973   -6.0573   22.4857 N   0  0  0  0  0  0  0  0  0  0  0  0
    6.4666   -0.0203   19.9099 N   0  0  0  0  0  0  0  0  0  0  0  0
    6.0492    1.0984   20.7627 C   0  0  0  0  0  0  0  0  0  0  0  0
    4.5167    1.1811   20.9453 C   0  0  0  0  0  0  0  0  0  0  0  0
    3.8371    1.7015   19.6594 C   0  0  0  0  0  0  0  0  0  0  0  0
    4.1381    0.7977   18.5962 O   0  0  0  0  0  0  0  0  0  0  0  0
    5.3724    1.0384   17.9198 C   0  0  0  0  0  0  0  0  0  0  0  0
    6.5053    0.1278   18.4464 C   0  0  0  0  0  0  0  0  0  0  0  0
  1  2  2  0
  2  3  1  0
  3  4  1  0
  4  5  2  0
  5  6  1  0
  6  7  2  0
  7  8  1  0
  8  9  2  0
  2 10  1  0
 10 11  2  0
 11 12  1  0
 12 13  2  0
 13 14  1  0
 14 15  2  0
 15 16  1  0
 16 17  3  0
 12 18  1  0
 18 19  1  0
 19 20  1  0
 20 21  1  0
 21 22  1  0
 22 23  1  0
 23 24  1  0
  9  4  1  0
 15 10  1  0
 24 18  1  0
M  END
