CVD-0003940|dock_bobby27042020.15|mol2|7|dock2
     RDKit          3D

 30 33  0  0  0  0  0  0  0  0999 V2000
   13.9685    5.2942   22.0391 C   0  0  0  0  0  0  0  0  0  0  0  0
   13.2254    4.1188   22.6029 C   0  0  0  0  0  0  0  0  0  0  0  0
   13.1636    3.9080   23.8100 O   0  0  0  0  0  0  0  0  0  0  0  0
   12.6216    3.3253   21.7160 N   0  0  0  0  0  0  0  0  0  0  0  0
   11.8479    2.1560   22.1079 C   0  0  0  0  0  0  0  0  0  0  0  0
   12.7304    1.0510   22.6535 C   0  0  0  0  0  0  0  0  0  0  0  0
   11.9510   -0.1333   23.1451 C   0  0  0  0  0  0  0  0  0  0  0  0
   11.8077   -1.3415   22.5325 C   0  0  0  0  0  0  0  0  0  0  0  0
   11.0221   -2.1656   23.2897 N   0  0  0  0  0  0  0  0  0  0  0  0
   10.6320   -1.4984   24.4264 C   0  0  0  0  0  0  0  0  0  0  0  0
    9.8224   -1.8994   25.5201 C   0  0  0  0  0  0  0  0  0  0  0  0
    9.6168   -0.9764   26.5475 C   0  0  0  0  0  0  0  0  0  0  0  0
   10.1922    0.2681   26.4500 C   0  0  0  0  0  0  0  0  0  0  0  0
    9.9704    1.1469   27.4645 F   0  0  0  0  0  0  0  0  0  0  0  0
   10.9738    0.6878   25.4042 C   0  0  0  0  0  0  0  0  0  0  0  0
   11.2039   -0.2111   24.3678 C   0  0  0  0  0  0  0  0  0  0  0  0
    9.2045   -3.3037   25.5567 C   0  0  0  0  0  0  0  0  0  0  0  0
    8.1101   -3.4922   26.6065 C   0  0  0  0  0  0  0  0  0  0  0  0
    7.5221   -4.8908   26.5441 C   0  0  0  0  0  0  0  0  0  0  0  0
    8.5937   -5.9531   26.6793 C   0  0  0  0  0  0  0  0  0  0  0  0
    9.6777   -5.7742   25.6294 C   0  0  0  0  0  0  0  0  0  0  0  0
   10.2789   -4.3783   25.6874 C   0  0  0  0  0  0  0  0  0  0  0  0
    8.5921   -3.3551   24.2169 C   0  0  0  0  0  0  0  0  0  0  0  0
    8.1540   -3.4128   23.1124 C   0  0  0  0  0  0  0  0  0  0  0  0
    7.6029   -3.5507   21.7793 C   0  0  0  0  0  0  0  0  0  0  0  0
    8.4268   -2.7327   20.7864 C   0  0  0  0  0  0  0  0  0  0  0  0
    8.2142   -1.2296   21.0384 C   0  0  0  0  0  0  0  0  0  0  0  0
    6.6953   -0.8649   21.1197 C   0  0  0  0  0  0  0  0  0  0  0  0
    6.0129   -1.7115   22.0862 N   0  0  0  0  0  0  0  0  0  0  0  0
    6.1427   -3.1263   21.7449 C   0  0  0  0  0  0  0  0  0  0  0  0
  1  2  1  0
  2  3  2  0
  2  4  1  0
  4  5  1  0
  5  6  1  0
  6  7  1  0
  7  8  2  0
  8  9  1  0
  9 10  1  0
 10 11  2  0
 11 12  1  0
 12 13  2  0
 13 14  1  0
 13 15  1  0
 15 16  2  0
 11 17  1  0
 17 18  1  0
 18 19  1  0
 19 20  1  0
 20 21  1  0
 21 22  1  0
 17 23  1  0
 23 24  3  0
 24 25  1  0
 25 26  1  0
 26 27  1  0
 27 28  1  0
 28 29  1  0
 29 30  1  0
 16  7  1  0
 22 17  1  0
 30 25  1  0
 16 10  1  0
M  END
