CVD-0002265|dock_bobby27042020.64|mol2|7|dock3
     RDKit          3D

 26 28  0  0  0  0  0  0  0  0999 V2000
   13.7818    5.7613   22.1847 C   0  0  0  0  0  0  0  0  0  0  0  0
   12.7745    4.6799   22.3926 C   0  0  0  0  0  0  0  0  0  0  0  0
   11.6435    4.8599   22.9914 N   0  0  0  0  0  0  0  0  0  0  0  0
   10.8621    3.7068   23.0607 N   0  0  0  0  0  0  0  0  0  0  0  0
   11.4440    2.7018   22.5011 C   0  0  0  0  0  0  0  0  0  0  0  0
   13.0208    3.0601   21.8250 S   0  0  0  0  0  0  0  0  0  0  0  0
   10.8490    1.3221   22.4173 C   0  0  0  0  0  0  0  0  0  0  0  0
   11.0431    0.5994   23.6873 N   0  0  0  0  0  0  0  0  0  0  0  0
   12.4021    0.6862   24.2067 C   0  0  0  0  0  0  0  0  0  0  0  0
   13.4198   -0.0501   23.3526 C   0  0  0  0  0  0  0  0  0  0  0  0
   12.9210   -1.4082   23.0225 C   0  0  0  0  0  0  0  0  0  0  0  0
   11.6522   -1.7470   23.1436 C   0  0  0  0  0  0  0  0  0  0  0  0
   11.1146   -2.9668   22.8417 F   0  0  0  0  0  0  0  0  0  0  0  0
   10.6224   -0.7995   23.6399 C   0  0  0  0  0  0  0  0  0  0  0  0
    9.1409    1.4535   21.9554 S   0  0  0  0  0  0  0  0  0  0  0  0
    9.0694    2.4656   20.9410 O   0  0  0  0  0  0  0  0  0  0  0  0
    8.3782    1.6049   23.1614 O   0  0  0  0  0  0  0  0  0  0  0  0
    8.6748    0.0597   21.2888 N   0  0  0  0  0  0  0  0  0  0  0  0
    7.3587   -0.5099   21.6041 C   0  0  0  0  0  0  0  0  0  0  0  0
    6.7136   -1.0870   20.3569 C   0  0  0  0  0  0  0  0  0  0  0  0
    6.1304   -0.0250   19.4565 C   0  0  0  0  0  0  0  0  0  0  0  0
    4.8735    0.5045   19.7053 C   0  0  0  0  0  0  0  0  0  0  0  0
    4.3366    1.4766   18.8776 C   0  0  0  0  0  0  0  0  0  0  0  0
    5.0505    1.9308   17.7897 C   0  0  0  0  0  0  0  0  0  0  0  0
    6.3006    1.4123   17.5297 C   0  0  0  0  0  0  0  0  0  0  0  0
    6.8366    0.4403   18.3579 C   0  0  0  0  0  0  0  0  0  0  0  0
  1  2  1  0
  2  3  2  0
  3  4  1  0
  4  5  2  0
  5  6  1  0
  5  7  1  0
  7  8  1  0
  8  9  1  0
  9 10  1  0
 10 11  1  0
 11 12  2  0
 12 13  1  0
 12 14  1  0
  7 15  1  0
 15 16  2  0
 15 17  2  0
 15 18  1  0
 18 19  1  0
 19 20  1  0
 20 21  1  0
 21 22  2  0
 22 23  1  0
 23 24  2  0
 24 25  1  0
 25 26  2  0
  6  2  1  0
 14  8  1  0
 26 21  1  0
M  END
