CVD-0000033|dock_bobby27042020.71|mol2|37|dock3
     RDKit          3D

 19 20  0  0  0  0  0  0  0  0999 V2000
    3.2528    2.5119   19.6019 C   0  0  0  0  0  0  0  0  0  0  0  0
    4.5514    2.6217   20.1816 O   0  0  0  0  0  0  0  0  0  0  0  0
    5.5136    1.6824   19.9061 C   0  0  0  0  0  0  0  0  0  0  0  0
    5.2632    0.6091   19.0606 C   0  0  0  0  0  0  0  0  0  0  0  0
    6.2788   -0.2950   18.8255 C   0  0  0  0  0  0  0  0  0  0  0  0
    5.9763   -1.6429   17.7652 Cl  0  0  0  0  0  0  0  0  0  0  0  0
    7.5253   -0.1670   19.4013 C   0  0  0  0  0  0  0  0  0  0  0  0
    7.7527    0.9060   20.2486 C   0  0  0  0  0  0  0  0  0  0  0  0
    9.0035    1.0989   20.8755 O   0  0  0  0  0  0  0  0  0  0  0  0
    9.7556    0.0722   21.3947 C   0  0  0  0  0  0  0  0  0  0  0  0
    9.4851   -1.1070   21.3165 O   0  0  0  0  0  0  0  0  0  0  0  0
   10.8284    0.6435   22.0014 N   0  0  0  0  0  0  0  0  0  0  0  0
   11.9084    0.0451   22.6966 C   0  0  0  0  0  0  0  0  0  0  0  0
   12.3115   -1.2351   22.3391 C   0  0  0  0  0  0  0  0  0  0  0  0
   13.3646   -1.8334   23.0081 C   0  0  0  0  0  0  0  0  0  0  0  0
   13.9858   -1.1345   24.0168 C   0  0  0  0  0  0  0  0  0  0  0  0
   13.6229    0.0947   24.3835 N   0  0  0  0  0  0  0  0  0  0  0  0
   12.6046    0.6649   23.7319 C   0  0  0  0  0  0  0  0  0  0  0  0
    6.7562    1.8344   20.5008 C   0  0  0  0  0  0  0  0  0  0  0  0
  1  2  1  0
  2  3  1  0
  3  4  2  0
  4  5  1  0
  5  6  1  0
  5  7  2  0
  7  8  1  0
  8  9  1  0
  9 10  1  0
 10 11  2  0
 10 12  1  0
 12 13  1  0
 13 14  2  0
 14 15  1  0
 15 16  2  0
 16 17  1  0
 17 18  2  0
  8 19  2  0
 19  3  1  0
 18 13  1  0
M  END
