CVD-0003804|dock_bobby27042020.72|mol2|37|dock3
     RDKit          3D

 29 32  0  0  0  0  0  0  0  0999 V2000
   13.7888    5.0120   21.0681 N   0  0  0  0  0  0  0  0  0  0  0  0
   13.5456    4.7585   22.6300 S   0  0  0  0  0  0  0  0  0  0  0  0
   14.8097    4.4054   23.2035 O   0  0  0  0  0  0  0  0  0  0  0  0
   12.8492    5.9008   23.1411 O   0  0  0  0  0  0  0  0  0  0  0  0
   12.4759    3.3635   22.8111 C   0  0  0  0  0  0  0  0  0  0  0  0
   11.1055    3.5453   22.8506 C   0  0  0  0  0  0  0  0  0  0  0  0
   10.2730    2.4479   22.9805 C   0  0  0  0  0  0  0  0  0  0  0  0
   10.7846    1.1576   23.0859 C   0  0  0  0  0  0  0  0  0  0  0  0
   12.1676    1.0036   23.0485 C   0  0  0  0  0  0  0  0  0  0  0  0
   13.0104    2.0915   22.9048 C   0  0  0  0  0  0  0  0  0  0  0  0
    9.9412    0.0600   23.2237 N   0  0  0  0  0  0  0  0  0  0  0  0
    8.7439   -0.1317   22.3997 C   0  0  0  0  0  0  0  0  0  0  0  0
    8.6327   -1.5384   21.8837 C   0  0  0  0  0  0  0  0  0  0  0  0
    8.6542   -2.5499   23.0351 C   0  0  0  0  0  0  0  0  0  0  0  0
    9.8993   -2.3234   23.8548 C   0  0  0  0  0  0  0  0  0  0  0  0
   10.0304   -0.8987   24.3495 C   0  0  0  0  0  0  0  0  0  0  0  0
    8.5426   -3.9403   22.5424 N   0  0  0  0  0  0  0  0  0  0  0  0
    7.7198   -4.9607   23.2209 C   0  0  0  0  0  0  0  0  0  0  0  0
    6.2183   -4.5544   23.2142 C   0  0  0  0  0  0  0  0  0  0  0  0
    5.5347   -5.4425   22.2260 C   0  0  0  0  0  0  0  0  0  0  0  0
    6.4880   -6.4486   21.7786 C   0  0  0  0  0  0  0  0  0  0  0  0
    7.7978   -6.2884   22.4341 C   0  0  0  0  0  0  0  0  0  0  0  0
    8.3199   -5.1095   24.6255 C   0  0  0  0  0  0  0  0  0  0  0  0
    7.8304   -4.3405   25.6754 C   0  0  0  0  0  0  0  0  0  0  0  0
    8.3470   -4.4545   26.9547 C   0  0  0  0  0  0  0  0  0  0  0  0
    9.3715   -5.3477   27.2122 C   0  0  0  0  0  0  0  0  0  0  0  0
    9.8416   -6.0966   26.1690 C   0  0  0  0  0  0  0  0  0  0  0  0
   10.8488   -6.9791   26.4085 F   0  0  0  0  0  0  0  0  0  0  0  0
    9.3518   -6.0074   24.8886 C   0  0  0  0  0  0  0  0  0  0  0  0
  1  2  1  0
  2  3  2  0
  2  4  2  0
  2  5  1  0
  5  6  2  0
  6  7  1  0
  7  8  2  0
  8  9  1  0
  9 10  2  0
  8 11  1  0
 11 12  1  0
 12 13  1  0
 13 14  1  0
 14 15  1  0
 15 16  1  0
 14 17  1  0
 17 18  1  0
 18 19  1  0
 19 20  1  0
 20 21  1  0
 21 22  1  0
 18 23  1  0
 23 24  2  0
 24 25  1  0
 25 26  2  0
 26 27  1  0
 27 28  1  0
 27 29  2  0
 10  5  1  0
 16 11  1  0
 22 18  1  0
 29 23  1  0
M  END
