CVD-0003026|dock_bobby27042020.46|mol2|33|dock2
     RDKit          3D

 27 29  0  0  0  0  0  0  0  0999 V2000
    4.5001    0.6249   19.4168 N   0  0  0  0  0  0  0  0  0  0  0  0
    6.0094    0.1944   19.1012 S   0  0  0  0  0  0  0  0  0  0  0  0
    6.3594    0.7726   17.8385 O   0  0  0  0  0  0  0  0  0  0  0  0
    6.0854   -1.2273   19.2560 O   0  0  0  0  0  0  0  0  0  0  0  0
    7.0643    0.9154   20.3222 C   0  0  0  0  0  0  0  0  0  0  0  0
    6.7980    2.1921   20.7873 C   0  0  0  0  0  0  0  0  0  0  0  0
    7.6426    2.7521   21.7254 C   0  0  0  0  0  0  0  0  0  0  0  0
    8.7480    2.0603   22.2073 C   0  0  0  0  0  0  0  0  0  0  0  0
    9.6165    2.6426   23.2962 C   0  0  0  0  0  0  0  0  0  0  0  0
   11.0091    2.0487   23.2548 C   0  0  0  0  0  0  0  0  0  0  0  0
   10.9282    0.5327   23.2739 C   0  0  0  0  0  0  0  0  0  0  0  0
   10.1554    0.0602   22.1324 N   0  0  0  0  0  0  0  0  0  0  0  0
   10.4008   -1.3059   21.6691 C   0  0  0  0  0  0  0  0  0  0  0  0
    9.4473   -2.3270   22.2642 C   0  0  0  0  0  0  0  0  0  0  0  0
    9.8461   -2.7393   23.6710 C   0  0  0  0  0  0  0  0  0  0  0  0
    9.3281   -4.0473   24.0968 N   0  0  0  0  0  0  0  0  0  0  0  0
    7.8632   -4.0595   24.0470 C   0  0  0  0  0  0  0  0  0  0  0  0
    7.3354   -5.4245   24.4478 C   0  0  0  0  0  0  0  0  0  0  0  0
    7.7990   -5.7780   25.7913 N   0  0  0  0  0  0  0  0  0  0  0  0
    9.2606   -5.7167   25.8903 C   0  0  0  0  0  0  0  0  0  0  0  0
    9.7613   -4.3505   25.4583 C   0  0  0  0  0  0  0  0  0  0  0  0
    6.9596   -6.1390   26.7831 C   0  0  0  0  0  0  0  0  0  0  0  0
    5.7483   -6.2008   26.6141 O   0  0  0  0  0  0  0  0  0  0  0  0
    7.5890   -6.4602   28.1247 C   0  0  0  0  0  0  0  0  0  0  0  0
    6.3736   -6.9674   29.3049 Cl  0  0  0  0  0  0  0  0  0  0  0  0
    9.0117    0.7600   21.7277 C   0  0  0  0  0  0  0  0  0  0  0  0
    8.1580    0.1967   20.7810 C   0  0  0  0  0  0  0  0  0  0  0  0
  1  2  1  0
  2  3  2  0
  2  4  2  0
  2  5  1  0
  5  6  2  0
  6  7  1  0
  7  8  2  0
  8  9  1  0
  9 10  1  0
 10 11  1  0
 11 12  1  0
 12 13  1  0
 13 14  1  0
 14 15  1  0
 15 16  1  0
 16 17  1  0
 17 18  1  0
 18 19  1  0
 19 20  1  0
 20 21  1  0
 19 22  1  0
 22 23  2  0
 22 24  1  0
 24 25  1  0
 12 26  1  0
 26 27  2  0
 27  5  1  0
 26  8  1  0
 21 16  1  0
M  END
