CVD-0003677|dock_bobby27042020.44|mol2|33|dock3
     RDKit          3D

 17 17  0  0  0  0  0  0  0  0999 V2000
    6.0590   -0.4396   18.3669 C   0  0  0  0  0  0  0  0  0  0  0  0
    6.1796    0.4963   19.5597 C   0  0  0  0  0  0  0  0  0  0  0  0
    4.8209    0.9024   20.1097 C   0  0  0  0  0  0  0  0  0  0  0  0
    7.0386   -0.0884   20.6196 N   0  0  0  0  0  0  0  0  0  0  0  0
    6.5362   -1.3027   21.2573 C   0  0  0  0  0  0  0  0  0  0  0  0
    8.2132    0.4891   20.9749 C   0  0  0  0  0  0  0  0  0  0  0  0
    8.5941    1.5175   20.4493 O   0  0  0  0  0  0  0  0  0  0  0  0
    9.0632   -0.1768   22.0445 C   0  0  0  0  0  0  0  0  0  0  0  0
   10.0604   -1.1462   21.4219 C   0  0  0  0  0  0  0  0  0  0  0  0
   10.9293   -1.7761   22.4911 C   0  0  0  0  0  0  0  0  0  0  0  0
   11.6218   -0.7361   23.2475 N   0  0  0  0  0  0  0  0  0  0  0  0
   10.7046    0.1867   23.9074 C   0  0  0  0  0  0  0  0  0  0  0  0
    9.8127    0.8646   22.8725 C   0  0  0  0  0  0  0  0  0  0  0  0
   12.9309   -0.7409   23.5756 C   0  0  0  0  0  0  0  0  0  0  0  0
   13.4403    0.1811   24.2001 O   0  0  0  0  0  0  0  0  0  0  0  0
   13.7526   -1.9359   23.1312 C   0  0  0  0  0  0  0  0  0  0  0  0
   14.0480   -1.9261   21.3875 Cl  0  0  0  0  0  0  0  0  0  0  0  0
  1  2  1  0
  2  3  1  0
  2  4  1  0
  4  5  1  0
  4  6  1  0
  6  7  2  0
  6  8  1  0
  8  9  1  0
  9 10  1  0
 10 11  1  0
 11 12  1  0
 12 13  1  0
 11 14  1  0
 14 15  2  0
 14 16  1  0
 16 17  1  0
 13  8  1  0
M  END
