CVD-0002362|dock_bobby27042020.20|mol2|22|dock2
     RDKit          3D

 38 42  0  0  0  0  0  0  0  0999 V2000
    9.0435   -0.3699   29.1736 C   0  0  0  0  0  0  0  0  0  0  0  0
    9.2142   -1.0627   27.8939 N   0  0  0  0  0  0  0  0  0  0  0  0
    7.9956   -1.1473   27.0818 C   0  0  0  0  0  0  0  0  0  0  0  0
    8.2783   -1.6979   25.7088 C   0  0  0  0  0  0  0  0  0  0  0  0
    7.4794   -2.6314   25.0265 C   0  0  0  0  0  0  0  0  0  0  0  0
    8.0286   -2.9256   23.7901 C   0  0  0  0  0  0  0  0  0  0  0  0
    7.4709   -3.8628   22.7766 C   0  0  0  0  0  0  0  0  0  0  0  0
    7.5385   -5.2476   22.9532 C   0  0  0  0  0  0  0  0  0  0  0  0
    7.0256   -6.1222   22.0098 C   0  0  0  0  0  0  0  0  0  0  0  0
    6.4427   -5.6461   20.8586 C   0  0  0  0  0  0  0  0  0  0  0  0
    6.3622   -4.2832   20.6450 C   0  0  0  0  0  0  0  0  0  0  0  0
    6.8655   -3.4317   21.5998 C   0  0  0  0  0  0  0  0  0  0  0  0
    6.7374   -2.1103   21.3408 F   0  0  0  0  0  0  0  0  0  0  0  0
    9.2211   -2.1482   23.7133 N   0  0  0  0  0  0  0  0  0  0  0  0
    9.3530   -1.4104   24.8831 C   0  0  0  0  0  0  0  0  0  0  0  0
   10.4272   -1.9811   22.5307 S   0  0  0  0  0  0  0  0  0  0  0  0
   11.5215   -2.8200   22.9105 O   0  0  0  0  0  0  0  0  0  0  0  0
    9.7612   -2.2306   21.2902 O   0  0  0  0  0  0  0  0  0  0  0  0
   10.9235   -0.2926   22.5247 C   0  0  0  0  0  0  0  0  0  0  0  0
   12.2343    0.0577   22.7946 C   0  0  0  0  0  0  0  0  0  0  0  0
   12.5952    1.3939   22.7860 C   0  0  0  0  0  0  0  0  0  0  0  0
   11.6186    2.3442   22.4985 C   0  0  0  0  0  0  0  0  0  0  0  0
   10.3494    2.0101   22.2477 N   0  0  0  0  0  0  0  0  0  0  0  0
   10.0185    0.7150   22.2607 C   0  0  0  0  0  0  0  0  0  0  0  0
   11.8756    3.7342   22.4612 N   0  0  0  0  0  0  0  0  0  0  0  0
   13.2112    4.2584   22.0904 C   0  0  0  0  0  0  0  0  0  0  0  0
   13.8131    4.9673   23.1307 C   0  0  0  0  0  0  0  0  0  0  0  0
   13.0459    5.6882   24.1203 C   0  0  0  0  0  0  0  0  0  0  0  0
   11.5735    5.7035   23.8330 C   0  0  0  0  0  0  0  0  0  0  0  0
   10.7668    6.7261   24.3224 C   0  0  0  0  0  0  0  0  0  0  0  0
    9.4254    6.8055   24.0103 C   0  0  0  0  0  0  0  0  0  0  0  0
    8.8802    5.8366   23.1884 C   0  0  0  0  0  0  0  0  0  0  0  0
    9.6557    4.8027   22.6827 C   0  0  0  0  0  0  0  0  0  0  0  0
   11.0124    4.7314   23.0049 C   0  0  0  0  0  0  0  0  0  0  0  0
    7.1519    5.8716   22.8224 S   0  0  0  0  0  0  0  0  0  0  0  0
    6.9647    6.3358   21.3017 N   0  0  0  0  0  0  0  0  0  0  0  0
    6.5601    6.8804   23.6490 O   0  0  0  0  0  0  0  0  0  0  0  0
    6.6673    4.5273   22.9175 O   0  0  0  0  0  0  0  0  0  0  0  0
  1  2  1  0
  2  3  1  0
  3  4  1  0
  4  5  1  0
  5  6  2  0
  6  7  1  0
  7  8  2  0
  8  9  1  0
  9 10  2  0
 10 11  1  0
 11 12  2  0
 12 13  1  0
  6 14  1  0
 14 15  1  0
 14 16  1  0
 16 17  2  0
 16 18  2  0
 16 19  1  0
 19 20  2  0
 20 21  1  0
 21 22  2  0
 22 23  1  0
 23 24  2  0
 22 25  1  0
 25 26  1  0
 26 27  1  0
 27 28  1  0
 28 29  1  0
 29 30  2  0
 30 31  1  0
 31 32  2  0
 32 33  1  0
 33 34  2  0
 32 35  1  0
 35 36  1  0
 35 37  2  0
 35 38  2  0
 15  4  2  0
 24 19  1  0
 34 25  1  0
 12  7  1  0
 34 29  1  0
M  END
