CVD-0003544|dock_bobby27042020.30|mol2|33|dock1
     RDKit          3D

 22 23  0  0  0  0  0  0  0  0999 V2000
   12.5147    4.2306   21.6793 Cl  0  0  0  0  0  0  0  0  0  0  0  0
   12.8565    4.3782   23.4082 C   0  0  0  0  0  0  0  0  0  0  0  0
   12.1153    3.3199   24.2027 C   0  0  0  0  0  0  0  0  0  0  0  0
   11.2056    3.6218   24.9650 O   0  0  0  0  0  0  0  0  0  0  0  0
   12.4985    2.0379   24.0257 N   0  0  0  0  0  0  0  0  0  0  0  0
   11.8327    0.9671   24.7492 C   0  0  0  0  0  0  0  0  0  0  0  0
   11.3722   -0.0997   23.8065 C   0  0  0  0  0  0  0  0  0  0  0  0
   12.5212   -0.5749   23.0225 N   0  0  0  0  0  0  0  0  0  0  0  0
   13.1299    0.5078   22.2354 C   0  0  0  0  0  0  0  0  0  0  0  0
   13.5979    1.5863   23.1671 C   0  0  0  0  0  0  0  0  0  0  0  0
   12.3995   -2.0404   22.3467 S   0  0  0  0  0  0  0  0  0  0  0  0
   12.1823   -2.9884   23.3912 O   0  0  0  0  0  0  0  0  0  0  0  0
   13.4920   -2.1989   21.4421 O   0  0  0  0  0  0  0  0  0  0  0  0
   11.0329   -2.0720   21.4171 N   0  0  0  0  0  0  0  0  0  0  0  0
    9.7472   -2.3755   21.8380 C   0  0  0  0  0  0  0  0  0  0  0  0
    9.5150   -2.6619   23.0086 O   0  0  0  0  0  0  0  0  0  0  0  0
    8.6631   -2.3327   20.7791 C   0  0  0  0  0  0  0  0  0  0  0  0
    8.7130   -1.3161   19.9159 N   0  0  0  0  0  0  0  0  0  0  0  0
    7.7446   -1.3015   18.9913 C   0  0  0  0  0  0  0  0  0  0  0  0
    6.7578   -2.2574   18.9183 C   0  0  0  0  0  0  0  0  0  0  0  0
    6.8146   -3.2547   19.8646 C   0  0  0  0  0  0  0  0  0  0  0  0
    7.7609   -3.3157   20.8099 N   0  0  0  0  0  0  0  0  0  0  0  0
  1  2  1  0
  2  3  1  0
  3  4  2  0
  3  5  1  0
  5  6  1  0
  6  7  1  0
  7  8  1  0
  8  9  1  0
  9 10  1  0
  8 11  1  0
 11 12  2  0
 11 13  2  0
 11 14  1  0
 14 15  1  0
 15 16  2  0
 15 17  1  0
 17 18  2  0
 18 19  1  0
 19 20  2  0
 20 21  1  0
 21 22  2  0
 10  5  1  0
 22 17  1  0
M  END
