CVD-0002426|dock_bobby27042020.20|mol2|12|dock3
     RDKit          3D

 34 37  0  0  0  0  0  0  0  0999 V2000
   13.8383    6.3479   22.7774 Cl  0  0  0  0  0  0  0  0  0  0  0  0
   13.8713    4.5818   22.8608 C   0  0  0  0  0  0  0  0  0  0  0  0
   12.5538    3.9796   22.4109 C   0  0  0  0  0  0  0  0  0  0  0  0
   11.5995    4.6998   22.1461 O   0  0  0  0  0  0  0  0  0  0  0  0
   12.4554    2.6342   22.3164 N   0  0  0  0  0  0  0  0  0  0  0  0
   13.5170    1.6788   22.6219 C   0  0  0  0  0  0  0  0  0  0  0  0
   12.9681    0.5488   23.4683 C   0  0  0  0  0  0  0  0  0  0  0  0
   11.8102   -0.1400   22.7566 C   0  0  0  0  0  0  0  0  0  0  0  0
   10.7424    0.8924   22.4020 C   0  0  0  0  0  0  0  0  0  0  0  0
   11.3464    2.0304   21.5858 C   0  0  0  0  0  0  0  0  0  0  0  0
   11.2304   -1.2458   23.6123 C   0  0  0  0  0  0  0  0  0  0  0  0
   11.3251   -1.2117   24.8358 O   0  0  0  0  0  0  0  0  0  0  0  0
   10.6257   -2.2268   22.8991 N   0  0  0  0  0  0  0  0  0  0  0  0
    9.9769   -3.4086   23.3357 C   0  0  0  0  0  0  0  0  0  0  0  0
   10.4086   -4.2207   24.3844 C   0  0  0  0  0  0  0  0  0  0  0  0
    9.6805   -5.3538   24.7112 C   0  0  0  0  0  0  0  0  0  0  0  0
    8.5387   -5.6883   24.0151 C   0  0  0  0  0  0  0  0  0  0  0  0
    8.0979   -4.8928   22.9723 C   0  0  0  0  0  0  0  0  0  0  0  0
    8.8147   -3.7536   22.6331 C   0  0  0  0  0  0  0  0  0  0  0  0
    8.4832   -2.8881   21.6200 O   0  0  0  0  0  0  0  0  0  0  0  0
    7.3436   -3.1550   20.7895 C   0  0  0  0  0  0  0  0  0  0  0  0
    7.1507   -1.9974   19.8406 C   0  0  0  0  0  0  0  0  0  0  0  0
    6.6277   -0.7770   20.5450 C   0  0  0  0  0  0  0  0  0  0  0  0
    6.4820    0.3258   19.5937 N   0  0  0  0  0  0  0  0  0  0  0  0
    5.9930    1.5372   20.2677 C   0  0  0  0  0  0  0  0  0  0  0  0
    4.5058    1.7494   20.1155 C   0  0  0  0  0  0  0  0  0  0  0  0
    3.9961    2.4319   19.0219 C   0  0  0  0  0  0  0  0  0  0  0  0
    2.6318    2.6239   18.8808 C   0  0  0  0  0  0  0  0  0  0  0  0
    1.7619    2.1349   19.8314 C   0  0  0  0  0  0  0  0  0  0  0  0
    2.2559    1.4535   20.9230 C   0  0  0  0  0  0  0  0  0  0  0  0
    3.6203    1.2615   21.0639 C   0  0  0  0  0  0  0  0  0  0  0  0
    5.5944   -0.0978   18.5135 C   0  0  0  0  0  0  0  0  0  0  0  0
    6.1344   -1.3387   17.8524 C   0  0  0  0  0  0  0  0  0  0  0  0
    6.2970   -2.3970   18.7811 O   0  0  0  0  0  0  0  0  0  0  0  0
  1  2  1  0
  2  3  1  0
  3  4  2  0
  3  5  1  0
  5  6  1  0
  6  7  1  0
  7  8  1  0
  8  9  1  0
  9 10  1  0
  8 11  1  0
 11 12  2  0
 11 13  1  0
 13 14  1  0
 14 15  2  0
 15 16  1  0
 16 17  2  0
 17 18  1  0
 18 19  2  0
 19 20  1  0
 20 21  1  0
 21 22  1  0
 22 23  1  0
 23 24  1  0
 24 25  1  0
 25 26  1  0
 26 27  2  0
 27 28  1  0
 28 29  2  0
 29 30  1  0
 30 31  2  0
 24 32  1  0
 32 33  1  0
 33 34  1  0
 10  5  1  0
 19 14  1  0
 34 22  1  0
 31 26  1  0
M  END
