CVD-0000424|dock_bobby27042020.70|mol2|15|dock2
     RDKit          3D

 25 28  0  0  0  0  0  0  0  0999 V2000
    5.1075    1.1630   18.0163 C   0  0  0  0  0  0  0  0  0  0  0  0
    5.1514   -0.2584   18.5564 C   0  0  0  0  0  0  0  0  0  0  0  0
    6.4405   -0.5792   19.2731 C   0  0  0  0  0  0  0  0  0  0  0  0
    7.6520   -0.8236   18.6941 C   0  0  0  0  0  0  0  0  0  0  0  0
    8.5992   -1.0786   19.6482 N   0  0  0  0  0  0  0  0  0  0  0  0
    8.0025   -1.0011   20.8817 C   0  0  0  0  0  0  0  0  0  0  0  0
    8.5309   -1.1767   22.1631 C   0  0  0  0  0  0  0  0  0  0  0  0
    9.8898   -1.4886   22.2118 O   0  0  0  0  0  0  0  0  0  0  0  0
   10.8483   -0.5780   22.5608 C   0  0  0  0  0  0  0  0  0  0  0  0
   10.5975    0.7659   22.3364 C   0  0  0  0  0  0  0  0  0  0  0  0
   11.5678    1.6964   22.6816 C   0  0  0  0  0  0  0  0  0  0  0  0
   11.3410    3.1739   22.4545 C   0  0  0  0  0  0  0  0  0  0  0  0
   12.6162    3.9610   22.2991 C   0  0  0  0  0  0  0  0  0  0  0  0
   13.3885    4.6004   23.2133 C   0  0  0  0  0  0  0  0  0  0  0  0
   14.4647    5.1856   22.5928 N   0  0  0  0  0  0  0  0  0  0  0  0
   14.3342    4.8956   21.3117 C   0  0  0  0  0  0  0  0  0  0  0  0
   13.2329    4.1580   21.0869 N   0  0  0  0  0  0  0  0  0  0  0  0
   12.7470    1.2265   23.2331 C   0  0  0  0  0  0  0  0  0  0  0  0
   12.9001   -0.1330   23.4131 C   0  0  0  0  0  0  0  0  0  0  0  0
   11.9698   -1.0393   23.0846 N   0  0  0  0  0  0  0  0  0  0  0  0
    7.7080   -1.0468   23.2716 C   0  0  0  0  0  0  0  0  0  0  0  0
    6.3850   -0.7410   23.0485 C   0  0  0  0  0  0  0  0  0  0  0  0
    5.5753   -0.6111   24.1339 F   0  0  0  0  0  0  0  0  0  0  0  0
    5.8225   -0.5574   21.8070 C   0  0  0  0  0  0  0  0  0  0  0  0
    6.6449   -0.6896   20.6897 C   0  0  0  0  0  0  0  0  0  0  0  0
  1  2  1  0
  2  3  1  0
  3  4  2  0
  4  5  1  0
  5  6  1  0
  6  7  2  0
  7  8  1  0
  8  9  1  0
  9 10  2  0
 10 11  1  0
 11 12  1  0
 12 13  1  0
 13 14  2  0
 14 15  1  0
 15 16  2  0
 16 17  1  0
 11 18  2  0
 18 19  1  0
 19 20  2  0
  7 21  1  0
 21 22  2  0
 22 23  1  0
 22 24  1  0
 24 25  2  0
 25  3  1  0
 25  6  1  0
 20  9  1  0
 17 13  1  0
M  END
