CVD-0002523|dock_bobby27042020.77|mol2|8|dock1
     RDKit          3D

 28 32  0  0  0  0  0  0  0  0999 V2000
    6.6947   -1.1387   25.4845 O   0  0  0  0  0  0  0  0  0  0  0  0
    6.2345   -1.7105   24.2611 C   0  0  0  0  0  0  0  0  0  0  0  0
    6.2776   -3.2255   24.3348 C   0  0  0  0  0  0  0  0  0  0  0  0
    7.7117   -3.7493   24.2532 C   0  0  0  0  0  0  0  0  0  0  0  0
    8.4262   -3.2032   23.0296 C   0  0  0  0  0  0  0  0  0  0  0  0
    8.4548   -1.7299   23.0512 N   0  0  0  0  0  0  0  0  0  0  0  0
    7.0196   -1.3175   23.0056 C   0  0  0  0  0  0  0  0  0  0  0  0
    6.4850   -0.0531   22.3087 C   0  0  0  0  0  0  0  0  0  0  0  0
    7.0919    1.2894   22.4247 N   0  0  0  0  0  0  0  0  0  0  0  0
    8.2268    1.6875   21.5767 C   0  0  0  0  0  0  0  0  0  0  0  0
    9.4516    1.0999   22.2196 C   0  0  0  0  0  0  0  0  0  0  0  0
    9.1693    1.1642   23.6539 N   0  0  0  0  0  0  0  0  0  0  0  0
    8.5055    2.3955   24.0526 C   0  0  0  0  0  0  0  0  0  0  0  0
    7.0788    2.0582   23.6846 C   0  0  0  0  0  0  0  0  0  0  0  0
    9.2100    0.1408   24.5142 C   0  0  0  0  0  0  0  0  0  0  0  0
    9.0023    0.3210   25.6989 O   0  0  0  0  0  0  0  0  0  0  0  0
    9.4816   -1.2827   24.0182 C   0  0  0  0  0  0  0  0  0  0  0  0
   10.9128   -1.4090   23.5093 C   0  0  0  0  0  0  0  0  0  0  0  0
   11.1952   -1.8388   22.2190 C   0  0  0  0  0  0  0  0  0  0  0  0
   12.5029   -1.9465   21.7762 C   0  0  0  0  0  0  0  0  0  0  0  0
   13.5471   -1.6260   22.6166 C   0  0  0  0  0  0  0  0  0  0  0  0
   13.2837   -1.1978   23.8997 C   0  0  0  0  0  0  0  0  0  0  0  0
   11.9759   -1.0901   24.3428 C   0  0  0  0  0  0  0  0  0  0  0  0
    6.3347   -0.3571   20.8454 C   0  0  0  0  0  0  0  0  0  0  0  0
    7.2469   -1.0214   20.0313 C   0  0  0  0  0  0  0  0  0  0  0  0
    6.7667   -1.1233   18.7032 C   0  0  0  0  0  0  0  0  0  0  0  0
    5.5580   -0.5645   18.5254 C   0  0  0  0  0  0  0  0  0  0  0  0
    4.9480    0.1123   19.9682 S   0  0  0  0  0  0  0  0  0  0  0  0
  1  2  1  0
  2  3  1  0
  3  4  1  0
  4  5  1  0
  5  6  1  0
  6  7  1  0
  7  8  1  0
  8  9  1  0
  9 10  1  0
 10 11  1  0
 11 12  1  0
 12 13  1  0
 13 14  1  0
 12 15  1  0
 15 16  2  0
 15 17  1  0
 17 18  1  0
 18 19  2  0
 19 20  1  0
 20 21  2  0
 21 22  1  0
 22 23  2  0
  8 24  1  0
 24 25  2  0
 25 26  1  0
 26 27  2  0
 27 28  1  0
  7  2  1  0
 14  9  1  0
 23 18  1  0
 28 24  1  0
 17  6  1  0
M  END
