CVD-0000047|dock_bobby27042020.14|mol2|21|dock2
     RDKit          3D

 22 23  0  0  0  0  0  0  0  0999 V2000
    3.8621    1.2735   20.6565 C   0  0  0  0  0  0  0  0  0  0  0  0
    4.7019    1.0381   19.4279 C   0  0  0  0  0  0  0  0  0  0  0  0
    4.7890    2.0336   18.4586 C   0  0  0  0  0  0  0  0  0  0  0  0
    5.5525    1.8282   17.3280 C   0  0  0  0  0  0  0  0  0  0  0  0
    6.2389    0.7056   17.0840 N   0  0  0  0  0  0  0  0  0  0  0  0
    6.1620   -0.2359   17.9885 C   0  0  0  0  0  0  0  0  0  0  0  0
    6.8753   -1.3263   17.6707 F   0  0  0  0  0  0  0  0  0  0  0  0
    5.4099   -0.1477   19.1960 C   0  0  0  0  0  0  0  0  0  0  0  0
    5.3419   -1.2038   20.1782 N   0  0  0  0  0  0  0  0  0  0  0  0
    6.0810   -2.6480   20.1052 S   0  0  0  0  0  0  0  0  0  0  0  0
    5.9532   -3.1242   18.7595 O   0  0  0  0  0  0  0  0  0  0  0  0
    5.5753   -3.4405   21.1869 O   0  0  0  0  0  0  0  0  0  0  0  0
    7.7906   -2.3735   20.4071 C   0  0  0  0  0  0  0  0  0  0  0  0
    8.3253   -1.1453   20.3369 C   0  0  0  0  0  0  0  0  0  0  0  0
    9.6799   -0.8937   20.5656 N   0  0  0  0  0  0  0  0  0  0  0  0
   10.1281   -0.1721   21.6045 C   0  0  0  0  0  0  0  0  0  0  0  0
    9.3867    0.3302   22.4449 O   0  0  0  0  0  0  0  0  0  0  0  0
   11.6321   -0.0154   21.6735 C   0  0  0  0  0  0  0  0  0  0  0  0
   12.2639   -0.8166   22.7717 C   0  0  0  0  0  0  0  0  0  0  0  0
   13.0868    0.0814   23.5439 C   0  0  0  0  0  0  0  0  0  0  0  0
   12.9391    1.3704   23.1009 C   0  0  0  0  0  0  0  0  0  0  0  0
   12.0135    1.4150   21.9558 C   0  0  0  0  0  0  0  0  0  0  0  0
  1  2  1  0
  2  3  2  0
  3  4  1  0
  4  5  2  0
  5  6  1  0
  6  7  1  0
  6  8  2  0
  8  9  1  0
  9 10  1  0
 10 11  2  0
 10 12  2  0
 10 13  1  0
 13 14  2  0
 14 15  1  0
 15 16  1  0
 16 17  2  0
 16 18  1  0
 18 19  1  0
 19 20  1  0
 20 21  1  0
 21 22  1  0
  8  2  1  0
 22 18  1  0
M  END
