CVD-0001921|dock_bobby27042020.22|mol2|21|dock3
     RDKit          3D

 28 30  0  0  0  0  0  0  0  0999 V2000
   12.4782    6.9984   25.3796 Cl  0  0  0  0  0  0  0  0  0  0  0  0
   12.6137    5.8992   24.0357 C   0  0  0  0  0  0  0  0  0  0  0  0
   13.4942    6.1871   23.0186 C   0  0  0  0  0  0  0  0  0  0  0  0
   13.5917    5.3057   21.9569 C   0  0  0  0  0  0  0  0  0  0  0  0
   12.8190    4.1567   21.9180 C   0  0  0  0  0  0  0  0  0  0  0  0
   11.9294    3.8712   22.9533 C   0  0  0  0  0  0  0  0  0  0  0  0
   11.0968    2.7219   23.0065 N   0  0  0  0  0  0  0  0  0  0  0  0
   10.5594    1.9581   21.9974 C   0  0  0  0  0  0  0  0  0  0  0  0
   10.7866    2.1789   20.8154 O   0  0  0  0  0  0  0  0  0  0  0  0
    9.7383    0.9054   22.3111 N   0  0  0  0  0  0  0  0  0  0  0  0
    9.0370    0.7230   23.5807 C   0  0  0  0  0  0  0  0  0  0  0  0
    9.3409   -0.6438   24.1560 C   0  0  0  0  0  0  0  0  0  0  0  0
    9.0327   -1.6819   23.1748 N   0  0  0  0  0  0  0  0  0  0  0  0
    9.7339   -1.4995   21.9052 C   0  0  0  0  0  0  0  0  0  0  0  0
    9.4301   -0.1327   21.3300 C   0  0  0  0  0  0  0  0  0  0  0  0
    8.2134   -2.7323   23.4878 C   0  0  0  0  0  0  0  0  0  0  0  0
    7.4443   -2.6426   24.4372 O   0  0  0  0  0  0  0  0  0  0  0  0
    8.2379   -3.8678   22.7660 N   0  0  0  0  0  0  0  0  0  0  0  0
    7.3252   -4.9486   23.0698 C   0  0  0  0  0  0  0  0  0  0  0  0
    7.2016   -5.1531   24.5708 C   0  0  0  0  0  0  0  0  0  0  0  0
    6.1189   -5.0326   25.1300 O   0  0  0  0  0  0  0  0  0  0  0  0
    8.3212   -5.4641   25.2569 N   0  0  0  0  0  0  0  0  0  0  0  0
    8.3348   -5.6635   26.7109 C   0  0  0  0  0  0  0  0  0  0  0  0
    9.5039   -4.9191   27.3228 C   0  0  0  0  0  0  0  0  0  0  0  0
   10.7346   -5.2984   26.7403 O   0  0  0  0  0  0  0  0  0  0  0  0
   10.7202   -5.0259   25.3388 C   0  0  0  0  0  0  0  0  0  0  0  0
    9.6131   -5.7865   24.6432 C   0  0  0  0  0  0  0  0  0  0  0  0
   11.8343    4.7610   24.0191 C   0  0  0  0  0  0  0  0  0  0  0  0
  1  2  1  0
  2  3  2  0
  3  4  1  0
  4  5  2  0
  5  6  1  0
  6  7  1  0
  7  8  1  0
  8  9  2  0
  8 10  1  0
 10 11  1  0
 11 12  1  0
 12 13  1  0
 13 14  1  0
 14 15  1  0
 13 16  1  0
 16 17  2  0
 16 18  1  0
 18 19  1  0
 19 20  1  0
 20 21  2  0
 20 22  1  0
 22 23  1  0
 23 24  1  0
 24 25  1  0
 25 26  1  0
 26 27  1  0
  6 28  2  0
 28  2  1  0
 15 10  1  0
 27 22  1  0
M  END
