CVD-0003241|dock_bobby27042020.74|mol2|28|dock3
     RDKit          3D

 25 27  0  0  0  0  0  0  0  0999 V2000
   13.8460   -0.7567   22.5231 F   0  0  0  0  0  0  0  0  0  0  0  0
   12.5083   -0.7537   22.2757 C   0  0  0  0  0  0  0  0  0  0  0  0
   11.9742   -1.7733   21.5397 C   0  0  0  0  0  0  0  0  0  0  0  0
   10.6106   -1.7752   21.3064 C   0  0  0  0  0  0  0  0  0  0  0  0
    9.8076   -0.7545   21.8139 C   0  0  0  0  0  0  0  0  0  0  0  0
    8.3914   -0.8355   21.5740 N   0  0  0  0  0  0  0  0  0  0  0  0
    7.8153    0.0089   20.4771 C   0  0  0  0  0  0  0  0  0  0  0  0
    7.7223   -0.7632   19.1593 C   0  0  0  0  0  0  0  0  0  0  0  0
    5.9655   -0.7341   18.6877 S   0  0  0  0  0  0  0  0  0  0  0  0
    5.7741   -0.0473   17.4399 O   0  0  0  0  0  0  0  0  0  0  0  0
    5.3643   -2.0330   18.8184 O   0  0  0  0  0  0  0  0  0  0  0  0
    5.4598    0.3126   20.0027 C   0  0  0  0  0  0  0  0  0  0  0  0
    6.4831    0.5833   20.8219 C   0  0  0  0  0  0  0  0  0  0  0  0
    7.6098   -1.7095   22.2840 C   0  0  0  0  0  0  0  0  0  0  0  0
    6.3968   -1.7490   22.1258 O   0  0  0  0  0  0  0  0  0  0  0  0
    8.2817   -2.6199   23.2944 C   0  0  0  0  0  0  0  0  0  0  0  0
    9.1000   -1.6908   24.5571 Cl  0  0  0  0  0  0  0  0  0  0  0  0
   10.3857    0.3034   22.5367 C   0  0  0  0  0  0  0  0  0  0  0  0
    9.6072    1.4912   23.0631 C   0  0  0  0  0  0  0  0  0  0  0  0
   10.2871    2.8058   22.8373 C   0  0  0  0  0  0  0  0  0  0  0  0
   10.0333    3.9979   23.4363 C   0  0  0  0  0  0  0  0  0  0  0  0
   10.9043    4.9054   22.9113 N   0  0  0  0  0  0  0  0  0  0  0  0
   11.6570    4.2558   22.0185 C   0  0  0  0  0  0  0  0  0  0  0  0
   11.3207    2.9786   21.9368 N   0  0  0  0  0  0  0  0  0  0  0  0
   11.7550    0.2765   22.7769 C   0  0  0  0  0  0  0  0  0  0  0  0
  1  2  1  0
  2  3  2  0
  3  4  1  0
  4  5  2  0
  5  6  1  0
  6  7  1  0
  7  8  1  0
  8  9  1  0
  9 10  2  0
  9 11  2  0
  9 12  1  0
 12 13  2  0
  6 14  1  0
 14 15  2  0
 14 16  1  0
 16 17  1  0
  5 18  1  0
 18 19  1  0
 19 20  1  0
 20 21  2  0
 21 22  1  0
 22 23  1  0
 23 24  2  0
 18 25  2  0
 25  2  1  0
 13  7  1  0
 24 20  1  0
M  END
