CVD-0002719|dock_bobby27042020.76|mol2|16|dock2
     RDKit          3D

 19 20  0  0  0  0  0  0  0  0999 V2000
   13.9904   -1.8340   20.7977 Cl  0  0  0  0  0  0  0  0  0  0  0  0
   12.9387   -1.2844   22.0723 C   0  0  0  0  0  0  0  0  0  0  0  0
   13.4539   -0.4945   23.0751 C   0  0  0  0  0  0  0  0  0  0  0  0
   12.6047   -0.0541   24.0749 C   0  0  0  0  0  0  0  0  0  0  0  0
   11.2657   -0.4071   24.0625 C   0  0  0  0  0  0  0  0  0  0  0  0
   10.7528   -1.2294   23.0621 C   0  0  0  0  0  0  0  0  0  0  0  0
   11.6093   -1.6532   22.0509 C   0  0  0  0  0  0  0  0  0  0  0  0
    9.3195   -1.6775   22.9884 C   0  0  0  0  0  0  0  0  0  0  0  0
    8.9168   -2.3176   23.9445 O   0  0  0  0  0  0  0  0  0  0  0  0
    8.4764   -1.4189   21.9604 N   0  0  0  0  0  0  0  0  0  0  0  0
    8.8292   -0.7181   20.7271 C   0  0  0  0  0  0  0  0  0  0  0  0
    7.8726    0.4298   20.4843 C   0  0  0  0  0  0  0  0  0  0  0  0
    6.4938   -0.0540   20.4963 N   0  0  0  0  0  0  0  0  0  0  0  0
    6.1410   -0.7549   21.7296 C   0  0  0  0  0  0  0  0  0  0  0  0
    7.0975   -1.9027   21.9724 C   0  0  0  0  0  0  0  0  0  0  0  0
    5.6446    0.2064   19.4608 C   0  0  0  0  0  0  0  0  0  0  0  0
    4.4928   -0.2233   19.5058 O   0  0  0  0  0  0  0  0  0  0  0  0
    6.0005    0.9900   18.2362 C   0  0  0  0  0  0  0  0  0  0  0  0
    5.2899    1.9586   17.7177 C   0  0  0  0  0  0  0  0  0  0  0  0
  1  2  1  0
  2  3  2  0
  3  4  1  0
  4  5  2  0
  5  6  1  0
  6  7  2  0
  6  8  1  0
  8  9  2  0
  8 10  1  0
 10 11  1  0
 11 12  1  0
 12 13  1  0
 13 14  1  0
 14 15  1  0
 13 16  1  0
 16 17  2  0
 16 18  1  0
 18 19  2  0
  7  2  1  0
 15 10  1  0
M  END
