CVD-0003403|dock_bobby27042020.45|mol2|25|dock2
     RDKit          3D

 19 21  0  0  0  0  0  0  0  0999 V2000
    8.5230    0.0237   22.7570 O   0  0  0  0  0  0  0  0  0  0  0  0
    8.9906   -0.5449   21.7763 C   0  0  0  0  0  0  0  0  0  0  0  0
    8.2174   -1.6375   21.0720 C   0  0  0  0  0  0  0  0  0  0  0  0
    7.5941   -1.1876   19.7470 C   0  0  0  0  0  0  0  0  0  0  0  0
    6.9701    0.2173   19.8733 C   0  0  0  0  0  0  0  0  0  0  0  0
    6.2763    0.6648   18.5880 C   0  0  0  0  0  0  0  0  0  0  0  0
    5.2472   -0.3596   18.1279 C   0  0  0  0  0  0  0  0  0  0  0  0
    5.8748   -1.7376   17.9740 C   0  0  0  0  0  0  0  0  0  0  0  0
    6.5310   -2.1933   19.2733 C   0  0  0  0  0  0  0  0  0  0  0  0
   10.2095   -0.2738   21.2160 N   0  0  0  0  0  0  0  0  0  0  0  0
   11.1379    0.6985   21.6614 C   0  0  0  0  0  0  0  0  0  0  0  0
   11.0195    2.0557   21.7354 C   0  0  0  0  0  0  0  0  0  0  0  0
   12.0110    2.8810   22.1924 N   0  0  0  0  0  0  0  0  0  0  0  0
   13.1396    2.3468   22.5825 C   0  0  0  0  0  0  0  0  0  0  0  0
   13.3490    0.9957   22.5443 N   0  0  0  0  0  0  0  0  0  0  0  0
   14.4826    0.3293   22.9246 N   0  0  0  0  0  0  0  0  0  0  0  0
   14.2125   -0.9569   22.7065 C   0  0  0  0  0  0  0  0  0  0  0  0
   12.9361   -1.1731   22.1929 C   0  0  0  0  0  0  0  0  0  0  0  0
   12.3843    0.1349   22.0946 C   0  0  0  0  0  0  0  0  0  0  0  0
  1  2  2  0
  2  3  1  0
  3  4  1  0
  4  5  1  0
  5  6  1  0
  6  7  1  0
  7  8  1  0
  8  9  1  0
  2 10  1  0
 10 11  1  0
 11 12  2  0
 12 13  1  0
 13 14  2  0
 14 15  1  0
 15 16  1  0
 16 17  2  0
 17 18  1  0
 18 19  2  0
  9  4  1  0
 19 11  1  0
 19 15  1  0
M  END
