CVD-0002135|dock_bobby27042020.7|mol2|16|dock3
     RDKit          3D

 21 23  0  0  0  0  0  0  0  0999 V2000
    6.9578    0.5278   24.4327 N   0  0  0  0  0  0  0  0  0  0  0  0
    8.2886    1.1640   24.3143 C   0  0  0  0  0  0  0  0  0  0  0  0
    9.1820    0.4758   23.2905 C   0  0  0  0  0  0  0  0  0  0  0  0
    9.6691   -0.7120   23.8948 O   0  0  0  0  0  0  0  0  0  0  0  0
   10.4232   -1.5354   22.9798 C   0  0  0  0  0  0  0  0  0  0  0  0
    9.3794   -2.0902   21.9753 C   0  0  0  0  0  0  0  0  0  0  0  0
    8.7617   -0.9118   21.2405 C   0  0  0  0  0  0  0  0  0  0  0  0
    8.2529   -1.0066   19.9389 C   0  0  0  0  0  0  0  0  0  0  0  0
    8.6126   -2.0449   19.1187 O   0  0  0  0  0  0  0  0  0  0  0  0
    7.5003    0.0271   19.3871 C   0  0  0  0  0  0  0  0  0  0  0  0
    7.0558   -0.0850   18.1085 O   0  0  0  0  0  0  0  0  0  0  0  0
    7.2410    1.1765   20.1227 C   0  0  0  0  0  0  0  0  0  0  0  0
    7.7384    1.2810   21.4077 C   0  0  0  0  0  0  0  0  0  0  0  0
    8.4937    0.2497   21.9682 C   0  0  0  0  0  0  0  0  0  0  0  0
   11.5696   -0.6699   22.4591 C   0  0  0  0  0  0  0  0  0  0  0  0
   12.5244   -1.4889   21.5758 C   0  0  0  0  0  0  0  0  0  0  0  0
   13.2553   -2.5427   22.4033 C   0  0  0  0  0  0  0  0  0  0  0  0
   14.0213   -1.8986   23.5564 C   0  0  0  0  0  0  0  0  0  0  0  0
   13.1211   -1.0331   24.4210 C   0  0  0  0  0  0  0  0  0  0  0  0
   13.8130   -0.4479   25.5284 O   0  0  0  0  0  0  0  0  0  0  0  0
   12.3516   -0.0024   23.5875 C   0  0  0  0  0  0  0  0  0  0  0  0
  1  2  1  0
  2  3  1  0
  3  4  1  0
  4  5  1  0
  5  6  1  0
  6  7  1  0
  7  8  2  0
  8  9  1  0
  8 10  1  0
 10 11  1  0
 10 12  2  0
 12 13  1  0
 13 14  2  0
  5 15  1  0
 15 16  1  0
 16 17  1  0
 17 18  1  0
 18 19  1  0
 19 20  1  0
 19 21  1  0
 14  3  1  0
 21 15  1  0
 14  7  1  0
M  END
