CVD-0001650|dock_bobby27042020.37|mol2|31|dock1
     RDKit          3D

 18 19  0  0  0  0  0  0  0  0999 V2000
   13.4124    5.0114   21.2526 F   0  0  0  0  0  0  0  0  0  0  0  0
   13.2679    4.6496   22.5504 C   0  0  0  0  0  0  0  0  0  0  0  0
   13.0547    5.7939   23.2442 F   0  0  0  0  0  0  0  0  0  0  0  0
   12.0986    3.7124   22.7086 C   0  0  0  0  0  0  0  0  0  0  0  0
   12.3184    2.3400   22.7499 C   0  0  0  0  0  0  0  0  0  0  0  0
   11.2487    1.4570   22.8979 C   0  0  0  0  0  0  0  0  0  0  0  0
    9.9751    2.0094   22.9989 C   0  0  0  0  0  0  0  0  0  0  0  0
    9.7117    3.3220   22.9609 N   0  0  0  0  0  0  0  0  0  0  0  0
   10.7470    4.1676   22.8200 C   0  0  0  0  0  0  0  0  0  0  0  0
   10.4380    5.5805   22.7846 C   0  0  0  0  0  0  0  0  0  0  0  0
   10.2168    6.7011   22.7932 N   0  0  0  0  0  0  0  0  0  0  0  0
   11.4549    0.0801   22.9414 N   0  0  0  0  0  0  0  0  0  0  0  0
   12.7160   -0.4326   23.4888 C   0  0  0  0  0  0  0  0  0  0  0  0
   13.7835   -0.6979   22.4029 C   0  0  0  0  0  0  0  0  0  0  0  0
   13.4379   -1.9654   21.5904 C   0  0  0  0  0  0  0  0  0  0  0  0
   12.1692   -1.7661   20.9669 O   0  0  0  0  0  0  0  0  0  0  0  0
   11.0349   -2.0948   21.7698 C   0  0  0  0  0  0  0  0  0  0  0  0
   10.4241   -0.8445   22.4435 C   0  0  0  0  0  0  0  0  0  0  0  0
  1  2  1  0
  2  3  1  0
  2  4  1  0
  4  5  2  0
  5  6  1  0
  6  7  2  0
  7  8  1  0
  8  9  2  0
  9 10  1  0
 10 11  3  0
  6 12  1  0
 12 13  1  0
 13 14  1  0
 14 15  1  0
 15 16  1  0
 16 17  1  0
 17 18  1  0
  9  4  1  0
 18 12  1  0
M  END
