CVD-0004063|dock_bobby27042020.14|mol2|31|dock3
     RDKit          3D

 26 30  0  0  0  0  0  0  0  0999 V2000
   14.0807   -2.8480   23.2483 C   0  0  0  0  0  0  0  0  0  0  0  0
   13.0362   -1.7959   23.0468 C   0  0  0  0  0  0  0  0  0  0  0  0
   13.0793   -0.5909   23.7891 C   0  0  0  0  0  0  0  0  0  0  0  0
   12.1276    0.3375   23.5947 C   0  0  0  0  0  0  0  0  0  0  0  0
   11.1333    0.0795   22.6732 N   0  0  0  0  0  0  0  0  0  0  0  0
   10.0334    0.8189   22.2447 C   0  0  0  0  0  0  0  0  0  0  0  0
    9.4222    0.0275   21.2893 C   0  0  0  0  0  0  0  0  0  0  0  0
   10.1158   -1.1571   21.1205 N   0  0  0  0  0  0  0  0  0  0  0  0
   11.1428   -1.1168   21.9625 C   0  0  0  0  0  0  0  0  0  0  0  0
   12.0887   -2.0546   22.1484 N   0  0  0  0  0  0  0  0  0  0  0  0
    8.2097    0.2284   20.4682 C   0  0  0  0  0  0  0  0  0  0  0  0
    7.5205    1.4369   20.4445 C   0  0  0  0  0  0  0  0  0  0  0  0
    6.4113    1.6088   19.6352 C   0  0  0  0  0  0  0  0  0  0  0  0
    5.9860    0.5516   18.8789 C   0  0  0  0  0  0  0  0  0  0  0  0
    4.8963    0.7166   18.0814 F   0  0  0  0  0  0  0  0  0  0  0  0
    6.6103   -0.6652   18.8925 C   0  0  0  0  0  0  0  0  0  0  0  0
    7.7267   -0.8216   19.6944 C   0  0  0  0  0  0  0  0  0  0  0  0
    9.7343    2.1635   22.7906 C   0  0  0  0  0  0  0  0  0  0  0  0
    8.5104    2.4024   23.4190 C   0  0  0  0  0  0  0  0  0  0  0  0
    8.2275    3.6720   23.8915 C   0  0  0  0  0  0  0  0  0  0  0  0
    9.0576    4.7203   23.7913 N   0  0  0  0  0  0  0  0  0  0  0  0
   10.2459    4.4810   23.2118 C   0  0  0  0  0  0  0  0  0  0  0  0
   11.2715    5.3586   23.0102 N   0  0  0  0  0  0  0  0  0  0  0  0
   12.3060    4.6848   22.4004 C   0  0  0  0  0  0  0  0  0  0  0  0
   11.9727    3.3862   22.1944 C   0  0  0  0  0  0  0  0  0  0  0  0
   10.6401    3.2405   22.7043 C   0  0  0  0  0  0  0  0  0  0  0  0
  1  2  1  0
  2  3  1  0
  3  4  2  0
  4  5  1  0
  5  6  1  0
  6  7  2  0
  7  8  1  0
  8  9  2  0
  9 10  1  0
  7 11  1  0
 11 12  2  0
 12 13  1  0
 13 14  2  0
 14 15  1  0
 14 16  1  0
 16 17  2  0
  6 18  1  0
 18 19  2  0
 19 20  1  0
 20 21  2  0
 21 22  1  0
 22 23  1  0
 23 24  1  0
 24 25  2  0
 25 26  1  0
 10  2  2  0
 17 11  1  0
 26 18  1  0
  9  5  1  0
 26 22  2  0
M  END
