CVD-0000335|dock_bobby27042020.99|mol2|3|dock2
     RDKit          3D

 33 36  0  0  0  0  0  0  0  0999 V2000
    6.1485   -3.9061   26.8168 C   0  0  0  0  0  0  0  0  0  0  0  0
    7.0981   -2.7816   26.6098 C   0  0  0  0  0  0  0  0  0  0  0  0
    7.0144   -2.3618   25.2427 O   0  0  0  0  0  0  0  0  0  0  0  0
    7.9706   -1.5313   24.7095 C   0  0  0  0  0  0  0  0  0  0  0  0
    8.6776   -0.5897   25.4370 C   0  0  0  0  0  0  0  0  0  0  0  0
    9.5862    0.2327   24.9015 N   0  0  0  0  0  0  0  0  0  0  0  0
    9.8263    0.1460   23.5829 C   0  0  0  0  0  0  0  0  0  0  0  0
    9.1721   -0.7847   22.7848 C   0  0  0  0  0  0  0  0  0  0  0  0
    8.2351   -1.6569   23.3378 C   0  0  0  0  0  0  0  0  0  0  0  0
    7.5967   -2.6430   22.4140 C   0  0  0  0  0  0  0  0  0  0  0  0
    7.6736   -4.0224   22.6188 C   0  0  0  0  0  0  0  0  0  0  0  0
    7.0596   -4.8841   21.7326 C   0  0  0  0  0  0  0  0  0  0  0  0
    7.1613   -6.5999   22.0125 Cl  0  0  0  0  0  0  0  0  0  0  0  0
    6.3684   -4.4245   20.6313 C   0  0  0  0  0  0  0  0  0  0  0  0
    6.2893   -3.0558   20.4080 C   0  0  0  0  0  0  0  0  0  0  0  0
    6.9019   -2.1801   21.2965 C   0  0  0  0  0  0  0  0  0  0  0  0
    5.5489   -2.5273   19.2180 C   0  0  0  0  0  0  0  0  0  0  0  0
    5.0019   -3.2856   18.4230 O   0  0  0  0  0  0  0  0  0  0  0  0
    5.5205   -1.1608   19.0734 N   0  0  0  0  0  0  0  0  0  0  0  0
    5.2694    0.0918   18.5772 C   0  0  0  0  0  0  0  0  0  0  0  0
    4.3396    1.0661   18.8800 C   0  0  0  0  0  0  0  0  0  0  0  0
    4.6221    2.1313   17.9928 C   0  0  0  0  0  0  0  0  0  0  0  0
    5.6521    1.7583   17.2446 C   0  0  0  0  0  0  0  0  0  0  0  0
    6.0856    0.5007   17.5727 O   0  0  0  0  0  0  0  0  0  0  0  0
   10.8350    1.0943   23.0065 C   0  0  0  0  0  0  0  0  0  0  0  0
   12.2192    0.8834   23.1366 C   0  0  0  0  0  0  0  0  0  0  0  0
   12.7945   -0.2926   23.8821 C   0  0  0  0  0  0  0  0  0  0  0  0
   13.0906    1.8030   22.5629 C   0  0  0  0  0  0  0  0  0  0  0  0
   12.5489    2.8839   21.9086 C   0  0  0  0  0  0  0  0  0  0  0  0
   13.6096    4.0537   21.1808 Cl  0  0  0  0  0  0  0  0  0  0  0  0
   11.2537    3.1282   21.7752 N   0  0  0  0  0  0  0  0  0  0  0  0
   10.4550    2.2379   22.3104 C   0  0  0  0  0  0  0  0  0  0  0  0
    9.1494    2.4965   22.1401 F   0  0  0  0  0  0  0  0  0  0  0  0
  1  2  1  0
  2  3  1  0
  3  4  1  0
  4  5  2  0
  5  6  1  0
  6  7  2  0
  7  8  1  0
  8  9  2  0
  9 10  1  0
 10 11  2  0
 11 12  1  0
 12 13  1  0
 12 14  2  0
 14 15  1  0
 15 16  2  0
 15 17  1  0
 17 18  2  0
 17 19  1  0
 19 20  1  0
 20 21  2  0
 21 22  1  0
 22 23  2  0
 23 24  1  0
  7 25  1  0
 25 26  2  0
 26 27  1  0
 26 28  1  0
 28 29  2  0
 29 30  1  0
 29 31  1  0
 31 32  2  0
 32 33  1  0
  9  4  1  0
 16 10  1  0
 24 20  1  0
 32 25  1  0
M  END
