CVD-0003397|dock_bobby27042020.31|mol2|7|dock1
     RDKit          3D

 18 19  0  0  0  0  0  0  0  0999 V2000
    4.0601    1.6600   21.0820 C   0  0  0  0  0  0  0  0  0  0  0  0
    4.2725    1.2749   19.7036 N   0  0  0  0  0  0  0  0  0  0  0  0
    5.4752    0.8274   19.2236 C   0  0  0  0  0  0  0  0  0  0  0  0
    5.7972    0.9927   17.8829 C   0  0  0  0  0  0  0  0  0  0  0  0
    6.9488    0.5825   17.3466 N   0  0  0  0  0  0  0  0  0  0  0  0
    7.8342   -0.0180   18.1466 C   0  0  0  0  0  0  0  0  0  0  0  0
    7.6167   -0.2364   19.5052 C   0  0  0  0  0  0  0  0  0  0  0  0
    8.5508   -0.8724   20.3605 N   0  0  0  0  0  0  0  0  0  0  0  0
    8.6043   -0.9765   21.7108 C   0  0  0  0  0  0  0  0  0  0  0  0
    7.7915   -0.5028   22.4973 O   0  0  0  0  0  0  0  0  0  0  0  0
    9.7959   -1.7649   22.2069 C   0  0  0  0  0  0  0  0  0  0  0  0
   11.1047   -0.9690   22.1894 C   0  0  0  0  0  0  0  0  0  0  0  0
   11.0233    0.2579   23.1206 C   0  0  0  0  0  0  0  0  0  0  0  0
   12.3388    1.0322   23.1810 C   0  0  0  0  0  0  0  0  0  0  0  0
   13.5003    0.1233   23.5615 C   0  0  0  0  0  0  0  0  0  0  0  0
   13.5959   -1.0690   22.6205 C   0  0  0  0  0  0  0  0  0  0  0  0
   12.2914   -1.8591   22.5965 C   0  0  0  0  0  0  0  0  0  0  0  0
    6.4094    0.1998   20.0399 C   0  0  0  0  0  0  0  0  0  0  0  0
  1  2  1  0
  2  3  1  0
  3  4  2  0
  4  5  1  0
  5  6  2  0
  6  7  1  0
  7  8  1  0
  8  9  1  0
  9 10  2  0
  9 11  1  0
 11 12  1  0
 12 13  1  0
 13 14  1  0
 14 15  1  0
 15 16  1  0
 16 17  1  0
  7 18  2  0
 18  3  1  0
 17 12  1  0
M  END
