CVD-0002648|dock_bobby27042020.62|mol2|23|dock1
     RDKit          3D

 23 24  0  0  0  0  0  0  0  0999 V2000
    7.0702   -5.7164   22.5529 C   0  0  0  0  0  0  0  0  0  0  0  0
    6.7582   -5.1019   21.2200 C   0  0  0  0  0  0  0  0  0  0  0  0
    6.6049   -5.8022   20.2252 O   0  0  0  0  0  0  0  0  0  0  0  0
    6.6550   -3.7476   21.2521 N   0  0  0  0  0  0  0  0  0  0  0  0
    6.3618   -2.8088   20.2247 C   0  0  0  0  0  0  0  0  0  0  0  0
    5.6005   -3.1014   19.0937 C   0  0  0  0  0  0  0  0  0  0  0  0
    5.3269   -2.2159   18.1304 N   0  0  0  0  0  0  0  0  0  0  0  0
    5.8138   -0.9849   18.2633 C   0  0  0  0  0  0  0  0  0  0  0  0
    6.5778   -0.5863   19.3378 C   0  0  0  0  0  0  0  0  0  0  0  0
    6.8650   -1.5011   20.3449 C   0  0  0  0  0  0  0  0  0  0  0  0
    7.7104   -1.0201   21.5049 C   0  0  0  0  0  0  0  0  0  0  0  0
    9.0914   -1.6586   21.5779 C   0  0  0  0  0  0  0  0  0  0  0  0
    9.9666   -1.0332   22.6590 C   0  0  0  0  0  0  0  0  0  0  0  0
   10.3871    0.3674   22.3153 C   0  0  0  0  0  0  0  0  0  0  0  0
   11.0711    1.2701   23.0898 C   0  0  0  0  0  0  0  0  0  0  0  0
   11.5242    0.9529   24.4806 C   0  0  0  0  0  0  0  0  0  0  0  0
   11.3646    2.4836   22.6283 N   0  0  0  0  0  0  0  0  0  0  0  0
   12.0777    3.5774   23.2891 C   0  0  0  0  0  0  0  0  0  0  0  0
   11.0993    4.5177   24.0225 C   0  0  0  0  0  0  0  0  0  0  0  0
   11.8067    5.7109   24.6621 C   0  0  0  0  0  0  0  0  0  0  0  0
   12.6461    6.4700   23.6426 C   0  0  0  0  0  0  0  0  0  0  0  0
   13.6318    5.5442   22.9443 C   0  0  0  0  0  0  0  0  0  0  0  0
   12.9133    4.3770   22.2749 C   0  0  0  0  0  0  0  0  0  0  0  0
  1  2  1  0
  2  3  2  0
  2  4  1  0
  4  5  1  0
  5  6  2  0
  6  7  1  0
  7  8  2  0
  8  9  1  0
  9 10  2  0
 10 11  1  0
 11 12  1  0
 12 13  1  0
 13 14  1  0
 14 15  2  0
 15 16  1  0
 15 17  1  0
 17 18  1  0
 18 19  1  0
 19 20  1  0
 20 21  1  0
 21 22  1  0
 22 23  1  0
 10  5  1  0
 23 18  1  0
M  END
