CVD-0001307|dock_bobby27042020.81|mol2|29|dock3
     RDKit          3D

 20 21  0  0  0  0  0  0  0  0999 V2000
   14.5333   -1.3969   20.5573 F   0  0  0  0  0  0  0  0  0  0  0  0
   13.8454   -1.3057   21.7479 C   0  0  0  0  0  0  0  0  0  0  0  0
   12.1658   -1.8637   21.6052 S   0  0  0  0  0  0  0  0  0  0  0  0
   11.4299   -1.3586   23.1209 C   0  0  0  0  0  0  0  0  0  0  0  0
   12.0976   -1.1439   24.0990 O   0  0  0  0  0  0  0  0  0  0  0  0
    9.9245   -1.2267   23.0547 C   0  0  0  0  0  0  0  0  0  0  0  0
    9.2788   -2.5502   22.6635 C   0  0  0  0  0  0  0  0  0  0  0  0
    7.7751   -2.3995   22.5615 C   0  0  0  0  0  0  0  0  0  0  0  0
    7.4427   -1.3560   21.5951 N   0  0  0  0  0  0  0  0  0  0  0  0
    7.9959   -0.0554   21.9571 C   0  0  0  0  0  0  0  0  0  0  0  0
    9.5149   -0.1446   22.0580 C   0  0  0  0  0  0  0  0  0  0  0  0
    6.5034   -1.4493   20.6227 C   0  0  0  0  0  0  0  0  0  0  0  0
    5.8362   -2.4652   20.5285 O   0  0  0  0  0  0  0  0  0  0  0  0
    6.1929   -0.3783   19.6139 C   0  0  0  0  0  0  0  0  0  0  0  0
    4.9579    0.2548   19.4898 C   0  0  0  0  0  0  0  0  0  0  0  0
    4.7396    1.2212   18.5240 C   0  0  0  0  0  0  0  0  0  0  0  0
    5.7749    1.5650   17.6997 C   0  0  0  0  0  0  0  0  0  0  0  0
    5.5649    2.5136   16.7476 F   0  0  0  0  0  0  0  0  0  0  0  0
    7.0131    0.9936   17.7957 C   0  0  0  0  0  0  0  0  0  0  0  0
    7.2155    0.0217   18.7593 C   0  0  0  0  0  0  0  0  0  0  0  0
  1  2  1  0
  2  3  1  0
  3  4  1  0
  4  5  2  0
  4  6  1  0
  6  7  1  0
  7  8  1  0
  8  9  1  0
  9 10  1  0
 10 11  1  0
  9 12  1  0
 12 13  2  0
 12 14  1  0
 14 15  2  0
 15 16  1  0
 16 17  2  0
 17 18  1  0
 17 19  1  0
 19 20  2  0
 11  6  1  0
 20 14  1  0
M  END
