CVD-0003019|dock_bobby27042020.46|mol2|34|dock3
     RDKit          3D

 22 23  0  0  0  0  0  0  0  0999 V2000
    5.5897   -6.3937   21.6963 C   0  0  0  0  0  0  0  0  0  0  0  0
    6.7221   -5.5666   22.0542 O   0  0  0  0  0  0  0  0  0  0  0  0
    6.7492   -4.3555   21.5070 C   0  0  0  0  0  0  0  0  0  0  0  0
    5.8978   -3.9211   20.7593 O   0  0  0  0  0  0  0  0  0  0  0  0
    7.9233   -3.5832   21.8988 C   0  0  0  0  0  0  0  0  0  0  0  0
    8.8945   -2.9223   22.1322 C   0  0  0  0  0  0  0  0  0  0  0  0
   10.0975   -2.1713   22.3599 C   0  0  0  0  0  0  0  0  0  0  0  0
   11.1320   -2.7046   23.1219 C   0  0  0  0  0  0  0  0  0  0  0  0
   12.2884   -1.9760   23.3370 C   0  0  0  0  0  0  0  0  0  0  0  0
   12.4457   -0.7068   22.8028 C   0  0  0  0  0  0  0  0  0  0  0  0
   13.7088    0.0837   23.0447 C   0  0  0  0  0  0  0  0  0  0  0  0
   13.5581    1.5060   22.7748 N   0  0  0  0  0  0  0  0  0  0  0  0
   12.5229    2.1887   23.2965 C   0  0  0  0  0  0  0  0  0  0  0  0
   11.7085    1.6379   24.0272 O   0  0  0  0  0  0  0  0  0  0  0  0
   12.3781    3.5125   23.0069 N   0  0  0  0  0  0  0  0  0  0  0  0
   13.4824    4.3460   22.5175 C   0  0  0  0  0  0  0  0  0  0  0  0
   13.5136    5.6576   23.2753 C   0  0  0  0  0  0  0  0  0  0  0  0
   12.2794    6.3419   23.1977 O   0  0  0  0  0  0  0  0  0  0  0  0
   11.2355    5.5374   23.7470 C   0  0  0  0  0  0  0  0  0  0  0  0
   11.0993    4.2296   22.9994 C   0  0  0  0  0  0  0  0  0  0  0  0
   11.4114   -0.1795   22.0455 C   0  0  0  0  0  0  0  0  0  0  0  0
   10.2498   -0.8973   21.8226 C   0  0  0  0  0  0  0  0  0  0  0  0
  1  2  1  0
  2  3  1  0
  3  4  2  0
  3  5  1  0
  5  6  3  0
  6  7  1  0
  7  8  2  0
  8  9  1  0
  9 10  2  0
 10 11  1  0
 11 12  1  0
 12 13  1  0
 13 14  2  0
 13 15  1  0
 15 16  1  0
 16 17  1  0
 17 18  1  0
 18 19  1  0
 19 20  1  0
 10 21  1  0
 21 22  2  0
 22  7  1  0
 20 15  1  0
M  END
