CVD-0001636|dock_bobby27042020.37|mol2|33|dock1
     RDKit          3D

 24 26  0  0  0  0  0  0  0  0999 V2000
   10.9380    0.0510   25.2652 C   0  0  0  0  0  0  0  0  0  0  0  0
   12.1811   -0.4737   24.5618 C   0  0  0  0  0  0  0  0  0  0  0  0
   13.1345   -1.1330   25.5138 C   0  0  0  0  0  0  0  0  0  0  0  0
   14.3576   -1.4902   24.8708 O   0  0  0  0  0  0  0  0  0  0  0  0
   14.1141   -2.3799   23.7984 C   0  0  0  0  0  0  0  0  0  0  0  0
   13.2001   -1.7815   22.7777 C   0  0  0  0  0  0  0  0  0  0  0  0
   11.9506   -1.3624   23.4187 N   0  0  0  0  0  0  0  0  0  0  0  0
   10.7268   -1.8160   22.8933 C   0  0  0  0  0  0  0  0  0  0  0  0
   10.1891   -3.0607   23.1713 C   0  0  0  0  0  0  0  0  0  0  0  0
    8.9998   -3.4695   22.7192 N   0  0  0  0  0  0  0  0  0  0  0  0
    8.3216   -2.6612   21.8830 C   0  0  0  0  0  0  0  0  0  0  0  0
    7.0746   -3.2342   21.4216 C   0  0  0  0  0  0  0  0  0  0  0  0
    6.0991   -3.7214   21.0815 N   0  0  0  0  0  0  0  0  0  0  0  0
    8.7831   -1.3908   21.4928 C   0  0  0  0  0  0  0  0  0  0  0  0
   10.0056   -0.9893   22.0405 C   0  0  0  0  0  0  0  0  0  0  0  0
    8.0562   -0.4561   20.5545 C   0  0  0  0  0  0  0  0  0  0  0  0
    8.6803    0.0668   19.6373 O   0  0  0  0  0  0  0  0  0  0  0  0
    6.7283   -0.2258   20.7670 N   0  0  0  0  0  0  0  0  0  0  0  0
    5.8021    0.5903   20.0662 C   0  0  0  0  0  0  0  0  0  0  0  0
    5.9723    1.0283   18.7533 C   0  0  0  0  0  0  0  0  0  0  0  0
    5.0131    1.8286   18.1545 C   0  0  0  0  0  0  0  0  0  0  0  0
    3.8791    2.1988   18.8427 C   0  0  0  0  0  0  0  0  0  0  0  0
    3.6981    1.7684   20.1379 C   0  0  0  0  0  0  0  0  0  0  0  0
    4.6508    0.9700   20.7474 C   0  0  0  0  0  0  0  0  0  0  0  0
  1  2  1  0
  2  3  1  0
  3  4  1  0
  4  5  1  0
  5  6  1  0
  6  7  1  0
  7  8  1  0
  8  9  2  0
  9 10  1  0
 10 11  2  0
 11 12  1  0
 12 13  3  0
 11 14  1  0
 14 15  2  0
 14 16  1  0
 16 17  2  0
 16 18  1  0
 18 19  1  0
 19 20  2  0
 20 21  1  0
 21 22  2  0
 22 23  1  0
 23 24  2  0
  7  2  1  0
 15  8  1  0
 24 19  1  0
M  END
