CVD-0002952|dock_bobby27042020.61|mol2|25|dock3
     RDKit          3D

 26 28  0  0  0  0  0  0  0  0999 V2000
    7.4096   -5.0423   22.9710 Cl  0  0  0  0  0  0  0  0  0  0  0  0
    8.0085   -3.5167   22.3063 C   0  0  0  0  0  0  0  0  0  0  0  0
    7.0025   -2.8832   21.3634 C   0  0  0  0  0  0  0  0  0  0  0  0
    6.0307   -3.5197   20.9758 O   0  0  0  0  0  0  0  0  0  0  0  0
    7.2145   -1.6082   20.9621 N   0  0  0  0  0  0  0  0  0  0  0  0
    8.4064   -0.8566   21.3257 C   0  0  0  0  0  0  0  0  0  0  0  0
    8.2279   -0.0568   22.5746 C   0  0  0  0  0  0  0  0  0  0  0  0
    7.1768    0.0462   23.4370 C   0  0  0  0  0  0  0  0  0  0  0  0
    7.4967    0.9003   24.4365 N   0  0  0  0  0  0  0  0  0  0  0  0
    8.7198    1.3379   24.2395 N   0  0  0  0  0  0  0  0  0  0  0  0
    9.1613    0.7673   23.0971 N   0  0  0  0  0  0  0  0  0  0  0  0
   10.5167    1.0542   22.6255 C   0  0  0  0  0  0  0  0  0  0  0  0
   11.5473    0.1144   23.2034 C   0  0  0  0  0  0  0  0  0  0  0  0
   12.0045   -0.9719   22.4739 C   0  0  0  0  0  0  0  0  0  0  0  0
   12.9513   -1.8358   22.9951 C   0  0  0  0  0  0  0  0  0  0  0  0
   13.4435   -1.6052   24.2607 C   0  0  0  0  0  0  0  0  0  0  0  0
   14.6349   -2.6871   24.9259 Cl  0  0  0  0  0  0  0  0  0  0  0  0
   13.0094   -0.5334   25.0092 C   0  0  0  0  0  0  0  0  0  0  0  0
   12.0622    0.3213   24.4737 C   0  0  0  0  0  0  0  0  0  0  0  0
    6.2328   -0.9013   20.1215 C   0  0  0  0  0  0  0  0  0  0  0  0
    6.0250    0.5689   20.5095 C   0  0  0  0  0  0  0  0  0  0  0  0
    5.2806    1.2310   19.3602 C   0  0  0  0  0  0  0  0  0  0  0  0
    5.8995    0.4587   17.8628 S   0  0  0  0  0  0  0  0  0  0  0  0
    4.7911    0.0587   17.0385 O   0  0  0  0  0  0  0  0  0  0  0  0
    6.9227    1.2732   17.2649 O   0  0  0  0  0  0  0  0  0  0  0  0
    6.6458   -0.9642   18.6665 C   0  0  0  0  0  0  0  0  0  0  0  0
  1  2  1  0
  2  3  1  0
  3  4  2  0
  3  5  1  0
  5  6  1  0
  6  7  1  0
  7  8  2  0
  8  9  1  0
  9 10  2  0
 10 11  1  0
 11 12  1  0
 12 13  1  0
 13 14  2  0
 14 15  1  0
 15 16  2  0
 16 17  1  0
 16 18  1  0
 18 19  2  0
  5 20  1  0
 20 21  1  0
 21 22  1  0
 22 23  1  0
 23 24  2  0
 23 25  2  0
 23 26  1  0
 11  7  1  0
 19 13  1  0
 26 20  1  0
M  END
