CVD-0003600|dock_bobby27042020.87|mol2|24|dock3
     RDKit          3D

 25 27  0  0  0  0  0  0  0  0999 V2000
   11.0429   -1.8767   23.0707 O   0  0  0  0  0  0  0  0  0  0  0  0
   11.2323   -1.7982   21.8598 C   0  0  0  0  0  0  0  0  0  0  0  0
   12.4680   -1.7285   21.3264 N   0  0  0  0  0  0  0  0  0  0  0  0
   13.6634   -1.7422   22.1573 C   0  0  0  0  0  0  0  0  0  0  0  0
   13.9155   -0.3863   22.7872 C   0  0  0  0  0  0  0  0  0  0  0  0
   12.6841    0.3392   23.1301 N   0  0  0  0  0  0  0  0  0  0  0  0
   12.3085    1.2381   22.0391 C   0  0  0  0  0  0  0  0  0  0  0  0
   10.9703    1.8987   22.3191 C   0  0  0  0  0  0  0  0  0  0  0  0
   11.0048    2.6066   23.6072 N   0  0  0  0  0  0  0  0  0  0  0  0
   11.5254    1.8060   24.7244 C   0  0  0  0  0  0  0  0  0  0  0  0
   12.8395    1.1467   24.3411 C   0  0  0  0  0  0  0  0  0  0  0  0
   10.3851    3.8324   23.8040 C   0  0  0  0  0  0  0  0  0  0  0  0
    9.1163    4.0781   23.2883 C   0  0  0  0  0  0  0  0  0  0  0  0
    8.5009    5.3031   23.4855 C   0  0  0  0  0  0  0  0  0  0  0  0
    9.1373    6.2976   24.1936 C   0  0  0  0  0  0  0  0  0  0  0  0
   10.3927    6.0671   24.7096 C   0  0  0  0  0  0  0  0  0  0  0  0
   11.0153    4.8444   24.5214 C   0  0  0  0  0  0  0  0  0  0  0  0
   10.2191   -1.7755   20.9715 N   0  0  0  0  0  0  0  0  0  0  0  0
    8.8297   -1.8434   21.3999 C   0  0  0  0  0  0  0  0  0  0  0  0
    7.8561   -1.5851   20.2777 C   0  0  0  0  0  0  0  0  0  0  0  0
    7.9357   -0.4418   19.5005 C   0  0  0  0  0  0  0  0  0  0  0  0
    7.0130   -0.2670   18.4838 C   0  0  0  0  0  0  0  0  0  0  0  0
    6.0469   -1.2259   18.2706 C   0  0  0  0  0  0  0  0  0  0  0  0
    6.0418   -2.3319   19.0896 C   0  0  0  0  0  0  0  0  0  0  0  0
    6.9227   -2.5260   20.0801 N   0  0  0  0  0  0  0  0  0  0  0  0
  1  2  2  0
  2  3  1  0
  3  4  1  0
  4  5  1  0
  5  6  1  0
  6  7  1  0
  7  8  1  0
  8  9  1  0
  9 10  1  0
 10 11  1  0
  9 12  1  0
 12 13  2  0
 13 14  1  0
 14 15  2  0
 15 16  1  0
 16 17  2  0
  2 18  1  0
 18 19  1  0
 19 20  1  0
 20 21  2  0
 21 22  1  0
 22 23  2  0
 23 24  1  0
 24 25  2  0
 11  6  1  0
 17 12  1  0
 25 20  1  0
M  END
