CVD-0001179|dock_bobby27042020.81|mol2|48|dock1
     RDKit          3D

 24 25  0  0  0  0  0  0  0  0999 V2000
   14.0688   -3.1954   25.1900 C   0  0  0  0  0  0  0  0  0  0  0  0
   13.5205   -1.8344   24.8839 C   0  0  0  0  0  0  0  0  0  0  0  0
   13.9266   -1.1312   23.7562 C   0  0  0  0  0  0  0  0  0  0  0  0
   13.4029    0.1236   23.5057 C   0  0  0  0  0  0  0  0  0  0  0  0
   12.4766    0.6659   24.3866 C   0  0  0  0  0  0  0  0  0  0  0  0
   11.9206    1.9149   24.1857 N   0  0  0  0  0  0  0  0  0  0  0  0
   11.8873    2.5635   22.8897 C   0  0  0  0  0  0  0  0  0  0  0  0
   10.8446    3.6495   22.7917 C   0  0  0  0  0  0  0  0  0  0  0  0
    9.5649    3.3676   22.3252 C   0  0  0  0  0  0  0  0  0  0  0  0
    8.5834    4.3494   22.2276 C   0  0  0  0  0  0  0  0  0  0  0  0
    7.3089    3.9671   21.7399 N   0  0  0  0  0  0  0  0  0  0  0  0
    6.8399    2.7447   21.3770 C   0  0  0  0  0  0  0  0  0  0  0  0
    7.4310    1.6870   21.3937 O   0  0  0  0  0  0  0  0  0  0  0  0
    5.5651    2.9189   20.9837 O   0  0  0  0  0  0  0  0  0  0  0  0
    4.7096    1.8153   20.4872 C   0  0  0  0  0  0  0  0  0  0  0  0
    3.3297    2.3609   20.1784 C   0  0  0  0  0  0  0  0  0  0  0  0
    5.3524    1.2783   19.2253 C   0  0  0  0  0  0  0  0  0  0  0  0
    4.6435    0.7291   21.5421 C   0  0  0  0  0  0  0  0  0  0  0  0
    8.8939    5.6519   22.6097 C   0  0  0  0  0  0  0  0  0  0  0  0
   10.1598    5.9537   23.0777 C   0  0  0  0  0  0  0  0  0  0  0  0
   11.1163    4.9592   23.1645 C   0  0  0  0  0  0  0  0  0  0  0  0
   12.8332    5.4318   23.8141 Br  0  0  0  0  0  0  0  0  0  0  0  0
   12.1304   -0.1072   25.4878 C   0  0  0  0  0  0  0  0  0  0  0  0
   12.6292   -1.3225   25.7427 N   0  0  0  0  0  0  0  0  0  0  0  0
  1  2  1  0
  2  3  2  0
  3  4  1  0
  4  5  2  0
  5  6  1  0
  6  7  1  0
  7  8  1  0
  8  9  2  0
  9 10  1  0
 10 11  1  0
 11 12  1  0
 12 13  2  0
 12 14  1  0
 14 15  1  0
 15 16  1  0
 15 17  1  0
 15 18  1  0
 10 19  2  0
 19 20  1  0
 20 21  2  0
 21 22  1  0
  5 23  1  0
 23 24  2  0
 24  2  1  0
 21  8  1  0
M  END
