CVD-0001865|dock_bobby27042020.22|mol2|29|dock2
     RDKit          3D

 21 22  0  0  0  0  0  0  0  0999 V2000
    6.9792    0.5365   21.9620 F   0  0  0  0  0  0  0  0  0  0  0  0
    6.5297    0.1375   20.7502 C   0  0  0  0  0  0  0  0  0  0  0  0
    6.1928    1.1216   19.8514 C   0  0  0  0  0  0  0  0  0  0  0  0
    5.7406    0.7538   18.5964 C   0  0  0  0  0  0  0  0  0  0  0  0
    5.6366   -0.5831   18.2543 C   0  0  0  0  0  0  0  0  0  0  0  0
    5.9836   -1.5366   19.1820 C   0  0  0  0  0  0  0  0  0  0  0  0
    5.8774   -2.8293   18.7984 F   0  0  0  0  0  0  0  0  0  0  0  0
    6.4312   -1.2283   20.4705 C   0  0  0  0  0  0  0  0  0  0  0  0
    6.8655   -2.4813   21.6840 S   0  0  0  0  0  0  0  0  0  0  0  0
    6.0035   -2.3602   22.8186 O   0  0  0  0  0  0  0  0  0  0  0  0
    7.0091   -3.7536   21.0473 O   0  0  0  0  0  0  0  0  0  0  0  0
    8.3540   -2.0317   22.1740 N   0  0  0  0  0  0  0  0  0  0  0  0
    9.3802   -1.8630   21.1353 C   0  0  0  0  0  0  0  0  0  0  0  0
   10.4672   -0.9800   21.6624 C   0  0  0  0  0  0  0  0  0  0  0  0
   11.0068   -1.5156   22.9014 N   0  0  0  0  0  0  0  0  0  0  0  0
    9.9961   -1.7753   23.9314 C   0  0  0  0  0  0  0  0  0  0  0  0
    8.9043   -2.6497   23.3895 C   0  0  0  0  0  0  0  0  0  0  0  0
   12.3354   -1.6983   23.0416 C   0  0  0  0  0  0  0  0  0  0  0  0
   13.1258   -1.4367   22.1435 O   0  0  0  0  0  0  0  0  0  0  0  0
   12.8018   -2.2517   24.3736 C   0  0  0  0  0  0  0  0  0  0  0  0
   14.5658   -2.3616   24.4311 Cl  0  0  0  0  0  0  0  0  0  0  0  0
  1  2  1  0
  2  3  2  0
  3  4  1  0
  4  5  2  0
  5  6  1  0
  6  7  1  0
  6  8  2  0
  8  9  1  0
  9 10  2  0
  9 11  2  0
  9 12  1  0
 12 13  1  0
 13 14  1  0
 14 15  1  0
 15 16  1  0
 16 17  1  0
 15 18  1  0
 18 19  2  0
 18 20  1  0
 20 21  1  0
  8  2  1  0
 17 12  1  0
M  END
