CVD-0001527|dock_bobby27042020.23|mol2|34|dock2
     RDKit          3D

 23 26  0  0  0  0  0  0  0  0999 V2000
    8.8112    1.0976   23.9392 O   0  0  0  0  0  0  0  0  0  0  0  0
    9.9325    0.7467   23.5903 C   0  0  0  0  0  0  0  0  0  0  0  0
   10.2551   -0.5634   23.5934 N   0  0  0  0  0  0  0  0  0  0  0  0
   11.4184   -1.2037   22.9817 C   0  0  0  0  0  0  0  0  0  0  0  0
   10.9659   -2.3490   22.1179 C   0  0  0  0  0  0  0  0  0  0  0  0
   10.1775   -3.2770   22.8488 O   0  0  0  0  0  0  0  0  0  0  0  0
    9.0213   -2.6387   23.3643 C   0  0  0  0  0  0  0  0  0  0  0  0
    8.1005   -3.6708   23.9941 C   0  0  0  0  0  0  0  0  0  0  0  0
    8.5137   -4.0880   25.3407 N   0  0  0  0  0  0  0  0  0  0  0  0
    7.3889   -4.6579   26.0876 C   0  0  0  0  0  0  0  0  0  0  0  0
    7.8436   -5.0679   27.4497 C   0  0  0  0  0  0  0  0  0  0  0  0
    8.8859   -6.0346   27.3858 O   0  0  0  0  0  0  0  0  0  0  0  0
    9.9825   -5.5045   26.6599 C   0  0  0  0  0  0  0  0  0  0  0  0
    9.5852   -5.0807   25.2777 C   0  0  0  0  0  0  0  0  0  0  0  0
    9.3729   -1.5045   24.2804 C   0  0  0  0  0  0  0  0  0  0  0  0
   10.8549    1.8421   23.1821 C   0  0  0  0  0  0  0  0  0  0  0  0
   12.2273    1.9469   23.1975 C   0  0  0  0  0  0  0  0  0  0  0  0
   12.6721    3.2009   22.7033 C   0  0  0  0  0  0  0  0  0  0  0  0
   14.1918    3.9584   22.4669 S   0  0  0  0  0  0  0  0  0  0  0  0
   13.4550    5.3720   21.8480 C   0  0  0  0  0  0  0  0  0  0  0  0
   12.0954    5.2945   21.8119 C   0  0  0  0  0  0  0  0  0  0  0  0
   11.6569    4.0376   22.3074 C   0  0  0  0  0  0  0  0  0  0  0  0
   10.1201    3.2785   22.5425 S   0  0  0  0  0  0  0  0  0  0  0  0
  1  2  2  0
  2  3  1  0
  3  4  1  0
  4  5  1  0
  5  6  1  0
  6  7  1  0
  7  8  1  0
  8  9  1  0
  9 10  1  0
 10 11  1  0
 11 12  1  0
 12 13  1  0
 13 14  1  0
  7 15  1  0
  2 16  1  0
 16 17  2  0
 17 18  1  0
 18 19  1  0
 19 20  1  0
 20 21  2  0
 21 22  1  0
 22 23  1  0
 15  3  1  0
 23 16  1  0
 14  9  1  0
 22 18  2  0
M  END
