CVD-0002163|dock_bobby27042020.21|mol2|19|dock1
     RDKit          3D

 25 27  0  0  0  0  0  0  0  0999 V2000
    8.8588   -0.6371   22.5810 O   0  0  0  0  0  0  0  0  0  0  0  0
    9.3853   -1.0224   21.5420 C   0  0  0  0  0  0  0  0  0  0  0  0
    8.8185   -0.9023   20.2933 N   0  0  0  0  0  0  0  0  0  0  0  0
    7.5773   -0.3496   19.8864 C   0  0  0  0  0  0  0  0  0  0  0  0
    6.5104   -0.4423   20.7732 C   0  0  0  0  0  0  0  0  0  0  0  0
    5.2700    0.0757   20.4415 C   0  0  0  0  0  0  0  0  0  0  0  0
    5.0778    0.6914   19.2248 C   0  0  0  0  0  0  0  0  0  0  0  0
    6.1265    0.7898   18.3372 C   0  0  0  0  0  0  0  0  0  0  0  0
    7.3721    0.2752   18.6577 C   0  0  0  0  0  0  0  0  0  0  0  0
   10.6159   -1.6367   21.4744 N   0  0  0  0  0  0  0  0  0  0  0  0
   11.5189   -1.9485   22.5281 C   0  0  0  0  0  0  0  0  0  0  0  0
   12.9023   -1.8097   22.3915 C   0  0  0  0  0  0  0  0  0  0  0  0
   13.7386   -2.1699   23.4337 C   0  0  0  0  0  0  0  0  0  0  0  0
   13.1858   -2.6862   24.5792 C   0  0  0  0  0  0  0  0  0  0  0  0
   11.8699   -2.8405   24.7521 N   0  0  0  0  0  0  0  0  0  0  0  0
   11.0436   -2.4300   23.7719 C   0  0  0  0  0  0  0  0  0  0  0  0
    9.6956   -2.4795   24.0160 N   0  0  0  0  0  0  0  0  0  0  0  0
    8.6895   -3.3041   23.5355 C   0  0  0  0  0  0  0  0  0  0  0  0
    7.4270   -3.2364   24.1235 C   0  0  0  0  0  0  0  0  0  0  0  0
    6.4243   -4.0585   23.6420 C   0  0  0  0  0  0  0  0  0  0  0  0
    6.6908   -4.9283   22.5912 C   0  0  0  0  0  0  0  0  0  0  0  0
    7.9799   -4.9251   22.0682 C   0  0  0  0  0  0  0  0  0  0  0  0
    8.9594   -4.1359   22.5233 N   0  0  0  0  0  0  0  0  0  0  0  0
    5.6704   -5.8001   22.0633 C   0  0  0  0  0  0  0  0  0  0  0  0
    4.8603   -6.5055   21.6750 N   0  0  0  0  0  0  0  0  0  0  0  0
  1  2  2  0
  2  3  1  0
  3  4  1  0
  4  5  2  0
  5  6  1  0
  6  7  2  0
  7  8  1  0
  8  9  2  0
  2 10  1  0
 10 11  1  0
 11 12  2  0
 12 13  1  0
 13 14  2  0
 14 15  1  0
 15 16  2  0
 16 17  1  0
 17 18  1  0
 18 19  2  0
 19 20  1  0
 20 21  2  0
 21 22  1  0
 22 23  2  0
 21 24  1  0
 24 25  3  0
  9  4  1  0
 16 11  1  0
 23 18  1  0
M  END
