CVD-0001178|dock_bobby27042020.96|mol2|12|dock1
     RDKit          3D

 20 21  0  0  0  0  0  0  0  0999 V2000
   13.4033   -2.4457   21.0562 O   0  0  0  0  0  0  0  0  0  0  0  0
   13.4386   -1.2909   21.6705 C   0  0  0  0  0  0  0  0  0  0  0  0
   14.3711   -0.5196   21.6153 O   0  0  0  0  0  0  0  0  0  0  0  0
   12.1725   -1.0144   22.4664 C   0  0  0  0  0  0  0  0  0  0  0  0
   12.4333    0.0362   23.5524 C   0  0  0  0  0  0  0  0  0  0  0  0
   12.2804    1.4220   23.0594 C   0  0  0  0  0  0  0  0  0  0  0  0
   11.0651    1.9123   22.8069 N   0  0  0  0  0  0  0  0  0  0  0  0
   10.9594    3.2151   22.3435 C   0  0  0  0  0  0  0  0  0  0  0  0
    9.8330    3.6771   22.1073 O   0  0  0  0  0  0  0  0  0  0  0  0
   12.1634    3.9878   22.1518 C   0  0  0  0  0  0  0  0  0  0  0  0
   13.3536    3.4259   22.4266 C   0  0  0  0  0  0  0  0  0  0  0  0
   13.4103    2.1503   22.8773 N   0  0  0  0  0  0  0  0  0  0  0  0
   11.1171   -0.5597   21.5598 N   0  0  0  0  0  0  0  0  0  0  0  0
    9.7439   -0.7476   22.0184 C   0  0  0  0  0  0  0  0  0  0  0  0
    8.7600   -0.5131   20.9162 C   0  0  0  0  0  0  0  0  0  0  0  0
    8.5089   -1.3180   19.8283 C   0  0  0  0  0  0  0  0  0  0  0  0
    7.5271   -0.8181   18.9765 C   0  0  0  0  0  0  0  0  0  0  0  0
    7.0372    0.3582   19.4162 C   0  0  0  0  0  0  0  0  0  0  0  0
    5.8204    1.3079   18.6686 Cl  0  0  0  0  0  0  0  0  0  0  0  0
    7.7552    0.8922   20.8782 S   0  0  0  0  0  0  0  0  0  0  0  0
  1  2  1  0
  2  3  2  0
  2  4  1  0
  4  5  1  0
  5  6  1  0
  6  7  2  0
  7  8  1  0
  8  9  2  0
  8 10  1  0
 10 11  2  0
 11 12  1  0
  4 13  1  0
 13 14  1  0
 14 15  1  0
 15 16  2  0
 16 17  1  0
 17 18  2  0
 18 19  1  0
 18 20  1  0
 12  6  1  0
 20 15  1  0
M  END
