CVD-0003374|dock_bobby27042020.60|mol2|5|dock2
     RDKit          3D

 20 22  0  0  0  0  0  0  0  0999 V2000
   14.5909   -2.3734   24.8696 C   0  0  0  0  0  0  0  0  0  0  0  0
   13.7933   -1.4863   24.0246 N   0  0  0  0  0  0  0  0  0  0  0  0
   12.9176   -0.6458   24.8464 C   0  0  0  0  0  0  0  0  0  0  0  0
   12.1223    0.3013   23.9671 C   0  0  0  0  0  0  0  0  0  0  0  0
   11.3313   -0.4501   22.9902 N   0  0  0  0  0  0  0  0  0  0  0  0
   12.1725   -1.3467   22.1911 C   0  0  0  0  0  0  0  0  0  0  0  0
   12.9751   -2.2629   23.0968 C   0  0  0  0  0  0  0  0  0  0  0  0
    9.9823   -0.2888   22.8480 C   0  0  0  0  0  0  0  0  0  0  0  0
    9.3408    0.2073   23.7596 O   0  0  0  0  0  0  0  0  0  0  0  0
    9.3870   -0.7049   21.6489 N   0  0  0  0  0  0  0  0  0  0  0  0
    8.0475   -0.5787   21.2281 C   0  0  0  0  0  0  0  0  0  0  0  0
    7.0043   -0.6538   22.1084 C   0  0  0  0  0  0  0  0  0  0  0  0
    6.9705   -0.8419   23.4302 F   0  0  0  0  0  0  0  0  0  0  0  0
    5.8286   -0.5033   21.4613 N   0  0  0  0  0  0  0  0  0  0  0  0
    6.0709   -0.3245   20.1316 C   0  0  0  0  0  0  0  0  0  0  0  0
    5.1290   -0.1436   19.1911 N   0  0  0  0  0  0  0  0  0  0  0  0
    5.6083    0.0101   17.9577 C   0  0  0  0  0  0  0  0  0  0  0  0
    6.8823    0.0021   17.5825 N   0  0  0  0  0  0  0  0  0  0  0  0
    7.7852   -0.1808   18.5516 C   0  0  0  0  0  0  0  0  0  0  0  0
    7.4586   -0.3592   19.9024 C   0  0  0  0  0  0  0  0  0  0  0  0
  1  2  1  0
  2  3  1  0
  3  4  1  0
  4  5  1  0
  5  6  1  0
  6  7  1  0
  5  8  1  0
  8  9  2  0
  8 10  1  0
 10 11  1  0
 11 12  2  0
 12 13  1  0
 12 14  1  0
 14 15  1  0
 15 16  2  0
 16 17  1  0
 17 18  2  0
 18 19  1  0
 19 20  2  0
  7  2  1  0
 20 11  1  0
 20 15  1  0
M  END
