CVD-0000912|dock_bobby27042020.25|mol2|38|dock3
     RDKit          3D

 17 18  0  0  0  0  0  0  0  0999 V2000
    8.5167   -3.0099   22.6837 C   0  0  0  0  0  0  0  0  0  0  0  0
    9.2660   -1.7333   22.3250 C   0  0  0  0  0  0  0  0  0  0  0  0
    8.9284   -1.3663   20.9585 N   0  0  0  0  0  0  0  0  0  0  0  0
    7.8760   -0.5907   20.6893 C   0  0  0  0  0  0  0  0  0  0  0  0
    7.1265   -0.1415   21.5509 O   0  0  0  0  0  0  0  0  0  0  0  0
    7.6672   -0.3055   19.2183 C   0  0  0  0  0  0  0  0  0  0  0  0
    6.2228   -1.0949   18.5719 Cl  0  0  0  0  0  0  0  0  0  0  0  0
   10.7646   -1.8226   22.5035 C   0  0  0  0  0  0  0  0  0  0  0  0
   11.7286   -1.5235   21.6074 C   0  0  0  0  0  0  0  0  0  0  0  0
   13.0160   -1.9079   21.8526 C   0  0  0  0  0  0  0  0  0  0  0  0
   14.1226   -1.9025   20.5157 Cl  0  0  0  0  0  0  0  0  0  0  0  0
   13.4648   -2.1514   23.0932 C   0  0  0  0  0  0  0  0  0  0  0  0
   12.5760   -1.9301   24.1732 C   0  0  0  0  0  0  0  0  0  0  0  0
   12.6959   -0.6450   24.9916 C   0  0  0  0  0  0  0  0  0  0  0  0
   11.3008   -0.5641   25.5572 C   0  0  0  0  0  0  0  0  0  0  0  0
   10.4513   -1.1205   24.8075 N   0  0  0  0  0  0  0  0  0  0  0  0
   11.1559   -2.0328   23.8620 C   0  0  0  0  0  0  0  0  0  0  0  0
  1  2  1  0
  2  3  1  0
  3  4  1  0
  4  5  2  0
  4  6  1  0
  6  7  1  0
  2  8  1  0
  8  9  2  0
  9 10  1  0
 10 11  1  0
 10 12  2  0
 12 13  1  0
 13 14  1  0
 14 15  1  0
 15 16  2  0
 16 17  1  0
 17  8  1  0
 17 13  1  0
M  END
