CVD-0003450|dock_bobby27042020.73|mol2|41|dock3
     RDKit          3D

 19 20  0  0  0  0  0  0  0  0999 V2000
    3.6108    2.1514   20.1102 C   0  0  0  0  0  0  0  0  0  0  0  0
    4.5253    1.1356   20.5854 N   0  0  0  0  0  0  0  0  0  0  0  0
    5.5871    0.6620   19.8585 C   0  0  0  0  0  0  0  0  0  0  0  0
    5.5465    0.5839   18.4716 C   0  0  0  0  0  0  0  0  0  0  0  0
    6.5602    0.1261   17.7333 N   0  0  0  0  0  0  0  0  0  0  0  0
    7.6227   -0.2534   18.3920 C   0  0  0  0  0  0  0  0  0  0  0  0
    8.6105   -0.7036   17.6033 F   0  0  0  0  0  0  0  0  0  0  0  0
    7.8346   -0.2435   19.7561 C   0  0  0  0  0  0  0  0  0  0  0  0
    9.0622   -0.6957   20.3087 N   0  0  0  0  0  0  0  0  0  0  0  0
    9.6345   -0.4097   21.5275 C   0  0  0  0  0  0  0  0  0  0  0  0
    9.1363    0.3267   22.3724 O   0  0  0  0  0  0  0  0  0  0  0  0
   10.8398   -1.0581   21.6749 N   0  0  0  0  0  0  0  0  0  0  0  0
   11.7673   -1.0610   22.7477 C   0  0  0  0  0  0  0  0  0  0  0  0
   11.4937   -0.5387   24.0104 C   0  0  0  0  0  0  0  0  0  0  0  0
   12.4567   -0.5809   25.0054 C   0  0  0  0  0  0  0  0  0  0  0  0
   13.6928   -1.1376   24.7614 C   0  0  0  0  0  0  0  0  0  0  0  0
   13.9732   -1.6566   23.5170 C   0  0  0  0  0  0  0  0  0  0  0  0
   13.0189   -1.6201   22.5146 C   0  0  0  0  0  0  0  0  0  0  0  0
    6.7515    0.2404   20.4915 C   0  0  0  0  0  0  0  0  0  0  0  0
  1  2  1  0
  2  3  1  0
  3  4  2  0
  4  5  1  0
  5  6  2  0
  6  7  1  0
  6  8  1  0
  8  9  1  0
  9 10  1  0
 10 11  2  0
 10 12  1  0
 12 13  1  0
 13 14  2  0
 14 15  1  0
 15 16  2  0
 16 17  1  0
 17 18  2  0
  8 19  2  0
 19  3  1  0
 18 13  1  0
M  END
