CVD-0002316|dock_bobby27042020.20|mol2|29|dock2
     RDKit          3D

 29 31  0  0  0  0  0  0  0  0999 V2000
   13.7777   -1.4772   22.5566 C   0  0  0  0  0  0  0  0  0  0  0  0
   12.6563   -1.3030   23.5394 C   0  0  0  0  0  0  0  0  0  0  0  0
   12.9045   -1.0404   24.7110 O   0  0  0  0  0  0  0  0  0  0  0  0
   11.3679   -1.4235   23.1193 N   0  0  0  0  0  0  0  0  0  0  0  0
   10.9261   -1.7303   21.7553 C   0  0  0  0  0  0  0  0  0  0  0  0
    9.8173   -0.8016   21.3335 C   0  0  0  0  0  0  0  0  0  0  0  0
    8.6891   -0.8710   22.2767 N   0  0  0  0  0  0  0  0  0  0  0  0
    9.1838   -0.4732   23.5954 C   0  0  0  0  0  0  0  0  0  0  0  0
   10.2632   -1.4134   24.0763 C   0  0  0  0  0  0  0  0  0  0  0  0
    7.6146   -0.0281   21.8594 C   0  0  0  0  0  0  0  0  0  0  0  0
    8.1047    1.3206   21.7358 O   0  0  0  0  0  0  0  0  0  0  0  0
    7.2084    2.3195   21.6323 C   0  0  0  0  0  0  0  0  0  0  0  0
    6.0514    2.1850   21.2688 O   0  0  0  0  0  0  0  0  0  0  0  0
    7.7803    3.6457   22.0217 C   0  0  0  0  0  0  0  0  0  0  0  0
    6.9677    4.7650   22.1702 C   0  0  0  0  0  0  0  0  0  0  0  0
    7.5172    5.9835   22.5314 C   0  0  0  0  0  0  0  0  0  0  0  0
    8.8799    6.0990   22.7479 C   0  0  0  0  0  0  0  0  0  0  0  0
    9.7026    4.9890   22.6029 C   0  0  0  0  0  0  0  0  0  0  0  0
   11.1081    5.1245   22.8299 N   0  0  0  0  0  0  0  0  0  0  0  0
   12.1910    3.9145   22.6978 S   0  0  0  0  0  0  0  0  0  0  0  0
   13.7571    4.5865   23.1023 C   0  0  0  0  0  0  0  0  0  0  0  0
   12.2176    3.5289   21.3207 O   0  0  0  0  0  0  0  0  0  0  0  0
   11.8521    2.9272   23.6758 O   0  0  0  0  0  0  0  0  0  0  0  0
    9.1482    3.7656   22.2400 C   0  0  0  0  0  0  0  0  0  0  0  0
    7.0143   -0.4889   20.5635 C   0  0  0  0  0  0  0  0  0  0  0  0
    6.3567   -1.7440   20.4024 C   0  0  0  0  0  0  0  0  0  0  0  0
    5.8824   -1.9782   19.1471 C   0  0  0  0  0  0  0  0  0  0  0  0
    6.2368   -0.6582   18.1403 S   0  0  0  0  0  0  0  0  0  0  0  0
    7.0137    0.1995   19.3853 C   0  0  0  0  0  0  0  0  0  0  0  0
  1  2  1  0
  2  3  2  0
  2  4  1  0
  4  5  1  0
  5  6  1  0
  6  7  1  0
  7  8  1  0
  8  9  1  0
  7 10  1  0
 10 11  1  0
 11 12  1  0
 12 13  2  0
 12 14  1  0
 14 15  2  0
 15 16  1  0
 16 17  2  0
 17 18  1  0
 18 19  1  0
 19 20  1  0
 20 21  1  0
 20 22  2  0
 20 23  2  0
 18 24  2  0
 10 25  1  0
 25 26  1  0
 26 27  2  0
 27 28  1  0
 28 29  1  0
  9  4  1  0
 24 14  1  0
 29 25  2  0
M  END
