CVD-0002913|dock_bobby27042020.47|mol2|3|dock1
     RDKit          3D

 22 24  0  0  0  0  0  0  0  0999 V2000
   12.5269   -1.5236   24.5693 C   0  0  0  0  0  0  0  0  0  0  0  0
   12.6949   -0.9215   23.2474 N   0  0  0  0  0  0  0  0  0  0  0  0
   12.2018    0.4550   23.1447 C   0  0  0  0  0  0  0  0  0  0  0  0
   10.6949    0.4875   23.3196 C   0  0  0  0  0  0  0  0  0  0  0  0
   10.0451   -0.3588   22.3164 N   0  0  0  0  0  0  0  0  0  0  0  0
   10.5609   -1.7309   22.3534 C   0  0  0  0  0  0  0  0  0  0  0  0
   12.0714   -1.7304   22.2032 C   0  0  0  0  0  0  0  0  0  0  0  0
   10.1420   -2.5106   23.5971 C   0  0  0  0  0  0  0  0  0  0  0  0
    9.1885   -1.9531   24.2997 O   0  0  0  0  0  0  0  0  0  0  0  0
   10.6576   -3.5631   23.9019 O   0  0  0  0  0  0  0  0  0  0  0  0
    9.1216    0.1463   21.4612 C   0  0  0  0  0  0  0  0  0  0  0  0
    8.7905    1.3213   21.5580 O   0  0  0  0  0  0  0  0  0  0  0  0
    8.4792   -0.7083   20.3798 C   0  0  0  0  0  0  0  0  0  0  0  0
    7.5028    0.0468   19.5288 C   0  0  0  0  0  0  0  0  0  0  0  0
    7.6544    0.4073   18.2219 C   0  0  0  0  0  0  0  0  0  0  0  0
    6.5517    1.0882   17.7792 N   0  0  0  0  0  0  0  0  0  0  0  0
    5.6574    1.1807   18.8049 C   0  0  0  0  0  0  0  0  0  0  0  0
    4.4508    1.7719   18.7837 N   0  0  0  0  0  0  0  0  0  0  0  0
    3.7509    1.7317   19.9257 C   0  0  0  0  0  0  0  0  0  0  0  0
    4.2006    1.1302   21.0818 C   0  0  0  0  0  0  0  0  0  0  0  0
    5.4475    0.5249   21.0863 C   0  0  0  0  0  0  0  0  0  0  0  0
    6.2153    0.5392   19.9236 C   0  0  0  0  0  0  0  0  0  0  0  0
  1  2  1  0
  2  3  1  0
  3  4  1  0
  4  5  1  0
  5  6  1  0
  6  7  1  0
  6  8  1  0
  8  9  1  0
  8 10  2  0
  5 11  1  0
 11 12  2  0
 11 13  1  0
 13 14  1  0
 14 15  2  0
 15 16  1  0
 16 17  1  0
 17 18  2  0
 18 19  1  0
 19 20  2  0
 20 21  1  0
 21 22  2  0
  7  2  1  0
 22 14  1  0
 22 17  1  0
M  END
