CVD-0001142|dock_bobby27042020.53|mol2|35|dock2
     RDKit          3D

 19 20  0  0  0  0  0  0  0  0999 V2000
   10.0519   -2.2554   21.3336 N   0  0  0  0  0  0  0  0  0  0  0  0
   10.7890   -2.1096   22.3390 C   0  0  0  0  0  0  0  0  0  0  0  0
   10.4219   -2.3516   23.5783 N   0  0  0  0  0  0  0  0  0  0  0  0
   12.1890   -1.6332   22.1443 C   0  0  0  0  0  0  0  0  0  0  0  0
   13.0008   -1.6155   23.4194 C   0  0  0  0  0  0  0  0  0  0  0  0
   13.8493   -2.6481   23.7359 C   0  0  0  0  0  0  0  0  0  0  0  0
   14.5985   -2.7109   24.8406 N   0  0  0  0  0  0  0  0  0  0  0  0
   14.5053   -1.6885   25.6901 C   0  0  0  0  0  0  0  0  0  0  0  0
   13.6862   -0.5986   25.4784 C   0  0  0  0  0  0  0  0  0  0  0  0
   12.9125   -0.5514   24.3235 C   0  0  0  0  0  0  0  0  0  0  0  0
   12.0105    0.6353   24.0717 C   0  0  0  0  0  0  0  0  0  0  0  0
   12.6154    1.6859   23.1645 C   0  0  0  0  0  0  0  0  0  0  0  0
   13.5724    1.4202   22.4606 O   0  0  0  0  0  0  0  0  0  0  0  0
   12.0142    3.0509   23.1397 C   0  0  0  0  0  0  0  0  0  0  0  0
   12.8046    4.1920   23.2379 C   0  0  0  0  0  0  0  0  0  0  0  0
   12.2269    5.4505   23.2128 C   0  0  0  0  0  0  0  0  0  0  0  0
   10.8608    5.5865   23.0901 C   0  0  0  0  0  0  0  0  0  0  0  0
   10.0669    4.4643   22.9921 C   0  0  0  0  0  0  0  0  0  0  0  0
   10.6375    3.2027   23.0164 C   0  0  0  0  0  0  0  0  0  0  0  0
  1  2  1  0
  2  3  2  0
  2  4  1  0
  4  5  1  0
  5  6  2  0
  6  7  1  0
  7  8  2  0
  8  9  1  0
  9 10  2  0
 10 11  1  0
 11 12  1  0
 12 13  2  0
 12 14  1  0
 14 15  2  0
 15 16  1  0
 16 17  2  0
 17 18  1  0
 18 19  2  0
 10  5  1  0
 19 14  1  0
M  END
