CVD-0002695|dock_bobby27042020.19|mol2|2|dock1
     RDKit          3D

 16 17  0  0  0  0  0  0  0  0999 V2000
   13.7010    4.6425   21.9446 C   0  0  0  0  0  0  0  0  0  0  0  0
   12.3442    4.1538   22.3902 C   0  0  0  0  0  0  0  0  0  0  0  0
   11.2838    5.0214   22.5804 C   0  0  0  0  0  0  0  0  0  0  0  0
   10.0616    4.6462   22.9709 N   0  0  0  0  0  0  0  0  0  0  0  0
    9.8248    3.3334   23.1995 C   0  0  0  0  0  0  0  0  0  0  0  0
    8.5917    2.9967   23.5898 N   0  0  0  0  0  0  0  0  0  0  0  0
   10.8481    2.3536   23.0306 C   0  0  0  0  0  0  0  0  0  0  0  0
   10.6202    0.8809   23.2791 C   0  0  0  0  0  0  0  0  0  0  0  0
   11.8308    0.0683   23.0912 N   0  0  0  0  0  0  0  0  0  0  0  0
   12.2996   -0.4741   24.3720 C   0  0  0  0  0  0  0  0  0  0  0  0
   13.5787   -1.2717   24.2112 C   0  0  0  0  0  0  0  0  0  0  0  0
   13.4430   -2.4040   23.2003 C   0  0  0  0  0  0  0  0  0  0  0  0
   14.6683   -3.0920   22.9346 O   0  0  0  0  0  0  0  0  0  0  0  0
   12.8594   -1.8320   21.9130 C   0  0  0  0  0  0  0  0  0  0  0  0
   11.5889   -1.0353   22.1579 C   0  0  0  0  0  0  0  0  0  0  0  0
   12.0970    2.8106   22.6239 C   0  0  0  0  0  0  0  0  0  0  0  0
  1  2  1  0
  2  3  2  0
  3  4  1  0
  4  5  2  0
  5  6  1  0
  5  7  1  0
  7  8  1  0
  8  9  1  0
  9 10  1  0
 10 11  1  0
 11 12  1  0
 12 13  1  0
 12 14  1  0
 14 15  1  0
  7 16  2  0
 16  2  1  0
 15  9  1  0
M  END
