CVD-0000283|dock_bobby27042020.70|mol2|36|dock2
     RDKit          3D

 22 24  0  0  0  0  0  0  0  0999 V2000
   11.7703    3.0610   22.2599 O   0  0  0  0  0  0  0  0  0  0  0  0
   12.9394    2.8119   22.5388 C   0  0  0  0  0  0  0  0  0  0  0  0
   13.8584    3.7912   22.6530 N   0  0  0  0  0  0  0  0  0  0  0  0
   13.5089    5.1898   22.4526 C   0  0  0  0  0  0  0  0  0  0  0  0
   12.6650    5.7497   23.5697 C   0  0  0  0  0  0  0  0  0  0  0  0
   11.3029    5.9458   23.4248 C   0  0  0  0  0  0  0  0  0  0  0  0
   10.6103    6.4676   24.5022 C   0  0  0  0  0  0  0  0  0  0  0  0
   11.3267    6.7547   25.6406 C   0  0  0  0  0  0  0  0  0  0  0  0
   12.6284    6.5557   25.7444 N   0  0  0  0  0  0  0  0  0  0  0  0
   13.3036    6.0491   24.6976 N   0  0  0  0  0  0  0  0  0  0  0  0
   13.4673    1.5641   22.7663 N   0  0  0  0  0  0  0  0  0  0  0  0
   12.8598    0.2837   22.7475 C   0  0  0  0  0  0  0  0  0  0  0  0
   13.6605   -0.8113   23.0510 C   0  0  0  0  0  0  0  0  0  0  0  0
   13.1321   -2.0901   23.0511 C   0  0  0  0  0  0  0  0  0  0  0  0
   11.7978   -2.2905   22.7480 C   0  0  0  0  0  0  0  0  0  0  0  0
   10.9908   -1.2045   22.4439 C   0  0  0  0  0  0  0  0  0  0  0  0
   11.5139    0.0835   22.4416 C   0  0  0  0  0  0  0  0  0  0  0  0
    9.6101   -1.4076   22.1299 N   0  0  0  0  0  0  0  0  0  0  0  0
    8.6364   -2.4621   22.5016 C   0  0  0  0  0  0  0  0  0  0  0  0
    7.6080   -1.6625   21.6741 C   0  0  0  0  0  0  0  0  0  0  0  0
    8.7399   -0.6845   21.4091 C   0  0  0  0  0  0  0  0  0  0  0  0
    8.8817    0.3646   20.7935 O   0  0  0  0  0  0  0  0  0  0  0  0
  1  2  2  0
  2  3  1  0
  3  4  1  0
  4  5  1  0
  5  6  2  0
  6  7  1  0
  7  8  2  0
  8  9  1  0
  9 10  2  0
  2 11  1  0
 11 12  1  0
 12 13  2  0
 13 14  1  0
 14 15  2  0
 15 16  1  0
 16 17  2  0
 16 18  1  0
 18 19  1  0
 19 20  1  0
 20 21  1  0
 21 22  2  0
 10  5  1  0
 17 12  1  0
 21 18  1  0
M  END
