CVD-0003955|dock_bobby27042020.0|mol2|20|dock3
     RDKit          3D

 18 19  0  0  0  0  0  0  0  0999 V2000
    8.8884   -0.5040   25.9772 C   0  0  0  0  0  0  0  0  0  0  0  0
    9.7170   -0.6781   24.7384 C   0  0  0  0  0  0  0  0  0  0  0  0
   10.0954   -1.7825   24.3605 O   0  0  0  0  0  0  0  0  0  0  0  0
   10.0042    0.4395   24.0621 N   0  0  0  0  0  0  0  0  0  0  0  0
   10.7837    0.4270   22.8329 C   0  0  0  0  0  0  0  0  0  0  0  0
   11.3397    1.8127   22.5961 C   0  0  0  0  0  0  0  0  0  0  0  0
   10.6098    2.8206   22.2571 N   0  0  0  0  0  0  0  0  0  0  0  0
   11.3594    3.9860   22.0996 N   0  0  0  0  0  0  0  0  0  0  0  0
   12.6207    3.8171   22.3193 C   0  0  0  0  0  0  0  0  0  0  0  0
   13.6324    4.9103   22.2243 C   0  0  0  0  0  0  0  0  0  0  0  0
   13.0431    2.1945   22.7593 S   0  0  0  0  0  0  0  0  0  0  0  0
   11.9377   -0.5651   22.8889 C   0  0  0  0  0  0  0  0  0  0  0  0
   12.2440   -1.3665   21.7984 C   0  0  0  0  0  0  0  0  0  0  0  0
   13.2969   -2.2641   21.8557 C   0  0  0  0  0  0  0  0  0  0  0  0
   14.0590   -2.3709   23.0070 C   0  0  0  0  0  0  0  0  0  0  0  0
   13.7492   -1.5706   24.0848 C   0  0  0  0  0  0  0  0  0  0  0  0
   14.6998   -1.6942   25.5387 Cl  0  0  0  0  0  0  0  0  0  0  0  0
   12.7025   -0.6722   24.0405 C   0  0  0  0  0  0  0  0  0  0  0  0
  1  2  1  0
  2  3  2  0
  2  4  1  0
  4  5  1  0
  5  6  1  0
  6  7  2  0
  7  8  1  0
  8  9  2  0
  9 10  1  0
  9 11  1  0
  5 12  1  0
 12 13  2  0
 13 14  1  0
 14 15  2  0
 15 16  1  0
 16 17  1  0
 16 18  2  0
 11  6  1  0
 18 12  1  0
M  END
