CVD-0002330|dock_bobby27042020.20|mol2|27|dock2
     RDKit          3D

 30 32  0  0  0  0  0  0  0  0999 V2000
    7.2192    5.2629   21.5825 C   0  0  0  0  0  0  0  0  0  0  0  0
    8.4579    4.6012   21.9316 O   0  0  0  0  0  0  0  0  0  0  0  0
    9.4409    5.3948   22.3530 C   0  0  0  0  0  0  0  0  0  0  0  0
    9.3326    6.6038   22.4723 O   0  0  0  0  0  0  0  0  0  0  0  0
   10.7030    4.6567   22.6695 C   0  0  0  0  0  0  0  0  0  0  0  0
   11.8046    5.3430   23.1670 C   0  0  0  0  0  0  0  0  0  0  0  0
   12.9765    4.6675   23.4624 C   0  0  0  0  0  0  0  0  0  0  0  0
   13.0631    3.2997   23.2651 C   0  0  0  0  0  0  0  0  0  0  0  0
   11.9686    2.6021   22.7683 C   0  0  0  0  0  0  0  0  0  0  0  0
   12.0395    1.1900   22.5583 N   0  0  0  0  0  0  0  0  0  0  0  0
   13.3361    0.2484   22.8530 S   0  0  0  0  0  0  0  0  0  0  0  0
   13.4641    0.1290   24.2742 O   0  0  0  0  0  0  0  0  0  0  0  0
   14.4339    0.7614   22.0898 O   0  0  0  0  0  0  0  0  0  0  0  0
   12.9415   -1.3658   22.2200 C   0  0  0  0  0  0  0  0  0  0  0  0
   11.5462   -1.8254   22.5962 C   0  0  0  0  0  0  0  0  0  0  0  0
   11.3180   -2.3417   23.6851 O   0  0  0  0  0  0  0  0  0  0  0  0
   10.6394   -1.5894   21.6169 N   0  0  0  0  0  0  0  0  0  0  0  0
    9.2471   -1.8446   21.5455 C   0  0  0  0  0  0  0  0  0  0  0  0
    8.6299   -2.8646   22.2605 C   0  0  0  0  0  0  0  0  0  0  0  0
    7.2667   -3.0566   22.1393 C   0  0  0  0  0  0  0  0  0  0  0  0
    6.5098   -2.2461   21.3126 C   0  0  0  0  0  0  0  0  0  0  0  0
    7.1086   -1.2169   20.5923 C   0  0  0  0  0  0  0  0  0  0  0  0
    8.4848   -1.0254   20.7178 C   0  0  0  0  0  0  0  0  0  0  0  0
    6.3492   -0.3509   19.7263 N   0  0  0  0  0  0  0  0  0  0  0  0
    6.6911   -0.1958   18.3102 C   0  0  0  0  0  0  0  0  0  0  0  0
    5.6442    0.7483   17.7720 C   0  0  0  0  0  0  0  0  0  0  0  0
    4.8559    1.2583   18.9517 C   0  0  0  0  0  0  0  0  0  0  0  0
    5.3288    0.4724   20.1378 C   0  0  0  0  0  0  0  0  0  0  0  0
    4.9229    0.5165   21.2916 O   0  0  0  0  0  0  0  0  0  0  0  0
   10.7927    3.2826   22.4723 C   0  0  0  0  0  0  0  0  0  0  0  0
  1  2  1  0
  2  3  1  0
  3  4  2  0
  3  5  1  0
  5  6  2  0
  6  7  1  0
  7  8  2  0
  8  9  1  0
  9 10  1  0
 10 11  1  0
 11 12  2  0
 11 13  2  0
 11 14  1  0
 14 15  1  0
 15 16  2  0
 15 17  1  0
 17 18  1  0
 18 19  2  0
 19 20  1  0
 20 21  2  0
 21 22  1  0
 22 23  2  0
 22 24  1  0
 24 25  1  0
 25 26  1  0
 26 27  1  0
 27 28  1  0
 28 29  2  0
  9 30  2  0
 30  5  1  0
 23 18  1  0
 28 24  1  0
M  END
