CVD-0002839|dock_bobby27042020.4|mol2|19|dock3
     RDKit          3D

 21 23  0  0  0  0  0  0  0  0999 V2000
   13.8503   -1.8332   23.9526 O   0  0  0  0  0  0  0  0  0  0  0  0
   13.3508   -1.4673   22.6778 C   0  0  0  0  0  0  0  0  0  0  0  0
   12.5558   -0.1827   22.7103 C   0  0  0  0  0  0  0  0  0  0  0  0
   13.2552    1.0214   22.7578 C   0  0  0  0  0  0  0  0  0  0  0  0
   12.5664    2.2141   22.8315 C   0  0  0  0  0  0  0  0  0  0  0  0
   11.2385    2.2975   22.8515 N   0  0  0  0  0  0  0  0  0  0  0  0
   10.5631    1.1495   22.7636 C   0  0  0  0  0  0  0  0  0  0  0  0
   11.1475   -0.1196   22.7065 C   0  0  0  0  0  0  0  0  0  0  0  0
   10.2684   -1.3151   22.6406 C   0  0  0  0  0  0  0  0  0  0  0  0
   10.4865   -2.4041   23.4773 N   0  0  0  0  0  0  0  0  0  0  0  0
    9.5545   -3.2842   23.1566 C   0  0  0  0  0  0  0  0  0  0  0  0
    8.7532   -2.8382   22.1776 N   0  0  0  0  0  0  0  0  0  0  0  0
    9.1854   -1.5808   21.8341 C   0  0  0  0  0  0  0  0  0  0  0  0
    8.4529   -0.8347   20.7618 C   0  0  0  0  0  0  0  0  0  0  0  0
    6.9789   -0.6422   21.0688 C   0  0  0  0  0  0  0  0  0  0  0  0
    6.2268    0.0176   19.9527 C   0  0  0  0  0  0  0  0  0  0  0  0
    6.0428    1.3938   19.9610 N   0  0  0  0  0  0  0  0  0  0  0  0
    5.3542    1.6482   18.8583 C   0  0  0  0  0  0  0  0  0  0  0  0
    5.0847    0.5395   18.1469 N   0  0  0  0  0  0  0  0  0  0  0  0
    5.6280   -0.4865   18.8260 C   0  0  0  0  0  0  0  0  0  0  0  0
    5.5408   -2.1142   18.3019 Cl  0  0  0  0  0  0  0  0  0  0  0  0
  1  2  1  0
  2  3  1  0
  3  4  2  0
  4  5  1  0
  5  6  2  0
  6  7  1  0
  7  8  2  0
  8  9  1  0
  9 10  1  0
 10 11  2  0
 11 12  1  0
 12 13  1  0
 13 14  1  0
 14 15  1  0
 15 16  1  0
 16 17  1  0
 17 18  2  0
 18 19  1  0
 19 20  1  0
 20 21  1  0
  8  3  1  0
 13  9  2  0
 20 16  2  0
M  END
