CVD-0002436|dock_bobby27042020.77|mol2|21|dock1
     RDKit          3D

 26 27  0  0  0  0  0  0  0  0999 V2000
    6.7304   -0.7143   19.4190 C   0  0  0  0  0  0  0  0  0  0  0  0
    7.1639   -0.9354   20.8385 C   0  0  0  0  0  0  0  0  0  0  0  0
    6.3922   -0.7943   21.7820 O   0  0  0  0  0  0  0  0  0  0  0  0
    8.4357   -1.3112   21.0119 N   0  0  0  0  0  0  0  0  0  0  0  0
    8.9832   -1.5762   22.3324 C   0  0  0  0  0  0  0  0  0  0  0  0
   10.4870   -1.8753   22.2351 C   0  0  0  0  0  0  0  0  0  0  0  0
   11.3557   -0.7029   22.6216 C   0  0  0  0  0  0  0  0  0  0  0  0
   12.4170   -0.8634   23.4981 C   0  0  0  0  0  0  0  0  0  0  0  0
   13.2146    0.2076   23.8603 C   0  0  0  0  0  0  0  0  0  0  0  0
   12.9546    1.4656   23.3455 C   0  0  0  0  0  0  0  0  0  0  0  0
   13.7795    2.5266   23.7248 O   0  0  0  0  0  0  0  0  0  0  0  0
   13.8390    3.7141   23.0491 C   0  0  0  0  0  0  0  0  0  0  0  0
   13.1830    4.7680   23.6823 C   0  0  0  0  0  0  0  0  0  0  0  0
   13.2017    5.9967   23.0456 C   0  0  0  0  0  0  0  0  0  0  0  0
   13.8514    6.1286   21.8380 C   0  0  0  0  0  0  0  0  0  0  0  0
   14.4638    5.0172   21.3051 C   0  0  0  0  0  0  0  0  0  0  0  0
   14.4669    3.8121   21.8909 N   0  0  0  0  0  0  0  0  0  0  0  0
   11.8988    1.6421   22.4663 C   0  0  0  0  0  0  0  0  0  0  0  0
   11.1090    0.5624   22.1132 C   0  0  0  0  0  0  0  0  0  0  0  0
    8.2672   -2.7530   22.9887 C   0  0  0  0  0  0  0  0  0  0  0  0
    7.8626   -2.6688   24.1453 O   0  0  0  0  0  0  0  0  0  0  0  0
    8.1145   -3.8476   22.2438 N   0  0  0  0  0  0  0  0  0  0  0  0
    7.4469   -5.0349   22.7608 C   0  0  0  0  0  0  0  0  0  0  0  0
    8.2468   -5.7392   23.7699 C   0  0  0  0  0  0  0  0  0  0  0  0
    8.8541   -6.3532   24.5826 C   0  0  0  0  0  0  0  0  0  0  0  0
    9.7357   -7.3327   25.8100 Br  0  0  0  0  0  0  0  0  0  0  0  0
  1  2  1  0
  2  3  2  0
  2  4  1  0
  4  5  1  0
  5  6  1  0
  6  7  1  0
  7  8  2  0
  8  9  1  0
  9 10  2  0
 10 11  1  0
 11 12  1  0
 12 13  2  0
 13 14  1  0
 14 15  2  0
 15 16  1  0
 16 17  2  0
 10 18  1  0
 18 19  2  0
  5 20  1  0
 20 21  2  0
 20 22  1  0
 22 23  1  0
 23 24  1  0
 24 25  3  0
 25 26  1  0
 19  7  1  0
 17 12  1  0
M  END
