CVD-0001935|dock_bobby27042020.22|mol2|16|dock2
     RDKit          3D

 23 24  0  0  0  0  0  0  0  0999 V2000
   12.0004   -2.2076   22.0284 N   0  0  0  0  0  0  0  0  0  0  0  0
   13.2472   -1.3117   22.4820 S   0  0  0  0  0  0  0  0  0  0  0  0
   13.5859   -1.7024   23.8175 O   0  0  0  0  0  0  0  0  0  0  0  0
   14.2412   -1.4193   21.4565 O   0  0  0  0  0  0  0  0  0  0  0  0
   12.7310    0.3774   22.5412 C   0  0  0  0  0  0  0  0  0  0  0  0
   13.6765    1.3881   22.5855 C   0  0  0  0  0  0  0  0  0  0  0  0
   13.2589    2.7061   22.6368 C   0  0  0  0  0  0  0  0  0  0  0  0
   11.9085    3.0118   22.6450 C   0  0  0  0  0  0  0  0  0  0  0  0
   11.4254    4.8433   22.7168 Br  0  0  0  0  0  0  0  0  0  0  0  0
   10.9522    1.9966   22.6015 C   0  0  0  0  0  0  0  0  0  0  0  0
   11.3778    0.6769   22.5510 C   0  0  0  0  0  0  0  0  0  0  0  0
    9.2058    2.2938   22.6114 S   0  0  0  0  0  0  0  0  0  0  0  0
    8.7859    2.4424   21.2516 O   0  0  0  0  0  0  0  0  0  0  0  0
    8.9524    3.3455   23.5482 O   0  0  0  0  0  0  0  0  0  0  0  0
    8.4843    0.9724   23.1834 N   0  0  0  0  0  0  0  0  0  0  0  0
    7.8677    0.0139   22.2585 C   0  0  0  0  0  0  0  0  0  0  0  0
    6.4169    0.3778   21.9987 C   0  0  0  0  0  0  0  0  0  0  0  0
    5.9978    0.1241   20.5709 C   0  0  0  0  0  0  0  0  0  0  0  0
    5.9301   -1.1667   20.0695 C   0  0  0  0  0  0  0  0  0  0  0  0
    5.5427   -1.4001   18.7606 C   0  0  0  0  0  0  0  0  0  0  0  0
    5.2170   -0.3446   17.9364 C   0  0  0  0  0  0  0  0  0  0  0  0
    5.2785    0.9438   18.4219 C   0  0  0  0  0  0  0  0  0  0  0  0
    5.6661    1.1761   19.7310 C   0  0  0  0  0  0  0  0  0  0  0  0
  1  2  1  0
  2  3  2  0
  2  4  2  0
  2  5  1  0
  5  6  2  0
  6  7  1  0
  7  8  2  0
  8  9  1  0
  8 10  1  0
 10 11  2  0
 10 12  1  0
 12 13  2  0
 12 14  2  0
 12 15  1  0
 15 16  1  0
 16 17  1  0
 17 18  1  0
 18 19  2  0
 19 20  1  0
 20 21  2  0
 21 22  1  0
 22 23  2  0
 11  5  1  0
 23 18  1  0
M  END
