CVD-0003980|dock_bobby27042020.15|mol2|1|dock3
     RDKit          3D

 24 25  0  0  0  0  0  0  0  0999 V2000
   14.7649   -3.6549   20.2142 O   0  0  0  0  0  0  0  0  0  0  0  0
   14.4100   -2.2437   20.4258 O   0  0  0  0  0  0  0  0  0  0  0  0
   13.1027   -2.1914   20.6392 N   0  0  0  0  0  0  0  0  0  0  0  0
   12.6917   -2.0375   21.8840 C   0  0  0  0  0  0  0  0  0  0  0  0
   11.3858   -1.9751   22.1839 C   0  0  0  0  0  0  0  0  0  0  0  0
   10.9650   -1.9031   23.6542 C   0  0  0  0  0  0  0  0  0  0  0  0
   11.9785   -1.0040   24.3677 C   0  0  0  0  0  0  0  0  0  0  0  0
   13.3775   -1.4244   24.0948 C   0  0  0  0  0  0  0  0  0  0  0  0
   13.7113   -1.9438   22.9281 C   0  0  0  0  0  0  0  0  0  0  0  0
    9.5536   -1.3487   23.8344 C   0  0  0  0  0  0  0  0  0  0  0  0
    9.3354   -0.2228   24.2190 O   0  0  0  0  0  0  0  0  0  0  0  0
    8.2188   -2.4209   23.4743 S   0  0  0  0  0  0  0  0  0  0  0  0
    8.2118   -3.4439   24.4799 O   0  0  0  0  0  0  0  0  0  0  0  0
    8.3434   -2.7993   22.0963 O   0  0  0  0  0  0  0  0  0  0  0  0
    6.8031   -1.3878   23.6822 C   0  0  0  0  0  0  0  0  0  0  0  0
    6.6629   -0.3060   22.6211 C   0  0  0  0  0  0  0  0  0  0  0  0
    5.9474   -0.7815   21.3635 C   0  0  0  0  0  0  0  0  0  0  0  0
    6.1675    0.0696   20.1373 C   0  0  0  0  0  0  0  0  0  0  0  0
    7.0331   -0.2477   19.1326 C   0  0  0  0  0  0  0  0  0  0  0  0
    7.9770   -1.1273   19.0845 O   0  0  0  0  0  0  0  0  0  0  0  0
    6.9574    0.4346   17.9740 O   0  0  0  0  0  0  0  0  0  0  0  0
    5.6560    1.0040   17.6967 C   0  0  0  0  0  0  0  0  0  0  0  0
    5.2006    1.8560   18.8533 C   0  0  0  0  0  0  0  0  0  0  0  0
    5.3951    1.3196   20.0815 C   0  0  0  0  0  0  0  0  0  0  0  0
  1  2  1  0
  2  3  1  0
  3  4  1  0
  4  5  2  0
  5  6  1  0
  6  7  1  0
  7  8  1  0
  8  9  2  0
  6 10  1  0
 10 11  2  0
 10 12  1  0
 12 13  2  0
 12 14  2  0
 12 15  1  0
 15 16  1  0
 16 17  1  0
 17 18  1  0
 18 19  2  0
 19 20  1  0
 19 21  1  0
 21 22  1  0
 22 23  1  0
 23 24  2  0
  9  4  1  0
 24 18  1  0
M  END
