CVD-0002717|dock_bobby27042020.4|mol2|37|dock2
     RDKit          3D

 20 22  0  0  0  0  0  0  0  0999 V2000
    7.5338   -5.3856   27.8434 Cl  0  0  0  0  0  0  0  0  0  0  0  0
    9.0668   -5.7958   27.0628 C   0  0  0  0  0  0  0  0  0  0  0  0
    8.9786   -5.6546   25.5552 C   0  0  0  0  0  0  0  0  0  0  0  0
    9.1725   -6.6110   24.8155 O   0  0  0  0  0  0  0  0  0  0  0  0
    8.6849   -4.4312   25.0677 N   0  0  0  0  0  0  0  0  0  0  0  0
    8.4454   -3.2185   25.8563 C   0  0  0  0  0  0  0  0  0  0  0  0
    9.2085   -2.0524   25.2838 C   0  0  0  0  0  0  0  0  0  0  0  0
    8.8532   -1.8366   23.8717 N   0  0  0  0  0  0  0  0  0  0  0  0
    9.1954   -3.0534   23.1336 C   0  0  0  0  0  0  0  0  0  0  0  0
    8.4100   -4.2372   23.6453 C   0  0  0  0  0  0  0  0  0  0  0  0
    9.5685   -0.6535   23.3100 C   0  0  0  0  0  0  0  0  0  0  0  0
    8.9528    0.3123   22.3208 C   0  0  0  0  0  0  0  0  0  0  0  0
    9.1001    0.7246   23.7519 C   0  0  0  0  0  0  0  0  0  0  0  0
   11.0822   -0.8460   23.3055 C   0  0  0  0  0  0  0  0  0  0  0  0
   11.8537   -0.5120   24.4120 C   0  0  0  0  0  0  0  0  0  0  0  0
   13.2269   -0.6891   24.4029 C   0  0  0  0  0  0  0  0  0  0  0  0
   13.8552   -1.2056   23.2826 C   0  0  0  0  0  0  0  0  0  0  0  0
   13.0886   -1.5362   22.1870 C   0  0  0  0  0  0  0  0  0  0  0  0
   13.8643   -2.1872   20.7703 Cl  0  0  0  0  0  0  0  0  0  0  0  0
   11.7193   -1.3643   22.1840 C   0  0  0  0  0  0  0  0  0  0  0  0
  1  2  1  0
  2  3  1  0
  3  4  2  0
  3  5  1  0
  5  6  1  0
  6  7  1  0
  7  8  1  0
  8  9  1  0
  9 10  1  0
  8 11  1  0
 11 12  1  0
 12 13  1  0
 11 14  1  0
 14 15  2  0
 15 16  1  0
 16 17  2  0
 17 18  1  0
 18 19  1  0
 18 20  2  0
 10  5  1  0
 13 11  1  0
 20 14  1  0
M  END
