CVD-0001298|dock_bobby27042020.10|mol2|12|dock3
     RDKit          3D

 18 19  0  0  0  0  0  0  0  0999 V2000
   14.0847   -2.1718   25.8020 S   0  0  0  0  0  0  0  0  0  0  0  0
   13.7045   -1.7255   24.1294 C   0  0  0  0  0  0  0  0  0  0  0  0
   14.5825   -1.4174   23.3650 O   0  0  0  0  0  0  0  0  0  0  0  0
   12.2188   -1.7712   23.7794 C   0  0  0  0  0  0  0  0  0  0  0  0
   11.9883   -1.6820   22.3035 C   0  0  0  0  0  0  0  0  0  0  0  0
   10.5145   -1.6414   21.9335 C   0  0  0  0  0  0  0  0  0  0  0  0
    9.8391   -0.5898   22.6775 N   0  0  0  0  0  0  0  0  0  0  0  0
    9.9822   -0.6778   24.1257 C   0  0  0  0  0  0  0  0  0  0  0  0
   11.4640   -0.6590   24.4902 C   0  0  0  0  0  0  0  0  0  0  0  0
    8.7865    0.4323   21.9668 S   0  0  0  0  0  0  0  0  0  0  0  0
    9.5606    1.2907   21.1250 O   0  0  0  0  0  0  0  0  0  0  0  0
    7.9924    0.9911   23.0167 O   0  0  0  0  0  0  0  0  0  0  0  0
    7.7332   -0.5339   20.9407 C   0  0  0  0  0  0  0  0  0  0  0  0
    7.2715   -1.7587   21.3946 C   0  0  0  0  0  0  0  0  0  0  0  0
    6.4405   -2.5103   20.5807 C   0  0  0  0  0  0  0  0  0  0  0  0
    6.0767   -2.0451   19.3350 C   0  0  0  0  0  0  0  0  0  0  0  0
    6.5398   -0.8246   18.8917 C   0  0  0  0  0  0  0  0  0  0  0  0
    7.3716   -0.0581   19.6907 C   0  0  0  0  0  0  0  0  0  0  0  0
  1  2  1  0
  2  3  2  0
  2  4  1  0
  4  5  1  0
  5  6  1  0
  6  7  1  0
  7  8  1  0
  8  9  1  0
  7 10  1  0
 10 11  2  0
 10 12  2  0
 10 13  1  0
 13 14  2  0
 14 15  1  0
 15 16  2  0
 16 17  1  0
 17 18  2  0
  9  4  1  0
 18 13  1  0
M  END
