CVD-0001577|dock_bobby27042020.94|mol2|44|dock1
     RDKit          3D

 30 32  0  0  0  0  0  0  0  0999 V2000
    6.9114    0.4603   24.8828 C   0  0  0  0  0  0  0  0  0  0  0  0
    8.1279   -0.1766   24.4821 O   0  0  0  0  0  0  0  0  0  0  0  0
    8.0405   -1.5332   24.1227 C   0  0  0  0  0  0  0  0  0  0  0  0
    7.1146   -1.7645   23.0575 O   0  0  0  0  0  0  0  0  0  0  0  0
    7.4313   -1.1189   21.8117 C   0  0  0  0  0  0  0  0  0  0  0  0
    6.4965   -1.4178   20.8011 O   0  0  0  0  0  0  0  0  0  0  0  0
    5.7523   -0.4145   20.2153 C   0  0  0  0  0  0  0  0  0  0  0  0
    6.0433   -0.0559   18.9092 C   0  0  0  0  0  0  0  0  0  0  0  0
    5.3129    0.9384   18.2853 C   0  0  0  0  0  0  0  0  0  0  0  0
    4.2728    1.5993   18.9548 C   0  0  0  0  0  0  0  0  0  0  0  0
    3.3445    2.6345   18.6208 C   0  0  0  0  0  0  0  0  0  0  0  0
    2.5738    2.8395   19.7155 C   0  0  0  0  0  0  0  0  0  0  0  0
    2.9609    1.9924   20.7250 N   0  0  0  0  0  0  0  0  0  0  0  0
    4.0056    1.2177   20.2811 C   0  0  0  0  0  0  0  0  0  0  0  0
    4.7375    0.2216   20.9210 C   0  0  0  0  0  0  0  0  0  0  0  0
    8.7930   -1.5862   21.3414 C   0  0  0  0  0  0  0  0  0  0  0  0
    9.1172   -0.9224   20.1248 O   0  0  0  0  0  0  0  0  0  0  0  0
    9.8670   -1.3241   22.3673 C   0  0  0  0  0  0  0  0  0  0  0  0
   11.0605   -1.9981   21.9468 O   0  0  0  0  0  0  0  0  0  0  0  0
   10.1618    0.1762   22.4652 C   0  0  0  0  0  0  0  0  0  0  0  0
   11.3498    0.5137   23.3593 C   0  0  0  0  0  0  0  0  0  0  0  0
   11.8720    1.8396   23.0608 N   0  0  0  0  0  0  0  0  0  0  0  0
   13.1727    2.0767   22.8798 C   0  0  0  0  0  0  0  0  0  0  0  0
   13.5477    3.4941   22.5608 C   0  0  0  0  0  0  0  0  0  0  0  0
   14.0116    1.1843   22.9547 O   0  0  0  0  0  0  0  0  0  0  0  0
    9.4421   -1.9067   23.6994 C   0  0  0  0  0  0  0  0  0  0  0  0
    9.5823   -3.3185   23.6665 O   0  0  0  0  0  0  0  0  0  0  0  0
    7.5032   -2.3630   25.2865 C   0  0  0  0  0  0  0  0  0  0  0  0
    8.1717   -2.1707   26.3924 O   0  0  0  0  0  0  0  0  0  0  0  0
    6.5516   -3.1113   25.2071 O   0  0  0  0  0  0  0  0  0  0  0  0
  1  2  1  0
  2  3  1  0
  3  4  1  0
  4  5  1  0
  5  6  1  0
  6  7  1  0
  7  8  2  0
  8  9  1  0
  9 10  2  0
 10 11  1  0
 11 12  2  0
 12 13  1  0
 13 14  1  0
 14 15  2  0
  5 16  1  0
 16 17  1  0
 16 18  1  0
 18 19  1  0
 18 20  1  0
 20 21  1  0
 21 22  1  0
 22 23  1  0
 23 24  1  0
 23 25  2  0
 18 26  1  0
 26 27  1  0
  3 28  1  0
 28 29  1  0
 28 30  2  0
 26  3  1  0
 15  7  1  0
 14 10  1  0
M  END
