CVD-0000373|dock_bobby27042020.27|mol2|23|dock1
     RDKit          3D

 27 29  0  0  0  0  0  0  0  0999 V2000
    8.1799    5.2871   22.2650 C   0  0  0  0  0  0  0  0  0  0  0  0
    8.7268    3.9102   22.3680 C   0  0  0  0  0  0  0  0  0  0  0  0
   10.0764    4.0165   22.8330 O   0  0  0  0  0  0  0  0  0  0  0  0
   10.9437    2.9636   22.6662 C   0  0  0  0  0  0  0  0  0  0  0  0
   10.5298    1.6601   22.4365 C   0  0  0  0  0  0  0  0  0  0  0  0
   11.4579    0.6381   22.3020 C   0  0  0  0  0  0  0  0  0  0  0  0
   11.0044   -0.7818   22.0588 C   0  0  0  0  0  0  0  0  0  0  0  0
    9.7678   -1.1299   22.7734 N   0  0  0  0  0  0  0  0  0  0  0  0
    9.9585   -1.0006   24.2211 C   0  0  0  0  0  0  0  0  0  0  0  0
    8.6677   -1.3211   24.9517 C   0  0  0  0  0  0  0  0  0  0  0  0
    8.2145   -2.6737   24.6200 N   0  0  0  0  0  0  0  0  0  0  0  0
    8.0714   -2.8538   23.1719 C   0  0  0  0  0  0  0  0  0  0  0  0
    9.3679   -2.5007   22.4661 C   0  0  0  0  0  0  0  0  0  0  0  0
    7.9418   -3.6091   25.5621 C   0  0  0  0  0  0  0  0  0  0  0  0
    7.4985   -4.9653   25.0978 C   0  0  0  0  0  0  0  0  0  0  0  0
    8.0669   -3.3531   26.7544 O   0  0  0  0  0  0  0  0  0  0  0  0
   12.8080    0.9385   22.3988 C   0  0  0  0  0  0  0  0  0  0  0  0
   13.1970    2.2353   22.6128 C   0  0  0  0  0  0  0  0  0  0  0  0
   14.5265    2.4746   22.6873 F   0  0  0  0  0  0  0  0  0  0  0  0
   12.3058    3.2987   22.7508 C   0  0  0  0  0  0  0  0  0  0  0  0
   12.7703    4.7068   22.9766 C   0  0  0  0  0  0  0  0  0  0  0  0
   12.4690    5.3816   24.1555 C   0  0  0  0  0  0  0  0  0  0  0  0
   12.9308    6.6790   24.2999 C   0  0  0  0  0  0  0  0  0  0  0  0
   12.6540    7.4759   25.5387 C   0  0  0  0  0  0  0  0  0  0  0  0
   13.6488    7.2692   23.3372 N   0  0  0  0  0  0  0  0  0  0  0  0
   13.8820    6.5348   22.2493 C   0  0  0  0  0  0  0  0  0  0  0  0
   13.4901    5.2853   21.9997 N   0  0  0  0  0  0  0  0  0  0  0  0
  1  2  1  0
  2  3  1  0
  3  4  1  0
  4  5  2  0
  5  6  1  0
  6  7  1  0
  7  8  1  0
  8  9  1  0
  9 10  1  0
 10 11  1  0
 11 12  1  0
 12 13  1  0
 11 14  1  0
 14 15  1  0
 14 16  2  0
  6 17  2  0
 17 18  1  0
 18 19  1  0
 18 20  2  0
 20 21  1  0
 21 22  2  0
 22 23  1  0
 23 24  1  0
 23 25  2  0
 25 26  1  0
 26 27  2  0
 20  4  1  0
 27 21  1  0
 13  8  1  0
M  END
