CVD-0003344|dock_bobby27042020.88|mol2|18|dock1
     RDKit          3D

 37 40  0  0  0  0  0  0  0  0999 V2000
   13.6827   -2.3367   22.9639 C   0  0  0  0  0  0  0  0  0  0  0  0
   12.3464   -1.7027   23.2171 C   0  0  0  0  0  0  0  0  0  0  0  0
   11.6701   -1.9851   24.2012 O   0  0  0  0  0  0  0  0  0  0  0  0
   11.9294   -0.8249   22.2983 N   0  0  0  0  0  0  0  0  0  0  0  0
   10.6463   -0.1510   22.4113 C   0  0  0  0  0  0  0  0  0  0  0  0
   10.7105    0.9374   23.4935 C   0  0  0  0  0  0  0  0  0  0  0  0
   11.4648    2.1696   23.0562 C   0  0  0  0  0  0  0  0  0  0  0  0
   12.8408    2.1384   22.8906 C   0  0  0  0  0  0  0  0  0  0  0  0
   13.5389    3.2649   22.4931 C   0  0  0  0  0  0  0  0  0  0  0  0
   12.8601    4.4491   22.2549 C   0  0  0  0  0  0  0  0  0  0  0  0
   13.5422    5.5636   21.8623 O   0  0  0  0  0  0  0  0  0  0  0  0
   11.4849    4.4955   22.4176 C   0  0  0  0  0  0  0  0  0  0  0  0
   10.7994    3.3615   22.8155 C   0  0  0  0  0  0  0  0  0  0  0  0
    9.5398   -1.1299   22.7584 C   0  0  0  0  0  0  0  0  0  0  0  0
    9.1368   -1.2570   23.8941 O   0  0  0  0  0  0  0  0  0  0  0  0
    8.9691   -1.9353   21.6119 C   0  0  0  0  0  0  0  0  0  0  0  0
    7.6322   -2.4789   21.8163 N   0  0  0  0  0  0  0  0  0  0  0  0
    6.4173   -1.9520   21.4670 C   0  0  0  0  0  0  0  0  0  0  0  0
    5.4020   -2.7083   21.8316 N   0  0  0  0  0  0  0  0  0  0  0  0
    5.9881   -3.7916   22.4747 C   0  0  0  0  0  0  0  0  0  0  0  0
    5.4818   -4.9352   23.0892 C   0  0  0  0  0  0  0  0  0  0  0  0
    6.3307   -5.8216   23.6428 N   0  0  0  0  0  0  0  0  0  0  0  0
    7.6380   -5.5558   23.5766 C   0  0  0  0  0  0  0  0  0  0  0  0
    8.2543   -4.5090   23.0223 N   0  0  0  0  0  0  0  0  0  0  0  0
    7.3644   -3.6666   22.4850 C   0  0  0  0  0  0  0  0  0  0  0  0
    4.0640   -5.1852   23.1426 C   0  0  0  0  0  0  0  0  0  0  0  0
    2.8980   -5.3506   23.1610 C   0  0  0  0  0  0  0  0  0  0  0  0
    6.2881   -0.6578   20.7398 C   0  0  0  0  0  0  0  0  0  0  0  0
    6.1032   -0.8732   19.2486 C   0  0  0  0  0  0  0  0  0  0  0  0
    5.9324    0.4707   18.5521 C   0  0  0  0  0  0  0  0  0  0  0  0
    4.7876    1.2481   19.1691 C   0  0  0  0  0  0  0  0  0  0  0  0
    5.0080    1.4122   20.6125 N   0  0  0  0  0  0  0  0  0  0  0  0
    5.1488    0.1491   21.3432 C   0  0  0  0  0  0  0  0  0  0  0  0
    4.8324    2.5630   21.2965 C   0  0  0  0  0  0  0  0  0  0  0  0
    5.0491    2.6448   22.4991 O   0  0  0  0  0  0  0  0  0  0  0  0
    4.3430    3.7625   20.5077 C   0  0  0  0  0  0  0  0  0  0  0  0
    3.9858    5.1233   21.5794 Cl  0  0  0  0  0  0  0  0  0  0  0  0
  1  2  1  0
  2  3  2  0
  2  4  1  0
  4  5  1  0
  5  6  1  0
  6  7  1  0
  7  8  2  0
  8  9  1  0
  9 10  2  0
 10 11  1  0
 10 12  1  0
 12 13  2  0
  5 14  1  0
 14 15  2  0
 14 16  1  0
 16 17  1  0
 17 18  1  0
 18 19  2  0
 19 20  1  0
 20 21  2  0
 21 22  1  0
 22 23  2  0
 23 24  1  0
 24 25  2  0
 21 26  1  0
 26 27  3  0
 18 28  1  0
 28 29  1  0
 29 30  1  0
 30 31  1  0
 31 32  1  0
 32 33  1  0
 32 34  1  0
 34 35  2  0
 34 36  1  0
 36 37  1  0
 13  7  1  0
 25 17  1  0
 33 28  1  0
 25 20  1  0
M  END
