CVD-0000633|dock_bobby27042020.55|mol2|22|dock1
     RDKit          3D

 21 23  0  0  0  0  0  0  0  0999 V2000
    8.7825    1.4488   22.1878 O   0  0  0  0  0  0  0  0  0  0  0  0
    9.3275    0.5313   21.5836 C   0  0  0  0  0  0  0  0  0  0  0  0
   10.6177   -0.0724   22.0981 C   0  0  0  0  0  0  0  0  0  0  0  0
   10.4601   -1.2436   23.1014 C   0  0  0  0  0  0  0  0  0  0  0  0
    9.3019   -0.9633   24.1012 C   0  0  0  0  0  0  0  0  0  0  0  0
    8.1702   -1.8585   23.7136 C   0  0  0  0  0  0  0  0  0  0  0  0
    8.6368   -2.7605   22.6696 C   0  0  0  0  0  0  0  0  0  0  0  0
   10.0520   -2.5226   22.3361 C   0  0  0  0  0  0  0  0  0  0  0  0
   11.8287   -1.4061   23.7645 C   0  0  0  0  0  0  0  0  0  0  0  0
   12.8132   -2.1996   23.1878 C   0  0  0  0  0  0  0  0  0  0  0  0
   14.0515   -2.3491   23.7897 C   0  0  0  0  0  0  0  0  0  0  0  0
   14.3253   -1.7083   24.9788 C   0  0  0  0  0  0  0  0  0  0  0  0
   13.3607   -0.9183   25.5662 C   0  0  0  0  0  0  0  0  0  0  0  0
   12.1225   -0.7688   24.9641 C   0  0  0  0  0  0  0  0  0  0  0  0
    8.8720   -0.0325   20.4379 N   0  0  0  0  0  0  0  0  0  0  0  0
    7.7249    0.2392   19.6510 C   0  0  0  0  0  0  0  0  0  0  0  0
    6.5807    0.7177   20.2763 C   0  0  0  0  0  0  0  0  0  0  0  0
    5.4513    0.9891   19.5244 C   0  0  0  0  0  0  0  0  0  0  0  0
    5.4973    0.7743   18.1667 C   0  0  0  0  0  0  0  0  0  0  0  0
    6.5790    0.3160   17.5367 N   0  0  0  0  0  0  0  0  0  0  0  0
    7.6652    0.0562   18.2712 C   0  0  0  0  0  0  0  0  0  0  0  0
  1  2  2  0
  2  3  1  0
  3  4  1  0
  4  5  1  0
  5  6  1  0
  6  7  1  0
  7  8  1  0
  4  9  1  0
  9 10  2  0
 10 11  1  0
 11 12  2  0
 12 13  1  0
 13 14  2  0
  2 15  1  0
 15 16  1  0
 16 17  2  0
 17 18  1  0
 18 19  2  0
 19 20  1  0
 20 21  2  0
  8  4  1  0
 14  9  1  0
 21 16  1  0
M  END
