CVD-0002074|dock_bobby27042020.7|mol2|29|dock1
     RDKit          3D

 26 28  0  0  0  0  0  0  0  0999 V2000
   10.9318    3.0867   22.2088 C   0  0  0  0  0  0  0  0  0  0  0  0
   11.0923    2.1809   23.2940 O   0  0  0  0  0  0  0  0  0  0  0  0
   11.6622    0.9114   22.9554 C   0  0  0  0  0  0  0  0  0  0  0  0
   13.1821    1.0085   22.8795 C   0  0  0  0  0  0  0  0  0  0  0  0
   13.7678   -0.3321   22.4427 C   0  0  0  0  0  0  0  0  0  0  0  0
   13.3058   -1.4652   23.3547 C   0  0  0  0  0  0  0  0  0  0  0  0
   11.7886   -1.5186   23.5057 C   0  0  0  0  0  0  0  0  0  0  0  0
   11.2348   -0.1589   23.9444 C   0  0  0  0  0  0  0  0  0  0  0  0
   11.2367   -1.9044   22.2215 O   0  0  0  0  0  0  0  0  0  0  0  0
    9.8973   -2.1946   22.0624 C   0  0  0  0  0  0  0  0  0  0  0  0
    9.2811   -3.1979   22.7916 C   0  0  0  0  0  0  0  0  0  0  0  0
    7.9336   -3.4433   22.5937 C   0  0  0  0  0  0  0  0  0  0  0  0
    7.2108   -2.6947   21.6805 C   0  0  0  0  0  0  0  0  0  0  0  0
    7.8199   -1.6899   20.9420 C   0  0  0  0  0  0  0  0  0  0  0  0
    7.0851   -0.8437   19.9235 C   0  0  0  0  0  0  0  0  0  0  0  0
    6.4090    0.3725   20.4058 N   0  0  0  0  0  0  0  0  0  0  0  0
    5.5489    0.0611   21.5513 C   0  0  0  0  0  0  0  0  0  0  0  0
    4.8870    1.3242   22.0699 C   0  0  0  0  0  0  0  0  0  0  0  0
    4.1054    1.9645   21.0096 N   0  0  0  0  0  0  0  0  0  0  0  0
    4.9252    2.2350   19.8246 C   0  0  0  0  0  0  0  0  0  0  0  0
    5.5953    0.9604   19.3448 C   0  0  0  0  0  0  0  0  0  0  0  0
    2.8012    2.2790   21.1505 C   0  0  0  0  0  0  0  0  0  0  0  0
    2.1875    2.0523   22.1857 O   0  0  0  0  0  0  0  0  0  0  0  0
    2.1279    2.9366   19.9614 C   0  0  0  0  0  0  0  0  0  0  0  0
    0.4165    3.2561   20.2723 Cl  0  0  0  0  0  0  0  0  0  0  0  0
    9.1726   -1.4468   21.1481 C   0  0  0  0  0  0  0  0  0  0  0  0
  1  2  1  0
  2  3  1  0
  3  4  1  0
  4  5  1  0
  5  6  1  0
  6  7  1  0
  7  8  1  0
  7  9  1  0
  9 10  1  0
 10 11  2  0
 11 12  1  0
 12 13  2  0
 13 14  1  0
 14 15  1  0
 15 16  1  0
 16 17  1  0
 17 18  1  0
 18 19  1  0
 19 20  1  0
 20 21  1  0
 19 22  1  0
 22 23  2  0
 22 24  1  0
 24 25  1  0
 14 26  2  0
  8  3  1  0
 26 10  1  0
 21 16  1  0
M  END
