CVD-0001393|dock_bobby27042020.81|mol2|15|dock2
     RDKit          3D

 15 16  0  0  0  0  0  0  0  0999 V2000
   13.1303   -2.1132   20.8143 N   0  0  0  0  0  0  0  0  0  0  0  0
   12.6866   -1.8486   22.3297 S   0  0  0  0  0  0  0  0  0  0  0  0
   11.4486   -2.5385   22.5351 O   0  0  0  0  0  0  0  0  0  0  0  0
   13.8061   -2.1738   23.1616 O   0  0  0  0  0  0  0  0  0  0  0  0
   12.3673   -0.1216   22.5261 C   0  0  0  0  0  0  0  0  0  0  0  0
   11.0608    0.3389   22.5308 C   0  0  0  0  0  0  0  0  0  0  0  0
   10.8168    1.6915   22.6898 C   0  0  0  0  0  0  0  0  0  0  0  0
   11.8650    2.5913   22.8459 C   0  0  0  0  0  0  0  0  0  0  0  0
   13.1689    2.1093   22.8405 C   0  0  0  0  0  0  0  0  0  0  0  0
   13.4254    0.7589   22.6823 C   0  0  0  0  0  0  0  0  0  0  0  0
   11.5989    4.0286   23.0140 C   0  0  0  0  0  0  0  0  0  0  0  0
   10.4748    4.6546   22.8559 N   0  0  0  0  0  0  0  0  0  0  0  0
   10.7783    5.9668   23.1348 C   0  0  0  0  0  0  0  0  0  0  0  0
   12.0872    6.0724   23.4521 C   0  0  0  0  0  0  0  0  0  0  0  0
   12.6445    4.8242   23.3809 O   0  0  0  0  0  0  0  0  0  0  0  0
  1  2  1  0
  2  3  2  0
  2  4  2  0
  2  5  1  0
  5  6  2  0
  6  7  1  0
  7  8  2  0
  8  9  1  0
  9 10  2  0
  8 11  1  0
 11 12  2  0
 12 13  1  0
 13 14  2  0
 14 15  1  0
 10  5  1  0
 15 11  1  0
M  END
