CVD-0000287|dock_bobby27042020.13|mol2|27|dock2
     RDKit          3D

 28 31  0  0  0  0  0  0  0  0999 V2000
    6.8291    2.8244   21.3706 F   0  0  0  0  0  0  0  0  0  0  0  0
    6.7402    1.5276   20.9976 C   0  0  0  0  0  0  0  0  0  0  0  0
    5.5525    1.1084   20.4456 C   0  0  0  0  0  0  0  0  0  0  0  0
    5.4358   -0.2074   20.0347 C   0  0  0  0  0  0  0  0  0  0  0  0
    6.5062   -1.0715   20.1761 C   0  0  0  0  0  0  0  0  0  0  0  0
    7.6924   -0.6092   20.7413 C   0  0  0  0  0  0  0  0  0  0  0  0
    9.1413   -1.5335   20.9844 S   0  0  0  0  0  0  0  0  0  0  0  0
    9.9546   -0.1650   21.6866 C   0  0  0  0  0  0  0  0  0  0  0  0
   11.3746   -0.4024   22.0914 C   0  0  0  0  0  0  0  0  0  0  0  0
   11.7816    0.0890   23.1432 O   0  0  0  0  0  0  0  0  0  0  0  0
   12.1572   -1.1532   21.3157 N   0  0  0  0  0  0  0  0  0  0  0  0
   13.4897   -1.5593   21.7377 C   0  0  0  0  0  0  0  0  0  0  0  0
   13.5288   -2.0557   23.1610 C   0  0  0  0  0  0  0  0  0  0  0  0
   12.5172   -2.8379   23.6966 C   0  0  0  0  0  0  0  0  0  0  0  0
   12.5437   -3.2852   24.9546 N   0  0  0  0  0  0  0  0  0  0  0  0
   13.6066   -2.9387   25.6805 C   0  0  0  0  0  0  0  0  0  0  0  0
   14.6213   -2.1615   25.1586 C   0  0  0  0  0  0  0  0  0  0  0  0
   14.5935   -1.7136   23.8971 N   0  0  0  0  0  0  0  0  0  0  0  0
    9.1587    0.9397   21.7705 C   0  0  0  0  0  0  0  0  0  0  0  0
    9.5867    2.2385   22.3986 C   0  0  0  0  0  0  0  0  0  0  0  0
   10.9919    2.3191   22.6208 O   0  0  0  0  0  0  0  0  0  0  0  0
   11.6014    3.5300   22.8440 C   0  0  0  0  0  0  0  0  0  0  0  0
   12.9633    3.6289   22.6148 C   0  0  0  0  0  0  0  0  0  0  0  0
   13.6107    4.8341   22.8283 C   0  0  0  0  0  0  0  0  0  0  0  0
   12.9066    5.9337   23.2682 C   0  0  0  0  0  0  0  0  0  0  0  0
   11.5518    5.8330   23.4987 C   0  0  0  0  0  0  0  0  0  0  0  0
   10.8901    4.6340   23.2911 C   0  0  0  0  0  0  0  0  0  0  0  0
    7.8493    0.7140   21.1932 C   0  0  0  0  0  0  0  0  0  0  0  0
  1  2  1  0
  2  3  2  0
  3  4  1  0
  4  5  2  0
  5  6  1  0
  6  7  1  0
  7  8  1  0
  8  9  1  0
  9 10  2  0
  9 11  1  0
 11 12  1  0
 12 13  1  0
 13 14  2  0
 14 15  1  0
 15 16  2  0
 16 17  1  0
 17 18  2  0
  8 19  2  0
 19 20  1  0
 20 21  1  0
 21 22  1  0
 22 23  2  0
 23 24  1  0
 24 25  2  0
 25 26  1  0
 26 27  2  0
 19 28  1  0
 28  2  1  0
 28  6  2  0
 18 13  1  0
 27 22  1  0
M  END
