CVD-0000459|dock_bobby27042020.41|mol2|25|dock1
     RDKit          3D

 31 34  0  0  0  0  0  0  0  0999 V2000
    7.7909   -0.6890   18.4966 C   0  0  0  0  0  0  0  0  0  0  0  0
    8.0177   -1.3932   19.8058 C   0  0  0  0  0  0  0  0  0  0  0  0
    6.9918   -2.1956   20.3689 C   0  0  0  0  0  0  0  0  0  0  0  0
    7.1691   -2.8494   21.5385 C   0  0  0  0  0  0  0  0  0  0  0  0
    8.4000   -2.7370   22.2206 C   0  0  0  0  0  0  0  0  0  0  0  0
    8.9420   -3.2573   23.4242 C   0  0  0  0  0  0  0  0  0  0  0  0
   10.2650   -2.7578   23.5513 C   0  0  0  0  0  0  0  0  0  0  0  0
   10.5364   -1.9523   22.4704 C   0  0  0  0  0  0  0  0  0  0  0  0
   11.8017   -1.2116   22.1809 C   0  0  0  0  0  0  0  0  0  0  0  0
   11.9096    0.0708   22.8809 N   0  0  0  0  0  0  0  0  0  0  0  0
   10.8839    1.0032   22.4040 C   0  0  0  0  0  0  0  0  0  0  0  0
   10.9738    2.3151   23.1610 C   0  0  0  0  0  0  0  0  0  0  0  0
   12.3053    2.9052   23.0058 N   0  0  0  0  0  0  0  0  0  0  0  0
   13.3590    1.9729   23.4189 C   0  0  0  0  0  0  0  0  0  0  0  0
   13.2279    0.6617   22.6657 C   0  0  0  0  0  0  0  0  0  0  0  0
   12.5005    4.1642   22.5624 C   0  0  0  0  0  0  0  0  0  0  0  0
   11.5637    4.8962   22.2687 O   0  0  0  0  0  0  0  0  0  0  0  0
   13.9372    4.6325   22.4372 C   0  0  0  0  0  0  0  0  0  0  0  0
   14.0136    6.3215   21.9188 Cl  0  0  0  0  0  0  0  0  0  0  0  0
    9.3997   -1.9416   21.6545 N   0  0  0  0  0  0  0  0  0  0  0  0
    9.1998   -1.2854   20.4585 C   0  0  0  0  0  0  0  0  0  0  0  0
    8.2530   -4.1275   24.3256 C   0  0  0  0  0  0  0  0  0  0  0  0
    7.7254   -4.8928   25.0809 C   0  0  0  0  0  0  0  0  0  0  0  0
    7.1176   -5.7525   26.0559 C   0  0  0  0  0  0  0  0  0  0  0  0
    5.8381   -6.2503   25.8004 C   0  0  0  0  0  0  0  0  0  0  0  0
    5.2056   -7.0825   26.7054 C   0  0  0  0  0  0  0  0  0  0  0  0
    5.8682   -7.4043   27.8576 C   0  0  0  0  0  0  0  0  0  0  0  0
    5.2543   -8.2225   28.7544 F   0  0  0  0  0  0  0  0  0  0  0  0
    7.1261   -6.9416   28.1557 C   0  0  0  0  0  0  0  0  0  0  0  0
    7.7649   -6.1070   27.2522 C   0  0  0  0  0  0  0  0  0  0  0  0
    9.0121   -5.6613   27.5710 O   0  0  0  0  0  0  0  0  0  0  0  0
  1  2  1  0
  2  3  1  0
  3  4  2  0
  4  5  1  0
  5  6  2  0
  6  7  1  0
  7  8  2  0
  8  9  1  0
  9 10  1  0
 10 11  1  0
 11 12  1  0
 12 13  1  0
 13 14  1  0
 14 15  1  0
 13 16  1  0
 16 17  2  0
 16 18  1  0
 18 19  1  0
  8 20  1  0
 20 21  1  0
  6 22  1  0
 22 23  3  0
 23 24  1  0
 24 25  2  0
 25 26  1  0
 26 27  2  0
 27 28  1  0
 27 29  1  0
 29 30  2  0
 30 31  1  0
 21  2  2  0
 30 24  1  0
 20  5  1  0
 15 10  1  0
M  END
