CVD-0002280|dock_bobby27042020.49|mol2|22|dock2
     RDKit          3D

 40 43  0  0  0  0  0  0  0  0999 V2000
   13.6586   -1.9118   24.1236 C   0  0  0  0  0  0  0  0  0  0  0  0
   12.6705   -1.5184   23.0362 C   0  0  0  0  0  0  0  0  0  0  0  0
   12.9845   -2.2236   21.7263 C   0  0  0  0  0  0  0  0  0  0  0  0
   11.2579   -1.6651   23.5131 N   0  0  0  0  0  0  0  0  0  0  0  0
   10.3222   -0.4998   23.4840 C   0  0  0  0  0  0  0  0  0  0  0  0
   10.4415    0.4155   24.6963 C   0  0  0  0  0  0  0  0  0  0  0  0
   10.4252    0.2990   22.1896 C   0  0  0  0  0  0  0  0  0  0  0  0
    9.2643    1.2287   21.9608 C   0  0  0  0  0  0  0  0  0  0  0  0
    9.1966    2.5704   22.3753 C   0  0  0  0  0  0  0  0  0  0  0  0
    7.9937    3.1368   21.9908 C   0  0  0  0  0  0  0  0  0  0  0  0
    7.5531    4.5358   22.2417 C   0  0  0  0  0  0  0  0  0  0  0  0
    6.1987    4.8809   22.2366 C   0  0  0  0  0  0  0  0  0  0  0  0
    5.7849    6.1805   22.4761 C   0  0  0  0  0  0  0  0  0  0  0  0
    6.7055    7.1761   22.7082 C   0  0  0  0  0  0  0  0  0  0  0  0
    8.0545    6.8761   22.7071 C   0  0  0  0  0  0  0  0  0  0  0  0
    8.4442    5.5771   22.4823 C   0  0  0  0  0  0  0  0  0  0  0  0
    9.7761    5.3420   22.5108 F   0  0  0  0  0  0  0  0  0  0  0  0
    7.2865    2.0996   21.3181 N   0  0  0  0  0  0  0  0  0  0  0  0
    8.0743    0.9554   21.3047 C   0  0  0  0  0  0  0  0  0  0  0  0
    5.7562    2.0281   20.5878 S   0  0  0  0  0  0  0  0  0  0  0  0
    4.8363    1.8720   21.6714 O   0  0  0  0  0  0  0  0  0  0  0  0
    5.6236    3.1563   19.7196 O   0  0  0  0  0  0  0  0  0  0  0  0
    5.7267    0.5357   19.6547 C   0  0  0  0  0  0  0  0  0  0  0  0
    5.4362   -0.6695   20.2707 C   0  0  0  0  0  0  0  0  0  0  0  0
    5.4289   -1.8193   19.5000 C   0  0  0  0  0  0  0  0  0  0  0  0
    5.7112   -1.7181   18.1565 C   0  0  0  0  0  0  0  0  0  0  0  0
    5.9945   -0.5642   17.5503 N   0  0  0  0  0  0  0  0  0  0  0  0
    6.0001    0.5418   18.3000 C   0  0  0  0  0  0  0  0  0  0  0  0
   10.8314   -2.8996   23.9105 C   0  0  0  0  0  0  0  0  0  0  0  0
   11.5527   -3.8724   23.7955 O   0  0  0  0  0  0  0  0  0  0  0  0
    9.4533   -3.1469   24.4971 C   0  0  0  0  0  0  0  0  0  0  0  0
    8.4528   -3.5039   23.4048 C   0  0  0  0  0  0  0  0  0  0  0  0
    7.0901   -3.7870   24.0027 C   0  0  0  0  0  0  0  0  0  0  0  0
    7.1902   -4.8635   24.9846 N   0  0  0  0  0  0  0  0  0  0  0  0
    8.0984   -4.5443   26.0807 C   0  0  0  0  0  0  0  0  0  0  0  0
    9.4953   -4.2652   25.5361 C   0  0  0  0  0  0  0  0  0  0  0  0
    6.3550   -5.9249   25.0808 C   0  0  0  0  0  0  0  0  0  0  0  0
    6.5205   -6.7930   25.9287 O   0  0  0  0  0  0  0  0  0  0  0  0
    5.1995   -6.0281   24.1035 C   0  0  0  0  0  0  0  0  0  0  0  0
    4.1793   -7.4268   24.4643 Cl  0  0  0  0  0  0  0  0  0  0  0  0
  1  2  1  0
  2  3  1  0
  2  4  1  0
  4  5  1  0
  5  6  1  0
  5  7  1  0
  7  8  1  0
  8  9  1  0
  9 10  2  0
 10 11  1  0
 11 12  2  0
 12 13  1  0
 13 14  2  0
 14 15  1  0
 15 16  2  0
 16 17  1  0
 10 18  1  0
 18 19  1  0
 18 20  1  0
 20 21  2  0
 20 22  2  0
 20 23  1  0
 23 24  2  0
 24 25  1  0
 25 26  2  0
 26 27  1  0
 27 28  2  0
  4 29  1  0
 29 30  2  0
 29 31  1  0
 31 32  1  0
 32 33  1  0
 33 34  1  0
 34 35  1  0
 35 36  1  0
 34 37  1  0
 37 38  2  0
 37 39  1  0
 39 40  1  0
 19  8  2  0
 28 23  1  0
 36 31  1  0
 16 11  1  0
M  END
