CVD-0003401|dock_bobby27042020.74|mol2|5|dock1
     RDKit          3D

 19 21  0  0  0  0  0  0  0  0999 V2000
    8.6813    0.5618   21.7705 O   0  0  0  0  0  0  0  0  0  0  0  0
    9.4829   -0.0826   21.1020 C   0  0  0  0  0  0  0  0  0  0  0  0
   10.7737   -0.3794   21.4665 N   0  0  0  0  0  0  0  0  0  0  0  0
   11.5047   -0.0523   22.6361 C   0  0  0  0  0  0  0  0  0  0  0  0
   10.9119    0.4238   23.8034 C   0  0  0  0  0  0  0  0  0  0  0  0
   11.6923    0.7227   24.9082 C   0  0  0  0  0  0  0  0  0  0  0  0
   13.0587    0.5536   24.8673 C   0  0  0  0  0  0  0  0  0  0  0  0
   13.6540    0.0835   23.7178 C   0  0  0  0  0  0  0  0  0  0  0  0
   12.8848   -0.2187   22.6070 C   0  0  0  0  0  0  0  0  0  0  0  0
    9.1453   -0.6004   19.8485 N   0  0  0  0  0  0  0  0  0  0  0  0
    7.9177   -0.4979   19.1522 C   0  0  0  0  0  0  0  0  0  0  0  0
    7.4008    0.5574   18.4604 C   0  0  0  0  0  0  0  0  0  0  0  0
    6.1892    0.5277   17.8249 N   0  0  0  0  0  0  0  0  0  0  0  0
    5.4815   -0.5714   17.8796 C   0  0  0  0  0  0  0  0  0  0  0  0
    5.9202   -1.6800   18.5506 N   0  0  0  0  0  0  0  0  0  0  0  0
    5.2681   -2.8771   18.6737 N   0  0  0  0  0  0  0  0  0  0  0  0
    6.0815   -3.6358   19.4070 C   0  0  0  0  0  0  0  0  0  0  0  0
    7.2560   -2.9862   19.7787 C   0  0  0  0  0  0  0  0  0  0  0  0
    7.1253   -1.6930   19.1996 C   0  0  0  0  0  0  0  0  0  0  0  0
  1  2  2  0
  2  3  1  0
  3  4  1  0
  4  5  2  0
  5  6  1  0
  6  7  2  0
  7  8  1  0
  8  9  2  0
  2 10  1  0
 10 11  1  0
 11 12  2  0
 12 13  1  0
 13 14  2  0
 14 15  1  0
 15 16  1  0
 16 17  2  0
 17 18  1  0
 18 19  2  0
  9  4  1  0
 19 11  1  0
 19 15  1  0
M  END
