CVD-0001382|dock_bobby27042020.52|mol2|45|dock2
     RDKit          3D

 14 14  0  0  0  0  0  0  0  0999 V2000
   11.0486   -1.3376   21.5851 N   0  0  0  0  0  0  0  0  0  0  0  0
   12.2240   -1.6836   22.3914 C   0  0  0  0  0  0  0  0  0  0  0  0
   12.3334   -0.7446   23.6133 C   0  0  0  0  0  0  0  0  0  0  0  0
   13.5842   -0.9429   24.2621 O   0  0  0  0  0  0  0  0  0  0  0  0
   12.1713    0.6946   23.1706 C   0  0  0  0  0  0  0  0  0  0  0  0
   13.2702    1.5331   23.0495 C   0  0  0  0  0  0  0  0  0  0  0  0
   13.1127    2.8485   22.6468 C   0  0  0  0  0  0  0  0  0  0  0  0
   11.8511    3.3423   22.3608 C   0  0  0  0  0  0  0  0  0  0  0  0
   10.7497    2.5095   22.4812 C   0  0  0  0  0  0  0  0  0  0  0  0
    9.5023    2.9867   22.2021 O   0  0  0  0  0  0  0  0  0  0  0  0
   10.9085    1.1915   22.8847 C   0  0  0  0  0  0  0  0  0  0  0  0
   13.4729   -1.5534   21.4899 C   0  0  0  0  0  0  0  0  0  0  0  0
   13.5940   -2.4568   20.5512 O   0  0  0  0  0  0  0  0  0  0  0  0
   14.2492   -0.6467   21.6967 O   0  0  0  0  0  0  0  0  0  0  0  0
  1  2  1  0
  2  3  1  0
  3  4  1  0
  3  5  1  0
  5  6  2  0
  6  7  1  0
  7  8  2  0
  8  9  1  0
  9 10  1  0
  9 11  2  0
  2 12  1  0
 12 13  1  0
 12 14  2  0
 11  5  1  0
M  END
