CVD-0001082|dock_bobby27042020.53|mol2|45|dock3
     RDKit          3D

 23 25  0  0  0  0  0  0  0  0999 V2000
    4.9075   -3.3778   18.2100 O   0  0  0  0  0  0  0  0  0  0  0  0
    5.5254   -3.2594   19.2661 N   0  0  0  0  0  0  0  0  0  0  0  0
    5.6024   -4.1322   20.1142 O   0  0  0  0  0  0  0  0  0  0  0  0
    6.2137   -1.9872   19.5218 C   0  0  0  0  0  0  0  0  0  0  0  0
    5.8561   -0.8602   18.8006 C   0  0  0  0  0  0  0  0  0  0  0  0
    6.5078    0.3344   19.0512 C   0  0  0  0  0  0  0  0  0  0  0  0
    7.5102    0.3946   20.0049 C   0  0  0  0  0  0  0  0  0  0  0  0
    7.8833   -0.7362   20.7243 C   0  0  0  0  0  0  0  0  0  0  0  0
    7.2114   -1.9325   20.4829 C   0  0  0  0  0  0  0  0  0  0  0  0
    8.9807   -0.6184   21.7391 C   0  0  0  0  0  0  0  0  0  0  0  0
    9.2058   -1.6182   22.4300 O   0  0  0  0  0  0  0  0  0  0  0  0
    9.8054    0.5860   21.9725 C   0  0  0  0  0  0  0  0  0  0  0  0
    9.5045    1.5765   22.8106 C   0  0  0  0  0  0  0  0  0  0  0  0
   10.3094    2.7767   23.0554 C   0  0  0  0  0  0  0  0  0  0  0  0
   10.0351    3.6424   24.1115 C   0  0  0  0  0  0  0  0  0  0  0  0
   10.7312    4.7264   24.3637 N   0  0  0  0  0  0  0  0  0  0  0  0
   11.7772    4.9867   23.5202 C   0  0  0  0  0  0  0  0  0  0  0  0
   12.5805    6.1331   23.7181 C   0  0  0  0  0  0  0  0  0  0  0  0
   13.6218    6.3883   22.8747 C   0  0  0  0  0  0  0  0  0  0  0  0
   13.9093    5.5417   21.8224 C   0  0  0  0  0  0  0  0  0  0  0  0
   13.1609    4.4243   21.5941 C   0  0  0  0  0  0  0  0  0  0  0  0
   12.0715    4.1188   22.4418 C   0  0  0  0  0  0  0  0  0  0  0  0
   11.3156    2.9995   22.2193 N   0  0  0  0  0  0  0  0  0  0  0  0
  1  2  1  0
  2  3  2  0
  2  4  1  0
  4  5  2  0
  5  6  1  0
  6  7  2  0
  7  8  1  0
  8  9  2  0
  8 10  1  0
 10 11  2  0
 10 12  1  0
 12 13  2  0
 13 14  1  0
 14 15  2  0
 15 16  1  0
 16 17  2  0
 17 18  1  0
 18 19  2  0
 19 20  1  0
 20 21  2  0
 21 22  1  0
 22 23  2  0
  9  4  1  0
 23 14  1  0
 22 17  1  0
M  CHG  2   1  -1   2   1
M  END
