CVD-0002559|dock_bobby27042020.91|mol2|6|dock2
     RDKit          3D

 21 23  0  0  0  0  0  0  0  0999 V2000
   14.2462   -1.8541   25.0193 C   0  0  0  0  0  0  0  0  0  0  0  0
   12.9031   -1.8541   24.4420 N   0  0  0  0  0  0  0  0  0  0  0  0
   12.9655   -1.7691   22.9810 C   0  0  0  0  0  0  0  0  0  0  0  0
   11.5825   -1.8449   22.3688 C   0  0  0  0  0  0  0  0  0  0  0  0
   10.6831   -0.7186   22.8876 C   0  0  0  0  0  0  0  0  0  0  0  0
   10.6969   -0.7642   24.4201 C   0  0  0  0  0  0  0  0  0  0  0  0
   12.1153   -0.7401   24.9662 C   0  0  0  0  0  0  0  0  0  0  0  0
    9.2612   -0.7669   22.3286 C   0  0  0  0  0  0  0  0  0  0  0  0
    9.2005   -0.4464   20.8598 C   0  0  0  0  0  0  0  0  0  0  0  0
    7.8272   -0.0346   20.3971 C   0  0  0  0  0  0  0  0  0  0  0  0
    7.5415    0.1352   19.0329 C   0  0  0  0  0  0  0  0  0  0  0  0
    8.4732   -0.1085   18.0603 O   0  0  0  0  0  0  0  0  0  0  0  0
    6.2496    0.4588   18.6182 C   0  0  0  0  0  0  0  0  0  0  0  0
    5.9872    0.5585   17.2891 O   0  0  0  0  0  0  0  0  0  0  0  0
    5.2326    0.6167   19.5488 C   0  0  0  0  0  0  0  0  0  0  0  0
    5.5165    0.4490   20.8909 C   0  0  0  0  0  0  0  0  0  0  0  0
    6.8041    0.1252   21.3204 C   0  0  0  0  0  0  0  0  0  0  0  0
    7.0891    0.0392   22.8026 C   0  0  0  0  0  0  0  0  0  0  0  0
    6.3558    1.0909   23.6233 C   0  0  0  0  0  0  0  0  0  0  0  0
    6.3389    2.4183   22.9692 N   0  0  0  0  0  0  0  0  0  0  0  0
    8.4856    0.1822   23.0752 O   0  0  0  0  0  0  0  0  0  0  0  0
  1  2  1  0
  2  3  1  0
  3  4  1  0
  4  5  1  0
  5  6  1  0
  6  7  1  0
  5  8  1  0
  8  9  1  0
  9 10  1  0
 10 11  2  0
 11 12  1  0
 11 13  1  0
 13 14  1  0
 13 15  2  0
 15 16  1  0
 16 17  2  0
 17 18  1  0
 18 19  1  0
 19 20  1  0
 18 21  1  0
  7  2  1  0
 21  8  1  0
 17 10  1  0
M  END
