CVD-0003824|dock_bobby27042020.86|mol2|35|dock1
     RDKit          3D

 24 26  0  0  0  0  0  0  0  0999 V2000
    8.5740   -4.2732   25.1040 C   0  0  0  0  0  0  0  0  0  0  0  0
    8.0753   -3.5566   23.9226 N   0  0  0  0  0  0  0  0  0  0  0  0
    7.0720   -4.3374   23.1477 C   0  0  0  0  0  0  0  0  0  0  0  0
    5.7321   -4.3165   23.8460 C   0  0  0  0  0  0  0  0  0  0  0  0
    4.7178   -5.1875   23.1117 C   0  0  0  0  0  0  0  0  0  0  0  0
    5.2205   -6.5982   22.9479 C   0  0  0  0  0  0  0  0  0  0  0  0
    6.5695   -6.6250   22.2690 C   0  0  0  0  0  0  0  0  0  0  0  0
    7.5855   -5.7536   22.9952 C   0  0  0  0  0  0  0  0  0  0  0  0
    9.1274   -2.8442   23.1476 C   0  0  0  0  0  0  0  0  0  0  0  0
    8.5912   -1.6247   22.4656 C   0  0  0  0  0  0  0  0  0  0  0  0
    9.6633   -0.8325   21.7353 C   0  0  0  0  0  0  0  0  0  0  0  0
   10.7700   -0.5399   22.6326 N   0  0  0  0  0  0  0  0  0  0  0  0
   11.3666   -1.7087   23.2677 C   0  0  0  0  0  0  0  0  0  0  0  0
   10.2938   -2.4648   24.0464 C   0  0  0  0  0  0  0  0  0  0  0  0
   11.3560    0.7172   22.6929 C   0  0  0  0  0  0  0  0  0  0  0  0
   10.5808    1.8669   22.8079 C   0  0  0  0  0  0  0  0  0  0  0  0
   11.1642    3.1196   22.8777 C   0  0  0  0  0  0  0  0  0  0  0  0
   12.5417    3.2368   22.8258 C   0  0  0  0  0  0  0  0  0  0  0  0
   13.3327    2.1085   22.7021 C   0  0  0  0  0  0  0  0  0  0  0  0
   12.7393    0.8604   22.6379 C   0  0  0  0  0  0  0  0  0  0  0  0
   13.2931    4.8341   22.9072 S   0  0  0  0  0  0  0  0  0  0  0  0
   13.3651    5.4368   21.4257 N   0  0  0  0  0  0  0  0  0  0  0  0
   14.6407    4.6505   23.3557 O   0  0  0  0  0  0  0  0  0  0  0  0
   12.4205    5.6791   23.6660 O   0  0  0  0  0  0  0  0  0  0  0  0
  1  2  1  0
  2  3  1  0
  3  4  1  0
  4  5  1  0
  5  6  1  0
  6  7  1  0
  7  8  1  0
  2  9  1  0
  9 10  1  0
 10 11  1  0
 11 12  1  0
 12 13  1  0
 13 14  1  0
 12 15  1  0
 15 16  2  0
 16 17  1  0
 17 18  2  0
 18 19  1  0
 19 20  2  0
 18 21  1  0
 21 22  1  0
 21 23  2  0
 21 24  2  0
  8  3  1  0
 14  9  1  0
 20 15  1  0
M  END
