CVD-0003806|dock_bobby27042020.44|mol2|14|dock2
     RDKit          3D

 28 31  0  0  0  0  0  0  0  0999 V2000
   12.9891    5.9403   23.3550 N   0  0  0  0  0  0  0  0  0  0  0  0
   13.4710    4.7644   22.3812 S   0  0  0  0  0  0  0  0  0  0  0  0
   14.7866    4.3816   22.7982 O   0  0  0  0  0  0  0  0  0  0  0  0
   13.2766    5.2209   21.0377 O   0  0  0  0  0  0  0  0  0  0  0  0
   12.4140    3.3689   22.6225 C   0  0  0  0  0  0  0  0  0  0  0  0
   11.0414    3.5371   22.6368 C   0  0  0  0  0  0  0  0  0  0  0  0
   10.2191    2.4402   22.8241 C   0  0  0  0  0  0  0  0  0  0  0  0
   10.7435    1.1649   23.0152 C   0  0  0  0  0  0  0  0  0  0  0  0
   12.1285    1.0254   23.0054 C   0  0  0  0  0  0  0  0  0  0  0  0
   12.9612    2.1119   22.8050 C   0  0  0  0  0  0  0  0  0  0  0  0
    9.9119    0.0670   23.2097 N   0  0  0  0  0  0  0  0  0  0  0  0
    8.6480   -0.1114   22.4887 C   0  0  0  0  0  0  0  0  0  0  0  0
    8.4891   -1.5107   21.9651 C   0  0  0  0  0  0  0  0  0  0  0  0
    8.6060   -2.5380   23.0965 C   0  0  0  0  0  0  0  0  0  0  0  0
    9.9174   -2.3248   23.8098 C   0  0  0  0  0  0  0  0  0  0  0  0
   10.0942   -0.9072   24.3107 C   0  0  0  0  0  0  0  0  0  0  0  0
    8.4488   -3.9204   22.5967 N   0  0  0  0  0  0  0  0  0  0  0  0
    7.6475   -4.9269   23.3152 C   0  0  0  0  0  0  0  0  0  0  0  0
    6.1501   -4.5087   23.3650 C   0  0  0  0  0  0  0  0  0  0  0  0
    5.4207   -5.3994   22.4125 C   0  0  0  0  0  0  0  0  0  0  0  0
    6.3476   -6.4168   21.9360 C   0  0  0  0  0  0  0  0  0  0  0  0
    7.6837   -6.2615   22.5371 C   0  0  0  0  0  0  0  0  0  0  0  0
    8.3010   -5.0687   24.6934 C   0  0  0  0  0  0  0  0  0  0  0  0
    7.8585   -4.3156   25.7742 C   0  0  0  0  0  0  0  0  0  0  0  0
    8.4475   -4.4463   27.0208 C   0  0  0  0  0  0  0  0  0  0  0  0
    9.4871   -5.3322   27.2059 C   0  0  0  0  0  0  0  0  0  0  0  0
    9.9378   -6.0882   26.1451 C   0  0  0  0  0  0  0  0  0  0  0  0
    9.3492   -5.9578   24.8983 C   0  0  0  0  0  0  0  0  0  0  0  0
  1  2  1  0
  2  3  2  0
  2  4  2  0
  2  5  1  0
  5  6  2  0
  6  7  1  0
  7  8  2  0
  8  9  1  0
  9 10  2  0
  8 11  1  0
 11 12  1  0
 12 13  1  0
 13 14  1  0
 14 15  1  0
 15 16  1  0
 14 17  1  0
 17 18  1  0
 18 19  1  0
 19 20  1  0
 20 21  1  0
 21 22  1  0
 18 23  1  0
 23 24  2  0
 24 25  1  0
 25 26  2  0
 26 27  1  0
 27 28  2  0
 10  5  1  0
 16 11  1  0
 22 18  1  0
 28 23  1  0
M  END
