CVD-0004051|dock_bobby27042020.86|mol2|1|dock3
     RDKit          3D

 23 26  0  0  0  0  0  0  0  0999 V2000
   13.9140   -1.5904   24.2047 C   0  0  0  0  0  0  0  0  0  0  0  0
   12.8479   -1.1307   23.2609 C   0  0  0  0  0  0  0  0  0  0  0  0
   11.9652   -0.0527   23.3935 C   0  0  0  0  0  0  0  0  0  0  0  0
   11.1740   -0.0530   22.2618 C   0  0  0  0  0  0  0  0  0  0  0  0
   11.6121   -1.0928   21.5147 N   0  0  0  0  0  0  0  0  0  0  0  0
   12.6307   -1.7668   22.1115 N   0  0  0  0  0  0  0  0  0  0  0  0
   10.1039    0.8086   21.8288 C   0  0  0  0  0  0  0  0  0  0  0  0
    9.9421    2.2315   21.9101 C   0  0  0  0  0  0  0  0  0  0  0  0
    8.7508    2.6148   21.4447 N   0  0  0  0  0  0  0  0  0  0  0  0
    8.1213    1.4891   20.9860 N   0  0  0  0  0  0  0  0  0  0  0  0
    6.8994    1.4554   20.4063 C   0  0  0  0  0  0  0  0  0  0  0  0
    6.4149    0.2593   20.0053 C   0  0  0  0  0  0  0  0  0  0  0  0
    5.0665    0.1061   19.3575 C   0  0  0  0  0  0  0  0  0  0  0  0
    7.2571   -0.8981   20.2422 C   0  0  0  0  0  0  0  0  0  0  0  0
    8.4430   -0.8621   20.8062 N   0  0  0  0  0  0  0  0  0  0  0  0
    8.8853    0.3621   21.1836 C   0  0  0  0  0  0  0  0  0  0  0  0
   10.8276    3.3196   22.3788 C   0  0  0  0  0  0  0  0  0  0  0  0
   12.2015    3.1073   22.4237 C   0  0  0  0  0  0  0  0  0  0  0  0
   13.0673    4.1020   22.8424 C   0  0  0  0  0  0  0  0  0  0  0  0
   12.5399    5.3069   23.2172 C   0  0  0  0  0  0  0  0  0  0  0  0
   13.3864    6.2930   23.6191 F   0  0  0  0  0  0  0  0  0  0  0  0
   11.1960    5.5603   23.2054 C   0  0  0  0  0  0  0  0  0  0  0  0
   10.3392    4.5544   22.7949 C   0  0  0  0  0  0  0  0  0  0  0  0
  1  2  1  0
  2  3  1  0
  3  4  2  0
  4  5  1  0
  5  6  1  0
  4  7  1  0
  7  8  1  0
  8  9  2  0
  9 10  1  0
 10 11  1  0
 11 12  2  0
 12 13  1  0
 12 14  1  0
 14 15  2  0
 15 16  1  0
  8 17  1  0
 17 18  2  0
 18 19  1  0
 19 20  2  0
 20 21  1  0
 20 22  1  0
 22 23  2  0
  6  2  2  0
 16  7  2  0
 23 17  1  0
 16 10  1  0
M  END
