CVD-0001601|dock_bobby27042020.37|mol2|38|dock1
     RDKit          3D

 19 21  0  0  0  0  0  0  0  0999 V2000
    4.9645   -2.8780   18.1016 N   0  0  0  0  0  0  0  0  0  0  0  0
    5.8423   -2.4985   18.7343 C   0  0  0  0  0  0  0  0  0  0  0  0
    6.8857   -2.0734   19.4280 N   0  0  0  0  0  0  0  0  0  0  0  0
    7.5307   -2.8461   20.4913 C   0  0  0  0  0  0  0  0  0  0  0  0
    8.0002   -1.9470   21.6089 C   0  0  0  0  0  0  0  0  0  0  0  0
    8.8835   -0.9053   21.0882 N   0  0  0  0  0  0  0  0  0  0  0  0
    8.1213   -0.0943   20.1443 C   0  0  0  0  0  0  0  0  0  0  0  0
    7.6797   -0.9296   18.9722 C   0  0  0  0  0  0  0  0  0  0  0  0
    9.4647   -0.0953   22.1679 C   0  0  0  0  0  0  0  0  0  0  0  0
    8.4264    0.7236   22.9638 C   0  0  0  0  0  0  0  0  0  0  0  0
    9.0696    1.9438   22.3020 C   0  0  0  0  0  0  0  0  0  0  0  0
   10.0170    1.1012   21.5740 O   0  0  0  0  0  0  0  0  0  0  0  0
   10.4645   -0.8606   22.9286 N   0  0  0  0  0  0  0  0  0  0  0  0
   11.1038   -0.1423   24.0519 C   0  0  0  0  0  0  0  0  0  0  0  0
   11.9773    1.0207   23.6049 C   0  0  0  0  0  0  0  0  0  0  0  0
   13.4579    0.6729   23.3647 C   0  0  0  0  0  0  0  0  0  0  0  0
   13.5847   -0.6345   22.7954 O   0  0  0  0  0  0  0  0  0  0  0  0
   12.6747   -0.9538   21.7481 C   0  0  0  0  0  0  0  0  0  0  0  0
   11.4562   -1.6984   22.2378 C   0  0  0  0  0  0  0  0  0  0  0  0
  1  2  3  0
  2  3  1  0
  3  4  1  0
  4  5  1  0
  5  6  1  0
  6  7  1  0
  7  8  1  0
  6  9  1  0
  9 10  1  0
 10 11  1  0
 11 12  1  0
  9 13  1  0
 13 14  1  0
 14 15  1  0
 15 16  1  0
 16 17  1  0
 17 18  1  0
 18 19  1  0
  8  3  1  0
 12  9  1  0
 19 13  1  0
M  END
