CVD-0003526|dock_bobby27042020.87|mol2|36|dock1
     RDKit          3D

 26 28  0  0  0  0  0  0  0  0999 V2000
   13.1123    5.0836   21.6413 N   0  0  0  0  0  0  0  0  0  0  0  0
   13.5228    4.3624   23.0104 S   0  0  0  0  0  0  0  0  0  0  0  0
   14.9413    4.4991   23.1523 O   0  0  0  0  0  0  0  0  0  0  0  0
   12.6715    4.8858   24.0364 O   0  0  0  0  0  0  0  0  0  0  0  0
   13.1709    2.6368   22.8620 C   0  0  0  0  0  0  0  0  0  0  0  0
   14.1886    1.7502   22.5430 C   0  0  0  0  0  0  0  0  0  0  0  0
   13.9030    0.3983   22.4716 C   0  0  0  0  0  0  0  0  0  0  0  0
   12.6179   -0.0789   22.7135 C   0  0  0  0  0  0  0  0  0  0  0  0
   12.2487   -1.5076   22.4163 C   0  0  0  0  0  0  0  0  0  0  0  0
   10.9978   -1.9397   23.1471 C   0  0  0  0  0  0  0  0  0  0  0  0
    9.9115   -0.9896   22.8985 N   0  0  0  0  0  0  0  0  0  0  0  0
    8.6714   -1.4801   23.5104 C   0  0  0  0  0  0  0  0  0  0  0  0
    7.4425   -1.3819   22.6158 C   0  0  0  0  0  0  0  0  0  0  0  0
    7.7679   -1.5944   21.1390 C   0  0  0  0  0  0  0  0  0  0  0  0
    6.5595   -1.3903   20.2477 C   0  0  0  0  0  0  0  0  0  0  0  0
    5.9380   -0.0873   20.5053 N   0  0  0  0  0  0  0  0  0  0  0  0
    5.5147    0.0787   21.8910 C   0  0  0  0  0  0  0  0  0  0  0  0
    6.7164   -0.0555   22.8000 C   0  0  0  0  0  0  0  0  0  0  0  0
    5.6635    0.8508   19.5753 C   0  0  0  0  0  0  0  0  0  0  0  0
    5.1491    1.9224   19.8695 O   0  0  0  0  0  0  0  0  0  0  0  0
    6.0161    0.5189   18.1302 C   0  0  0  0  0  0  0  0  0  0  0  0
    5.6018    1.5879   17.2320 C   0  0  0  0  0  0  0  0  0  0  0  0
    5.2818    2.4425   16.5554 N   0  0  0  0  0  0  0  0  0  0  0  0
   10.2730    0.2922   23.5037 C   0  0  0  0  0  0  0  0  0  0  0  0
   11.6007    0.8156   23.0336 C   0  0  0  0  0  0  0  0  0  0  0  0
   11.8860    2.1753   23.1057 C   0  0  0  0  0  0  0  0  0  0  0  0
  1  2  1  0
  2  3  2  0
  2  4  2  0
  2  5  1  0
  5  6  2  0
  6  7  1  0
  7  8  2  0
  8  9  1  0
  9 10  1  0
 10 11  1  0
 11 12  1  0
 12 13  1  0
 13 14  1  0
 14 15  1  0
 15 16  1  0
 16 17  1  0
 17 18  1  0
 16 19  1  0
 19 20  2  0
 19 21  1  0
 21 22  1  0
 22 23  3  0
 11 24  1  0
 24 25  1  0
 25 26  2  0
 26  5  1  0
 25  8  1  0
 18 13  1  0
M  END
