CVD-0002823|dock_bobby27042020.76|mol2|1|dock3
     RDKit          3D

 19 21  0  0  0  0  0  0  0  0999 V2000
    5.5015    0.8756   17.7207 Cl  0  0  0  0  0  0  0  0  0  0  0  0
    6.7524    0.0729   18.6788 C   0  0  0  0  0  0  0  0  0  0  0  0
    6.2240   -0.3372   20.0395 C   0  0  0  0  0  0  0  0  0  0  0  0
    5.0271   -0.3019   20.2967 O   0  0  0  0  0  0  0  0  0  0  0  0
    7.1380   -0.7405   20.9458 N   0  0  0  0  0  0  0  0  0  0  0  0
    6.7957   -1.1878   22.3184 C   0  0  0  0  0  0  0  0  0  0  0  0
    7.4615   -2.4831   22.6392 C   0  0  0  0  0  0  0  0  0  0  0  0
    6.8359   -3.6193   21.7941 C   0  0  0  0  0  0  0  0  0  0  0  0
    7.6589   -4.9090   21.7584 C   0  0  0  0  0  0  0  0  0  0  0  0
    6.7073   -6.0617   21.5036 C   0  0  0  0  0  0  0  0  0  0  0  0
    5.5266   -5.8650   22.4324 C   0  0  0  0  0  0  0  0  0  0  0  0
    5.1786   -4.0881   22.4350 S   0  0  0  0  0  0  0  0  0  0  0  0
    8.9614   -2.3412   22.5038 C   0  0  0  0  0  0  0  0  0  0  0  0
    9.8695   -3.0153   23.3256 C   0  0  0  0  0  0  0  0  0  0  0  0
   11.2386   -2.8790   23.1823 C   0  0  0  0  0  0  0  0  0  0  0  0
   11.7416   -2.0550   22.2011 C   0  0  0  0  0  0  0  0  0  0  0  0
   10.8674   -1.3761   21.3739 C   0  0  0  0  0  0  0  0  0  0  0  0
    9.4904   -1.5116   21.5162 C   0  0  0  0  0  0  0  0  0  0  0  0
    8.5606   -0.7668   20.5541 C   0  0  0  0  0  0  0  0  0  0  0  0
  1  2  1  0
  2  3  1  0
  3  4  2  0
  3  5  1  0
  5  6  1  0
  6  7  1  0
  7  8  1  0
  8  9  1  0
  9 10  1  0
 10 11  1  0
 11 12  1  0
  7 13  1  0
 13 14  2  0
 14 15  1  0
 15 16  2  0
 16 17  1  0
 17 18  2  0
 18 19  1  0
 19  5  1  0
 12  8  1  0
 18 13  1  0
M  END
