CVD-0000105|dock_bobby27042020.71|mol2|25|dock1
     RDKit          3D

 23 26  0  0  0  0  0  0  0  0999 V2000
   14.2478   -1.2879   22.5617 Cl  0  0  0  0  0  0  0  0  0  0  0  0
   12.5279   -1.2204   22.8256 C   0  0  0  0  0  0  0  0  0  0  0  0
   11.6783   -1.7876   21.9015 C   0  0  0  0  0  0  0  0  0  0  0  0
   10.3131   -1.7296   22.1182 C   0  0  0  0  0  0  0  0  0  0  0  0
    9.7922   -1.1118   23.2445 C   0  0  0  0  0  0  0  0  0  0  0  0
    8.3012   -1.0560   23.4749 C   0  0  0  0  0  0  0  0  0  0  0  0
    7.5333   -1.8796   22.5423 N   0  0  0  0  0  0  0  0  0  0  0  0
    6.6608   -1.4736   21.5669 C   0  0  0  0  0  0  0  0  0  0  0  0
    6.3821   -0.0362   21.2850 C   0  0  0  0  0  0  0  0  0  0  0  0
    5.5120    0.1225   20.1188 N   0  0  0  0  0  0  0  0  0  0  0  0
    6.2616   -0.0388   18.8579 C   0  0  0  0  0  0  0  0  0  0  0  0
    5.3868    0.6197   17.8125 C   0  0  0  0  0  0  0  0  0  0  0  0
    4.5429    1.6029   18.5569 C   0  0  0  0  0  0  0  0  0  0  0  0
    4.9058    1.4620   20.0189 C   0  0  0  0  0  0  0  0  0  0  0  0
    6.1106   -2.4766   20.9122 N   0  0  0  0  0  0  0  0  0  0  0  0
    6.6396   -3.6214   21.5004 C   0  0  0  0  0  0  0  0  0  0  0  0
    6.4155   -4.9684   21.2196 C   0  0  0  0  0  0  0  0  0  0  0  0
    7.0774   -5.9244   21.9752 C   0  0  0  0  0  0  0  0  0  0  0  0
    7.9438   -5.5617   22.9884 C   0  0  0  0  0  0  0  0  0  0  0  0
    8.1822   -4.2280   23.2810 C   0  0  0  0  0  0  0  0  0  0  0  0
    7.5204   -3.2714   22.5212 C   0  0  0  0  0  0  0  0  0  0  0  0
   10.6722   -0.5511   24.1572 C   0  0  0  0  0  0  0  0  0  0  0  0
   12.0400   -0.6008   23.9549 C   0  0  0  0  0  0  0  0  0  0  0  0
  1  2  1  0
  2  3  2  0
  3  4  1  0
  4  5  2  0
  5  6  1  0
  6  7  1  0
  7  8  1  0
  8  9  1  0
  9 10  1  0
 10 11  1  0
 11 12  1  0
 12 13  1  0
 13 14  1  0
  8 15  2  0
 15 16  1  0
 16 17  2  0
 17 18  1  0
 18 19  2  0
 19 20  1  0
 20 21  2  0
  5 22  1  0
 22 23  2  0
 23  2  1  0
 21  7  1  0
 14 10  1  0
 21 16  1  0
M  END
