CVD-0003796|dock_bobby27042020.86|mol2|39|dock1
     RDKit          3D

 24 26  0  0  0  0  0  0  0  0999 V2000
    6.8847   -0.9698   18.6904 C   0  0  0  0  0  0  0  0  0  0  0  0
    6.1282   -0.5920   19.8732 N   0  0  0  0  0  0  0  0  0  0  0  0
    6.3315   -1.4042   21.0764 C   0  0  0  0  0  0  0  0  0  0  0  0
    7.5045   -0.9627   21.9416 C   0  0  0  0  0  0  0  0  0  0  0  0
    7.2617    0.4176   22.5621 C   0  0  0  0  0  0  0  0  0  0  0  0
    8.4255    0.8378   23.4145 C   0  0  0  0  0  0  0  0  0  0  0  0
    9.6869    0.8300   22.6676 N   0  0  0  0  0  0  0  0  0  0  0  0
    9.9749   -0.4752   22.0289 C   0  0  0  0  0  0  0  0  0  0  0  0
    8.8059   -0.9290   21.1808 C   0  0  0  0  0  0  0  0  0  0  0  0
   10.6099    1.8688   22.7336 C   0  0  0  0  0  0  0  0  0  0  0  0
   11.9670    1.6187   22.9175 C   0  0  0  0  0  0  0  0  0  0  0  0
   12.8881    2.6494   22.9761 C   0  0  0  0  0  0  0  0  0  0  0  0
   12.4579    3.9591   22.8658 C   0  0  0  0  0  0  0  0  0  0  0  0
   11.1146    4.2358   22.6879 C   0  0  0  0  0  0  0  0  0  0  0  0
   10.2054    3.1955   22.6170 C   0  0  0  0  0  0  0  0  0  0  0  0
   13.6280    5.2812   22.9422 S   0  0  0  0  0  0  0  0  0  0  0  0
   13.9095    5.7963   21.4527 N   0  0  0  0  0  0  0  0  0  0  0  0
   13.0092    6.3595   23.6532 O   0  0  0  0  0  0  0  0  0  0  0  0
   14.8554    4.7379   23.4414 O   0  0  0  0  0  0  0  0  0  0  0  0
    5.2913    0.4567   19.8162 C   0  0  0  0  0  0  0  0  0  0  0  0
    4.5116    0.9446   20.8221 C   0  0  0  0  0  0  0  0  0  0  0  0
    3.7736    2.0611   20.3569 C   0  0  0  0  0  0  0  0  0  0  0  0
    4.0029    2.3753   19.0707 C   0  0  0  0  0  0  0  0  0  0  0  0
    5.1356    1.3274   18.3442 S   0  0  0  0  0  0  0  0  0  0  0  0
  1  2  1  0
  2  3  1  0
  3  4  1  0
  4  5  1  0
  5  6  1  0
  6  7  1  0
  7  8  1  0
  8  9  1  0
  7 10  1  0
 10 11  2  0
 11 12  1  0
 12 13  2  0
 13 14  1  0
 14 15  2  0
 13 16  1  0
 16 17  1  0
 16 18  2  0
 16 19  2  0
  2 20  1  0
 20 21  2  0
 21 22  1  0
 22 23  2  0
 23 24  1  0
  9  4  1  0
 15 10  1  0
 24 20  1  0
M  END
