CVD-0001819|dock_bobby27042020.94|mol2|9|dock2
     RDKit          3D

 30 33  0  0  0  0  0  0  0  0999 V2000
   13.3562   -0.6970   24.9267 C   0  0  0  0  0  0  0  0  0  0  0  0
   12.9197   -1.0986   23.5262 C   0  0  0  0  0  0  0  0  0  0  0  0
   13.7420   -2.2902   23.0608 C   0  0  0  0  0  0  0  0  0  0  0  0
   11.4633   -1.3759   23.4893 N   0  0  0  0  0  0  0  0  0  0  0  0
   10.7194   -0.1665   23.8564 C   0  0  0  0  0  0  0  0  0  0  0  0
    9.2264   -0.4143   23.8386 C   0  0  0  0  0  0  0  0  0  0  0  0
    8.7319   -0.9429   22.5006 C   0  0  0  0  0  0  0  0  0  0  0  0
    8.9655    0.0578   21.4973 O   0  0  0  0  0  0  0  0  0  0  0  0
    7.2213   -1.2905   22.5301 C   0  0  0  0  0  0  0  0  0  0  0  0
    6.7539   -2.2654   21.5343 N   0  0  0  0  0  0  0  0  0  0  0  0
    6.4359   -3.5999   21.7364 C   0  0  0  0  0  0  0  0  0  0  0  0
    6.0435   -4.1673   20.6206 N   0  0  0  0  0  0  0  0  0  0  0  0
    6.0646   -3.1833   19.6409 N   0  0  0  0  0  0  0  0  0  0  0  0
    6.4798   -2.0548   20.1914 C   0  0  0  0  0  0  0  0  0  0  0  0
    6.5772   -0.8486   19.3815 C   0  0  0  0  0  0  0  0  0  0  0  0
    5.6102    0.1366   19.0850 C   0  0  0  0  0  0  0  0  0  0  0  0
    6.2163    1.1052   18.2536 C   0  0  0  0  0  0  0  0  0  0  0  0
    7.5030    0.7151   18.0530 C   0  0  0  0  0  0  0  0  0  0  0  0
    7.7221   -0.4546   18.7264 N   0  0  0  0  0  0  0  0  0  0  0  0
    6.4689   -4.3712   22.8732 N   0  0  0  0  0  0  0  0  0  0  0  0
    6.8720   -3.9211   24.1974 C   0  0  0  0  0  0  0  0  0  0  0  0
    6.0130   -5.7516   22.8043 C   0  0  0  0  0  0  0  0  0  0  0  0
    4.5341   -5.9015   23.0564 C   0  0  0  0  0  0  0  0  0  0  0  0
    3.7349   -5.2985   24.0556 C   0  0  0  0  0  0  0  0  0  0  0  0
    2.4626   -5.6499   23.9725 N   0  0  0  0  0  0  0  0  0  0  0  0
    2.4177   -6.4971   22.9169 N   0  0  0  0  0  0  0  0  0  0  0  0
    1.1449   -7.0749   22.5027 C   0  0  0  0  0  0  0  0  0  0  0  0
    3.6160   -6.6628   22.3418 C   0  0  0  0  0  0  0  0  0  0  0  0
    9.5885   -2.1279   22.0832 C   0  0  0  0  0  0  0  0  0  0  0  0
   11.0748   -1.8103   22.1425 C   0  0  0  0  0  0  0  0  0  0  0  0
  1  2  1  0
  2  3  1  0
  2  4  1  0
  4  5  1  0
  5  6  1  0
  6  7  1  0
  7  8  1  0
  7  9  1  0
  9 10  1  0
 10 11  1  0
 11 12  2  0
 12 13  1  0
 13 14  2  0
 14 15  1  0
 15 16  2  0
 16 17  1  0
 17 18  2  0
 18 19  1  0
 11 20  1  0
 20 21  1  0
 20 22  1  0
 22 23  1  0
 23 24  1  0
 24 25  2  0
 25 26  1  0
 26 27  1  0
 26 28  1  0
  7 29  1  0
 29 30  1  0
 30  4  1  0
 14 10  1  0
 19 15  1  0
 28 23  2  0
M  END
