CVD-0000968|dock_bobby27042020.82|mol2|33|dock1
     RDKit          3D

 31 34  0  0  0  0  0  0  0  0999 V2000
   13.1301   -1.7104   21.6944 N   0  0  0  0  0  0  0  0  0  0  0  0
   12.5118   -1.1675   23.0680 S   0  0  0  0  0  0  0  0  0  0  0  0
   13.6143   -0.6821   23.8424 O   0  0  0  0  0  0  0  0  0  0  0  0
   11.7003   -2.2309   23.5795 O   0  0  0  0  0  0  0  0  0  0  0  0
   11.4351    0.2018   22.7166 C   0  0  0  0  0  0  0  0  0  0  0  0
   12.0820    1.4243   22.5782 C   0  0  0  0  0  0  0  0  0  0  0  0
   11.3913    2.5604   22.1950 C   0  0  0  0  0  0  0  0  0  0  0  0
   10.0316    2.4524   21.9582 C   0  0  0  0  0  0  0  0  0  0  0  0
    9.3603    1.2579   22.1406 C   0  0  0  0  0  0  0  0  0  0  0  0
   10.0333    0.1114   22.5675 C   0  0  0  0  0  0  0  0  0  0  0  0
    9.2786   -1.0639   22.8230 N   0  0  0  0  0  0  0  0  0  0  0  0
    8.8942   -1.8872   21.6663 C   0  0  0  0  0  0  0  0  0  0  0  0
    8.5106   -3.2815   22.1178 C   0  0  0  0  0  0  0  0  0  0  0  0
    7.4002   -3.1608   23.0911 N   0  0  0  0  0  0  0  0  0  0  0  0
    7.7766   -2.3440   24.2633 C   0  0  0  0  0  0  0  0  0  0  0  0
    8.1819   -0.9547   23.7907 C   0  0  0  0  0  0  0  0  0  0  0  0
    6.4688   -4.4915   23.3407 S   0  0  0  0  0  0  0  0  0  0  0  0
    6.0380   -4.9475   22.0541 O   0  0  0  0  0  0  0  0  0  0  0  0
    5.4948   -4.1407   24.3291 O   0  0  0  0  0  0  0  0  0  0  0  0
    7.5107   -5.7205   24.0253 C   0  0  0  0  0  0  0  0  0  0  0  0
    7.7408   -5.7894   25.3064 C   0  0  0  0  0  0  0  0  0  0  0  0
   12.1211    3.8883   22.0376 C   0  0  0  0  0  0  0  0  0  0  0  0
   13.5575    3.7820   22.2529 N   0  0  0  0  0  0  0  0  0  0  0  0
   14.0278    4.5481   23.2557 C   0  0  0  0  0  0  0  0  0  0  0  0
   15.1932    4.6110   23.6320 O   0  0  0  0  0  0  0  0  0  0  0  0
   12.8683    5.2946   23.7913 C   0  0  0  0  0  0  0  0  0  0  0  0
   12.7828    6.2422   24.8103 C   0  0  0  0  0  0  0  0  0  0  0  0
   11.5505    6.8047   25.1086 C   0  0  0  0  0  0  0  0  0  0  0  0
   10.4220    6.4318   24.4062 C   0  0  0  0  0  0  0  0  0  0  0  0
   10.5098    5.4892   23.3935 C   0  0  0  0  0  0  0  0  0  0  0  0
   11.7405    4.9160   23.0830 C   0  0  0  0  0  0  0  0  0  0  0  0
  1  2  1  0
  2  3  2  0
  2  4  2  0
  2  5  1  0
  5  6  2  0
  6  7  1  0
  7  8  2  0
  8  9  1  0
  9 10  2  0
 10 11  1  0
 11 12  1  0
 12 13  1  0
 13 14  1  0
 14 15  1  0
 15 16  1  0
 14 17  1  0
 17 18  2  0
 17 19  2  0
 17 20  1  0
 20 21  2  0
  7 22  1  0
 22 23  1  0
 23 24  1  0
 24 25  2  0
 24 26  1  0
 26 27  2  0
 27 28  1  0
 28 29  2  0
 29 30  1  0
 30 31  2  0
 10  5  1  0
 16 11  1  0
 31 22  1  0
 31 26  1  0
M  END
