CVD-0001603|dock_bobby27042020.9|mol2|14|dock1
     RDKit          3D

 18 19  0  0  0  0  0  0  0  0999 V2000
    6.3204    0.6137   18.7065 F   0  0  0  0  0  0  0  0  0  0  0  0
    6.6052   -0.6829   18.3219 C   0  0  0  0  0  0  0  0  0  0  0  0
    6.3611   -1.5971   19.5029 C   0  0  0  0  0  0  0  0  0  0  0  0
    5.5557   -2.5150   19.4100 O   0  0  0  0  0  0  0  0  0  0  0  0
    7.0529   -1.3790   20.6463 N   0  0  0  0  0  0  0  0  0  0  0  0
    8.0277   -0.2955   20.7904 C   0  0  0  0  0  0  0  0  0  0  0  0
    9.3635   -0.8430   21.2576 C   0  0  0  0  0  0  0  0  0  0  0  0
    9.2039   -1.5531   22.5299 N   0  0  0  0  0  0  0  0  0  0  0  0
   10.4809   -2.0432   22.9992 C   0  0  0  0  0  0  0  0  0  0  0  0
   11.4655   -0.9841   23.0022 N   0  0  0  0  0  0  0  0  0  0  0  0
   12.8521   -1.4527   22.7912 C   0  0  0  0  0  0  0  0  0  0  0  0
   13.3195   -2.4468   23.8439 C   0  0  0  0  0  0  0  0  0  0  0  0
   14.0232   -1.8254   25.0644 C   0  0  0  0  0  0  0  0  0  0  0  0
   13.4190   -0.5759   25.4152 O   0  0  0  0  0  0  0  0  0  0  0  0
   11.9955   -0.5449   25.4133 C   0  0  0  0  0  0  0  0  0  0  0  0
   11.4227   -0.0257   24.1168 C   0  0  0  0  0  0  0  0  0  0  0  0
    8.2683   -2.6593   22.3443 C   0  0  0  0  0  0  0  0  0  0  0  0
    6.9143   -2.1475   21.8873 C   0  0  0  0  0  0  0  0  0  0  0  0
  1  2  1  0
  2  3  1  0
  3  4  2  0
  3  5  1  0
  5  6  1  0
  6  7  1  0
  7  8  1  0
  8  9  1  0
  9 10  1  0
 10 11  1  0
 11 12  1  0
 12 13  1  0
 13 14  1  0
 14 15  1  0
 15 16  1  0
  8 17  1  0
 17 18  1  0
 18  5  1  0
 16 10  1  0
M  END
