CVD-0003915|dock_bobby27042020.72|mol2|21|dock1
     RDKit          3D

 27 29  0  0  0  0  0  0  0  0999 V2000
    7.3054   -0.0304   18.4949 F   0  0  0  0  0  0  0  0  0  0  0  0
    6.5469    0.3131   19.5610 C   0  0  0  0  0  0  0  0  0  0  0  0
    5.2127    0.5756   19.3654 C   0  0  0  0  0  0  0  0  0  0  0  0
    4.4448    0.9276   20.4623 C   0  0  0  0  0  0  0  0  0  0  0  0
    5.0132    1.0110   21.7161 C   0  0  0  0  0  0  0  0  0  0  0  0
    6.3600    0.7445   21.9049 C   0  0  0  0  0  0  0  0  0  0  0  0
    7.1370    0.3890   20.8121 C   0  0  0  0  0  0  0  0  0  0  0  0
    8.8618    0.0601   21.0888 S   0  0  0  0  0  0  0  0  0  0  0  0
    9.2965   -0.8302   20.0574 O   0  0  0  0  0  0  0  0  0  0  0  0
    9.5141    1.3211   21.2593 O   0  0  0  0  0  0  0  0  0  0  0  0
    8.9545   -0.7908   22.5160 N   0  0  0  0  0  0  0  0  0  0  0  0
    9.8587   -0.3126   23.5858 C   0  0  0  0  0  0  0  0  0  0  0  0
   11.1403   -1.1306   23.6853 C   0  0  0  0  0  0  0  0  0  0  0  0
   11.9367   -1.0813   22.3653 C   0  0  0  0  0  0  0  0  0  0  0  0
   13.2634   -1.8328   22.4565 C   0  0  0  0  0  0  0  0  0  0  0  0
   14.1015   -1.3384   23.6284 C   0  0  0  0  0  0  0  0  0  0  0  0
   13.3223   -1.4188   24.9333 C   0  0  0  0  0  0  0  0  0  0  0  0
   12.0179   -0.6331   24.8465 C   0  0  0  0  0  0  0  0  0  0  0  0
    8.1826   -1.9792   22.6986 C   0  0  0  0  0  0  0  0  0  0  0  0
    8.1672   -2.4987   23.8079 O   0  0  0  0  0  0  0  0  0  0  0  0
    7.4994   -2.4926   21.6564 N   0  0  0  0  0  0  0  0  0  0  0  0
    6.6971   -3.7081   21.7943 C   0  0  0  0  0  0  0  0  0  0  0  0
    7.5810   -4.9223   22.1462 C   0  0  0  0  0  0  0  0  0  0  0  0
    6.7637   -6.1935   22.3683 C   0  0  0  0  0  0  0  0  0  0  0  0
    5.6761   -5.9782   23.4127 C   0  0  0  0  0  0  0  0  0  0  0  0
    4.7871   -4.7989   23.0449 C   0  0  0  0  0  0  0  0  0  0  0  0
    5.6067   -3.5254   22.8637 C   0  0  0  0  0  0  0  0  0  0  0  0
  1  2  1  0
  2  3  2  0
  3  4  1  0
  4  5  2  0
  5  6  1  0
  6  7  2  0
  7  8  1  0
  8  9  2  0
  8 10  2  0
  8 11  1  0
 11 12  1  0
 12 13  1  0
 13 14  1  0
 14 15  1  0
 15 16  1  0
 16 17  1  0
 17 18  1  0
 11 19  1  0
 19 20  2  0
 19 21  1  0
 21 22  1  0
 22 23  1  0
 23 24  1  0
 24 25  1  0
 25 26  1  0
 26 27  1  0
  7  2  1  0
 18 13  1  0
 27 22  1  0
M  END
