CVD-0000084|dock_bobby27042020.85|mol2|32|dock2
     RDKit          3D

 16 17  0  0  0  0  0  0  0  0999 V2000
    8.8416   -0.3185   22.4777 O   0  0  0  0  0  0  0  0  0  0  0  0
    9.4658   -0.9094   21.6034 C   0  0  0  0  0  0  0  0  0  0  0  0
   10.7512   -1.6541   21.8989 C   0  0  0  0  0  0  0  0  0  0  0  0
   11.3352   -1.4483   23.3024 C   0  0  0  0  0  0  0  0  0  0  0  0
   12.4639   -2.4594   23.5902 C   0  0  0  0  0  0  0  0  0  0  0  0
   13.1155   -2.2334   24.9532 C   0  0  0  0  0  0  0  0  0  0  0  0
   13.6049   -0.7989   25.1031 C   0  0  0  0  0  0  0  0  0  0  0  0
   12.4800    0.1944   24.8494 C   0  0  0  0  0  0  0  0  0  0  0  0
   11.8613   -0.0126   23.4707 C   0  0  0  0  0  0  0  0  0  0  0  0
    9.1057   -0.9778   20.2985 N   0  0  0  0  0  0  0  0  0  0  0  0
    7.9975   -0.4367   19.6001 C   0  0  0  0  0  0  0  0  0  0  0  0
    6.8193   -0.1962   20.2950 C   0  0  0  0  0  0  0  0  0  0  0  0
    5.7268    0.3317   19.6302 C   0  0  0  0  0  0  0  0  0  0  0  0
    5.8427    0.6050   18.2872 C   0  0  0  0  0  0  0  0  0  0  0  0
    6.9587    0.3860   17.5918 N   0  0  0  0  0  0  0  0  0  0  0  0
    8.0090   -0.1243   18.2424 C   0  0  0  0  0  0  0  0  0  0  0  0
  1  2  2  0
  2  3  1  0
  3  4  1  0
  4  5  1  0
  5  6  1  0
  6  7  1  0
  7  8  1  0
  8  9  1  0
  2 10  1  0
 10 11  1  0
 11 12  2  0
 12 13  1  0
 13 14  2  0
 14 15  1  0
 15 16  2  0
  9  4  1  0
 16 11  1  0
M  END
