CVD-0001672|dock_bobby27042020.9|mol2|4|dock2
     RDKit          3D

 29 31  0  0  0  0  0  0  0  0999 V2000
    5.7159   -6.1365   21.7729 C   0  0  0  0  0  0  0  0  0  0  0  0
    6.7583   -5.1799   22.3319 C   0  0  0  0  0  0  0  0  0  0  0  0
    6.6902   -3.8131   21.6974 C   0  0  0  0  0  0  0  0  0  0  0  0
    5.8799   -3.5686   20.8124 O   0  0  0  0  0  0  0  0  0  0  0  0
    7.5523   -2.8762   22.1412 N   0  0  0  0  0  0  0  0  0  0  0  0
    7.5924   -1.5151   21.6022 C   0  0  0  0  0  0  0  0  0  0  0  0
    8.9968   -1.1675   21.1443 C   0  0  0  0  0  0  0  0  0  0  0  0
    9.9407   -1.2992   22.2581 N   0  0  0  0  0  0  0  0  0  0  0  0
   11.2968   -0.9251   21.8299 C   0  0  0  0  0  0  0  0  0  0  0  0
   12.3400   -1.1248   22.9044 C   0  0  0  0  0  0  0  0  0  0  0  0
   13.4258   -1.9583   22.6487 C   0  0  0  0  0  0  0  0  0  0  0  0
   14.4025   -2.1752   23.6054 C   0  0  0  0  0  0  0  0  0  0  0  0
   14.3053   -1.5602   24.8342 C   0  0  0  0  0  0  0  0  0  0  0  0
   13.2320   -0.7287   25.1045 C   0  0  0  0  0  0  0  0  0  0  0  0
   12.2407   -0.4987   24.1536 C   0  0  0  0  0  0  0  0  0  0  0  0
   11.0907    0.4209   24.4943 C   0  0  0  0  0  0  0  0  0  0  0  0
   10.8178    1.4092   23.4413 N   0  0  0  0  0  0  0  0  0  0  0  0
   11.7773    2.5149   23.5147 C   0  0  0  0  0  0  0  0  0  0  0  0
   11.5167    3.5113   22.4004 C   0  0  0  0  0  0  0  0  0  0  0  0
   10.1472    4.0237   22.4824 N   0  0  0  0  0  0  0  0  0  0  0  0
    9.1637    2.9363   22.4717 C   0  0  0  0  0  0  0  0  0  0  0  0
    9.4649    1.9424   23.5786 C   0  0  0  0  0  0  0  0  0  0  0  0
    9.8613    5.3381   22.5304 C   0  0  0  0  0  0  0  0  0  0  0  0
   10.7331    6.1816   22.4438 O   0  0  0  0  0  0  0  0  0  0  0  0
    8.4046    5.7083   22.6962 C   0  0  0  0  0  0  0  0  0  0  0  0
    7.6982    5.2619   21.5694 O   0  0  0  0  0  0  0  0  0  0  0  0
    7.8739    5.1474   23.8473 F   0  0  0  0  0  0  0  0  0  0  0  0
    9.9188   -2.6776   22.7409 C   0  0  0  0  0  0  0  0  0  0  0  0
    8.5293   -3.0578   23.2192 C   0  0  0  0  0  0  0  0  0  0  0  0
  1  2  1  0
  2  3  1  0
  3  4  2  0
  3  5  1  0
  5  6  1  0
  6  7  1  0
  7  8  1  0
  8  9  1  0
  9 10  1  0
 10 11  2  0
 11 12  1  0
 12 13  2  0
 13 14  1  0
 14 15  2  0
 15 16  1  0
 16 17  1  0
 17 18  1  0
 18 19  1  0
 19 20  1  0
 20 21  1  0
 21 22  1  0
 20 23  1  0
 23 24  2  0
 23 25  1  0
 25 26  1  0
 25 27  1  0
  8 28  1  0
 28 29  1  0
 29  5  1  0
 15 10  1  0
 22 17  1  0
M  END
