CVD-0003111|dock_bobby27042020.46|mol2|20|dock1
     RDKit          3D

 17 17  0  0  0  0  0  0  0  0999 V2000
   13.9432    6.1829   21.7396 C   0  0  0  0  0  0  0  0  0  0  0  0
   12.8318    4.8408   21.3269 S   0  0  0  0  0  0  0  0  0  0  0  0
   13.2143    3.6821   22.6668 C   0  0  0  0  0  0  0  0  0  0  0  0
   12.3888    2.4192   22.6582 C   0  0  0  0  0  0  0  0  0  0  0  0
   13.0803    1.2136   22.5929 C   0  0  0  0  0  0  0  0  0  0  0  0
   12.4575   -0.0278   22.4703 C   0  0  0  0  0  0  0  0  0  0  0  0
   13.3541   -1.2262   22.3196 C   0  0  0  0  0  0  0  0  0  0  0  0
   13.2315   -2.0950   21.3216 N   0  0  0  0  0  0  0  0  0  0  0  0
   14.2478   -1.3794   23.1598 O   0  0  0  0  0  0  0  0  0  0  0  0
   11.0492   -0.0595   22.5008 C   0  0  0  0  0  0  0  0  0  0  0  0
   10.2558   -1.3374   22.4900 C   0  0  0  0  0  0  0  0  0  0  0  0
    9.4773   -1.7458   20.8885 S   0  0  0  0  0  0  0  0  0  0  0  0
   10.3573    1.1460   22.5675 C   0  0  0  0  0  0  0  0  0  0  0  0
   10.9807    2.3874   22.6891 C   0  0  0  0  0  0  0  0  0  0  0  0
   10.0859    3.5869   22.8403 C   0  0  0  0  0  0  0  0  0  0  0  0
    8.9411    3.7158   22.1784 N   0  0  0  0  0  0  0  0  0  0  0  0
   10.4589    4.4857   23.6024 O   0  0  0  0  0  0  0  0  0  0  0  0
  1  2  1  0
  2  3  1  0
  3  4  1  0
  4  5  2  0
  5  6  1  0
  6  7  1  0
  7  8  1  0
  7  9  2  0
  6 10  2  0
 10 11  1  0
 11 12  1  0
 10 13  1  0
 13 14  2  0
 14 15  1  0
 15 16  1  0
 15 17  2  0
 14  4  1  0
M  END
