CVD-0000984|dock_bobby27042020.54|mol2|11|dock2
     RDKit          3D

 34 38  0  0  0  0  0  0  0  0999 V2000
   13.5229    8.9564   24.8712 C   0  0  0  0  0  0  0  0  0  0  0  0
   13.7414    8.2011   23.6811 O   0  0  0  0  0  0  0  0  0  0  0  0
   13.4639    6.8570   23.6541 C   0  0  0  0  0  0  0  0  0  0  0  0
   12.5793    6.2704   24.5481 C   0  0  0  0  0  0  0  0  0  0  0  0
   12.3340    4.9102   24.4783 C   0  0  0  0  0  0  0  0  0  0  0  0
   12.9609    4.1176   23.5246 C   0  0  0  0  0  0  0  0  0  0  0  0
   13.8439    4.7185   22.6364 C   0  0  0  0  0  0  0  0  0  0  0  0
   14.0944    6.0773   22.6995 C   0  0  0  0  0  0  0  0  0  0  0  0
   12.6949    2.6721   23.4569 C   0  0  0  0  0  0  0  0  0  0  0  0
   13.2973    1.7996   22.7026 N   0  0  0  0  0  0  0  0  0  0  0  0
   12.6776    0.5949   23.0185 C   0  0  0  0  0  0  0  0  0  0  0  0
   12.8684   -0.7046   22.5559 C   0  0  0  0  0  0  0  0  0  0  0  0
   12.0845   -1.7295   23.0645 C   0  0  0  0  0  0  0  0  0  0  0  0
   11.1066   -1.4825   24.0322 C   0  0  0  0  0  0  0  0  0  0  0  0
   10.2802   -2.4948   24.5824 N   0  0  0  0  0  0  0  0  0  0  0  0
    9.0120   -2.4550   25.0633 C   0  0  0  0  0  0  0  0  0  0  0  0
    8.3032   -1.4541   25.1091 O   0  0  0  0  0  0  0  0  0  0  0  0
    8.4784   -3.7784   25.5758 C   0  0  0  0  0  0  0  0  0  0  0  0
    6.9531   -3.8162   25.6274 C   0  0  0  0  0  0  0  0  0  0  0  0
    6.4966   -5.1877   26.0941 C   0  0  0  0  0  0  0  0  0  0  0  0
    7.0274   -5.4890   27.4197 N   0  0  0  0  0  0  0  0  0  0  0  0
    6.5072   -6.7758   27.9071 C   0  0  0  0  0  0  0  0  0  0  0  0
    6.6474   -6.9803   29.3968 C   0  0  0  0  0  0  0  0  0  0  0  0
    7.0431   -8.2043   29.9138 C   0  0  0  0  0  0  0  0  0  0  0  0
    7.1679   -8.3989   31.2779 C   0  0  0  0  0  0  0  0  0  0  0  0
    6.8907   -7.3525   32.1312 C   0  0  0  0  0  0  0  0  0  0  0  0
    7.0594   -7.6073   34.0059 Br  0  0  0  0  0  0  0  0  0  0  0  0
    6.4930   -6.1246   31.6476 C   0  0  0  0  0  0  0  0  0  0  0  0
    6.3734   -5.9477   30.2806 C   0  0  0  0  0  0  0  0  0  0  0  0
    8.4923   -5.5156   27.3462 C   0  0  0  0  0  0  0  0  0  0  0  0
    9.0473   -4.1610   26.9341 C   0  0  0  0  0  0  0  0  0  0  0  0
   10.9204   -0.1809   24.4914 C   0  0  0  0  0  0  0  0  0  0  0  0
   11.7138    0.8210   23.9689 C   0  0  0  0  0  0  0  0  0  0  0  0
   11.7079    2.1679   24.2694 O   0  0  0  0  0  0  0  0  0  0  0  0
  1  2  1  0
  2  3  1  0
  3  4  2  0
  4  5  1  0
  5  6  2  0
  6  7  1  0
  7  8  2  0
  6  9  1  0
  9 10  2  0
 10 11  1  0
 11 12  2  0
 12 13  1  0
 13 14  2  0
 14 15  1  0
 15 16  1  0
 16 17  2  0
 16 18  1  0
 18 19  1  0
 19 20  1  0
 20 21  1  0
 21 22  1  0
 22 23  1  0
 23 24  2  0
 24 25  1  0
 25 26  2  0
 26 27  1  0
 26 28  1  0
 28 29  2  0
 21 30  1  0
 30 31  1  0
 14 32  1  0
 32 33  2  0
 33 34  1  0
  8  3  1  0
 34  9  1  0
 33 11  1  0
 31 18  1  0
 29 23  1  0
M  END
