CVD-0002206|dock_bobby27042020.92|mol2|21|dock1
     RDKit          3D

 22 24  0  0  0  0  0  0  0  0999 V2000
    6.9337   -5.6153   21.5042 C   0  0  0  0  0  0  0  0  0  0  0  0
    6.4573   -4.5451   22.4359 C   0  0  0  0  0  0  0  0  0  0  0  0
    7.1963   -3.3082   22.2451 N   0  0  0  0  0  0  0  0  0  0  0  0
    6.8891   -2.4152   21.2893 C   0  0  0  0  0  0  0  0  0  0  0  0
    6.1983   -2.8804   20.2293 N   0  0  0  0  0  0  0  0  0  0  0  0
    5.8789   -2.0159   19.2599 C   0  0  0  0  0  0  0  0  0  0  0  0
    6.2203   -0.6692   19.2881 C   0  0  0  0  0  0  0  0  0  0  0  0
    6.9317   -0.2008   20.3867 C   0  0  0  0  0  0  0  0  0  0  0  0
    7.2819   -1.0665   21.4163 C   0  0  0  0  0  0  0  0  0  0  0  0
    8.0612   -0.5325   22.6049 C   0  0  0  0  0  0  0  0  0  0  0  0
    9.5383   -0.8686   22.5815 C   0  0  0  0  0  0  0  0  0  0  0  0
   10.1688   -1.2296   21.3979 C   0  0  0  0  0  0  0  0  0  0  0  0
   11.5079   -1.5836   21.3797 C   0  0  0  0  0  0  0  0  0  0  0  0
   12.2499   -1.5834   22.5563 C   0  0  0  0  0  0  0  0  0  0  0  0
   13.7044   -1.9133   22.7858 C   0  0  0  0  0  0  0  0  0  0  0  0
   13.8674   -1.8903   24.3081 C   0  0  0  0  0  0  0  0  0  0  0  0
   12.5921   -1.2840   24.8465 C   0  0  0  0  0  0  0  0  0  0  0  0
   12.3632   -1.0306   26.0154 O   0  0  0  0  0  0  0  0  0  0  0  0
   11.6268   -1.2240   23.7418 C   0  0  0  0  0  0  0  0  0  0  0  0
   10.2796   -0.8682   23.7579 C   0  0  0  0  0  0  0  0  0  0  0  0
    5.8507    0.2194   18.2141 C   0  0  0  0  0  0  0  0  0  0  0  0
    5.5778    0.9060   17.3429 N   0  0  0  0  0  0  0  0  0  0  0  0
  1  2  1  0
  2  3  1  0
  3  4  1  0
  4  5  2  0
  5  6  1  0
  6  7  2  0
  7  8  1  0
  8  9  2  0
  9 10  1  0
 10 11  1  0
 11 12  2  0
 12 13  1  0
 13 14  2  0
 14 15  1  0
 15 16  1  0
 16 17  1  0
 17 18  2  0
 17 19  1  0
 19 20  2  0
  7 21  1  0
 21 22  3  0
  9  4  1  0
 20 11  1  0
 19 14  1  0
M  END
