CVD-0002326|dock_bobby27042020.77|mol2|38|dock2
     RDKit          3D

 32 35  0  0  0  0  0  0  0  0999 V2000
    9.3476   -6.2770   26.2653 C   0  0  0  0  0  0  0  0  0  0  0  0
    9.0061   -4.8625   26.6319 C   0  0  0  0  0  0  0  0  0  0  0  0
    9.0312   -4.4865   27.7985 O   0  0  0  0  0  0  0  0  0  0  0  0
    8.6786   -4.0001   25.6379 N   0  0  0  0  0  0  0  0  0  0  0  0
    8.6121   -4.3120   24.2069 C   0  0  0  0  0  0  0  0  0  0  0  0
    9.3130   -3.2516   23.3980 C   0  0  0  0  0  0  0  0  0  0  0  0
    8.7420   -1.9223   23.6707 N   0  0  0  0  0  0  0  0  0  0  0  0
    8.9178   -1.6442   25.0968 C   0  0  0  0  0  0  0  0  0  0  0  0
    8.1846   -2.6585   25.9418 C   0  0  0  0  0  0  0  0  0  0  0  0
    9.3842   -0.8941   22.8554 C   0  0  0  0  0  0  0  0  0  0  0  0
    8.6605   -0.8033   21.5001 C   0  0  0  0  0  0  0  0  0  0  0  0
    8.4285   -1.8605   20.9452 O   0  0  0  0  0  0  0  0  0  0  0  0
    8.2991    0.3961   20.9263 N   0  0  0  0  0  0  0  0  0  0  0  0
    7.5994    0.3827   19.5990 C   0  0  0  0  0  0  0  0  0  0  0  0
    6.0784    0.3434   19.7604 C   0  0  0  0  0  0  0  0  0  0  0  0
    5.4917   -0.9627   18.6383 S   0  0  0  0  0  0  0  0  0  0  0  0
    4.8092   -0.4031   17.5039 O   0  0  0  0  0  0  0  0  0  0  0  0
    4.8156   -2.0078   19.3568 O   0  0  0  0  0  0  0  0  0  0  0  0
    7.0925   -1.4874   18.1459 C   0  0  0  0  0  0  0  0  0  0  0  0
    8.0399   -0.7133   18.6890 C   0  0  0  0  0  0  0  0  0  0  0  0
    8.5567    1.6864   21.4985 C   0  0  0  0  0  0  0  0  0  0  0  0
    7.5142    2.5951   21.6361 C   0  0  0  0  0  0  0  0  0  0  0  0
    7.7315    3.8567   22.1605 C   0  0  0  0  0  0  0  0  0  0  0  0
    8.9998    4.1916   22.5453 C   0  0  0  0  0  0  0  0  0  0  0  0
    9.2225    5.4356   23.0488 F   0  0  0  0  0  0  0  0  0  0  0  0
   10.0533    3.3258   22.4456 C   0  0  0  0  0  0  0  0  0  0  0  0
    9.8235    2.0615   21.9324 C   0  0  0  0  0  0  0  0  0  0  0  0
   10.8638   -1.1543   22.7002 C   0  0  0  0  0  0  0  0  0  0  0  0
   11.8747   -0.6916   23.5926 C   0  0  0  0  0  0  0  0  0  0  0  0
   13.1413   -1.0441   23.2354 C   0  0  0  0  0  0  0  0  0  0  0  0
   13.1074   -1.9480   21.7981 S   0  0  0  0  0  0  0  0  0  0  0  0
   11.4151   -1.8546   21.6673 C   0  0  0  0  0  0  0  0  0  0  0  0
  1  2  1  0
  2  3  2  0
  2  4  1  0
  4  5  1  0
  5  6  1  0
  6  7  1  0
  7  8  1  0
  8  9  1  0
  7 10  1  0
 10 11  1  0
 11 12  2  0
 11 13  1  0
 13 14  1  0
 14 15  1  0
 15 16  1  0
 16 17  2  0
 16 18  2  0
 16 19  1  0
 19 20  2  0
 13 21  1  0
 21 22  2  0
 22 23  1  0
 23 24  2  0
 24 25  1  0
 24 26  1  0
 26 27  2  0
 10 28  1  0
 28 29  1  0
 29 30  2  0
 30 31  1  0
 31 32  1  0
  9  4  1  0
 20 14  1  0
 27 21  1  0
 32 28  2  0
M  END
