CVD-0001408|dock_bobby27042020.95|mol2|24|dock1
     RDKit          3D

 19 20  0  0  0  0  0  0  0  0999 V2000
    6.9834   -2.3683   20.7174 F   0  0  0  0  0  0  0  0  0  0  0  0
    6.6916   -1.3928   19.8268 C   0  0  0  0  0  0  0  0  0  0  0  0
    5.7806   -1.6552   18.8327 C   0  0  0  0  0  0  0  0  0  0  0  0
    5.4901   -0.6500   17.9258 C   0  0  0  0  0  0  0  0  0  0  0  0
    6.1042    0.5813   18.0242 C   0  0  0  0  0  0  0  0  0  0  0  0
    7.0223    0.8388   19.0299 C   0  0  0  0  0  0  0  0  0  0  0  0
    7.3175   -0.1626   19.9430 C   0  0  0  0  0  0  0  0  0  0  0  0
    8.4968    0.1853   21.2183 S   0  0  0  0  0  0  0  0  0  0  0  0
    7.7997    0.1662   22.4679 O   0  0  0  0  0  0  0  0  0  0  0  0
    9.2188    1.3580   20.8299 O   0  0  0  0  0  0  0  0  0  0  0  0
    9.5561   -1.0274   21.2538 N   0  0  0  0  0  0  0  0  0  0  0  0
    9.6539   -1.8823   22.4429 C   0  0  0  0  0  0  0  0  0  0  0  0
   10.3051   -1.1315   23.5904 C   0  0  0  0  0  0  0  0  0  0  0  0
   11.7115   -0.6846   23.2724 C   0  0  0  0  0  0  0  0  0  0  0  0
   12.0161    0.6542   23.0877 C   0  0  0  0  0  0  0  0  0  0  0  0
   13.3176    1.0162   22.8016 C   0  0  0  0  0  0  0  0  0  0  0  0
   14.3206    0.1447   22.6896 N   0  0  0  0  0  0  0  0  0  0  0  0
   14.0189   -1.1414   22.8704 C   0  0  0  0  0  0  0  0  0  0  0  0
   12.7477   -1.5971   23.1595 C   0  0  0  0  0  0  0  0  0  0  0  0
  1  2  1  0
  2  3  2  0
  3  4  1  0
  4  5  2  0
  5  6  1  0
  6  7  2  0
  7  8  1  0
  8  9  2  0
  8 10  2  0
  8 11  1  0
 11 12  1  0
 12 13  1  0
 13 14  1  0
 14 15  2  0
 15 16  1  0
 16 17  2  0
 17 18  1  0
 18 19  2  0
  7  2  1  0
 19 14  1  0
M  END
