CVD-0001380|dock_bobby27042020.95|mol2|30|dock2
     RDKit          3D

 53 57  0  0  0  0  0  0  0  0999 V2000
    6.1180   10.2009   23.6751 C   0  0  0  0  0  0  0  0  0  0  0  0
    6.7516    9.1131   24.5188 C   0  0  0  0  0  0  0  0  0  0  0  0
    7.7283    9.6980   25.5191 C   0  0  0  0  0  0  0  0  0  0  0  0
    5.6805    8.3188   25.2374 C   0  0  0  0  0  0  0  0  0  0  0  0
    7.4769    8.1751   23.6297 O   0  0  0  0  0  0  0  0  0  0  0  0
    8.2140    7.1480   24.0894 C   0  0  0  0  0  0  0  0  0  0  0  0
    8.3750    6.8525   25.2538 O   0  0  0  0  0  0  0  0  0  0  0  0
    8.7474    6.4997   22.9993 N   0  0  0  0  0  0  0  0  0  0  0  0
    9.5875    5.3628   23.0213 C   0  0  0  0  0  0  0  0  0  0  0  0
   10.8685    5.2465   23.4862 C   0  0  0  0  0  0  0  0  0  0  0  0
   11.5611    4.0175   23.4252 C   0  0  0  0  0  0  0  0  0  0  0  0
   10.9861    2.8893   22.9017 C   0  0  0  0  0  0  0  0  0  0  0  0
    9.6912    3.0009   22.4320 N   0  0  0  0  0  0  0  0  0  0  0  0
    8.9365    4.1604   22.4493 C   0  0  0  0  0  0  0  0  0  0  0  0
    7.7874    4.1752   22.0106 O   0  0  0  0  0  0  0  0  0  0  0  0
   11.6722    1.5835   22.8183 C   0  0  0  0  0  0  0  0  0  0  0  0
   12.9451    1.4368   22.2670 C   0  0  0  0  0  0  0  0  0  0  0  0
   13.5501    0.1932   22.2014 C   0  0  0  0  0  0  0  0  0  0  0  0
   12.9019   -0.9242   22.6942 C   0  0  0  0  0  0  0  0  0  0  0  0
   11.6415   -0.8096   23.2547 C   0  0  0  0  0  0  0  0  0  0  0  0
   10.9234   -2.0214   23.7975 C   0  0  0  0  0  0  0  0  0  0  0  0
   10.2563   -2.8492   22.7017 C   0  0  0  0  0  0  0  0  0  0  0  0
    9.0378   -2.1705   22.1251 C   0  0  0  0  0  0  0  0  0  0  0  0
    8.7066   -1.0462   22.4877 O   0  0  0  0  0  0  0  0  0  0  0  0
    8.3728   -2.8816   21.2075 N   0  0  0  0  0  0  0  0  0  0  0  0
    7.1734   -2.4188   20.5199 C   0  0  0  0  0  0  0  0  0  0  0  0
    7.5110   -1.4588   19.3764 C   0  0  0  0  0  0  0  0  0  0  0  0
    6.7805   -0.1122   19.4507 C   0  0  0  0  0  0  0  0  0  0  0  0
    5.2452   -0.2157   19.5464 C   0  0  0  0  0  0  0  0  0  0  0  0
    4.7060    0.8954   18.6550 C   0  0  0  0  0  0  0  0  0  0  0  0
    5.8386    1.2145   17.8069 N   0  0  0  0  0  0  0  0  0  0  0  0
    7.0124    0.7368   18.2281 C   0  0  0  0  0  0  0  0  0  0  0  0
    8.0947    0.9289   17.6805 O   0  0  0  0  0  0  0  0  0  0  0  0
    6.3317   -3.5918   20.0193 C   0  0  0  0  0  0  0  0  0  0  0  0
    5.5538   -3.4664   19.0890 O   0  0  0  0  0  0  0  0  0  0  0  0
    6.5509   -4.9187   20.7653 C   0  0  0  0  0  0  0  0  0  0  0  0
    7.3427   -5.6807   20.2221 O   0  0  0  0  0  0  0  0  0  0  0  0
    5.9341   -5.2377   21.9214 N   0  0  0  0  0  0  0  0  0  0  0  0
    6.0600   -6.5762   22.4744 C   0  0  0  0  0  0  0  0  0  0  0  0
    4.7116   -7.1540   22.7695 C   0  0  0  0  0  0  0  0  0  0  0  0
    3.9828   -6.2394   23.6598 N   0  0  0  0  0  0  0  0  0  0  0  0
    3.7957   -4.9157   23.0476 C   0  0  0  0  0  0  0  0  0  0  0  0
    5.1399   -4.3218   22.7461 C   0  0  0  0  0  0  0  0  0  0  0  0
    2.7571   -6.8684   24.5317 S   0  0  0  0  0  0  0  0  0  0  0  0
    3.2140   -8.1322   25.0202 O   0  0  0  0  0  0  0  0  0  0  0  0
    2.3526   -5.8524   25.4531 O   0  0  0  0  0  0  0  0  0  0  0  0
    1.4226   -7.1613   23.4230 C   0  0  0  0  0  0  0  0  0  0  0  0
    1.2667   -8.4160   22.8563 C   0  0  0  0  0  0  0  0  0  0  0  0
    0.2160   -8.6354   21.9812 C   0  0  0  0  0  0  0  0  0  0  0  0
   -0.6629   -7.6177   21.6769 C   0  0  0  0  0  0  0  0  0  0  0  0
   -0.4992   -6.3718   22.2438 C   0  0  0  0  0  0  0  0  0  0  0  0
    0.5452   -6.1325   23.1212 C   0  0  0  0  0  0  0  0  0  0  0  0
   11.0392    0.4412   23.3059 C   0  0  0  0  0  0  0  0  0  0  0  0
  1  2  1  0
  2  3  1  0
  2  4  1  0
  2  5  1  0
  5  6  1  0
  6  7  2  0
  6  8  1  0
  8  9  1  0
  9 10  2  0
 10 11  1  0
 11 12  2  0
 12 13  1  0
 13 14  1  0
 14 15  2  0
 12 16  1  0
 16 17  2  0
 17 18  1  0
 18 19  2  0
 19 20  1  0
 20 21  1  0
 21 22  1  0
 22 23  1  0
 23 24  2  0
 23 25  1  0
 25 26  1  0
 26 27  1  0
 28 27  1  0
 28 29  1  0
 29 30  1  0
 30 31  1  0
 31 32  1  0
 32 33  2  0
 26 34  1  0
 34 35  2  0
 34 36  1  0
 36 37  2  0
 36 38  1  0
 38 39  1  0
 39 40  1  0
 40 41  1  0
 41 42  1  0
 42 43  1  0
 41 44  1  0
 44 45  2  0
 44 46  2  0
 44 47  1  0
 47 48  2  0
 48 49  1  0
 49 50  2  0
 50 51  1  0
 51 52  2  0
 20 53  2  0
 14  9  1  0
 53 16  1  0
 32 28  1  0
 43 38  1  0
 52 47  1  0
M  END
