CVD-0003011|dock_bobby27042020.75|mol2|15|dock2
     RDKit          3D

 25 27  0  0  0  0  0  0  0  0999 V2000
   11.9672    6.6897   25.6574 N   0  0  0  0  0  0  0  0  0  0  0  0
   12.5624    6.5860   24.4697 C   0  0  0  0  0  0  0  0  0  0  0  0
   13.1158    7.5444   23.9134 O   0  0  0  0  0  0  0  0  0  0  0  0
   12.5343    5.3724   23.8931 N   0  0  0  0  0  0  0  0  0  0  0  0
   13.1407    5.1014   22.5976 C   0  0  0  0  0  0  0  0  0  0  0  0
   13.5253    3.6431   22.4475 C   0  0  0  0  0  0  0  0  0  0  0  0
   12.3390    2.7250   22.4052 C   0  0  0  0  0  0  0  0  0  0  0  0
   11.0226    3.0753   22.3289 C   0  0  0  0  0  0  0  0  0  0  0  0
   10.2303    1.9595   22.3114 N   0  0  0  0  0  0  0  0  0  0  0  0
   11.0381    0.8512   22.3772 C   0  0  0  0  0  0  0  0  0  0  0  0
   10.6958   -0.5035   22.3880 C   0  0  0  0  0  0  0  0  0  0  0  0
    9.2554   -0.9611   22.3257 C   0  0  0  0  0  0  0  0  0  0  0  0
    8.8138   -1.3275   20.9148 C   0  0  0  0  0  0  0  0  0  0  0  0
    7.5986   -0.6306   20.4737 N   0  0  0  0  0  0  0  0  0  0  0  0
    7.4102   -0.5104   19.0120 C   0  0  0  0  0  0  0  0  0  0  0  0
    6.7899    0.8134   18.5907 C   0  0  0  0  0  0  0  0  0  0  0  0
    5.2530    0.8159   18.4969 C   0  0  0  0  0  0  0  0  0  0  0  0
    4.6817    0.0038   19.5281 O   0  0  0  0  0  0  0  0  0  0  0  0
    5.2432    0.1532   20.8279 C   0  0  0  0  0  0  0  0  0  0  0  0
    6.3053   -0.8766   21.1290 C   0  0  0  0  0  0  0  0  0  0  0  0
   11.7254   -1.4345   22.4634 C   0  0  0  0  0  0  0  0  0  0  0  0
   13.0257   -0.9894   22.5218 C   0  0  0  0  0  0  0  0  0  0  0  0
   14.0151   -1.9203   22.5943 F   0  0  0  0  0  0  0  0  0  0  0  0
   13.3886    0.3376   22.5118 C   0  0  0  0  0  0  0  0  0  0  0  0
   12.3730    1.2905   22.4378 C   0  0  0  0  0  0  0  0  0  0  0  0
  1  2  1  0
  2  3  2  0
  2  4  1  0
  4  5  1  0
  5  6  1  0
  6  7  1  0
  7  8  2  0
  8  9  1  0
  9 10  1  0
 10 11  2  0
 11 12  1  0
 12 13  1  0
 13 14  1  0
 14 15  1  0
 15 16  1  0
 16 17  1  0
 17 18  1  0
 18 19  1  0
 19 20  1  0
 11 21  1  0
 21 22  2  0
 22 23  1  0
 22 24  1  0
 24 25  2  0
 25  7  1  0
 25 10  1  0
 20 14  1  0
M  END
