CVD-0000624|dock_bobby27042020.83|mol2|44|dock3
     RDKit          3D

 26 28  0  0  0  0  0  0  0  0999 V2000
   10.3203   -6.2205   25.9113 N   0  0  0  0  0  0  0  0  0  0  0  0
    8.9432   -5.5735   25.4136 S   0  0  0  0  0  0  0  0  0  0  0  0
    8.7566   -5.9712   24.0505 O   0  0  0  0  0  0  0  0  0  0  0  0
    7.9412   -5.9168   26.3776 O   0  0  0  0  0  0  0  0  0  0  0  0
    9.1122   -3.8144   25.4317 C   0  0  0  0  0  0  0  0  0  0  0  0
    8.2741   -3.0553   26.2287 C   0  0  0  0  0  0  0  0  0  0  0  0
    8.4256   -1.6810   26.2281 C   0  0  0  0  0  0  0  0  0  0  0  0
    9.3963   -1.0836   25.4422 C   0  0  0  0  0  0  0  0  0  0  0  0
   10.2359   -1.8374   24.6236 C   0  0  0  0  0  0  0  0  0  0  0  0
   10.0809   -3.2207   24.6366 C   0  0  0  0  0  0  0  0  0  0  0  0
   11.3186   -1.2444   23.7086 C   0  0  0  0  0  0  0  0  0  0  0  0
   10.7378   -1.6165   22.3167 C   0  0  0  0  0  0  0  0  0  0  0  0
    9.3337   -1.1622   21.9652 C   0  0  0  0  0  0  0  0  0  0  0  0
    8.5590   -0.7098   22.8005 O   0  0  0  0  0  0  0  0  0  0  0  0
    9.0506   -1.3117   20.6480 N   0  0  0  0  0  0  0  0  0  0  0  0
    7.8837   -1.0219   19.8974 C   0  0  0  0  0  0  0  0  0  0  0  0
    6.6785   -0.8614   20.5687 C   0  0  0  0  0  0  0  0  0  0  0  0
    5.5279   -0.5783   19.8542 C   0  0  0  0  0  0  0  0  0  0  0  0
    5.6143   -0.4633   18.4863 C   0  0  0  0  0  0  0  0  0  0  0  0
    6.7548   -0.6115   17.8125 N   0  0  0  0  0  0  0  0  0  0  0  0
    7.8611   -0.8848   18.5111 C   0  0  0  0  0  0  0  0  0  0  0  0
   11.4631    0.2746   23.7924 C   0  0  0  0  0  0  0  0  0  0  0  0
   12.5188    0.7815   22.8259 C   0  0  0  0  0  0  0  0  0  0  0  0
   13.8517    0.0960   23.0456 C   0  0  0  0  0  0  0  0  0  0  0  0
   13.7126   -1.4145   22.9520 C   0  0  0  0  0  0  0  0  0  0  0  0
   12.6622   -1.9342   23.9213 C   0  0  0  0  0  0  0  0  0  0  0  0
  1  2  1  0
  2  3  2  0
  2  4  2  0
  2  5  1  0
  5  6  2  0
  6  7  1  0
  7  8  2  0
  8  9  1  0
  9 10  2  0
  9 11  1  0
 11 12  1  0
 12 13  1  0
 13 14  2  0
 13 15  1  0
 15 16  1  0
 16 17  2  0
 17 18  1  0
 18 19  2  0
 19 20  1  0
 20 21  2  0
 11 22  1  0
 22 23  1  0
 23 24  1  0
 24 25  1  0
 25 26  1  0
 10  5  1  0
 26 11  1  0
 21 16  1  0
M  END
