CVD-0000916|dock_bobby27042020.68|mol2|41|dock1
     RDKit          3D

 34 38  0  0  0  0  0  0  0  0999 V2000
   12.8331    3.8429   22.8940 F   0  0  0  0  0  0  0  0  0  0  0  0
   11.6796    3.1394   22.7352 C   0  0  0  0  0  0  0  0  0  0  0  0
   10.5063    3.8304   22.5869 C   0  0  0  0  0  0  0  0  0  0  0  0
    9.3395    3.1086   22.4045 C   0  0  0  0  0  0  0  0  0  0  0  0
    9.3634    1.7163   22.3735 C   0  0  0  0  0  0  0  0  0  0  0  0
    8.1187    0.8840   22.2072 C   0  0  0  0  0  0  0  0  0  0  0  0
    7.9811    0.3764   20.7581 C   0  0  0  0  0  0  0  0  0  0  0  0
    7.4936   -1.0601   20.6473 C   0  0  0  0  0  0  0  0  0  0  0  0
    6.8941   -1.2481   18.9659 S   0  0  0  0  0  0  0  0  0  0  0  0
    7.9063   -1.8438   18.1360 O   0  0  0  0  0  0  0  0  0  0  0  0
    5.5938   -1.8620   18.9641 O   0  0  0  0  0  0  0  0  0  0  0  0
    6.7737    0.5066   18.5999 C   0  0  0  0  0  0  0  0  0  0  0  0
    7.0438    1.2357   19.8988 C   0  0  0  0  0  0  0  0  0  0  0  0
    5.7938    1.6986   20.5353 N   0  0  0  0  0  0  0  0  0  0  0  0
    5.5250    3.1015   20.9043 C   0  0  0  0  0  0  0  0  0  0  0  0
    4.1208    3.0947   21.4581 C   0  0  0  0  0  0  0  0  0  0  0  0
    3.6749    1.6641   21.4992 C   0  0  0  0  0  0  0  0  0  0  0  0
    4.7938    0.8927   20.8642 C   0  0  0  0  0  0  0  0  0  0  0  0
    4.8030   -0.3164   20.6704 O   0  0  0  0  0  0  0  0  0  0  0  0
    8.1222   -0.2355   23.1702 N   0  0  0  0  0  0  0  0  0  0  0  0
    9.3853   -0.9705   23.3546 C   0  0  0  0  0  0  0  0  0  0  0  0
   10.4970   -0.4546   22.4612 C   0  0  0  0  0  0  0  0  0  0  0  0
   11.8159   -1.1000   22.8649 C   0  0  0  0  0  0  0  0  0  0  0  0
   12.3697   -0.8610   24.1150 C   0  0  0  0  0  0  0  0  0  0  0  0
   13.5680   -1.4501   24.4824 C   0  0  0  0  0  0  0  0  0  0  0  0
   14.2267   -2.2852   23.6054 C   0  0  0  0  0  0  0  0  0  0  0  0
   13.6878   -2.5321   22.3610 C   0  0  0  0  0  0  0  0  0  0  0  0
   12.4895   -1.9435   21.9927 C   0  0  0  0  0  0  0  0  0  0  0  0
   10.5750    1.0476   22.5277 C   0  0  0  0  0  0  0  0  0  0  0  0
   11.7537    1.7669   22.7117 C   0  0  0  0  0  0  0  0  0  0  0  0
    6.9706   -0.5005   23.8288 C   0  0  0  0  0  0  0  0  0  0  0  0
    5.9403    0.1375   23.6507 O   0  0  0  0  0  0  0  0  0  0  0  0
    7.0117   -1.6497   24.8168 C   0  0  0  0  0  0  0  0  0  0  0  0
    5.4593   -1.8363   25.6430 Cl  0  0  0  0  0  0  0  0  0  0  0  0
  1  2  1  0
  2  3  2  0
  3  4  1  0
  4  5  2  0
  5  6  1  0
  6  7  1  0
  7  8  1  0
  8  9  1  0
  9 10  2  0
  9 11  2  0
  9 12  1  0
 12 13  1  0
 13 14  1  0
 14 15  1  0
 15 16  1  0
 16 17  1  0
 17 18  1  0
 18 19  2  0
  6 20  1  0
 20 21  1  0
 21 22  1  0
 22 23  1  0
 23 24  2  0
 24 25  1  0
 25 26  2  0
 26 27  1  0
 27 28  2  0
 22 29  1  0
 29 30  2  0
 20 31  1  0
 31 32  2  0
 31 33  1  0
 33 34  1  0
 30  2  1  0
 29  5  1  0
 13  7  1  0
 18 14  1  0
 28 23  1  0
M  END
