CVD-0001367|dock_bobby27042020.81|mol2|20|dock3
     RDKit          3D

 52 56  0  0  0  0  0  0  0  0999 V2000
    3.6791   -8.9088   34.0621 C   0  0  0  0  0  0  0  0  0  0  0  0
    5.0319   -8.6533   33.4302 C   0  0  0  0  0  0  0  0  0  0  0  0
    5.8377   -9.9360   33.3837 C   0  0  0  0  0  0  0  0  0  0  0  0
    5.7701   -7.5727   34.1944 C   0  0  0  0  0  0  0  0  0  0  0  0
    4.7921   -8.1848   32.0447 O   0  0  0  0  0  0  0  0  0  0  0  0
    5.7840   -7.9429   31.1688 C   0  0  0  0  0  0  0  0  0  0  0  0
    6.9509   -8.2350   31.3162 O   0  0  0  0  0  0  0  0  0  0  0  0
    5.2308   -7.3061   30.0817 N   0  0  0  0  0  0  0  0  0  0  0  0
    5.9128   -6.8675   28.9235 C   0  0  0  0  0  0  0  0  0  0  0  0
    5.6512   -7.1487   27.6108 C   0  0  0  0  0  0  0  0  0  0  0  0
    6.4494   -6.6163   26.5750 C   0  0  0  0  0  0  0  0  0  0  0  0
    7.5169   -5.7973   26.8333 C   0  0  0  0  0  0  0  0  0  0  0  0
    7.7847   -5.5081   28.1579 N   0  0  0  0  0  0  0  0  0  0  0  0
    7.0602   -5.9831   29.2368 C   0  0  0  0  0  0  0  0  0  0  0  0
    7.3647   -5.6770   30.3886 O   0  0  0  0  0  0  0  0  0  0  0  0
    8.3738   -5.2219   25.7763 C   0  0  0  0  0  0  0  0  0  0  0  0
    9.7575   -5.1988   25.9396 C   0  0  0  0  0  0  0  0  0  0  0  0
   10.5808   -4.6650   24.9631 C   0  0  0  0  0  0  0  0  0  0  0  0
   10.0372   -4.1499   23.8009 C   0  0  0  0  0  0  0  0  0  0  0  0
    8.6665   -4.1596   23.6085 C   0  0  0  0  0  0  0  0  0  0  0  0
    8.0621   -3.5976   22.3417 C   0  0  0  0  0  0  0  0  0  0  0  0
    8.6719   -2.2654   21.9530 C   0  0  0  0  0  0  0  0  0  0  0  0
    9.6651   -2.2286   21.2334 O   0  0  0  0  0  0  0  0  0  0  0  0
    8.0343   -1.2025   22.4652 N   0  0  0  0  0  0  0  0  0  0  0  0
    8.3795    0.2055   22.2795 C   0  0  0  0  0  0  0  0  0  0  0  0
    7.1860    1.0342   21.7796 C   0  0  0  0  0  0  0  0  0  0  0  0
    6.2718    0.4925   20.6649 C   0  0  0  0  0  0  0  0  0  0  0  0
    6.9656    0.2901   19.3030 C   0  0  0  0  0  0  0  0  0  0  0  0
    5.9584    0.7561   18.2599 C   0  0  0  0  0  0  0  0  0  0  0  0
    5.0403    1.5720   19.0316 N   0  0  0  0  0  0  0  0  0  0  0  0
    5.1280    1.4228   20.3557 C   0  0  0  0  0  0  0  0  0  0  0  0
    4.4153    1.9861   21.1824 O   0  0  0  0  0  0  0  0  0  0  0  0
    9.0878    0.8476   23.4748 C   0  0  0  0  0  0  0  0  0  0  0  0
    9.6933    0.1571   24.2755 O   0  0  0  0  0  0  0  0  0  0  0  0
    8.9740    2.3776   23.6141 C   0  0  0  0  0  0  0  0  0  0  0  0
    7.9522    2.7803   24.1582 O   0  0  0  0  0  0  0  0  0  0  0  0
    9.9217    3.2330   23.1782 N   0  0  0  0  0  0  0  0  0  0  0  0
    9.7376    4.6676   23.3244 C   0  0  0  0  0  0  0  0  0  0  0  0
   10.9222    5.2854   23.9983 C   0  0  0  0  0  0  0  0  0  0  0  0
   12.1356    4.9441   23.2422 N   0  0  0  0  0  0  0  0  0  0  0  0
   12.3463    3.4904   23.1760 C   0  0  0  0  0  0  0  0  0  0  0  0
   11.1665    2.8554   22.5015 C   0  0  0  0  0  0  0  0  0  0  0  0
   13.4360    5.9054   23.4482 S   0  0  0  0  0  0  0  0  0  0  0  0
   14.5366    5.0411   23.7426 O   0  0  0  0  0  0  0  0  0  0  0  0
   13.4901    6.7642   22.3060 O   0  0  0  0  0  0  0  0  0  0  0  0
   13.1294    6.9012   24.8659 C   0  0  0  0  0  0  0  0  0  0  0  0
   12.9447    6.2974   26.0991 C   0  0  0  0  0  0  0  0  0  0  0  0
   12.7008    7.0895   27.2086 C   0  0  0  0  0  0  0  0  0  0  0  0
   12.6416    8.4615   27.0871 C   0  0  0  0  0  0  0  0  0  0  0  0
   12.8252    9.0540   25.8560 C   0  0  0  0  0  0  0  0  0  0  0  0
   13.0703    8.2791   24.7346 C   0  0  0  0  0  0  0  0  0  0  0  0
    7.8479   -4.6880   24.5990 C   0  0  0  0  0  0  0  0  0  0  0  0
  1  2  1  0
  2  3  1  0
  2  4  1  0
  2  5  1  0
  5  6  1  0
  6  7  2  0
  6  8  1  0
  8  9  1  0
  9 10  2  0
 10 11  1  0
 11 12  2  0
 12 13  1  0
 13 14  1  0
 14 15  2  0
 12 16  1  0
 16 17  2  0
 17 18  1  0
 18 19  2  0
 19 20  1  0
 20 21  1  0
 21 22  1  0
 22 23  2  0
 22 24  1  0
 24 25  1  0
 25 26  1  0
 27 26  1  0
 27 28  1  0
 28 29  1  0
 29 30  1  0
 30 31  1  0
 31 32  2  0
 25 33  1  0
 33 34  2  0
 33 35  1  0
 35 36  2  0
 35 37  1  0
 37 38  1  0
 38 39  1  0
 39 40  1  0
 40 41  1  0
 41 42  1  0
 40 43  1  0
 43 44  2  0
 43 45  2  0
 43 46  1  0
 46 47  2  0
 47 48  1  0
 48 49  2  0
 49 50  1  0
 50 51  2  0
 20 52  2  0
 14  9  1  0
 52 16  1  0
 31 27  1  0
 42 37  1  0
 51 46  1  0
M  END
