CVD-0003543|dock_bobby27042020.59|mol2|27|dock3
     RDKit          3D

 18 18  0  0  0  0  0  0  0  0999 V2000
   14.4075    6.2091   21.5394 C   0  0  0  0  0  0  0  0  0  0  0  0
   13.6364    5.3532   22.4224 N   0  0  0  0  0  0  0  0  0  0  0  0
   12.7205    4.4946   21.9452 C   0  0  0  0  0  0  0  0  0  0  0  0
   12.4804    4.3806   20.7461 O   0  0  0  0  0  0  0  0  0  0  0  0
   12.0602    3.7402   22.9093 N   0  0  0  0  0  0  0  0  0  0  0  0
   10.8990    2.6286   22.5243 S   0  0  0  0  0  0  0  0  0  0  0  0
    9.9401    2.6832   23.5799 O   0  0  0  0  0  0  0  0  0  0  0  0
   10.5135    2.9164   21.1807 O   0  0  0  0  0  0  0  0  0  0  0  0
   11.5763    1.1587   22.5436 N   0  0  0  0  0  0  0  0  0  0  0  0
   10.6852    0.0118   22.7690 C   0  0  0  0  0  0  0  0  0  0  0  0
   11.3435   -1.2271   22.2487 C   0  0  0  0  0  0  0  0  0  0  0  0
   12.6518   -1.4062   22.8565 N   0  0  0  0  0  0  0  0  0  0  0  0
   13.5377   -0.2455   22.7225 C   0  0  0  0  0  0  0  0  0  0  0  0
   12.8640    0.9932   23.2342 C   0  0  0  0  0  0  0  0  0  0  0  0
   12.9748   -2.5776   23.4441 C   0  0  0  0  0  0  0  0  0  0  0  0
   12.1867   -3.5136   23.4913 O   0  0  0  0  0  0  0  0  0  0  0  0
   14.3644   -2.6930   24.0415 C   0  0  0  0  0  0  0  0  0  0  0  0
   14.5976   -1.6286   25.4344 Cl  0  0  0  0  0  0  0  0  0  0  0  0
  1  2  1  0
  2  3  1  0
  3  4  2  0
  3  5  1  0
  5  6  1  0
  6  7  2  0
  6  8  2  0
  6  9  1  0
  9 10  1  0
 10 11  1  0
 11 12  1  0
 12 13  1  0
 13 14  1  0
 12 15  1  0
 15 16  2  0
 15 17  1  0
 17 18  1  0
 14  9  1  0
M  END
