CVD-0003538|dock_bobby27042020.1|mol2|40|dock3
     RDKit          3D

 20 21  0  0  0  0  0  0  0  0999 V2000
    6.0274    0.5850   22.7579 O   0  0  0  0  0  0  0  0  0  0  0  0
    6.1263    0.6383   21.4043 C   0  0  0  0  0  0  0  0  0  0  0  0
    5.0155    0.9265   20.6239 C   0  0  0  0  0  0  0  0  0  0  0  0
    5.1466    0.9740   19.2479 C   0  0  0  0  0  0  0  0  0  0  0  0
    6.3717    0.7361   18.6614 C   0  0  0  0  0  0  0  0  0  0  0  0
    7.4901    0.4467   19.4288 C   0  0  0  0  0  0  0  0  0  0  0  0
    7.3742    0.3959   20.8194 C   0  0  0  0  0  0  0  0  0  0  0  0
    8.4191    0.1155   21.7380 N   0  0  0  0  0  0  0  0  0  0  0  0
    9.5181   -0.6961   21.5914 C   0  0  0  0  0  0  0  0  0  0  0  0
    9.7692   -1.2913   20.5515 O   0  0  0  0  0  0  0  0  0  0  0  0
   10.3748   -0.8494   22.6464 N   0  0  0  0  0  0  0  0  0  0  0  0
   10.4908    0.0583   23.7862 C   0  0  0  0  0  0  0  0  0  0  0  0
   11.9313    0.4839   23.9731 C   0  0  0  0  0  0  0  0  0  0  0  0
   12.7924   -0.6914   24.0844 N   0  0  0  0  0  0  0  0  0  0  0  0
   12.6763   -1.5992   22.9445 C   0  0  0  0  0  0  0  0  0  0  0  0
   11.2357   -2.0248   22.7576 C   0  0  0  0  0  0  0  0  0  0  0  0
   13.6382   -0.8428   25.1262 C   0  0  0  0  0  0  0  0  0  0  0  0
   13.7203    0.0016   26.0091 O   0  0  0  0  0  0  0  0  0  0  0  0
   14.4921   -2.0957   25.1613 C   0  0  0  0  0  0  0  0  0  0  0  0
   13.4992   -3.5402   25.3957 Cl  0  0  0  0  0  0  0  0  0  0  0  0
  1  2  1  0
  2  3  2  0
  3  4  1  0
  4  5  2  0
  5  6  1  0
  6  7  2  0
  7  8  1  0
  8  9  1  0
  9 10  2  0
  9 11  1  0
 11 12  1  0
 12 13  1  0
 13 14  1  0
 14 15  1  0
 15 16  1  0
 14 17  1  0
 17 18  2  0
 17 19  1  0
 19 20  1  0
  7  2  1  0
 16 11  1  0
M  END
