CVD-0003476|dock_bobby27042020.2|mol2|3|dock3
     RDKit          3D

 34 37  0  0  0  0  0  0  0  0999 V2000
    8.8927   -0.9162   20.0299 O   0  0  0  0  0  0  0  0  0  0  0  0
    9.2871   -1.3040   21.1225 C   0  0  0  0  0  0  0  0  0  0  0  0
   10.7811   -1.4692   21.3968 C   0  0  0  0  0  0  0  0  0  0  0  0
   11.2405   -0.5113   22.4034 N   0  0  0  0  0  0  0  0  0  0  0  0
   10.7493    0.7883   22.2522 C   0  0  0  0  0  0  0  0  0  0  0  0
    9.8829    0.9660   21.4057 O   0  0  0  0  0  0  0  0  0  0  0  0
   11.2531    1.8036   23.0288 N   0  0  0  0  0  0  0  0  0  0  0  0
   10.9355    3.1869   23.0548 C   0  0  0  0  0  0  0  0  0  0  0  0
    9.6969    3.7188   22.6979 C   0  0  0  0  0  0  0  0  0  0  0  0
    9.4842    5.0868   22.7476 C   0  0  0  0  0  0  0  0  0  0  0  0
   10.4870    5.9383   23.1552 C   0  0  0  0  0  0  0  0  0  0  0  0
   11.7117    5.4238   23.5169 C   0  0  0  0  0  0  0  0  0  0  0  0
   11.9369    4.0587   23.4683 C   0  0  0  0  0  0  0  0  0  0  0  0
   12.0930   -1.0122   23.4507 C   0  0  0  0  0  0  0  0  0  0  0  0
   13.2095   -1.7935   23.1823 C   0  0  0  0  0  0  0  0  0  0  0  0
   14.0015   -2.2373   24.2265 C   0  0  0  0  0  0  0  0  0  0  0  0
   13.6554   -1.8843   25.5098 C   0  0  0  0  0  0  0  0  0  0  0  0
   12.5917   -1.1339   25.7965 N   0  0  0  0  0  0  0  0  0  0  0  0
   11.8334   -0.7138   24.7791 C   0  0  0  0  0  0  0  0  0  0  0  0
    8.4417   -1.5979   22.1307 N   0  0  0  0  0  0  0  0  0  0  0  0
    7.0075   -1.4391   21.9547 C   0  0  0  0  0  0  0  0  0  0  0  0
    6.2877   -2.6959   22.3304 C   0  0  0  0  0  0  0  0  0  0  0  0
    6.6522   -3.0642   23.7057 N   0  0  0  0  0  0  0  0  0  0  0  0
    8.0972   -3.2993   23.8429 C   0  0  0  0  0  0  0  0  0  0  0  0
    8.8341   -2.0469   23.4703 C   0  0  0  0  0  0  0  0  0  0  0  0
    5.6293   -4.0467   24.5095 S   0  0  0  0  0  0  0  0  0  0  0  0
    5.6840   -5.3149   23.8513 O   0  0  0  0  0  0  0  0  0  0  0  0
    4.3861   -3.3466   24.6052 O   0  0  0  0  0  0  0  0  0  0  0  0
    6.2695   -4.2474   26.1360 C   0  0  0  0  0  0  0  0  0  0  0  0
    6.7018   -3.1371   26.8429 C   0  0  0  0  0  0  0  0  0  0  0  0
    7.1997   -3.3049   28.1244 C   0  0  0  0  0  0  0  0  0  0  0  0
    7.2630   -4.5606   28.6897 C   0  0  0  0  0  0  0  0  0  0  0  0
    6.8288   -5.6598   27.9797 C   0  0  0  0  0  0  0  0  0  0  0  0
    6.3276   -5.5128   26.6971 C   0  0  0  0  0  0  0  0  0  0  0  0
  1  2  2  0
  2  3  1  0
  3  4  1  0
  4  5  1  0
  5  6  2  0
  5  7  1  0
  7  8  1  0
  8  9  2  0
  9 10  1  0
 10 11  2  0
 11 12  1  0
 12 13  2  0
  4 14  1  0
 14 15  2  0
 15 16  1  0
 16 17  2  0
 17 18  1  0
 18 19  2  0
  2 20  1  0
 20 21  1  0
 21 22  1  0
 22 23  1  0
 23 24  1  0
 24 25  1  0
 23 26  1  0
 26 27  2  0
 26 28  2  0
 26 29  1  0
 29 30  2  0
 30 31  1  0
 31 32  2  0
 32 33  1  0
 33 34  2  0
 13  8  1  0
 19 14  1  0
 25 20  1  0
 34 29  1  0
M  END
