CVD-0000834|dock_bobby27042020.83|mol2|13|dock2
     RDKit          3D

 22 23  0  0  0  0  0  0  0  0999 V2000
    6.4717   -2.5989   19.7499 C   0  0  0  0  0  0  0  0  0  0  0  0
    6.8377   -3.4892   20.8959 C   0  0  0  0  0  0  0  0  0  0  0  0
    8.2405   -3.3501   21.2510 N   0  0  0  0  0  0  0  0  0  0  0  0
    8.7565   -3.6865   22.4836 C   0  0  0  0  0  0  0  0  0  0  0  0
    8.1364   -4.6627   23.2657 C   0  0  0  0  0  0  0  0  0  0  0  0
    8.6631   -5.0160   24.4949 C   0  0  0  0  0  0  0  0  0  0  0  0
    9.8153   -4.4017   24.9667 C   0  0  0  0  0  0  0  0  0  0  0  0
   10.4321   -3.4217   24.1967 C   0  0  0  0  0  0  0  0  0  0  0  0
    9.9151   -3.0471   22.9609 C   0  0  0  0  0  0  0  0  0  0  0  0
   10.6231   -1.9607   22.1822 C   0  0  0  0  0  0  0  0  0  0  0  0
   11.4468   -1.0849   23.0296 N   0  0  0  0  0  0  0  0  0  0  0  0
   10.5962   -0.2386   23.8716 C   0  0  0  0  0  0  0  0  0  0  0  0
   11.4507    0.6331   24.7729 C   0  0  0  0  0  0  0  0  0  0  0  0
   12.3564    1.4617   23.9742 N   0  0  0  0  0  0  0  0  0  0  0  0
   13.1807    0.6470   23.0760 C   0  0  0  0  0  0  0  0  0  0  0  0
   12.3012   -0.2329   22.2066 C   0  0  0  0  0  0  0  0  0  0  0  0
   12.4195    2.8088   24.0969 C   0  0  0  0  0  0  0  0  0  0  0  0
   11.7165    3.4108   24.8989 O   0  0  0  0  0  0  0  0  0  0  0  0
   13.3820    3.5731   23.2078 C   0  0  0  0  0  0  0  0  0  0  0  0
   13.3524    5.3043   23.5672 Cl  0  0  0  0  0  0  0  0  0  0  0  0
   10.3717   -4.7725   26.2445 C   0  0  0  0  0  0  0  0  0  0  0  0
   10.7833   -5.0800   27.2647 N   0  0  0  0  0  0  0  0  0  0  0  0
  1  2  1  0
  2  3  1  0
  3  4  1  0
  4  5  2  0
  5  6  1  0
  6  7  2  0
  7  8  1  0
  8  9  2  0
  9 10  1  0
 10 11  1  0
 11 12  1  0
 12 13  1  0
 13 14  1  0
 14 15  1  0
 15 16  1  0
 14 17  1  0
 17 18  2  0
 17 19  1  0
 19 20  1  0
  7 21  1  0
 21 22  3  0
  9  4  1  0
 16 11  1  0
M  END
