CVD-0003004|dock_bobby27042020.75|mol2|16|dock3
     RDKit          3D

 22 25  0  0  0  0  0  0  0  0999 V2000
   14.1612   -1.2681   24.2005 C   0  0  0  0  0  0  0  0  0  0  0  0
   13.6576   -1.0998   22.7691 C   0  0  0  0  0  0  0  0  0  0  0  0
   13.3098   -2.4115   22.0701 C   0  0  0  0  0  0  0  0  0  0  0  0
   11.9516   -2.2777   21.5244 O   0  0  0  0  0  0  0  0  0  0  0  0
   11.4641   -1.0882   21.9718 C   0  0  0  0  0  0  0  0  0  0  0  0
   12.3616   -0.3422   22.6374 C   0  0  0  0  0  0  0  0  0  0  0  0
   11.9973    1.0114   23.0627 C   0  0  0  0  0  0  0  0  0  0  0  0
   12.7200    1.7258   23.7529 O   0  0  0  0  0  0  0  0  0  0  0  0
   10.5728    1.4907   22.7050 C   0  0  0  0  0  0  0  0  0  0  0  0
   10.2535    2.5707   23.1935 O   0  0  0  0  0  0  0  0  0  0  0  0
    9.6550    0.6008   21.9710 C   0  0  0  0  0  0  0  0  0  0  0  0
    8.3532    1.0054   21.5723 C   0  0  0  0  0  0  0  0  0  0  0  0
    7.8447    2.4067   21.8734 C   0  0  0  0  0  0  0  0  0  0  0  0
    6.3383    2.5434   21.7785 C   0  0  0  0  0  0  0  0  0  0  0  0
    5.8326    1.9238   20.4998 C   0  0  0  0  0  0  0  0  0  0  0  0
    6.0995    0.4143   20.4386 C   0  0  0  0  0  0  0  0  0  0  0  0
    5.7934   -0.0449   19.0066 C   0  0  0  0  0  0  0  0  0  0  0  0
    5.1742   -0.3404   21.4035 C   0  0  0  0  0  0  0  0  0  0  0  0
    7.5536    0.1116   20.8276 C   0  0  0  0  0  0  0  0  0  0  0  0
    8.0500   -1.1377   20.5002 C   0  0  0  0  0  0  0  0  0  0  0  0
    9.3077   -1.5426   20.8792 C   0  0  0  0  0  0  0  0  0  0  0  0
   10.1215   -0.6875   21.6132 C   0  0  0  0  0  0  0  0  0  0  0  0
  2  1  1  0
  2  3  1  0
  3  4  1  0
  4  5  1  0
  5  6  2  0
  6  7  1  0
  7  8  2  0
  7  9  1  0
  9 10  2  0
  9 11  1  0
 11 12  2  0
 12 13  1  0
 13 14  1  0
 14 15  1  0
 15 16  1  0
 16 17  1  0
 16 18  1  0
 16 19  1  0
 19 20  2  0
 20 21  1  0
 21 22  2  0
  6  2  1  0
 22 11  1  0
 22  5  1  0
 19 12  1  0
M  END
