CVD-0002308|dock_bobby27042020.35|mol2|1|dock1
     RDKit          3D

 40 43  0  0  0  0  0  0  0  0999 V2000
    6.0233   -6.7611   22.3389 C   0  0  0  0  0  0  0  0  0  0  0  0
    6.8155   -5.5392   22.1764 N   0  0  0  0  0  0  0  0  0  0  0  0
    6.1026   -4.3035   22.5177 C   0  0  0  0  0  0  0  0  0  0  0  0
    6.9822   -3.0913   22.3600 C   0  0  0  0  0  0  0  0  0  0  0  0
    8.0688   -2.7613   23.1876 C   0  0  0  0  0  0  0  0  0  0  0  0
    8.6581   -1.5794   22.7689 C   0  0  0  0  0  0  0  0  0  0  0  0
    9.8353   -0.9088   23.3905 C   0  0  0  0  0  0  0  0  0  0  0  0
    9.8543   -0.5787   24.7494 C   0  0  0  0  0  0  0  0  0  0  0  0
   10.9424    0.0537   25.3273 C   0  0  0  0  0  0  0  0  0  0  0  0
   12.0413    0.3871   24.5711 C   0  0  0  0  0  0  0  0  0  0  0  0
   12.0622    0.0786   23.2248 C   0  0  0  0  0  0  0  0  0  0  0  0
   10.9781   -0.5624   22.6735 C   0  0  0  0  0  0  0  0  0  0  0  0
   11.0811   -0.8567   21.3574 F   0  0  0  0  0  0  0  0  0  0  0  0
    7.8944   -1.1627   21.6372 N   0  0  0  0  0  0  0  0  0  0  0  0
    6.8873   -2.0916   21.4065 C   0  0  0  0  0  0  0  0  0  0  0  0
    7.9827    0.1679   20.5859 S   0  0  0  0  0  0  0  0  0  0  0  0
    8.8674    1.1090   21.1990 O   0  0  0  0  0  0  0  0  0  0  0  0
    8.3260   -0.3868   19.3134 O   0  0  0  0  0  0  0  0  0  0  0  0
    6.3387    0.8337   20.4225 C   0  0  0  0  0  0  0  0  0  0  0  0
    5.7202    0.7486   19.1826 C   0  0  0  0  0  0  0  0  0  0  0  0
    4.4839    1.1840   18.9356 N   0  0  0  0  0  0  0  0  0  0  0  0
    3.8394    1.7474   19.9548 C   0  0  0  0  0  0  0  0  0  0  0  0
    4.3763    1.9046   21.2171 C   0  0  0  0  0  0  0  0  0  0  0  0
    5.6686    1.4464   21.4906 C   0  0  0  0  0  0  0  0  0  0  0  0
    6.2801    1.6272   22.8822 C   0  0  0  0  0  0  0  0  0  0  0  0
    5.2604    1.6762   24.0167 C   0  0  0  0  0  0  0  0  0  0  0  0
    7.1403    2.8395   22.9316 N   0  0  0  0  0  0  0  0  0  0  0  0
    6.5657    4.0673   22.3877 C   0  0  0  0  0  0  0  0  0  0  0  0
    8.3879    2.7783   23.4560 C   0  0  0  0  0  0  0  0  0  0  0  0
    8.8340    1.7494   23.9275 O   0  0  0  0  0  0  0  0  0  0  0  0
    9.2327    4.0389   23.4537 C   0  0  0  0  0  0  0  0  0  0  0  0
    9.0430    4.8237   24.7459 C   0  0  0  0  0  0  0  0  0  0  0  0
    9.9188    6.0596   24.7518 C   0  0  0  0  0  0  0  0  0  0  0  0
   11.3183    5.6799   24.5777 N   0  0  0  0  0  0  0  0  0  0  0  0
   11.5587    4.9713   23.3253 C   0  0  0  0  0  0  0  0  0  0  0  0
   10.7114    3.7044   23.2722 C   0  0  0  0  0  0  0  0  0  0  0  0
   12.3579    6.1477   25.3028 C   0  0  0  0  0  0  0  0  0  0  0  0
   13.5010    5.7597   25.0966 O   0  0  0  0  0  0  0  0  0  0  0  0
   12.0670    7.1675   26.3872 C   0  0  0  0  0  0  0  0  0  0  0  0
   13.5709    7.7707   27.0955 Cl  0  0  0  0  0  0  0  0  0  0  0  0
  1  2  1  0
  2  3  1  0
  3  4  1  0
  4  5  1  0
  5  6  2  0
  6  7  1  0
  7  8  2  0
  8  9  1  0
  9 10  2  0
 10 11  1  0
 11 12  2  0
 12 13  1  0
  6 14  1  0
 14 15  1  0
 14 16  1  0
 16 17  2  0
 16 18  2  0
 16 19  1  0
 19 20  2  0
 20 21  1  0
 21 22  2  0
 22 23  1  0
 23 24  2  0
 24 25  1  0
 25 26  1  0
 25 27  1  0
 27 28  1  0
 27 29  1  0
 29 30  2  0
 29 31  1  0
 31 32  1  0
 32 33  1  0
 33 34  1  0
 34 35  1  0
 35 36  1  0
 34 37  1  0
 37 38  2  0
 37 39  1  0
 39 40  1  0
 15  4  2  0
 24 19  1  0
 36 31  1  0
 12  7  1  0
M  END
