CVD-0002892|dock_bobby27042020.47|mol2|6|dock2
     RDKit          3D

 18 18  0  0  0  0  0  0  0  0999 V2000
   14.2295   -0.2330   22.2845 O   0  0  0  0  0  0  0  0  0  0  0  0
   12.8780   -0.4305   22.6153 C   0  0  0  0  0  0  0  0  0  0  0  0
   12.6425   -0.1116   23.9637 O   0  0  0  0  0  0  0  0  0  0  0  0
   12.4658   -1.8493   22.3212 C   0  0  0  0  0  0  0  0  0  0  0  0
   11.0083   -2.1100   22.6303 C   0  0  0  0  0  0  0  0  0  0  0  0
   10.6248   -2.3357   23.7739 O   0  0  0  0  0  0  0  0  0  0  0  0
   10.1840   -2.0754   21.5868 N   0  0  0  0  0  0  0  0  0  0  0  0
    8.7508   -2.3021   21.7063 C   0  0  0  0  0  0  0  0  0  0  0  0
    7.9414   -1.1975   21.0561 C   0  0  0  0  0  0  0  0  0  0  0  0
    6.4604   -1.5363   20.9456 C   0  0  0  0  0  0  0  0  0  0  0  0
    5.6356   -0.4489   20.3006 C   0  0  0  0  0  0  0  0  0  0  0  0
    4.9223    0.4548   21.0729 C   0  0  0  0  0  0  0  0  0  0  0  0
    4.1667    1.4561   20.4890 C   0  0  0  0  0  0  0  0  0  0  0  0
    4.1117    1.5727   19.1043 C   0  0  0  0  0  0  0  0  0  0  0  0
    4.8257    0.6708   18.3226 C   0  0  0  0  0  0  0  0  0  0  0  0
    5.5767   -0.3252   18.9210 C   0  0  0  0  0  0  0  0  0  0  0  0
    3.3262    2.6134   18.4881 C   0  0  0  0  0  0  0  0  0  0  0  0
    2.6764    3.4219   18.0097 N   0  0  0  0  0  0  0  0  0  0  0  0
  1  2  1  0
  2  3  1  0
  2  4  1  0
  4  5  1  0
  5  6  2  0
  5  7  1  0
  7  8  1  0
  8  9  1  0
  9 10  1  0
 10 11  1  0
 11 12  2  0
 12 13  1  0
 13 14  2  0
 14 15  1  0
 15 16  2  0
 14 17  1  0
 17 18  3  0
 16 11  1  0
M  END
