CVD-0002909|dock_bobby27042020.4|mol2|9|dock2
     RDKit          3D

 21 23  0  0  0  0  0  0  0  0999 V2000
   13.9105   -1.0918   22.4806 C   0  0  0  0  0  0  0  0  0  0  0  0
   12.5162   -0.6882   22.3072 N   0  0  0  0  0  0  0  0  0  0  0  0
   12.1587    0.3507   23.2775 C   0  0  0  0  0  0  0  0  0  0  0  0
   10.7233    0.7952   23.0662 C   0  0  0  0  0  0  0  0  0  0  0  0
    9.8118   -0.3448   23.1866 N   0  0  0  0  0  0  0  0  0  0  0  0
   10.1796   -1.4278   22.2693 C   0  0  0  0  0  0  0  0  0  0  0  0
   11.6265   -1.8329   22.4849 C   0  0  0  0  0  0  0  0  0  0  0  0
    8.7564   -0.3522   24.0273 C   0  0  0  0  0  0  0  0  0  0  0  0
    8.5545    0.6124   24.7396 O   0  0  0  0  0  0  0  0  0  0  0  0
    7.8524   -1.5806   24.0514 C   0  0  0  0  0  0  0  0  0  0  0  0
    6.7889   -1.3977   25.1445 C   0  0  0  0  0  0  0  0  0  0  0  0
    5.9219   -2.5237   25.1997 O   0  0  0  0  0  0  0  0  0  0  0  0
    7.1782   -1.9131   22.7361 C   0  0  0  0  0  0  0  0  0  0  0  0
    6.6639   -1.0714   21.7916 C   0  0  0  0  0  0  0  0  0  0  0  0
    6.1341   -1.7773   20.7444 N   0  0  0  0  0  0  0  0  0  0  0  0
    6.2940   -3.1081   20.9926 C   0  0  0  0  0  0  0  0  0  0  0  0
    5.9119   -4.1349   20.2144 N   0  0  0  0  0  0  0  0  0  0  0  0
    6.1799   -5.3625   20.6799 C   0  0  0  0  0  0  0  0  0  0  0  0
    6.8095   -5.6076   21.8815 C   0  0  0  0  0  0  0  0  0  0  0  0
    7.1975   -4.5363   22.6707 C   0  0  0  0  0  0  0  0  0  0  0  0
    6.9422   -3.2387   22.2319 C   0  0  0  0  0  0  0  0  0  0  0  0
  1  2  1  0
  2  3  1  0
  3  4  1  0
  4  5  1  0
  5  6  1  0
  6  7  1  0
  5  8  1  0
  8  9  2  0
  8 10  1  0
 10 11  1  0
 11 12  1  0
 10 13  1  0
 13 14  2  0
 14 15  1  0
 15 16  1  0
 16 17  2  0
 17 18  1  0
 18 19  2  0
 19 20  1  0
 20 21  2  0
  7  2  1  0
 21 13  1  0
 21 16  1  0
M  END
