CVD-0003242|dock_bobby27042020.60|mol2|24|dock3
     RDKit          3D

 23 25  0  0  0  0  0  0  0  0999 V2000
    8.4893   -0.6178   17.8906 Cl  0  0  0  0  0  0  0  0  0  0  0  0
    7.2050    0.4524   18.4673 C   0  0  0  0  0  0  0  0  0  0  0  0
    6.4624   -0.1591   19.6402 C   0  0  0  0  0  0  0  0  0  0  0  0
    5.2940   -0.5059   19.5221 O   0  0  0  0  0  0  0  0  0  0  0  0
    7.1130   -0.3055   20.8169 N   0  0  0  0  0  0  0  0  0  0  0  0
    6.4615   -0.8857   21.9934 C   0  0  0  0  0  0  0  0  0  0  0  0
    7.2726   -2.0515   22.5276 C   0  0  0  0  0  0  0  0  0  0  0  0
    8.6299   -1.6128   22.8651 N   0  0  0  0  0  0  0  0  0  0  0  0
    9.4151   -2.7052   23.4556 C   0  0  0  0  0  0  0  0  0  0  0  0
   10.6100   -2.1891   24.1996 C   0  0  0  0  0  0  0  0  0  0  0  0
   10.6797   -1.0781   25.0095 C   0  0  0  0  0  0  0  0  0  0  0  0
   11.9406   -0.8629   25.5610 C   0  0  0  0  0  0  0  0  0  0  0  0
   12.8252   -1.8017   25.1752 C   0  0  0  0  0  0  0  0  0  0  0  0
   14.6287   -1.9213   25.6609 Br  0  0  0  0  0  0  0  0  0  0  0  0
   12.1458   -2.9770   24.1267 S   0  0  0  0  0  0  0  0  0  0  0  0
    9.2740   -1.0883   21.6637 C   0  0  0  0  0  0  0  0  0  0  0  0
    8.4951    0.0892   21.1064 C   0  0  0  0  0  0  0  0  0  0  0  0
   10.7033   -0.6819   21.9599 C   0  0  0  0  0  0  0  0  0  0  0  0
   10.9769    0.4267   22.7488 C   0  0  0  0  0  0  0  0  0  0  0  0
   12.2835    0.7959   23.0217 C   0  0  0  0  0  0  0  0  0  0  0  0
   13.3318    0.0612   22.5103 C   0  0  0  0  0  0  0  0  0  0  0  0
   13.0746   -1.0430   21.7262 C   0  0  0  0  0  0  0  0  0  0  0  0
   11.7684   -1.4130   21.4527 C   0  0  0  0  0  0  0  0  0  0  0  0
  1  2  1  0
  2  3  1  0
  3  4  2  0
  3  5  1  0
  5  6  1  0
  6  7  1  0
  7  8  1  0
  8  9  1  0
  9 10  1  0
 10 11  2  0
 11 12  1  0
 12 13  2  0
 13 14  1  0
 13 15  1  0
  8 16  1  0
 16 17  1  0
 16 18  1  0
 18 19  2  0
 19 20  1  0
 20 21  2  0
 21 22  1  0
 22 23  2  0
 17  5  1  0
 23 18  1  0
 15 10  1  0
M  END
