CVD-0001422|dock_bobby27042020.67|mol2|12|dock1
     RDKit          3D

 16 17  0  0  0  0  0  0  0  0999 V2000
    5.2149    0.6319   17.6581 Cl  0  0  0  0  0  0  0  0  0  0  0  0
    6.2288    0.5023   19.0353 C   0  0  0  0  0  0  0  0  0  0  0  0
    7.3980   -0.1608   19.1108 C   0  0  0  0  0  0  0  0  0  0  0  0
    7.9803   -0.0658   20.4007 C   0  0  0  0  0  0  0  0  0  0  0  0
    9.2146   -0.7104   20.6433 N   0  0  0  0  0  0  0  0  0  0  0  0
    9.9194   -0.7402   21.7785 C   0  0  0  0  0  0  0  0  0  0  0  0
    9.5560   -0.1411   22.9124 N   0  0  0  0  0  0  0  0  0  0  0  0
   11.0818   -1.4587   21.7117 N   0  0  0  0  0  0  0  0  0  0  0  0
   12.1016   -1.8119   22.6338 C   0  0  0  0  0  0  0  0  0  0  0  0
   11.8860   -2.3770   23.8871 C   0  0  0  0  0  0  0  0  0  0  0  0
   12.9697   -2.7068   24.6826 C   0  0  0  0  0  0  0  0  0  0  0  0
   14.2369   -2.4358   24.2215 C   0  0  0  0  0  0  0  0  0  0  0  0
   14.4760   -1.8609   23.0432 N   0  0  0  0  0  0  0  0  0  0  0  0
   13.4223   -1.5624   22.2776 C   0  0  0  0  0  0  0  0  0  0  0  0
    7.2284    0.6685   21.2589 C   0  0  0  0  0  0  0  0  0  0  0  0
    5.7983    1.2605   20.5218 S   0  0  0  0  0  0  0  0  0  0  0  0
  1  2  1  0
  2  3  2  0
  3  4  1  0
  4  5  1  0
  5  6  1  0
  6  7  2  0
  6  8  1  0
  8  9  1  0
  9 10  2  0
 10 11  1  0
 11 12  2  0
 12 13  1  0
 13 14  2  0
  4 15  2  0
 15 16  1  0
 16  2  1  0
 14  9  1  0
M  END
