CVD-0000971|dock_bobby27042020.11|mol2|16|dock1
     RDKit          3D

 34 38  0  0  0  0  0  0  0  0999 V2000
   12.7077   -2.0319   23.0479 N   0  0  0  0  0  0  0  0  0  0  0  0
   13.1045   -0.5858   23.6081 S   0  0  0  0  0  0  0  0  0  0  0  0
   13.1670   -0.6556   25.0368 O   0  0  0  0  0  0  0  0  0  0  0  0
   14.2943   -0.2035   22.9085 O   0  0  0  0  0  0  0  0  0  0  0  0
   11.8604    0.5934   23.1431 C   0  0  0  0  0  0  0  0  0  0  0  0
   12.3649    1.8518   22.8439 C   0  0  0  0  0  0  0  0  0  0  0  0
   11.5406    2.8533   22.3610 C   0  0  0  0  0  0  0  0  0  0  0  0
   10.1980    2.5704   22.1775 C   0  0  0  0  0  0  0  0  0  0  0  0
    9.6689    1.3378   22.5130 C   0  0  0  0  0  0  0  0  0  0  0  0
   10.4760    0.3362   23.0511 C   0  0  0  0  0  0  0  0  0  0  0  0
    9.8616   -0.8711   23.4653 N   0  0  0  0  0  0  0  0  0  0  0  0
    9.0581   -1.6403   22.5036 C   0  0  0  0  0  0  0  0  0  0  0  0
    8.9241   -3.0903   22.9547 C   0  0  0  0  0  0  0  0  0  0  0  0
    8.4508   -3.1944   24.3263 N   0  0  0  0  0  0  0  0  0  0  0  0
    9.2296   -2.3759   25.2677 C   0  0  0  0  0  0  0  0  0  0  0  0
    9.2447   -0.9401   24.8146 C   0  0  0  0  0  0  0  0  0  0  0  0
    7.4510   -3.9651   24.8160 C   0  0  0  0  0  0  0  0  0  0  0  0
    7.1834   -3.9306   26.0050 O   0  0  0  0  0  0  0  0  0  0  0  0
    6.6033   -4.9046   23.9840 C   0  0  0  0  0  0  0  0  0  0  0  0
    5.2248   -4.7322   23.9703 C   0  0  0  0  0  0  0  0  0  0  0  0
    4.4100   -5.5218   23.2649 N   0  0  0  0  0  0  0  0  0  0  0  0
    4.9823   -6.4980   22.5625 C   0  0  0  0  0  0  0  0  0  0  0  0
    6.3487   -6.6824   22.5655 C   0  0  0  0  0  0  0  0  0  0  0  0
    7.1665   -5.8929   23.2718 N   0  0  0  0  0  0  0  0  0  0  0  0
   12.1005    4.2298   22.0301 C   0  0  0  0  0  0  0  0  0  0  0  0
   13.5463    4.3138   22.1826 N   0  0  0  0  0  0  0  0  0  0  0  0
   13.9590    5.2340   23.0750 C   0  0  0  0  0  0  0  0  0  0  0  0
   15.1221    5.4707   23.3835 O   0  0  0  0  0  0  0  0  0  0  0  0
   12.7394    5.8987   23.5846 C   0  0  0  0  0  0  0  0  0  0  0  0
   12.5793    6.9378   24.5004 C   0  0  0  0  0  0  0  0  0  0  0  0
   11.3004    7.3853   24.7977 C   0  0  0  0  0  0  0  0  0  0  0  0
   10.1992    6.8104   24.1954 C   0  0  0  0  0  0  0  0  0  0  0  0
   10.3615    5.7774   23.2852 C   0  0  0  0  0  0  0  0  0  0  0  0
   11.6395    5.3178   22.9771 C   0  0  0  0  0  0  0  0  0  0  0  0
  1  2  1  0
  2  3  2  0
  2  4  2  0
  2  5  1  0
  5  6  2  0
  6  7  1  0
  7  8  2  0
  8  9  1  0
  9 10  2  0
 10 11  1  0
 11 12  1  0
 12 13  1  0
 13 14  1  0
 14 15  1  0
 15 16  1  0
 14 17  1  0
 17 18  2  0
 17 19  1  0
 19 20  2  0
 20 21  1  0
 21 22  2  0
 22 23  1  0
 23 24  2  0
  7 25  1  0
 25 26  1  0
 26 27  1  0
 27 28  2  0
 27 29  1  0
 29 30  2  0
 30 31  1  0
 31 32  2  0
 32 33  1  0
 33 34  2  0
 10  5  1  0
 16 11  1  0
 24 19  1  0
 34 25  1  0
 34 29  1  0
M  END
