CVD-0000499|dock_bobby27042020.12|mol2|42|dock2
     RDKit          3D

 40 41  0  0  0  0  0  0  0  0999 V2000
    9.2096    2.1303   22.2574 C   0  0  0  0  0  0  0  0  0  0  0  0
   10.6293    1.6551   22.4215 C   0  0  0  0  0  0  0  0  0  0  0  0
   11.6328    2.5670   22.7361 C   0  0  0  0  0  0  0  0  0  0  0  0
   12.9446    2.1580   22.8851 C   0  0  0  0  0  0  0  0  0  0  0  0
   13.2621    0.8182   22.7560 C   0  0  0  0  0  0  0  0  0  0  0  0
   12.2885   -0.1369   22.4740 C   0  0  0  0  0  0  0  0  0  0  0  0
   12.7125   -1.5859   22.4527 C   0  0  0  0  0  0  0  0  0  0  0  0
   13.2907   -1.9541   21.2124 O   0  0  0  0  0  0  0  0  0  0  0  0
   10.9713    0.3092   22.2528 C   0  0  0  0  0  0  0  0  0  0  0  0
    9.9071   -0.5714   21.8566 N   0  0  0  0  0  0  0  0  0  0  0  0
    8.8099   -0.8898   22.6195 C   0  0  0  0  0  0  0  0  0  0  0  0
    8.5792   -0.4684   23.7497 O   0  0  0  0  0  0  0  0  0  0  0  0
    7.9759   -1.7548   22.0018 N   0  0  0  0  0  0  0  0  0  0  0  0
    6.8130   -2.2859   22.6937 C   0  0  0  0  0  0  0  0  0  0  0  0
    5.5412   -1.5759   22.2006 C   0  0  0  0  0  0  0  0  0  0  0  0
    5.6785   -0.8801   20.8682 C   0  0  0  0  0  0  0  0  0  0  0  0
    5.5896   -1.5949   19.6836 C   0  0  0  0  0  0  0  0  0  0  0  0
    5.7057   -0.9653   18.4573 C   0  0  0  0  0  0  0  0  0  0  0  0
    5.9113    0.4037   18.4018 C   0  0  0  0  0  0  0  0  0  0  0  0
    6.0265    1.0317   17.1961 O   0  0  0  0  0  0  0  0  0  0  0  0
    5.9992    1.1314   19.5774 C   0  0  0  0  0  0  0  0  0  0  0  0
    5.8850    0.4881   20.7971 C   0  0  0  0  0  0  0  0  0  0  0  0
    6.7572   -3.7924   22.4200 C   0  0  0  0  0  0  0  0  0  0  0  0
    5.9622   -4.1997   21.5948 O   0  0  0  0  0  0  0  0  0  0  0  0
    7.5765   -4.6538   23.0584 N   0  0  0  0  0  0  0  0  0  0  0  0
    7.5854   -6.1039   22.8229 C   0  0  0  0  0  0  0  0  0  0  0  0
    6.1884   -6.6976   22.7786 C   0  0  0  0  0  0  0  0  0  0  0  0
    5.3505   -6.2845   23.9802 C   0  0  0  0  0  0  0  0  0  0  0  0
    4.0621   -7.0578   24.1153 C   0  0  0  0  0  0  0  0  0  0  0  0
    3.1381   -6.8251   23.1964 N   0  0  0  0  0  0  0  0  0  0  0  0
    3.8949   -7.8601   25.0384 O   0  0  0  0  0  0  0  0  0  0  0  0
    8.5020   -4.1842   24.0976 C   0  0  0  0  0  0  0  0  0  0  0  0
    7.9068   -4.0803   25.4879 C   0  0  0  0  0  0  0  0  0  0  0  0
    7.8532   -5.3936   26.1420 N   0  0  0  0  0  0  0  0  0  0  0  0
    7.2930   -5.4840   27.4959 C   0  0  0  0  0  0  0  0  0  0  0  0
    7.2454   -6.9019   28.0715 C   0  0  0  0  0  0  0  0  0  0  0  0
    6.5835   -7.0698   29.7513 S   0  0  0  0  0  0  0  0  0  0  0  0
    5.9024   -4.8683   27.5545 C   0  0  0  0  0  0  0  0  0  0  0  0
    4.9787   -5.6612   27.0735 O   0  0  0  0  0  0  0  0  0  0  0  0
    5.6758   -3.7660   28.0007 O   0  0  0  0  0  0  0  0  0  0  0  0
  1  2  1  0
  2  3  2  0
  3  4  1  0
  4  5  2  0
  5  6  1  0
  6  7  1  0
  7  8  1  0
  6  9  2  0
  9 10  1  0
 10 11  1  0
 11 12  2  0
 11 13  1  0
 13 14  1  0
 14 15  1  0
 15 16  1  0
 16 17  2  0
 17 18  1  0
 18 19  2  0
 19 20  1  0
 19 21  1  0
 21 22  2  0
 14 23  1  0
 23 24  2  0
 23 25  1  0
 25 26  1  0
 26 27  1  0
 27 28  1  0
 28 29  1  0
 29 30  1  0
 29 31  2  0
 25 32  1  0
 32 33  1  0
 33 34  1  0
 34 35  1  0
 35 36  1  0
 36 37  1  0
 35 38  1  0
 38 39  1  0
 38 40  2  0
  9  2  1  0
 22 16  1  0
M  END
