CVD-0002982|dock_bobby27042020.18|mol2|7|dock2
     RDKit          3D

 19 20  0  0  0  0  0  0  0  0999 V2000
   13.6470   -2.4932   25.5568 C   0  0  0  0  0  0  0  0  0  0  0  0
   13.0039   -2.1900   24.2255 C   0  0  0  0  0  0  0  0  0  0  0  0
   13.7622   -2.1389   23.0658 C   0  0  0  0  0  0  0  0  0  0  0  0
   13.1596   -1.8643   21.8556 C   0  0  0  0  0  0  0  0  0  0  0  0
   14.1319   -1.8047   20.4121 Cl  0  0  0  0  0  0  0  0  0  0  0  0
   11.8024   -1.6361   21.7665 C   0  0  0  0  0  0  0  0  0  0  0  0
   11.0262   -1.6828   22.9167 C   0  0  0  0  0  0  0  0  0  0  0  0
    9.5379   -1.4409   22.8470 C   0  0  0  0  0  0  0  0  0  0  0  0
    8.7284   -2.6193   22.2921 C   0  0  0  0  0  0  0  0  0  0  0  0
    8.6921   -3.8123   23.2447 C   0  0  0  0  0  0  0  0  0  0  0  0
    7.8039   -4.9294   22.7352 C   0  0  0  0  0  0  0  0  0  0  0  0
    6.4652   -4.4239   22.4152 N   0  0  0  0  0  0  0  0  0  0  0  0
    6.4803   -3.3627   21.4150 C   0  0  0  0  0  0  0  0  0  0  0  0
    7.3086   -2.2050   21.9274 C   0  0  0  0  0  0  0  0  0  0  0  0
    5.3029   -4.9238   22.8837 C   0  0  0  0  0  0  0  0  0  0  0  0
    4.2219   -4.4383   22.5749 O   0  0  0  0  0  0  0  0  0  0  0  0
    5.3947   -6.1222   23.8080 C   0  0  0  0  0  0  0  0  0  0  0  0
    3.7905   -6.7405   24.2217 Cl  0  0  0  0  0  0  0  0  0  0  0  0
   11.6393   -1.9612   24.1315 C   0  0  0  0  0  0  0  0  0  0  0  0
  1  2  1  0
  2  3  2  0
  3  4  1  0
  4  5  1  0
  4  6  2  0
  6  7  1  0
  7  8  1  0
  8  9  1  0
  9 10  1  0
 10 11  1  0
 11 12  1  0
 12 13  1  0
 13 14  1  0
 12 15  1  0
 15 16  2  0
 15 17  1  0
 17 18  1  0
  7 19  2  0
 19  2  1  0
 14  9  1  0
M  END
