CVD-0001638|dock_bobby27042020.9|mol2|9|dock1
     RDKit          3D

 16 17  0  0  0  0  0  0  0  0999 V2000
   14.3048   -2.4456   25.5329 C   0  0  0  0  0  0  0  0  0  0  0  0
   13.0776   -1.7213   25.0294 C   0  0  0  0  0  0  0  0  0  0  0  0
   13.3456   -0.3257   25.1617 O   0  0  0  0  0  0  0  0  0  0  0  0
   12.2179    0.4357   24.7749 C   0  0  0  0  0  0  0  0  0  0  0  0
   11.8227    0.1620   23.3594 C   0  0  0  0  0  0  0  0  0  0  0  0
   11.5848   -1.2731   23.1816 N   0  0  0  0  0  0  0  0  0  0  0  0
   12.7248   -2.0855   23.6177 C   0  0  0  0  0  0  0  0  0  0  0  0
   13.8769   -1.8807   22.6459 C   0  0  0  0  0  0  0  0  0  0  0  0
   10.3852   -1.7961   22.6654 C   0  0  0  0  0  0  0  0  0  0  0  0
    9.7809   -2.9137   23.2312 C   0  0  0  0  0  0  0  0  0  0  0  0
    8.6044   -3.4161   22.7079 C   0  0  0  0  0  0  0  0  0  0  0  0
    8.0423   -2.7631   21.6186 C   0  0  0  0  0  0  0  0  0  0  0  0
    8.5954   -1.6744   21.0562 N   0  0  0  0  0  0  0  0  0  0  0  0
    9.7472   -1.2267   21.5713 C   0  0  0  0  0  0  0  0  0  0  0  0
    6.8065   -3.2387   21.0282 C   0  0  0  0  0  0  0  0  0  0  0  0
    5.8381   -3.6467   20.5804 N   0  0  0  0  0  0  0  0  0  0  0  0
  1  2  1  0
  2  3  1  0
  3  4  1  0
  4  5  1  0
  5  6  1  0
  6  7  1  0
  7  8  1  0
  6  9  1  0
  9 10  2  0
 10 11  1  0
 11 12  2  0
 12 13  1  0
 13 14  2  0
 12 15  1  0
 15 16  3  0
  7  2  1  0
 14  9  1  0
M  END
