CVD-0002827|dock_bobby27042020.90|mol2|7|dock1
     RDKit          3D

 25 27  0  0  0  0  0  0  0  0999 V2000
   13.5589    5.6698   21.2019 C   0  0  0  0  0  0  0  0  0  0  0  0
   13.8672    5.2013   22.8612 S   0  0  0  0  0  0  0  0  0  0  0  0
   15.2191    5.5375   23.1861 O   0  0  0  0  0  0  0  0  0  0  0  0
   12.8180    5.7351   23.6737 O   0  0  0  0  0  0  0  0  0  0  0  0
   13.7383    3.5787   22.9269 N   0  0  0  0  0  0  0  0  0  0  0  0
   12.5146    2.8525   22.7871 C   0  0  0  0  0  0  0  0  0  0  0  0
   11.3093    3.5118   22.5780 C   0  0  0  0  0  0  0  0  0  0  0  0
   10.1437    2.7800   22.4687 C   0  0  0  0  0  0  0  0  0  0  0  0
   10.1544    1.3940   22.5640 C   0  0  0  0  0  0  0  0  0  0  0  0
    8.8685    0.5977   22.3187 C   0  0  0  0  0  0  0  0  0  0  0  0
    8.9122   -0.8162   22.7376 N   0  0  0  0  0  0  0  0  0  0  0  0
   10.1185   -1.2876   23.4616 C   0  0  0  0  0  0  0  0  0  0  0  0
   11.3628   -0.7879   22.8059 C   0  0  0  0  0  0  0  0  0  0  0  0
   12.5801   -1.3536   23.5271 C   0  0  0  0  0  0  0  0  0  0  0  0
   13.2889   -2.4207   22.9930 C   0  0  0  0  0  0  0  0  0  0  0  0
   14.3967   -2.9329   23.6476 C   0  0  0  0  0  0  0  0  0  0  0  0
   14.8095   -2.3846   24.8430 C   0  0  0  0  0  0  0  0  0  0  0  0
   14.1154   -1.3238   25.3845 C   0  0  0  0  0  0  0  0  0  0  0  0
   13.0076   -0.8109   24.7308 C   0  0  0  0  0  0  0  0  0  0  0  0
   11.3527    0.7204   22.7731 C   0  0  0  0  0  0  0  0  0  0  0  0
   12.5272    1.4664   22.8827 C   0  0  0  0  0  0  0  0  0  0  0  0
    7.8612   -1.5920   22.3891 C   0  0  0  0  0  0  0  0  0  0  0  0
    6.9108   -1.1364   21.7653 O   0  0  0  0  0  0  0  0  0  0  0  0
    7.8910   -3.0555   22.7882 C   0  0  0  0  0  0  0  0  0  0  0  0
    6.3497   -3.8505   22.4419 Cl  0  0  0  0  0  0  0  0  0  0  0  0
  1  2  1  0
  2  3  2  0
  2  4  2  0
  2  5  1  0
  5  6  1  0
  6  7  2  0
  7  8  1  0
  8  9  2  0
  9 10  1  0
 10 11  1  0
 11 12  1  0
 12 13  1  0
 13 14  1  0
 14 15  2  0
 15 16  1  0
 16 17  2  0
 17 18  1  0
 18 19  2  0
 13 20  1  0
 20 21  2  0
 11 22  1  0
 22 23  2  0
 22 24  1  0
 24 25  1  0
 21  6  1  0
 20  9  1  0
 19 14  1  0
M  END
