CVD-0001270|dock_bobby27042020.10|mol2|16|dock3
     RDKit          3D

 25 27  0  0  0  0  0  0  0  0999 V2000
    7.4188   -6.6893   28.7100 Cl  0  0  0  0  0  0  0  0  0  0  0  0
    7.3604   -5.7724   27.1990 C   0  0  0  0  0  0  0  0  0  0  0  0
    8.7374   -5.2606   26.8244 C   0  0  0  0  0  0  0  0  0  0  0  0
    9.6993   -5.4027   27.5688 O   0  0  0  0  0  0  0  0  0  0  0  0
    8.8406   -4.6382   25.6329 N   0  0  0  0  0  0  0  0  0  0  0  0
    7.7516   -4.4072   24.6786 C   0  0  0  0  0  0  0  0  0  0  0  0
    7.7733   -2.9854   24.1807 C   0  0  0  0  0  0  0  0  0  0  0  0
    9.0760   -2.6621   23.5760 N   0  0  0  0  0  0  0  0  0  0  0  0
   10.1018   -2.8342   24.6058 C   0  0  0  0  0  0  0  0  0  0  0  0
   10.1462   -4.2625   25.0939 C   0  0  0  0  0  0  0  0  0  0  0  0
    9.0901   -1.2768   23.0391 C   0  0  0  0  0  0  0  0  0  0  0  0
    8.1497   -1.0189   21.8414 C   0  0  0  0  0  0  0  0  0  0  0  0
    8.3795    0.3587   21.1789 C   0  0  0  0  0  0  0  0  0  0  0  0
    7.4140    0.6886   20.0425 C   0  0  0  0  0  0  0  0  0  0  0  0
    7.5008   -0.5171   18.7526 S   0  0  0  0  0  0  0  0  0  0  0  0
    8.8414   -0.5723   18.2354 O   0  0  0  0  0  0  0  0  0  0  0  0
    6.4308   -0.2594   17.8272 O   0  0  0  0  0  0  0  0  0  0  0  0
    7.1577   -1.9957   19.6506 C   0  0  0  0  0  0  0  0  0  0  0  0
    8.1497   -2.1638   20.7960 C   0  0  0  0  0  0  0  0  0  0  0  0
   10.5030   -0.8713   22.6734 C   0  0  0  0  0  0  0  0  0  0  0  0
   11.0177    0.3516   23.0805 C   0  0  0  0  0  0  0  0  0  0  0  0
   12.3084    0.7231   22.7431 C   0  0  0  0  0  0  0  0  0  0  0  0
   13.0990   -0.1223   21.9945 C   0  0  0  0  0  0  0  0  0  0  0  0
   12.5998   -1.3395   21.5824 C   0  0  0  0  0  0  0  0  0  0  0  0
   11.3093   -1.7121   21.9191 C   0  0  0  0  0  0  0  0  0  0  0  0
  1  2  1  0
  2  3  1  0
  3  4  2  0
  3  5  1  0
  5  6  1  0
  6  7  1  0
  7  8  1  0
  8  9  1  0
  9 10  1  0
  8 11  1  0
 11 12  1  0
 12 13  1  0
 13 14  1  0
 14 15  1  0
 15 16  2  0
 15 17  2  0
 15 18  1  0
 18 19  1  0
 11 20  1  0
 20 21  2  0
 21 22  1  0
 22 23  2  0
 23 24  1  0
 24 25  2  0
 10  5  1  0
 19 12  1  0
 25 20  1  0
M  END
