CVD-0003158|dock_bobby27042020.60|mol2|36|dock1
     RDKit          3D

 25 28  0  0  0  0  0  0  0  0999 V2000
    9.1327   -6.2605   24.6958 Br  0  0  0  0  0  0  0  0  0  0  0  0
    8.3537   -5.0962   23.4130 C   0  0  0  0  0  0  0  0  0  0  0  0
    7.2291   -5.5127   22.7359 C   0  0  0  0  0  0  0  0  0  0  0  0
    6.6538   -4.6612   21.8141 C   0  0  0  0  0  0  0  0  0  0  0  0
    7.2060   -3.4072   21.5642 C   0  0  0  0  0  0  0  0  0  0  0  0
    8.3724   -3.0192   22.2400 C   0  0  0  0  0  0  0  0  0  0  0  0
    8.9372   -3.8643   23.1960 C   0  0  0  0  0  0  0  0  0  0  0  0
    8.9308   -1.7552   21.9225 N   0  0  0  0  0  0  0  0  0  0  0  0
   10.1648   -1.3204   22.5371 C   0  0  0  0  0  0  0  0  0  0  0  0
   10.1424   -0.5287   23.6795 C   0  0  0  0  0  0  0  0  0  0  0  0
   11.3275   -0.1169   24.2660 C   0  0  0  0  0  0  0  0  0  0  0  0
   12.5385   -0.4882   23.7236 C   0  0  0  0  0  0  0  0  0  0  0  0
   12.5699   -1.2738   22.5919 C   0  0  0  0  0  0  0  0  0  0  0  0
   11.3910   -1.6913   21.9972 C   0  0  0  0  0  0  0  0  0  0  0  0
    8.3518   -0.8763   21.0026 C   0  0  0  0  0  0  0  0  0  0  0  0
    8.8827    0.1947   20.7509 O   0  0  0  0  0  0  0  0  0  0  0  0
    7.1658   -1.2855   20.3744 N   0  0  0  0  0  0  0  0  0  0  0  0
    6.5505   -0.3746   19.4255 C   0  0  0  0  0  0  0  0  0  0  0  0
    5.2781    0.1423   19.6368 C   0  0  0  0  0  0  0  0  0  0  0  0
    4.7256    1.0044   18.7061 C   0  0  0  0  0  0  0  0  0  0  0  0
    5.4611    1.3252   17.5893 C   0  0  0  0  0  0  0  0  0  0  0  0
    6.6836    0.8461   17.3606 N   0  0  0  0  0  0  0  0  0  0  0  0
    7.2078    0.0172   18.2688 C   0  0  0  0  0  0  0  0  0  0  0  0
    6.5373   -2.5261   20.5999 C   0  0  0  0  0  0  0  0  0  0  0  0
    5.5004   -2.8556   20.0492 O   0  0  0  0  0  0  0  0  0  0  0  0
  1  2  1  0
  2  3  2  0
  3  4  1  0
  4  5  2  0
  5  6  1  0
  6  7  2  0
  6  8  1  0
  8  9  1  0
  9 10  2  0
 10 11  1  0
 11 12  2  0
 12 13  1  0
 13 14  2  0
  8 15  1  0
 15 16  2  0
 15 17  1  0
 17 18  1  0
 18 19  2  0
 19 20  1  0
 20 21  2  0
 21 22  1  0
 22 23  2  0
 17 24  1  0
 24 25  2  0
  7  2  1  0
 14  9  1  0
 23 18  1  0
 24  5  1  0
M  END
