CVD-0003651|dock_bobby27042020.59|mol2|11|dock2
     RDKit          3D

 22 22  0  0  0  0  0  0  0  0999 V2000
    6.2977   -0.1361   18.3059 C   0  0  0  0  0  0  0  0  0  0  0  0
    6.1614   -0.4545   19.7900 C   0  0  0  0  0  0  0  0  0  0  0  0
    6.2118   -1.9105   19.9563 N   0  0  0  0  0  0  0  0  0  0  0  0
    6.3989   -2.4774   21.1598 C   0  0  0  0  0  0  0  0  0  0  0  0
    6.5395   -1.8571   22.1920 O   0  0  0  0  0  0  0  0  0  0  0  0
    6.4032   -3.8160   21.0264 O   0  0  0  0  0  0  0  0  0  0  0  0
    6.5009   -4.7418   22.1793 C   0  0  0  0  0  0  0  0  0  0  0  0
    6.5294   -6.1521   21.6273 C   0  0  0  0  0  0  0  0  0  0  0  0
    5.2872   -4.5514   23.0667 C   0  0  0  0  0  0  0  0  0  0  0  0
    7.7809   -4.4502   22.9366 C   0  0  0  0  0  0  0  0  0  0  0  0
    7.2491    0.2228   20.6015 C   0  0  0  0  0  0  0  0  0  0  0  0
    6.9956    1.3970   21.2957 C   0  0  0  0  0  0  0  0  0  0  0  0
    7.9874    2.0124   22.0387 C   0  0  0  0  0  0  0  0  0  0  0  0
    9.2620    1.4727   22.1121 C   0  0  0  0  0  0  0  0  0  0  0  0
   10.3447    2.1467   22.9196 C   0  0  0  0  0  0  0  0  0  0  0  0
   11.1305    3.0981   22.1477 N   0  0  0  0  0  0  0  0  0  0  0  0
   12.3778    3.4406   22.4806 C   0  0  0  0  0  0  0  0  0  0  0  0
   12.9508    2.9688   23.4731 O   0  0  0  0  0  0  0  0  0  0  0  0
   13.0258    4.4220   21.5813 C   0  0  0  0  0  0  0  0  0  0  0  0
   14.1498    5.0135   21.8880 C   0  0  0  0  0  0  0  0  0  0  0  0
    9.5161    0.2996   21.4187 C   0  0  0  0  0  0  0  0  0  0  0  0
    8.5251   -0.3167   20.6755 C   0  0  0  0  0  0  0  0  0  0  0  0
  1  2  1  0
  2  3  1  0
  3  4  1  0
  4  5  2  0
  4  6  1  0
  6  7  1  0
  7  8  1  0
  7  9  1  0
  7 10  1  0
  2 11  1  0
 11 12  2  0
 12 13  1  0
 13 14  2  0
 14 15  1  0
 15 16  1  0
 16 17  1  0
 17 18  2  0
 17 19  1  0
 19 20  2  0
 14 21  1  0
 21 22  2  0
 22 11  1  0
M  END
