CVD-0003003|dock_bobby27042020.3|mol2|31|dock3
     RDKit          3D

 45 46  0  0  0  0  0  0  0  0999 V2000
    2.0912   -8.0269   23.3139 C   0  0  0  0  0  0  0  0  0  0  0  0
    1.9330   -6.7434   22.5805 C   0  0  0  0  0  0  0  0  0  0  0  0
    3.0273   -5.8457   22.9361 O   0  0  0  0  0  0  0  0  0  0  0  0
    4.2558   -6.1118   22.4640 C   0  0  0  0  0  0  0  0  0  0  0  0
    4.5104   -7.0490   21.7437 O   0  0  0  0  0  0  0  0  0  0  0  0
    5.2617   -5.1350   22.9300 C   0  0  0  0  0  0  0  0  0  0  0  0
    6.4071   -4.9000   22.3118 C   0  0  0  0  0  0  0  0  0  0  0  0
    7.4480   -3.9150   22.7603 C   0  0  0  0  0  0  0  0  0  0  0  0
    7.6686   -3.9425   24.2779 C   0  0  0  0  0  0  0  0  0  0  0  0
    7.7500   -5.3207   24.9519 C   0  0  0  0  0  0  0  0  0  0  0  0
    7.9839   -5.2809   26.4753 C   0  0  0  0  0  0  0  0  0  0  0  0
    8.9681   -6.4064   26.7655 C   0  0  0  0  0  0  0  0  0  0  0  0
    9.5550   -6.6725   25.4659 N   0  0  0  0  0  0  0  0  0  0  0  0
    8.8940   -6.1502   24.4298 C   0  0  0  0  0  0  0  0  0  0  0  0
    9.1980   -6.2937   23.2485 O   0  0  0  0  0  0  0  0  0  0  0  0
    7.0362   -2.5735   22.3540 N   0  0  0  0  0  0  0  0  0  0  0  0
    7.8963   -1.6681   21.8792 C   0  0  0  0  0  0  0  0  0  0  0  0
    9.0965   -1.8920   21.7460 O   0  0  0  0  0  0  0  0  0  0  0  0
    7.3168   -0.3083   21.4979 C   0  0  0  0  0  0  0  0  0  0  0  0
    6.5846   -0.3600   20.1527 C   0  0  0  0  0  0  0  0  0  0  0  0
    5.8338    0.8898   19.6908 C   0  0  0  0  0  0  0  0  0  0  0  0
    4.7195    1.1941   20.6771 C   0  0  0  0  0  0  0  0  0  0  0  0
    5.2386    0.7418   18.3004 C   0  0  0  0  0  0  0  0  0  0  0  0
    8.3506    0.7137   21.4689 N   0  0  0  0  0  0  0  0  0  0  0  0
    9.1213    0.9646   22.5312 C   0  0  0  0  0  0  0  0  0  0  0  0
    9.0023    0.3705   23.5995 O   0  0  0  0  0  0  0  0  0  0  0  0
   10.1816    2.0469   22.3577 C   0  0  0  0  0  0  0  0  0  0  0  0
    9.7806    3.2399   23.0865 N   0  0  0  0  0  0  0  0  0  0  0  0
    8.9620    4.1472   22.5286 C   0  0  0  0  0  0  0  0  0  0  0  0
    8.4953    4.0694   21.4121 O   0  0  0  0  0  0  0  0  0  0  0  0
    8.7285    5.1617   23.3835 O   0  0  0  0  0  0  0  0  0  0  0  0
    8.4256    6.4461   22.7775 C   0  0  0  0  0  0  0  0  0  0  0  0
    7.0144    6.4306   22.2668 C   0  0  0  0  0  0  0  0  0  0  0  0
    6.6423    7.2218   21.1911 C   0  0  0  0  0  0  0  0  0  0  0  0
    5.3393    7.2100   20.7219 C   0  0  0  0  0  0  0  0  0  0  0  0
    4.3942    6.4074   21.3240 C   0  0  0  0  0  0  0  0  0  0  0  0
    4.7514    5.6171   22.3953 C   0  0  0  0  0  0  0  0  0  0  0  0
    6.0542    5.6290   22.8644 C   0  0  0  0  0  0  0  0  0  0  0  0
   11.5471    1.5423   22.8479 C   0  0  0  0  0  0  0  0  0  0  0  0
   12.6098    2.6038   22.6742 C   0  0  0  0  0  0  0  0  0  0  0  0
   11.9511    0.3872   22.0973 O   0  0  0  0  0  0  0  0  0  0  0  0
   12.6891   -0.7495   22.6303 C   0  0  0  0  0  0  0  0  0  0  0  0
   13.0790   -1.6090   21.4456 C   0  0  0  0  0  0  0  0  0  0  0  0
   13.9359   -0.2321   23.3176 C   0  0  0  0  0  0  0  0  0  0  0  0
   11.8754   -1.5899   23.5934 C   0  0  0  0  0  0  0  0  0  0  0  0
  1  2  1  0
  2  3  1  0
  3  4  1  0
  4  5  2  0
  4  6  1  0
  6  7  2  0
  8  7  1  0
  8  9  1  0
 10  9  1  0
 10 11  1  0
 11 12  1  0
 12 13  1  0
 13 14  1  0
 14 15  2  0
  8 16  1  0
 16 17  1  0
 17 18  2  0
 17 19  1  0
 19 20  1  0
 20 21  1  0
 21 22  1  0
 21 23  1  0
 19 24  1  0
 24 25  1  0
 25 26  2  0
 25 27  1  0
 27 28  1  0
 28 29  1  0
 29 30  2  0
 29 31  1  0
 31 32  1  0
 32 33  1  0
 33 34  2  0
 34 35  1  0
 35 36  2  0
 36 37  1  0
 37 38  2  0
 27 39  1  0
 39 40  1  0
 39 41  1  0
 41 42  1  0
 42 43  1  0
 42 44  1  0
 42 45  1  0
 14 10  1  0
 38 33  1  0
M  END
