CVD-0001594|dock_bobby27042020.37|mol2|39|dock3
     RDKit          3D

 19 20  0  0  0  0  0  0  0  0999 V2000
    7.5771   -2.7278   23.8096 C   0  0  0  0  0  0  0  0  0  0  0  0
    8.0731   -3.2791   22.4805 C   0  0  0  0  0  0  0  0  0  0  0  0
    9.4379   -2.6815   22.1926 C   0  0  0  0  0  0  0  0  0  0  0  0
    9.3288   -1.2310   22.0115 N   0  0  0  0  0  0  0  0  0  0  0  0
   10.5995   -0.5388   21.9525 C   0  0  0  0  0  0  0  0  0  0  0  0
   11.4471   -0.8473   23.0859 N   0  0  0  0  0  0  0  0  0  0  0  0
   12.8357   -1.2571   22.7852 C   0  0  0  0  0  0  0  0  0  0  0  0
   13.3951   -2.2656   23.7776 C   0  0  0  0  0  0  0  0  0  0  0  0
   14.1422   -1.6571   24.9786 C   0  0  0  0  0  0  0  0  0  0  0  0
   13.5141   -0.4427   25.4028 O   0  0  0  0  0  0  0  0  0  0  0  0
   12.0926   -0.4646   25.4785 C   0  0  0  0  0  0  0  0  0  0  0  0
   11.4315    0.0734   24.2325 C   0  0  0  0  0  0  0  0  0  0  0  0
    8.4362   -0.9568   20.8884 C   0  0  0  0  0  0  0  0  0  0  0  0
    7.0550   -1.5308   21.1465 C   0  0  0  0  0  0  0  0  0  0  0  0
    7.1412   -2.9737   21.3928 N   0  0  0  0  0  0  0  0  0  0  0  0
    6.5398   -4.0073   20.7489 C   0  0  0  0  0  0  0  0  0  0  0  0
    5.7459   -3.7490   19.8457 O   0  0  0  0  0  0  0  0  0  0  0  0
    6.7577   -5.4544   21.0568 C   0  0  0  0  0  0  0  0  0  0  0  0
    5.9336   -6.2036   21.7423 C   0  0  0  0  0  0  0  0  0  0  0  0
  1  2  1  0
  2  3  1  0
  3  4  1  0
  4  5  1  0
  5  6  1  0
  6  7  1  0
  7  8  1  0
  8  9  1  0
  9 10  1  0
 10 11  1  0
 11 12  1  0
  4 13  1  0
 13 14  1  0
 14 15  1  0
 15 16  1  0
 16 17  2  0
 16 18  1  0
 18 19  2  0
 15  2  1  0
 12  6  1  0
M  END
