CVD-0003739|dock_bobby27042020.15|mol2|36|dock1
     RDKit          3D

 21 22  0  0  0  0  0  0  0  0999 V2000
   13.8570    3.7738   22.8368 C   0  0  0  0  0  0  0  0  0  0  0  0
   13.0724    2.4882   22.7390 C   0  0  0  0  0  0  0  0  0  0  0  0
   11.7022    2.5022   22.5378 C   0  0  0  0  0  0  0  0  0  0  0  0
   10.9836    1.3250   22.4469 C   0  0  0  0  0  0  0  0  0  0  0  0
   11.6341    0.1061   22.5609 C   0  0  0  0  0  0  0  0  0  0  0  0
   13.0216    0.0473   22.7573 C   0  0  0  0  0  0  0  0  0  0  0  0
   13.7981   -1.2379   22.8726 C   0  0  0  0  0  0  0  0  0  0  0  0
   13.7052    1.2583   22.8421 C   0  0  0  0  0  0  0  0  0  0  0  0
   10.6398   -1.3560   22.4365 S   0  0  0  0  0  0  0  0  0  0  0  0
    9.7112   -1.3589   23.5254 O   0  0  0  0  0  0  0  0  0  0  0  0
   11.5214   -2.4667   22.2440 O   0  0  0  0  0  0  0  0  0  0  0  0
    9.7512   -1.1999   21.0638 N   0  0  0  0  0  0  0  0  0  0  0  0
    8.5244   -0.5466   21.0034 C   0  0  0  0  0  0  0  0  0  0  0  0
    8.0368   -0.0411   22.0101 O   0  0  0  0  0  0  0  0  0  0  0  0
    7.9620   -0.5388   19.7501 N   0  0  0  0  0  0  0  0  0  0  0  0
    6.7427    0.0149   19.2853 C   0  0  0  0  0  0  0  0  0  0  0  0
    6.2366    1.1240   19.9538 C   0  0  0  0  0  0  0  0  0  0  0  0
    5.0498    1.7100   19.5477 C   0  0  0  0  0  0  0  0  0  0  0  0
    4.3554    1.1992   18.4736 C   0  0  0  0  0  0  0  0  0  0  0  0
    4.8467    0.1006   17.8032 C   0  0  0  0  0  0  0  0  0  0  0  0
    6.0330   -0.4945   18.2000 C   0  0  0  0  0  0  0  0  0  0  0  0
  1  2  1  0
  2  3  2  0
  3  4  1  0
  4  5  2  0
  5  6  1  0
  6  7  1  0
  6  8  2  0
  5  9  1  0
  9 10  2  0
  9 11  2  0
  9 12  1  0
 12 13  1  0
 13 14  2  0
 13 15  1  0
 15 16  1  0
 16 17  2  0
 17 18  1  0
 18 19  2  0
 19 20  1  0
 20 21  2  0
  8  2  1  0
 21 16  1  0
M  END
