CVD-0002119|dock_bobby27042020.35|mol2|33|dock2
     RDKit          3D

 21 21  0  0  0  0  0  0  0  0999 V2000
   10.4160   -0.0055   24.4489 C   0  0  0  0  0  0  0  0  0  0  0  0
   10.8678   -0.2898   23.0334 C   0  0  0  0  0  0  0  0  0  0  0  0
   12.0423    0.5187   22.7238 O   0  0  0  0  0  0  0  0  0  0  0  0
   11.9342    1.8738   22.6757 C   0  0  0  0  0  0  0  0  0  0  0  0
   13.1380    2.5747   22.7096 C   0  0  0  0  0  0  0  0  0  0  0  0
   13.0627    3.9556   22.6591 C   0  0  0  0  0  0  0  0  0  0  0  0
   11.8312    4.5681   22.5787 C   0  0  0  0  0  0  0  0  0  0  0  0
   10.7089    3.7715   22.5508 C   0  0  0  0  0  0  0  0  0  0  0  0
   10.7408    2.4327   22.5976 N   0  0  0  0  0  0  0  0  0  0  0  0
   11.3135   -1.7412   22.8096 C   0  0  0  0  0  0  0  0  0  0  0  0
   12.0836   -1.8586   21.5809 N   0  0  0  0  0  0  0  0  0  0  0  0
   13.4168   -1.7500   21.5634 C   0  0  0  0  0  0  0  0  0  0  0  0
   14.0689   -1.8792   20.2182 C   0  0  0  0  0  0  0  0  0  0  0  0
   14.0687   -1.5422   22.5820 O   0  0  0  0  0  0  0  0  0  0  0  0
   10.1181   -2.6873   22.7470 C   0  0  0  0  0  0  0  0  0  0  0  0
    9.5513   -2.9039   21.6792 O   0  0  0  0  0  0  0  0  0  0  0  0
    9.7401   -3.2565   23.8917 N   0  0  0  0  0  0  0  0  0  0  0  0
    8.6041   -4.1666   23.9512 C   0  0  0  0  0  0  0  0  0  0  0  0
    8.5592   -4.9343   25.2013 C   0  0  0  0  0  0  0  0  0  0  0  0
    8.5157   -5.5032   26.2409 C   0  0  0  0  0  0  0  0  0  0  0  0
    8.4676   -6.3145   27.8481 Br  0  0  0  0  0  0  0  0  0  0  0  0
  2  1  1  0
  2  3  1  0
  3  4  1  0
  4  5  2  0
  5  6  1  0
  6  7  2  0
  7  8  1  0
  8  9  2  0
  2 10  1  0
 10 11  1  0
 11 12  1  0
 12 13  1  0
 12 14  2  0
 10 15  1  0
 15 16  2  0
 15 17  1  0
 17 18  1  0
 18 19  1  0
 19 20  3  0
 20 21  1  0
  9  4  1  0
M  END
