CVD-0001296|dock_bobby27042020.38|mol2|34|dock3
     RDKit          3D

 17 18  0  0  0  0  0  0  0  0999 V2000
    5.2871    0.6147   17.9052 S   0  0  0  0  0  0  0  0  0  0  0  0
    5.6531   -0.8020   18.9055 C   0  0  0  0  0  0  0  0  0  0  0  0
    5.2761   -1.8967   18.5739 O   0  0  0  0  0  0  0  0  0  0  0  0
    6.4560   -0.5017   20.1694 C   0  0  0  0  0  0  0  0  0  0  0  0
    7.8657   -0.0398   19.8219 C   0  0  0  0  0  0  0  0  0  0  0  0
    8.6670    0.2185   21.0813 C   0  0  0  0  0  0  0  0  0  0  0  0
    8.7057   -0.9877   21.9039 N   0  0  0  0  0  0  0  0  0  0  0  0
    7.3779   -1.4381   22.3070 C   0  0  0  0  0  0  0  0  0  0  0  0
    6.5295   -1.7300   21.0737 C   0  0  0  0  0  0  0  0  0  0  0  0
    9.8042   -1.5028   22.4946 C   0  0  0  0  0  0  0  0  0  0  0  0
    9.7192   -2.5141   23.1646 O   0  0  0  0  0  0  0  0  0  0  0  0
   11.1556   -0.8359   22.3299 C   0  0  0  0  0  0  0  0  0  0  0  0
   11.2198    0.4365   23.1422 C   0  0  0  0  0  0  0  0  0  0  0  0
   12.6044    1.0706   23.0589 C   0  0  0  0  0  0  0  0  0  0  0  0
   13.6788    0.1035   23.4828 C   0  0  0  0  0  0  0  0  0  0  0  0
   13.6073   -1.1793   22.6888 C   0  0  0  0  0  0  0  0  0  0  0  0
   12.2258   -1.8151   22.7644 C   0  0  0  0  0  0  0  0  0  0  0  0
  1  2  1  0
  2  3  2  0
  2  4  1  0
  4  5  1  0
  5  6  1  0
  6  7  1  0
  7  8  1  0
  8  9  1  0
  7 10  1  0
 10 11  2  0
 10 12  1  0
 12 13  1  0
 13 14  1  0
 14 15  1  0
 15 16  1  0
 16 17  1  0
  9  4  1  0
 17 12  1  0
M  END
