CVD-0000433|dock_bobby27042020.27|mol2|14|dock2
     RDKit          3D

 29 31  0  0  0  0  0  0  0  0999 V2000
    2.8906    2.8081   19.8286 C   0  0  0  0  0  0  0  0  0  0  0  0
    4.3118    2.3664   19.9873 C   0  0  0  0  0  0  0  0  0  0  0  0
    4.6755    1.3783   18.9853 N   0  0  0  0  0  0  0  0  0  0  0  0
    5.7546    0.5546   19.0875 C   0  0  0  0  0  0  0  0  0  0  0  0
    5.9622   -0.4827   18.1793 C   0  0  0  0  0  0  0  0  0  0  0  0
    7.0806   -1.2778   18.3466 C   0  0  0  0  0  0  0  0  0  0  0  0
    7.9202   -0.9993   19.3969 C   0  0  0  0  0  0  0  0  0  0  0  0
    9.0207   -1.7647   19.5784 F   0  0  0  0  0  0  0  0  0  0  0  0
    7.6720    0.0398   20.2722 C   0  0  0  0  0  0  0  0  0  0  0  0
    8.5802    0.3700   21.4322 C   0  0  0  0  0  0  0  0  0  0  0  0
    9.3109   -0.8044   22.0566 C   0  0  0  0  0  0  0  0  0  0  0  0
   10.7008   -0.7986   22.1271 C   0  0  0  0  0  0  0  0  0  0  0  0
   11.4071   -1.8566   22.6941 C   0  0  0  0  0  0  0  0  0  0  0  0
   12.7880   -1.8461   22.7589 N   0  0  0  0  0  0  0  0  0  0  0  0
   13.5405   -1.0201   23.6834 C   0  0  0  0  0  0  0  0  0  0  0  0
   12.8993    0.3390   23.8862 C   0  0  0  0  0  0  0  0  0  0  0  0
   12.1315    0.5253   24.8244 O   0  0  0  0  0  0  0  0  0  0  0  0
   13.2642    1.2642   22.9660 N   0  0  0  0  0  0  0  0  0  0  0  0
   12.7770    2.5710   22.7178 C   0  0  0  0  0  0  0  0  0  0  0  0
   13.5818    3.6374   22.3295 C   0  0  0  0  0  0  0  0  0  0  0  0
   13.0041    4.8764   22.1119 C   0  0  0  0  0  0  0  0  0  0  0  0
   11.6465    5.0161   22.2870 C   0  0  0  0  0  0  0  0  0  0  0  0
   10.8508    4.0133   22.6581 N   0  0  0  0  0  0  0  0  0  0  0  0
   11.4176    2.8214   22.8658 C   0  0  0  0  0  0  0  0  0  0  0  0
   10.7064   -2.9425   23.2044 C   0  0  0  0  0  0  0  0  0  0  0  0
    9.3256   -2.9683   23.1467 C   0  0  0  0  0  0  0  0  0  0  0  0
    8.6466   -1.9062   22.5772 C   0  0  0  0  0  0  0  0  0  0  0  0
    6.9155   -1.9693   22.5205 Cl  0  0  0  0  0  0  0  0  0  0  0  0
    6.5873    0.8091   20.1052 N   0  0  0  0  0  0  0  0  0  0  0  0
  1  2  1  0
  2  3  1  0
  3  4  1  0
  4  5  2  0
  5  6  1  0
  6  7  2  0
  7  8  1  0
  7  9  1  0
  9 10  1  0
 10 11  1  0
 11 12  2  0
 12 13  1  0
 13 14  1  0
 14 15  1  0
 15 16  1  0
 16 17  2  0
 16 18  1  0
 18 19  1  0
 19 20  2  0
 20 21  1  0
 21 22  2  0
 22 23  1  0
 23 24  2  0
 13 25  2  0
 25 26  1  0
 26 27  2  0
 27 28  1  0
  9 29  2  0
 29  4  1  0
 27 11  1  0
 24 19  1  0
M  END
