CVD-0003491|dock_bobby27042020.87|mol2|41|dock2
     RDKit          3D

 28 29  0  0  0  0  0  0  0  0999 V2000
   12.7482   -1.0244   23.3353 C   0  0  0  0  0  0  0  0  0  0  0  0
   12.8580    0.4826   23.3587 C   0  0  0  0  0  0  0  0  0  0  0  0
   11.5606    1.1599   23.0067 C   0  0  0  0  0  0  0  0  0  0  0  0
   11.6905    2.6071   22.9503 N   0  0  0  0  0  0  0  0  0  0  0  0
   10.6445    3.4847   22.7689 C   0  0  0  0  0  0  0  0  0  0  0  0
    9.3761    3.0133   22.4417 C   0  0  0  0  0  0  0  0  0  0  0  0
    8.3163    3.8623   22.1289 C   0  0  0  0  0  0  0  0  0  0  0  0
    7.0406    3.3579   21.8352 N   0  0  0  0  0  0  0  0  0  0  0  0
    6.5700    2.4448   20.9363 C   0  0  0  0  0  0  0  0  0  0  0  0
    5.2804    2.6036   20.5982 N   0  0  0  0  0  0  0  0  0  0  0  0
    4.8010    1.7201   19.7129 C   0  0  0  0  0  0  0  0  0  0  0  0
    5.5548    0.7028   19.1634 C   0  0  0  0  0  0  0  0  0  0  0  0
    6.8759    0.6314   19.5807 C   0  0  0  0  0  0  0  0  0  0  0  0
    7.3939    1.4952   20.4640 N   0  0  0  0  0  0  0  0  0  0  0  0
    7.7815   -0.4396   19.0418 C   0  0  0  0  0  0  0  0  0  0  0  0
    8.8032   -0.7989   19.8070 N   0  0  0  0  0  0  0  0  0  0  0  0
    7.5573   -0.9415   17.9348 O   0  0  0  0  0  0  0  0  0  0  0  0
    8.5368    5.2506   22.1215 C   0  0  0  0  0  0  0  0  0  0  0  0
    7.4915    6.1131   21.6907 N   0  0  0  0  0  0  0  0  0  0  0  0
    7.1335    7.3477   22.1377 C   0  0  0  0  0  0  0  0  0  0  0  0
    7.7171    7.9303   23.0620 O   0  0  0  0  0  0  0  0  0  0  0  0
    5.9778    8.0201   21.4843 C   0  0  0  0  0  0  0  0  0  0  0  0
    5.6153    9.2723   21.6169 C   0  0  0  0  0  0  0  0  0  0  0  0
    9.7835    5.7215   22.5318 C   0  0  0  0  0  0  0  0  0  0  0  0
   10.8250    4.8728   22.8946 C   0  0  0  0  0  0  0  0  0  0  0  0
   12.0545    5.4143   23.3918 N   0  0  0  0  0  0  0  0  0  0  0  0
   12.0539    6.1297   24.6578 C   0  0  0  0  0  0  0  0  0  0  0  0
   13.2170    5.5158   22.5229 C   0  0  0  0  0  0  0  0  0  0  0  0
  1  2  1  0
  2  3  1  0
  3  4  1  0
  4  5  1  0
  5  6  2  0
  6  7  1  0
  7  8  1  0
  8  9  1  0
  9 10  2  0
 10 11  1  0
 11 12  2  0
 12 13  1  0
 13 14  2  0
 13 15  1  0
 15 16  1  0
 15 17  2  0
  7 18  2  0
 18 19  1  0
 19 20  1  0
 20 21  2  0
 20 22  1  0
 22 23  2  0
 18 24  1  0
 24 25  2  0
 25 26  1  0
 26 27  1  0
 26 28  1  0
 25  5  1  0
 14  9  1  0
M  END
