CVD-0000150|dock_bobby27042020.42|mol2|31|dock2
     RDKit          3D

 19 20  0  0  0  0  0  0  0  0999 V2000
    4.9730    0.9874   19.2707 C   0  0  0  0  0  0  0  0  0  0  0  0
    6.0220    0.2752   18.0578 S   0  0  0  0  0  0  0  0  0  0  0  0
    6.1605    1.1935   16.9586 O   0  0  0  0  0  0  0  0  0  0  0  0
    5.5554   -1.0519   17.7539 O   0  0  0  0  0  0  0  0  0  0  0  0
    7.6133    0.1260   18.8475 C   0  0  0  0  0  0  0  0  0  0  0  0
    7.6505   -0.8992   19.9043 C   0  0  0  0  0  0  0  0  0  0  0  0
    6.7433   -1.7609   20.3831 C   0  0  0  0  0  0  0  0  0  0  0  0
    7.3540   -2.4967   21.3964 C   0  0  0  0  0  0  0  0  0  0  0  0
    8.6264   -2.0566   21.5048 C   0  0  0  0  0  0  0  0  0  0  0  0
    8.8402   -1.0558   20.5823 O   0  0  0  0  0  0  0  0  0  0  0  0
    9.7172   -2.4709   22.4012 C   0  0  0  0  0  0  0  0  0  0  0  0
    9.5549   -3.4753   23.0913 O   0  0  0  0  0  0  0  0  0  0  0  0
   10.8416   -1.7050   22.4039 N   0  0  0  0  0  0  0  0  0  0  0  0
   12.0466   -1.8329   23.1396 C   0  0  0  0  0  0  0  0  0  0  0  0
   12.2835   -2.8177   24.0940 C   0  0  0  0  0  0  0  0  0  0  0  0
   13.5014   -2.8448   24.7514 C   0  0  0  0  0  0  0  0  0  0  0  0
   14.4457   -1.8938   24.4405 C   0  0  0  0  0  0  0  0  0  0  0  0
   14.2482   -0.9390   23.5319 N   0  0  0  0  0  0  0  0  0  0  0  0
   13.0695   -0.9215   22.9031 C   0  0  0  0  0  0  0  0  0  0  0  0
  1  2  1  0
  2  3  2  0
  2  4  2  0
  2  5  1  0
  5  6  1  0
  6  7  2  0
  7  8  1  0
  8  9  2  0
  9 10  1  0
  9 11  1  0
 11 12  2  0
 11 13  1  0
 13 14  1  0
 14 15  2  0
 15 16  1  0
 16 17  2  0
 17 18  1  0
 18 19  2  0
 10  6  1  0
 19 14  1  0
M  END
