CVD-0002741|dock_bobby27042020.47|mol2|28|dock2
     RDKit          3D

 22 23  0  0  0  0  0  0  0  0999 V2000
    9.9033   -5.8532   25.8951 O   0  0  0  0  0  0  0  0  0  0  0  0
    9.0004   -5.5031   24.8585 C   0  0  0  0  0  0  0  0  0  0  0  0
    9.4904   -4.2870   24.1021 C   0  0  0  0  0  0  0  0  0  0  0  0
    8.7058   -4.0160   22.8459 C   0  0  0  0  0  0  0  0  0  0  0  0
    8.8649   -2.8244   22.1551 C   0  0  0  0  0  0  0  0  0  0  0  0
    8.1283   -2.6055   20.9952 C   0  0  0  0  0  0  0  0  0  0  0  0
    8.2777   -1.3125   20.2266 C   0  0  0  0  0  0  0  0  0  0  0  0
    7.0478   -0.9189   19.5248 N   0  0  0  0  0  0  0  0  0  0  0  0
    7.2972    0.2422   18.6654 C   0  0  0  0  0  0  0  0  0  0  0  0
    6.0349    0.6189   17.9123 C   0  0  0  0  0  0  0  0  0  0  0  0
    4.9469    0.9073   18.8492 N   0  0  0  0  0  0  0  0  0  0  0  0
    4.7123   -0.2142   19.7640 C   0  0  0  0  0  0  0  0  0  0  0  0
    5.9966   -0.5858   20.4826 C   0  0  0  0  0  0  0  0  0  0  0  0
    4.2486    2.0607   18.8262 C   0  0  0  0  0  0  0  0  0  0  0  0
    4.4796    2.9411   18.0070 O   0  0  0  0  0  0  0  0  0  0  0  0
    3.1626    2.2164   19.8726 C   0  0  0  0  0  0  0  0  0  0  0  0
    2.3405    3.7725   19.6998 Cl  0  0  0  0  0  0  0  0  0  0  0  0
    7.2512   -3.6194   20.5764 C   0  0  0  0  0  0  0  0  0  0  0  0
    7.1557   -4.7899   21.3375 C   0  0  0  0  0  0  0  0  0  0  0  0
    7.8690   -4.9856   22.4506 N   0  0  0  0  0  0  0  0  0  0  0  0
    6.4568   -3.4723   19.3846 C   0  0  0  0  0  0  0  0  0  0  0  0
    5.8519   -3.3704   18.4210 N   0  0  0  0  0  0  0  0  0  0  0  0
  1  2  1  0
  2  3  1  0
  3  4  1  0
  4  5  2  0
  5  6  1  0
  6  7  1  0
  7  8  1  0
  8  9  1  0
  9 10  1  0
 10 11  1  0
 11 12  1  0
 12 13  1  0
 11 14  1  0
 14 15  2  0
 14 16  1  0
 16 17  1  0
  6 18  2  0
 18 19  1  0
 19 20  2  0
 18 21  1  0
 21 22  3  0
 20  4  1  0
 13  8  1  0
M  END
