CVD-0002094|dock_bobby27042020.93|mol2|5|dock3
     RDKit          3D

 33 37  0  0  0  0  0  0  0  0999 V2000
    5.9743    4.4774   23.2264 O   0  0  0  0  0  0  0  0  0  0  0  0
    6.9893    4.5244   22.2272 C   0  0  0  0  0  0  0  0  0  0  0  0
    7.7712    3.2257   21.9563 C   0  0  0  0  0  0  0  0  0  0  0  0
    6.9754    1.9328   21.9712 C   0  0  0  0  0  0  0  0  0  0  0  0
    7.6920    0.7456   21.4999 N   0  0  0  0  0  0  0  0  0  0  0  0
    6.9827   -0.5101   21.7552 C   0  0  0  0  0  0  0  0  0  0  0  0
    6.3218   -1.0350   20.4929 C   0  0  0  0  0  0  0  0  0  0  0  0
    5.6430    0.0529   19.6963 C   0  0  0  0  0  0  0  0  0  0  0  0
    6.2147    0.5419   18.5318 C   0  0  0  0  0  0  0  0  0  0  0  0
    5.5908    1.5376   17.7989 C   0  0  0  0  0  0  0  0  0  0  0  0
    4.3860    2.0565   18.2216 C   0  0  0  0  0  0  0  0  0  0  0  0
    3.8055    1.5790   19.3768 C   0  0  0  0  0  0  0  0  0  0  0  0
    4.4303    0.5832   20.1089 C   0  0  0  0  0  0  0  0  0  0  0  0
    8.8284    3.1881   22.9267 O   0  0  0  0  0  0  0  0  0  0  0  0
    9.0438    4.5024   23.4760 C   0  0  0  0  0  0  0  0  0  0  0  0
    8.1974    5.4266   22.6166 C   0  0  0  0  0  0  0  0  0  0  0  0
    7.8825    6.6820   23.1464 F   0  0  0  0  0  0  0  0  0  0  0  0
   10.4672    4.8644   23.4064 N   0  0  0  0  0  0  0  0  0  0  0  0
   11.0202    6.1077   23.5933 C   0  0  0  0  0  0  0  0  0  0  0  0
   12.3339    6.1185   23.4834 N   0  0  0  0  0  0  0  0  0  0  0  0
   12.6591    4.7983   23.2171 C   0  0  0  0  0  0  0  0  0  0  0  0
   11.5269    4.0205   23.1713 C   0  0  0  0  0  0  0  0  0  0  0  0
   11.4975    2.7089   22.9412 N   0  0  0  0  0  0  0  0  0  0  0  0
   12.6439    2.1179   22.7431 C   0  0  0  0  0  0  0  0  0  0  0  0
   13.8358    2.7902   22.7611 N   0  0  0  0  0  0  0  0  0  0  0  0
   13.9281    4.1564   22.9957 C   0  0  0  0  0  0  0  0  0  0  0  0
   15.0309    4.7015   22.9993 O   0  0  0  0  0  0  0  0  0  0  0  0
   12.7027    0.6478   22.4722 C   0  0  0  0  0  0  0  0  0  0  0  0
   11.3118    0.0896   22.2803 C   0  0  0  0  0  0  0  0  0  0  0  0
   11.3496   -1.4238   22.0939 C   0  0  0  0  0  0  0  0  0  0  0  0
   12.0509   -2.1021   23.2417 C   0  0  0  0  0  0  0  0  0  0  0  0
   13.4345   -1.5342   23.4524 C   0  0  0  0  0  0  0  0  0  0  0  0
   13.4040   -0.0228   23.6347 C   0  0  0  0  0  0  0  0  0  0  0  0
  1  2  1  0
  2  3  1  0
  3  4  1  0
  4  5  1  0
  5  6  1  0
  6  7  1  0
  7  8  1  0
  8  9  2  0
  9 10  1  0
 10 11  2  0
 11 12  1  0
 12 13  2  0
  3 14  1  0
 14 15  1  0
 15 16  1  0
 16 17  1  0
 15 18  1  0
 18 19  1  0
 19 20  2  0
 20 21  1  0
 21 22  2  0
 22 23  1  0
 23 24  2  0
 24 25  1  0
 25 26  1  0
 26 27  2  0
 24 28  1  0
 28 29  1  0
 29 30  1  0
 30 31  1  0
 31 32  1  0
 32 33  1  0
 16  2  1  0
 22 18  1  0
 33 28  1  0
 13  8  1  0
 26 21  1  0
M  END
