CVD-0000161|dock_bobby27042020.71|mol2|16|dock3
     RDKit          3D

 24 25  0  0  0  0  0  0  0  0999 V2000
    6.9112   -4.7862   28.7227 O   0  0  0  0  0  0  0  0  0  0  0  0
    7.4891   -5.1933   27.5628 C   0  0  0  0  0  0  0  0  0  0  0  0
    7.3969   -4.4132   26.4216 C   0  0  0  0  0  0  0  0  0  0  0  0
    7.9932   -4.8386   25.2346 C   0  0  0  0  0  0  0  0  0  0  0  0
    7.9368   -4.0898   24.0329 N   0  0  0  0  0  0  0  0  0  0  0  0
    7.1855   -3.0157   23.6853 C   0  0  0  0  0  0  0  0  0  0  0  0
    6.3529   -2.4419   24.3846 O   0  0  0  0  0  0  0  0  0  0  0  0
    7.4802   -2.5464   22.2547 C   0  0  0  0  0  0  0  0  0  0  0  0
    8.4206   -3.0109   21.6134 O   0  0  0  0  0  0  0  0  0  0  0  0
    6.5999   -1.6028   21.8376 N   0  0  0  0  0  0  0  0  0  0  0  0
    6.4961   -0.9022   20.6104 C   0  0  0  0  0  0  0  0  0  0  0  0
    7.5226   -0.8698   19.6666 C   0  0  0  0  0  0  0  0  0  0  0  0
    7.3570   -0.1654   18.4851 C   0  0  0  0  0  0  0  0  0  0  0  0
    8.3518   -0.1289   17.5610 O   0  0  0  0  0  0  0  0  0  0  0  0
    6.1726    0.5169   18.2214 C   0  0  0  0  0  0  0  0  0  0  0  0
    6.0158    1.2085   17.0565 O   0  0  0  0  0  0  0  0  0  0  0  0
    5.1512    0.4818   19.1659 C   0  0  0  0  0  0  0  0  0  0  0  0
    3.9957    1.1477   18.9084 O   0  0  0  0  0  0  0  0  0  0  0  0
    5.3105   -0.2204   20.3488 C   0  0  0  0  0  0  0  0  0  0  0  0
    8.6777   -6.0509   25.2141 C   0  0  0  0  0  0  0  0  0  0  0  0
    8.7661   -6.8261   26.3583 C   0  0  0  0  0  0  0  0  0  0  0  0
    9.4333   -8.0092   26.3411 O   0  0  0  0  0  0  0  0  0  0  0  0
    8.1729   -6.4057   27.5449 C   0  0  0  0  0  0  0  0  0  0  0  0
    8.2599   -7.1691   28.6717 O   0  0  0  0  0  0  0  0  0  0  0  0
  1  2  1  0
  2  3  2  0
  3  4  1  0
  4  5  1  0
  5  6  1  0
  6  7  2  0
  6  8  1  0
  8  9  2  0
  8 10  1  0
 10 11  1  0
 11 12  2  0
 12 13  1  0
 13 14  1  0
 13 15  2  0
 15 16  1  0
 15 17  1  0
 17 18  1  0
 17 19  2  0
  4 20  2  0
 20 21  1  0
 21 22  1  0
 21 23  2  0
 23 24  1  0
 23  2  1  0
 19 11  1  0
M  END
