CVD-0000959|dock_bobby27042020.54|mol2|16|dock1
     RDKit          3D

 23 25  0  0  0  0  0  0  0  0999 V2000
    6.8596   -5.4741   21.8156 C   0  0  0  0  0  0  0  0  0  0  0  0
    6.3844   -4.1773   21.2290 C   0  0  0  0  0  0  0  0  0  0  0  0
    5.2278   -4.0475   20.8422 O   0  0  0  0  0  0  0  0  0  0  0  0
    7.3376   -3.2100   21.1921 N   0  0  0  0  0  0  0  0  0  0  0  0
    7.2792   -1.8637   20.7396 C   0  0  0  0  0  0  0  0  0  0  0  0
    6.4138   -1.4471   19.7296 C   0  0  0  0  0  0  0  0  0  0  0  0
    6.2139   -0.1648   19.4149 N   0  0  0  0  0  0  0  0  0  0  0  0
    6.8812    0.7588   20.1086 C   0  0  0  0  0  0  0  0  0  0  0  0
    7.7579    0.4700   21.1227 C   0  0  0  0  0  0  0  0  0  0  0  0
    8.3233    1.6046   21.9487 C   0  0  0  0  0  0  0  0  0  0  0  0
    9.3854    1.1698   22.8499 N   0  0  0  0  0  0  0  0  0  0  0  0
    9.1304   -0.1194   23.5014 C   0  0  0  0  0  0  0  0  0  0  0  0
    9.0459   -1.2021   22.4504 C   0  0  0  0  0  0  0  0  0  0  0  0
    7.9693   -0.8651   21.4535 C   0  0  0  0  0  0  0  0  0  0  0  0
   10.5921    1.7758   23.0480 C   0  0  0  0  0  0  0  0  0  0  0  0
   11.5209    1.1450   23.5382 O   0  0  0  0  0  0  0  0  0  0  0  0
   10.7478    3.0677   22.6991 N   0  0  0  0  0  0  0  0  0  0  0  0
   12.0241    3.7609   22.8748 C   0  0  0  0  0  0  0  0  0  0  0  0
   12.8857    3.6741   21.5983 C   0  0  0  0  0  0  0  0  0  0  0  0
   14.1951    4.4504   21.7250 C   0  0  0  0  0  0  0  0  0  0  0  0
   13.9449    5.8980   22.1277 C   0  0  0  0  0  0  0  0  0  0  0  0
   13.1215    5.9782   23.4050 C   0  0  0  0  0  0  0  0  0  0  0  0
   11.7986    5.2338   23.2565 C   0  0  0  0  0  0  0  0  0  0  0  0
  1  2  1  0
  2  3  2  0
  2  4  1  0
  4  5  1  0
  5  6  2  0
  6  7  1  0
  7  8  2  0
  8  9  1  0
  9 10  1  0
 10 11  1  0
 11 12  1  0
 12 13  1  0
 13 14  1  0
 11 15  1  0
 15 16  2  0
 15 17  1  0
 17 18  1  0
 18 19  1  0
 19 20  1  0
 20 21  1  0
 21 22  1  0
 22 23  1  0
 14  5  1  0
 23 18  1  0
 14  9  2  0
M  END
