CVD-0001149|dock_bobby27042020.24|mol2|44|dock2
     RDKit          3D

 28 31  0  0  0  0  0  0  0  0999 V2000
    7.8332   -6.9171   22.6080 Cl  0  0  0  0  0  0  0  0  0  0  0  0
    6.5098   -6.2683   21.6308 C   0  0  0  0  0  0  0  0  0  0  0  0
    5.9058   -5.0289   22.2631 C   0  0  0  0  0  0  0  0  0  0  0  0
    4.7126   -4.9891   22.5355 O   0  0  0  0  0  0  0  0  0  0  0  0
    6.7097   -3.9703   22.5117 N   0  0  0  0  0  0  0  0  0  0  0  0
    8.1456   -3.8866   22.2273 C   0  0  0  0  0  0  0  0  0  0  0  0
    8.4796   -2.5799   21.5557 C   0  0  0  0  0  0  0  0  0  0  0  0
    8.0426   -1.4411   22.3798 N   0  0  0  0  0  0  0  0  0  0  0  0
    6.5928   -1.5444   22.5523 C   0  0  0  0  0  0  0  0  0  0  0  0
    6.2215   -2.8201   23.2701 C   0  0  0  0  0  0  0  0  0  0  0  0
    8.4093   -0.1537   21.7506 C   0  0  0  0  0  0  0  0  0  0  0  0
    8.5259    0.8702   22.8931 C   0  0  0  0  0  0  0  0  0  0  0  0
    8.9589    2.2283   22.4198 C   0  0  0  0  0  0  0  0  0  0  0  0
    8.1722    3.0120   21.7773 N   0  0  0  0  0  0  0  0  0  0  0  0
    6.7778    2.5977   21.5869 C   0  0  0  0  0  0  0  0  0  0  0  0
    6.7388    1.4544   20.6134 C   0  0  0  0  0  0  0  0  0  0  0  0
    6.0389    1.5046   19.4287 N   0  0  0  0  0  0  0  0  0  0  0  0
    6.3693    0.3889   18.7689 C   0  0  0  0  0  0  0  0  0  0  0  0
    7.2149   -0.3321   19.4634 N   0  0  0  0  0  0  0  0  0  0  0  0
    7.4824    0.3137   20.6591 C   0  0  0  0  0  0  0  0  0  0  0  0
   10.3597    2.7538   22.6418 C   0  0  0  0  0  0  0  0  0  0  0  0
   11.4441    1.8793   22.6036 C   0  0  0  0  0  0  0  0  0  0  0  0
   12.7367    2.3265   22.8114 C   0  0  0  0  0  0  0  0  0  0  0  0
   12.9824    3.6703   23.0647 C   0  0  0  0  0  0  0  0  0  0  0  0
   11.9104    4.5536   23.1022 C   0  0  0  0  0  0  0  0  0  0  0  0
   10.6204    4.1000   22.8907 C   0  0  0  0  0  0  0  0  0  0  0  0
   14.3278    4.1407   23.2849 C   0  0  0  0  0  0  0  0  0  0  0  0
   15.3992    4.4864   23.4784 N   0  0  0  0  0  0  0  0  0  0  0  0
  1  2  1  0
  2  3  1  0
  3  4  2  0
  3  5  1  0
  5  6  1  0
  6  7  1  0
  7  8  1  0
  8  9  1  0
  9 10  1  0
  8 11  1  0
 11 12  1  0
 12 13  1  0
 13 14  2  0
 14 15  1  0
 15 16  1  0
 16 17  1  0
 17 18  1  0
 18 19  2  0
 19 20  1  0
 13 21  1  0
 21 22  2  0
 22 23  1  0
 23 24  2  0
 24 25  1  0
 25 26  2  0
 24 27  1  0
 27 28  3  0
 10  5  1  0
 20 11  1  0
 26 21  1  0
 20 16  2  0
M  END
