CVD-0002055|dock_bobby27042020.7|mol2|32|dock1
     RDKit          3D

 34 37  0  0  0  0  0  0  0  0999 V2000
   13.9360    6.2433   22.0341 C   0  0  0  0  0  0  0  0  0  0  0  0
   13.6407    4.8255   22.2568 N   0  0  0  0  0  0  0  0  0  0  0  0
   12.2681    4.4314   21.9222 C   0  0  0  0  0  0  0  0  0  0  0  0
   11.9806    3.0110   22.3326 C   0  0  0  0  0  0  0  0  0  0  0  0
   12.9518    2.0345   22.6150 C   0  0  0  0  0  0  0  0  0  0  0  0
   12.3399    0.8385   22.9396 C   0  0  0  0  0  0  0  0  0  0  0  0
   13.0526   -0.4142   23.2916 C   0  0  0  0  0  0  0  0  0  0  0  0
   13.6232   -0.4682   24.5648 C   0  0  0  0  0  0  0  0  0  0  0  0
   14.2682   -1.6090   25.0120 C   0  0  0  0  0  0  0  0  0  0  0  0
   14.3645   -2.7175   24.2010 C   0  0  0  0  0  0  0  0  0  0  0  0
   13.8412   -2.6837   22.9212 C   0  0  0  0  0  0  0  0  0  0  0  0
   13.2266   -1.5328   22.4876 C   0  0  0  0  0  0  0  0  0  0  0  0
   12.7993   -1.5222   21.2070 F   0  0  0  0  0  0  0  0  0  0  0  0
   10.9399    1.0863   22.8743 N   0  0  0  0  0  0  0  0  0  0  0  0
   10.7420    2.4086   22.4953 C   0  0  0  0  0  0  0  0  0  0  0  0
    9.5804    0.1162   23.1751 S   0  0  0  0  0  0  0  0  0  0  0  0
    8.6795    0.8757   23.9851 O   0  0  0  0  0  0  0  0  0  0  0  0
   10.1100   -1.1088   23.6887 O   0  0  0  0  0  0  0  0  0  0  0  0
    8.8471   -0.2455   21.6169 C   0  0  0  0  0  0  0  0  0  0  0  0
    9.2436   -1.3486   20.8860 C   0  0  0  0  0  0  0  0  0  0  0  0
    8.7059   -1.6555   19.7023 N   0  0  0  0  0  0  0  0  0  0  0  0
    7.7497   -0.8505   19.2288 C   0  0  0  0  0  0  0  0  0  0  0  0
    7.2842    0.2754   19.8834 C   0  0  0  0  0  0  0  0  0  0  0  0
    6.1964    1.1357   19.2871 C   0  0  0  0  0  0  0  0  0  0  0  0
    4.8547    0.6713   19.5786 N   0  0  0  0  0  0  0  0  0  0  0  0
    3.7703    1.4922   19.6216 C   0  0  0  0  0  0  0  0  0  0  0  0
    3.6723    2.5840   18.7608 C   0  0  0  0  0  0  0  0  0  0  0  0
    2.5507    3.3892   18.8428 C   0  0  0  0  0  0  0  0  0  0  0  0
    1.5580    3.0959   19.7706 C   0  0  0  0  0  0  0  0  0  0  0  0
    1.7477    1.9841   20.5860 C   0  0  0  0  0  0  0  0  0  0  0  0
    2.8259    1.1949   20.5198 N   0  0  0  0  0  0  0  0  0  0  0  0
    0.3753    3.9132   19.8842 C   0  0  0  0  0  0  0  0  0  0  0  0
   -0.5785    4.5376   19.9573 N   0  0  0  0  0  0  0  0  0  0  0  0
    7.8537    0.5780   21.1128 C   0  0  0  0  0  0  0  0  0  0  0  0
  1  2  1  0
  2  3  1  0
  3  4  1  0
  4  5  1  0
  5  6  2  0
  6  7  1  0
  7  8  2  0
  8  9  1  0
  9 10  2  0
 10 11  1  0
 11 12  2  0
 12 13  1  0
  6 14  1  0
 14 15  1  0
 14 16  1  0
 16 17  2  0
 16 18  2  0
 16 19  1  0
 19 20  2  0
 20 21  1  0
 21 22  2  0
 22 23  1  0
 23 24  1  0
 24 25  1  0
 25 26  1  0
 26 27  2  0
 27 28  1  0
 28 29  2  0
 29 30  1  0
 30 31  2  0
 29 32  1  0
 32 33  3  0
 23 34  2  0
 15  4  2  0
 34 19  1  0
 12  7  1  0
 31 26  1  0
M  END
