CVD-0002877|dock_bobby27042020.61|mol2|36|dock3
     RDKit          3D

 31 36  0  0  0  0  0  0  0  0999 V2000
    8.8123   -0.1924   24.6458 O   0  0  0  0  0  0  0  0  0  0  0  0
    9.3721    0.7561   24.1462 C   0  0  0  0  0  0  0  0  0  0  0  0
    8.8778    2.0267   24.0234 N   0  0  0  0  0  0  0  0  0  0  0  0
    7.5174    2.3948   24.3956 C   0  0  0  0  0  0  0  0  0  0  0  0
    6.5591    2.2505   23.2561 C   0  0  0  0  0  0  0  0  0  0  0  0
    6.7939    2.1192   21.9202 C   0  0  0  0  0  0  0  0  0  0  0  0
    5.5783    2.0203   21.3583 N   0  0  0  0  0  0  0  0  0  0  0  0
    5.2270    1.8884   19.9399 C   0  0  0  0  0  0  0  0  0  0  0  0
    5.8636    0.6753   19.3054 C   0  0  0  0  0  0  0  0  0  0  0  0
    7.1834    0.7077   18.8828 C   0  0  0  0  0  0  0  0  0  0  0  0
    7.7666   -0.4039   18.2977 C   0  0  0  0  0  0  0  0  0  0  0  0
    7.0357   -1.5602   18.1278 C   0  0  0  0  0  0  0  0  0  0  0  0
    5.7220   -1.6048   18.5423 C   0  0  0  0  0  0  0  0  0  0  0  0
    5.1391   -0.4931   19.1275 C   0  0  0  0  0  0  0  0  0  0  0  0
    4.6143    2.1061   22.2898 N   0  0  0  0  0  0  0  0  0  0  0  0
    5.2152    2.2350   23.4519 N   0  0  0  0  0  0  0  0  0  0  0  0
    9.7840    2.8780   23.3853 C   0  0  0  0  0  0  0  0  0  0  0  0
    9.6932    4.2493   23.1634 C   0  0  0  0  0  0  0  0  0  0  0  0
   10.7752    4.9044   22.5974 C   0  0  0  0  0  0  0  0  0  0  0  0
   11.9200    4.2130   22.2600 C   0  0  0  0  0  0  0  0  0  0  0  0
   12.0077    2.8488   22.4818 C   0  0  0  0  0  0  0  0  0  0  0  0
   10.9367    2.1750   23.0466 C   0  0  0  0  0  0  0  0  0  0  0  0
   10.7664    0.7556   23.5031 C   0  0  0  0  0  0  0  0  0  0  0  0
   10.8551   -0.2260   22.4548 O   0  0  0  0  0  0  0  0  0  0  0  0
   12.0550   -0.8725   22.6687 C   0  0  0  0  0  0  0  0  0  0  0  0
   12.6608   -1.8450   21.8882 C   0  0  0  0  0  0  0  0  0  0  0  0
   13.7649   -2.5016   22.4154 C   0  0  0  0  0  0  0  0  0  0  0  0
   14.2431   -2.1938   23.6780 C   0  0  0  0  0  0  0  0  0  0  0  0
   13.6333   -1.2190   24.4565 C   0  0  0  0  0  0  0  0  0  0  0  0
   12.5316   -0.5664   23.9258 C   0  0  0  0  0  0  0  0  0  0  0  0
   11.7330    0.3890   24.5112 O   0  0  0  0  0  0  0  0  0  0  0  0
  1  2  2  0
  2  3  1  0
  3  4  1  0
  4  5  1  0
  5  6  2  0
  6  7  1  0
  7  8  1  0
  8  9  1  0
  9 10  2  0
 10 11  1  0
 11 12  2  0
 12 13  1  0
 13 14  2  0
  7 15  1  0
 15 16  2  0
  3 17  1  0
 17 18  2  0
 18 19  1  0
 19 20  2  0
 20 21  1  0
 21 22  2  0
 22 23  1  0
 23 24  1  0
 24 25  1  0
 25 26  2  0
 26 27  1  0
 27 28  2  0
 28 29  1  0
 29 30  2  0
 30 31  1  0
 23  2  1  0
 31 23  1  0
 16  5  1  0
 22 17  1  0
 30 25  1  0
 14  9  1  0
M  END
