CVD-0003561|dock_bobby27042020.45|mol2|1|dock2
     RDKit          3D

 26 29  0  0  0  0  0  0  0  0999 V2000
    4.6888    1.8260   18.3703 N   0  0  0  0  0  0  0  0  0  0  0  0
    5.4983    0.6282   17.6826 S   0  0  0  0  0  0  0  0  0  0  0  0
    4.5395   -0.2085   17.0256 O   0  0  0  0  0  0  0  0  0  0  0  0
    6.5487    1.2171   16.9076 O   0  0  0  0  0  0  0  0  0  0  0  0
    6.2576   -0.3368   18.9537 C   0  0  0  0  0  0  0  0  0  0  0  0
    5.7032   -1.5539   19.3043 C   0  0  0  0  0  0  0  0  0  0  0  0
    6.2479   -2.2494   20.3630 C   0  0  0  0  0  0  0  0  0  0  0  0
    7.3334   -1.7522   21.0755 C   0  0  0  0  0  0  0  0  0  0  0  0
    8.0498   -2.5430   22.1308 C   0  0  0  0  0  0  0  0  0  0  0  0
    9.5512   -2.4452   21.8496 C   0  0  0  0  0  0  0  0  0  0  0  0
   10.0437   -0.9994   21.8824 C   0  0  0  0  0  0  0  0  0  0  0  0
    8.9883   -0.0384   21.4798 N   0  0  0  0  0  0  0  0  0  0  0  0
    9.1234    1.2482   21.9262 C   0  0  0  0  0  0  0  0  0  0  0  0
    8.2938    2.1315   21.7521 O   0  0  0  0  0  0  0  0  0  0  0  0
   10.4025    1.5940   22.6694 C   0  0  0  0  0  0  0  0  0  0  0  0
   10.6637    3.0678   22.7576 C   0  0  0  0  0  0  0  0  0  0  0  0
    9.7958    4.0358   23.1707 C   0  0  0  0  0  0  0  0  0  0  0  0
   10.3889    5.2691   23.1166 N   0  0  0  0  0  0  0  0  0  0  0  0
   11.6660    5.1175   22.6622 C   0  0  0  0  0  0  0  0  0  0  0  0
   12.5812    6.0817   22.4658 N   0  0  0  0  0  0  0  0  0  0  0  0
   13.7757    5.6809   22.0096 C   0  0  0  0  0  0  0  0  0  0  0  0
   14.0947    4.3667   21.7424 C   0  0  0  0  0  0  0  0  0  0  0  0
   13.1389    3.3848   21.9505 C   0  0  0  0  0  0  0  0  0  0  0  0
   11.8803    3.7494   22.4243 C   0  0  0  0  0  0  0  0  0  0  0  0
    7.8911   -0.5150   20.7137 C   0  0  0  0  0  0  0  0  0  0  0  0
    7.3421    0.1921   19.6418 C   0  0  0  0  0  0  0  0  0  0  0  0
  1  2  1  0
  2  3  2  0
  2  4  2  0
  2  5  1  0
  5  6  2  0
  6  7  1  0
  7  8  2  0
  8  9  1  0
  9 10  1  0
 10 11  1  0
 11 12  1  0
 12 13  1  0
 13 14  2  0
 13 15  1  0
 15 16  1  0
 16 17  2  0
 17 18  1  0
 18 19  1  0
 19 20  2  0
 20 21  1  0
 21 22  2  0
 22 23  1  0
 23 24  2  0
 12 25  1  0
 25 26  2  0
 26  5  1  0
 25  8  1  0
 24 16  1  0
 24 19  1  0
M  END
