CVD-0001238|dock_bobby27042020.38|mol2|43|dock1
     RDKit          3D

 25 27  0  0  0  0  0  0  0  0999 V2000
   13.5466   -0.2860   22.5307 C   0  0  0  0  0  0  0  0  0  0  0  0
   13.4289   -1.6287   21.8801 C   0  0  0  0  0  0  0  0  0  0  0  0
   12.0407   -1.9778   21.6282 N   0  0  0  0  0  0  0  0  0  0  0  0
   11.1932   -2.3660   22.5938 C   0  0  0  0  0  0  0  0  0  0  0  0
   11.6439   -3.3072   23.4479 N   0  0  0  0  0  0  0  0  0  0  0  0
   10.8965   -3.6224   24.5113 C   0  0  0  0  0  0  0  0  0  0  0  0
    9.6519   -3.0642   24.7734 C   0  0  0  0  0  0  0  0  0  0  0  0
    9.1425   -2.1484   23.8611 C   0  0  0  0  0  0  0  0  0  0  0  0
    9.8949   -1.8191   22.7393 C   0  0  0  0  0  0  0  0  0  0  0  0
    9.2791   -0.9182   21.7981 N   0  0  0  0  0  0  0  0  0  0  0  0
    9.7387    0.4672   21.8430 C   0  0  0  0  0  0  0  0  0  0  0  0
    8.2730   -1.3158   20.8817 C   0  0  0  0  0  0  0  0  0  0  0  0
    7.6690   -0.5067   19.9823 C   0  0  0  0  0  0  0  0  0  0  0  0
    6.7360   -1.1998   19.2315 N   0  0  0  0  0  0  0  0  0  0  0  0
    5.9735   -0.5699   18.2271 C   0  0  0  0  0  0  0  0  0  0  0  0
    6.1613    0.8896   17.9359 C   0  0  0  0  0  0  0  0  0  0  0  0
    5.1606   -1.2304   17.5900 O   0  0  0  0  0  0  0  0  0  0  0  0
    6.7315   -2.5422   19.6640 C   0  0  0  0  0  0  0  0  0  0  0  0
    5.9994   -3.6617   19.2654 C   0  0  0  0  0  0  0  0  0  0  0  0
    6.2283   -4.8750   19.8927 C   0  0  0  0  0  0  0  0  0  0  0  0
    7.1634   -4.9875   20.8974 C   0  0  0  0  0  0  0  0  0  0  0  0
    7.8945   -3.8853   21.3026 C   0  0  0  0  0  0  0  0  0  0  0  0
    7.6876   -2.6456   20.6935 C   0  0  0  0  0  0  0  0  0  0  0  0
    8.9051   -3.4233   25.9536 C   0  0  0  0  0  0  0  0  0  0  0  0
    8.3000   -3.6773   26.8886 N   0  0  0  0  0  0  0  0  0  0  0  0
  1  2  1  0
  2  3  1  0
  3  4  1  0
  4  5  2  0
  5  6  1  0
  6  7  2  0
  7  8  1  0
  8  9  2  0
  9 10  1  0
 10 11  1  0
 10 12  1  0
 12 13  2  0
 13 14  1  0
 14 15  1  0
 15 16  1  0
 15 17  2  0
 14 18  1  0
 18 19  2  0
 19 20  1  0
 20 21  2  0
 21 22  1  0
 22 23  2  0
  7 24  1  0
 24 25  3  0
  9  4  1  0
 23 12  1  0
 23 18  1  0
M  END
