CVD-0001196|dock_bobby27042020.39|mol2|5|dock1
     RDKit          3D

 30 33  0  0  0  0  0  0  0  0999 V2000
   11.2625    6.2996   25.7526 C   0  0  0  0  0  0  0  0  0  0  0  0
   12.3794    5.8414   24.8617 C   0  0  0  0  0  0  0  0  0  0  0  0
   13.4195    5.3767   25.3178 O   0  0  0  0  0  0  0  0  0  0  0  0
   12.1763    5.9870   23.5498 N   0  0  0  0  0  0  0  0  0  0  0  0
   13.1595    5.6122   22.5427 C   0  0  0  0  0  0  0  0  0  0  0  0
   13.5576    4.1517   22.6333 C   0  0  0  0  0  0  0  0  0  0  0  0
   12.4103    3.1978   22.4654 C   0  0  0  0  0  0  0  0  0  0  0  0
   11.1036    3.5198   22.2454 C   0  0  0  0  0  0  0  0  0  0  0  0
   10.3422    2.3881   22.1455 N   0  0  0  0  0  0  0  0  0  0  0  0
   11.1572    1.2938   22.3009 C   0  0  0  0  0  0  0  0  0  0  0  0
   10.8550   -0.0746   22.2826 C   0  0  0  0  0  0  0  0  0  0  0  0
    9.5130   -0.5091   22.0818 N   0  0  0  0  0  0  0  0  0  0  0  0
    9.0530   -2.0716   22.0428 S   0  0  0  0  0  0  0  0  0  0  0  0
    9.8048   -2.7123   21.0058 O   0  0  0  0  0  0  0  0  0  0  0  0
    9.1662   -2.5689   23.3808 O   0  0  0  0  0  0  0  0  0  0  0  0
    7.3294   -2.0970   21.5915 C   0  0  0  0  0  0  0  0  0  0  0  0
    7.0060   -1.1184   20.4954 C   0  0  0  0  0  0  0  0  0  0  0  0
    7.9188   -0.8603   19.4827 C   0  0  0  0  0  0  0  0  0  0  0  0
    7.6373    0.0402   18.4685 C   0  0  0  0  0  0  0  0  0  0  0  0
    6.4129    0.7015   18.4650 C   0  0  0  0  0  0  0  0  0  0  0  0
    5.8560    1.6182   17.6292 N   0  0  0  0  0  0  0  0  0  0  0  0
    4.6080    1.9850   18.0425 N   0  0  0  0  0  0  0  0  0  0  0  0
    4.3705    1.2998   19.1440 C   0  0  0  0  0  0  0  0  0  0  0  0
    5.4673    0.4647   19.4752 C   0  0  0  0  0  0  0  0  0  0  0  0
    5.7870   -0.4528   20.4845 C   0  0  0  0  0  0  0  0  0  0  0  0
   11.8970   -0.9801   22.4645 C   0  0  0  0  0  0  0  0  0  0  0  0
   13.1702   -0.4966   22.6518 C   0  0  0  0  0  0  0  0  0  0  0  0
   14.1733   -1.3991   22.8247 F   0  0  0  0  0  0  0  0  0  0  0  0
   13.4968    0.8376   22.6762 C   0  0  0  0  0  0  0  0  0  0  0  0
   12.4700    1.7631   22.5003 C   0  0  0  0  0  0  0  0  0  0  0  0
  1  2  1  0
  2  3  2  0
  2  4  1  0
  4  5  1  0
  5  6  1  0
  6  7  1  0
  7  8  2  0
  8  9  1  0
  9 10  1  0
 10 11  2  0
 11 12  1  0
 12 13  1  0
 13 14  2  0
 13 15  2  0
 13 16  1  0
 16 17  1  0
 17 18  2  0
 18 19  1  0
 19 20  2  0
 20 21  1  0
 21 22  1  0
 22 23  2  0
 23 24  1  0
 24 25  2  0
 11 26  1  0
 26 27  2  0
 27 28  1  0
 27 29  1  0
 29 30  2  0
 30  7  1  0
 30 10  1  0
 25 17  1  0
 24 20  1  0
M  END
