CVD-0000661|dock_bobby27042020.40|mol2|44|dock2
     RDKit          3D

 20 20  0  0  0  0  0  0  0  0999 V2000
   13.8286   -1.6499   21.6170 C   0  0  0  0  0  0  0  0  0  0  0  0
   12.3513   -1.6879   21.8425 C   0  0  0  0  0  0  0  0  0  0  0  0
   11.5543   -1.4728   20.9575 O   0  0  0  0  0  0  0  0  0  0  0  0
   11.9171   -2.0417   23.2704 C   0  0  0  0  0  0  0  0  0  0  0  0
   10.4200   -2.2853   23.2687 C   0  0  0  0  0  0  0  0  0  0  0  0
    9.6908   -1.0335   23.0439 N   0  0  0  0  0  0  0  0  0  0  0  0
   10.0400    0.0078   24.0111 C   0  0  0  0  0  0  0  0  0  0  0  0
   11.5370    0.2515   24.0128 C   0  0  0  0  0  0  0  0  0  0  0  0
   11.9347    0.9136   22.6912 C   0  0  0  0  0  0  0  0  0  0  0  0
   11.7967    2.4198   22.7417 C   0  0  0  0  0  0  0  0  0  0  0  0
   12.7938    3.0830   23.3057 N   0  0  0  0  0  0  0  0  0  0  0  0
   10.8006    2.9809   22.2763 O   0  0  0  0  0  0  0  0  0  0  0  0
   12.2662   -1.0002   24.2377 N   0  0  0  0  0  0  0  0  0  0  0  0
   13.1380   -1.1290   25.2836 C   0  0  0  0  0  0  0  0  0  0  0  0
   13.8169   -2.4470   25.5220 C   0  0  0  0  0  0  0  0  0  0  0  0
   13.3720   -0.1890   26.0354 O   0  0  0  0  0  0  0  0  0  0  0  0
    8.8168   -0.8818   22.0237 C   0  0  0  0  0  0  0  0  0  0  0  0
    8.5056   -1.8132   21.2920 O   0  0  0  0  0  0  0  0  0  0  0  0
    8.2288    0.4998   21.8047 C   0  0  0  0  0  0  0  0  0  0  0  0
    7.1657    0.5412   20.3918 Cl  0  0  0  0  0  0  0  0  0  0  0  0
  1  2  1  0
  2  3  2  0
  4  2  1  0
  4  5  1  0
  5  6  1  0
  6  7  1  0
  7  8  1  0
  8  9  1  0
  9 10  1  0
 10 11  1  0
 10 12  2  0
  8 13  1  0
 13 14  1  0
 14 15  1  0
 14 16  2  0
  6 17  1  0
 17 18  2  0
 17 19  1  0
 19 20  1  0
 13  4  1  0
M  END
