CVD-0001923|dock_bobby27042020.22|mol2|20|dock3
     RDKit          3D

 22 24  0  0  0  0  0  0  0  0999 V2000
   14.4765   -2.7007   25.3453 C   0  0  0  0  0  0  0  0  0  0  0  0
   13.0412   -2.6645   25.0533 N   0  0  0  0  0  0  0  0  0  0  0  0
   12.6265   -1.5926   24.1161 C   0  0  0  0  0  0  0  0  0  0  0  0
   12.9914   -0.2244   24.6576 C   0  0  0  0  0  0  0  0  0  0  0  0
   12.5663    0.8485   23.6608 C   0  0  0  0  0  0  0  0  0  0  0  0
   11.0940    0.7429   23.2930 C   0  0  0  0  0  0  0  0  0  0  0  0
   10.7539   -0.6619   22.7732 C   0  0  0  0  0  0  0  0  0  0  0  0
   11.1246   -1.7006   23.8453 C   0  0  0  0  0  0  0  0  0  0  0  0
    9.3149   -0.7941   22.2762 C   0  0  0  0  0  0  0  0  0  0  0  0
    9.1605   -0.4187   20.8274 C   0  0  0  0  0  0  0  0  0  0  0  0
    7.7397   -0.0944   20.4453 C   0  0  0  0  0  0  0  0  0  0  0  0
    7.3785    0.1108   19.1041 C   0  0  0  0  0  0  0  0  0  0  0  0
    8.2794   -0.0165   18.0817 O   0  0  0  0  0  0  0  0  0  0  0  0
    6.0484    0.3535   18.7615 C   0  0  0  0  0  0  0  0  0  0  0  0
    5.7174    0.4911   17.4514 O   0  0  0  0  0  0  0  0  0  0  0  0
    5.0678    0.3949   19.7421 C   0  0  0  0  0  0  0  0  0  0  0  0
    5.4259    0.1927   21.0616 C   0  0  0  0  0  0  0  0  0  0  0  0
    6.7528   -0.0512   21.4197 C   0  0  0  0  0  0  0  0  0  0  0  0
    7.1139   -0.1768   22.8824 C   0  0  0  0  0  0  0  0  0  0  0  0
    6.3441    0.7810   23.7809 C   0  0  0  0  0  0  0  0  0  0  0  0
    6.2022    2.1300   23.1894 N   0  0  0  0  0  0  0  0  0  0  0  0
    8.5074    0.0611   23.0987 O   0  0  0  0  0  0  0  0  0  0  0  0
  1  2  1  0
  2  3  1  0
  3  4  1  0
  4  5  1  0
  5  6  1  0
  6  7  1  0
  7  8  1  0
  7  9  1  0
  9 10  1  0
 10 11  1  0
 11 12  2  0
 12 13  1  0
 12 14  1  0
 14 15  1  0
 14 16  2  0
 16 17  1  0
 17 18  2  0
 18 19  1  0
 19 20  1  0
 20 21  1  0
 19 22  1  0
  8  3  1  0
 22  9  1  0
 18 11  1  0
M  END
