CVD-0000843|dock_bobby27042020.26|mol2|6|dock2
     RDKit          3D

 19 21  0  0  0  0  0  0  0  0999 V2000
    9.1711    1.4493   21.2045 O   0  0  0  0  0  0  0  0  0  0  0  0
    8.6549    0.4247   21.6080 C   0  0  0  0  0  0  0  0  0  0  0  0
    9.2612   -0.1946   22.8411 C   0  0  0  0  0  0  0  0  0  0  0  0
    8.5576   -1.3924   23.4120 C   0  0  0  0  0  0  0  0  0  0  0  0
    7.4854   -1.8890   22.7922 C   0  0  0  0  0  0  0  0  0  0  0  0
    6.9570   -1.4180   21.4686 C   0  0  0  0  0  0  0  0  0  0  0  0
    7.6001   -0.1767   21.0118 N   0  0  0  0  0  0  0  0  0  0  0  0
    6.9868    0.3423   19.8142 C   0  0  0  0  0  0  0  0  0  0  0  0
    5.7589    0.9925   19.8844 C   0  0  0  0  0  0  0  0  0  0  0  0
    5.1797    1.4882   18.7295 C   0  0  0  0  0  0  0  0  0  0  0  0
    5.8334    1.3102   17.5336 C   0  0  0  0  0  0  0  0  0  0  0  0
    7.0073    0.6886   17.4344 N   0  0  0  0  0  0  0  0  0  0  0  0
    7.5729    0.2398   18.5591 C   0  0  0  0  0  0  0  0  0  0  0  0
   10.7064   -0.5489   22.5060 C   0  0  0  0  0  0  0  0  0  0  0  0
   11.7525   -0.0744   23.2851 C   0  0  0  0  0  0  0  0  0  0  0  0
   13.0644   -0.3989   22.9821 C   0  0  0  0  0  0  0  0  0  0  0  0
   13.3465   -1.2020   21.8979 C   0  0  0  0  0  0  0  0  0  0  0  0
   12.3173   -1.6813   21.1161 C   0  0  0  0  0  0  0  0  0  0  0  0
   11.0051   -1.3574   21.4182 C   0  0  0  0  0  0  0  0  0  0  0  0
  1  2  2  0
  2  3  1  0
  3  4  1  0
  4  5  2  0
  5  6  1  0
  6  7  1  0
  7  8  1  0
  8  9  2  0
  9 10  1  0
 10 11  2  0
 11 12  1  0
 12 13  2  0
  3 14  1  0
 14 15  2  0
 15 16  1  0
 16 17  2  0
 17 18  1  0
 18 19  2  0
  7  2  1  0
 13  8  1  0
 19 14  1  0
M  END
