CVD-0002895|dock_bobby27042020.4|mol2|11|dock3
     RDKit          3D

 18 18  0  0  0  0  0  0  0  0999 V2000
    5.6537    0.6200   18.4264 C   0  0  0  0  0  0  0  0  0  0  0  0
    6.2422   -0.7540   18.4564 C   0  0  0  0  0  0  0  0  0  0  0  0
    5.5608   -1.7393   18.2858 O   0  0  0  0  0  0  0  0  0  0  0  0
    7.6969   -0.8556   18.7427 C   0  0  0  0  0  0  0  0  0  0  0  0
    8.0120   -0.9855   20.2179 C   0  0  0  0  0  0  0  0  0  0  0  0
    7.2037   -0.6356   21.0724 O   0  0  0  0  0  0  0  0  0  0  0  0
    9.2086   -1.4830   20.5184 N   0  0  0  0  0  0  0  0  0  0  0  0
    9.6680   -1.6578   21.8889 C   0  0  0  0  0  0  0  0  0  0  0  0
   10.6678   -0.5947   22.2991 C   0  0  0  0  0  0  0  0  0  0  0  0
   10.0122    0.6198   22.9435 C   0  0  0  0  0  0  0  0  0  0  0  0
   10.8536    1.8711   22.8750 C   0  0  0  0  0  0  0  0  0  0  0  0
   12.2367    1.8054   22.9347 C   0  0  0  0  0  0  0  0  0  0  0  0
   13.0085    2.9518   22.8684 C   0  0  0  0  0  0  0  0  0  0  0  0
   12.4207    4.2003   22.7390 C   0  0  0  0  0  0  0  0  0  0  0  0
   13.2603    5.4527   22.6691 C   0  0  0  0  0  0  0  0  0  0  0  0
   14.5617    5.2611   23.1964 O   0  0  0  0  0  0  0  0  0  0  0  0
   11.0379    4.2665   22.6788 C   0  0  0  0  0  0  0  0  0  0  0  0
   10.2666    3.1198   22.7451 C   0  0  0  0  0  0  0  0  0  0  0  0
  1  2  1  0
  2  3  2  0
  2  4  1  0
  4  5  1  0
  5  6  2  0
  5  7  1  0
  7  8  1  0
  8  9  1  0
  9 10  1  0
 10 11  1  0
 11 12  2  0
 12 13  1  0
 13 14  2  0
 14 15  1  0
 15 16  1  0
 14 17  1  0
 17 18  2  0
 18 11  1  0
M  END
