CVD-0001351|dock_bobby27042020.10|mol2|4|dock3
     RDKit          3D

 24 26  0  0  0  0  0  0  0  0999 V2000
    5.0074   -6.6249   22.2047 C   0  0  0  0  0  0  0  0  0  0  0  0
    5.2666   -5.9503   23.5201 C   0  0  0  0  0  0  0  0  0  0  0  0
    4.4440   -6.0068   24.4273 O   0  0  0  0  0  0  0  0  0  0  0  0
    6.4234   -5.2609   23.6903 N   0  0  0  0  0  0  0  0  0  0  0  0
    6.7545   -4.5597   24.9326 C   0  0  0  0  0  0  0  0  0  0  0  0
    7.0913   -3.1077   24.6483 C   0  0  0  0  0  0  0  0  0  0  0  0
    8.2097   -3.0217   23.7046 N   0  0  0  0  0  0  0  0  0  0  0  0
    8.5658   -1.6181   23.4564 C   0  0  0  0  0  0  0  0  0  0  0  0
    9.9213   -1.3294   22.8233 C   0  0  0  0  0  0  0  0  0  0  0  0
   11.0532   -2.1381   23.4012 C   0  0  0  0  0  0  0  0  0  0  0  0
   12.3644   -1.8056   22.7230 C   0  0  0  0  0  0  0  0  0  0  0  0
   12.5981   -0.3245   22.6882 C   0  0  0  0  0  0  0  0  0  0  0  0
   13.8806    0.1969   22.5535 C   0  0  0  0  0  0  0  0  0  0  0  0
   14.1015    1.5603   22.5035 C   0  0  0  0  0  0  0  0  0  0  0  0
   13.0195    2.4208   22.5898 C   0  0  0  0  0  0  0  0  0  0  0  0
   11.7286    1.9342   22.7245 C   0  0  0  0  0  0  0  0  0  0  0  0
   11.5113    0.5610   22.7744 C   0  0  0  0  0  0  0  0  0  0  0  0
   10.2237    0.0861   23.0094 N   0  0  0  0  0  0  0  0  0  0  0  0
   13.2783    4.1669   22.5044 S   0  0  0  0  0  0  0  0  0  0  0  0
   11.8553    4.8955   22.5900 N   0  0  0  0  0  0  0  0  0  0  0  0
   13.8247    4.4556   21.2125 O   0  0  0  0  0  0  0  0  0  0  0  0
   14.0193    4.5469   23.6696 O   0  0  0  0  0  0  0  0  0  0  0  0
    7.8328   -3.6820   22.4574 C   0  0  0  0  0  0  0  0  0  0  0  0
    7.4996   -5.1425   22.7015 C   0  0  0  0  0  0  0  0  0  0  0  0
  1  2  1  0
  2  3  2  0
  2  4  1  0
  4  5  1  0
  5  6  1  0
  6  7  1  0
  7  8  1  0
  8  9  1  0
  9 10  1  0
 10 11  1  0
 11 12  1  0
 12 13  2  0
 13 14  1  0
 14 15  2  0
 15 16  1  0
 16 17  2  0
 17 18  1  0
 15 19  1  0
 19 20  1  0
 19 21  2  0
 19 22  2  0
  7 23  1  0
 23 24  1  0
 24  4  1  0
 18  9  1  0
 17 12  1  0
M  END
