CVD-0000578|dock_bobby27042020.69|mol2|44|dock1
     RDKit          3D

 25 27  0  0  0  0  0  0  0  0999 V2000
    7.1014    0.6796   21.9433 C   0  0  0  0  0  0  0  0  0  0  0  0
    6.9998    0.4869   20.4519 C   0  0  0  0  0  0  0  0  0  0  0  0
    5.8614    0.9521   19.8005 C   0  0  0  0  0  0  0  0  0  0  0  0
    5.7402    0.7941   18.4384 C   0  0  0  0  0  0  0  0  0  0  0  0
    6.6709    0.2088   17.6907 N   0  0  0  0  0  0  0  0  0  0  0  0
    7.7696   -0.2414   18.3049 C   0  0  0  0  0  0  0  0  0  0  0  0
    7.9986   -0.1352   19.6776 C   0  0  0  0  0  0  0  0  0  0  0  0
    9.1657   -0.6105   20.3404 N   0  0  0  0  0  0  0  0  0  0  0  0
    9.8883   -0.0383   21.3610 C   0  0  0  0  0  0  0  0  0  0  0  0
    9.6385    1.0343   21.9029 O   0  0  0  0  0  0  0  0  0  0  0  0
   10.9453   -0.8014   21.7270 N   0  0  0  0  0  0  0  0  0  0  0  0
   11.9020   -0.4698   22.7694 C   0  0  0  0  0  0  0  0  0  0  0  0
   11.1282   -0.5238   24.0841 C   0  0  0  0  0  0  0  0  0  0  0  0
   12.0578   -0.3637   25.2705 C   0  0  0  0  0  0  0  0  0  0  0  0
   13.1598   -1.4119   25.2573 C   0  0  0  0  0  0  0  0  0  0  0  0
   13.9295   -1.3737   23.9470 C   0  0  0  0  0  0  0  0  0  0  0  0
   13.0015   -1.5224   22.7482 C   0  0  0  0  0  0  0  0  0  0  0  0
   12.3797    0.9242   22.6642 C   0  0  0  0  0  0  0  0  0  0  0  0
   12.6742    2.0802   22.6225 C   0  0  0  0  0  0  0  0  0  0  0  0
   13.0464    3.4618   22.4973 C   0  0  0  0  0  0  0  0  0  0  0  0
   12.1048    4.4841   22.4397 C   0  0  0  0  0  0  0  0  0  0  0  0
   12.4349    5.7728   22.3235 N   0  0  0  0  0  0  0  0  0  0  0  0
   13.7381    6.0294   22.2646 C   0  0  0  0  0  0  0  0  0  0  0  0
   14.7357    5.1516   22.3087 N   0  0  0  0  0  0  0  0  0  0  0  0
   14.3738    3.8715   22.4251 C   0  0  0  0  0  0  0  0  0  0  0  0
  1  2  1  0
  2  3  2  0
  3  4  1  0
  4  5  2  0
  5  6  1  0
  6  7  2  0
  7  8  1  0
  8  9  1  0
  9 10  2  0
  9 11  1  0
 11 12  1  0
 12 13  1  0
 13 14  1  0
 14 15  1  0
 15 16  1  0
 16 17  1  0
 12 18  1  0
 18 19  3  0
 19 20  1  0
 20 21  2  0
 21 22  1  0
 22 23  2  0
 23 24  1  0
 24 25  2  0
  7  2  1  0
 17 12  1  0
 25 20  1  0
M  END
