CVD-0003595|dock_bobby27042020.59|mol2|19|dock1
     RDKit          3D

 26 29  0  0  0  0  0  0  0  0999 V2000
   13.9211    7.0289   22.1545 C   0  0  0  0  0  0  0  0  0  0  0  0
   13.6247    5.7619   22.0809 C   0  0  0  0  0  0  0  0  0  0  0  0
   13.5576    4.7467   23.5056 S   0  0  0  0  0  0  0  0  0  0  0  0
   12.7144    5.3919   24.4656 O   0  0  0  0  0  0  0  0  0  0  0  0
   14.8999    4.4014   23.8627 O   0  0  0  0  0  0  0  0  0  0  0  0
   12.8044    3.3542   23.0645 N   0  0  0  0  0  0  0  0  0  0  0  0
   13.0541    2.1510   23.8813 C   0  0  0  0  0  0  0  0  0  0  0  0
   12.6450    0.9332   23.0739 C   0  0  0  0  0  0  0  0  0  0  0  0
   11.2423    1.0165   22.6873 N   0  0  0  0  0  0  0  0  0  0  0  0
   10.8452   -0.1806   21.9404 C   0  0  0  0  0  0  0  0  0  0  0  0
   10.8727   -1.4393   22.7510 C   0  0  0  0  0  0  0  0  0  0  0  0
    9.9613   -1.9216   23.6427 C   0  0  0  0  0  0  0  0  0  0  0  0
   10.4789   -3.0869   24.0861 N   0  0  0  0  0  0  0  0  0  0  0  0
   11.6728   -3.3272   23.4939 N   0  0  0  0  0  0  0  0  0  0  0  0
   11.9062   -2.3191   22.6833 N   0  0  0  0  0  0  0  0  0  0  0  0
    9.9408   -4.0110   25.0342 C   0  0  0  0  0  0  0  0  0  0  0  0
   10.4823   -5.2850   25.1553 C   0  0  0  0  0  0  0  0  0  0  0  0
    9.9685   -6.1886   26.0711 C   0  0  0  0  0  0  0  0  0  0  0  0
    8.8957   -5.8163   26.8808 C   0  0  0  0  0  0  0  0  0  0  0  0
    8.2006   -6.5149   27.8640 N   0  0  0  0  0  0  0  0  0  0  0  0
    7.2900   -5.6633   28.2899 C   0  0  0  0  0  0  0  0  0  0  0  0
    7.3306   -4.4662   27.6684 N   0  0  0  0  0  0  0  0  0  0  0  0
    8.3551   -4.5378   26.7566 C   0  0  0  0  0  0  0  0  0  0  0  0
    8.8719   -3.6333   25.8376 C   0  0  0  0  0  0  0  0  0  0  0  0
   11.0248    2.2124   21.8839 C   0  0  0  0  0  0  0  0  0  0  0  0
   11.3881    3.4569   22.6651 C   0  0  0  0  0  0  0  0  0  0  0  0
  1  2  2  0
  2  3  1  0
  3  4  2  0
  3  5  2  0
  3  6  1  0
  6  7  1  0
  7  8  1  0
  8  9  1  0
  9 10  1  0
 10 11  1  0
 11 12  2  0
 12 13  1  0
 13 14  1  0
 14 15  2  0
 13 16  1  0
 16 17  2  0
 17 18  1  0
 18 19  2  0
 19 20  1  0
 20 21  2  0
 21 22  1  0
 22 23  1  0
 23 24  2  0
  9 25  1  0
 25 26  1  0
 26  6  1  0
 15 11  1  0
 24 16  1  0
 23 19  1  0
M  END
