CVD-0000910|dock_bobby27042020.54|mol2|23|dock2
     RDKit          3D

 17 18  0  0  0  0  0  0  0  0999 V2000
    9.0318   -2.9472   22.8859 C   0  0  0  0  0  0  0  0  0  0  0  0
   10.0674   -2.1057   22.1502 C   0  0  0  0  0  0  0  0  0  0  0  0
    9.4470   -1.5180   20.9720 N   0  0  0  0  0  0  0  0  0  0  0  0
    8.2954   -0.8444   21.0384 C   0  0  0  0  0  0  0  0  0  0  0  0
    7.6620   -0.6658   22.0743 O   0  0  0  0  0  0  0  0  0  0  0  0
    7.8105   -0.3119   19.7080 C   0  0  0  0  0  0  0  0  0  0  0  0
    6.0638   -0.0370   19.6831 Cl  0  0  0  0  0  0  0  0  0  0  0  0
   10.7440   -1.0394   22.9826 C   0  0  0  0  0  0  0  0  0  0  0  0
   11.1276    0.1845   22.5498 C   0  0  0  0  0  0  0  0  0  0  0  0
   11.7002    1.0688   23.4165 C   0  0  0  0  0  0  0  0  0  0  0  0
   11.7491    2.7345   22.9302 Cl  0  0  0  0  0  0  0  0  0  0  0  0
   12.1197    0.7041   24.6390 C   0  0  0  0  0  0  0  0  0  0  0  0
   12.2672   -0.6843   24.8887 C   0  0  0  0  0  0  0  0  0  0  0  0
   13.6279   -1.2432   24.8677 N   0  0  0  0  0  0  0  0  0  0  0  0
   13.4443   -2.6833   24.8983 C   0  0  0  0  0  0  0  0  0  0  0  0
   12.4069   -2.7870   23.8125 C   0  0  0  0  0  0  0  0  0  0  0  0
   11.4619   -1.5998   24.0805 C   0  0  0  0  0  0  0  0  0  0  0  0
  1  2  1  0
  2  3  1  0
  3  4  1  0
  4  5  2  0
  4  6  1  0
  6  7  1  0
  2  8  1  0
  8  9  2  0
  9 10  1  0
 10 11  1  0
 10 12  2  0
 12 13  1  0
 13 14  1  0
 14 15  1  0
 15 16  1  0
 16 17  1  0
 17  8  1  0
 17 13  1  0
M  END
