CVD-0002358|dock_bobby27042020.91|mol2|37|dock3
     RDKit          3D

 38 42  0  0  0  0  0  0  0  0999 V2000
   13.5966   -0.8735   24.3434 C   0  0  0  0  0  0  0  0  0  0  0  0
   13.6865   -1.1845   22.9143 N   0  0  0  0  0  0  0  0  0  0  0  0
   12.9150   -2.3610   22.4993 C   0  0  0  0  0  0  0  0  0  0  0  0
   11.4321   -2.1212   22.6076 C   0  0  0  0  0  0  0  0  0  0  0  0
   10.6685   -1.3429   21.7179 C   0  0  0  0  0  0  0  0  0  0  0  0
    9.3455   -1.3340   22.1165 C   0  0  0  0  0  0  0  0  0  0  0  0
    8.1990   -0.6538   21.4646 C   0  0  0  0  0  0  0  0  0  0  0  0
    7.1210   -1.4389   21.0445 C   0  0  0  0  0  0  0  0  0  0  0  0
    6.0406   -0.8797   20.3847 C   0  0  0  0  0  0  0  0  0  0  0  0
    6.0237    0.4673   20.1097 C   0  0  0  0  0  0  0  0  0  0  0  0
    7.0751    1.2615   20.5269 C   0  0  0  0  0  0  0  0  0  0  0  0
    8.1542    0.7366   21.2351 C   0  0  0  0  0  0  0  0  0  0  0  0
    9.2082    1.7159   21.7118 C   0  0  0  0  0  0  0  0  0  0  0  0
    8.7836    2.7689   22.6326 N   0  0  0  0  0  0  0  0  0  0  0  0
    7.3687    2.8380   22.9749 C   0  0  0  0  0  0  0  0  0  0  0  0
    7.1914    3.5432   24.3078 C   0  0  0  0  0  0  0  0  0  0  0  0
    7.7647    4.9433   24.2353 C   0  0  0  0  0  0  0  0  0  0  0  0
    9.1878    4.9186   23.7317 C   0  0  0  0  0  0  0  0  0  0  0  0
   10.0670    5.9530   24.0313 C   0  0  0  0  0  0  0  0  0  0  0  0
   11.3517    5.9762   23.5265 C   0  0  0  0  0  0  0  0  0  0  0  0
   11.7647    4.9424   22.7045 C   0  0  0  0  0  0  0  0  0  0  0  0
   10.9133    3.8950   22.3853 C   0  0  0  0  0  0  0  0  0  0  0  0
    9.6156    3.8666   22.8923 C   0  0  0  0  0  0  0  0  0  0  0  0
   13.4218    4.9247   22.0909 S   0  0  0  0  0  0  0  0  0  0  0  0
   13.9724    6.4280   22.0736 N   0  0  0  0  0  0  0  0  0  0  0  0
   13.3698    4.4773   20.7315 O   0  0  0  0  0  0  0  0  0  0  0  0
   14.2179    4.1930   23.0300 O   0  0  0  0  0  0  0  0  0  0  0  0
    9.2909   -2.1224   23.2957 N   0  0  0  0  0  0  0  0  0  0  0  0
   10.5649   -2.5964   23.5813 C   0  0  0  0  0  0  0  0  0  0  0  0
    7.9847   -2.5135   24.3026 S   0  0  0  0  0  0  0  0  0  0  0  0
    6.8827   -2.8126   23.4417 O   0  0  0  0  0  0  0  0  0  0  0  0
    7.8927   -1.4712   25.2773 O   0  0  0  0  0  0  0  0  0  0  0  0
    8.4714   -3.9948   25.1180 C   0  0  0  0  0  0  0  0  0  0  0  0
    8.8352   -3.9717   26.4534 C   0  0  0  0  0  0  0  0  0  0  0  0
    9.2109   -5.1602   27.0554 C   0  0  0  0  0  0  0  0  0  0  0  0
    9.2074   -6.3134   26.3037 C   0  0  0  0  0  0  0  0  0  0  0  0
    8.8593   -6.3503   25.0167 N   0  0  0  0  0  0  0  0  0  0  0  0
    8.4977   -5.1997   24.4417 C   0  0  0  0  0  0  0  0  0  0  0  0
  1  2  1  0
  2  3  1  0
  3  4  1  0
  4  5  1  0
  5  6  2  0
  6  7  1  0
  7  8  2  0
  8  9  1  0
  9 10  2  0
 10 11  1  0
 11 12  2  0
 12 13  1  0
 13 14  1  0
 14 15  1  0
 15 16  1  0
 16 17  1  0
 17 18  1  0
 18 19  2  0
 19 20  1  0
 20 21  2  0
 21 22  1  0
 22 23  2  0
 21 24  1  0
 24 25  1  0
 24 26  2  0
 24 27  2  0
  6 28  1  0
 28 29  1  0
 28 30  1  0
 30 31  2  0
 30 32  2  0
 30 33  1  0
 33 34  2  0
 34 35  1  0
 35 36  2  0
 36 37  1  0
 37 38  2  0
 29  4  2  0
 38 33  1  0
 12  7  1  0
 23 14  1  0
 23 18  1  0
M  END
