CVD-0001572|dock_bobby27042020.80|mol2|38|dock2
     RDKit          3D

 15 16  0  0  0  0  0  0  0  0999 V2000
   12.6433   -2.0361   21.4569 N   0  0  0  0  0  0  0  0  0  0  0  0
   12.0933   -1.4941   22.8389 S   0  0  0  0  0  0  0  0  0  0  0  0
   10.7132   -1.8443   22.9232 O   0  0  0  0  0  0  0  0  0  0  0  0
   12.9949   -1.9175   23.8599 O   0  0  0  0  0  0  0  0  0  0  0  0
   12.1840    0.2524   22.7546 C   0  0  0  0  0  0  0  0  0  0  0  0
   13.3208    0.9824   22.6107 C   0  0  0  0  0  0  0  0  0  0  0  0
   12.9224    2.3578   22.5959 C   0  0  0  0  0  0  0  0  0  0  0  0
   13.6117    3.5723   22.4757 C   0  0  0  0  0  0  0  0  0  0  0  0
   12.9117    4.7771   22.4990 C   0  0  0  0  0  0  0  0  0  0  0  0
   11.5264    4.7796   22.6415 C   0  0  0  0  0  0  0  0  0  0  0  0
   10.8277    3.5904   22.7616 C   0  0  0  0  0  0  0  0  0  0  0  0
   11.5262    2.3873   22.7384 C   0  0  0  0  0  0  0  0  0  0  0  0
   11.0905    1.0795   22.8363 N   0  0  0  0  0  0  0  0  0  0  0  0
   13.6290    6.0219   22.3747 C   0  0  0  0  0  0  0  0  0  0  0  0
   14.1926    7.0068   22.2434 N   0  0  0  0  0  0  0  0  0  0  0  0
  1  2  1  0
  2  3  2  0
  2  4  2  0
  2  5  1  0
  5  6  2  0
  6  7  1  0
  7  8  2  0
  8  9  1  0
  9 10  2  0
 10 11  1  0
 11 12  2  0
 12 13  1  0
  9 14  1  0
 14 15  3  0
 13  5  1  0
 12  7  1  0
M  END
