CVD-0001768|dock_bobby27042020.37|mol2|14|dock3
     RDKit          3D

 28 30  0  0  0  0  0  0  0  0999 V2000
    6.8750   -2.7123   24.3224 C   0  0  0  0  0  0  0  0  0  0  0  0
    7.0272   -4.2281   24.2968 C   0  0  0  0  0  0  0  0  0  0  0  0
    7.3837   -4.6645   22.9360 N   0  0  0  0  0  0  0  0  0  0  0  0
    6.2257   -4.8561   22.0540 C   0  0  0  0  0  0  0  0  0  0  0  0
    6.6220   -4.8316   20.5875 C   0  0  0  0  0  0  0  0  0  0  0  0
    6.9872   -3.4478   20.1075 C   0  0  0  0  0  0  0  0  0  0  0  0
    6.2818   -2.8399   19.0810 C   0  0  0  0  0  0  0  0  0  0  0  0
    6.6258   -1.5714   18.6455 C   0  0  0  0  0  0  0  0  0  0  0  0
    7.6831   -0.8995   19.2350 C   0  0  0  0  0  0  0  0  0  0  0  0
    8.4050   -1.4878   20.2613 C   0  0  0  0  0  0  0  0  0  0  0  0
    9.5591   -0.7602   20.9129 C   0  0  0  0  0  0  0  0  0  0  0  0
    9.2425    0.6937   21.2077 C   0  0  0  0  0  0  0  0  0  0  0  0
    8.1111    1.1426   21.0736 O   0  0  0  0  0  0  0  0  0  0  0  0
   10.2822    1.5313   21.6352 N   0  0  0  0  0  0  0  0  0  0  0  0
   10.0468    2.8675   21.9093 C   0  0  0  0  0  0  0  0  0  0  0  0
   11.0186    3.6798   22.3179 C   0  0  0  0  0  0  0  0  0  0  0  0
   12.2810    3.2290   22.4865 N   0  0  0  0  0  0  0  0  0  0  0  0
   13.3464    4.1345   22.9197 C   0  0  0  0  0  0  0  0  0  0  0  0
   12.5450    1.9312   22.2183 C   0  0  0  0  0  0  0  0  0  0  0  0
   11.5887    1.1005   21.8086 C   0  0  0  0  0  0  0  0  0  0  0  0
    8.0460   -2.7603   20.6872 C   0  0  0  0  0  0  0  0  0  0  0  0
    8.0808   -4.6765   25.2930 C   0  0  0  0  0  0  0  0  0  0  0  0
    7.7187   -5.1475   26.5539 C   0  0  0  0  0  0  0  0  0  0  0  0
    8.6747   -5.5611   27.4665 C   0  0  0  0  0  0  0  0  0  0  0  0
   10.0124   -5.5132   27.1368 C   0  0  0  0  0  0  0  0  0  0  0  0
   10.4046   -5.0514   25.8916 C   0  0  0  0  0  0  0  0  0  0  0  0
    9.4317   -4.6481   25.0081 C   0  0  0  0  0  0  0  0  0  0  0  0
    9.8148   -4.1979   23.7914 F   0  0  0  0  0  0  0  0  0  0  0  0
  1  2  1  0
  2  3  1  0
  3  4  1  0
  4  5  1  0
  5  6  1  0
  6  7  2  0
  7  8  1  0
  8  9  2  0
  9 10  1  0
 10 11  1  0
 11 12  1  0
 12 13  2  0
 12 14  1  0
 14 15  1  0
 15 16  2  0
 16 17  1  0
 17 18  1  0
 17 19  1  0
 19 20  2  0
 10 21  2  0
  2 22  1  0
 22 23  2  0
 23 24  1  0
 24 25  2  0
 25 26  1  0
 26 27  2  0
 27 28  1  0
 21  6  1  0
 27 22  1  0
 20 14  1  0
M  END
