CVD-0002642|dock_bobby27042020.47|mol2|44|dock1
     RDKit          3D

 26 27  0  0  0  0  0  0  0  0999 V2000
    7.9419   -0.1237   18.2903 C   0  0  0  0  0  0  0  0  0  0  0  0
    6.6977    0.6649   18.5757 C   0  0  0  0  0  0  0  0  0  0  0  0
    6.1377    1.2987   17.6878 O   0  0  0  0  0  0  0  0  0  0  0  0
    6.2986    0.6074   19.8732 N   0  0  0  0  0  0  0  0  0  0  0  0
    5.1995    1.2157   20.5403 C   0  0  0  0  0  0  0  0  0  0  0  0
    3.9531    1.4310   19.9533 C   0  0  0  0  0  0  0  0  0  0  0  0
    2.9220    2.0033   20.5824 N   0  0  0  0  0  0  0  0  0  0  0  0
    3.1013    2.3864   21.8437 C   0  0  0  0  0  0  0  0  0  0  0  0
    4.2890    2.2223   22.5218 C   0  0  0  0  0  0  0  0  0  0  0  0
    5.3675    1.6294   21.8740 C   0  0  0  0  0  0  0  0  0  0  0  0
    6.6525    1.4658   22.6551 C   0  0  0  0  0  0  0  0  0  0  0  0
    7.8286    2.2932   22.1474 C   0  0  0  0  0  0  0  0  0  0  0  0
    7.5474    3.7722   22.2255 C   0  0  0  0  0  0  0  0  0  0  0  0
    8.7717    4.5268   22.0593 O   0  0  0  0  0  0  0  0  0  0  0  0
    8.6422    5.8402   22.1178 C   0  0  0  0  0  0  0  0  0  0  0  0
    7.6079    6.4450   22.3474 O   0  0  0  0  0  0  0  0  0  0  0  0
    8.9775    2.0204   23.0113 O   0  0  0  0  0  0  0  0  0  0  0  0
    9.6227    0.8437   22.8720 C   0  0  0  0  0  0  0  0  0  0  0  0
    9.3862    0.0092   22.0245 O   0  0  0  0  0  0  0  0  0  0  0  0
   10.5786    0.7281   23.8088 N   0  0  0  0  0  0  0  0  0  0  0  0
   11.4478   -0.4452   23.8984 C   0  0  0  0  0  0  0  0  0  0  0  0
   12.1766   -0.4965   25.2569 C   0  0  0  0  0  0  0  0  0  0  0  0
   13.1475   -1.6717   25.3538 C   0  0  0  0  0  0  0  0  0  0  0  0
   14.1353   -1.6720   24.1943 C   0  0  0  0  0  0  0  0  0  0  0  0
   13.4111   -1.6537   22.8558 C   0  0  0  0  0  0  0  0  0  0  0  0
   12.4734   -0.4553   22.7521 C   0  0  0  0  0  0  0  0  0  0  0  0
  1  2  1  0
  2  3  2  0
  2  4  1  0
  4  5  1  0
  5  6  2  0
  6  7  1  0
  7  8  2  0
  8  9  1  0
  9 10  2  0
 10 11  1  0
 11 12  1  0
 12 13  1  0
 13 14  1  0
 14 15  1  0
 15 16  2  0
 12 17  1  0
 17 18  1  0
 18 19  2  0
 18 20  1  0
 20 21  1  0
 21 22  1  0
 22 23  1  0
 23 24  1  0
 24 25  1  0
 25 26  1  0
 10  5  1  0
 26 21  1  0
M  END
