CVD-0003620|dock_bobby27042020.1|mol2|27|dock1
     RDKit          3D

 18 19  0  0  0  0  0  0  0  0999 V2000
    8.3013   -2.1025   20.4008 C   0  0  0  0  0  0  0  0  0  0  0  0
    8.4271   -0.7255   19.7533 C   0  0  0  0  0  0  0  0  0  0  0  0
    9.1480    0.2303   20.6992 C   0  0  0  0  0  0  0  0  0  0  0  0
    8.5253    1.1207   21.2699 O   0  0  0  0  0  0  0  0  0  0  0  0
   10.4773   -0.0138   20.8197 N   0  0  0  0  0  0  0  0  0  0  0  0
   11.4731    0.6472   21.5921 C   0  0  0  0  0  0  0  0  0  0  0  0
   11.4278    1.9983   21.9368 C   0  0  0  0  0  0  0  0  0  0  0  0
   12.3640    2.6187   22.6616 N   0  0  0  0  0  0  0  0  0  0  0  0
   13.4015    1.8982   23.0775 C   0  0  0  0  0  0  0  0  0  0  0  0
   13.5473    0.5585   22.7959 C   0  0  0  0  0  0  0  0  0  0  0  0
   12.5791   -0.0992   22.0431 C   0  0  0  0  0  0  0  0  0  0  0  0
   12.7706   -1.5650   21.7497 C   0  0  0  0  0  0  0  0  0  0  0  0
    7.0797   -0.1147   19.3896 C   0  0  0  0  0  0  0  0  0  0  0  0
    5.9656   -0.2952   20.1984 C   0  0  0  0  0  0  0  0  0  0  0  0
    4.7438    0.2593   19.8549 C   0  0  0  0  0  0  0  0  0  0  0  0
    4.6195    1.0014   18.7002 C   0  0  0  0  0  0  0  0  0  0  0  0
    5.7168    1.1895   17.8877 C   0  0  0  0  0  0  0  0  0  0  0  0
    6.9387    0.6348   18.2298 C   0  0  0  0  0  0  0  0  0  0  0  0
  1  2  1  0
  2  3  1  0
  3  4  2  0
  3  5  1  0
  5  6  1  0
  6  7  2  0
  7  8  1  0
  8  9  2  0
  9 10  1  0
 10 11  2  0
 11 12  1  0
  2 13  1  0
 13 14  2  0
 14 15  1  0
 15 16  2  0
 16 17  1  0
 17 18  2  0
 11  6  1  0
 18 13  1  0
M  END
