CVD-0002440|dock_bobby27042020.20|mol2|10|dock1
     RDKit          3D

 34 37  0  0  0  0  0  0  0  0999 V2000
    8.6225   -0.5983   19.4567 C   0  0  0  0  0  0  0  0  0  0  0  0
    7.4700   -0.7685   20.4350 C   0  0  0  0  0  0  0  0  0  0  0  0
    7.3344   -2.2637   20.8738 C   0  0  0  0  0  0  0  0  0  0  0  0
    6.7097   -3.1286   19.7648 C   0  0  0  0  0  0  0  0  0  0  0  0
    5.4303   -2.4726   19.2487 C   0  0  0  0  0  0  0  0  0  0  0  0
    5.6953   -1.0357   18.8260 C   0  0  0  0  0  0  0  0  0  0  0  0
    6.1967   -0.2546   19.9545 N   0  0  0  0  0  0  0  0  0  0  0  0
    6.1579    1.1877   19.6746 C   0  0  0  0  0  0  0  0  0  0  0  0
    4.7552    1.7352   19.5557 C   0  0  0  0  0  0  0  0  0  0  0  0
    4.3982    2.5417   18.4863 C   0  0  0  0  0  0  0  0  0  0  0  0
    3.1113    3.0413   18.3755 C   0  0  0  0  0  0  0  0  0  0  0  0
    2.1667    2.7391   19.3327 C   0  0  0  0  0  0  0  0  0  0  0  0
    2.5086    1.9372   20.4003 C   0  0  0  0  0  0  0  0  0  0  0  0
    3.7956    1.4378   20.5109 C   0  0  0  0  0  0  0  0  0  0  0  0
    8.6398   -2.7700   21.2328 O   0  0  0  0  0  0  0  0  0  0  0  0
    8.8061   -3.6172   22.2994 C   0  0  0  0  0  0  0  0  0  0  0  0
    8.0327   -4.7407   22.5579 C   0  0  0  0  0  0  0  0  0  0  0  0
    8.3080   -5.5149   23.6711 C   0  0  0  0  0  0  0  0  0  0  0  0
    9.3412   -5.1738   24.5174 C   0  0  0  0  0  0  0  0  0  0  0  0
   10.1209   -4.0537   24.2757 C   0  0  0  0  0  0  0  0  0  0  0  0
    9.8545   -3.2616   23.1588 C   0  0  0  0  0  0  0  0  0  0  0  0
   10.5686   -2.0909   22.8005 N   0  0  0  0  0  0  0  0  0  0  0  0
   11.1213   -1.1301   23.5807 C   0  0  0  0  0  0  0  0  0  0  0  0
   11.0955   -1.1095   24.8079 O   0  0  0  0  0  0  0  0  0  0  0  0
   11.8063   -0.0281   22.8011 C   0  0  0  0  0  0  0  0  0  0  0  0
   12.8526    0.6749   23.6570 C   0  0  0  0  0  0  0  0  0  0  0  0
   13.5055    1.8008   22.8821 C   0  0  0  0  0  0  0  0  0  0  0  0
   12.4903    2.7463   22.4257 N   0  0  0  0  0  0  0  0  0  0  0  0
   11.4944    2.1285   21.5568 C   0  0  0  0  0  0  0  0  0  0  0  0
   10.7911    0.9938   22.2942 C   0  0  0  0  0  0  0  0  0  0  0  0
   12.5676    4.0951   22.5195 C   0  0  0  0  0  0  0  0  0  0  0  0
   11.6609    4.8162   22.1224 O   0  0  0  0  0  0  0  0  0  0  0  0
   13.8083    4.7086   23.1401 C   0  0  0  0  0  0  0  0  0  0  0  0
   13.7793    6.4683   22.9665 Cl  0  0  0  0  0  0  0  0  0  0  0  0
  1  2  1  0
  2  3  1  0
  3  4  1  0
  4  5  1  0
  5  6  1  0
  6  7  1  0
  7  8  1  0
  8  9  1  0
  9 10  2  0
 10 11  1  0
 11 12  2  0
 12 13  1  0
 13 14  2  0
  3 15  1  0
 15 16  1  0
 16 17  2  0
 17 18  1  0
 18 19  2  0
 19 20  1  0
 20 21  2  0
 21 22  1  0
 22 23  1  0
 23 24  2  0
 23 25  1  0
 25 26  1  0
 26 27  1  0
 27 28  1  0
 28 29  1  0
 29 30  1  0
 28 31  1  0
 31 32  2  0
 31 33  1  0
 33 34  1  0
  7  2  1  0
 14  9  1  0
 21 16  1  0
 30 25  1  0
M  END
