CVD-0002557|dock_bobby27042020.19|mol2|24|dock2
     RDKit          3D

 24 26  0  0  0  0  0  0  0  0999 V2000
    3.7590   -4.2644   24.8836 C   0  0  0  0  0  0  0  0  0  0  0  0
    4.7734   -3.9932   23.8118 C   0  0  0  0  0  0  0  0  0  0  0  0
    4.7624   -4.5924   22.7411 O   0  0  0  0  0  0  0  0  0  0  0  0
    5.6794   -3.0484   24.0864 N   0  0  0  0  0  0  0  0  0  0  0  0
    6.7218   -2.6581   23.1370 C   0  0  0  0  0  0  0  0  0  0  0  0
    6.9822   -1.1606   23.1368 C   0  0  0  0  0  0  0  0  0  0  0  0
    8.0859   -0.7494   22.1714 C   0  0  0  0  0  0  0  0  0  0  0  0
    9.3908   -1.4971   22.4367 C   0  0  0  0  0  0  0  0  0  0  0  0
    9.1352   -2.9976   22.4334 C   0  0  0  0  0  0  0  0  0  0  0  0
    8.0338   -3.3808   23.4141 C   0  0  0  0  0  0  0  0  0  0  0  0
   10.4867   -1.0654   21.4605 C   0  0  0  0  0  0  0  0  0  0  0  0
   11.8922   -1.6796   21.6993 C   0  0  0  0  0  0  0  0  0  0  0  0
   12.3565   -1.2489   23.0782 C   0  0  0  0  0  0  0  0  0  0  0  0
   13.2519   -2.0346   23.8197 C   0  0  0  0  0  0  0  0  0  0  0  0
   13.7729   -3.1986   23.3215 O   0  0  0  0  0  0  0  0  0  0  0  0
   13.7641   -1.5708   25.0293 C   0  0  0  0  0  0  0  0  0  0  0  0
   14.7106   -2.3040   25.6709 O   0  0  0  0  0  0  0  0  0  0  0  0
   13.3939   -0.3263   25.5142 C   0  0  0  0  0  0  0  0  0  0  0  0
   12.5122    0.4504   24.7871 C   0  0  0  0  0  0  0  0  0  0  0  0
   11.9823    0.0116   23.5713 C   0  0  0  0  0  0  0  0  0  0  0  0
   10.9088    0.8181   22.8781 C   0  0  0  0  0  0  0  0  0  0  0  0
   11.2497    2.2930   22.6886 C   0  0  0  0  0  0  0  0  0  0  0  0
   12.5993    2.5776   22.1516 N   0  0  0  0  0  0  0  0  0  0  0  0
   10.6503    0.3650   21.5549 O   0  0  0  0  0  0  0  0  0  0  0  0
  1  2  1  0
  2  3  2  0
  2  4  1  0
  4  5  1  0
  5  6  1  0
  6  7  1  0
  7  8  1  0
  8  9  1  0
  9 10  1  0
  8 11  1  0
 11 12  1  0
 12 13  1  0
 13 14  2  0
 14 15  1  0
 14 16  1  0
 16 17  1  0
 16 18  2  0
 18 19  1  0
 19 20  2  0
 20 21  1  0
 21 22  1  0
 22 23  1  0
 21 24  1  0
 10  5  1  0
 24 11  1  0
 20 13  1  0
M  END
