CVD-0002649|dock_bobby27042020.47|mol2|43|dock3
     RDKit          3D

 26 28  0  0  0  0  0  0  0  0999 V2000
    5.0716   -2.5864   22.9630 C   0  0  0  0  0  0  0  0  0  0  0  0
    5.5324   -2.0471   21.6408 C   0  0  0  0  0  0  0  0  0  0  0  0
    6.3754   -2.6425   20.9785 O   0  0  0  0  0  0  0  0  0  0  0  0
    4.9212   -0.8889   21.2790 N   0  0  0  0  0  0  0  0  0  0  0  0
    5.0627   -0.0817   20.1164 C   0  0  0  0  0  0  0  0  0  0  0  0
    5.2125   -0.5908   18.8269 C   0  0  0  0  0  0  0  0  0  0  0  0
    5.3449    0.1701   17.7359 N   0  0  0  0  0  0  0  0  0  0  0  0
    5.3339    1.4907   17.8969 C   0  0  0  0  0  0  0  0  0  0  0  0
    5.1929    2.1013   19.1235 C   0  0  0  0  0  0  0  0  0  0  0  0
    5.0527    1.3171   20.2633 C   0  0  0  0  0  0  0  0  0  0  0  0
    4.9027    2.0270   21.5901 C   0  0  0  0  0  0  0  0  0  0  0  0
    6.0764    1.8335   22.5597 C   0  0  0  0  0  0  0  0  0  0  0  0
    5.7629    2.3586   23.9562 C   0  0  0  0  0  0  0  0  0  0  0  0
    6.9960    2.2521   24.8538 C   0  0  0  0  0  0  0  0  0  0  0  0
    8.2017    2.9107   24.2216 C   0  0  0  0  0  0  0  0  0  0  0  0
    8.4514    2.3358   22.9051 N   0  0  0  0  0  0  0  0  0  0  0  0
    7.3266    2.4947   21.9876 C   0  0  0  0  0  0  0  0  0  0  0  0
    9.5518    1.6237   22.5232 C   0  0  0  0  0  0  0  0  0  0  0  0
    9.8241    1.5005   21.3351 O   0  0  0  0  0  0  0  0  0  0  0  0
   10.3296    1.0605   23.4679 N   0  0  0  0  0  0  0  0  0  0  0  0
   11.5366    0.3102   23.1208 C   0  0  0  0  0  0  0  0  0  0  0  0
   11.1938   -0.9448   22.2922 C   0  0  0  0  0  0  0  0  0  0  0  0
   12.4269   -1.7890   21.9755 C   0  0  0  0  0  0  0  0  0  0  0  0
   13.1904   -2.1526   23.2424 C   0  0  0  0  0  0  0  0  0  0  0  0
   13.5542   -0.9088   24.0405 C   0  0  0  0  0  0  0  0  0  0  0  0
   12.3131   -0.0924   24.3862 C   0  0  0  0  0  0  0  0  0  0  0  0
  1  2  1  0
  2  3  2  0
  2  4  1  0
  4  5  1  0
  5  6  2  0
  6  7  1  0
  7  8  2  0
  8  9  1  0
  9 10  2  0
 10 11  1  0
 11 12  1  0
 12 13  1  0
 13 14  1  0
 14 15  1  0
 15 16  1  0
 16 17  1  0
 16 18  1  0
 18 19  2  0
 18 20  1  0
 20 21  1  0
 21 22  1  0
 22 23  1  0
 23 24  1  0
 24 25  1  0
 25 26  1  0
 10  5  1  0
 17 12  1  0
 26 21  1  0
M  END
