CVD-0000179|dock_bobby27042020.85|mol2|17|dock1
     RDKit          3D

 19 21  0  0  0  0  0  0  0  0999 V2000
    5.6576    0.4931   18.2687 C   0  0  0  0  0  0  0  0  0  0  0  0
    6.5505   -0.5553   18.9147 C   0  0  0  0  0  0  0  0  0  0  0  0
    7.5354    0.0308   19.8957 C   0  0  0  0  0  0  0  0  0  0  0  0
    7.4643    1.2006   20.2597 O   0  0  0  0  0  0  0  0  0  0  0  0
    8.4771   -0.8000   20.3345 N   0  0  0  0  0  0  0  0  0  0  0  0
    9.5049   -0.3965   21.2835 C   0  0  0  0  0  0  0  0  0  0  0  0
    9.0245   -0.4901   22.7220 C   0  0  0  0  0  0  0  0  0  0  0  0
   10.1659   -0.4473   23.7470 C   0  0  0  0  0  0  0  0  0  0  0  0
   11.0330   -1.7202   23.7393 C   0  0  0  0  0  0  0  0  0  0  0  0
   12.4875   -1.2908   23.5559 C   0  0  0  0  0  0  0  0  0  0  0  0
   12.4277    0.1905   23.2918 C   0  0  0  0  0  0  0  0  0  0  0  0
   13.4896    1.0411   22.9904 C   0  0  0  0  0  0  0  0  0  0  0  0
   13.2539    2.3933   22.7730 C   0  0  0  0  0  0  0  0  0  0  0  0
   11.9459    2.8619   22.8643 C   0  0  0  0  0  0  0  0  0  0  0  0
   11.4681    4.2666   22.6430 C   0  0  0  0  0  0  0  0  0  0  0  0
   10.0030    4.2454   23.0805 C   0  0  0  0  0  0  0  0  0  0  0  0
    9.5843    2.7735   23.1614 C   0  0  0  0  0  0  0  0  0  0  0  0
   10.8804    2.0151   23.1655 C   0  0  0  0  0  0  0  0  0  0  0  0
   11.1249    0.6555   23.3832 C   0  0  0  0  0  0  0  0  0  0  0  0
  1  2  1  0
  2  3  1  0
  3  4  2  0
  3  5  1  0
  5  6  1  0
  6  7  1  0
  7  8  1  0
  8  9  1  0
  9 10  1  0
 10 11  1  0
 11 12  2  0
 12 13  1  0
 13 14  2  0
 14 15  1  0
 15 16  1  0
 16 17  1  0
 17 18  1  0
 18 19  2  0
 19  8  1  0
 19 11  1  0
 18 14  1  0
M  END
