CVD-0003408|dock_bobby27042020.74|mol2|4|dock3
     RDKit          3D

 19 21  0  0  0  0  0  0  0  0999 V2000
    9.5005    0.5766   23.1899 O   0  0  0  0  0  0  0  0  0  0  0  0
    9.6436    0.1282   22.0567 C   0  0  0  0  0  0  0  0  0  0  0  0
   10.7451   -0.6271   21.6740 N   0  0  0  0  0  0  0  0  0  0  0  0
   11.8781   -1.0331   22.4272 C   0  0  0  0  0  0  0  0  0  0  0  0
   12.2937   -0.4390   23.6186 C   0  0  0  0  0  0  0  0  0  0  0  0
   13.4162   -0.9105   24.2796 C   0  0  0  0  0  0  0  0  0  0  0  0
   14.1365   -1.9691   23.7725 C   0  0  0  0  0  0  0  0  0  0  0  0
   13.7359   -2.5636   22.5973 C   0  0  0  0  0  0  0  0  0  0  0  0
   12.6158   -2.1011   21.9280 C   0  0  0  0  0  0  0  0  0  0  0  0
    8.6602    0.3897   21.1220 N   0  0  0  0  0  0  0  0  0  0  0  0
    7.4919    0.8498   20.4736 C   0  0  0  0  0  0  0  0  0  0  0  0
    6.9191    2.1017   20.6683 C   0  0  0  0  0  0  0  0  0  0  0  0
    5.8114    2.5182   20.0436 N   0  0  0  0  0  0  0  0  0  0  0  0
    5.2095    1.6952   19.1802 C   0  0  0  0  0  0  0  0  0  0  0  0
    5.6955    0.4251   18.9111 C   0  0  0  0  0  0  0  0  0  0  0  0
    5.3248   -0.6255   18.1077 N   0  0  0  0  0  0  0  0  0  0  0  0
    6.2342   -1.6034   18.3028 C   0  0  0  0  0  0  0  0  0  0  0  0
    7.1789   -1.2944   19.1673 N   0  0  0  0  0  0  0  0  0  0  0  0
    6.8495   -0.0073   19.5626 C   0  0  0  0  0  0  0  0  0  0  0  0
  1  2  2  0
  2  3  1  0
  3  4  1  0
  4  5  2  0
  5  6  1  0
  6  7  2  0
  7  8  1  0
  8  9  2  0
  2 10  1  0
 10 11  1  0
 11 12  2  0
 12 13  1  0
 13 14  2  0
 14 15  1  0
 15 16  1  0
 16 17  1  0
 17 18  2  0
 18 19  1  0
  9  4  1  0
 19 11  1  0
 19 15  2  0
M  END
