CVD-0001534|dock_bobby27042020.23|mol2|33|dock1
     RDKit          3D

 25 27  0  0  0  0  0  0  0  0999 V2000
    4.9121    0.7424   17.8226 C   0  0  0  0  0  0  0  0  0  0  0  0
    5.3839    0.0942   19.0450 N   0  0  0  0  0  0  0  0  0  0  0  0
    5.1961    0.9778   20.1994 C   0  0  0  0  0  0  0  0  0  0  0  0
    5.6491    0.2846   21.4708 C   0  0  0  0  0  0  0  0  0  0  0  0
    7.0540   -0.1150   21.3629 N   0  0  0  0  0  0  0  0  0  0  0  0
    7.2866   -0.9524   20.1820 C   0  0  0  0  0  0  0  0  0  0  0  0
    6.7999   -0.2454   18.9301 C   0  0  0  0  0  0  0  0  0  0  0  0
    7.9861    0.2372   22.2712 C   0  0  0  0  0  0  0  0  0  0  0  0
    7.7094    0.9124   23.2546 O   0  0  0  0  0  0  0  0  0  0  0  0
    9.4088   -0.2350   22.0220 C   0  0  0  0  0  0  0  0  0  0  0  0
   10.2519    0.2531   23.0975 N   0  0  0  0  0  0  0  0  0  0  0  0
   11.4266    0.9242   22.9406 C   0  0  0  0  0  0  0  0  0  0  0  0
   12.6534    0.2779   22.8374 C   0  0  0  0  0  0  0  0  0  0  0  0
   13.8093    0.9859   22.5328 C   0  0  0  0  0  0  0  0  0  0  0  0
   13.7919    2.3404   22.4332 C   0  0  0  0  0  0  0  0  0  0  0  0
   12.6007    3.0706   22.6280 C   0  0  0  0  0  0  0  0  0  0  0  0
   12.5760    4.4848   22.5728 C   0  0  0  0  0  0  0  0  0  0  0  0
   11.4137    5.1702   22.7550 C   0  0  0  0  0  0  0  0  0  0  0  0
   10.2373    4.4948   22.9936 C   0  0  0  0  0  0  0  0  0  0  0  0
   10.2151    3.1333   23.0547 C   0  0  0  0  0  0  0  0  0  0  0  0
   11.3932    2.3566   22.8822 C   0  0  0  0  0  0  0  0  0  0  0  0
   12.9462   -1.4579   23.0790 S   0  0  0  0  0  0  0  0  0  0  0  0
   13.3251   -2.1228   21.6728 N   0  0  0  0  0  0  0  0  0  0  0  0
   11.6976   -2.0439   23.4647 O   0  0  0  0  0  0  0  0  0  0  0  0
   14.0620   -1.6132   23.9631 O   0  0  0  0  0  0  0  0  0  0  0  0
  1  2  1  0
  2  3  1  0
  3  4  1  0
  4  5  1  0
  5  6  1  0
  6  7  1  0
  5  8  1  0
  8  9  2  0
  8 10  1  0
 10 11  1  0
 11 12  1  0
 12 13  2  0
 13 14  1  0
 14 15  2  0
 15 16  1  0
 16 17  2  0
 17 18  1  0
 18 19  2  0
 19 20  1  0
 20 21  2  0
 13 22  1  0
 22 23  1  0
 22 24  2  0
 22 25  2  0
  7  2  1  0
 21 12  1  0
 21 16  1  0
M  END
