CVD-0002520|dock_bobby27042020.19|mol2|30|dock1
     RDKit          3D

 28 31  0  0  0  0  0  0  0  0999 V2000
    9.7548   -0.2362   20.1083 O   0  0  0  0  0  0  0  0  0  0  0  0
    9.2555   -0.7734   21.3339 C   0  0  0  0  0  0  0  0  0  0  0  0
    7.9095   -1.4456   21.0695 C   0  0  0  0  0  0  0  0  0  0  0  0
    7.4028   -2.1314   22.3505 C   0  0  0  0  0  0  0  0  0  0  0  0
    8.5001   -3.0430   22.9923 C   0  0  0  0  0  0  0  0  0  0  0  0
    9.7363   -2.3014   23.1882 N   0  0  0  0  0  0  0  0  0  0  0  0
   10.7625   -3.0807   23.8952 C   0  0  0  0  0  0  0  0  0  0  0  0
   10.2195   -3.8474   25.0778 C   0  0  0  0  0  0  0  0  0  0  0  0
    9.4954   -3.2019   26.0682 C   0  0  0  0  0  0  0  0  0  0  0  0
    8.9948   -3.9054   27.1510 C   0  0  0  0  0  0  0  0  0  0  0  0
    9.2118   -5.2626   27.2549 C   0  0  0  0  0  0  0  0  0  0  0  0
    9.9290   -5.9164   26.2761 C   0  0  0  0  0  0  0  0  0  0  0  0
   10.4296   -5.2127   25.1935 C   0  0  0  0  0  0  0  0  0  0  0  0
   10.2444   -1.7647   21.9277 C   0  0  0  0  0  0  0  0  0  0  0  0
   11.6435   -1.1342   22.0470 C   0  0  0  0  0  0  0  0  0  0  0  0
   12.5705   -1.5175   21.3590 O   0  0  0  0  0  0  0  0  0  0  0  0
   11.8106   -0.1322   22.9327 N   0  0  0  0  0  0  0  0  0  0  0  0
   13.0199    0.6926   22.9797 C   0  0  0  0  0  0  0  0  0  0  0  0
   12.6616    2.1643   22.8869 C   0  0  0  0  0  0  0  0  0  0  0  0
   11.7532    2.5349   23.9759 N   0  0  0  0  0  0  0  0  0  0  0  0
   11.4355    3.9636   23.9143 C   0  0  0  0  0  0  0  0  0  0  0  0
   12.5510    4.7915   23.3462 C   0  0  0  0  0  0  0  0  0  0  0  0
   12.8387    4.9758   22.0105 C   0  0  0  0  0  0  0  0  0  0  0  0
   13.9632    5.8183   21.8366 C   0  0  0  0  0  0  0  0  0  0  0  0
   14.4946    6.2456   22.9936 C   0  0  0  0  0  0  0  0  0  0  0  0
   13.6455    5.6378   24.3426 S   0  0  0  0  0  0  0  0  0  0  0  0
   10.5352    1.7353   23.8735 C   0  0  0  0  0  0  0  0  0  0  0  0
   10.8538    0.2547   23.9742 C   0  0  0  0  0  0  0  0  0  0  0  0
  1  2  1  0
  2  3  1  0
  3  4  1  0
  4  5  1  0
  5  6  1  0
  6  7  1  0
  7  8  1  0
  8  9  2  0
  9 10  1  0
 10 11  2  0
 11 12  1  0
 12 13  2  0
  6 14  1  0
 14 15  1  0
 15 16  2  0
 15 17  1  0
 17 18  1  0
 18 19  1  0
 19 20  1  0
 20 21  1  0
 21 22  1  0
 22 23  2  0
 23 24  1  0
 24 25  2  0
 25 26  1  0
 20 27  1  0
 27 28  1  0
 14  2  1  0
 28 17  1  0
 13  8  1  0
 26 22  1  0
M  END
