CVD-0001013|dock_bobby27042020.68|mol2|25|dock1
     RDKit          3D

 23 25  0  0  0  0  0  0  0  0999 V2000
   14.2548    5.9282   21.6382 C   0  0  0  0  0  0  0  0  0  0  0  0
   12.9761    5.6225   22.1910 O   0  0  0  0  0  0  0  0  0  0  0  0
   12.6346    4.3214   22.4639 C   0  0  0  0  0  0  0  0  0  0  0  0
   13.5861    3.3243   22.6096 C   0  0  0  0  0  0  0  0  0  0  0  0
   13.1866    2.0321   22.9009 C   0  0  0  0  0  0  0  0  0  0  0  0
   11.8457    1.6948   23.0565 C   0  0  0  0  0  0  0  0  0  0  0  0
   10.9049    2.7073   22.8713 C   0  0  0  0  0  0  0  0  0  0  0  0
   11.2946    4.0057   22.5945 C   0  0  0  0  0  0  0  0  0  0  0  0
   11.5277    0.2631   23.3969 C   0  0  0  0  0  0  0  0  0  0  0  0
   12.0165   -0.1594   24.4306 O   0  0  0  0  0  0  0  0  0  0  0  0
   10.7481   -0.5603   22.6576 N   0  0  0  0  0  0  0  0  0  0  0  0
   10.4570   -1.9646   22.9633 C   0  0  0  0  0  0  0  0  0  0  0  0
    8.9620   -2.2117   22.9800 C   0  0  0  0  0  0  0  0  0  0  0  0
    8.2808   -1.7374   21.6981 C   0  0  0  0  0  0  0  0  0  0  0  0
    6.7550   -1.8844   21.7472 C   0  0  0  0  0  0  0  0  0  0  0  0
    6.0151   -1.0659   20.7171 C   0  0  0  0  0  0  0  0  0  0  0  0
    5.5297    0.1946   21.0288 C   0  0  0  0  0  0  0  0  0  0  0  0
    4.8481    0.9444   20.0849 C   0  0  0  0  0  0  0  0  0  0  0  0
    4.6429    0.4418   18.8181 C   0  0  0  0  0  0  0  0  0  0  0  0
    5.1191   -0.8109   18.4955 C   0  0  0  0  0  0  0  0  0  0  0  0
    5.8008   -1.5602   19.4398 C   0  0  0  0  0  0  0  0  0  0  0  0
    8.6990   -0.3056   21.3892 C   0  0  0  0  0  0  0  0  0  0  0  0
   10.2015   -0.1304   21.3756 C   0  0  0  0  0  0  0  0  0  0  0  0
  1  2  1  0
  2  3  1  0
  3  4  2  0
  4  5  1  0
  5  6  2  0
  6  7  1  0
  7  8  2  0
  6  9  1  0
  9 10  2  0
  9 11  1  0
 11 12  1  0
 12 13  1  0
 13 14  1  0
 14 15  1  0
 15 16  1  0
 16 17  2  0
 17 18  1  0
 18 19  2  0
 19 20  1  0
 20 21  2  0
 14 22  1  0
 22 23  1  0
  8  3  1  0
 23 11  1  0
 21 16  1  0
M  END
