CVD-0001192|dock_bobby27042020.96|mol2|10|dock1
     RDKit          3D

 23 24  0  0  0  0  0  0  0  0999 V2000
    0.6788    5.0132   19.4683 C   0  0  0  0  0  0  0  0  0  0  0  0
    1.7855    4.2693   20.1794 C   0  0  0  0  0  0  0  0  0  0  0  0
    2.3178    3.0932   19.3809 C   0  0  0  0  0  0  0  0  0  0  0  0
    3.3221    2.2657   20.1457 C   0  0  0  0  0  0  0  0  0  0  0  0
    4.0196    1.4169   19.2212 O   0  0  0  0  0  0  0  0  0  0  0  0
    5.2486    0.8924   19.5370 C   0  0  0  0  0  0  0  0  0  0  0  0
    5.5444    0.6458   20.8656 C   0  0  0  0  0  0  0  0  0  0  0  0
    6.7727    0.1178   21.2220 C   0  0  0  0  0  0  0  0  0  0  0  0
    7.7263   -0.1732   20.2500 C   0  0  0  0  0  0  0  0  0  0  0  0
    9.0041   -0.7124   20.5432 N   0  0  0  0  0  0  0  0  0  0  0  0
    9.7199   -0.7387   21.7154 C   0  0  0  0  0  0  0  0  0  0  0  0
    9.3529   -0.2672   22.7880 O   0  0  0  0  0  0  0  0  0  0  0  0
   10.9565   -1.3764   21.5760 N   0  0  0  0  0  0  0  0  0  0  0  0
   11.9135   -1.5726   22.5545 C   0  0  0  0  0  0  0  0  0  0  0  0
   12.9843   -0.8227   22.6520 N   0  0  0  0  0  0  0  0  0  0  0  0
   13.7655   -1.2280   23.7031 C   0  0  0  0  0  0  0  0  0  0  0  0
   13.2768   -2.2837   24.3929 C   0  0  0  0  0  0  0  0  0  0  0  0
   11.7789   -2.8295   23.7389 S   0  0  0  0  0  0  0  0  0  0  0  0
   13.8540   -2.9236   25.5200 N   0  0  0  0  0  0  0  0  0  0  0  0
   14.9714   -2.4798   25.9378 O   0  0  0  0  0  0  0  0  0  0  0  0
   13.2642   -3.8615   26.0373 O   0  0  0  0  0  0  0  0  0  0  0  0
    7.4140    0.0763   18.9190 C   0  0  0  0  0  0  0  0  0  0  0  0
    6.1862    0.6026   18.5596 C   0  0  0  0  0  0  0  0  0  0  0  0
  1  2  1  0
  2  3  1  0
  3  4  1  0
  4  5  1  0
  5  6  1  0
  6  7  2  0
  7  8  1  0
  8  9  2  0
  9 10  1  0
 10 11  1  0
 11 12  2  0
 11 13  1  0
 13 14  1  0
 14 15  2  0
 15 16  1  0
 16 17  2  0
 17 18  1  0
 17 19  1  0
 19 20  1  0
 19 21  2  0
  9 22  1  0
 22 23  2  0
 23  6  1  0
 18 14  1  0
M  CHG  2  19   1  20  -1
M  END
