CVD-0002046|dock_bobby27042020.36|mol2|10|dock1
     RDKit          3D

 26 28  0  0  0  0  0  0  0  0999 V2000
    9.6859    1.3052   25.9844 C   0  0  0  0  0  0  0  0  0  0  0  0
   11.0243    1.7010   25.4334 C   0  0  0  0  0  0  0  0  0  0  0  0
   11.9292    0.8805   25.3234 O   0  0  0  0  0  0  0  0  0  0  0  0
   11.1148    3.0142   25.0985 N   0  0  0  0  0  0  0  0  0  0  0  0
   12.1974    3.7617   24.5632 C   0  0  0  0  0  0  0  0  0  0  0  0
   12.5024    5.0622   24.9595 C   0  0  0  0  0  0  0  0  0  0  0  0
   13.4912    5.7870   24.4290 N   0  0  0  0  0  0  0  0  0  0  0  0
   14.2005    5.2397   23.4454 C   0  0  0  0  0  0  0  0  0  0  0  0
   14.0060    3.9550   22.9860 C   0  0  0  0  0  0  0  0  0  0  0  0
   13.0090    3.1756   23.5717 C   0  0  0  0  0  0  0  0  0  0  0  0
   12.8973    1.7682   23.0872 C   0  0  0  0  0  0  0  0  0  0  0  0
   13.7828    0.7875   23.5104 C   0  0  0  0  0  0  0  0  0  0  0  0
   13.7276   -0.4871   23.1159 N   0  0  0  0  0  0  0  0  0  0  0  0
   12.7608   -0.8428   22.2645 C   0  0  0  0  0  0  0  0  0  0  0  0
   11.8097    0.0475   21.7702 C   0  0  0  0  0  0  0  0  0  0  0  0
   10.7734   -0.3035   20.8680 N   0  0  0  0  0  0  0  0  0  0  0  0
    9.4824    0.1606   20.7569 C   0  0  0  0  0  0  0  0  0  0  0  0
    8.9917    1.0195   21.4818 O   0  0  0  0  0  0  0  0  0  0  0  0
    8.8143   -0.4637   19.7280 N   0  0  0  0  0  0  0  0  0  0  0  0
    7.4870   -0.3074   19.2534 C   0  0  0  0  0  0  0  0  0  0  0  0
    6.7455   -1.3343   18.6726 C   0  0  0  0  0  0  0  0  0  0  0  0
    5.4528   -1.0982   18.2340 C   0  0  0  0  0  0  0  0  0  0  0  0
    4.8849    0.1498   18.3655 C   0  0  0  0  0  0  0  0  0  0  0  0
    5.6092    1.1715   18.9380 C   0  0  0  0  0  0  0  0  0  0  0  0
    6.9020    0.9477   19.3801 C   0  0  0  0  0  0  0  0  0  0  0  0
   11.8981    1.3658   22.2021 C   0  0  0  0  0  0  0  0  0  0  0  0
  1  2  1  0
  2  3  2  0
  2  4  1  0
  4  5  1  0
  5  6  2  0
  6  7  1  0
  7  8  2  0
  8  9  1  0
  9 10  2  0
 10 11  1  0
 11 12  2  0
 12 13  1  0
 13 14  2  0
 14 15  1  0
 15 16  1  0
 16 17  1  0
 17 18  2  0
 17 19  1  0
 19 20  1  0
 20 21  2  0
 21 22  1  0
 22 23  2  0
 23 24  1  0
 24 25  2  0
 15 26  2  0
 10  5  1  0
 26 11  1  0
 25 20  1  0
M  END
