CVD-0003900|dock_bobby27042020.86|mol2|24|dock2
     RDKit          3D

 28 31  0  0  0  0  0  0  0  0999 V2000
    6.9334   -1.9009   25.1387 C   0  0  0  0  0  0  0  0  0  0  0  0
    7.2337   -3.0170   26.0267 N   0  0  0  0  0  0  0  0  0  0  0  0
    6.5059   -3.2824   27.1631 C   0  0  0  0  0  0  0  0  0  0  0  0
    6.9631   -4.3975   27.7730 C   0  0  0  0  0  0  0  0  0  0  0  0
    8.0387   -4.8993   26.9785 C   0  0  0  0  0  0  0  0  0  0  0  0
    8.8853   -6.0151   27.0608 C   0  0  0  0  0  0  0  0  0  0  0  0
    9.8487   -6.2386   26.0936 C   0  0  0  0  0  0  0  0  0  0  0  0
   10.0064   -5.3512   25.0416 C   0  0  0  0  0  0  0  0  0  0  0  0
    9.2118   -4.2081   24.9259 C   0  0  0  0  0  0  0  0  0  0  0  0
    9.5201   -3.3131   23.7782 C   0  0  0  0  0  0  0  0  0  0  0  0
   10.7751   -2.7320   23.6295 C   0  0  0  0  0  0  0  0  0  0  0  0
   11.0290   -1.8960   22.5506 C   0  0  0  0  0  0  0  0  0  0  0  0
   12.3839   -1.2547   22.3727 C   0  0  0  0  0  0  0  0  0  0  0  0
   12.6927   -0.2072   23.4411 C   0  0  0  0  0  0  0  0  0  0  0  0
   12.1014    1.1819   23.1958 C   0  0  0  0  0  0  0  0  0  0  0  0
   12.8338    1.9506   22.0981 C   0  0  0  0  0  0  0  0  0  0  0  0
   12.3090    3.3629   21.9358 C   0  0  0  0  0  0  0  0  0  0  0  0
   12.3167    4.0709   23.2198 N   0  0  0  0  0  0  0  0  0  0  0  0
   11.5199    3.4044   24.2435 C   0  0  0  0  0  0  0  0  0  0  0  0
   12.0648    2.0120   24.4726 C   0  0  0  0  0  0  0  0  0  0  0  0
   12.8920    5.2698   23.4542 C   0  0  0  0  0  0  0  0  0  0  0  0
   12.8573    5.7887   24.5628 O   0  0  0  0  0  0  0  0  0  0  0  0
   13.5923    5.9503   22.2938 C   0  0  0  0  0  0  0  0  0  0  0  0
   14.1644    7.5627   22.7415 Cl  0  0  0  0  0  0  0  0  0  0  0  0
   10.0001   -1.6679   21.6524 C   0  0  0  0  0  0  0  0  0  0  0  0
    8.7803   -2.2770   21.8666 C   0  0  0  0  0  0  0  0  0  0  0  0
    8.5249   -3.0859   22.9030 N   0  0  0  0  0  0  0  0  0  0  0  0
    8.2025   -4.0040   25.8939 C   0  0  0  0  0  0  0  0  0  0  0  0
  1  2  1  0
  2  3  1  0
  3  4  2  0
  4  5  1  0
  5  6  2  0
  6  7  1  0
  7  8  2  0
  8  9  1  0
  9 10  1  0
 10 11  2  0
 11 12  1  0
 12 13  1  0
 13 14  1  0
 14 15  1  0
 15 16  1  0
 16 17  1  0
 17 18  1  0
 18 19  1  0
 19 20  1  0
 18 21  1  0
 21 22  2  0
 21 23  1  0
 23 24  1  0
 12 25  2  0
 25 26  1  0
 26 27  2  0
  9 28  2  0
 28  2  1  0
 28  5  1  0
 27 10  1  0
 20 15  1  0
M  END
