CVD-0003280|dock_bobby27042020.17|mol2|2|dock2
     RDKit          3D

 24 27  0  0  0  0  0  0  0  0999 V2000
    8.2151   -0.5372   18.6723 O   0  0  0  0  0  0  0  0  0  0  0  0
    7.4070   -0.7979   19.5576 C   0  0  0  0  0  0  0  0  0  0  0  0
    5.9257   -0.8406   19.2469 C   0  0  0  0  0  0  0  0  0  0  0  0
    5.4170    0.4090   18.5952 C   0  0  0  0  0  0  0  0  0  0  0  0
    4.4251    1.2543   18.9738 C   0  0  0  0  0  0  0  0  0  0  0  0
    4.3646    2.2374   18.0314 N   0  0  0  0  0  0  0  0  0  0  0  0
    5.3054    1.9688   17.1198 C   0  0  0  0  0  0  0  0  0  0  0  0
    5.9741    0.8659   17.4171 N   0  0  0  0  0  0  0  0  0  0  0  0
    7.7213   -1.0807   20.8601 N   0  0  0  0  0  0  0  0  0  0  0  0
    8.9936   -1.1329   21.4501 C   0  0  0  0  0  0  0  0  0  0  0  0
    9.5718   -2.2526   22.0120 C   0  0  0  0  0  0  0  0  0  0  0  0
   10.8647   -1.9359   22.5124 C   0  0  0  0  0  0  0  0  0  0  0  0
   11.9257   -2.5353   23.1544 N   0  0  0  0  0  0  0  0  0  0  0  0
   12.9257   -1.6372   23.3671 C   0  0  0  0  0  0  0  0  0  0  0  0
   12.5437   -0.4135   22.8620 C   0  0  0  0  0  0  0  0  0  0  0  0
   13.3101    0.8823   22.8696 C   0  0  0  0  0  0  0  0  0  0  0  0
   12.4912    2.0513   23.3868 C   0  0  0  0  0  0  0  0  0  0  0  0
   13.0903    3.3682   23.0310 C   0  0  0  0  0  0  0  0  0  0  0  0
   13.9732    3.5754   22.0645 N   0  0  0  0  0  0  0  0  0  0  0  0
   14.2374    4.9236   22.0920 C   0  0  0  0  0  0  0  0  0  0  0  0
   13.5137    5.5159   23.0676 C   0  0  0  0  0  0  0  0  0  0  0  0
   12.7878    4.5192   23.6561 N   0  0  0  0  0  0  0  0  0  0  0  0
   11.2286   -0.6203   22.3238 C   0  0  0  0  0  0  0  0  0  0  0  0
   10.0010    0.2969   21.5229 S   0  0  0  0  0  0  0  0  0  0  0  0
  1  2  2  0
  2  3  1  0
  3  4  1  0
  4  5  2  0
  5  6  1  0
  6  7  1  0
  7  8  2  0
  2  9  1  0
  9 10  1  0
 10 11  2  0
 11 12  1  0
 12 13  1  0
 13 14  1  0
 14 15  2  0
 15 16  1  0
 16 17  1  0
 17 18  1  0
 18 19  2  0
 19 20  1  0
 20 21  2  0
 21 22  1  0
 15 23  1  0
 23 24  1  0
  8  4  1  0
 24 10  1  0
 23 12  2  0
 22 18  1  0
M  END
