CVD-0001103|dock_bobby27042020.96|mol2|24|dock2
     RDKit          3D

 26 29  0  0  0  0  0  0  0  0999 V2000
    8.8811   -6.5225   26.6194 O   0  0  0  0  0  0  0  0  0  0  0  0
    9.0944   -5.2432   26.0168 C   0  0  0  0  0  0  0  0  0  0  0  0
    7.9061   -4.8074   25.1817 C   0  0  0  0  0  0  0  0  0  0  0  0
    8.1303   -3.4571   24.4962 C   0  0  0  0  0  0  0  0  0  0  0  0
    9.3968   -3.5187   23.6483 C   0  0  0  0  0  0  0  0  0  0  0  0
   10.6060   -3.8901   24.4922 C   0  0  0  0  0  0  0  0  0  0  0  0
   10.3565   -5.2431   25.1685 C   0  0  0  0  0  0  0  0  0  0  0  0
    9.6256   -2.2439   22.9226 N   0  0  0  0  0  0  0  0  0  0  0  0
    8.8526   -2.0185   21.8098 C   0  0  0  0  0  0  0  0  0  0  0  0
    8.0195   -2.8391   21.4450 O   0  0  0  0  0  0  0  0  0  0  0  0
    9.0090   -0.7371   21.0104 C   0  0  0  0  0  0  0  0  0  0  0  0
    7.8730   -0.5232   20.0359 C   0  0  0  0  0  0  0  0  0  0  0  0
    6.5669   -0.3747   20.4714 C   0  0  0  0  0  0  0  0  0  0  0  0
    5.5523   -0.1772   19.5513 C   0  0  0  0  0  0  0  0  0  0  0  0
    5.8798   -0.1333   18.2151 C   0  0  0  0  0  0  0  0  0  0  0  0
    7.1277   -0.2717   17.7650 N   0  0  0  0  0  0  0  0  0  0  0  0
    8.0906   -0.4612   18.6722 C   0  0  0  0  0  0  0  0  0  0  0  0
   10.5842   -1.2898   23.4208 C   0  0  0  0  0  0  0  0  0  0  0  0
   10.2952   -0.5775   24.5830 C   0  0  0  0  0  0  0  0  0  0  0  0
   11.2118    0.3382   25.0772 C   0  0  0  0  0  0  0  0  0  0  0  0
   12.4128    0.5674   24.4283 C   0  0  0  0  0  0  0  0  0  0  0  0
   12.7362   -0.1305   23.2554 C   0  0  0  0  0  0  0  0  0  0  0  0
   13.8469   -0.1490   22.3548 C   0  0  0  0  0  0  0  0  0  0  0  0
   13.5668   -1.0653   21.3962 C   0  0  0  0  0  0  0  0  0  0  0  0
   12.3375   -1.6337   21.6280 N   0  0  0  0  0  0  0  0  0  0  0  0
   11.8038   -1.0696   22.7614 C   0  0  0  0  0  0  0  0  0  0  0  0
  1  2  1  0
  2  3  1  0
  3  4  1  0
  4  5  1  0
  5  6  1  0
  6  7  1  0
  5  8  1  0
  8  9  1  0
  9 10  2  0
  9 11  1  0
 11 12  1  0
 12 13  2  0
 13 14  1  0
 14 15  2  0
 15 16  1  0
 16 17  2  0
  8 18  1  0
 18 19  2  0
 19 20  1  0
 20 21  2  0
 21 22  1  0
 22 23  1  0
 23 24  2  0
 24 25  1  0
 25 26  1  0
  7  2  1  0
 17 12  1  0
 26 18  1  0
 26 22  2  0
M  END
