CVD-0003636|dock_bobby27042020.73|mol2|13|dock3
     RDKit          3D

 22 24  0  0  0  0  0  0  0  0999 V2000
    5.4151    1.0152   17.9838 C   0  0  0  0  0  0  0  0  0  0  0  0
    6.6937    0.3835   18.4499 C   0  0  0  0  0  0  0  0  0  0  0  0
    7.5873    0.0955   17.6617 O   0  0  0  0  0  0  0  0  0  0  0  0
    6.8391    0.1488   19.7769 N   0  0  0  0  0  0  0  0  0  0  0  0
    8.0458   -0.4515   20.3498 C   0  0  0  0  0  0  0  0  0  0  0  0
    8.6021    0.4279   21.4542 C   0  0  0  0  0  0  0  0  0  0  0  0
    7.5931    0.6310   22.4979 N   0  0  0  0  0  0  0  0  0  0  0  0
    8.1378    1.4458   23.5848 C   0  0  0  0  0  0  0  0  0  0  0  0
    9.5444    1.0709   23.9746 C   0  0  0  0  0  0  0  0  0  0  0  0
    9.8715   -0.0576   24.7065 C   0  0  0  0  0  0  0  0  0  0  0  0
   11.2086   -0.3265   25.0706 C   0  0  0  0  0  0  0  0  0  0  0  0
   12.2427    0.3029   24.5030 C   0  0  0  0  0  0  0  0  0  0  0  0
   12.0037    1.3036   23.4098 C   0  0  0  0  0  0  0  0  0  0  0  0
   12.8857    2.3609   23.2839 N   0  0  0  0  0  0  0  0  0  0  0  0
   12.1578    3.5060   23.2195 C   0  0  0  0  0  0  0  0  0  0  0  0
   12.8190    4.8279   22.9889 C   0  0  0  0  0  0  0  0  0  0  0  0
   13.9489    4.7408   21.9783 C   0  0  0  0  0  0  0  0  0  0  0  0
   14.6883    5.9989   21.8704 N   0  0  0  0  0  0  0  0  0  0  0  0
   10.7922    3.2469   23.4164 C   0  0  0  0  0  0  0  0  0  0  0  0
   10.6542    1.9231   23.6169 C   0  0  0  0  0  0  0  0  0  0  0  0
    6.4230    1.2782   21.9102 C   0  0  0  0  0  0  0  0  0  0  0  0
    5.8313    0.4201   20.8068 C   0  0  0  0  0  0  0  0  0  0  0  0
  1  2  1  0
  2  3  2  0
  2  4  1  0
  4  5  1  0
  5  6  1  0
  6  7  1  0
  7  8  1  0
  8  9  1  0
  9 10  2  0
 10 11  1  0
 11 12  2  0
 12 13  1  0
 13 14  1  0
 14 15  2  0
 15 16  1  0
 16 17  1  0
 17 18  1  0
 15 19  1  0
 19 20  2  0
  7 21  1  0
 21 22  1  0
 22  4  1  0
 20  9  1  0
 20 13  1  0
M  END
