CVD-0002183|dock_bobby27042020.92|mol2|25|dock1
     RDKit          3D

 19 19  0  0  0  0  0  0  0  0999 V2000
    5.1265    1.1043   21.1885 C   0  0  0  0  0  0  0  0  0  0  0  0
    5.4707    0.6571   19.7909 C   0  0  0  0  0  0  0  0  0  0  0  0
    5.2446    1.5383   18.7379 C   0  0  0  0  0  0  0  0  0  0  0  0
    5.5463    1.1567   17.4499 C   0  0  0  0  0  0  0  0  0  0  0  0
    6.0534   -0.0345   17.1458 N   0  0  0  0  0  0  0  0  0  0  0  0
    6.2740   -0.8902   18.1486 C   0  0  0  0  0  0  0  0  0  0  0  0
    6.0062   -0.6101   19.4890 C   0  0  0  0  0  0  0  0  0  0  0  0
    6.2395   -1.5194   20.5586 N   0  0  0  0  0  0  0  0  0  0  0  0
    6.1274   -2.8699   20.6034 C   0  0  0  0  0  0  0  0  0  0  0  0
    5.7849   -3.5968   19.6771 O   0  0  0  0  0  0  0  0  0  0  0  0
    6.4736   -3.4530   21.9517 C   0  0  0  0  0  0  0  0  0  0  0  0
    7.9423   -3.7980   22.0822 C   0  0  0  0  0  0  0  0  0  0  0  0
    9.0238   -2.3685   21.8200 S   0  0  0  0  0  0  0  0  0  0  0  0
   10.1950   -2.5357   23.1919 C   0  0  0  0  0  0  0  0  0  0  0  0
   11.4941   -1.7892   22.9556 C   0  0  0  0  0  0  0  0  0  0  0  0
   12.5931   -1.9087   24.3480 S   0  0  0  0  0  0  0  0  0  0  0  0
   14.0693   -1.1211   23.8193 C   0  0  0  0  0  0  0  0  0  0  0  0
   12.8696   -3.3001   24.5894 O   0  0  0  0  0  0  0  0  0  0  0  0
   12.0290   -1.1554   25.4367 O   0  0  0  0  0  0  0  0  0  0  0  0
  1  2  1  0
  2  3  2  0
  3  4  1  0
  4  5  2  0
  5  6  1  0
  6  7  2  0
  7  8  1  0
  8  9  1  0
  9 10  2  0
  9 11  1  0
 11 12  1  0
 12 13  1  0
 13 14  1  0
 14 15  1  0
 15 16  1  0
 16 17  1  0
 16 18  2  0
 16 19  2  0
  7  2  1  0
M  END
