CVD-0000214|dock_bobby27042020.85|mol2|12|dock3
     RDKit          3D

 24 26  0  0  0  0  0  0  0  0999 V2000
   14.1379   -2.1616   23.4263 N   0  0  0  0  0  0  0  0  0  0  0  0
   13.9147   -1.0131   24.0539 C   0  0  0  0  0  0  0  0  0  0  0  0
   14.6000   -0.6616   25.0208 O   0  0  0  0  0  0  0  0  0  0  0  0
   12.8063   -0.1051   23.5923 C   0  0  0  0  0  0  0  0  0  0  0  0
   11.4708   -0.3074   23.9365 C   0  0  0  0  0  0  0  0  0  0  0  0
   10.4953    0.6127   23.5919 C   0  0  0  0  0  0  0  0  0  0  0  0
   10.8317    1.7689   22.8884 C   0  0  0  0  0  0  0  0  0  0  0  0
    9.7714    2.5776   22.4440 N   0  0  0  0  0  0  0  0  0  0  0  0
    9.7475    3.8555   22.6012 C   0  0  0  0  0  0  0  0  0  0  0  0
    8.6118    4.5693   22.2137 N   0  0  0  0  0  0  0  0  0  0  0  0
    8.4175    5.8890   21.9011 C   0  0  0  0  0  0  0  0  0  0  0  0
    9.2705    6.7693   21.9010 O   0  0  0  0  0  0  0  0  0  0  0  0
    6.9927    6.2070   21.5040 C   0  0  0  0  0  0  0  0  0  0  0  0
    6.8492    7.7592   20.6692 Cl  0  0  0  0  0  0  0  0  0  0  0  0
   10.7994    4.6832   23.2599 C   0  0  0  0  0  0  0  0  0  0  0  0
   10.4334    5.5788   24.2653 C   0  0  0  0  0  0  0  0  0  0  0  0
   11.3909    6.3585   24.8810 C   0  0  0  0  0  0  0  0  0  0  0  0
   10.9030    7.4870   26.1143 Cl  0  0  0  0  0  0  0  0  0  0  0  0
   12.7185    6.2778   24.5271 C   0  0  0  0  0  0  0  0  0  0  0  0
   13.0991    5.3955   23.5327 C   0  0  0  0  0  0  0  0  0  0  0  0
   12.1502    4.5973   22.8962 C   0  0  0  0  0  0  0  0  0  0  0  0
   12.6700    3.4332   21.6612 S   0  0  0  0  0  0  0  0  0  0  0  0
   12.1763    1.9733   22.5416 C   0  0  0  0  0  0  0  0  0  0  0  0
   13.1484    1.0453   22.8910 C   0  0  0  0  0  0  0  0  0  0  0  0
  1  2  1  0
  2  3  2  0
  2  4  1  0
  4  5  2  0
  5  6  1  0
  6  7  2  0
  7  8  1  0
  8  9  2  0
  9 10  1  0
 10 11  1  0
 11 12  2  0
 11 13  1  0
 13 14  1  0
  9 15  1  0
 15 16  2  0
 16 17  1  0
 17 18  1  0
 17 19  2  0
 19 20  1  0
 20 21  2  0
 21 22  1  0
 22 23  1  0
 23 24  2  0
 24  4  1  0
 23  7  1  0
 21 15  1  0
M  END
