CVD-0004049|dock_bobby27042020.14|mol2|33|dock3
     RDKit          3D

 24 27  0  0  0  0  0  0  0  0999 V2000
    6.1569   -1.0189   19.3479 C   0  0  0  0  0  0  0  0  0  0  0  0
    7.3307   -0.4606   20.1041 C   0  0  0  0  0  0  0  0  0  0  0  0
    7.5810    0.9676   20.1342 C   0  0  0  0  0  0  0  0  0  0  0  0
    8.5748    1.5429   20.7719 N   0  0  0  0  0  0  0  0  0  0  0  0
    9.4174    0.7209   21.4446 C   0  0  0  0  0  0  0  0  0  0  0  0
   10.5874    0.9552   22.2500 C   0  0  0  0  0  0  0  0  0  0  0  0
   11.0087   -0.3557   22.6400 C   0  0  0  0  0  0  0  0  0  0  0  0
   10.1648   -1.2881   22.1907 N   0  0  0  0  0  0  0  0  0  0  0  0
    9.2137   -0.6405   21.4487 N   0  0  0  0  0  0  0  0  0  0  0  0
    8.1917   -1.2392   20.7949 C   0  0  0  0  0  0  0  0  0  0  0  0
   12.1713   -0.8592   23.4037 C   0  0  0  0  0  0  0  0  0  0  0  0
   12.9204   -1.9600   22.9992 C   0  0  0  0  0  0  0  0  0  0  0  0
   14.0202   -2.3825   23.7248 C   0  0  0  0  0  0  0  0  0  0  0  0
   14.3417   -1.7101   24.8715 C   0  0  0  0  0  0  0  0  0  0  0  0
   15.4227   -2.1210   25.5879 F   0  0  0  0  0  0  0  0  0  0  0  0
   13.6194   -0.6422   25.3277 C   0  0  0  0  0  0  0  0  0  0  0  0
   12.5296   -0.2214   24.5868 C   0  0  0  0  0  0  0  0  0  0  0  0
   11.1198    2.3239   22.5422 C   0  0  0  0  0  0  0  0  0  0  0  0
   10.2536    3.4073   22.6378 C   0  0  0  0  0  0  0  0  0  0  0  0
   10.7791    4.6544   22.9079 C   0  0  0  0  0  0  0  0  0  0  0  0
   12.0849    4.8910   23.0804 N   0  0  0  0  0  0  0  0  0  0  0  0
   12.9309    3.8485   22.9995 C   0  0  0  0  0  0  0  0  0  0  0  0
   14.2384    4.1047   23.1799 N   0  0  0  0  0  0  0  0  0  0  0  0
   12.4769    2.5549   22.7413 C   0  0  0  0  0  0  0  0  0  0  0  0
  1  2  1  0
  2  3  1  0
  3  4  2  0
  4  5  1  0
  5  6  2  0
  6  7  1  0
  7  8  2  0
  8  9  1  0
  9 10  1  0
  7 11  1  0
 11 12  2  0
 12 13  1  0
 13 14  2  0
 14 15  1  0
 14 16  1  0
 16 17  2  0
  6 18  1  0
 18 19  2  0
 19 20  1  0
 20 21  2  0
 21 22  1  0
 22 23  1  0
 22 24  2  0
 10  2  2  0
 17 11  1  0
 24 18  1  0
  9  5  1  0
M  END
