CVD-0001369|dock_bobby27042020.53|mol2|1|dock2
     RDKit          3D

 26 28  0  0  0  0  0  0  0  0999 V2000
   10.0748    2.0435   21.6916 F   0  0  0  0  0  0  0  0  0  0  0  0
    9.2579    0.9736   21.5553 C   0  0  0  0  0  0  0  0  0  0  0  0
    7.9981    1.2176   21.0663 C   0  0  0  0  0  0  0  0  0  0  0  0
    7.1482    0.1441   20.8854 C   0  0  0  0  0  0  0  0  0  0  0  0
    7.5648   -1.1295   21.2270 C   0  0  0  0  0  0  0  0  0  0  0  0
    8.8264   -1.3736   21.7676 C   0  0  0  0  0  0  0  0  0  0  0  0
    9.1326   -2.7943   22.1965 C   0  0  0  0  0  0  0  0  0  0  0  0
    8.3038   -3.2616   23.3804 C   0  0  0  0  0  0  0  0  0  0  0  0
    8.7644   -4.5765   23.8425 N   0  0  0  0  0  0  0  0  0  0  0  0
    7.9582   -5.3506   25.0021 S   0  0  0  0  0  0  0  0  0  0  0  0
    7.6371   -4.3787   26.0022 O   0  0  0  0  0  0  0  0  0  0  0  0
    8.7415   -6.4940   25.3579 O   0  0  0  0  0  0  0  0  0  0  0  0
    6.4483   -5.9260   24.3034 C   0  0  0  0  0  0  0  0  0  0  0  0
    5.3509   -6.1349   25.1229 C   0  0  0  0  0  0  0  0  0  0  0  0
    4.1661   -6.5831   24.5631 C   0  0  0  0  0  0  0  0  0  0  0  0
    4.0795   -6.8171   23.2072 C   0  0  0  0  0  0  0  0  0  0  0  0
    5.1757   -6.6047   22.3988 C   0  0  0  0  0  0  0  0  0  0  0  0
    6.3694   -6.1567   22.9396 C   0  0  0  0  0  0  0  0  0  0  0  0
    9.7285   -0.2904   21.8998 C   0  0  0  0  0  0  0  0  0  0  0  0
   11.1213   -0.4973   22.3901 C   0  0  0  0  0  0  0  0  0  0  0  0
   11.5784    0.0582   23.5541 C   0  0  0  0  0  0  0  0  0  0  0  0
   12.9003   -0.1728   23.9686 C   0  0  0  0  0  0  0  0  0  0  0  0
   13.7489   -0.9440   23.2271 C   0  0  0  0  0  0  0  0  0  0  0  0
   13.3089   -1.5351   22.0015 C   0  0  0  0  0  0  0  0  0  0  0  0
   14.0026   -2.2430   21.2576 O   0  0  0  0  0  0  0  0  0  0  0  0
   11.9989   -1.2677   21.6554 N   0  0  0  0  0  0  0  0  0  0  0  0
  1  2  1  0
  2  3  2  0
  3  4  1  0
  4  5  2  0
  5  6  1  0
  6  7  1  0
  7  8  1  0
  8  9  1  0
  9 10  1  0
 10 11  2  0
 10 12  2  0
 10 13  1  0
 13 14  2  0
 14 15  1  0
 15 16  2  0
 16 17  1  0
 17 18  2  0
  6 19  2  0
 19 20  1  0
 20 21  2  0
 21 22  1  0
 22 23  2  0
 23 24  1  0
 24 25  2  0
 24 26  1  0
 19  2  1  0
 26 20  1  0
 18 13  1  0
M  END
