CVD-0002222|dock_bobby27042020.35|mol2|14|dock3
     RDKit          3D

 12 13  0  0  0  0  0  0  0  0999 V2000
   11.6820    5.1169   22.4142 C   0  0  0  0  0  0  0  0  0  0  0  0
   12.0410    3.6642   22.6105 C   0  0  0  0  0  0  0  0  0  0  0  0
   11.0905    2.6601   22.5300 C   0  0  0  0  0  0  0  0  0  0  0  0
   11.4457    1.3364   22.7139 C   0  0  0  0  0  0  0  0  0  0  0  0
   12.7766    1.0438   22.9805 C   0  0  0  0  0  0  0  0  0  0  0  0
   13.7209    1.9933   23.0649 N   0  0  0  0  0  0  0  0  0  0  0  0
   13.3379    3.2621   22.8809 C   0  0  0  0  0  0  0  0  0  0  0  0
   13.1933   -0.3467   23.1817 C   0  0  0  0  0  0  0  0  0  0  0  0
   14.0149   -0.8204   24.2385 C   0  0  0  0  0  0  0  0  0  0  0  0
   14.2594   -2.1604   24.2038 C   0  0  0  0  0  0  0  0  0  0  0  0
   13.4790   -2.8586   22.8660 S   0  0  0  0  0  0  0  0  0  0  0  0
   12.8272   -1.3756   22.3499 C   0  0  0  0  0  0  0  0  0  0  0  0
  1  2  1  0
  2  3  2  0
  3  4  1  0
  4  5  2  0
  5  6  1  0
  6  7  2  0
  5  8  1  0
  8  9  1  0
  9 10  2  0
 10 11  1  0
 11 12  1  0
  7  2  1  0
 12  8  2  0
M  END
