CVD-0001124|dock_bobby27042020.25|mol2|4|dock2
     RDKit          3D

 24 26  0  0  0  0  0  0  0  0999 V2000
    4.4342    1.5808   18.9758 C   0  0  0  0  0  0  0  0  0  0  0  0
    5.6520    0.7759   18.0084 S   0  0  0  0  0  0  0  0  0  0  0  0
    6.0664    1.6764   16.9772 O   0  0  0  0  0  0  0  0  0  0  0  0
    5.1430   -0.5065   17.6312 O   0  0  0  0  0  0  0  0  0  0  0  0
    6.9261    0.5180   18.9467 N   0  0  0  0  0  0  0  0  0  0  0  0
    6.8373   -0.4578   20.0396 C   0  0  0  0  0  0  0  0  0  0  0  0
    6.7064    0.2471   21.3778 C   0  0  0  0  0  0  0  0  0  0  0  0
    7.8534    1.1949   21.6493 C   0  0  0  0  0  0  0  0  0  0  0  0
    7.6465    2.5717   21.6569 C   0  0  0  0  0  0  0  0  0  0  0  0
    8.6724    3.4496   21.9743 C   0  0  0  0  0  0  0  0  0  0  0  0
    9.9369    2.9786   22.2942 C   0  0  0  0  0  0  0  0  0  0  0  0
   10.1883    1.6059   22.2989 C   0  0  0  0  0  0  0  0  0  0  0  0
   11.3331    0.7880   22.5802 C   0  0  0  0  0  0  0  0  0  0  0  0
   12.7266    1.2191   22.9033 C   0  0  0  0  0  0  0  0  0  0  0  0
   13.6479    0.0420   22.7176 C   0  0  0  0  0  0  0  0  0  0  0  0
   13.0565   -1.1398   23.3708 N   0  0  0  0  0  0  0  0  0  0  0  0
   11.8631   -1.6661   22.6729 C   0  0  0  0  0  0  0  0  0  0  0  0
   10.9470   -0.5133   22.4216 C   0  0  0  0  0  0  0  0  0  0  0  0
    9.6208   -0.5464   22.0559 N   0  0  0  0  0  0  0  0  0  0  0  0
    9.1328    0.7359   21.9736 C   0  0  0  0  0  0  0  0  0  0  0  0
   14.0623   -2.2381   24.0347 S   0  0  0  0  0  0  0  0  0  0  0  0
   13.1752   -3.0721   25.2983 C   0  0  0  0  0  0  0  0  0  0  0  0
   15.1313   -1.5118   24.6472 O   0  0  0  0  0  0  0  0  0  0  0  0
   14.3778   -3.1884   23.0135 O   0  0  0  0  0  0  0  0  0  0  0  0
  1  2  1  0
  2  3  2  0
  2  4  2  0
  2  5  1  0
  5  6  1  0
  6  7  1  0
  7  8  1  0
  8  9  2  0
  9 10  1  0
 10 11  2  0
 11 12  1  0
 12 13  1  0
 13 14  1  0
 14 15  1  0
 15 16  1  0
 16 17  1  0
 17 18  1  0
 18 19  1  0
 19 20  1  0
 16 21  1  0
 21 22  1  0
 21 23  2  0
 21 24  2  0
 20  8  1  0
 20 12  2  0
 18 13  2  0
M  END
