CVD-0000374|dock_bobby27042020.13|mol2|14|dock2
     RDKit          3D

 27 29  0  0  0  0  0  0  0  0999 V2000
    9.8768   -5.7847   26.6150 C   0  0  0  0  0  0  0  0  0  0  0  0
   10.3648   -4.8067   25.6096 C   0  0  0  0  0  0  0  0  0  0  0  0
    9.3448   -4.6661   24.6153 O   0  0  0  0  0  0  0  0  0  0  0  0
    9.5516   -3.8339   23.5418 C   0  0  0  0  0  0  0  0  0  0  0  0
   10.6906   -3.0617   23.3688 C   0  0  0  0  0  0  0  0  0  0  0  0
   10.8186   -2.2324   22.2632 C   0  0  0  0  0  0  0  0  0  0  0  0
   12.0566   -1.3881   22.0767 C   0  0  0  0  0  0  0  0  0  0  0  0
   11.9996   -0.1032   22.7888 N   0  0  0  0  0  0  0  0  0  0  0  0
   11.0415    0.7989   22.1428 C   0  0  0  0  0  0  0  0  0  0  0  0
   10.9562    2.1079   22.9056 C   0  0  0  0  0  0  0  0  0  0  0  0
   12.2742    2.7414   22.9835 N   0  0  0  0  0  0  0  0  0  0  0  0
   13.2709    1.8409   23.5715 C   0  0  0  0  0  0  0  0  0  0  0  0
   13.3151    0.5313   22.8053 C   0  0  0  0  0  0  0  0  0  0  0  0
   12.5026    4.0151   22.5800 C   0  0  0  0  0  0  0  0  0  0  0  0
   13.8932    4.5595   22.7256 C   0  0  0  0  0  0  0  0  0  0  0  0
   11.5946    4.7000   22.1226 O   0  0  0  0  0  0  0  0  0  0  0  0
    9.7935   -2.1959   21.3293 C   0  0  0  0  0  0  0  0  0  0  0  0
    8.6672   -2.9765   21.5012 C   0  0  0  0  0  0  0  0  0  0  0  0
    7.4400   -2.8935   20.2792 Cl  0  0  0  0  0  0  0  0  0  0  0  0
    8.5034   -3.8137   22.6091 C   0  0  0  0  0  0  0  0  0  0  0  0
    7.2796   -4.6551   22.8096 C   0  0  0  0  0  0  0  0  0  0  0  0
    6.1367   -4.1454   23.4178 C   0  0  0  0  0  0  0  0  0  0  0  0
    5.0488   -4.9889   23.5667 C   0  0  0  0  0  0  0  0  0  0  0  0
    3.7768   -4.5216   24.2071 C   0  0  0  0  0  0  0  0  0  0  0  0
    5.0916   -6.2556   23.1373 N   0  0  0  0  0  0  0  0  0  0  0  0
    6.2342   -6.6425   22.5697 C   0  0  0  0  0  0  0  0  0  0  0  0
    7.3409   -5.9252   22.3744 N   0  0  0  0  0  0  0  0  0  0  0  0
  1  2  1  0
  2  3  1  0
  3  4  1  0
  4  5  2  0
  5  6  1  0
  6  7  1  0
  7  8  1  0
  8  9  1  0
  9 10  1  0
 10 11  1  0
 11 12  1  0
 12 13  1  0
 11 14  1  0
 14 15  1  0
 14 16  2  0
  6 17  2  0
 17 18  1  0
 18 19  1  0
 18 20  2  0
 20 21  1  0
 21 22  2  0
 22 23  1  0
 23 24  1  0
 23 25  2  0
 25 26  1  0
 26 27  2  0
 20  4  1  0
 27 21  1  0
 13  8  1  0
M  END
