CVD-0001918|dock_bobby27042020.65|mol2|30|dock1
     RDKit          3D

 27 30  0  0  0  0  0  0  0  0999 V2000
   14.7218   -3.3282   25.3189 O   0  0  0  0  0  0  0  0  0  0  0  0
   14.2203   -2.5514   24.5401 C   0  0  0  0  0  0  0  0  0  0  0  0
   13.4243   -1.4047   24.8876 C   0  0  0  0  0  0  0  0  0  0  0  0
   12.9146   -0.6098   23.9235 C   0  0  0  0  0  0  0  0  0  0  0  0
   13.1682   -0.9038   22.5619 C   0  0  0  0  0  0  0  0  0  0  0  0
   13.9103   -1.9725   22.2649 C   0  0  0  0  0  0  0  0  0  0  0  0
   14.4350   -2.7921   23.1936 O   0  0  0  0  0  0  0  0  0  0  0  0
   11.9454    0.7953   24.3777 S   0  0  0  0  0  0  0  0  0  0  0  0
   12.7168    1.9810   24.1221 O   0  0  0  0  0  0  0  0  0  0  0  0
   11.4231    0.5789   25.6993 O   0  0  0  0  0  0  0  0  0  0  0  0
   10.5967    0.7629   23.2425 C   0  0  0  0  0  0  0  0  0  0  0  0
   10.0961    1.9426   22.7262 C   0  0  0  0  0  0  0  0  0  0  0  0
    9.0491    1.9103   21.8224 C   0  0  0  0  0  0  0  0  0  0  0  0
    8.4773    0.7036   21.4142 C   0  0  0  0  0  0  0  0  0  0  0  0
    7.4375    0.7492   20.4478 N   0  0  0  0  0  0  0  0  0  0  0  0
    7.4963    0.0140   19.1359 C   0  0  0  0  0  0  0  0  0  0  0  0
    6.1482   -0.7215   18.8557 C   0  0  0  0  0  0  0  0  0  0  0  0
    5.0416    0.1760   18.9422 O   0  0  0  0  0  0  0  0  0  0  0  0
    4.9942    0.6658   20.2764 C   0  0  0  0  0  0  0  0  0  0  0  0
    3.8343    1.5759   20.6393 C   0  0  0  0  0  0  0  0  0  0  0  0
    4.3027    2.3366   21.8715 C   0  0  0  0  0  0  0  0  0  0  0  0
    5.8368    2.1800   21.9060 C   0  0  0  0  0  0  0  0  0  0  0  0
    6.1972    1.5452   20.5658 C   0  0  0  0  0  0  0  0  0  0  0  0
    8.9725   -0.4890   21.9925 C   0  0  0  0  0  0  0  0  0  0  0  0
   10.0411   -0.4515   22.8836 C   0  0  0  0  0  0  0  0  0  0  0  0
    8.4217   -1.7933   21.7260 C   0  0  0  0  0  0  0  0  0  0  0  0
    8.0162   -2.8411   21.5198 N   0  0  0  0  0  0  0  0  0  0  0  0
  1  2  2  0
  2  3  1  0
  3  4  2  0
  4  5  1  0
  5  6  2  0
  6  7  1  0
  4  8  1  0
  8  9  2  0
  8 10  2  0
  8 11  1  0
 11 12  2  0
 12 13  1  0
 13 14  2  0
 14 15  1  0
 15 16  1  0
 16 17  1  0
 17 18  1  0
 18 19  1  0
 19 20  1  0
 20 21  1  0
 21 22  1  0
 23 22  1  0
 14 24  1  0
 24 25  2  0
 24 26  1  0
 26 27  3  0
  7  2  1  0
 25 11  1  0
 23 15  1  0
 23 19  1  0
M  END
