CVD-0000743|dock_bobby27042020.26|mol2|21|dock3
     RDKit          3D

 16 17  0  0  0  0  0  0  0  0999 V2000
   13.4979    2.4134   22.8099 Cl  0  0  0  0  0  0  0  0  0  0  0  0
   12.8638    0.8239   22.6966 C   0  0  0  0  0  0  0  0  0  0  0  0
   13.5593   -0.3291   22.7728 C   0  0  0  0  0  0  0  0  0  0  0  0
   12.7311   -1.4410   22.6408 C   0  0  0  0  0  0  0  0  0  0  0  0
   11.4057   -1.1173   22.4644 C   0  0  0  0  0  0  0  0  0  0  0  0
   10.2401   -2.0491   22.2892 C   0  0  0  0  0  0  0  0  0  0  0  0
    8.9965   -1.3121   21.8389 C   0  0  0  0  0  0  0  0  0  0  0  0
    8.1110   -1.0402   22.6425 O   0  0  0  0  0  0  0  0  0  0  0  0
    8.9795   -1.0207   20.5155 N   0  0  0  0  0  0  0  0  0  0  0  0
    8.0129   -0.3650   19.7130 C   0  0  0  0  0  0  0  0  0  0  0  0
    7.0523    0.4260   20.3298 C   0  0  0  0  0  0  0  0  0  0  0  0
    6.1013    1.0734   19.5609 C   0  0  0  0  0  0  0  0  0  0  0  0
    6.1374    0.9115   18.1955 C   0  0  0  0  0  0  0  0  0  0  0  0
    7.0457    0.1596   17.5736 N   0  0  0  0  0  0  0  0  0  0  0  0
    7.9603   -0.4622   18.3244 C   0  0  0  0  0  0  0  0  0  0  0  0
   11.1808    0.5955   22.4620 S   0  0  0  0  0  0  0  0  0  0  0  0
  1  2  1  0
  2  3  2  0
  3  4  1  0
  4  5  2  0
  5  6  1  0
  6  7  1  0
  7  8  2  0
  7  9  1  0
  9 10  1  0
 10 11  2  0
 11 12  1  0
 12 13  2  0
 13 14  1  0
 14 15  2  0
  5 16  1  0
 16  2  1  0
 15 10  1  0
M  END
