CVD-0000263|dock_bobby27042020.56|mol2|33|dock3
     RDKit          3D

 24 26  0  0  0  0  0  0  0  0999 V2000
    3.9385    2.0649   18.7672 Cl  0  0  0  0  0  0  0  0  0  0  0  0
    5.2378    1.0543   19.3357 C   0  0  0  0  0  0  0  0  0  0  0  0
    5.2209    0.5999   20.6359 C   0  0  0  0  0  0  0  0  0  0  0  0
    6.2537   -0.2026   21.0883 C   0  0  0  0  0  0  0  0  0  0  0  0
    7.3038   -0.5502   20.2451 C   0  0  0  0  0  0  0  0  0  0  0  0
    8.3625   -1.3614   20.6539 O   0  0  0  0  0  0  0  0  0  0  0  0
    8.1773   -2.5143   21.4155 C   0  0  0  0  0  0  0  0  0  0  0  0
    7.0354   -3.2870   21.2302 C   0  0  0  0  0  0  0  0  0  0  0  0
    6.8574   -4.4587   21.9410 C   0  0  0  0  0  0  0  0  0  0  0  0
    7.8157   -4.8640   22.8394 C   0  0  0  0  0  0  0  0  0  0  0  0
    8.9447   -4.0925   23.0522 C   0  0  0  0  0  0  0  0  0  0  0  0
    9.1485   -2.8889   22.3683 C   0  0  0  0  0  0  0  0  0  0  0  0
   10.4062   -2.1548   22.7554 C   0  0  0  0  0  0  0  0  0  0  0  0
   10.6211   -1.9164   23.9402 O   0  0  0  0  0  0  0  0  0  0  0  0
   11.2852   -1.7520   21.8321 N   0  0  0  0  0  0  0  0  0  0  0  0
   12.4532   -0.9880   22.2144 C   0  0  0  0  0  0  0  0  0  0  0  0
   13.1024   -1.5038   23.4430 C   0  0  0  0  0  0  0  0  0  0  0  0
   13.2845   -1.0029   24.6719 C   0  0  0  0  0  0  0  0  0  0  0  0
   13.9722   -1.9970   25.3602 C   0  0  0  0  0  0  0  0  0  0  0  0
   14.2085   -3.0373   24.6396 N   0  0  0  0  0  0  0  0  0  0  0  0
   13.6471   -2.7370   23.3772 O   0  0  0  0  0  0  0  0  0  0  0  0
    7.2879   -0.0759   18.9364 C   0  0  0  0  0  0  0  0  0  0  0  0
    8.5785   -0.4953   17.8582 Cl  0  0  0  0  0  0  0  0  0  0  0  0
    6.2626    0.7259   18.4728 C   0  0  0  0  0  0  0  0  0  0  0  0
  1  2  1  0
  2  3  2  0
  3  4  1  0
  4  5  2  0
  5  6  1  0
  6  7  1  0
  7  8  2  0
  8  9  1  0
  9 10  2  0
 10 11  1  0
 11 12  2  0
 12 13  1  0
 13 14  2  0
 13 15  1  0
 15 16  1  0
 16 17  1  0
 17 18  2  0
 18 19  1  0
 19 20  2  0
 20 21  1  0
  5 22  1  0
 22 23  1  0
 22 24  2  0
 24  2  1  0
 12  7  1  0
 21 17  1  0
M  END
