CVD-0003919|dock_bobby27042020.15|mol2|10|dock1
     RDKit          3D

 27 30  0  0  0  0  0  0  0  0999 V2000
   13.8024    5.0949   21.8578 C   0  0  0  0  0  0  0  0  0  0  0  0
   12.5551    4.4034   21.8379 O   0  0  0  0  0  0  0  0  0  0  0  0
   12.4859    3.0917   22.2360 C   0  0  0  0  0  0  0  0  0  0  0  0
   13.6195    2.3049   22.3806 C   0  0  0  0  0  0  0  0  0  0  0  0
   13.4914    0.9877   22.7855 C   0  0  0  0  0  0  0  0  0  0  0  0
   12.2510    0.4312   23.0528 C   0  0  0  0  0  0  0  0  0  0  0  0
   12.1244   -1.0080   23.4904 C   0  0  0  0  0  0  0  0  0  0  0  0
   11.7616   -1.9568   22.3294 C   0  0  0  0  0  0  0  0  0  0  0  0
   10.2743   -2.0413   22.0850 C   0  0  0  0  0  0  0  0  0  0  0  0
    9.4674   -2.8593   22.8579 C   0  0  0  0  0  0  0  0  0  0  0  0
    8.1141   -2.9053   22.5943 C   0  0  0  0  0  0  0  0  0  0  0  0
    7.5259   -2.1976   21.6224 N   0  0  0  0  0  0  0  0  0  0  0  0
    8.3100   -1.4127   20.8809 C   0  0  0  0  0  0  0  0  0  0  0  0
    9.6832   -1.2997   21.0700 C   0  0  0  0  0  0  0  0  0  0  0  0
    7.6668   -0.6715   19.8551 N   0  0  0  0  0  0  0  0  0  0  0  0
    8.1048   -0.5886   18.5561 C   0  0  0  0  0  0  0  0  0  0  0  0
    7.3539    0.1531   17.7789 N   0  0  0  0  0  0  0  0  0  0  0  0
    6.3343    0.6048   18.6113 C   0  0  0  0  0  0  0  0  0  0  0  0
    5.2437    1.4291   18.3426 C   0  0  0  0  0  0  0  0  0  0  0  0
    4.3396    1.7487   19.3518 C   0  0  0  0  0  0  0  0  0  0  0  0
    3.1690    2.6442   19.0428 C   0  0  0  0  0  0  0  0  0  0  0  0
    4.5264    1.2394   20.6486 C   0  0  0  0  0  0  0  0  0  0  0  0
    3.5576    1.5825   21.7493 C   0  0  0  0  0  0  0  0  0  0  0  0
    5.6144    0.4153   20.9276 C   0  0  0  0  0  0  0  0  0  0  0  0
    6.5055    0.1072   19.9050 C   0  0  0  0  0  0  0  0  0  0  0  0
   11.1297    1.2306   22.9021 C   0  0  0  0  0  0  0  0  0  0  0  0
   11.2399    2.5490   22.4983 C   0  0  0  0  0  0  0  0  0  0  0  0
  1  2  1  0
  2  3  1  0
  3  4  2  0
  4  5  1  0
  5  6  2  0
  6  7  1  0
  7  8  1  0
  8  9  1  0
  9 10  2  0
 10 11  1  0
 11 12  2  0
 12 13  1  0
 13 14  2  0
 13 15  1  0
 15 16  1  0
 16 17  2  0
 17 18  1  0
 18 19  2  0
 19 20  1  0
 20 21  1  0
 20 22  2  0
 22 23  1  0
 22 24  1  0
 24 25  2  0
  6 26  1  0
 26 27  2  0
 27  3  1  0
 14  9  1  0
 25 15  1  0
 25 18  1  0
M  END
