CVD-0001836|dock_bobby27042020.51|mol2|15|dock3
     RDKit          3D

 25 28  0  0  0  0  0  0  0  0999 V2000
    8.6095   -1.0574   24.4532 O   0  0  0  0  0  0  0  0  0  0  0  0
    9.3620   -0.4143   23.4118 C   0  0  0  0  0  0  0  0  0  0  0  0
    9.5425   -1.5408   22.3640 C   0  0  0  0  0  0  0  0  0  0  0  0
    8.3532   -2.3724   22.1240 N   0  0  0  0  0  0  0  0  0  0  0  0
    7.9706   -3.5211   22.7995 C   0  0  0  0  0  0  0  0  0  0  0  0
    6.8605   -4.0149   22.3049 N   0  0  0  0  0  0  0  0  0  0  0  0
    6.4672   -3.1689   21.2771 N   0  0  0  0  0  0  0  0  0  0  0  0
    7.3495   -2.1886   21.1839 C   0  0  0  0  0  0  0  0  0  0  0  0
    7.1582   -1.1459   20.1861 C   0  0  0  0  0  0  0  0  0  0  0  0
    6.0153   -0.4164   19.9218 C   0  0  0  0  0  0  0  0  0  0  0  0
    6.3297    0.4658   18.8806 C   0  0  0  0  0  0  0  0  0  0  0  0
    5.1314    1.7014   18.1103 Br  0  0  0  0  0  0  0  0  0  0  0  0
    7.6366    0.2787   18.5263 C   0  0  0  0  0  0  0  0  0  0  0  0
    8.1344   -0.6998   19.3238 N   0  0  0  0  0  0  0  0  0  0  0  0
    8.5688   -4.1703   23.8550 N   0  0  0  0  0  0  0  0  0  0  0  0
    7.9680   -5.2834   24.5512 C   0  0  0  0  0  0  0  0  0  0  0  0
    8.9674   -5.6079   25.6150 C   0  0  0  0  0  0  0  0  0  0  0  0
   10.0577   -4.7436   25.5442 C   0  0  0  0  0  0  0  0  0  0  0  0
    9.8705   -3.8318   24.3796 C   0  0  0  0  0  0  0  0  0  0  0  0
   10.7652   -0.1007   23.8899 C   0  0  0  0  0  0  0  0  0  0  0  0
   10.9413    1.2370   24.6115 C   0  0  0  0  0  0  0  0  0  0  0  0
   11.1719    2.4223   23.6746 C   0  0  0  0  0  0  0  0  0  0  0  0
    9.9748    2.8556   22.8470 C   0  0  0  0  0  0  0  0  0  0  0  0
    9.3302    1.7483   22.0165 C   0  0  0  0  0  0  0  0  0  0  0  0
    8.5579    0.7421   22.8540 C   0  0  0  0  0  0  0  0  0  0  0  0
  1  2  1  0
  2  3  1  0
  3  4  1  0
  4  5  1  0
  5  6  2  0
  6  7  1  0
  7  8  2  0
  8  9  1  0
  9 10  2  0
 10 11  1  0
 11 12  1  0
 11 13  2  0
 13 14  1  0
  5 15  1  0
 15 16  1  0
 16 17  1  0
 17 18  1  0
 18 19  1  0
  2 20  1  0
 20 21  1  0
 21 22  1  0
 22 23  1  0
 23 24  1  0
 24 25  1  0
 25  2  1  0
  8  4  1  0
 14  9  1  0
 19 15  1  0
M  END
