CVD-0002943|dock_bobby27042020.18|mol2|13|dock2
     RDKit          3D

 17 18  0  0  0  0  0  0  0  0999 V2000
    5.3112    1.3472   17.4448 S   0  0  0  0  0  0  0  0  0  0  0  0
    6.3857    0.8468   18.7635 C   0  0  0  0  0  0  0  0  0  0  0  0
    6.2701    1.4205   20.0170 C   0  0  0  0  0  0  0  0  0  0  0  0
    7.1045    1.0214   21.0460 C   0  0  0  0  0  0  0  0  0  0  0  0
    8.0690    0.0422   20.8526 C   0  0  0  0  0  0  0  0  0  0  0  0
    8.1715   -0.5261   19.5895 C   0  0  0  0  0  0  0  0  0  0  0  0
    7.3408   -0.1322   18.5557 C   0  0  0  0  0  0  0  0  0  0  0  0
    8.9665   -0.3670   21.9971 C   0  0  0  0  0  0  0  0  0  0  0  0
    9.8827    0.7260   22.4964 C   0  0  0  0  0  0  0  0  0  0  0  0
   10.7285    0.1817   23.6266 C   0  0  0  0  0  0  0  0  0  0  0  0
   11.4361   -1.0326   23.1713 N   0  0  0  0  0  0  0  0  0  0  0  0
   10.5332   -2.0552   22.6509 C   0  0  0  0  0  0  0  0  0  0  0  0
    9.7357   -1.5214   21.6174 O   0  0  0  0  0  0  0  0  0  0  0  0
   12.7741   -1.1884   23.2268 C   0  0  0  0  0  0  0  0  0  0  0  0
   13.3251   -2.2093   22.8347 O   0  0  0  0  0  0  0  0  0  0  0  0
   13.5642   -0.0317   23.8068 C   0  0  0  0  0  0  0  0  0  0  0  0
   13.4984    1.3764   22.7390 Cl  0  0  0  0  0  0  0  0  0  0  0  0
  1  2  1  0
  2  3  2  0
  3  4  1  0
  4  5  2  0
  5  6  1  0
  6  7  2  0
  5  8  1  0
  8  9  1  0
  9 10  1  0
 10 11  1  0
 11 12  1  0
 12 13  1  0
 11 14  1  0
 14 15  2  0
 14 16  1  0
 16 17  1  0
  7  2  1  0
 13  8  1  0
M  END
