CVD-0001525|dock_bobby27042020.52|mol2|22|dock2
     RDKit          3D

 35 40  0  0  0  0  0  0  0  0999 V2000
    6.1176   -1.3428   26.7062 O   0  0  0  0  0  0  0  0  0  0  0  0
    7.0383   -1.7523   26.0105 C   0  0  0  0  0  0  0  0  0  0  0  0
    8.4667   -1.2838   26.2853 C   0  0  0  0  0  0  0  0  0  0  0  0
    9.0477   -0.5257   25.1747 N   0  0  0  0  0  0  0  0  0  0  0  0
    8.4419    0.7993   25.0599 C   0  0  0  0  0  0  0  0  0  0  0  0
    8.8131    1.4180   23.7197 C   0  0  0  0  0  0  0  0  0  0  0  0
    8.0935    0.7217   22.5720 C   0  0  0  0  0  0  0  0  0  0  0  0
    6.7597    0.9937   22.3014 C   0  0  0  0  0  0  0  0  0  0  0  0
    6.1065    0.3620   21.2562 C   0  0  0  0  0  0  0  0  0  0  0  0
    6.7785   -0.5483   20.4689 C   0  0  0  0  0  0  0  0  0  0  0  0
    8.1037   -0.8274   20.7257 C   0  0  0  0  0  0  0  0  0  0  0  0
    8.7578   -0.1963   21.7706 C   0  0  0  0  0  0  0  0  0  0  0  0
   10.3126    1.3760   23.5265 C   0  0  0  0  0  0  0  0  0  0  0  0
   10.9316    2.2020   22.5882 C   0  0  0  0  0  0  0  0  0  0  0  0
   12.3023    2.1738   22.3943 C   0  0  0  0  0  0  0  0  0  0  0  0
   13.0801    1.3152   23.1390 C   0  0  0  0  0  0  0  0  0  0  0  0
   12.4834    0.4885   24.0744 C   0  0  0  0  0  0  0  0  0  0  0  0
   11.1061    0.5068   24.2793 C   0  0  0  0  0  0  0  0  0  0  0  0
   10.4965   -0.3941   25.3265 C   0  0  0  0  0  0  0  0  0  0  0  0
    6.8248   -2.6199   24.9972 N   0  0  0  0  0  0  0  0  0  0  0  0
    7.8720   -3.1776   24.1060 C   0  0  0  0  0  0  0  0  0  0  0  0
    7.7067   -4.6520   23.9522 C   0  0  0  0  0  0  0  0  0  0  0  0
    7.9646   -5.3936   25.2594 C   0  0  0  0  0  0  0  0  0  0  0  0
    6.9206   -6.0224   25.9275 C   0  0  0  0  0  0  0  0  0  0  0  0
    7.1362   -6.6879   27.1226 C   0  0  0  0  0  0  0  0  0  0  0  0
    8.3999   -6.7405   27.6684 C   0  0  0  0  0  0  0  0  0  0  0  0
    9.4483   -6.1288   27.0167 C   0  0  0  0  0  0  0  0  0  0  0  0
    9.2344   -5.4627   25.8214 C   0  0  0  0  0  0  0  0  0  0  0  0
    6.3408   -4.9714   23.4021 C   0  0  0  0  0  0  0  0  0  0  0  0
    6.1263   -6.0343   22.5252 C   0  0  0  0  0  0  0  0  0  0  0  0
    4.8720   -6.3145   22.0137 C   0  0  0  0  0  0  0  0  0  0  0  0
    3.7990   -5.5281   22.3742 C   0  0  0  0  0  0  0  0  0  0  0  0
    3.9894   -4.4684   23.2428 C   0  0  0  0  0  0  0  0  0  0  0  0
    5.2503   -4.1856   23.7578 C   0  0  0  0  0  0  0  0  0  0  0  0
    5.4320   -3.0451   24.7629 C   0  0  0  0  0  0  0  0  0  0  0  0
  1  2  2  0
  2  3  1  0
  3  4  1  0
  4  5  1  0
  5  6  1  0
  6  7  1  0
  7  8  2  0
  8  9  1  0
  9 10  2  0
 10 11  1  0
 11 12  2  0
  6 13  1  0
 13 14  2  0
 14 15  1  0
 15 16  2  0
 16 17  1  0
 17 18  2  0
 18 19  1  0
  2 20  1  0
 20 21  1  0
 21 22  1  0
 22 23  1  0
 23 24  2  0
 24 25  1  0
 25 26  2  0
 26 27  1  0
 27 28  2  0
 22 29  1  0
 29 30  2  0
 30 31  1  0
 31 32  2  0
 32 33  1  0
 33 34  2  0
 34 35  1  0
 19  4  1  0
 35 20  1  0
 12  7  1  0
 18 13  1  0
 28 23  1  0
 34 29  1  0
M  END
