CVD-0001339|dock_bobby27042020.81|mol2|24|dock2
     RDKit          3D

 21 23  0  0  0  0  0  0  0  0999 V2000
    5.4259   -6.9748   22.1350 N   0  0  0  0  0  0  0  0  0  0  0  0
    5.2199   -5.6492   22.7594 C   0  0  0  0  0  0  0  0  0  0  0  0
    6.5181   -4.8804   22.9801 C   0  0  0  0  0  0  0  0  0  0  0  0
    7.5909   -5.7978   23.5494 C   0  0  0  0  0  0  0  0  0  0  0  0
    8.7517   -4.9594   24.0794 C   0  0  0  0  0  0  0  0  0  0  0  0
    9.0331   -3.8074   23.1557 C   0  0  0  0  0  0  0  0  0  0  0  0
   10.1286   -2.9972   23.3421 N   0  0  0  0  0  0  0  0  0  0  0  0
   10.2824   -2.1268   22.3974 C   0  0  0  0  0  0  0  0  0  0  0  0
    9.0525   -2.2347   21.1599 S   0  0  0  0  0  0  0  0  0  0  0  0
    8.3254   -3.5454   22.0281 C   0  0  0  0  0  0  0  0  0  0  0  0
    7.0171   -4.2095   21.6995 C   0  0  0  0  0  0  0  0  0  0  0  0
   11.4012   -1.1288   22.3359 C   0  0  0  0  0  0  0  0  0  0  0  0
   12.6251   -1.6173   23.0892 C   0  0  0  0  0  0  0  0  0  0  0  0
   13.7180   -0.5575   23.0374 C   0  0  0  0  0  0  0  0  0  0  0  0
   13.2030    0.7644   23.5691 C   0  0  0  0  0  0  0  0  0  0  0  0
   12.0107    1.1811   22.8183 N   0  0  0  0  0  0  0  0  0  0  0  0
   10.9106    0.2129   22.8577 C   0  0  0  0  0  0  0  0  0  0  0  0
   11.7849    2.4326   22.3516 C   0  0  0  0  0  0  0  0  0  0  0  0
   10.7738    2.7107   21.7189 O   0  0  0  0  0  0  0  0  0  0  0  0
   12.8262    3.5018   22.6228 C   0  0  0  0  0  0  0  0  0  0  0  0
   12.2724    5.0957   22.0935 Cl  0  0  0  0  0  0  0  0  0  0  0  0
  1  2  1  0
  2  3  1  0
  3  4  1  0
  4  5  1  0
  5  6  1  0
  6  7  1  0
  7  8  2  0
  8  9  1  0
  9 10  1  0
 10 11  1  0
  8 12  1  0
 12 13  1  0
 13 14  1  0
 14 15  1  0
 15 16  1  0
 16 17  1  0
 16 18  1  0
 18 19  2  0
 18 20  1  0
 20 21  1  0
 11  3  1  0
 17 12  1  0
 10  6  2  0
M  END
