CVD-0002481|dock_bobby27042020.77|mol2|14|dock1
     RDKit          3D

 23 25  0  0  0  0  0  0  0  0999 V2000
   13.7213    5.8556   22.3179 Cl  0  0  0  0  0  0  0  0  0  0  0  0
   13.5851    4.1585   22.7963 C   0  0  0  0  0  0  0  0  0  0  0  0
   12.1501    3.6679   22.7849 C   0  0  0  0  0  0  0  0  0  0  0  0
   11.2312    4.4140   22.4706 O   0  0  0  0  0  0  0  0  0  0  0  0
   11.9249    2.3815   23.1287 N   0  0  0  0  0  0  0  0  0  0  0  0
   10.5869    1.7861   23.1439 C   0  0  0  0  0  0  0  0  0  0  0  0
   10.5574    0.5271   22.2975 C   0  0  0  0  0  0  0  0  0  0  0  0
   11.5465   -0.4373   22.7879 N   0  0  0  0  0  0  0  0  0  0  0  0
   11.4945   -1.6756   21.9955 C   0  0  0  0  0  0  0  0  0  0  0  0
   10.2643   -2.5172   22.2408 C   0  0  0  0  0  0  0  0  0  0  0  0
    9.1113   -2.3897   21.4904 C   0  0  0  0  0  0  0  0  0  0  0  0
    8.0123   -3.1264   21.6847 N   0  0  0  0  0  0  0  0  0  0  0  0
    8.0772   -4.0284   22.6721 C   0  0  0  0  0  0  0  0  0  0  0  0
    9.1360   -4.2451   23.4626 N   0  0  0  0  0  0  0  0  0  0  0  0
   10.2091   -3.4827   23.2275 C   0  0  0  0  0  0  0  0  0  0  0  0
    6.8736   -4.8582   22.9106 C   0  0  0  0  0  0  0  0  0  0  0  0
    6.2690   -4.8944   24.1629 C   0  0  0  0  0  0  0  0  0  0  0  0
    5.1438   -5.6708   24.3839 C   0  0  0  0  0  0  0  0  0  0  0  0
    4.6069   -6.4210   23.3598 C   0  0  0  0  0  0  0  0  0  0  0  0
    5.1939   -6.3963   22.1130 C   0  0  0  0  0  0  0  0  0  0  0  0
    6.3193   -5.6211   21.8880 C   0  0  0  0  0  0  0  0  0  0  0  0
   12.8759    0.1631   22.7120 C   0  0  0  0  0  0  0  0  0  0  0  0
   12.9466    1.4215   23.5577 C   0  0  0  0  0  0  0  0  0  0  0  0
  1  2  1  0
  2  3  1  0
  3  4  2  0
  3  5  1  0
  5  6  1  0
  6  7  1  0
  7  8  1  0
  8  9  1  0
  9 10  1  0
 10 11  2  0
 11 12  1  0
 12 13  2  0
 13 14  1  0
 14 15  2  0
 13 16  1  0
 16 17  2  0
 17 18  1  0
 18 19  2  0
 19 20  1  0
 20 21  2  0
  8 22  1  0
 22 23  1  0
 23  5  1  0
 15 10  1  0
 21 16  1  0
M  END
