CVD-0003480|dock_bobby27042020.45|mol2|14|dock3
     RDKit          3D

 25 28  0  0  0  0  0  0  0  0999 V2000
   11.3751   -0.6072   21.5850 O   0  0  0  0  0  0  0  0  0  0  0  0
   11.3132   -0.4810   22.8059 C   0  0  0  0  0  0  0  0  0  0  0  0
   11.8981   -1.3379   23.6476 N   0  0  0  0  0  0  0  0  0  0  0  0
   12.6839   -2.4879   23.2000 C   0  0  0  0  0  0  0  0  0  0  0  0
   14.1547   -2.0681   23.8030 C   0  0  0  0  0  0  0  0  0  0  0  0
   14.0225   -2.6160   22.4282 C   0  0  0  0  0  0  0  0  0  0  0  0
   10.5480    0.6764   23.4479 C   0  0  0  0  0  0  0  0  0  0  0  0
    9.2269    0.1460   23.9250 C   0  0  0  0  0  0  0  0  0  0  0  0
    8.4158   -0.2939   22.7314 C   0  0  0  0  0  0  0  0  0  0  0  0
    8.3959    0.7535   21.6939 N   0  0  0  0  0  0  0  0  0  0  0  0
    9.3023    1.7325   21.6336 C   0  0  0  0  0  0  0  0  0  0  0  0
    9.1664    2.5852   20.7706 O   0  0  0  0  0  0  0  0  0  0  0  0
   10.3010    1.7846   22.5143 N   0  0  0  0  0  0  0  0  0  0  0  0
   11.1270    2.9518   22.6556 C   0  0  0  0  0  0  0  0  0  0  0  0
   12.5095    2.8236   22.5965 C   0  0  0  0  0  0  0  0  0  0  0  0
   13.3123    3.9414   22.7395 C   0  0  0  0  0  0  0  0  0  0  0  0
   12.7105    5.1612   22.9397 C   0  0  0  0  0  0  0  0  0  0  0  0
   11.3885    5.3176   22.9989 N   0  0  0  0  0  0  0  0  0  0  0  0
   10.6246    4.2305   22.8518 C   0  0  0  0  0  0  0  0  0  0  0  0
    7.2681    0.6665   20.7995 C   0  0  0  0  0  0  0  0  0  0  0  0
    6.9991   -0.5326   20.1451 C   0  0  0  0  0  0  0  0  0  0  0  0
    5.9211   -0.6390   19.2821 C   0  0  0  0  0  0  0  0  0  0  0  0
    5.0934    0.4388   19.0620 C   0  0  0  0  0  0  0  0  0  0  0  0
    5.3489    1.6319   19.6993 C   0  0  0  0  0  0  0  0  0  0  0  0
    6.4314    1.7525   20.5544 C   0  0  0  0  0  0  0  0  0  0  0  0
  1  2  2  0
  2  3  1  0
  3  4  1  0
  4  5  1  0
  5  6  1  0
  2  7  1  0
  7  8  1  0
  8  9  1  0
  9 10  1  0
 10 11  1  0
 11 12  2  0
 11 13  1  0
 13 14  1  0
 14 15  2  0
 15 16  1  0
 16 17  2  0
 17 18  1  0
 18 19  2  0
 10 20  1  0
 20 21  2  0
 21 22  1  0
 22 23  2  0
 23 24  1  0
 24 25  2  0
  6  4  1  0
 13  7  1  0
 19 14  1  0
 25 20  1  0
M  END
