CVD-0002103|dock_bobby27042020.50|mol2|16|dock1
     RDKit          3D

 23 25  0  0  0  0  0  0  0  0999 V2000
    8.6865    3.9084   22.3587 N   0  0  0  0  0  0  0  0  0  0  0  0
    9.2126    2.5367   22.5406 C   0  0  0  0  0  0  0  0  0  0  0  0
    8.1188    1.4880   22.6727 C   0  0  0  0  0  0  0  0  0  0  0  0
    8.6664    0.4048   23.4070 O   0  0  0  0  0  0  0  0  0  0  0  0
    9.4691   -0.4745   22.5908 C   0  0  0  0  0  0  0  0  0  0  0  0
    8.4613   -1.1962   21.6569 C   0  0  0  0  0  0  0  0  0  0  0  0
    7.7992   -0.1386   20.7877 C   0  0  0  0  0  0  0  0  0  0  0  0
    7.3149   -0.4026   19.5001 C   0  0  0  0  0  0  0  0  0  0  0  0
    7.7456   -1.4999   18.8003 O   0  0  0  0  0  0  0  0  0  0  0  0
    6.5128    0.5202   18.8331 C   0  0  0  0  0  0  0  0  0  0  0  0
    6.1356    0.2670   17.5525 O   0  0  0  0  0  0  0  0  0  0  0  0
    6.1783    1.7255   19.4370 C   0  0  0  0  0  0  0  0  0  0  0  0
    6.6509    1.9966   20.7067 C   0  0  0  0  0  0  0  0  0  0  0  0
    7.4555    1.0783   21.3830 C   0  0  0  0  0  0  0  0  0  0  0  0
   10.3740   -1.1890   23.5874 C   0  0  0  0  0  0  0  0  0  0  0  0
   11.3589   -0.2007   24.1938 C   0  0  0  0  0  0  0  0  0  0  0  0
   12.3474    0.3529   23.1723 C   0  0  0  0  0  0  0  0  0  0  0  0
   13.2833    1.2201   23.8141 O   0  0  0  0  0  0  0  0  0  0  0  0
   13.1014   -0.7881   22.5077 C   0  0  0  0  0  0  0  0  0  0  0  0
   14.0733   -0.3161   21.5736 O   0  0  0  0  0  0  0  0  0  0  0  0
   12.1113   -1.7451   21.8541 C   0  0  0  0  0  0  0  0  0  0  0  0
   11.1319   -2.3083   22.8846 C   0  0  0  0  0  0  0  0  0  0  0  0
   10.2517   -3.2705   22.3016 O   0  0  0  0  0  0  0  0  0  0  0  0
  1  2  1  0
  2  3  1  0
  3  4  1  0
  4  5  1  0
  5  6  1  0
  6  7  1  0
  7  8  2  0
  8  9  1  0
  8 10  1  0
 10 11  1  0
 10 12  2  0
 12 13  1  0
 13 14  2  0
  5 15  1  0
 15 16  1  0
 16 17  1  0
 17 18  1  0
 17 19  1  0
 19 20  1  0
 19 21  1  0
 21 22  1  0
 22 23  1  0
 14  3  1  0
 22 15  1  0
 14  7  1  0
M  END
