CVD-0001455|dock_bobby27042020.81|mol2|5|dock1
     RDKit          3D

 23 25  0  0  0  0  0  0  0  0999 V2000
   14.1856    6.3532   21.9679 N   0  0  0  0  0  0  0  0  0  0  0  0
   13.5412    5.2242   21.7189 C   0  0  0  0  0  0  0  0  0  0  0  0
   13.0638    4.9600   20.6115 O   0  0  0  0  0  0  0  0  0  0  0  0
   13.4220    4.2398   22.8655 C   0  0  0  0  0  0  0  0  0  0  0  0
   12.3102    3.2505   22.6829 C   0  0  0  0  0  0  0  0  0  0  0  0
   10.9950    3.5285   22.4507 C   0  0  0  0  0  0  0  0  0  0  0  0
   10.2743    2.3707   22.3381 N   0  0  0  0  0  0  0  0  0  0  0  0
   11.1285    1.3075   22.4984 C   0  0  0  0  0  0  0  0  0  0  0  0
   10.8550   -0.0631   22.4654 C   0  0  0  0  0  0  0  0  0  0  0  0
    9.4564   -0.5782   22.2312 C   0  0  0  0  0  0  0  0  0  0  0  0
    9.0684   -0.4978   20.8196 N   0  0  0  0  0  0  0  0  0  0  0  0
    7.7250   -1.0291   20.5261 C   0  0  0  0  0  0  0  0  0  0  0  0
    7.3369   -0.9408   19.0275 C   0  0  0  0  0  0  0  0  0  0  0  0
    6.3831    0.1031   19.3894 N   0  0  0  0  0  0  0  0  0  0  0  0
    6.5769   -0.0438   20.8311 C   0  0  0  0  0  0  0  0  0  0  0  0
    5.3002    0.5811   18.7287 C   0  0  0  0  0  0  0  0  0  0  0  0
    4.8747   -0.0528   17.7644 O   0  0  0  0  0  0  0  0  0  0  0  0
    4.5866    1.8388   19.1095 C   0  0  0  0  0  0  0  0  0  0  0  0
    5.0676    2.8015   19.8550 C   0  0  0  0  0  0  0  0  0  0  0  0
   11.9287   -0.9273   22.6638 C   0  0  0  0  0  0  0  0  0  0  0  0
   13.2114   -0.4462   22.8818 C   0  0  0  0  0  0  0  0  0  0  0  0
   13.4646    0.9169   22.9102 C   0  0  0  0  0  0  0  0  0  0  0  0
   12.4202    1.8199   22.7179 C   0  0  0  0  0  0  0  0  0  0  0  0
  1  2  1  0
  2  3  2  0
  2  4  1  0
  4  5  1  0
  5  6  2  0
  6  7  1  0
  7  8  1  0
  8  9  2  0
  9 10  1  0
 10 11  1  0
 11 12  1  0
 12 13  1  0
 13 14  1  0
 14 15  1  0
 14 16  1  0
 16 17  2  0
 16 18  1  0
 18 19  2  0
  9 20  1  0
 20 21  2  0
 21 22  1  0
 22 23  2  0
 23  5  1  0
 23  8  1  0
 15 12  1  0
M  END
