CVD-0000157|dock_bobby27042020.42|mol2|30|dock1
     RDKit          3D

 17 18  0  0  0  0  0  0  0  0999 V2000
   13.5786   -0.1474   22.7899 C   0  0  0  0  0  0  0  0  0  0  0  0
   13.4225   -1.6342   21.8778 S   0  0  0  0  0  0  0  0  0  0  0  0
   14.0479   -1.4424   20.6058 O   0  0  0  0  0  0  0  0  0  0  0  0
   13.8721   -2.7114   22.7044 O   0  0  0  0  0  0  0  0  0  0  0  0
   11.8613   -1.8737   21.6022 N   0  0  0  0  0  0  0  0  0  0  0  0
   10.9559   -2.1284   22.7291 C   0  0  0  0  0  0  0  0  0  0  0  0
   10.0462   -0.9362   22.9652 C   0  0  0  0  0  0  0  0  0  0  0  0
    8.8605   -0.9125   22.0311 C   0  0  0  0  0  0  0  0  0  0  0  0
    7.7824   -1.7633   22.2258 C   0  0  0  0  0  0  0  0  0  0  0  0
    6.6884   -1.7566   21.3765 C   0  0  0  0  0  0  0  0  0  0  0  0
    6.6473   -0.8818   20.2905 C   0  0  0  0  0  0  0  0  0  0  0  0
    5.6353   -0.7420   19.3445 N   0  0  0  0  0  0  0  0  0  0  0  0
    5.9398    0.1799   18.4668 C   0  0  0  0  0  0  0  0  0  0  0  0
    5.1506    0.5297   17.4386 N   0  0  0  0  0  0  0  0  0  0  0  0
    7.4917    0.9748   18.7008 S   0  0  0  0  0  0  0  0  0  0  0  0
    7.7388   -0.0280   20.1001 C   0  0  0  0  0  0  0  0  0  0  0  0
    8.8343   -0.0370   20.9534 C   0  0  0  0  0  0  0  0  0  0  0  0
  1  2  1  0
  2  3  2  0
  2  4  2  0
  2  5  1  0
  5  6  1  0
  6  7  1  0
  7  8  1  0
  8  9  2  0
  9 10  1  0
 10 11  2  0
 11 12  1  0
 12 13  2  0
 13 14  1  0
 13 15  1  0
 15 16  1  0
 16 17  2  0
 17  8  1  0
 16 11  1  0
M  END
