CVD-0002919|dock_bobby27042020.61|mol2|30|dock1
     RDKit          3D

 29 32  0  0  0  0  0  0  0  0999 V2000
   13.4934    1.9449   23.0314 C   0  0  0  0  0  0  0  0  0  0  0  0
   12.3618    1.0320   23.1835 N   0  0  0  0  0  0  0  0  0  0  0  0
   12.6688   -0.2695   22.5829 C   0  0  0  0  0  0  0  0  0  0  0  0
   11.5073   -1.2258   22.7796 C   0  0  0  0  0  0  0  0  0  0  0  0
   10.2846   -0.6735   22.1925 N   0  0  0  0  0  0  0  0  0  0  0  0
    9.9824    0.6568   22.7299 C   0  0  0  0  0  0  0  0  0  0  0  0
   11.1703    1.5831   22.5433 C   0  0  0  0  0  0  0  0  0  0  0  0
    9.5374   -1.3448   21.2931 C   0  0  0  0  0  0  0  0  0  0  0  0
    9.8318   -2.4730   20.9190 O   0  0  0  0  0  0  0  0  0  0  0  0
    8.3069   -0.6424   20.7476 C   0  0  0  0  0  0  0  0  0  0  0  0
    7.4916   -1.4918   19.8191 C   0  0  0  0  0  0  0  0  0  0  0  0
    6.9856   -1.1348   18.6037 C   0  0  0  0  0  0  0  0  0  0  0  0
    6.2926   -2.1762   18.0451 N   0  0  0  0  0  0  0  0  0  0  0  0
    6.3389   -3.2381   18.9003 C   0  0  0  0  0  0  0  0  0  0  0  0
    5.7845   -4.4507   18.7275 N   0  0  0  0  0  0  0  0  0  0  0  0
    5.9766   -5.3259   19.7237 C   0  0  0  0  0  0  0  0  0  0  0  0
    6.6872   -5.0664   20.8840 C   0  0  0  0  0  0  0  0  0  0  0  0
    6.8522   -6.1216   21.9509 C   0  0  0  0  0  0  0  0  0  0  0  0
    5.5929   -6.7208   22.3673 N   0  0  0  0  0  0  0  0  0  0  0  0
    4.5228   -5.9681   22.6390 C   0  0  0  0  0  0  0  0  0  0  0  0
    4.5694   -4.7455   22.5417 O   0  0  0  0  0  0  0  0  0  0  0  0
    3.2408   -6.6209   23.0705 C   0  0  0  0  0  0  0  0  0  0  0  0
    3.1953   -7.6847   23.9692 C   0  0  0  0  0  0  0  0  0  0  0  0
    1.9830   -8.2481   24.3325 C   0  0  0  0  0  0  0  0  0  0  0  0
    0.8039   -7.7641   23.8091 C   0  0  0  0  0  0  0  0  0  0  0  0
    0.8330   -6.7131   22.9189 C   0  0  0  0  0  0  0  0  0  0  0  0
    2.0411   -6.1451   22.5517 C   0  0  0  0  0  0  0  0  0  0  0  0
    7.2467   -3.8033   21.0273 C   0  0  0  0  0  0  0  0  0  0  0  0
    7.0823   -2.8500   20.0267 C   0  0  0  0  0  0  0  0  0  0  0  0
  1  2  1  0
  2  3  1  0
  3  4  1  0
  4  5  1  0
  5  6  1  0
  6  7  1  0
  5  8  1  0
  8  9  2  0
  8 10  1  0
 10 11  1  0
 11 12  2  0
 12 13  1  0
 13 14  1  0
 14 15  2  0
 15 16  1  0
 16 17  2  0
 17 18  1  0
 18 19  1  0
 19 20  1  0
 20 21  2  0
 20 22  1  0
 22 23  2  0
 23 24  1  0
 24 25  2  0
 25 26  1  0
 26 27  2  0
 17 28  1  0
 28 29  2  0
  7  2  1  0
 29 11  1  0
 29 14  1  0
 27 22  1  0
M  END
