CVD-0002315|dock_bobby27042020.34|mol2|40|dock2
     RDKit          3D

 29 31  0  0  0  0  0  0  0  0999 V2000
    7.8087    6.8126   23.5094 C   0  0  0  0  0  0  0  0  0  0  0  0
    8.9845    6.0646   23.1188 O   0  0  0  0  0  0  0  0  0  0  0  0
   10.1322    6.4601   23.6666 C   0  0  0  0  0  0  0  0  0  0  0  0
   10.2447    7.4533   24.3655 O   0  0  0  0  0  0  0  0  0  0  0  0
   11.2811    5.5604   23.3393 C   0  0  0  0  0  0  0  0  0  0  0  0
   12.5802    6.0507   23.2771 C   0  0  0  0  0  0  0  0  0  0  0  0
   13.6309    5.2020   22.9742 C   0  0  0  0  0  0  0  0  0  0  0  0
   13.4006    3.8581   22.7301 C   0  0  0  0  0  0  0  0  0  0  0  0
   12.1049    3.3543   22.7855 C   0  0  0  0  0  0  0  0  0  0  0  0
   11.8113    1.9753   22.5364 N   0  0  0  0  0  0  0  0  0  0  0  0
   10.3763    1.2112   22.5551 S   0  0  0  0  0  0  0  0  0  0  0  0
    9.6012    1.6475   21.4296 O   0  0  0  0  0  0  0  0  0  0  0  0
    9.8075    1.4066   23.8585 O   0  0  0  0  0  0  0  0  0  0  0  0
   10.6174   -0.5368   22.3533 C   0  0  0  0  0  0  0  0  0  0  0  0
    9.4905   -1.3396   22.8626 N   0  0  0  0  0  0  0  0  0  0  0  0
    9.7728   -2.7806   22.7572 C   0  0  0  0  0  0  0  0  0  0  0  0
    8.6371   -3.5920   23.3243 C   0  0  0  0  0  0  0  0  0  0  0  0
    7.3767   -3.2578   22.6538 N   0  0  0  0  0  0  0  0  0  0  0  0
    7.0944   -1.8237   22.6754 C   0  0  0  0  0  0  0  0  0  0  0  0
    8.2692   -1.0666   22.1035 C   0  0  0  0  0  0  0  0  0  0  0  0
    6.4613   -4.1393   22.1831 C   0  0  0  0  0  0  0  0  0  0  0  0
    6.7469   -5.6035   22.3446 C   0  0  0  0  0  0  0  0  0  0  0  0
    5.4382   -3.7460   21.6339 O   0  0  0  0  0  0  0  0  0  0  0  0
   11.8947   -0.9407   22.9973 C   0  0  0  0  0  0  0  0  0  0  0  0
   12.8850   -1.7243   22.4163 C   0  0  0  0  0  0  0  0  0  0  0  0
   13.9648   -1.9129   23.3126 C   0  0  0  0  0  0  0  0  0  0  0  0
   13.7919   -1.3041   24.4988 C   0  0  0  0  0  0  0  0  0  0  0  0
   12.3051   -0.4700   24.5850 S   0  0  0  0  0  0  0  0  0  0  0  0
   11.0537    4.2117   23.0921 C   0  0  0  0  0  0  0  0  0  0  0  0
  1  2  1  0
  2  3  1  0
  3  4  2  0
  3  5  1  0
  5  6  2  0
  6  7  1  0
  7  8  2  0
  8  9  1  0
  9 10  1  0
 10 11  1  0
 11 12  2  0
 11 13  2  0
 11 14  1  0
 14 15  1  0
 15 16  1  0
 16 17  1  0
 17 18  1  0
 18 19  1  0
 19 20  1  0
 18 21  1  0
 21 22  1  0
 21 23  2  0
 14 24  1  0
 24 25  2  0
 25 26  1  0
 26 27  2  0
 27 28  1  0
  9 29  2  0
 29  5  1  0
 20 15  1  0
 28 24  1  0
M  END
