CVD-0004028|dock_bobby27042020.29|mol2|4|dock2
     RDKit          3D

 23 24  0  0  0  0  0  0  0  0999 V2000
    9.1611   -5.7260   27.5537 C   0  0  0  0  0  0  0  0  0  0  0  0
    9.3505   -5.4802   25.8301 S   0  0  0  0  0  0  0  0  0  0  0  0
   10.7482   -5.5147   25.5278 O   0  0  0  0  0  0  0  0  0  0  0  0
    8.4826   -6.3938   25.1535 O   0  0  0  0  0  0  0  0  0  0  0  0
    8.8329   -4.0014   25.4902 N   0  0  0  0  0  0  0  0  0  0  0  0
    8.8485   -3.5283   24.1008 C   0  0  0  0  0  0  0  0  0  0  0  0
    9.8259   -2.3738   23.9557 C   0  0  0  0  0  0  0  0  0  0  0  0
   10.0262   -1.9248   22.5010 C   0  0  0  0  0  0  0  0  0  0  0  0
   11.3234   -1.0979   22.3326 C   0  0  0  0  0  0  0  0  0  0  0  0
   12.6042   -1.9312   22.3718 C   0  0  0  0  0  0  0  0  0  0  0  0
   13.8432   -1.0556   22.1857 C   0  0  0  0  0  0  0  0  0  0  0  0
   13.8940    0.0523   23.2196 C   0  0  0  0  0  0  0  0  0  0  0  0
   12.6273    0.8831   23.2064 C   0  0  0  0  0  0  0  0  0  0  0  0
   11.3858    0.0144   23.3821 C   0  0  0  0  0  0  0  0  0  0  0  0
    8.7875   -1.1813   22.0274 C   0  0  0  0  0  0  0  0  0  0  0  0
    7.9204   -0.7772   22.7956 O   0  0  0  0  0  0  0  0  0  0  0  0
    8.7658   -1.0274   20.6800 N   0  0  0  0  0  0  0  0  0  0  0  0
    7.8207   -0.4107   19.8220 C   0  0  0  0  0  0  0  0  0  0  0  0
    7.0725    0.6543   20.3071 C   0  0  0  0  0  0  0  0  0  0  0  0
    6.1445    1.2706   19.4865 C   0  0  0  0  0  0  0  0  0  0  0  0
    5.9897    0.8046   18.2018 C   0  0  0  0  0  0  0  0  0  0  0  0
    6.6917   -0.2145   17.7061 N   0  0  0  0  0  0  0  0  0  0  0  0
    7.5860   -0.8037   18.5060 C   0  0  0  0  0  0  0  0  0  0  0  0
  1  2  1  0
  2  3  2  0
  2  4  2  0
  2  5  1  0
  5  6  1  0
  6  7  1  0
  7  8  1  0
  8  9  1  0
  9 10  1  0
 10 11  1  0
 11 12  1  0
 12 13  1  0
 13 14  1  0
  8 15  1  0
 15 16  2  0
 15 17  1  0
 17 18  1  0
 18 19  2  0
 19 20  1  0
 20 21  2  0
 21 22  1  0
 22 23  2  0
 14  9  1  0
 23 18  1  0
M  END
