CVD-0001633|dock_bobby27042020.80|mol2|29|dock1
     RDKit          3D

 15 16  0  0  0  0  0  0  0  0999 V2000
    9.7898   -0.4695   23.4973 C   0  0  0  0  0  0  0  0  0  0  0  0
   10.8400   -0.2508   22.4206 C   0  0  0  0  0  0  0  0  0  0  0  0
   11.2120   -1.5334   21.7372 C   0  0  0  0  0  0  0  0  0  0  0  0
   11.8675   -2.4341   22.6292 O   0  0  0  0  0  0  0  0  0  0  0  0
   13.0461   -1.8495   23.1488 C   0  0  0  0  0  0  0  0  0  0  0  0
   12.7579   -0.5807   23.8852 C   0  0  0  0  0  0  0  0  0  0  0  0
   12.0429    0.3489   23.0062 N   0  0  0  0  0  0  0  0  0  0  0  0
   12.4741    1.6584   22.7260 C   0  0  0  0  0  0  0  0  0  0  0  0
   11.5577    2.7010   22.6491 C   0  0  0  0  0  0  0  0  0  0  0  0
   11.9789    3.9887   22.3760 C   0  0  0  0  0  0  0  0  0  0  0  0
   13.3387    4.2059   22.1962 C   0  0  0  0  0  0  0  0  0  0  0  0
   14.2508    3.2209   22.2710 N   0  0  0  0  0  0  0  0  0  0  0  0
   13.8084    1.9808   22.5140 C   0  0  0  0  0  0  0  0  0  0  0  0
   13.8444    5.5350   21.9135 C   0  0  0  0  0  0  0  0  0  0  0  0
   14.2751    6.5665   21.6782 N   0  0  0  0  0  0  0  0  0  0  0  0
  1  2  1  0
  2  3  1  0
  3  4  1  0
  4  5  1  0
  5  6  1  0
  6  7  1  0
  7  8  1  0
  8  9  2  0
  9 10  1  0
 10 11  2  0
 11 12  1  0
 12 13  2  0
 11 14  1  0
 14 15  3  0
  7  2  1  0
 13  8  1  0
M  END
