CVD-0003840|dock_bobby27042020.58|mol2|27|dock3
     RDKit          3D

 23 25  0  0  0  0  0  0  0  0999 V2000
   13.0869    6.0302   23.2343 N   0  0  0  0  0  0  0  0  0  0  0  0
   13.5843    4.8542   22.2685 S   0  0  0  0  0  0  0  0  0  0  0  0
   14.9016    4.4861   22.6934 O   0  0  0  0  0  0  0  0  0  0  0  0
   13.3917    5.3021   20.9220 O   0  0  0  0  0  0  0  0  0  0  0  0
   12.5396    3.4499   22.5122 C   0  0  0  0  0  0  0  0  0  0  0  0
   11.1679    3.5818   22.3899 C   0  0  0  0  0  0  0  0  0  0  0  0
   10.3547    2.4789   22.5809 C   0  0  0  0  0  0  0  0  0  0  0  0
   10.8921    1.2337   22.8927 C   0  0  0  0  0  0  0  0  0  0  0  0
   12.2749    1.1233   23.0007 C   0  0  0  0  0  0  0  0  0  0  0  0
   13.0970    2.2207   22.8162 C   0  0  0  0  0  0  0  0  0  0  0  0
   10.0671    0.1344   23.0881 N   0  0  0  0  0  0  0  0  0  0  0  0
    8.7957    0.2388   23.7868 C   0  0  0  0  0  0  0  0  0  0  0  0
    8.6426   -0.9086   24.7718 C   0  0  0  0  0  0  0  0  0  0  0  0
    8.8550   -2.2506   24.1445 C   0  0  0  0  0  0  0  0  0  0  0  0
   10.1882   -2.2761   23.4138 C   0  0  0  0  0  0  0  0  0  0  0  0
   10.2862   -1.1350   22.4052 C   0  0  0  0  0  0  0  0  0  0  0  0
    8.7816   -3.3462   25.1403 N   0  0  0  0  0  0  0  0  0  0  0  0
    9.4785   -4.5536   24.6706 C   0  0  0  0  0  0  0  0  0  0  0  0
    9.2140   -5.8057   25.5067 C   0  0  0  0  0  0  0  0  0  0  0  0
    9.1305   -5.5966   27.0004 C   0  0  0  0  0  0  0  0  0  0  0  0
    7.7369   -5.2412   27.4791 C   0  0  0  0  0  0  0  0  0  0  0  0
    7.2174   -3.8924   26.9962 C   0  0  0  0  0  0  0  0  0  0  0  0
    7.3825   -3.6129   25.5111 C   0  0  0  0  0  0  0  0  0  0  0  0
  1  2  1  0
  2  3  2  0
  2  4  2  0
  2  5  1  0
  5  6  2  0
  6  7  1  0
  7  8  2  0
  8  9  1  0
  9 10  2  0
  8 11  1  0
 11 12  1  0
 12 13  1  0
 13 14  1  0
 14 15  1  0
 15 16  1  0
 14 17  1  0
 17 18  1  0
 18 19  1  0
 19 20  1  0
 20 21  1  0
 21 22  1  0
 22 23  1  0
 10  5  1  0
 16 11  1  0
 23 17  1  0
M  END
