CVD-0000049|dock_bobby27042020.57|mol2|25|dock3
     RDKit          3D

 26 28  0  0  0  0  0  0  0  0999 V2000
   13.6869   -2.0952   22.7689 C   0  0  0  0  0  0  0  0  0  0  0  0
   14.1119   -0.7353   22.8211 O   0  0  0  0  0  0  0  0  0  0  0  0
   13.1557    0.2132   22.8255 C   0  0  0  0  0  0  0  0  0  0  0  0
   13.5737    1.5300   22.7449 C   0  0  0  0  0  0  0  0  0  0  0  0
   12.6020    2.5240   22.7480 C   0  0  0  0  0  0  0  0  0  0  0  0
   11.2679    2.1431   22.8316 C   0  0  0  0  0  0  0  0  0  0  0  0
   10.9531    0.7981   22.9083 C   0  0  0  0  0  0  0  0  0  0  0  0
    9.5269    0.3313   23.0002 C   0  0  0  0  0  0  0  0  0  0  0  0
    9.2230   -1.0733   21.9473 S   0  0  0  0  0  0  0  0  0  0  0  0
   10.4704   -1.4531   21.3547 O   0  0  0  0  0  0  0  0  0  0  0  0
    8.4818   -2.0358   22.7059 O   0  0  0  0  0  0  0  0  0  0  0  0
    8.2529   -0.5466   20.7466 N   0  0  0  0  0  0  0  0  0  0  0  0
    6.8940   -0.0858   20.9193 C   0  0  0  0  0  0  0  0  0  0  0  0
    6.1868    0.3366   19.7862 C   0  0  0  0  0  0  0  0  0  0  0  0
    6.7734    0.3376   18.3983 C   0  0  0  0  0  0  0  0  0  0  0  0
    4.8802    0.7788   19.9730 C   0  0  0  0  0  0  0  0  0  0  0  0
    4.3313    0.7863   21.2382 C   0  0  0  0  0  0  0  0  0  0  0  0
    4.9834    0.3874   22.3362 N   0  0  0  0  0  0  0  0  0  0  0  0
    6.2124   -0.0288   22.1711 C   0  0  0  0  0  0  0  0  0  0  0  0
    6.7862   -0.4070   23.3226 F   0  0  0  0  0  0  0  0  0  0  0  0
   11.8879   -0.1628   22.9054 N   0  0  0  0  0  0  0  0  0  0  0  0
   12.9891    3.9395   22.6646 C   0  0  0  0  0  0  0  0  0  0  0  0
   12.5649    4.9728   23.4658 C   0  0  0  0  0  0  0  0  0  0  0  0
   13.1496    6.2066   23.0913 C   0  0  0  0  0  0  0  0  0  0  0  0
   13.9846    6.1033   22.0444 C   0  0  0  0  0  0  0  0  0  0  0  0
   14.0906    4.4984   21.4744 S   0  0  0  0  0  0  0  0  0  0  0  0
  1  2  1  0
  2  3  1  0
  3  4  2  0
  4  5  1  0
  5  6  2  0
  6  7  1  0
  7  8  1  0
  8  9  1  0
  9 10  2  0
  9 11  2  0
  9 12  1  0
 12 13  1  0
 13 14  2  0
 14 15  1  0
 14 16  1  0
 16 17  2  0
 17 18  1  0
 18 19  2  0
 19 20  1  0
  7 21  2  0
  5 22  1  0
 22 23  2  0
 23 24  1  0
 24 25  2  0
 25 26  1  0
 21  3  1  0
 26 22  1  0
 19 13  1  0
M  END
