CVD-0003653|dock_bobby27042020.30|mol2|17|dock3
     RDKit          3D

 18 18  0  0  0  0  0  0  0  0999 V2000
    8.3639    0.0190   20.9165 C   0  0  0  0  0  0  0  0  0  0  0  0
    8.4409   -1.4439   21.3403 C   0  0  0  0  0  0  0  0  0  0  0  0
    7.0684   -1.9321   21.7890 C   0  0  0  0  0  0  0  0  0  0  0  0
    9.4525   -1.6224   22.4829 C   0  0  0  0  0  0  0  0  0  0  0  0
   10.8309   -1.4756   21.9805 N   0  0  0  0  0  0  0  0  0  0  0  0
   12.0055   -1.0549   23.0036 S   0  0  0  0  0  0  0  0  0  0  0  0
   13.1699   -1.7909   22.6160 O   0  0  0  0  0  0  0  0  0  0  0  0
   11.4771   -1.2172   24.3235 O   0  0  0  0  0  0  0  0  0  0  0  0
   12.3420    0.6562   22.7625 C   0  0  0  0  0  0  0  0  0  0  0  0
   13.6509    1.0832   22.6050 C   0  0  0  0  0  0  0  0  0  0  0  0
   13.9070    2.4303   22.4204 C   0  0  0  0  0  0  0  0  0  0  0  0
   12.8728    3.3519   22.3920 C   0  0  0  0  0  0  0  0  0  0  0  0
   13.1554    4.7866   22.1977 C   0  0  0  0  0  0  0  0  0  0  0  0
   14.4248    5.1578   21.8011 F   0  0  0  0  0  0  0  0  0  0  0  0
   11.5701    2.9088   22.5544 C   0  0  0  0  0  0  0  0  0  0  0  0
   11.2965    1.5653   22.7400 C   0  0  0  0  0  0  0  0  0  0  0  0
    9.3415   -2.9817   23.0737 C   0  0  0  0  0  0  0  0  0  0  0  0
    9.2106   -4.0212   23.5204 N   0  0  0  0  0  0  0  0  0  0  0  0
  1  2  1  0
  2  3  1  0
  2  4  1  0
  4  5  1  0
  5  6  1  0
  6  7  2  0
  6  8  2  0
  6  9  1  0
  9 10  2  0
 10 11  1  0
 11 12  2  0
 12 13  1  0
 13 14  1  0
 12 15  1  0
 15 16  2  0
  4 17  1  0
 17 18  3  0
 16  9  1  0
M  END
