CVD-0000593|dock_bobby27042020.55|mol2|28|dock1
     RDKit          3D

 27 29  0  0  0  0  0  0  0  0999 V2000
   14.3618    5.4247   20.9761 N   0  0  0  0  0  0  0  0  0  0  0  0
   13.9254    5.7158   22.4887 S   0  0  0  0  0  0  0  0  0  0  0  0
   14.8283    4.9959   23.3359 O   0  0  0  0  0  0  0  0  0  0  0  0
   13.8247    7.1369   22.6343 O   0  0  0  0  0  0  0  0  0  0  0  0
   12.3114    5.0433   22.7452 C   0  0  0  0  0  0  0  0  0  0  0  0
   11.3543    5.7919   23.4099 C   0  0  0  0  0  0  0  0  0  0  0  0
   10.0915    5.2566   23.5997 C   0  0  0  0  0  0  0  0  0  0  0  0
    9.7875    3.9894   23.1312 C   0  0  0  0  0  0  0  0  0  0  0  0
   10.7558    3.2523   22.4688 C   0  0  0  0  0  0  0  0  0  0  0  0
   10.4789    1.9749   21.9780 O   0  0  0  0  0  0  0  0  0  0  0  0
   11.1479    0.8385   22.4320 C   0  0  0  0  0  0  0  0  0  0  0  0
   12.1916    0.9635   23.3434 C   0  0  0  0  0  0  0  0  0  0  0  0
   12.9191   -0.1381   23.7500 C   0  0  0  0  0  0  0  0  0  0  0  0
   12.5967   -1.3707   23.2346 C   0  0  0  0  0  0  0  0  0  0  0  0
   13.5248   -2.7650   23.7110 Cl  0  0  0  0  0  0  0  0  0  0  0  0
   11.5518   -1.5278   22.3490 C   0  0  0  0  0  0  0  0  0  0  0  0
   10.7815   -0.4332   21.9444 C   0  0  0  0  0  0  0  0  0  0  0  0
    9.6497   -0.7947   21.0189 C   0  0  0  0  0  0  0  0  0  0  0  0
    9.6929   -1.8786   20.4461 O   0  0  0  0  0  0  0  0  0  0  0  0
    8.6285    0.0926   20.8718 N   0  0  0  0  0  0  0  0  0  0  0  0
    7.4616    0.0313   20.0677 C   0  0  0  0  0  0  0  0  0  0  0  0
    6.2350    0.5973   20.4042 C   0  0  0  0  0  0  0  0  0  0  0  0
    5.1682    0.4732   19.5305 C   0  0  0  0  0  0  0  0  0  0  0  0
    5.3505   -0.2121   18.3519 C   0  0  0  0  0  0  0  0  0  0  0  0
    6.5103   -0.7687   18.0038 N   0  0  0  0  0  0  0  0  0  0  0  0
    7.5339   -0.6411   18.8529 C   0  0  0  0  0  0  0  0  0  0  0  0
   12.0237    3.7738   22.2678 C   0  0  0  0  0  0  0  0  0  0  0  0
  1  2  1  0
  2  3  2  0
  2  4  2  0
  2  5  1  0
  5  6  2  0
  6  7  1  0
  7  8  2  0
  8  9  1  0
  9 10  1  0
 10 11  1  0
 11 12  2  0
 12 13  1  0
 13 14  2  0
 14 15  1  0
 14 16  1  0
 16 17  2  0
 17 18  1  0
 18 19  2  0
 18 20  1  0
 20 21  1  0
 21 22  2  0
 22 23  1  0
 23 24  2  0
 24 25  1  0
 25 26  2  0
  9 27  2  0
 27  5  1  0
 17 11  1  0
 26 21  1  0
M  END
