CVD-0004023|dock_bobby27042020.43|mol2|22|dock2
     RDKit          3D

 41 43  0  0  0  0  0  0  0  0999 V2000
   13.8780    5.7266   22.0976 C   0  0  0  0  0  0  0  0  0  0  0  0
   12.8582    6.2434   22.9505 O   0  0  0  0  0  0  0  0  0  0  0  0
   11.6336    5.6269   23.0122 C   0  0  0  0  0  0  0  0  0  0  0  0
   10.4745    6.3389   23.2876 C   0  0  0  0  0  0  0  0  0  0  0  0
    9.2971    5.6353   23.3284 C   0  0  0  0  0  0  0  0  0  0  0  0
    8.1535    6.3211   23.5973 F   0  0  0  0  0  0  0  0  0  0  0  0
    9.2013    4.2829   23.1148 C   0  0  0  0  0  0  0  0  0  0  0  0
   10.3702    3.5779   22.8393 C   0  0  0  0  0  0  0  0  0  0  0  0
   10.3856    2.1810   22.6032 N   0  0  0  0  0  0  0  0  0  0  0  0
   11.4050    1.2867   22.6169 C   0  0  0  0  0  0  0  0  0  0  0  0
   12.5892    1.5210   22.8503 O   0  0  0  0  0  0  0  0  0  0  0  0
   10.9379   -0.1464   22.2960 C   0  0  0  0  0  0  0  0  0  0  0  0
   11.0328   -0.5932   21.1659 O   0  0  0  0  0  0  0  0  0  0  0  0
   10.3489   -0.9641   23.4409 C   0  0  0  0  0  0  0  0  0  0  0  0
   11.2759   -2.1258   23.8015 C   0  0  0  0  0  0  0  0  0  0  0  0
   12.7373   -1.7196   24.0290 C   0  0  0  0  0  0  0  0  0  0  0  0
   13.6751   -2.8784   24.4223 C   0  0  0  0  0  0  0  0  0  0  0  0
   14.5986   -2.3097   25.4916 C   0  0  0  0  0  0  0  0  0  0  0  0
   13.8849   -1.1328   25.9495 N   0  0  0  0  0  0  0  0  0  0  0  0
   12.8912   -0.7294   25.1539 C   0  0  0  0  0  0  0  0  0  0  0  0
   12.1943    0.2652   25.3369 O   0  0  0  0  0  0  0  0  0  0  0  0
    9.0398   -1.4591   23.0474 N   0  0  0  0  0  0  0  0  0  0  0  0
    8.8689   -2.2041   21.9514 C   0  0  0  0  0  0  0  0  0  0  0  0
    9.7925   -2.5208   21.2065 O   0  0  0  0  0  0  0  0  0  0  0  0
    7.4441   -2.6600   21.6509 C   0  0  0  0  0  0  0  0  0  0  0  0
    6.5614   -1.4458   21.3478 C   0  0  0  0  0  0  0  0  0  0  0  0
    6.6271   -0.8655   19.9353 C   0  0  0  0  0  0  0  0  0  0  0  0
    5.5748    0.2196   19.7871 C   0  0  0  0  0  0  0  0  0  0  0  0
    7.9942   -0.2858   19.6131 C   0  0  0  0  0  0  0  0  0  0  0  0
    6.9045   -3.4460   22.7485 N   0  0  0  0  0  0  0  0  0  0  0  0
    5.9966   -4.4195   22.5178 C   0  0  0  0  0  0  0  0  0  0  0  0
    5.5370   -4.6347   21.3993 O   0  0  0  0  0  0  0  0  0  0  0  0
    5.6282   -5.1390   23.5962 N   0  0  0  0  0  0  0  0  0  0  0  0
    4.6581   -6.2194   23.4951 C   0  0  0  0  0  0  0  0  0  0  0  0
    3.2285   -5.7362   23.4568 C   0  0  0  0  0  0  0  0  0  0  0  0
    2.7648   -4.8189   24.3872 C   0  0  0  0  0  0  0  0  0  0  0  0
    1.4525   -4.3779   24.3542 C   0  0  0  0  0  0  0  0  0  0  0  0
    0.5876   -4.8499   23.3905 C   0  0  0  0  0  0  0  0  0  0  0  0
    1.0351   -5.7631   22.4602 C   0  0  0  0  0  0  0  0  0  0  0  0
    2.3477   -6.2038   22.4937 C   0  0  0  0  0  0  0  0  0  0  0  0
   11.5819    4.2598   22.7902 C   0  0  0  0  0  0  0  0  0  0  0  0
  1  2  1  0
  2  3  1  0
  3  4  2  0
  4  5  1  0
  5  6  1  0
  5  7  2  0
  7  8  1  0
  8  9  1  0
  9 10  1  0
 10 11  2  0
 10 12  1  0
 12 13  2  0
 12 14  1  0
 14 15  1  0
 16 15  1  0
 16 17  1  0
 17 18  1  0
 18 19  1  0
 19 20  1  0
 20 21  2  0
 14 22  1  0
 22 23  1  0
 23 24  2  0
 23 25  1  0
 25 26  1  0
 26 27  1  0
 27 28  1  0
 27 29  1  0
 25 30  1  0
 30 31  1  0
 31 32  2  0
 31 33  1  0
 33 34  1  0
 34 35  1  0
 35 36  2  0
 36 37  1  0
 37 38  2  0
 38 39  1  0
 39 40  2  0
  8 41  2  0
 41  3  1  0
 20 16  1  0
 40 35  1  0
M  END
