CVD-0001848|dock_bobby27042020.79|mol2|38|dock2
     RDKit          3D

 22 25  0  0  0  0  0  0  0  0999 V2000
   14.6960   -1.1527   23.5187 F   0  0  0  0  0  0  0  0  0  0  0  0
   13.6327   -1.9531   23.0790 C   0  0  0  0  0  0  0  0  0  0  0  0
   12.2697   -1.5782   23.6626 C   0  0  0  0  0  0  0  0  0  0  0  0
   11.2469   -1.9233   22.5767 C   0  0  0  0  0  0  0  0  0  0  0  0
   12.0647   -1.8389   21.3735 N   0  0  0  0  0  0  0  0  0  0  0  0
   13.3822   -1.8368   21.5843 C   0  0  0  0  0  0  0  0  0  0  0  0
   14.2492   -1.8111   20.7150 O   0  0  0  0  0  0  0  0  0  0  0  0
   10.0746   -0.9315   22.4715 C   0  0  0  0  0  0  0  0  0  0  0  0
    8.7625   -1.3375   23.0692 C   0  0  0  0  0  0  0  0  0  0  0  0
    8.9100   -1.3174   21.5673 C   0  0  0  0  0  0  0  0  0  0  0  0
    8.2979   -0.1466   20.8235 C   0  0  0  0  0  0  0  0  0  0  0  0
    8.8468    0.9516   20.7889 O   0  0  0  0  0  0  0  0  0  0  0  0
    7.1117   -0.4010   20.2061 N   0  0  0  0  0  0  0  0  0  0  0  0
    6.3073    0.4639   19.4487 C   0  0  0  0  0  0  0  0  0  0  0  0
    6.4986    0.9755   18.2095 C   0  0  0  0  0  0  0  0  0  0  0  0
    5.4247    1.7741   17.9028 N   0  0  0  0  0  0  0  0  0  0  0  0
    4.5334    1.7858   18.9366 C   0  0  0  0  0  0  0  0  0  0  0  0
    3.3675    2.4500   19.0050 N   0  0  0  0  0  0  0  0  0  0  0  0
    2.6992    2.2729   20.1479 C   0  0  0  0  0  0  0  0  0  0  0  0
    3.0523    1.5317   21.1958 N   0  0  0  0  0  0  0  0  0  0  0  0
    4.2182    0.8870   21.0889 C   0  0  0  0  0  0  0  0  0  0  0  0
    5.0331    0.9689   19.9603 C   0  0  0  0  0  0  0  0  0  0  0  0
  1  2  1  0
  2  3  1  0
  3  4  1  0
  4  5  1  0
  5  6  1  0
  6  7  2  0
  4  8  1  0
  8  9  1  0
  9 10  1  0
 10 11  1  0
 11 12  2  0
 11 13  1  0
 13 14  1  0
 14 15  2  0
 15 16  1  0
 16 17  1  0
 17 18  2  0
 18 19  1  0
 19 20  2  0
 20 21  1  0
 21 22  2  0
  6  2  1  0
 10  8  1  0
 22 14  1  0
 22 17  1  0
M  END
