CVD-0002398|dock_bobby27042020.6|mol2|8|dock3
     RDKit          3D

 26 29  0  0  0  0  0  0  0  0999 V2000
    6.5736   -6.5556   23.1755 F   0  0  0  0  0  0  0  0  0  0  0  0
    7.1701   -5.3838   22.8581 C   0  0  0  0  0  0  0  0  0  0  0  0
    6.5620   -4.5438   21.9640 C   0  0  0  0  0  0  0  0  0  0  0  0
    7.1664   -3.3302   21.6378 C   0  0  0  0  0  0  0  0  0  0  0  0
    8.3773   -2.9677   22.2461 C   0  0  0  0  0  0  0  0  0  0  0  0
    8.9913   -3.8552   23.1291 C   0  0  0  0  0  0  0  0  0  0  0  0
    8.3790   -5.0552   23.4370 C   0  0  0  0  0  0  0  0  0  0  0  0
    9.1428   -6.1391   24.5532 Cl  0  0  0  0  0  0  0  0  0  0  0  0
    8.9304   -1.7037   21.9211 N   0  0  0  0  0  0  0  0  0  0  0  0
   10.1425   -1.2441   22.5610 C   0  0  0  0  0  0  0  0  0  0  0  0
   10.0804   -0.4550   23.7036 C   0  0  0  0  0  0  0  0  0  0  0  0
   11.2443   -0.0151   24.3118 C   0  0  0  0  0  0  0  0  0  0  0  0
   12.4736   -0.3543   23.7899 C   0  0  0  0  0  0  0  0  0  0  0  0
   12.5445   -1.1353   22.6568 C   0  0  0  0  0  0  0  0  0  0  0  0
   11.3869   -1.5808   22.0407 C   0  0  0  0  0  0  0  0  0  0  0  0
    8.3428   -0.8319   20.9995 C   0  0  0  0  0  0  0  0  0  0  0  0
    8.8483    0.2556   20.7677 O   0  0  0  0  0  0  0  0  0  0  0  0
    7.1518   -1.2470   20.3830 N   0  0  0  0  0  0  0  0  0  0  0  0
    6.5378   -0.3561   19.4147 C   0  0  0  0  0  0  0  0  0  0  0  0
    5.2514    0.1364   19.5971 C   0  0  0  0  0  0  0  0  0  0  0  0
    4.7022    0.9852   18.6523 C   0  0  0  0  0  0  0  0  0  0  0  0
    5.4555    1.3186   17.5512 C   0  0  0  0  0  0  0  0  0  0  0  0
    6.6909    0.8613   17.3490 N   0  0  0  0  0  0  0  0  0  0  0  0
    7.2089    0.0395   18.2673 C   0  0  0  0  0  0  0  0  0  0  0  0
    6.5053   -2.4703   20.6498 C   0  0  0  0  0  0  0  0  0  0  0  0
    5.4734   -2.8110   20.0965 O   0  0  0  0  0  0  0  0  0  0  0  0
  1  2  1  0
  2  3  2  0
  3  4  1  0
  4  5  2  0
  5  6  1  0
  6  7  2  0
  7  8  1  0
  5  9  1  0
  9 10  1  0
 10 11  2  0
 11 12  1  0
 12 13  2  0
 13 14  1  0
 14 15  2  0
  9 16  1  0
 16 17  2  0
 16 18  1  0
 18 19  1  0
 19 20  2  0
 20 21  1  0
 21 22  2  0
 22 23  1  0
 23 24  2  0
 18 25  1  0
 25 26  2  0
  7  2  1  0
 15 10  1  0
 24 19  1  0
 25  4  1  0
M  END
