CVD-0003422|dock_bobby27042020.74|mol2|2|dock3
     RDKit          3D

 20 21  0  0  0  0  0  0  0  0999 V2000
    5.4180    3.0226   21.2083 C   0  0  0  0  0  0  0  0  0  0  0  0
    5.0560    2.1754   20.0841 N   0  0  0  0  0  0  0  0  0  0  0  0
    3.6744    2.2812   19.6455 C   0  0  0  0  0  0  0  0  0  0  0  0
    5.9150    1.2292   19.5764 C   0  0  0  0  0  0  0  0  0  0  0  0
    5.9045    0.8912   18.2322 C   0  0  0  0  0  0  0  0  0  0  0  0
    6.7297   -0.0158   17.7031 N   0  0  0  0  0  0  0  0  0  0  0  0
    7.5891   -0.6182   18.5017 C   0  0  0  0  0  0  0  0  0  0  0  0
    8.6079   -1.7717   17.6981 Cl  0  0  0  0  0  0  0  0  0  0  0  0
    7.7068   -0.3827   19.8790 C   0  0  0  0  0  0  0  0  0  0  0  0
    8.6670   -1.0893   20.6546 N   0  0  0  0  0  0  0  0  0  0  0  0
    8.7212   -1.3188   21.9898 C   0  0  0  0  0  0  0  0  0  0  0  0
    7.9045   -0.9368   22.8210 O   0  0  0  0  0  0  0  0  0  0  0  0
    9.9262   -2.1316   22.4082 C   0  0  0  0  0  0  0  0  0  0  0  0
   11.2433   -1.3530   22.3347 C   0  0  0  0  0  0  0  0  0  0  0  0
   11.1818   -0.0716   23.1911 C   0  0  0  0  0  0  0  0  0  0  0  0
   12.5058    0.6901   23.1965 C   0  0  0  0  0  0  0  0  0  0  0  0
   13.6601   -0.2072   23.6236 C   0  0  0  0  0  0  0  0  0  0  0  0
   13.7363   -1.4549   22.7553 C   0  0  0  0  0  0  0  0  0  0  0  0
   12.4232   -2.2302   22.7870 C   0  0  0  0  0  0  0  0  0  0  0  0
    6.8293    0.5710   20.3967 C   0  0  0  0  0  0  0  0  0  0  0  0
  1  2  1  0
  2  3  1  0
  2  4  1  0
  4  5  2  0
  5  6  1  0
  6  7  2  0
  7  8  1  0
  7  9  1  0
  9 10  1  0
 10 11  1  0
 11 12  2  0
 11 13  1  0
 13 14  1  0
 14 15  1  0
 15 16  1  0
 16 17  1  0
 17 18  1  0
 18 19  1  0
  9 20  2  0
 20  4  1  0
 19 14  1  0
M  END
