CVD-0003928|dock_bobby27042020.86|mol2|20|dock1
     RDKit          3D

 24 26  0  0  0  0  0  0  0  0999 V2000
    6.1441   -1.4077   18.4851 C   0  0  0  0  0  0  0  0  0  0  0  0
    6.4454   -1.9924   19.7507 O   0  0  0  0  0  0  0  0  0  0  0  0
    7.4366   -1.4628   20.5389 C   0  0  0  0  0  0  0  0  0  0  0  0
    7.8309   -0.1371   20.4346 C   0  0  0  0  0  0  0  0  0  0  0  0
    8.8331    0.3490   21.2559 C   0  0  0  0  0  0  0  0  0  0  0  0
    9.4558   -0.4699   22.1892 C   0  0  0  0  0  0  0  0  0  0  0  0
    9.0565   -1.7971   22.2767 C   0  0  0  0  0  0  0  0  0  0  0  0
    8.0532   -2.2892   21.4616 C   0  0  0  0  0  0  0  0  0  0  0  0
   10.4818    0.0573   23.0278 N   0  0  0  0  0  0  0  0  0  0  0  0
   11.4498   -0.7969   23.7203 C   0  0  0  0  0  0  0  0  0  0  0  0
   12.2485   -0.0088   24.7535 C   0  0  0  0  0  0  0  0  0  0  0  0
   13.2065   -0.9505   25.4877 C   0  0  0  0  0  0  0  0  0  0  0  0
   14.1308   -1.6955   24.5442 C   0  0  0  0  0  0  0  0  0  0  0  0
   14.9933   -2.5970   25.2450 O   0  0  0  0  0  0  0  0  0  0  0  0
   13.3183   -2.4277   23.4879 C   0  0  0  0  0  0  0  0  0  0  0  0
   12.3689   -1.4933   22.7291 C   0  0  0  0  0  0  0  0  0  0  0  0
   10.5944    1.4832   23.1300 C   0  0  0  0  0  0  0  0  0  0  0  0
   11.7187    2.1460   22.6356 C   0  0  0  0  0  0  0  0  0  0  0  0
   11.8602    3.5233   22.7182 C   0  0  0  0  0  0  0  0  0  0  0  0
   13.0931    4.2042   22.1758 C   0  0  0  0  0  0  0  0  0  0  0  0
   10.8509    4.2605   23.3132 C   0  0  0  0  0  0  0  0  0  0  0  0
    9.7478    3.6033   23.7924 C   0  0  0  0  0  0  0  0  0  0  0  0
    8.7624    4.3400   24.3730 F   0  0  0  0  0  0  0  0  0  0  0  0
    9.5826    2.2428   23.7185 C   0  0  0  0  0  0  0  0  0  0  0  0
  1  2  1  0
  2  3  1  0
  3  4  2  0
  4  5  1  0
  5  6  2  0
  6  7  1  0
  7  8  2  0
  6  9  1  0
  9 10  1  0
 10 11  1  0
 11 12  1  0
 12 13  1  0
 13 14  1  0
 13 15  1  0
 15 16  1  0
  9 17  1  0
 17 18  2  0
 18 19  1  0
 19 20  1  0
 19 21  2  0
 21 22  1  0
 22 23  1  0
 22 24  2  0
  8  3  1  0
 16 10  1  0
 24 17  1  0
M  END
