CVD-0002106|dock_bobby27042020.21|mol2|30|dock1
     RDKit          3D

 23 25  0  0  0  0  0  0  0  0999 V2000
   10.8244    0.0048   21.3905 N   0  0  0  0  0  0  0  0  0  0  0  0
   10.2424   -1.2608   21.8891 C   0  0  0  0  0  0  0  0  0  0  0  0
    8.7924   -1.1590   22.3487 C   0  0  0  0  0  0  0  0  0  0  0  0
    8.7832   -1.8308   23.6023 O   0  0  0  0  0  0  0  0  0  0  0  0
    8.7930   -3.2687   23.4835 C   0  0  0  0  0  0  0  0  0  0  0  0
    7.3958   -3.6697   22.9394 C   0  0  0  0  0  0  0  0  0  0  0  0
    7.2085   -2.9856   21.5979 C   0  0  0  0  0  0  0  0  0  0  0  0
    6.3447   -3.5213   20.6304 C   0  0  0  0  0  0  0  0  0  0  0  0
    5.7033   -4.7159   20.8123 O   0  0  0  0  0  0  0  0  0  0  0  0
    6.0600   -2.8127   19.4659 C   0  0  0  0  0  0  0  0  0  0  0  0
    5.2363   -3.3668   18.5388 O   0  0  0  0  0  0  0  0  0  0  0  0
    6.6280   -1.5678   19.2485 C   0  0  0  0  0  0  0  0  0  0  0  0
    7.4793   -1.0354   20.1975 C   0  0  0  0  0  0  0  0  0  0  0  0
    7.7839   -1.7232   21.3758 C   0  0  0  0  0  0  0  0  0  0  0  0
    9.1905   -3.8423   24.8332 C   0  0  0  0  0  0  0  0  0  0  0  0
    9.4054   -5.3541   24.7006 C   0  0  0  0  0  0  0  0  0  0  0  0
    9.7554   -6.0175   26.0282 C   0  0  0  0  0  0  0  0  0  0  0  0
    9.9152   -7.4311   25.8819 O   0  0  0  0  0  0  0  0  0  0  0  0
    8.6803   -5.6963   27.0650 C   0  0  0  0  0  0  0  0  0  0  0  0
    8.4541   -4.1959   27.2460 C   0  0  0  0  0  0  0  0  0  0  0  0
    7.4735   -3.9223   28.2493 O   0  0  0  0  0  0  0  0  0  0  0  0
    8.0802   -3.5841   25.8801 C   0  0  0  0  0  0  0  0  0  0  0  0
    7.7197   -2.2054   25.8908 O   0  0  0  0  0  0  0  0  0  0  0  0
  1  2  1  0
  2  3  1  0
  3  4  1  0
  4  5  1  0
  5  6  1  0
  6  7  1  0
  7  8  2  0
  8  9  1  0
  8 10  1  0
 10 11  1  0
 10 12  2  0
 12 13  1  0
 13 14  2  0
  5 15  1  0
 15 16  1  0
 16 17  1  0
 17 18  1  0
 17 19  1  0
 19 20  1  0
 20 21  1  0
 20 22  1  0
 22 23  1  0
 14  3  1  0
 22 15  1  0
 14  7  1  0
M  END
