CVD-0001777|dock_bobby27042020.8|mol2|27|dock2
     RDKit          3D

 33 36  0  0  0  0  0  0  0  0999 V2000
    5.5404    0.2476   17.0425 O   0  0  0  0  0  0  0  0  0  0  0  0
    5.8371    0.5544   18.3385 C   0  0  0  0  0  0  0  0  0  0  0  0
    4.8131    0.8297   19.2330 C   0  0  0  0  0  0  0  0  0  0  0  0
    5.1244    1.1270   20.5489 C   0  0  0  0  0  0  0  0  0  0  0  0
    4.1318    1.4219   21.4293 O   0  0  0  0  0  0  0  0  0  0  0  0
    6.4424    1.1597   21.0110 C   0  0  0  0  0  0  0  0  0  0  0  0
    6.7612    1.4930   22.4399 C   0  0  0  0  0  0  0  0  0  0  0  0
    8.1640    1.0244   22.7836 C   0  0  0  0  0  0  0  0  0  0  0  0
    8.2313   -0.4153   23.0072 O   0  0  0  0  0  0  0  0  0  0  0  0
    9.2334   -0.9517   23.7283 C   0  0  0  0  0  0  0  0  0  0  0  0
   10.1062   -0.3162   24.2956 O   0  0  0  0  0  0  0  0  0  0  0  0
    9.1650   -2.4453   23.7836 C   0  0  0  0  0  0  0  0  0  0  0  0
    9.8708   -3.1252   24.7713 C   0  0  0  0  0  0  0  0  0  0  0  0
    9.8173   -4.5076   24.8353 C   0  0  0  0  0  0  0  0  0  0  0  0
   10.5024   -5.1817   25.7952 O   0  0  0  0  0  0  0  0  0  0  0  0
    9.0600   -5.2299   23.9163 C   0  0  0  0  0  0  0  0  0  0  0  0
    9.0084   -6.5911   23.9811 O   0  0  0  0  0  0  0  0  0  0  0  0
    8.3559   -4.5428   22.9303 C   0  0  0  0  0  0  0  0  0  0  0  0
    7.6189   -5.2522   22.0367 O   0  0  0  0  0  0  0  0  0  0  0  0
    8.4054   -3.1601   22.8608 C   0  0  0  0  0  0  0  0  0  0  0  0
    9.1374    1.4656   21.6895 C   0  0  0  0  0  0  0  0  0  0  0  0
    8.7810    0.8676   20.4241 O   0  0  0  0  0  0  0  0  0  0  0  0
    7.4432    0.8765   20.0783 C   0  0  0  0  0  0  0  0  0  0  0  0
    7.1606    0.5760   18.7563 C   0  0  0  0  0  0  0  0  0  0  0  0
   10.5661    1.0882   21.9881 C   0  0  0  0  0  0  0  0  0  0  0  0
   11.3720    1.9034   22.7737 C   0  0  0  0  0  0  0  0  0  0  0  0
   12.6807    1.5412   23.0477 C   0  0  0  0  0  0  0  0  0  0  0  0
   13.4703    2.3351   23.8167 O   0  0  0  0  0  0  0  0  0  0  0  0
   13.2087    0.3573   22.5394 C   0  0  0  0  0  0  0  0  0  0  0  0
   14.4972    0.0008   22.8089 O   0  0  0  0  0  0  0  0  0  0  0  0
   12.3991   -0.4561   21.7514 C   0  0  0  0  0  0  0  0  0  0  0  0
   12.9133   -1.6109   21.2541 O   0  0  0  0  0  0  0  0  0  0  0  0
   11.0904   -0.0927   21.4798 C   0  0  0  0  0  0  0  0  0  0  0  0
  1  2  1  0
  2  3  2  0
  3  4  1  0
  4  5  1  0
  4  6  2  0
  6  7  1  0
  7  8  1  0
  8  9  1  0
  9 10  1  0
 10 11  2  0
 10 12  1  0
 12 13  2  0
 13 14  1  0
 14 15  1  0
 14 16  2  0
 16 17  1  0
 16 18  1  0
 18 19  1  0
 18 20  2  0
  8 21  1  0
 21 22  1  0
 22 23  1  0
 23 24  2  0
 21 25  1  0
 25 26  2  0
 26 27  1  0
 27 28  1  0
 27 29  2  0
 29 30  1  0
 29 31  1  0
 31 32  1  0
 31 33  2  0
 24  2  1  0
 33 25  1  0
 23  6  1  0
 20 12  1  0
M  END
