CVD-0002822|dock_bobby27042020.90|mol2|8|dock1
     RDKit          3D

 21 23  0  0  0  0  0  0  0  0999 V2000
   14.5662    0.7953   22.7601 O   0  0  0  0  0  0  0  0  0  0  0  0
   13.3814    0.3129   23.2332 C   0  0  0  0  0  0  0  0  0  0  0  0
   13.0135    0.5291   24.5509 C   0  0  0  0  0  0  0  0  0  0  0  0
   11.8154    0.0191   25.0136 C   0  0  0  0  0  0  0  0  0  0  0  0
   10.9541   -0.7128   24.1940 C   0  0  0  0  0  0  0  0  0  0  0  0
    9.6441   -1.2697   24.6892 C   0  0  0  0  0  0  0  0  0  0  0  0
    8.6227   -1.2340   23.6030 C   0  0  0  0  0  0  0  0  0  0  0  0
    9.0836   -2.0023   22.4203 N   0  0  0  0  0  0  0  0  0  0  0  0
   10.4648   -1.7768   21.9545 C   0  0  0  0  0  0  0  0  0  0  0  0
   11.3399   -0.9198   22.8745 C   0  0  0  0  0  0  0  0  0  0  0  0
   12.5428   -0.4105   22.4013 C   0  0  0  0  0  0  0  0  0  0  0  0
    8.3517   -2.9316   21.7659 C   0  0  0  0  0  0  0  0  0  0  0  0
    8.7979   -3.5350   20.7981 O   0  0  0  0  0  0  0  0  0  0  0  0
    6.9502   -3.2159   22.2720 C   0  0  0  0  0  0  0  0  0  0  0  0
    6.1077   -4.3693   21.2291 Cl  0  0  0  0  0  0  0  0  0  0  0  0
    9.7636   -2.6817   25.2481 C   0  0  0  0  0  0  0  0  0  0  0  0
    8.8879   -3.1348   26.2248 C   0  0  0  0  0  0  0  0  0  0  0  0
    8.9952   -4.4195   26.7309 C   0  0  0  0  0  0  0  0  0  0  0  0
    9.9784   -5.2667   26.2664 C   0  0  0  0  0  0  0  0  0  0  0  0
   10.8546   -4.8304   25.2958 C   0  0  0  0  0  0  0  0  0  0  0  0
   10.7480   -3.5458   24.7891 C   0  0  0  0  0  0  0  0  0  0  0  0
  1  2  1  0
  2  3  2  0
  3  4  1  0
  4  5  2  0
  5  6  1  0
  6  7  1  0
  7  8  1  0
  8  9  1  0
  9 10  1  0
 10 11  2  0
  8 12  1  0
 12 13  2  0
 12 14  1  0
 14 15  1  0
  6 16  1  0
 16 17  2  0
 17 18  1  0
 18 19  2  0
 19 20  1  0
 20 21  2  0
 11  2  1  0
 21 16  1  0
 10  5  1  0
M  END
