CVD-0002530|dock_bobby27042020.77|mol2|7|dock1
     RDKit          3D

 28 30  0  0  0  0  0  0  0  0999 V2000
   10.4800    2.3599   23.6274 O   0  0  0  0  0  0  0  0  0  0  0  0
   11.5518    1.7728   23.7316 C   0  0  0  0  0  0  0  0  0  0  0  0
   11.6173    0.3300   24.1882 C   0  0  0  0  0  0  0  0  0  0  0  0
   11.3107   -0.8018   23.2142 C   0  0  0  0  0  0  0  0  0  0  0  0
   12.4364   -0.8468   22.1628 C   0  0  0  0  0  0  0  0  0  0  0  0
   13.7898   -1.1615   22.7943 C   0  0  0  0  0  0  0  0  0  0  0  0
   13.7568   -2.4437   23.5881 C   0  0  0  0  0  0  0  0  0  0  0  0
   12.6676   -2.4095   24.6165 C   0  0  0  0  0  0  0  0  0  0  0  0
   11.3181   -2.1218   23.9834 C   0  0  0  0  0  0  0  0  0  0  0  0
    9.6921   -0.4079   22.4983 S   0  0  0  0  0  0  0  0  0  0  0  0
    8.7705   -0.3494   23.5858 O   0  0  0  0  0  0  0  0  0  0  0  0
    9.8805    0.7422   21.6754 O   0  0  0  0  0  0  0  0  0  0  0  0
    9.2965   -1.6199   21.5671 N   0  0  0  0  0  0  0  0  0  0  0  0
    8.3633   -2.6741   21.9820 C   0  0  0  0  0  0  0  0  0  0  0  0
    6.9342   -2.1620   21.9633 C   0  0  0  0  0  0  0  0  0  0  0  0
    6.6208   -1.3504   20.7296 C   0  0  0  0  0  0  0  0  0  0  0  0
    6.7496    0.0301   20.7366 C   0  0  0  0  0  0  0  0  0  0  0  0
    6.4593    0.7754   19.6061 C   0  0  0  0  0  0  0  0  0  0  0  0
    6.0352    0.1489   18.4541 C   0  0  0  0  0  0  0  0  0  0  0  0
    5.9015   -1.2226   18.4333 C   0  0  0  0  0  0  0  0  0  0  0  0
    6.1921   -1.9670   19.5643 C   0  0  0  0  0  0  0  0  0  0  0  0
   12.7651    2.3052   23.4449 N   0  0  0  0  0  0  0  0  0  0  0  0
   13.1321    3.5911   22.9763 C   0  0  0  0  0  0  0  0  0  0  0  0
   14.3768    3.8944   22.4338 C   0  0  0  0  0  0  0  0  0  0  0  0
   14.6317    5.1860   22.0059 C   0  0  0  0  0  0  0  0  0  0  0  0
   13.6426    6.1342   22.1303 C   0  0  0  0  0  0  0  0  0  0  0  0
   12.4411    5.8732   22.6452 N   0  0  0  0  0  0  0  0  0  0  0  0
   12.2049    4.6238   23.0555 C   0  0  0  0  0  0  0  0  0  0  0  0
  1  2  2  0
  2  3  1  0
  3  4  1  0
  4  5  1  0
  5  6  1  0
  6  7  1  0
  7  8  1  0
  8  9  1  0
  4 10  1  0
 10 11  2  0
 10 12  2  0
 10 13  1  0
 13 14  1  0
 14 15  1  0
 15 16  1  0
 16 17  2  0
 17 18  1  0
 18 19  2  0
 19 20  1  0
 20 21  2  0
  2 22  1  0
 22 23  1  0
 23 24  2  0
 24 25  1  0
 25 26  2  0
 26 27  1  0
 27 28  2  0
  9  4  1  0
 21 16  1  0
 28 23  1  0
M  END
