CVD-0003141|dock_bobby27042020.3|mol2|9|dock2
     RDKit          3D

 18 19  0  0  0  0  0  0  0  0999 V2000
   13.5632   -2.1359   20.9765 C   0  0  0  0  0  0  0  0  0  0  0  0
   12.4822   -1.7624   21.9818 C   0  0  0  0  0  0  0  0  0  0  0  0
   11.2803   -1.3348   21.2835 N   0  0  0  0  0  0  0  0  0  0  0  0
   10.2505   -0.8023   21.9576 C   0  0  0  0  0  0  0  0  0  0  0  0
   10.2949   -0.6670   23.1794 O   0  0  0  0  0  0  0  0  0  0  0  0
    9.0169   -0.3591   21.2299 C   0  0  0  0  0  0  0  0  0  0  0  0
    8.3429    0.8546   21.5835 C   0  0  0  0  0  0  0  0  0  0  0  0
    7.2360    1.2568   20.9336 C   0  0  0  0  0  0  0  0  0  0  0  0
    6.7368    0.4858   19.9045 N   0  0  0  0  0  0  0  0  0  0  0  0
    5.6354    0.6650   19.0871 C   0  0  0  0  0  0  0  0  0  0  0  0
    4.7363    1.8488   19.2214 C   0  0  0  0  0  0  0  0  0  0  0  0
    5.6312   -0.3978   18.2624 C   0  0  0  0  0  0  0  0  0  0  0  0
    6.6757   -1.2536   18.5078 N   0  0  0  0  0  0  0  0  0  0  0  0
    7.3459   -0.6984   19.5183 C   0  0  0  0  0  0  0  0  0  0  0  0
    8.5087   -1.1230   20.1992 C   0  0  0  0  0  0  0  0  0  0  0  0
   12.9894   -0.6499   22.8931 C   0  0  0  0  0  0  0  0  0  0  0  0
   13.7236   -1.0288   23.9269 N   0  0  0  0  0  0  0  0  0  0  0  0
   12.7171    0.5295   22.6580 O   0  0  0  0  0  0  0  0  0  0  0  0
  2  1  1  0
  2  3  1  0
  3  4  1  0
  4  5  2  0
  4  6  1  0
  6  7  1  0
  7  8  2  0
  8  9  1  0
  9 10  1  0
 10 11  1  0
 10 12  2  0
 12 13  1  0
 13 14  2  0
 14 15  1  0
  2 16  1  0
 16 17  1  0
 16 18  2  0
 15  6  2  0
 14  9  1  0
M  END
