CVD-0003533|dock_bobby27042020.87|mol2|35|dock1
     RDKit          3D

 27 30  0  0  0  0  0  0  0  0999 V2000
   10.0989    6.1531   22.2171 O   0  0  0  0  0  0  0  0  0  0  0  0
   10.7411    6.1077   23.4131 C   0  0  0  0  0  0  0  0  0  0  0  0
   10.1292    6.6313   24.5454 C   0  0  0  0  0  0  0  0  0  0  0  0
   10.7836    6.5863   25.7649 C   0  0  0  0  0  0  0  0  0  0  0  0
   12.0390    6.0233   25.8531 C   0  0  0  0  0  0  0  0  0  0  0  0
   12.6480    5.5017   24.7237 C   0  0  0  0  0  0  0  0  0  0  0  0
   12.0114    5.5333   23.4861 C   0  0  0  0  0  0  0  0  0  0  0  0
   12.6675    4.9707   22.2493 C   0  0  0  0  0  0  0  0  0  0  0  0
   13.5647    3.8587   22.5273 N   0  0  0  0  0  0  0  0  0  0  0  0
   13.1726    2.5796   22.5202 C   0  0  0  0  0  0  0  0  0  0  0  0
   11.9426    2.1762   22.2640 N   0  0  0  0  0  0  0  0  0  0  0  0
   11.9968    0.7894   22.3656 C   0  0  0  0  0  0  0  0  0  0  0  0
   10.9903   -0.1818   22.1983 C   0  0  0  0  0  0  0  0  0  0  0  0
   11.3611   -1.5255   22.3550 C   0  0  0  0  0  0  0  0  0  0  0  0
   12.6588   -1.8873   22.6860 C   0  0  0  0  0  0  0  0  0  0  0  0
   13.6458   -0.9336   22.8588 C   0  0  0  0  0  0  0  0  0  0  0  0
   13.2961    0.3984   22.6902 C   0  0  0  0  0  0  0  0  0  0  0  0
   14.0282    1.5656   22.7822 N   0  0  0  0  0  0  0  0  0  0  0  0
    9.5736    0.2140   21.8588 C   0  0  0  0  0  0  0  0  0  0  0  0
    9.0033    0.9887   22.6190 O   0  0  0  0  0  0  0  0  0  0  0  0
    8.9811   -0.2964   20.7412 N   0  0  0  0  0  0  0  0  0  0  0  0
    7.6826   -0.0957   20.2039 C   0  0  0  0  0  0  0  0  0  0  0  0
    6.6378    0.0475   21.1103 C   0  0  0  0  0  0  0  0  0  0  0  0
    5.3408    0.2492   20.6699 C   0  0  0  0  0  0  0  0  0  0  0  0
    5.0674    0.3106   19.3218 C   0  0  0  0  0  0  0  0  0  0  0  0
    6.0918    0.1685   18.4123 C   0  0  0  0  0  0  0  0  0  0  0  0
    7.3932   -0.0350   18.8412 C   0  0  0  0  0  0  0  0  0  0  0  0
  1  2  1  0
  2  3  2  0
  3  4  1  0
  4  5  2  0
  5  6  1  0
  6  7  2  0
  7  8  1  0
  8  9  1  0
  9 10  1  0
 10 11  2  0
 11 12  1  0
 12 13  2  0
 13 14  1  0
 14 15  2  0
 15 16  1  0
 16 17  2  0
 17 18  1  0
 13 19  1  0
 19 20  2  0
 19 21  1  0
 21 22  1  0
 22 23  2  0
 23 24  1  0
 24 25  2  0
 25 26  1  0
 26 27  2  0
  7  2  1  0
 18 10  1  0
 27 22  1  0
 17 12  1  0
M  END
