CVD-0001218|dock_bobby27042020.24|mol2|34|dock3
     RDKit          3D

 21 22  0  0  0  0  0  0  0  0999 V2000
    6.1881   -1.0186   18.2563 C   0  0  0  0  0  0  0  0  0  0  0  0
    5.7583   -0.1575   19.4162 C   0  0  0  0  0  0  0  0  0  0  0  0
    4.8350    0.8574   19.1832 C   0  0  0  0  0  0  0  0  0  0  0  0
    4.4218    1.6581   20.2242 C   0  0  0  0  0  0  0  0  0  0  0  0
    4.8637    1.5145   21.4703 N   0  0  0  0  0  0  0  0  0  0  0  0
    5.7497    0.5420   21.7069 C   0  0  0  0  0  0  0  0  0  0  0  0
    6.2372   -0.3264   20.7298 C   0  0  0  0  0  0  0  0  0  0  0  0
    7.1803   -1.3622   20.9797 N   0  0  0  0  0  0  0  0  0  0  0  0
    7.3310   -2.1691   22.0588 C   0  0  0  0  0  0  0  0  0  0  0  0
    6.6696   -2.1333   23.0908 O   0  0  0  0  0  0  0  0  0  0  0  0
    8.4480   -3.1839   21.9113 C   0  0  0  0  0  0  0  0  0  0  0  0
    9.7418   -2.5759   21.6880 N   0  0  0  0  0  0  0  0  0  0  0  0
   10.5820   -2.3466   22.6935 C   0  0  0  0  0  0  0  0  0  0  0  0
   10.3164   -2.6325   23.8570 O   0  0  0  0  0  0  0  0  0  0  0  0
   11.8980   -1.6958   22.3163 C   0  0  0  0  0  0  0  0  0  0  0  0
   12.8725   -1.6563   23.4717 C   0  0  0  0  0  0  0  0  0  0  0  0
   12.7080   -0.7719   24.5245 C   0  0  0  0  0  0  0  0  0  0  0  0
   13.6216   -0.7609   25.5638 C   0  0  0  0  0  0  0  0  0  0  0  0
   14.6786   -1.6412   25.5155 C   0  0  0  0  0  0  0  0  0  0  0  0
   14.8646   -2.5036   24.5151 N   0  0  0  0  0  0  0  0  0  0  0  0
   13.9695   -2.4955   23.5226 C   0  0  0  0  0  0  0  0  0  0  0  0
  1  2  1  0
  2  3  2  0
  3  4  1  0
  4  5  2  0
  5  6  1  0
  6  7  2  0
  7  8  1  0
  8  9  1  0
  9 10  2  0
  9 11  1  0
 11 12  1  0
 12 13  1  0
 13 14  2  0
 13 15  1  0
 15 16  1  0
 16 17  2  0
 17 18  1  0
 18 19  2  0
 19 20  1  0
 20 21  2  0
  7  2  1  0
 21 16  1  0
M  END
