CVD-0002670|dock_bobby27042020.47|mol2|40|dock3
     RDKit          3D

 18 19  0  0  0  0  0  0  0  0999 V2000
   13.6827   -1.9471   21.0471 C   0  0  0  0  0  0  0  0  0  0  0  0
   13.6541   -1.8987   22.5618 C   0  0  0  0  0  0  0  0  0  0  0  0
   13.4939   -0.4949   23.0892 C   0  0  0  0  0  0  0  0  0  0  0  0
   13.4873   -0.4801   24.6006 C   0  0  0  0  0  0  0  0  0  0  0  0
   12.1986   -0.0169   22.5919 O   0  0  0  0  0  0  0  0  0  0  0  0
   11.7859    1.2656   22.5650 C   0  0  0  0  0  0  0  0  0  0  0  0
   12.6863    2.1827   22.8264 N   0  0  0  0  0  0  0  0  0  0  0  0
   12.2243    3.4676   22.7857 C   0  0  0  0  0  0  0  0  0  0  0  0
   11.0106    3.9411   22.5270 N   0  0  0  0  0  0  0  0  0  0  0  0
   10.1130    2.9315   22.2717 N   0  0  0  0  0  0  0  0  0  0  0  0
    8.7918    3.0876   21.9838 C   0  0  0  0  0  0  0  0  0  0  0  0
    8.2707    4.3215   21.9289 F   0  0  0  0  0  0  0  0  0  0  0  0
    8.2078    1.9110   21.7950 C   0  0  0  0  0  0  0  0  0  0  0  0
    9.1793    0.9274   21.9643 C   0  0  0  0  0  0  0  0  0  0  0  0
   10.4142    1.5825   22.2710 C   0  0  0  0  0  0  0  0  0  0  0  0
   13.2963    4.4598   23.0870 C   0  0  0  0  0  0  0  0  0  0  0  0
   12.8898    5.6636   23.4690 N   0  0  0  0  0  0  0  0  0  0  0  0
   14.4869    4.1456   22.9769 O   0  0  0  0  0  0  0  0  0  0  0  0
  1  2  1  0
  2  3  1  0
  3  4  1  0
  3  5  1  0
  5  6  1  0
  6  7  2  0
  7  8  1  0
  8  9  2  0
  9 10  1  0
 10 11  1  0
 11 12  1  0
 11 13  2  0
 13 14  1  0
 14 15  2  0
  8 16  1  0
 16 17  1  0
 16 18  2  0
 15  6  1  0
 15 10  1  0
M  END
