CVD-0001446|dock_bobby27042020.23|mol2|47|dock1
     RDKit          3D

 22 23  0  0  0  0  0  0  0  0999 V2000
   12.5649    3.9413   22.2026 C   0  0  0  0  0  0  0  0  0  0  0  0
   13.3482    2.7188   22.5841 C   0  0  0  0  0  0  0  0  0  0  0  0
   14.5696    2.7177   22.4782 O   0  0  0  0  0  0  0  0  0  0  0  0
   12.6949    1.6124   23.0322 N   0  0  0  0  0  0  0  0  0  0  0  0
   11.2390    1.5552   23.1802 C   0  0  0  0  0  0  0  0  0  0  0  0
   10.6758    0.3658   22.4247 C   0  0  0  0  0  0  0  0  0  0  0  0
   11.2833   -0.8770   22.9094 N   0  0  0  0  0  0  0  0  0  0  0  0
   10.7120   -2.0360   22.2084 C   0  0  0  0  0  0  0  0  0  0  0  0
    9.2092   -1.9729   22.0757 C   0  0  0  0  0  0  0  0  0  0  0  0
    8.3879   -2.3082   23.1403 C   0  0  0  0  0  0  0  0  0  0  0  0
    7.0109   -2.2441   23.0117 C   0  0  0  0  0  0  0  0  0  0  0  0
    6.4449   -1.8425   21.8137 C   0  0  0  0  0  0  0  0  0  0  0  0
    7.2459   -1.5022   20.7349 C   0  0  0  0  0  0  0  0  0  0  0  0
    6.6385   -1.0593   19.4258 C   0  0  0  0  0  0  0  0  0  0  0  0
    6.0535    0.3481   19.5352 C   0  0  0  0  0  0  0  0  0  0  0  0
    5.3126    0.9619   18.0474 S   0  0  0  0  0  0  0  0  0  0  0  0
    4.3665    2.2033   18.4050 N   0  0  0  0  0  0  0  0  0  0  0  0
    4.4762   -0.0853   17.5341 O   0  0  0  0  0  0  0  0  0  0  0  0
    6.3782    1.4541   17.2219 O   0  0  0  0  0  0  0  0  0  0  0  0
    8.6256   -1.5707   20.8811 C   0  0  0  0  0  0  0  0  0  0  0  0
   12.7276   -0.8144   22.7013 C   0  0  0  0  0  0  0  0  0  0  0  0
   13.3288    0.3591   23.4533 C   0  0  0  0  0  0  0  0  0  0  0  0
  1  2  1  0
  2  3  2  0
  2  4  1  0
  4  5  1  0
  5  6  1  0
  6  7  1  0
  7  8  1  0
  8  9  1  0
  9 10  2  0
 10 11  1  0
 11 12  2  0
 12 13  1  0
 13 14  1  0
 14 15  1  0
 15 16  1  0
 16 17  1  0
 16 18  2  0
 16 19  2  0
 13 20  2  0
  7 21  1  0
 21 22  1  0
 22  4  1  0
 20  9  1  0
M  END
