CVD-0001945|dock_bobby27042020.50|mol2|42|dock1
     RDKit          3D

 29 31  0  0  0  0  0  0  0  0999 V2000
    9.8911   -5.0439   26.2762 C   0  0  0  0  0  0  0  0  0  0  0  0
   10.2105   -5.0538   24.8464 N   0  0  0  0  0  0  0  0  0  0  0  0
    9.0403   -5.0982   23.9632 C   0  0  0  0  0  0  0  0  0  0  0  0
    8.9585   -3.8774   23.0850 C   0  0  0  0  0  0  0  0  0  0  0  0
    7.9167   -3.5727   22.1957 C   0  0  0  0  0  0  0  0  0  0  0  0
    8.1901   -2.3848   21.5414 C   0  0  0  0  0  0  0  0  0  0  0  0
    7.3167   -1.7735   20.5085 C   0  0  0  0  0  0  0  0  0  0  0  0
    7.0239   -0.4077   20.5262 C   0  0  0  0  0  0  0  0  0  0  0  0
    6.2091    0.1595   19.5605 C   0  0  0  0  0  0  0  0  0  0  0  0
    5.6831   -0.6131   18.5491 C   0  0  0  0  0  0  0  0  0  0  0  0
    5.9672   -1.9656   18.4939 C   0  0  0  0  0  0  0  0  0  0  0  0
    6.7700   -2.5108   19.4676 C   0  0  0  0  0  0  0  0  0  0  0  0
    7.0230   -3.8375   19.3881 F   0  0  0  0  0  0  0  0  0  0  0  0
    9.4138   -1.9143   22.0463 N   0  0  0  0  0  0  0  0  0  0  0  0
    9.8711   -2.8431   22.9663 C   0  0  0  0  0  0  0  0  0  0  0  0
   10.1154   -0.6959   21.7503 C   0  0  0  0  0  0  0  0  0  0  0  0
    9.7307    0.0438   20.8563 O   0  0  0  0  0  0  0  0  0  0  0  0
   11.1992   -0.3707   22.4821 N   0  0  0  0  0  0  0  0  0  0  0  0
   11.9276    0.8693   22.2323 C   0  0  0  0  0  0  0  0  0  0  0  0
   11.3240    2.0610   22.9816 C   0  0  0  0  0  0  0  0  0  0  0  0
   12.0024    3.3619   22.6046 C   0  0  0  0  0  0  0  0  0  0  0  0
   13.4998    3.2613   22.6336 C   0  0  0  0  0  0  0  0  0  0  0  0
   14.1109    2.0843   22.6374 C   0  0  0  0  0  0  0  0  0  0  0  0
   13.4267    0.7375   22.5905 C   0  0  0  0  0  0  0  0  0  0  0  0
   14.0875   -0.1679   21.6973 O   0  0  0  0  0  0  0  0  0  0  0  0
   13.6810   -1.5302   21.7493 C   0  0  0  0  0  0  0  0  0  0  0  0
   14.2621    4.5453   22.6665 C   0  0  0  0  0  0  0  0  0  0  0  0
   14.1768    5.3840   21.6602 O   0  0  0  0  0  0  0  0  0  0  0  0
   14.9620    4.8075   23.6273 O   0  0  0  0  0  0  0  0  0  0  0  0
  1  2  1  0
  2  3  1  0
  3  4  1  0
  4  5  1  0
  5  6  2  0
  6  7  1  0
  7  8  2  0
  8  9  1  0
  9 10  2  0
 10 11  1  0
 11 12  2  0
 12 13  1  0
  6 14  1  0
 14 15  1  0
 14 16  1  0
 16 17  2  0
 16 18  1  0
 18 19  1  0
 19 20  1  0
 20 21  1  0
 21 22  1  0
 22 23  2  0
 23 24  1  0
 24 25  1  0
 25 26  1  0
 22 27  1  0
 27 28  1  0
 27 29  2  0
 15  4  2  0
 24 19  1  0
 12  7  1  0
M  END
