CVD-0000631|dock_bobby27042020.83|mol2|43|dock2
     RDKit          3D

 22 24  0  0  0  0  0  0  0  0999 V2000
    8.6350    0.2559   22.4508 O   0  0  0  0  0  0  0  0  0  0  0  0
    9.2307   -0.4601   21.6530 C   0  0  0  0  0  0  0  0  0  0  0  0
   10.4596   -1.2444   22.0651 C   0  0  0  0  0  0  0  0  0  0  0  0
   10.8611   -1.4263   23.5595 C   0  0  0  0  0  0  0  0  0  0  0  0
   11.9454   -2.4992   23.6516 C   0  0  0  0  0  0  0  0  0  0  0  0
   13.2350   -2.0366   22.9967 C   0  0  0  0  0  0  0  0  0  0  0  0
   13.7177   -0.7247   23.5803 C   0  0  0  0  0  0  0  0  0  0  0  0
   12.6449    0.3471   23.4800 C   0  0  0  0  0  0  0  0  0  0  0  0
   11.3503   -0.1031   24.1392 C   0  0  0  0  0  0  0  0  0  0  0  0
    9.5029   -1.8317   24.1601 C   0  0  0  0  0  0  0  0  0  0  0  0
    8.8106   -1.0784   25.1079 C   0  0  0  0  0  0  0  0  0  0  0  0
    7.5922   -1.5199   25.5945 C   0  0  0  0  0  0  0  0  0  0  0  0
    7.0850   -2.7078   25.1240 C   0  0  0  0  0  0  0  0  0  0  0  0
    7.7150   -3.4541   24.2184 N   0  0  0  0  0  0  0  0  0  0  0  0
    8.8895   -3.0073   23.7642 C   0  0  0  0  0  0  0  0  0  0  0  0
    8.9023   -0.6191   20.3472 N   0  0  0  0  0  0  0  0  0  0  0  0
    7.8613   -0.0580   19.5661 C   0  0  0  0  0  0  0  0  0  0  0  0
    6.6806    0.3190   20.1930 C   0  0  0  0  0  0  0  0  0  0  0  0
    5.6533    0.8682   19.4463 C   0  0  0  0  0  0  0  0  0  0  0  0
    5.8351    1.0251   18.0920 C   0  0  0  0  0  0  0  0  0  0  0  0
    6.9553    0.6738   17.4608 N   0  0  0  0  0  0  0  0  0  0  0  0
    7.9426    0.1446   18.1902 C   0  0  0  0  0  0  0  0  0  0  0  0
  1  2  2  0
  2  3  1  0
  3  4  1  0
  4  5  1  0
  5  6  1  0
  6  7  1  0
  7  8  1  0
  8  9  1  0
  4 10  1  0
 10 11  2  0
 11 12  1  0
 12 13  2  0
 13 14  1  0
 14 15  2  0
  2 16  1  0
 16 17  1  0
 17 18  2  0
 18 19  1  0
 19 20  2  0
 20 21  1  0
 21 22  2  0
  9  4  1  0
 15 10  1  0
 22 17  1  0
M  END
