CVD-0000106|dock_bobby27042020.57|mol2|16|dock1
     RDKit          3D

 25 28  0  0  0  0  0  0  0  0999 V2000
    6.9681   -1.3132   18.4620 C   0  0  0  0  0  0  0  0  0  0  0  0
    7.1657    0.1569   18.8225 C   0  0  0  0  0  0  0  0  0  0  0  0
    8.0849    0.2517   20.0246 C   0  0  0  0  0  0  0  0  0  0  0  0
    8.1971    1.3028   20.6459 O   0  0  0  0  0  0  0  0  0  0  0  0
    8.7186   -0.9224   20.2879 N   0  0  0  0  0  0  0  0  0  0  0  0
    9.6868   -1.1166   21.1844 C   0  0  0  0  0  0  0  0  0  0  0  0
   10.2745   -0.1778   22.0549 C   0  0  0  0  0  0  0  0  0  0  0  0
   11.2249   -0.8814   22.7764 C   0  0  0  0  0  0  0  0  0  0  0  0
   11.2046   -2.1714   22.3577 N   0  0  0  0  0  0  0  0  0  0  0  0
   10.2626   -2.3153   21.3827 N   0  0  0  0  0  0  0  0  0  0  0  0
   12.1509   -0.4053   23.8383 C   0  0  0  0  0  0  0  0  0  0  0  0
   13.2994    0.2987   23.2061 C   0  0  0  0  0  0  0  0  0  0  0  0
   13.5329   -0.9682   23.9287 C   0  0  0  0  0  0  0  0  0  0  0  0
    5.8508    0.8562   19.1386 C   0  0  0  0  0  0  0  0  0  0  0  0
    5.1324    0.5437   20.2818 C   0  0  0  0  0  0  0  0  0  0  0  0
    3.9410    1.1818   20.5778 C   0  0  0  0  0  0  0  0  0  0  0  0
    3.4297    2.1612   19.7311 C   0  0  0  0  0  0  0  0  0  0  0  0
    4.1454    2.4701   18.5783 C   0  0  0  0  0  0  0  0  0  0  0  0
    5.3380    1.8287   18.2947 C   0  0  0  0  0  0  0  0  0  0  0  0
    2.1934    2.8211   20.0568 N   0  0  0  0  0  0  0  0  0  0  0  0
    2.1352    4.2918   20.0750 C   0  0  0  0  0  0  0  0  0  0  0  0
    0.6615    4.5731   20.3642 C   0  0  0  0  0  0  0  0  0  0  0  0
    0.2154    3.3022   20.9157 N   0  0  0  0  0  0  0  0  0  0  0  0
    1.0253    2.2755   20.6283 C   0  0  0  0  0  0  0  0  0  0  0  0
    0.8114    1.0860   20.8241 O   0  0  0  0  0  0  0  0  0  0  0  0
  2  1  1  0
  2  3  1  0
  3  4  2  0
  3  5  1  0
  5  6  2  0
  6  7  1  0
  7  8  2  0
  8  9  1  0
  9 10  2  0
  8 11  1  0
 11 12  1  0
 12 13  1  0
  2 14  1  0
 14 15  2  0
 15 16  1  0
 16 17  2  0
 17 18  1  0
 18 19  2  0
 17 20  1  0
 20 21  1  0
 21 22  1  0
 22 23  1  0
 23 24  1  0
 24 25  2  0
 10  6  1  0
 13 11  1  0
 19 14  1  0
 24 20  1  0
M  END
