CVD-0003009|dock_bobby27042020.3|mol2|30|dock2
     RDKit          3D

 25 28  0  0  0  0  0  0  0  0999 V2000
    2.2512    4.3368   18.7101 N   0  0  0  0  0  0  0  0  0  0  0  0
    2.1665    3.2171   19.4190 C   0  0  0  0  0  0  0  0  0  0  0  0
    1.1098    2.8821   19.9661 O   0  0  0  0  0  0  0  0  0  0  0  0
    3.3651    2.3197   19.5756 C   0  0  0  0  0  0  0  0  0  0  0  0
    3.5645    1.6581   20.7847 C   0  0  0  0  0  0  0  0  0  0  0  0
    4.6474    0.8190   20.9880 C   0  0  0  0  0  0  0  0  0  0  0  0
    5.5611    0.6314   19.9572 C   0  0  0  0  0  0  0  0  0  0  0  0
    6.7164   -0.1530   19.9103 N   0  0  0  0  0  0  0  0  0  0  0  0
    7.2166   -0.9606   21.0218 C   0  0  0  0  0  0  0  0  0  0  0  0
    8.6103   -0.5840   21.4639 C   0  0  0  0  0  0  0  0  0  0  0  0
    9.0123    0.7435   21.4445 C   0  0  0  0  0  0  0  0  0  0  0  0
   10.2619    1.1133   21.8405 C   0  0  0  0  0  0  0  0  0  0  0  0
   11.1967    0.1502   22.2882 C   0  0  0  0  0  0  0  0  0  0  0  0
   12.5070    0.4790   22.7103 C   0  0  0  0  0  0  0  0  0  0  0  0
   13.3647   -0.4933   23.1323 C   0  0  0  0  0  0  0  0  0  0  0  0
   12.9754   -1.8165   23.1571 C   0  0  0  0  0  0  0  0  0  0  0  0
   11.7235   -2.1827   22.7602 C   0  0  0  0  0  0  0  0  0  0  0  0
   10.7976   -1.2099   22.3140 C   0  0  0  0  0  0  0  0  0  0  0  0
    9.4897   -1.5429   21.8930 C   0  0  0  0  0  0  0  0  0  0  0  0
    7.3554   -0.0573   18.7032 C   0  0  0  0  0  0  0  0  0  0  0  0
    8.3935   -0.6199   18.3747 O   0  0  0  0  0  0  0  0  0  0  0  0
    6.4970    0.9049   17.8448 C   0  0  0  0  0  0  0  0  0  0  0  0
    6.7235    1.2490   16.6899 O   0  0  0  0  0  0  0  0  0  0  0  0
    5.3804    1.2910   18.7301 C   0  0  0  0  0  0  0  0  0  0  0  0
    4.2839    2.1298   18.5456 C   0  0  0  0  0  0  0  0  0  0  0  0
  1  2  1  0
  2  3  2  0
  2  4  1  0
  4  5  2  0
  5  6  1  0
  6  7  2  0
  7  8  1  0
  8  9  1  0
  9 10  1  0
 10 11  2  0
 11 12  1  0
 12 13  2  0
 13 14  1  0
 14 15  2  0
 15 16  1  0
 16 17  2  0
 17 18  1  0
 18 19  2  0
  8 20  1  0
 20 21  2  0
 20 22  1  0
 22 23  2  0
 22 24  1  0
 24 25  2  0
 25  4  1  0
 24  7  1  0
 19 10  1  0
 18 13  1  0
M  END
