CVD-0003426|dock_bobby27042020.16|mol2|35|dock2
     RDKit          3D

 20 22  0  0  0  0  0  0  0  0999 V2000
    8.3914   -1.8992   17.7463 Cl  0  0  0  0  0  0  0  0  0  0  0  0
    7.5481   -0.5864   18.5050 C   0  0  0  0  0  0  0  0  0  0  0  0
    6.6599    0.0181   17.7378 N   0  0  0  0  0  0  0  0  0  0  0  0
    5.9640    1.0333   18.2560 C   0  0  0  0  0  0  0  0  0  0  0  0
    6.1924    1.4885   19.5456 C   0  0  0  0  0  0  0  0  0  0  0  0
    5.6553    2.5070   20.2957 N   0  0  0  0  0  0  0  0  0  0  0  0
    6.2873    2.5517   21.5131 C   0  0  0  0  0  0  0  0  0  0  0  0
    7.2185    1.5720   21.5878 C   0  0  0  0  0  0  0  0  0  0  0  0
    7.1631    0.8486   20.3461 C   0  0  0  0  0  0  0  0  0  0  0  0
    7.8458   -0.2722   19.8196 C   0  0  0  0  0  0  0  0  0  0  0  0
    8.7966   -1.0434   20.5715 N   0  0  0  0  0  0  0  0  0  0  0  0
    8.7103   -1.4070   21.8742 C   0  0  0  0  0  0  0  0  0  0  0  0
    7.7844   -1.1254   22.6262 O   0  0  0  0  0  0  0  0  0  0  0  0
    9.8917   -2.2369   22.3323 C   0  0  0  0  0  0  0  0  0  0  0  0
   11.1867   -1.4618   22.6072 C   0  0  0  0  0  0  0  0  0  0  0  0
   11.0870   -0.6576   23.9196 C   0  0  0  0  0  0  0  0  0  0  0  0
   12.3874    0.0683   24.2589 C   0  0  0  0  0  0  0  0  0  0  0  0
   13.5686   -0.8931   24.2861 C   0  0  0  0  0  0  0  0  0  0  0  0
   13.6818   -1.6611   22.9770 C   0  0  0  0  0  0  0  0  0  0  0  0
   12.3927   -2.4148   22.6660 C   0  0  0  0  0  0  0  0  0  0  0  0
  1  2  1  0
  2  3  2  0
  3  4  1  0
  4  5  2  0
  5  6  1  0
  6  7  1  0
  7  8  2  0
  8  9  1  0
  9 10  2  0
 10 11  1  0
 11 12  1  0
 12 13  2  0
 12 14  1  0
 14 15  1  0
 15 16  1  0
 16 17  1  0
 17 18  1  0
 18 19  1  0
 19 20  1  0
 10  2  1  0
 20 15  1  0
  9  5  1  0
M  END
