CVD-0002461|dock_bobby27042020.20|mol2|7|dock3
     RDKit          3D

 28 30  0  0  0  0  0  0  0  0999 V2000
   13.7579   -1.4867   23.2680 C   0  0  0  0  0  0  0  0  0  0  0  0
   12.5341   -0.7637   22.7605 C   0  0  0  0  0  0  0  0  0  0  0  0
   11.5497   -1.4347   22.0534 C   0  0  0  0  0  0  0  0  0  0  0  0
   10.4243   -0.7833   21.5796 C   0  0  0  0  0  0  0  0  0  0  0  0
   10.2709    0.5755   21.8136 C   0  0  0  0  0  0  0  0  0  0  0  0
    9.1748    1.2724   21.3674 O   0  0  0  0  0  0  0  0  0  0  0  0
    8.0691    0.5816   20.7952 C   0  0  0  0  0  0  0  0  0  0  0  0
    7.4796   -0.3642   21.8193 C   0  0  0  0  0  0  0  0  0  0  0  0
    7.4485   -0.0464   23.0018 O   0  0  0  0  0  0  0  0  0  0  0  0
    6.9331   -1.6887   21.4202 C   0  0  0  0  0  0  0  0  0  0  0  0
    7.0505   -2.8491   22.2383 C   0  0  0  0  0  0  0  0  0  0  0  0
    6.4585   -3.8621   21.5934 C   0  0  0  0  0  0  0  0  0  0  0  0
    6.2476   -5.2960   21.9058 C   0  0  0  0  0  0  0  0  0  0  0  0
    5.0162   -5.5656   22.6508 N   0  0  0  0  0  0  0  0  0  0  0  0
    5.2120   -5.3288   24.0861 C   0  0  0  0  0  0  0  0  0  0  0  0
    3.9348   -5.5492   24.8724 C   0  0  0  0  0  0  0  0  0  0  0  0
    3.3477   -6.9398   24.6633 C   0  0  0  0  0  0  0  0  0  0  0  0
    2.0772   -7.1317   25.2914 O   0  0  0  0  0  0  0  0  0  0  0  0
    3.2492   -7.2001   23.1642 C   0  0  0  0  0  0  0  0  0  0  0  0
    4.5633   -6.9440   22.4452 C   0  0  0  0  0  0  0  0  0  0  0  0
    5.9539   -3.4236   20.3877 O   0  0  0  0  0  0  0  0  0  0  0  0
    6.2576   -2.0794   20.3045 C   0  0  0  0  0  0  0  0  0  0  0  0
    5.7690   -1.4086   19.0373 C   0  0  0  0  0  0  0  0  0  0  0  0
    6.7649   -0.9676   18.2809 F   0  0  0  0  0  0  0  0  0  0  0  0
    5.0645   -2.2375   18.2789 F   0  0  0  0  0  0  0  0  0  0  0  0
    4.9817   -0.3706   19.2844 F   0  0  0  0  0  0  0  0  0  0  0  0
   11.2450    1.2623   22.5171 C   0  0  0  0  0  0  0  0  0  0  0  0
   12.3625    0.5927   22.9822 C   0  0  0  0  0  0  0  0  0  0  0  0
  1  2  1  0
  2  3  2  0
  3  4  1  0
  4  5  2  0
  5  6  1  0
  6  7  1  0
  7  8  1  0
  8  9  2  0
  8 10  1  0
 10 11  1  0
 11 12  2  0
 12 13  1  0
 13 14  1  0
 14 15  1  0
 15 16  1  0
 16 17  1  0
 17 18  1  0
 17 19  1  0
 19 20  1  0
 12 21  1  0
 21 22  1  0
 22 23  1  0
 23 24  1  0
 23 25  1  0
 23 26  1  0
  5 27  1  0
 27 28  2  0
 28  2  1  0
 22 10  2  0
 20 14  1  0
M  END
