CVD-0003119|dock_bobby27042020.74|mol2|46|dock3
     RDKit          3D

 17 18  0  0  0  0  0  0  0  0999 V2000
   13.9084    0.7089   22.4456 C   0  0  0  0  0  0  0  0  0  0  0  0
   12.7448    0.3172   23.3416 C   0  0  0  0  0  0  0  0  0  0  0  0
   12.7660   -1.1845   23.6484 C   0  0  0  0  0  0  0  0  0  0  0  0
   12.2139   -2.0582   22.5463 C   0  0  0  0  0  0  0  0  0  0  0  0
   12.9445   -1.8544   21.2903 N   0  0  0  0  0  0  0  0  0  0  0  0
   10.7501   -1.6932   22.4155 C   0  0  0  0  0  0  0  0  0  0  0  0
   10.4897   -0.2422   21.9862 C   0  0  0  0  0  0  0  0  0  0  0  0
   11.4070    0.7246   22.7417 N   0  0  0  0  0  0  0  0  0  0  0  0
   11.1840    2.0332   22.9961 C   0  0  0  0  0  0  0  0  0  0  0  0
   12.0407    2.6568   23.6111 O   0  0  0  0  0  0  0  0  0  0  0  0
    9.9482    2.7852   22.5835 C   0  0  0  0  0  0  0  0  0  0  0  0
    8.7629    2.2887   22.1959 N   0  0  0  0  0  0  0  0  0  0  0  0
    7.9550    3.3477   21.9283 N   0  0  0  0  0  0  0  0  0  0  0  0
    8.5734    4.5194   22.1302 C   0  0  0  0  0  0  0  0  0  0  0  0
    7.8819    5.8239   21.8977 C   0  0  0  0  0  0  0  0  0  0  0  0
    9.8509    4.2415   22.5537 C   0  0  0  0  0  0  0  0  0  0  0  0
   10.8949    5.2702   22.8857 C   0  0  0  0  0  0  0  0  0  0  0  0
  2  1  1  0
  2  3  1  0
  3  4  1  0
  4  5  1  0
  4  6  1  0
  6  7  1  0
  7  8  1  0
  8  9  1  0
  9 10  2  0
  9 11  1  0
 11 12  2  0
 12 13  1  0
 13 14  1  0
 14 15  1  0
 14 16  2  0
 16 17  1  0
  8  2  1  0
 16 11  1  0
M  END
