CVD-0000396|dock_bobby27042020.70|mol2|19|dock1
     RDKit          3D

 23 25  0  0  0  0  0  0  0  0999 V2000
   12.9101    4.0559   22.4181 C   0  0  0  0  0  0  0  0  0  0  0  0
   13.0718    2.6660   22.8035 N   0  0  0  0  0  0  0  0  0  0  0  0
   12.0656    1.8029   22.7758 C   0  0  0  0  0  0  0  0  0  0  0  0
   10.9311    2.1158   22.4243 O   0  0  0  0  0  0  0  0  0  0  0  0
   12.4266    0.3956   23.2144 C   0  0  0  0  0  0  0  0  0  0  0  0
   13.6286   -0.2069   22.4400 C   0  0  0  0  0  0  0  0  0  0  0  0
   13.2667   -1.6556   22.1350 C   0  0  0  0  0  0  0  0  0  0  0  0
   12.0313   -1.9541   22.9833 C   0  0  0  0  0  0  0  0  0  0  0  0
   11.2832   -0.6131   23.0002 C   0  0  0  0  0  0  0  0  0  0  0  0
   10.1609   -0.5363   23.9980 C   0  0  0  0  0  0  0  0  0  0  0  0
   10.3519   -0.4365   25.4000 C   0  0  0  0  0  0  0  0  0  0  0  0
    9.1869   -0.3821   26.0458 C   0  0  0  0  0  0  0  0  0  0  0  0
    9.0022   -0.2852   27.3727 F   0  0  0  0  0  0  0  0  0  0  0  0
    7.7983   -0.4455   25.0333 S   0  0  0  0  0  0  0  0  0  0  0  0
    8.8434   -0.5500   23.6469 C   0  0  0  0  0  0  0  0  0  0  0  0
    8.2078   -0.6360   22.3311 C   0  0  0  0  0  0  0  0  0  0  0  0
    6.9975   -0.0765   22.2520 N   0  0  0  0  0  0  0  0  0  0  0  0
    6.3967   -0.1425   21.0591 C   0  0  0  0  0  0  0  0  0  0  0  0
    6.9734   -0.7489   19.9505 C   0  0  0  0  0  0  0  0  0  0  0  0
    6.3532   -0.8122   18.7303 N   0  0  0  0  0  0  0  0  0  0  0  0
    5.2955    0.0890   18.3273 C   0  0  0  0  0  0  0  0  0  0  0  0
    8.2330   -1.2929   20.1621 C   0  0  0  0  0  0  0  0  0  0  0  0
    8.8636   -1.2466   21.3404 N   0  0  0  0  0  0  0  0  0  0  0  0
  1  2  1  0
  2  3  1  0
  3  4  2  0
  5  3  1  0
  5  6  1  0
  6  7  1  0
  7  8  1  0
  8  9  1  0
  9 10  1  0
 10 11  1  0
 11 12  2  0
 12 13  1  0
 12 14  1  0
 14 15  1  0
 15 16  1  0
 16 17  2  0
 17 18  1  0
 18 19  2  0
 19 20  1  0
 20 21  1  0
 19 22  1  0
 22 23  2  0
  9  5  1  0
 15 10  2  0
 23 16  1  0
M  END
