CVD-0000922|dock_bobby27042020.82|mol2|40|dock3
     RDKit          3D

 36 40  0  0  0  0  0  0  0  0999 V2000
    4.8556    0.6213   17.5276 C   0  0  0  0  0  0  0  0  0  0  0  0
    5.9059    0.6754   18.6101 C   0  0  0  0  0  0  0  0  0  0  0  0
    6.9790   -0.2043   18.6128 C   0  0  0  0  0  0  0  0  0  0  0  0
    7.9853   -0.0938   19.5542 C   0  0  0  0  0  0  0  0  0  0  0  0
    7.9468    0.9041   20.5245 C   0  0  0  0  0  0  0  0  0  0  0  0
    8.9894    1.0260   21.6219 C   0  0  0  0  0  0  0  0  0  0  0  0
    8.8540    0.0474   22.8176 C   0  0  0  0  0  0  0  0  0  0  0  0
    7.4961   -0.6313   22.9110 C   0  0  0  0  0  0  0  0  0  0  0  0
    7.7492   -2.1045   23.9048 S   0  0  0  0  0  0  0  0  0  0  0  0
    7.3451   -1.8446   25.2601 O   0  0  0  0  0  0  0  0  0  0  0  0
    7.1858   -3.2504   23.2436 O   0  0  0  0  0  0  0  0  0  0  0  0
    9.5394   -2.1388   23.7577 C   0  0  0  0  0  0  0  0  0  0  0  0
    9.9087   -1.0658   22.7556 C   0  0  0  0  0  0  0  0  0  0  0  0
   11.2655   -0.5538   23.0165 N   0  0  0  0  0  0  0  0  0  0  0  0
   11.6029    0.3679   24.1180 C   0  0  0  0  0  0  0  0  0  0  0  0
   13.0971    0.5588   24.0200 C   0  0  0  0  0  0  0  0  0  0  0  0
   13.5499   -0.1669   22.7889 C   0  0  0  0  0  0  0  0  0  0  0  0
   12.3197   -0.8500   22.2692 C   0  0  0  0  0  0  0  0  0  0  0  0
   12.2740   -1.5823   21.2889 O   0  0  0  0  0  0  0  0  0  0  0  0
    9.2586    2.4356   21.8923 N   0  0  0  0  0  0  0  0  0  0  0  0
   10.5620    2.9308   22.1415 C   0  0  0  0  0  0  0  0  0  0  0  0
   11.5732    2.3339   21.8017 O   0  0  0  0  0  0  0  0  0  0  0  0
   10.7623    4.2376   22.8889 C   0  0  0  0  0  0  0  0  0  0  0  0
   12.4429    4.4548   23.3964 Cl  0  0  0  0  0  0  0  0  0  0  0  0
    8.2783    3.3459   21.9869 C   0  0  0  0  0  0  0  0  0  0  0  0
    8.3885    4.4816   22.4035 O   0  0  0  0  0  0  0  0  0  0  0  0
    6.9080    2.8602   21.6298 C   0  0  0  0  0  0  0  0  0  0  0  0
    6.1699    2.3877   22.8733 C   0  0  0  0  0  0  0  0  0  0  0  0
    6.7170    2.5252   24.1429 C   0  0  0  0  0  0  0  0  0  0  0  0
    6.0387    2.0917   25.2680 C   0  0  0  0  0  0  0  0  0  0  0  0
    4.7891    1.5074   25.1380 C   0  0  0  0  0  0  0  0  0  0  0  0
    4.1145    1.0777   26.2433 O   0  0  0  0  0  0  0  0  0  0  0  0
    4.2283    1.3618   23.8795 C   0  0  0  0  0  0  0  0  0  0  0  0
    4.9176    1.7998   22.7627 C   0  0  0  0  0  0  0  0  0  0  0  0
    6.8810    1.8025   20.5461 C   0  0  0  0  0  0  0  0  0  0  0  0
    5.8847    1.6609   19.5821 C   0  0  0  0  0  0  0  0  0  0  0  0
  1  2  1  0
  2  3  2  0
  3  4  1  0
  4  5  2  0
  5  6  1  0
  6  7  1  0
  7  8  1  0
  8  9  1  0
  9 10  2  0
  9 11  2  0
  9 12  1  0
 12 13  1  0
 13 14  1  0
 14 15  1  0
 15 16  1  0
 16 17  1  0
 17 18  1  0
 18 19  2  0
  6 20  1  0
 20 21  1  0
 21 22  2  0
 21 23  1  0
 23 24  1  0
 20 25  1  0
 25 26  2  0
 25 27  1  0
 27 28  1  0
 28 29  2  0
 29 30  1  0
 30 31  2  0
 31 32  1  0
 31 33  1  0
 33 34  2  0
 27 35  1  0
 35 36  2  0
 36  2  1  0
 35  5  1  0
 13  7  1  0
 18 14  1  0
 34 28  1  0
M  END
