CVD-0000310|dock_bobby27042020.84|mol2|38|dock3
     RDKit          3D

 28 30  0  0  0  0  0  0  0  0999 V2000
   14.1183   -2.0907   23.1641 C   0  0  0  0  0  0  0  0  0  0  0  0
   12.6610   -2.0395   23.5178 C   0  0  0  0  0  0  0  0  0  0  0  0
   11.9720   -3.0535   23.5220 O   0  0  0  0  0  0  0  0  0  0  0  0
   12.1316   -0.8349   23.8451 N   0  0  0  0  0  0  0  0  0  0  0  0
   12.9448    0.3804   23.8526 C   0  0  0  0  0  0  0  0  0  0  0  0
   12.4706    1.3355   22.8032 C   0  0  0  0  0  0  0  0  0  0  0  0
   11.0521    1.5983   23.0141 N   0  0  0  0  0  0  0  0  0  0  0  0
   10.1813    0.4023   23.0457 C   0  0  0  0  0  0  0  0  0  0  0  0
   10.7286   -0.5571   24.0921 C   0  0  0  0  0  0  0  0  0  0  0  0
   10.0586   -0.1908   21.7305 N   0  0  0  0  0  0  0  0  0  0  0  0
    8.8185   -0.9298   21.4693 C   0  0  0  0  0  0  0  0  0  0  0  0
    7.6327    0.0141   21.3828 C   0  0  0  0  0  0  0  0  0  0  0  0
    6.8141   -0.1899   20.1310 C   0  0  0  0  0  0  0  0  0  0  0  0
    6.2830   -1.4335   19.8251 C   0  0  0  0  0  0  0  0  0  0  0  0
    5.5292   -1.6204   18.6785 C   0  0  0  0  0  0  0  0  0  0  0  0
    5.2963   -0.5648   17.8235 C   0  0  0  0  0  0  0  0  0  0  0  0
    5.8169    0.6773   18.1158 C   0  0  0  0  0  0  0  0  0  0  0  0
    6.5707    0.8632   19.2627 C   0  0  0  0  0  0  0  0  0  0  0  0
   10.4185    2.9936   22.4640 S   0  0  0  0  0  0  0  0  0  0  0  0
    9.3939    3.3673   23.3889 O   0  0  0  0  0  0  0  0  0  0  0  0
   10.0890    2.7750   21.0898 O   0  0  0  0  0  0  0  0  0  0  0  0
   11.6806    4.2176   22.5303 C   0  0  0  0  0  0  0  0  0  0  0  0
   12.6401    4.2692   21.5323 C   0  0  0  0  0  0  0  0  0  0  0  0
   13.6316    5.2339   21.5972 C   0  0  0  0  0  0  0  0  0  0  0  0
   13.6670    6.1367   22.6468 C   0  0  0  0  0  0  0  0  0  0  0  0
   12.7017    6.0616   23.6269 C   0  0  0  0  0  0  0  0  0  0  0  0
   12.7435    7.1944   24.9488 Cl  0  0  0  0  0  0  0  0  0  0  0  0
   11.7015    5.1119   23.5896 C   0  0  0  0  0  0  0  0  0  0  0  0
  1  2  1  0
  2  3  2  0
  2  4  1  0
  4  5  1  0
  5  6  1  0
  6  7  1  0
  7  8  1  0
  8  9  1  0
  8 10  1  0
 10 11  1  0
 11 12  1  0
 12 13  1  0
 13 14  2  0
 14 15  1  0
 15 16  2  0
 16 17  1  0
 17 18  2  0
  7 19  1  0
 19 20  2  0
 19 21  2  0
 19 22  1  0
 22 23  2  0
 23 24  1  0
 24 25  2  0
 25 26  1  0
 26 27  1  0
 26 28  2  0
  9  4  1  0
 18 13  1  0
 28 22  1  0
M  END
