CVD-0000410|dock_bobby27042020.70|mol2|17|dock1
     RDKit          3D

 23 25  0  0  0  0  0  0  0  0999 V2000
   13.6588    4.6705   21.5977 C   0  0  0  0  0  0  0  0  0  0  0  0
   13.6204    3.4287   22.4765 C   0  0  0  0  0  0  0  0  0  0  0  0
   12.2330    2.8568   22.6421 C   0  0  0  0  0  0  0  0  0  0  0  0
   11.0533    3.5361   22.5508 C   0  0  0  0  0  0  0  0  0  0  0  0
    9.9975    2.6936   22.7672 N   0  0  0  0  0  0  0  0  0  0  0  0
   10.4884    1.4343   23.0077 C   0  0  0  0  0  0  0  0  0  0  0  0
    9.7907    0.2552   23.2899 C   0  0  0  0  0  0  0  0  0  0  0  0
    8.2831    0.2365   23.3806 C   0  0  0  0  0  0  0  0  0  0  0  0
    7.6410   -0.1961   22.1304 N   0  0  0  0  0  0  0  0  0  0  0  0
    8.4250    0.2438   20.9726 C   0  0  0  0  0  0  0  0  0  0  0  0
    7.7802   -0.2402   19.6872 C   0  0  0  0  0  0  0  0  0  0  0  0
    6.4060    0.2558   19.5857 N   0  0  0  0  0  0  0  0  0  0  0  0
    5.6106   -0.1172   20.7595 C   0  0  0  0  0  0  0  0  0  0  0  0
    6.2924    0.3559   22.0304 C   0  0  0  0  0  0  0  0  0  0  0  0
    5.9493    0.9489   18.5070 C   0  0  0  0  0  0  0  0  0  0  0  0
    4.5211    1.4102   18.4690 C   0  0  0  0  0  0  0  0  0  0  0  0
    6.6927    1.1870   17.5617 O   0  0  0  0  0  0  0  0  0  0  0  0
   10.5281   -0.9053   23.4915 C   0  0  0  0  0  0  0  0  0  0  0  0
   11.8956   -0.8563   23.3988 C   0  0  0  0  0  0  0  0  0  0  0  0
   12.5997   -1.9951   23.5921 F   0  0  0  0  0  0  0  0  0  0  0  0
   12.5861    0.3093   23.1150 C   0  0  0  0  0  0  0  0  0  0  0  0
   14.3059    0.2739   22.9985 Cl  0  0  0  0  0  0  0  0  0  0  0  0
   11.8910    1.4981   22.9234 C   0  0  0  0  0  0  0  0  0  0  0  0
  1  2  1  0
  2  3  1  0
  3  4  2  0
  4  5  1  0
  5  6  1  0
  6  7  2  0
  7  8  1  0
  8  9  1  0
  9 10  1  0
 10 11  1  0
 11 12  1  0
 12 13  1  0
 13 14  1  0
 12 15  1  0
 15 16  1  0
 15 17  2  0
  7 18  1  0
 18 19  2  0
 19 20  1  0
 19 21  1  0
 21 22  1  0
 21 23  2  0
 23  3  1  0
 23  6  1  0
 14  9  1  0
M  END
