CVD-0002897|dock_bobby27042020.75|mol2|32|dock2
     RDKit          3D

 18 18  0  0  0  0  0  0  0  0999 V2000
    5.8240   -0.7867   18.7654 C   0  0  0  0  0  0  0  0  0  0  0  0
    7.2954   -0.7337   19.1176 C   0  0  0  0  0  0  0  0  0  0  0  0
    7.9523   -1.8416   18.4980 O   0  0  0  0  0  0  0  0  0  0  0  0
    7.5167   -0.7837   20.6233 C   0  0  0  0  0  0  0  0  0  0  0  0
    8.9527   -0.5205   21.0187 C   0  0  0  0  0  0  0  0  0  0  0  0
    9.4085    0.6178   21.0667 O   0  0  0  0  0  0  0  0  0  0  0  0
    9.6776   -1.5993   21.3019 N   0  0  0  0  0  0  0  0  0  0  0  0
   11.0777   -1.5280   21.6946 C   0  0  0  0  0  0  0  0  0  0  0  0
   11.2609   -1.6938   23.1902 C   0  0  0  0  0  0  0  0  0  0  0  0
   10.8185   -0.4685   23.9796 C   0  0  0  0  0  0  0  0  0  0  0  0
   11.4163    0.8241   23.4791 C   0  0  0  0  0  0  0  0  0  0  0  0
   12.7845    0.9498   23.2941 C   0  0  0  0  0  0  0  0  0  0  0  0
   13.3394    2.1303   22.8326 C   0  0  0  0  0  0  0  0  0  0  0  0
   12.5243    3.2195   22.5437 C   0  0  0  0  0  0  0  0  0  0  0  0
   11.1506    3.1009   22.7255 C   0  0  0  0  0  0  0  0  0  0  0  0
   10.6105    1.9139   23.1876 C   0  0  0  0  0  0  0  0  0  0  0  0
   13.0951    4.4535   22.0629 C   0  0  0  0  0  0  0  0  0  0  0  0
   13.5774    5.4173   21.6845 N   0  0  0  0  0  0  0  0  0  0  0  0
  1  2  1  0
  2  3  1  0
  2  4  1  0
  4  5  1  0
  5  6  2  0
  5  7  1  0
  7  8  1  0
  8  9  1  0
  9 10  1  0
 10 11  1  0
 11 12  2  0
 12 13  1  0
 13 14  2  0
 14 15  1  0
 15 16  2  0
 14 17  1  0
 17 18  3  0
 16 11  1  0
M  END
