CVD-0003584|dock_bobby27042020.16|mol2|11|dock1
     RDKit          3D

 25 27  0  0  0  0  0  0  0  0999 V2000
    4.2335    1.0908   19.0116 C   0  0  0  0  0  0  0  0  0  0  0  0
    5.3428    0.1368   18.0427 S   0  0  0  0  0  0  0  0  0  0  0  0
    4.5707   -0.7289   17.2062 O   0  0  0  0  0  0  0  0  0  0  0  0
    6.2754    1.0294   17.4274 O   0  0  0  0  0  0  0  0  0  0  0  0
    6.1905   -0.8114   19.0635 N   0  0  0  0  0  0  0  0  0  0  0  0
    5.8207   -2.2418   19.0950 C   0  0  0  0  0  0  0  0  0  0  0  0
    6.2482   -2.8124   20.4371 C   0  0  0  0  0  0  0  0  0  0  0  0
    7.6567   -2.4155   20.8125 C   0  0  0  0  0  0  0  0  0  0  0  0
    8.3188   -3.0700   21.8478 C   0  0  0  0  0  0  0  0  0  0  0  0
    9.6129   -2.7310   22.1983 C   0  0  0  0  0  0  0  0  0  0  0  0
   10.2799   -1.7243   21.5194 C   0  0  0  0  0  0  0  0  0  0  0  0
   11.6905   -1.3352   21.8916 C   0  0  0  0  0  0  0  0  0  0  0  0
   11.7523   -0.1546   22.7659 N   0  0  0  0  0  0  0  0  0  0  0  0
   10.8030    0.8674   22.3153 C   0  0  0  0  0  0  0  0  0  0  0  0
   10.8414    2.0663   23.2447 C   0  0  0  0  0  0  0  0  0  0  0  0
   12.1944    2.6238   23.3049 N   0  0  0  0  0  0  0  0  0  0  0  0
   13.1782    1.6093   23.6955 C   0  0  0  0  0  0  0  0  0  0  0  0
   13.0985    0.4122   22.7656 C   0  0  0  0  0  0  0  0  0  0  0  0
   12.4634    3.9269   23.0534 C   0  0  0  0  0  0  0  0  0  0  0  0
   11.5746    4.7188   22.7651 O   0  0  0  0  0  0  0  0  0  0  0  0
   13.9037    4.3972   23.1271 C   0  0  0  0  0  0  0  0  0  0  0  0
   14.0307    6.1291   22.7930 Cl  0  0  0  0  0  0  0  0  0  0  0  0
    9.6154   -1.0740   20.4871 C   0  0  0  0  0  0  0  0  0  0  0  0
    8.3132   -1.4052   20.1239 C   0  0  0  0  0  0  0  0  0  0  0  0
    7.6530   -0.6507   18.9954 C   0  0  0  0  0  0  0  0  0  0  0  0
  1  2  1  0
  2  3  2  0
  2  4  2  0
  2  5  1  0
  5  6  1  0
  6  7  1  0
  7  8  1  0
  8  9  2  0
  9 10  1  0
 10 11  2  0
 11 12  1  0
 12 13  1  0
 13 14  1  0
 14 15  1  0
 15 16  1  0
 16 17  1  0
 17 18  1  0
 16 19  1  0
 19 20  2  0
 19 21  1  0
 21 22  1  0
 11 23  1  0
 23 24  2  0
 24 25  1  0
 25  5  1  0
 24  8  1  0
 18 13  1  0
M  END
