CVD-0001229|dock_bobby27042020.67|mol2|43|dock3
     RDKit          3D

 21 23  0  0  0  0  0  0  0  0999 V2000
   10.4674   -1.7544   22.3135 C   0  0  0  0  0  0  0  0  0  0  0  0
   11.6800   -0.9932   22.7848 C   0  0  0  0  0  0  0  0  0  0  0  0
   12.8552   -1.6994   23.0232 C   0  0  0  0  0  0  0  0  0  0  0  0
   13.9781   -1.0315   23.4577 C   0  0  0  0  0  0  0  0  0  0  0  0
   14.0058    0.2812   23.6685 N   0  0  0  0  0  0  0  0  0  0  0  0
   12.8828    0.9704   23.4432 C   0  0  0  0  0  0  0  0  0  0  0  0
   11.6888    0.3980   23.0035 C   0  0  0  0  0  0  0  0  0  0  0  0
   10.4915    1.1292   22.7647 N   0  0  0  0  0  0  0  0  0  0  0  0
   10.3105    2.3867   22.2910 C   0  0  0  0  0  0  0  0  0  0  0  0
   11.1952    3.1696   21.9624 O   0  0  0  0  0  0  0  0  0  0  0  0
    8.8565    2.7990   22.1994 C   0  0  0  0  0  0  0  0  0  0  0  0
    8.1460    1.9924   21.1499 C   0  0  0  0  0  0  0  0  0  0  0  0
    8.6278    1.0262   20.4387 N   0  0  0  0  0  0  0  0  0  0  0  0
    7.5652    0.6399   19.6280 C   0  0  0  0  0  0  0  0  0  0  0  0
    7.4579   -0.3505   18.6520 C   0  0  0  0  0  0  0  0  0  0  0  0
    6.2447   -0.5054   17.9962 C   0  0  0  0  0  0  0  0  0  0  0  0
    5.1598    0.3051   18.3011 C   0  0  0  0  0  0  0  0  0  0  0  0
    5.2487    1.3008   19.2723 C   0  0  0  0  0  0  0  0  0  0  0  0
    4.0738    2.1803   19.6094 C   0  0  0  0  0  0  0  0  0  0  0  0
    6.4788    1.4334   19.9161 C   0  0  0  0  0  0  0  0  0  0  0  0
    6.8406    2.3247   20.9072 O   0  0  0  0  0  0  0  0  0  0  0  0
  1  2  1  0
  2  3  2  0
  3  4  1  0
  4  5  2  0
  5  6  1  0
  6  7  2  0
  7  8  1  0
  8  9  1  0
  9 10  2  0
  9 11  1  0
 11 12  1  0
 12 13  2  0
 13 14  1  0
 14 15  2  0
 15 16  1  0
 16 17  2  0
 17 18  1  0
 18 19  1  0
 18 20  2  0
 20 21  1  0
  7  2  1  0
 21 12  1  0
 20 14  1  0
M  END
