CVD-0002820|dock_bobby27042020.18|mol2|31|dock1
     RDKit          3D

 25 27  0  0  0  0  0  0  0  0999 V2000
   13.3374   -2.6514   24.5472 C   0  0  0  0  0  0  0  0  0  0  0  0
   13.4669   -1.3996   23.7302 C   0  0  0  0  0  0  0  0  0  0  0  0
   14.3967   -1.2487   22.9455 O   0  0  0  0  0  0  0  0  0  0  0  0
   12.5144   -0.4462   23.8832 N   0  0  0  0  0  0  0  0  0  0  0  0
   12.5302    0.7909   23.1072 C   0  0  0  0  0  0  0  0  0  0  0  0
   11.1406    1.3555   22.8857 C   0  0  0  0  0  0  0  0  0  0  0  0
   10.1124    0.4485   22.2306 C   0  0  0  0  0  0  0  0  0  0  0  0
    9.5246   -0.5362   23.1899 N   0  0  0  0  0  0  0  0  0  0  0  0
    8.8450   -1.4775   22.2892 C   0  0  0  0  0  0  0  0  0  0  0  0
    7.9283   -0.7932   21.3040 C   0  0  0  0  0  0  0  0  0  0  0  0
    8.2912   -0.6920   19.9692 C   0  0  0  0  0  0  0  0  0  0  0  0
    7.4860   -0.0776   19.0586 C   0  0  0  0  0  0  0  0  0  0  0  0
    6.2457    0.4821   19.4467 C   0  0  0  0  0  0  0  0  0  0  0  0
    5.3714    1.1311   18.5426 C   0  0  0  0  0  0  0  0  0  0  0  0
    4.1870    1.6540   18.9654 C   0  0  0  0  0  0  0  0  0  0  0  0
    3.8198    1.5546   20.2983 C   0  0  0  0  0  0  0  0  0  0  0  0
    4.6266    0.9409   21.2108 C   0  0  0  0  0  0  0  0  0  0  0  0
    5.8633    0.3863   20.8085 C   0  0  0  0  0  0  0  0  0  0  0  0
    6.7344   -0.2612   21.7147 C   0  0  0  0  0  0  0  0  0  0  0  0
    2.2818    2.2453   20.8280 S   0  0  0  0  0  0  0  0  0  0  0  0
    1.9014    3.4502   19.8450 N   0  0  0  0  0  0  0  0  0  0  0  0
    2.4913    2.8091   22.1278 O   0  0  0  0  0  0  0  0  0  0  0  0
    1.2805    1.2342   20.6658 O   0  0  0  0  0  0  0  0  0  0  0  0
   10.1715   -1.2584   24.3216 C   0  0  0  0  0  0  0  0  0  0  0  0
   11.4298   -0.5875   24.8436 C   0  0  0  0  0  0  0  0  0  0  0  0
  1  2  1  0
  2  3  2  0
  2  4  1  0
  4  5  1  0
  5  6  1  0
  6  7  1  0
  7  8  1  0
  8  9  1  0
  9 10  1  0
 10 11  2  0
 11 12  1  0
 12 13  2  0
 13 14  1  0
 14 15  2  0
 15 16  1  0
 16 17  2  0
 17 18  1  0
 18 19  2  0
 16 20  1  0
 20 21  1  0
 20 22  2  0
 20 23  2  0
  8 24  1  0
 24 25  1  0
 25  4  1  0
 19 10  1  0
 18 13  1  0
M  END
