CVD-0000408|dock_bobby27042020.98|mol2|35|dock1
     RDKit          3D

 22 24  0  0  0  0  0  0  0  0999 V2000
   14.1902   -1.8903   23.7571 C   0  0  0  0  0  0  0  0  0  0  0  0
   12.8877   -1.1980   23.4374 C   0  0  0  0  0  0  0  0  0  0  0  0
   12.7415    0.1676   23.6088 C   0  0  0  0  0  0  0  0  0  0  0  0
   11.5310    0.7545   23.3049 C   0  0  0  0  0  0  0  0  0  0  0  0
   10.4707    0.0769   22.8483 N   0  0  0  0  0  0  0  0  0  0  0  0
   10.6223   -1.2259   22.6941 C   0  0  0  0  0  0  0  0  0  0  0  0
    9.5514   -1.9339   22.2232 O   0  0  0  0  0  0  0  0  0  0  0  0
    8.2797   -1.3779   22.0822 C   0  0  0  0  0  0  0  0  0  0  0  0
    7.3829   -1.1808   23.1212 C   0  0  0  0  0  0  0  0  0  0  0  0
    6.1684   -0.6125   22.8127 C   0  0  0  0  0  0  0  0  0  0  0  0
    5.2852   -0.4194   23.8292 F   0  0  0  0  0  0  0  0  0  0  0  0
    5.7834   -0.2256   21.5504 C   0  0  0  0  0  0  0  0  0  0  0  0
    6.6825   -0.4191   20.5033 C   0  0  0  0  0  0  0  0  0  0  0  0
    6.6714   -0.1605   19.0829 C   0  0  0  0  0  0  0  0  0  0  0  0
    7.8755   -0.5818   18.5935 C   0  0  0  0  0  0  0  0  0  0  0  0
    8.6422   -1.0875   19.6087 N   0  0  0  0  0  0  0  0  0  0  0  0
    7.9337   -0.9983   20.7828 C   0  0  0  0  0  0  0  0  0  0  0  0
    5.5486    0.4539   18.3004 C   0  0  0  0  0  0  0  0  0  0  0  0
    5.9756    1.3629   17.4345 F   0  0  0  0  0  0  0  0  0  0  0  0
    4.6653    1.0633   19.0792 F   0  0  0  0  0  0  0  0  0  0  0  0
    4.8725   -0.4448   17.5979 F   0  0  0  0  0  0  0  0  0  0  0  0
   11.7957   -1.9113   22.9672 C   0  0  0  0  0  0  0  0  0  0  0  0
  1  2  1  0
  2  3  2  0
  3  4  1  0
  4  5  2  0
  5  6  1  0
  6  7  1  0
  7  8  1  0
  8  9  2  0
  9 10  1  0
 10 11  1  0
 10 12  2  0
 12 13  1  0
 13 14  1  0
 14 15  2  0
 15 16  1  0
 16 17  1  0
 14 18  1  0
 18 19  1  0
 18 20  1  0
 18 21  1  0
  6 22  2  0
 22  2  1  0
 17  8  1  0
 17 13  2  0
M  END
