CVD-0002891|dock_bobby27042020.61|mol2|34|dock1
     RDKit          3D

 17 17  0  0  0  0  0  0  0  0999 V2000
   13.4454    5.3737   22.5114 C   0  0  0  0  0  0  0  0  0  0  0  0
   12.5522    4.1582   22.5634 C   0  0  0  0  0  0  0  0  0  0  0  0
   13.0792    2.8890   22.7403 C   0  0  0  0  0  0  0  0  0  0  0  0
   12.2618    1.7739   22.7912 C   0  0  0  0  0  0  0  0  0  0  0  0
   10.8865    1.8922   22.6665 C   0  0  0  0  0  0  0  0  0  0  0  0
    9.9927    0.6770   22.7249 C   0  0  0  0  0  0  0  0  0  0  0  0
   10.7002   -0.6215   22.3592 C   0  0  0  0  0  0  0  0  0  0  0  0
    9.7410   -1.7124   21.9261 C   0  0  0  0  0  0  0  0  0  0  0  0
    9.2113   -1.4788   20.5902 N   0  0  0  0  0  0  0  0  0  0  0  0
    7.9523   -1.1115   20.3684 C   0  0  0  0  0  0  0  0  0  0  0  0
    7.1389   -0.9406   21.2714 O   0  0  0  0  0  0  0  0  0  0  0  0
    7.5737   -0.9117   18.9179 C   0  0  0  0  0  0  0  0  0  0  0  0
    6.1007   -0.6582   18.7259 C   0  0  0  0  0  0  0  0  0  0  0  0
    5.8593   -0.1329   17.4450 O   0  0  0  0  0  0  0  0  0  0  0  0
    5.3532   -1.8316   18.9295 O   0  0  0  0  0  0  0  0  0  0  0  0
   10.3564    3.1609   22.4921 C   0  0  0  0  0  0  0  0  0  0  0  0
   11.1769    4.2739   22.4418 C   0  0  0  0  0  0  0  0  0  0  0  0
  1  2  1  0
  2  3  2  0
  3  4  1  0
  4  5  2  0
  5  6  1  0
  6  7  1  0
  7  8  1  0
  8  9  1  0
  9 10  1  0
 10 11  2  0
 10 12  1  0
 12 13  1  0
 13 14  1  0
 13 15  1  0
  5 16  1  0
 16 17  2  0
 17  2  1  0
M  END
