CVD-0000627|dock_bobby27042020.40|mol2|49|dock3
     RDKit          3D

 27 29  0  0  0  0  0  0  0  0999 V2000
    8.1748   -1.5555   18.2714 C   0  0  0  0  0  0  0  0  0  0  0  0
    7.3725   -0.6016   19.1187 C   0  0  0  0  0  0  0  0  0  0  0  0
    6.2047   -0.0637   18.5861 C   0  0  0  0  0  0  0  0  0  0  0  0
    5.4489    0.8082   19.3372 C   0  0  0  0  0  0  0  0  0  0  0  0
    5.7775    1.1750   20.5725 N   0  0  0  0  0  0  0  0  0  0  0  0
    6.8965    0.6640   21.0952 C   0  0  0  0  0  0  0  0  0  0  0  0
    7.7371   -0.2265   20.4264 C   0  0  0  0  0  0  0  0  0  0  0  0
    8.9289   -0.7732   20.9800 N   0  0  0  0  0  0  0  0  0  0  0  0
    9.2928   -0.9625   22.2726 C   0  0  0  0  0  0  0  0  0  0  0  0
    8.6157   -0.6794   23.2552 O   0  0  0  0  0  0  0  0  0  0  0  0
   10.6679   -1.5824   22.4156 C   0  0  0  0  0  0  0  0  0  0  0  0
   11.3989   -1.3357   23.7608 C   0  0  0  0  0  0  0  0  0  0  0  0
   11.5812    0.1692   23.9541 C   0  0  0  0  0  0  0  0  0  0  0  0
   12.5383    0.7446   22.9253 C   0  0  0  0  0  0  0  0  0  0  0  0
   13.8733    0.0288   22.9433 C   0  0  0  0  0  0  0  0  0  0  0  0
   13.6955   -1.4668   22.7404 C   0  0  0  0  0  0  0  0  0  0  0  0
   12.7436   -2.0554   23.7703 C   0  0  0  0  0  0  0  0  0  0  0  0
   10.4084   -1.9918   24.7335 C   0  0  0  0  0  0  0  0  0  0  0  0
    9.7154   -1.1956   25.6395 C   0  0  0  0  0  0  0  0  0  0  0  0
    8.7995   -1.7325   26.5275 C   0  0  0  0  0  0  0  0  0  0  0  0
    8.5536   -3.0930   26.5336 C   0  0  0  0  0  0  0  0  0  0  0  0
    9.2437   -3.8965   25.6429 C   0  0  0  0  0  0  0  0  0  0  0  0
   10.1635   -3.3633   24.7516 C   0  0  0  0  0  0  0  0  0  0  0  0
    8.9450   -5.6382   25.6289 S   0  0  0  0  0  0  0  0  0  0  0  0
   10.2609   -6.3830   26.1545 N   0  0  0  0  0  0  0  0  0  0  0  0
    7.9030   -5.9010   26.5756 O   0  0  0  0  0  0  0  0  0  0  0  0
    8.7541   -6.0284   24.2642 O   0  0  0  0  0  0  0  0  0  0  0  0
  1  2  1  0
  2  3  2  0
  3  4  1  0
  4  5  2  0
  5  6  1  0
  6  7  2  0
  7  8  1  0
  8  9  1  0
  9 10  2  0
  9 11  1  0
 11 12  1  0
 12 13  1  0
 13 14  1  0
 14 15  1  0
 15 16  1  0
 16 17  1  0
 12 18  1  0
 18 19  2  0
 19 20  1  0
 20 21  2  0
 21 22  1  0
 22 23  2  0
 22 24  1  0
 24 25  1  0
 24 26  2  0
 24 27  2  0
  7  2  1  0
 17 12  1  0
 23 18  1  0
M  END
