CVD-0001212|dock_bobby27042020.10|mol2|25|dock2
     RDKit          3D

 27 29  0  0  0  0  0  0  0  0999 V2000
    6.0279   -5.7193   20.6214 C   0  0  0  0  0  0  0  0  0  0  0  0
    5.6677   -4.3751   20.3101 O   0  0  0  0  0  0  0  0  0  0  0  0
    6.2750   -3.3619   21.0000 C   0  0  0  0  0  0  0  0  0  0  0  0
    6.8056   -3.4611   22.2799 C   0  0  0  0  0  0  0  0  0  0  0  0
    7.3961   -2.3577   22.8687 C   0  0  0  0  0  0  0  0  0  0  0  0
    7.4718   -1.1441   22.2036 C   0  0  0  0  0  0  0  0  0  0  0  0
    8.1178    0.0593   22.8595 C   0  0  0  0  0  0  0  0  0  0  0  0
    9.6262    0.1181   22.7039 C   0  0  0  0  0  0  0  0  0  0  0  0
   10.3736   -1.0517   22.6228 C   0  0  0  0  0  0  0  0  0  0  0  0
   11.7390   -0.9683   22.4787 C   0  0  0  0  0  0  0  0  0  0  0  0
   12.4439   -2.1294   22.4030 F   0  0  0  0  0  0  0  0  0  0  0  0
   12.4367    0.2149   22.4063 C   0  0  0  0  0  0  0  0  0  0  0  0
   11.7112    1.4030   22.4837 C   0  0  0  0  0  0  0  0  0  0  0  0
   12.0551    2.7959   22.4480 C   0  0  0  0  0  0  0  0  0  0  0  0
   13.4351    3.3671   22.3027 C   0  0  0  0  0  0  0  0  0  0  0  0
   13.5033    4.8438   22.6379 C   0  0  0  0  0  0  0  0  0  0  0  0
   12.9129    5.1336   23.9367 N   0  0  0  0  0  0  0  0  0  0  0  0
   12.8013    6.3742   24.4156 C   0  0  0  0  0  0  0  0  0  0  0  0
   12.1867    6.5033   25.7783 C   0  0  0  0  0  0  0  0  0  0  0  0
   13.1925    7.3511   23.7846 O   0  0  0  0  0  0  0  0  0  0  0  0
   10.8830    3.4831   22.5720 C   0  0  0  0  0  0  0  0  0  0  0  0
    9.8296    2.6165   22.6828 N   0  0  0  0  0  0  0  0  0  0  0  0
   10.3140    1.3327   22.6314 C   0  0  0  0  0  0  0  0  0  0  0  0
    6.9405   -1.0424   20.9238 C   0  0  0  0  0  0  0  0  0  0  0  0
    6.3448   -2.1372   20.3172 C   0  0  0  0  0  0  0  0  0  0  0  0
    5.7933   -2.1456   19.0649 O   0  0  0  0  0  0  0  0  0  0  0  0
    5.8672   -0.9598   18.2765 C   0  0  0  0  0  0  0  0  0  0  0  0
  1  2  1  0
  2  3  1  0
  3  4  2  0
  4  5  1  0
  5  6  2  0
  6  7  1  0
  7  8  1  0
  8  9  2  0
  9 10  1  0
 10 11  1  0
 10 12  2  0
 12 13  1  0
 13 14  1  0
 14 15  1  0
 15 16  1  0
 16 17  1  0
 17 18  1  0
 18 19  1  0
 18 20  2  0
 14 21  2  0
 21 22  1  0
 22 23  1  0
  6 24  1  0
 24 25  2  0
 25 26  1  0
 26 27  1  0
 25  3  1  0
 23  8  1  0
 23 13  2  0
M  END
