CVD-0001426|dock_bobby27042020.9|mol2|41|dock1
     RDKit          3D

 30 33  0  0  0  0  0  0  0  0999 V2000
   14.4355    5.7485   21.6916 C   0  0  0  0  0  0  0  0  0  0  0  0
   13.2588    4.9774   22.1899 C   0  0  0  0  0  0  0  0  0  0  0  0
   12.0479    5.4526   22.2304 N   0  0  0  0  0  0  0  0  0  0  0  0
   11.1317    4.5442   22.7297 C   0  0  0  0  0  0  0  0  0  0  0  0
   11.7135    3.3467   23.0849 C   0  0  0  0  0  0  0  0  0  0  0  0
   11.1292    2.2832   23.6280 N   0  0  0  0  0  0  0  0  0  0  0  0
   11.8242    1.0495   23.9741 C   0  0  0  0  0  0  0  0  0  0  0  0
   11.6664   -0.0391   22.9206 C   0  0  0  0  0  0  0  0  0  0  0  0
   10.5675   -1.0215   23.3724 C   0  0  0  0  0  0  0  0  0  0  0  0
    9.1233   -0.4322   23.3482 C   0  0  0  0  0  0  0  0  0  0  0  0
    8.3373   -1.2998   22.4992 C   0  0  0  0  0  0  0  0  0  0  0  0
    9.1202   -2.4488   22.0205 C   0  0  0  0  0  0  0  0  0  0  0  0
   10.4544   -2.2525   22.5336 N   0  0  0  0  0  0  0  0  0  0  0  0
    8.5452   -3.7951   22.3755 C   0  0  0  0  0  0  0  0  0  0  0  0
    7.6778   -4.5890   21.6907 C   0  0  0  0  0  0  0  0  0  0  0  0
    7.4996   -5.6652   22.4665 N   0  0  0  0  0  0  0  0  0  0  0  0
    6.6827   -6.8409   22.1909 C   0  0  0  0  0  0  0  0  0  0  0  0
    8.2366   -5.5754   23.5890 N   0  0  0  0  0  0  0  0  0  0  0  0
    8.8679   -4.4239   23.5383 N   0  0  0  0  0  0  0  0  0  0  0  0
   13.2208   -0.8975   22.6786 S   0  0  0  0  0  0  0  0  0  0  0  0
   13.5639   -1.6947   24.2046 C   0  0  0  0  0  0  0  0  0  0  0  0
   13.0346   -1.9091   21.6742 O   0  0  0  0  0  0  0  0  0  0  0  0
   14.2558    0.0695   22.4314 O   0  0  0  0  0  0  0  0  0  0  0  0
   13.4071    3.3456   22.7468 S   0  0  0  0  0  0  0  0  0  0  0  0
    9.7303    5.0175   22.7927 C   0  0  0  0  0  0  0  0  0  0  0  0
    8.6430    4.2459   22.3881 C   0  0  0  0  0  0  0  0  0  0  0  0
    7.3491    4.7221   22.5207 C   0  0  0  0  0  0  0  0  0  0  0  0
    7.1183    5.9857   23.0183 C   0  0  0  0  0  0  0  0  0  0  0  0
    8.1840    6.7785   23.3822 C   0  0  0  0  0  0  0  0  0  0  0  0
    9.4786    6.3005   23.2697 C   0  0  0  0  0  0  0  0  0  0  0  0
  1  2  1  0
  2  3  2  0
  3  4  1  0
  4  5  2  0
  5  6  1  0
  6  7  1  0
  7  8  1  0
  8  9  1  0
  9 10  1  0
 10 11  1  0
 11 12  1  0
 12 13  1  0
 12 14  1  0
 14 15  2  0
 15 16  1  0
 16 17  1  0
 16 18  1  0
 18 19  2  0
  8 20  1  0
 20 21  1  0
 20 22  2  0
 20 23  2  0
  5 24  1  0
  4 25  1  0
 25 26  2  0
 26 27  1  0
 27 28  2  0
 28 29  1  0
 29 30  2  0
 24  2  1  0
 30 25  1  0
 13  9  1  0
 19 14  1  0
M  END
