CVD-0001907|dock_bobby27042020.22|mol2|23|dock1
     RDKit          3D

 31 34  0  0  0  0  0  0  0  0999 V2000
   13.2283    7.6291   23.4352 Cl  0  0  0  0  0  0  0  0  0  0  0  0
   12.7764    5.9596   23.2323 C   0  0  0  0  0  0  0  0  0  0  0  0
   13.7437    5.0295   22.9267 C   0  0  0  0  0  0  0  0  0  0  0  0
   13.3793    3.7047   22.7665 C   0  0  0  0  0  0  0  0  0  0  0  0
   12.0559    3.3039   22.9095 C   0  0  0  0  0  0  0  0  0  0  0  0
   11.7571    1.9296   22.7304 N   0  0  0  0  0  0  0  0  0  0  0  0
   10.6353    1.2118   22.9902 C   0  0  0  0  0  0  0  0  0  0  0  0
    9.6017    1.6731   23.4651 O   0  0  0  0  0  0  0  0  0  0  0  0
   10.7967   -0.2775   22.6009 C   0  0  0  0  0  0  0  0  0  0  0  0
    9.5720   -1.1014   22.8208 N   0  0  0  0  0  0  0  0  0  0  0  0
    8.6562   -1.1151   21.7725 C   0  0  0  0  0  0  0  0  0  0  0  0
    8.8552   -0.4792   20.7380 O   0  0  0  0  0  0  0  0  0  0  0  0
    7.3955   -1.9133   21.8251 C   0  0  0  0  0  0  0  0  0  0  0  0
    6.4197   -1.6802   20.9871 C   0  0  0  0  0  0  0  0  0  0  0  0
    9.4205   -1.8686   24.0271 C   0  0  0  0  0  0  0  0  0  0  0  0
    8.8087   -1.3135   25.1464 C   0  0  0  0  0  0  0  0  0  0  0  0
    8.6308   -2.0406   26.3125 C   0  0  0  0  0  0  0  0  0  0  0  0
    9.0639   -3.3632   26.4031 C   0  0  0  0  0  0  0  0  0  0  0  0
    8.9694   -4.2335   27.4864 N   0  0  0  0  0  0  0  0  0  0  0  0
    9.4844   -5.3787   27.1878 C   0  0  0  0  0  0  0  0  0  0  0  0
   10.1392   -5.5579   25.5917 S   0  0  0  0  0  0  0  0  0  0  0  0
    9.6770   -3.9167   25.2757 C   0  0  0  0  0  0  0  0  0  0  0  0
    9.8524   -3.1887   24.1072 C   0  0  0  0  0  0  0  0  0  0  0  0
   12.0261   -0.9408   23.2174 C   0  0  0  0  0  0  0  0  0  0  0  0
   12.6672   -1.9739   22.5492 C   0  0  0  0  0  0  0  0  0  0  0  0
   13.7845   -2.5751   23.1014 C   0  0  0  0  0  0  0  0  0  0  0  0
   14.2373   -2.1232   24.3192 C   0  0  0  0  0  0  0  0  0  0  0  0
   13.6488   -1.1343   24.9920 N   0  0  0  0  0  0  0  0  0  0  0  0
   12.5695   -0.5701   24.4412 C   0  0  0  0  0  0  0  0  0  0  0  0
   11.0973    4.2663   23.2193 C   0  0  0  0  0  0  0  0  0  0  0  0
   11.4579    5.5926   23.3803 C   0  0  0  0  0  0  0  0  0  0  0  0
  1  2  1  0
  2  3  2  0
  3  4  1  0
  4  5  2  0
  5  6  1  0
  6  7  1  0
  7  8  2  0
  7  9  1  0
  9 10  1  0
 10 11  1  0
 11 12  2  0
 11 13  1  0
 13 14  2  0
 10 15  1  0
 15 16  2  0
 16 17  1  0
 17 18  2  0
 18 19  1  0
 19 20  2  0
 20 21  1  0
 21 22  1  0
 22 23  2  0
  9 24  1  0
 24 25  2  0
 25 26  1  0
 26 27  2  0
 27 28  1  0
 28 29  2  0
  5 30  1  0
 30 31  2  0
 31  2  1  0
 23 15  1  0
 29 24  1  0
 22 18  1  0
M  END
