CVD-0004038|dock_bobby27042020.72|mol2|2|dock1
     RDKit          3D

 26 30  0  0  0  0  0  0  0  0999 V2000
    5.0446   -0.1652   19.9898 C   0  0  0  0  0  0  0  0  0  0  0  0
    6.4295    0.0461   20.5360 C   0  0  0  0  0  0  0  0  0  0  0  0
    7.2512   -1.0683   20.8416 C   0  0  0  0  0  0  0  0  0  0  0  0
    8.4970   -0.9143   21.3271 C   0  0  0  0  0  0  0  0  0  0  0  0
    9.0048    0.3558   21.5404 N   0  0  0  0  0  0  0  0  0  0  0  0
   10.2385    0.8092   22.0177 C   0  0  0  0  0  0  0  0  0  0  0  0
   10.1403    2.1920   21.9937 C   0  0  0  0  0  0  0  0  0  0  0  0
    8.9098    2.5877   21.5060 N   0  0  0  0  0  0  0  0  0  0  0  0
    8.2388    1.4743   21.2452 C   0  0  0  0  0  0  0  0  0  0  0  0
    6.9333    1.2966   20.7371 C   0  0  0  0  0  0  0  0  0  0  0  0
   11.0672    3.2766   22.3846 C   0  0  0  0  0  0  0  0  0  0  0  0
   12.4489    3.1131   22.4202 C   0  0  0  0  0  0  0  0  0  0  0  0
   13.2847    4.1644   22.7533 C   0  0  0  0  0  0  0  0  0  0  0  0
   12.7211    5.3664   23.0817 C   0  0  0  0  0  0  0  0  0  0  0  0
   13.5388    6.4031   23.4089 F   0  0  0  0  0  0  0  0  0  0  0  0
   11.3686    5.5677   23.0959 C   0  0  0  0  0  0  0  0  0  0  0  0
   10.5438    4.5135   22.7465 C   0  0  0  0  0  0  0  0  0  0  0  0
   11.3368   -0.1069   22.4175 C   0  0  0  0  0  0  0  0  0  0  0  0
   11.7005   -1.1701   21.5937 C   0  0  0  0  0  0  0  0  0  0  0  0
   12.7157   -2.0393   21.9512 C   0  0  0  0  0  0  0  0  0  0  0  0
   13.4094   -1.8739   23.1587 C   0  0  0  0  0  0  0  0  0  0  0  0
   14.4618   -2.5198   23.8553 C   0  0  0  0  0  0  0  0  0  0  0  0
   14.7207   -1.9121   24.9967 N   0  0  0  0  0  0  0  0  0  0  0  0
   13.8512   -0.8626   25.0737 N   0  0  0  0  0  0  0  0  0  0  0  0
   13.0402   -0.8016   23.9840 C   0  0  0  0  0  0  0  0  0  0  0  0
   12.0200    0.0702   23.6190 C   0  0  0  0  0  0  0  0  0  0  0  0
  1  2  1  0
  2  3  1  0
  3  4  2  0
  4  5  1  0
  5  6  1  0
  6  7  2  0
  7  8  1  0
  8  9  2  0
  9 10  1  0
  7 11  1  0
 11 12  2  0
 12 13  1  0
 13 14  2  0
 14 15  1  0
 14 16  1  0
 16 17  2  0
  6 18  1  0
 18 19  2  0
 19 20  1  0
 20 21  2  0
 21 22  1  0
 22 23  2  0
 23 24  1  0
 24 25  1  0
 25 26  2  0
 10  2  2  0
 17 11  1  0
 26 18  1  0
  9  5  1  0
 25 21  1  0
M  END
