CVD-0001575|dock_bobby27042020.37|mol2|42|dock2
     RDKit          3D

 14 15  0  0  0  0  0  0  0  0999 V2000
   12.7818    6.2288   23.8017 C   0  0  0  0  0  0  0  0  0  0  0  0
   13.4832    5.1725   23.0814 N   0  0  0  0  0  0  0  0  0  0  0  0
   14.1475    5.7372   21.9122 C   0  0  0  0  0  0  0  0  0  0  0  0
   12.5546    4.1129   22.6944 C   0  0  0  0  0  0  0  0  0  0  0  0
   13.1436    2.7165   22.7984 C   0  0  0  0  0  0  0  0  0  0  0  0
   12.1137    1.6407   22.6138 C   0  0  0  0  0  0  0  0  0  0  0  0
   10.8365    1.7854   22.1587 C   0  0  0  0  0  0  0  0  0  0  0  0
   10.2020    0.5736   22.1290 N   0  0  0  0  0  0  0  0  0  0  0  0
   11.0704   -0.3941   22.5714 C   0  0  0  0  0  0  0  0  0  0  0  0
   10.9049   -1.7663   22.7253 C   0  0  0  0  0  0  0  0  0  0  0  0
   11.9709   -2.5126   23.2007 C   0  0  0  0  0  0  0  0  0  0  0  0
   13.1706   -1.9067   23.5147 C   0  0  0  0  0  0  0  0  0  0  0  0
   13.3377   -0.5393   23.3622 C   0  0  0  0  0  0  0  0  0  0  0  0
   12.2861    0.2423   22.8862 C   0  0  0  0  0  0  0  0  0  0  0  0
  1  2  1  0
  2  3  1  0
  2  4  1  0
  4  5  1  0
  5  6  1  0
  6  7  2  0
  7  8  1  0
  8  9  1  0
  9 10  2  0
 10 11  1  0
 11 12  2  0
 12 13  1  0
 13 14  2  0
 14  6  1  0
 14  9  1  0
M  END
