CVD-0001812|dock_bobby27042020.8|mol2|22|dock1
     RDKit          3D

 21 22  0  0  0  0  0  0  0  0999 V2000
    7.5093   -3.9848   23.3775 C   0  0  0  0  0  0  0  0  0  0  0  0
    7.1860   -3.5396   21.9816 C   0  0  0  0  0  0  0  0  0  0  0  0
    7.1170   -4.3524   21.0660 O   0  0  0  0  0  0  0  0  0  0  0  0
    6.9779   -2.2006   21.8725 N   0  0  0  0  0  0  0  0  0  0  0  0
    6.6420   -1.3869   20.7533 C   0  0  0  0  0  0  0  0  0  0  0  0
    5.8942   -1.8748   19.6775 C   0  0  0  0  0  0  0  0  0  0  0  0
    5.5725   -1.0605   18.6066 C   0  0  0  0  0  0  0  0  0  0  0  0
    5.9880    0.2490   18.6029 C   0  0  0  0  0  0  0  0  0  0  0  0
    5.5753    1.2789   17.2607 Cl  0  0  0  0  0  0  0  0  0  0  0  0
    6.7268    0.7591   19.6458 C   0  0  0  0  0  0  0  0  0  0  0  0
    7.0729   -0.0455   20.7270 C   0  0  0  0  0  0  0  0  0  0  0  0
    7.9092    0.5660   21.8303 C   0  0  0  0  0  0  0  0  0  0  0  0
    8.8966   -0.3608   22.4029 N   0  0  0  0  0  0  0  0  0  0  0  0
    9.6081    0.2723   23.5172 C   0  0  0  0  0  0  0  0  0  0  0  0
   10.5965   -0.7020   24.1306 C   0  0  0  0  0  0  0  0  0  0  0  0
   11.5497   -1.1675   23.1208 N   0  0  0  0  0  0  0  0  0  0  0  0
   10.8656   -1.7530   21.9637 C   0  0  0  0  0  0  0  0  0  0  0  0
    9.8654   -0.7670   21.3881 C   0  0  0  0  0  0  0  0  0  0  0  0
   12.8924   -1.0792   23.2819 C   0  0  0  0  0  0  0  0  0  0  0  0
   13.7678   -1.5762   22.1691 C   0  0  0  0  0  0  0  0  0  0  0  0
   13.3704   -0.5956   24.3019 O   0  0  0  0  0  0  0  0  0  0  0  0
  1  2  1  0
  2  3  2  0
  2  4  1  0
  4  5  1  0
  5  6  2  0
  6  7  1  0
  7  8  2  0
  8  9  1  0
  8 10  1  0
 10 11  2  0
 11 12  1  0
 12 13  1  0
 13 14  1  0
 14 15  1  0
 15 16  1  0
 16 17  1  0
 17 18  1  0
 16 19  1  0
 19 20  1  0
 19 21  2  0
 11  5  1  0
 18 13  1  0
M  END
