CVD-0002311|dock_bobby27042020.92|mol2|5|dock1
     RDKit          3D

 40 43  0  0  0  0  0  0  0  0999 V2000
    9.9708   -5.4947   27.1382 C   0  0  0  0  0  0  0  0  0  0  0  0
   10.4211   -5.3143   25.7556 N   0  0  0  0  0  0  0  0  0  0  0  0
    9.3373   -5.2127   24.7724 C   0  0  0  0  0  0  0  0  0  0  0  0
    9.6000   -4.1250   23.7642 C   0  0  0  0  0  0  0  0  0  0  0  0
    8.6688   -3.6435   22.8273 C   0  0  0  0  0  0  0  0  0  0  0  0
    9.2430   -2.6498   22.0572 C   0  0  0  0  0  0  0  0  0  0  0  0
    8.5584   -1.9181   20.9632 C   0  0  0  0  0  0  0  0  0  0  0  0
    7.6736   -2.6595   20.1777 C   0  0  0  0  0  0  0  0  0  0  0  0
    6.9461   -2.0625   19.1620 C   0  0  0  0  0  0  0  0  0  0  0  0
    7.0870   -0.7179   18.9022 C   0  0  0  0  0  0  0  0  0  0  0  0
    7.9817    0.0372   19.6387 C   0  0  0  0  0  0  0  0  0  0  0  0
    8.7127   -0.5799   20.6263 C   0  0  0  0  0  0  0  0  0  0  0  0
    9.6262    0.1809   21.2659 F   0  0  0  0  0  0  0  0  0  0  0  0
   10.5697   -2.4934   22.5484 N   0  0  0  0  0  0  0  0  0  0  0  0
   10.7691   -3.4016   23.5809 C   0  0  0  0  0  0  0  0  0  0  0  0
   11.8408   -1.4505   22.1282 S   0  0  0  0  0  0  0  0  0  0  0  0
   11.6507   -1.0668   20.7638 O   0  0  0  0  0  0  0  0  0  0  0  0
   13.0301   -2.1569   22.4905 O   0  0  0  0  0  0  0  0  0  0  0  0
   11.7277   -0.0453   23.1814 C   0  0  0  0  0  0  0  0  0  0  0  0
   11.4075   -0.2109   24.5187 C   0  0  0  0  0  0  0  0  0  0  0  0
   11.3275    0.9071   25.3318 C   0  0  0  0  0  0  0  0  0  0  0  0
   11.5639    2.1686   24.8115 C   0  0  0  0  0  0  0  0  0  0  0  0
   11.8854    2.3388   23.4721 C   0  0  0  0  0  0  0  0  0  0  0  0
   11.9683    1.2162   22.6590 C   0  0  0  0  0  0  0  0  0  0  0  0
   12.1342    3.7336   22.9130 C   0  0  0  0  0  0  0  0  0  0  0  0
   13.5877    4.1938   22.9860 C   0  0  0  0  0  0  0  0  0  0  0  0
   11.2313    4.7108   23.5775 N   0  0  0  0  0  0  0  0  0  0  0  0
    9.9062    4.8643   22.9831 C   0  0  0  0  0  0  0  0  0  0  0  0
   11.6319    5.3915   24.6781 C   0  0  0  0  0  0  0  0  0  0  0  0
   12.7322    5.2323   25.1707 O   0  0  0  0  0  0  0  0  0  0  0  0
   10.6835    6.3894   25.3131 C   0  0  0  0  0  0  0  0  0  0  0  0
    9.8391    5.7259   26.3940 C   0  0  0  0  0  0  0  0  0  0  0  0
    8.9223    6.7381   27.0496 C   0  0  0  0  0  0  0  0  0  0  0  0
    9.7085    7.8351   27.6078 N   0  0  0  0  0  0  0  0  0  0  0  0
   10.4942    8.5362   26.5981 C   0  0  0  0  0  0  0  0  0  0  0  0
   11.4506    7.5648   25.9144 C   0  0  0  0  0  0  0  0  0  0  0  0
    9.5517    8.3699   28.8354 C   0  0  0  0  0  0  0  0  0  0  0  0
   10.2621    9.2800   29.2436 O   0  0  0  0  0  0  0  0  0  0  0  0
    8.4486    7.7786   29.6908 C   0  0  0  0  0  0  0  0  0  0  0  0
    8.2375    8.7130   31.1773 Cl  0  0  0  0  0  0  0  0  0  0  0  0
  1  2  1  0
  2  3  1  0
  3  4  1  0
  4  5  1  0
  5  6  2  0
  6  7  1  0
  7  8  2  0
  8  9  1  0
  9 10  2  0
 10 11  1  0
 11 12  2  0
 12 13  1  0
  6 14  1  0
 14 15  1  0
 14 16  1  0
 16 17  2  0
 16 18  2  0
 16 19  1  0
 19 20  2  0
 20 21  1  0
 21 22  2  0
 22 23  1  0
 23 24  2  0
 23 25  1  0
 25 26  1  0
 25 27  1  0
 27 28  1  0
 27 29  1  0
 29 30  2  0
 29 31  1  0
 31 32  1  0
 32 33  1  0
 33 34  1  0
 34 35  1  0
 35 36  1  0
 34 37  1  0
 37 38  2  0
 37 39  1  0
 39 40  1  0
 15  4  2  0
 24 19  1  0
 36 31  1  0
 12  7  1  0
M  END
