CVD-0001061|dock_bobby27042020.53|mol2|48|dock3
     RDKit          3D

 24 27  0  0  0  0  0  0  0  0999 V2000
    1.4520    3.9117   20.6397 O   0  0  0  0  0  0  0  0  0  0  0  0
    2.5133    3.6757   21.2135 N   0  0  0  0  0  0  0  0  0  0  0  0
    2.7912    4.0824   22.3289 O   0  0  0  0  0  0  0  0  0  0  0  0
    3.5069    2.8528   20.5109 C   0  0  0  0  0  0  0  0  0  0  0  0
    3.2222    2.3896   19.2346 C   0  0  0  0  0  0  0  0  0  0  0  0
    4.1290    1.6250   18.5648 C   0  0  0  0  0  0  0  0  0  0  0  0
    5.3691    1.2935   19.1584 C   0  0  0  0  0  0  0  0  0  0  0  0
    6.2674    0.5243   18.4699 N   0  0  0  0  0  0  0  0  0  0  0  0
    7.3990    0.2350   19.0397 C   0  0  0  0  0  0  0  0  0  0  0  0
    8.4154   -0.7447   18.0295 Cl  0  0  0  0  0  0  0  0  0  0  0  0
    7.8010    0.6422   20.3199 C   0  0  0  0  0  0  0  0  0  0  0  0
    6.9024    1.4141   21.0138 C   0  0  0  0  0  0  0  0  0  0  0  0
    5.6542    1.7672   20.4575 C   0  0  0  0  0  0  0  0  0  0  0  0
    4.6897    2.5582   21.1227 C   0  0  0  0  0  0  0  0  0  0  0  0
    9.0685    0.3477   21.0204 C   0  0  0  0  0  0  0  0  0  0  0  0
    9.6594   -0.8115   21.0446 N   0  0  0  0  0  0  0  0  0  0  0  0
   10.8024   -0.6147   21.8130 C   0  0  0  0  0  0  0  0  0  0  0  0
   11.8269   -1.4807   22.1935 C   0  0  0  0  0  0  0  0  0  0  0  0
   12.8442   -0.9687   22.9771 C   0  0  0  0  0  0  0  0  0  0  0  0
   14.2523   -2.1269   23.5094 Br  0  0  0  0  0  0  0  0  0  0  0  0
   12.8784    0.3504   23.3886 C   0  0  0  0  0  0  0  0  0  0  0  0
   11.8586    1.2039   23.0073 C   0  0  0  0  0  0  0  0  0  0  0  0
   10.8362    0.6973   22.2222 C   0  0  0  0  0  0  0  0  0  0  0  0
    9.7212    1.3351   21.7180 O   0  0  0  0  0  0  0  0  0  0  0  0
  1  2  1  0
  2  3  2  0
  2  4  1  0
  4  5  2  0
  5  6  1  0
  6  7  2  0
  7  8  1  0
  8  9  2  0
  9 10  1  0
  9 11  1  0
 11 12  2  0
 12 13  1  0
 13 14  2  0
 11 15  1  0
 15 16  2  0
 16 17  1  0
 17 18  2  0
 18 19  1  0
 19 20  1  0
 19 21  2  0
 21 22  1  0
 22 23  2  0
 23 24  1  0
 14  4  1  0
 24 15  1  0
 13  7  1  0
 23 17  1  0
M  CHG  2   1  -1   2   1
M  END
