CVD-0002329|dock_bobby27042020.34|mol2|38|dock1
     RDKit          3D

 34 37  0  0  0  0  0  0  0  0999 V2000
    5.7361    1.0104   18.7403 C   0  0  0  0  0  0  0  0  0  0  0  0
    7.1843    0.6271   18.8304 C   0  0  0  0  0  0  0  0  0  0  0  0
    7.9418    0.7963   17.8816 O   0  0  0  0  0  0  0  0  0  0  0  0
    7.6413    0.0737   19.9818 N   0  0  0  0  0  0  0  0  0  0  0  0
    6.8549   -0.1808   21.1928 C   0  0  0  0  0  0  0  0  0  0  0  0
    7.5969    0.2879   22.4174 C   0  0  0  0  0  0  0  0  0  0  0  0
    8.9182   -0.3551   22.5070 N   0  0  0  0  0  0  0  0  0  0  0  0
    9.6750    0.0094   21.3084 C   0  0  0  0  0  0  0  0  0  0  0  0
    8.9876   -0.4899   20.0600 C   0  0  0  0  0  0  0  0  0  0  0  0
    9.6259    0.0580   23.7169 C   0  0  0  0  0  0  0  0  0  0  0  0
    8.8867   -0.4063   24.9822 C   0  0  0  0  0  0  0  0  0  0  0  0
    8.5774    0.3912   25.8470 O   0  0  0  0  0  0  0  0  0  0  0  0
    8.5955   -1.7188   25.0966 N   0  0  0  0  0  0  0  0  0  0  0  0
    7.8469   -2.2064   26.2433 C   0  0  0  0  0  0  0  0  0  0  0  0
    8.5662   -3.3434   26.8982 C   0  0  0  0  0  0  0  0  0  0  0  0
    8.8168   -4.3911   25.8983 N   0  0  0  0  0  0  0  0  0  0  0  0
    9.6439   -3.8982   24.7869 C   0  0  0  0  0  0  0  0  0  0  0  0
    8.9356   -2.7571   24.1188 C   0  0  0  0  0  0  0  0  0  0  0  0
    9.0868   -5.9002   26.4528 S   0  0  0  0  0  0  0  0  0  0  0  0
    9.9381   -5.7719   27.5945 O   0  0  0  0  0  0  0  0  0  0  0  0
    9.5202   -6.6787   25.3342 O   0  0  0  0  0  0  0  0  0  0  0  0
    7.4523   -6.4587   26.9482 C   0  0  0  0  0  0  0  0  0  0  0  0
    6.4088   -6.5563   26.0251 C   0  0  0  0  0  0  0  0  0  0  0  0
    6.6372   -6.2126   24.7369 F   0  0  0  0  0  0  0  0  0  0  0  0
    5.1446   -6.9859   26.3515 C   0  0  0  0  0  0  0  0  0  0  0  0
    4.8777   -7.3364   27.6634 C   0  0  0  0  0  0  0  0  0  0  0  0
    5.8679   -7.2502   28.6267 C   0  0  0  0  0  0  0  0  0  0  0  0
    7.1196   -6.8156   28.2589 C   0  0  0  0  0  0  0  0  0  0  0  0
    8.0512   -6.7398   29.2365 F   0  0  0  0  0  0  0  0  0  0  0  0
    9.9106    1.5412   23.7852 C   0  0  0  0  0  0  0  0  0  0  0  0
    9.0316    2.5347   24.2009 C   0  0  0  0  0  0  0  0  0  0  0  0
    9.6363    3.8131   24.1310 C   0  0  0  0  0  0  0  0  0  0  0  0
   10.9031    3.7839   23.6842 C   0  0  0  0  0  0  0  0  0  0  0  0
   11.4189    2.1969   23.3272 S   0  0  0  0  0  0  0  0  0  0  0  0
  1  2  1  0
  2  3  2  0
  2  4  1  0
  4  5  1  0
  5  6  1  0
  6  7  1  0
  7  8  1  0
  8  9  1  0
  7 10  1  0
 10 11  1  0
 11 12  2  0
 11 13  1  0
 13 14  1  0
 14 15  1  0
 15 16  1  0
 16 17  1  0
 17 18  1  0
 16 19  1  0
 19 20  2  0
 19 21  2  0
 19 22  1  0
 22 23  2  0
 23 24  1  0
 23 25  1  0
 25 26  2  0
 26 27  1  0
 27 28  2  0
 28 29  1  0
 10 30  1  0
 30 31  2  0
 31 32  1  0
 32 33  2  0
 33 34  1  0
  9  4  1  0
 18 13  1  0
 28 22  1  0
 34 30  1  0
M  END
