CVD-0001302|dock_bobby27042020.53|mol2|11|dock3
     RDKit          3D

 18 19  0  0  0  0  0  0  0  0999 V2000
   15.3830   -2.6312   24.8464 F   0  0  0  0  0  0  0  0  0  0  0  0
   14.5104   -2.1470   25.7966 C   0  0  0  0  0  0  0  0  0  0  0  0
   13.5317   -0.7960   25.1918 S   0  0  0  0  0  0  0  0  0  0  0  0
   12.9706   -1.4682   23.6700 C   0  0  0  0  0  0  0  0  0  0  0  0
   13.6904   -2.0802   22.9243 O   0  0  0  0  0  0  0  0  0  0  0  0
   11.5058   -1.1856   23.4376 C   0  0  0  0  0  0  0  0  0  0  0  0
   10.9919   -1.9430   22.2194 C   0  0  0  0  0  0  0  0  0  0  0  0
    9.5322   -1.6237   21.9706 C   0  0  0  0  0  0  0  0  0  0  0  0
    9.3595   -0.1840   21.7955 N   0  0  0  0  0  0  0  0  0  0  0  0
    9.7890    0.5813   22.9610 C   0  0  0  0  0  0  0  0  0  0  0  0
   11.2618    0.3099   23.2490 C   0  0  0  0  0  0  0  0  0  0  0  0
    8.6317    0.4106   20.8234 C   0  0  0  0  0  0  0  0  0  0  0  0
    8.7445    1.6143   20.6214 O   0  0  0  0  0  0  0  0  0  0  0  0
    7.6667   -0.2824   19.9382 C   0  0  0  0  0  0  0  0  0  0  0  0
    7.2758   -0.0323   18.6690 C   0  0  0  0  0  0  0  0  0  0  0  0
    6.3221   -1.0185   18.3226 C   0  0  0  0  0  0  0  0  0  0  0  0
    6.1840   -1.8016   19.3813 C   0  0  0  0  0  0  0  0  0  0  0  0
    6.9950   -1.3818   20.4004 O   0  0  0  0  0  0  0  0  0  0  0  0
  1  2  1  0
  2  3  1  0
  3  4  1  0
  4  5  2  0
  4  6  1  0
  6  7  1  0
  7  8  1  0
  8  9  1  0
  9 10  1  0
 10 11  1  0
  9 12  1  0
 12 13  2  0
 12 14  1  0
 14 15  2  0
 15 16  1  0
 16 17  2  0
 17 18  1  0
 11  6  1  0
 18 14  1  0
M  END
