CVD-0002875|dock_bobby27042020.89|mol2|41|dock3
     RDKit          3D

 23 26  0  0  0  0  0  0  0  0999 V2000
    9.4698   -2.4477   20.7901 O   0  0  0  0  0  0  0  0  0  0  0  0
    9.7441   -1.6639   21.8658 C   0  0  0  0  0  0  0  0  0  0  0  0
   11.0724   -1.3242   22.0882 C   0  0  0  0  0  0  0  0  0  0  0  0
   11.4111   -0.5405   23.1738 C   0  0  0  0  0  0  0  0  0  0  0  0
   10.4244   -0.1065   24.0285 C   0  0  0  0  0  0  0  0  0  0  0  0
    9.0982   -0.4425   23.8080 C   0  0  0  0  0  0  0  0  0  0  0  0
    8.7129   -1.2201   22.7186 C   0  0  0  0  0  0  0  0  0  0  0  0
    7.2393   -1.5958   22.4379 C   0  0  0  0  0  0  0  0  0  0  0  0
    6.3214   -1.1869   23.6290 C   0  0  0  0  0  0  0  0  0  0  0  0
    6.4945   -1.5247   24.7928 O   0  0  0  0  0  0  0  0  0  0  0  0
    5.3196   -0.4237   23.1450 N   0  0  0  0  0  0  0  0  0  0  0  0
    5.4603   -0.1636   21.7814 C   0  0  0  0  0  0  0  0  0  0  0  0
    4.6744    0.6210   20.9430 C   0  0  0  0  0  0  0  0  0  0  0  0
    5.0455    0.7464   19.6132 C   0  0  0  0  0  0  0  0  0  0  0  0
    6.1695    0.1072   19.1316 C   0  0  0  0  0  0  0  0  0  0  0  0
    6.9504   -0.6736   19.9687 C   0  0  0  0  0  0  0  0  0  0  0  0
    6.5924   -0.8088   21.3015 C   0  0  0  0  0  0  0  0  0  0  0  0
    7.1565   -3.1308   22.2414 C   0  0  0  0  0  0  0  0  0  0  0  0
    6.4540   -3.7231   21.1943 C   0  0  0  0  0  0  0  0  0  0  0  0
    6.4047   -5.1003   21.0528 C   0  0  0  0  0  0  0  0  0  0  0  0
    7.0509   -5.9171   21.9540 C   0  0  0  0  0  0  0  0  0  0  0  0
    7.7483   -5.3543   22.9995 C   0  0  0  0  0  0  0  0  0  0  0  0
    7.7991   -3.9778   23.1393 C   0  0  0  0  0  0  0  0  0  0  0  0
  1  2  1  0
  2  3  2  0
  3  4  1  0
  4  5  2  0
  5  6  1  0
  6  7  2  0
  7  8  1  0
  8  9  1  0
  9 10  2  0
  9 11  1  0
 11 12  1  0
 12 13  2  0
 13 14  1  0
 14 15  2  0
 15 16  1  0
 16 17  2  0
  8 18  1  0
 18 19  2  0
 19 20  1  0
 20 21  2  0
 21 22  1  0
 22 23  2  0
  7  2  1  0
 17  8  1  0
 23 18  1  0
 17 12  1  0
M  END
