CVD-0003597|dock_bobby27042020.30|mol2|25|dock2
     RDKit          3D

 25 28  0  0  0  0  0  0  0  0999 V2000
    5.3766    1.3249   18.4236 C   0  0  0  0  0  0  0  0  0  0  0  0
    5.7796    0.6071   19.4340 C   0  0  0  0  0  0  0  0  0  0  0  0
    6.9804   -0.6533   19.2487 S   0  0  0  0  0  0  0  0  0  0  0  0
    7.9556   -0.1948   18.3067 O   0  0  0  0  0  0  0  0  0  0  0  0
    6.2914   -1.8849   19.0096 O   0  0  0  0  0  0  0  0  0  0  0  0
    7.7457   -0.8048   20.6953 N   0  0  0  0  0  0  0  0  0  0  0  0
    7.8382   -2.1118   21.4172 C   0  0  0  0  0  0  0  0  0  0  0  0
    9.2871   -2.3129   21.7819 C   0  0  0  0  0  0  0  0  0  0  0  0
    9.8391   -1.1636   22.6149 C   0  0  0  0  0  0  0  0  0  0  0  0
    9.6942    0.1359   21.8518 C   0  0  0  0  0  0  0  0  0  0  0  0
    8.2142    0.3820   21.4458 C   0  0  0  0  0  0  0  0  0  0  0  0
   10.2654    1.3382   22.5150 C   0  0  0  0  0  0  0  0  0  0  0  0
   11.0321    2.3241   21.9749 C   0  0  0  0  0  0  0  0  0  0  0  0
   11.2841    3.1734   22.9943 N   0  0  0  0  0  0  0  0  0  0  0  0
   10.6962    2.7351   24.1329 N   0  0  0  0  0  0  0  0  0  0  0  0
   10.0765    1.6154   23.8342 N   0  0  0  0  0  0  0  0  0  0  0  0
   12.0437    4.3839   22.9919 C   0  0  0  0  0  0  0  0  0  0  0  0
   13.0089    4.6031   22.0165 C   0  0  0  0  0  0  0  0  0  0  0  0
   13.7508    5.7729   22.0049 C   0  0  0  0  0  0  0  0  0  0  0  0
   13.5272    6.7420   22.9826 C   0  0  0  0  0  0  0  0  0  0  0  0
   14.1197    7.9827   23.1992 N   0  0  0  0  0  0  0  0  0  0  0  0
   13.5097    8.4560   24.2667 C   0  0  0  0  0  0  0  0  0  0  0  0
   12.5677    7.6294   24.7672 N   0  0  0  0  0  0  0  0  0  0  0  0
   12.5584    6.5188   23.9594 C   0  0  0  0  0  0  0  0  0  0  0  0
   11.8156    5.3450   23.9691 C   0  0  0  0  0  0  0  0  0  0  0  0
  1  2  2  0
  2  3  1  0
  3  4  2  0
  3  5  2  0
  3  6  1  0
  6  7  1  0
  7  8  1  0
  8  9  1  0
  9 10  1  0
 10 11  1  0
 10 12  1  0
 12 13  2  0
 13 14  1  0
 14 15  1  0
 15 16  2  0
 14 17  1  0
 17 18  2  0
 18 19  1  0
 19 20  2  0
 20 21  1  0
 21 22  2  0
 22 23  1  0
 23 24  1  0
 24 25  2  0
 11  6  1  0
 16 12  1  0
 25 17  1  0
 24 20  1  0
M  END
