CVD-0000787|dock_bobby27042020.97|mol2|27|dock3
     RDKit          3D

 30 33  0  0  0  0  0  0  0  0999 V2000
    9.9192   -5.3183   27.3901 C   0  0  0  0  0  0  0  0  0  0  0  0
   10.4402   -5.5628   25.9978 C   0  0  0  0  0  0  0  0  0  0  0  0
    9.7926   -4.6834   24.9459 C   0  0  0  0  0  0  0  0  0  0  0  0
   10.4734   -3.6061   24.3998 C   0  0  0  0  0  0  0  0  0  0  0  0
    9.9272   -2.7651   23.4272 C   0  0  0  0  0  0  0  0  0  0  0  0
   10.7192   -1.5070   23.1059 C   0  0  0  0  0  0  0  0  0  0  0  0
   10.9594   -0.7060   24.3435 C   0  0  0  0  0  0  0  0  0  0  0  0
   11.4864    0.6722   24.0757 C   0  0  0  0  0  0  0  0  0  0  0  0
   12.9530    0.7183   23.8652 C   0  0  0  0  0  0  0  0  0  0  0  0
   13.5313    0.0610   22.7170 C   0  0  0  0  0  0  0  0  0  0  0  0
   12.6526   -0.6532   21.7604 C   0  0  0  0  0  0  0  0  0  0  0  0
   11.9627   -1.8464   22.3516 C   0  0  0  0  0  0  0  0  0  0  0  0
    8.6864   -3.1526   22.8596 C   0  0  0  0  0  0  0  0  0  0  0  0
    7.9351   -2.7520   21.7239 N   0  0  0  0  0  0  0  0  0  0  0  0
    6.6817   -3.3344   21.8652 C   0  0  0  0  0  0  0  0  0  0  0  0
    6.6328   -4.1863   22.9115 C   0  0  0  0  0  0  0  0  0  0  0  0
    5.4628   -5.0101   23.3842 C   0  0  0  0  0  0  0  0  0  0  0  0
    5.7506   -6.4453   23.4842 N   0  0  0  0  0  0  0  0  0  0  0  0
    4.5536   -7.1870   23.8662 C   0  0  0  0  0  0  0  0  0  0  0  0
    6.2369   -6.9490   22.2048 C   0  0  0  0  0  0  0  0  0  0  0  0
    7.9353   -4.1637   23.4952 C   0  0  0  0  0  0  0  0  0  0  0  0
    8.5011   -4.9259   24.5126 C   0  0  0  0  0  0  0  0  0  0  0  0
    8.3060   -1.9312   20.6339 C   0  0  0  0  0  0  0  0  0  0  0  0
    9.4598   -1.6080   20.4421 O   0  0  0  0  0  0  0  0  0  0  0  0
    7.3419   -1.3922   19.6114 C   0  0  0  0  0  0  0  0  0  0  0  0
    6.5645   -2.3156   18.9190 C   0  0  0  0  0  0  0  0  0  0  0  0
    5.6567   -1.9099   17.9552 C   0  0  0  0  0  0  0  0  0  0  0  0
    5.5033   -0.5722   17.6664 C   0  0  0  0  0  0  0  0  0  0  0  0
    6.2504    0.3603   18.3515 C   0  0  0  0  0  0  0  0  0  0  0  0
    7.1525   -0.0418   19.3224 C   0  0  0  0  0  0  0  0  0  0  0  0
  1  2  1  0
  2  3  1  0
  3  4  2  0
  4  5  1  0
  5  6  1  0
  6  7  1  0
  7  8  1  0
  8  9  1  0
  9 10  1  0
 10 11  1  0
 11 12  1  0
  5 13  2  0
 13 14  1  0
 14 15  1  0
 15 16  2  0
 16 17  1  0
 17 18  1  0
 18 19  1  0
 18 20  1  0
 16 21  1  0
 21 22  2  0
 14 23  1  0
 23 24  2  0
 23 25  1  0
 25 26  2  0
 26 27  1  0
 27 28  2  0
 28 29  1  0
 29 30  2  0
 22  3  1  0
 30 25  1  0
 12  6  1  0
 21 13  1  0
M  END
