CVD-0003522|dock_bobby27042020.45|mol2|8|dock2
     RDKit          3D

 26 28  0  0  0  0  0  0  0  0999 V2000
   10.9298   -0.8281   24.7197 C   0  0  0  0  0  0  0  0  0  0  0  0
   10.9525   -1.1969   23.2449 C   0  0  0  0  0  0  0  0  0  0  0  0
   12.2392   -0.7424   22.5907 C   0  0  0  0  0  0  0  0  0  0  0  0
   12.3106    0.7604   22.5911 C   0  0  0  0  0  0  0  0  0  0  0  0
   13.5333    1.4258   22.6288 C   0  0  0  0  0  0  0  0  0  0  0  0
   13.6008    2.8054   22.7045 C   0  0  0  0  0  0  0  0  0  0  0  0
   12.4239    3.5339   22.7432 C   0  0  0  0  0  0  0  0  0  0  0  0
   11.1973    2.8885   22.7065 C   0  0  0  0  0  0  0  0  0  0  0  0
   11.1268    1.5014   22.6303 C   0  0  0  0  0  0  0  0  0  0  0  0
    9.7743    0.8328   22.4951 C   0  0  0  0  0  0  0  0  0  0  0  0
    9.8013   -0.6417   22.5339 N   0  0  0  0  0  0  0  0  0  0  0  0
    8.5391   -1.2322   23.0090 C   0  0  0  0  0  0  0  0  0  0  0  0
    7.3975   -1.2030   21.9991 C   0  0  0  0  0  0  0  0  0  0  0  0
    6.5308    0.0482   22.1225 C   0  0  0  0  0  0  0  0  0  0  0  0
    5.4650    0.1191   21.0477 C   0  0  0  0  0  0  0  0  0  0  0  0
    6.0603   -0.0239   19.7153 N   0  0  0  0  0  0  0  0  0  0  0  0
    6.7921   -1.2744   19.5487 C   0  0  0  0  0  0  0  0  0  0  0  0
    7.9062   -1.3410   20.5698 C   0  0  0  0  0  0  0  0  0  0  0  0
    5.8903    0.8264   18.6830 C   0  0  0  0  0  0  0  0  0  0  0  0
    6.4286    0.6459   17.5981 O   0  0  0  0  0  0  0  0  0  0  0  0
    4.9891    2.0193   18.9347 C   0  0  0  0  0  0  0  0  0  0  0  0
    3.3464    1.5038   19.3381 Cl  0  0  0  0  0  0  0  0  0  0  0  0
   12.4790    5.2996   22.7908 S   0  0  0  0  0  0  0  0  0  0  0  0
   11.0014    5.8603   22.5348 N   0  0  0  0  0  0  0  0  0  0  0  0
   12.8518    5.6801   24.1202 O   0  0  0  0  0  0  0  0  0  0  0  0
   13.2920    5.7319   21.6939 O   0  0  0  0  0  0  0  0  0  0  0  0
  1  2  1  0
  2  3  1  0
  3  4  1  0
  4  5  2  0
  5  6  1  0
  6  7  2  0
  7  8  1  0
  8  9  2  0
  9 10  1  0
 10 11  1  0
 11 12  1  0
 12 13  1  0
 13 14  1  0
 14 15  1  0
 15 16  1  0
 16 17  1  0
 17 18  1  0
 16 19  1  0
 19 20  2  0
 19 21  1  0
 21 22  1  0
  7 23  1  0
 23 24  1  0
 23 25  2  0
 23 26  2  0
 11  2  1  0
 18 13  1  0
  9  4  1  0
M  END
