CVD-0002169|dock_bobby27042020.92|mol2|27|dock2
     RDKit          3D

 25 27  0  0  0  0  0  0  0  0999 V2000
    9.0302    0.9957   21.6025 O   0  0  0  0  0  0  0  0  0  0  0  0
    9.4779    0.1610   20.8233 C   0  0  0  0  0  0  0  0  0  0  0  0
    8.7846   -0.3520   19.7504 N   0  0  0  0  0  0  0  0  0  0  0  0
    7.4729   -0.0872   19.2805 C   0  0  0  0  0  0  0  0  0  0  0  0
    6.8049    1.1186   19.4852 C   0  0  0  0  0  0  0  0  0  0  0  0
    5.5226    1.2968   18.9923 C   0  0  0  0  0  0  0  0  0  0  0  0
    4.8927    0.2889   18.2960 C   0  0  0  0  0  0  0  0  0  0  0  0
    5.5442   -0.9064   18.0885 C   0  0  0  0  0  0  0  0  0  0  0  0
    6.8259   -1.0965   18.5762 C   0  0  0  0  0  0  0  0  0  0  0  0
   10.7391   -0.3835   20.9092 N   0  0  0  0  0  0  0  0  0  0  0  0
   11.7863   -0.1563   21.8381 C   0  0  0  0  0  0  0  0  0  0  0  0
   12.8377   -1.0387   22.0678 C   0  0  0  0  0  0  0  0  0  0  0  0
   13.8111   -0.7998   22.9489 N   0  0  0  0  0  0  0  0  0  0  0  0
   13.7738    0.3405   23.6425 C   0  0  0  0  0  0  0  0  0  0  0  0
   12.7739    1.3002   23.5002 C   0  0  0  0  0  0  0  0  0  0  0  0
   12.6818    2.5198   24.2032 N   0  0  0  0  0  0  0  0  0  0  0  0
   13.0280    3.8261   23.8929 C   0  0  0  0  0  0  0  0  0  0  0  0
   13.7922    4.0615   22.7505 C   0  0  0  0  0  0  0  0  0  0  0  0
   14.1392    5.3635   22.4383 C   0  0  0  0  0  0  0  0  0  0  0  0
   13.7238    6.4038   23.2608 C   0  0  0  0  0  0  0  0  0  0  0  0
   12.9647    6.0717   24.3784 C   0  0  0  0  0  0  0  0  0  0  0  0
   12.6223    4.8172   24.6919 N   0  0  0  0  0  0  0  0  0  0  0  0
   14.0660    7.7737   22.9674 C   0  0  0  0  0  0  0  0  0  0  0  0
   14.3048    8.8655   22.7314 N   0  0  0  0  0  0  0  0  0  0  0  0
   11.7733    1.0229   22.5745 C   0  0  0  0  0  0  0  0  0  0  0  0
  1  2  2  0
  2  3  1  0
  3  4  1  0
  4  5  2  0
  5  6  1  0
  6  7  2  0
  7  8  1  0
  8  9  2  0
  2 10  1  0
 10 11  1  0
 11 12  2  0
 12 13  1  0
 13 14  2  0
 14 15  1  0
 15 16  1  0
 16 17  1  0
 17 18  2  0
 18 19  1  0
 19 20  2  0
 20 21  1  0
 21 22  2  0
 20 23  1  0
 23 24  3  0
 15 25  2  0
  9  4  1  0
 25 11  1  0
 22 17  1  0
M  END
