CVD-0000836|dock_bobby27042020.54|mol2|34|dock2
     RDKit          3D

 23 25  0  0  0  0  0  0  0  0999 V2000
    4.6941    0.6734   17.2983 Cl  0  0  0  0  0  0  0  0  0  0  0  0
    6.0957    0.3735   18.3341 C   0  0  0  0  0  0  0  0  0  0  0  0
    5.6639    0.0016   19.7390 C   0  0  0  0  0  0  0  0  0  0  0  0
    4.4821   -0.0321   20.0578 O   0  0  0  0  0  0  0  0  0  0  0  0
    6.6466   -0.2940   20.6139 N   0  0  0  0  0  0  0  0  0  0  0  0
    8.0666   -0.2510   20.2576 C   0  0  0  0  0  0  0  0  0  0  0  0
    8.8290    0.6356   21.2246 C   0  0  0  0  0  0  0  0  0  0  0  0
    8.6659    0.1471   22.5971 N   0  0  0  0  0  0  0  0  0  0  0  0
    9.4349    0.9789   23.5335 C   0  0  0  0  0  0  0  0  0  0  0  0
   10.9151    1.0646   23.2247 C   0  0  0  0  0  0  0  0  0  0  0  0
   11.5257    2.2756   22.9840 C   0  0  0  0  0  0  0  0  0  0  0  0
   12.8836    2.3744   22.6905 C   0  0  0  0  0  0  0  0  0  0  0  0
   13.6599    1.2390   22.6332 C   0  0  0  0  0  0  0  0  0  0  0  0
   13.0887   -0.0317   22.8739 C   0  0  0  0  0  0  0  0  0  0  0  0
   13.8598   -1.2174   22.8228 C   0  0  0  0  0  0  0  0  0  0  0  0
   13.2861   -2.4308   23.0608 C   0  0  0  0  0  0  0  0  0  0  0  0
   11.9432   -2.5282   23.3577 C   0  0  0  0  0  0  0  0  0  0  0  0
   11.1597   -1.4141   23.4184 C   0  0  0  0  0  0  0  0  0  0  0  0
   11.6980   -0.1233   23.1765 C   0  0  0  0  0  0  0  0  0  0  0  0
   13.4753    3.6666   22.4462 C   0  0  0  0  0  0  0  0  0  0  0  0
   13.9551    4.6790   22.2234 N   0  0  0  0  0  0  0  0  0  0  0  0
    7.2471    0.1648   22.9437 C   0  0  0  0  0  0  0  0  0  0  0  0
    6.4525   -0.7223   22.0027 C   0  0  0  0  0  0  0  0  0  0  0  0
  1  2  1  0
  2  3  1  0
  3  4  2  0
  3  5  1  0
  5  6  1  0
  6  7  1  0
  7  8  1  0
  8  9  1  0
  9 10  1  0
 10 11  2  0
 11 12  1  0
 12 13  2  0
 13 14  1  0
 14 15  2  0
 15 16  1  0
 16 17  2  0
 17 18  1  0
 18 19  2  0
 12 20  1  0
 20 21  3  0
  8 22  1  0
 22 23  1  0
 23  5  1  0
 19 10  1  0
 19 14  1  0
M  END
