CVD-0003631|dock_bobby27042020.44|mol2|40|dock3
     RDKit          3D

 18 19  0  0  0  0  0  0  0  0999 V2000
   12.8289   -1.7274   21.6759 C   0  0  0  0  0  0  0  0  0  0  0  0
   12.6262   -0.3131   22.1558 C   0  0  0  0  0  0  0  0  0  0  0  0
   13.6050    0.2606   22.9617 C   0  0  0  0  0  0  0  0  0  0  0  0
   13.4462    1.5500   23.4175 C   0  0  0  0  0  0  0  0  0  0  0  0
   12.3855    2.2974   23.1262 N   0  0  0  0  0  0  0  0  0  0  0  0
   11.4378    1.7567   22.3541 C   0  0  0  0  0  0  0  0  0  0  0  0
   11.4943    0.4621   21.8370 C   0  0  0  0  0  0  0  0  0  0  0  0
   10.4869   -0.1161   21.0150 N   0  0  0  0  0  0  0  0  0  0  0  0
    9.1562    0.1361   20.9477 C   0  0  0  0  0  0  0  0  0  0  0  0
    8.5427    0.9559   21.6224 O   0  0  0  0  0  0  0  0  0  0  0  0
    8.4373   -0.7079   19.9140 C   0  0  0  0  0  0  0  0  0  0  0  0
    7.0903   -0.1333   19.5378 C   0  0  0  0  0  0  0  0  0  0  0  0
    5.9675   -0.3957   20.3069 C   0  0  0  0  0  0  0  0  0  0  0  0
    4.7334    0.1282   19.9598 C   0  0  0  0  0  0  0  0  0  0  0  0
    4.6048    0.9240   18.8339 C   0  0  0  0  0  0  0  0  0  0  0  0
    5.7237    1.1804   18.0723 C   0  0  0  0  0  0  0  0  0  0  0  0
    5.5786    2.1789   16.6529 Cl  0  0  0  0  0  0  0  0  0  0  0  0
    6.9584    0.6639   18.4082 C   0  0  0  0  0  0  0  0  0  0  0  0
  1  2  1  0
  2  3  2  0
  3  4  1  0
  4  5  2  0
  5  6  1  0
  6  7  2  0
  7  8  1  0
  8  9  1  0
  9 10  2  0
  9 11  1  0
 11 12  1  0
 12 13  2  0
 13 14  1  0
 14 15  2  0
 15 16  1  0
 16 17  1  0
 16 18  2  0
  7  2  1  0
 18 12  1  0
M  END
