CVD-0001755|dock_bobby27042020.23|mol2|1|dock2
     RDKit          3D

 29 31  0  0  0  0  0  0  0  0999 V2000
    7.4766   -0.2764   26.2181 C   0  0  0  0  0  0  0  0  0  0  0  0
    6.5528   -1.2435   25.5463 C   0  0  0  0  0  0  0  0  0  0  0  0
    6.9851   -1.5374   24.1901 N   0  0  0  0  0  0  0  0  0  0  0  0
    6.9078   -2.7621   23.6449 C   0  0  0  0  0  0  0  0  0  0  0  0
    5.9328   -3.5627   24.1217 N   0  0  0  0  0  0  0  0  0  0  0  0
    5.8740   -4.8306   23.7022 C   0  0  0  0  0  0  0  0  0  0  0  0
    6.7467   -5.3732   22.7691 C   0  0  0  0  0  0  0  0  0  0  0  0
    7.7191   -4.5428   22.2258 C   0  0  0  0  0  0  0  0  0  0  0  0
    7.7947   -3.2150   22.6354 C   0  0  0  0  0  0  0  0  0  0  0  0
    8.7814   -2.3719   22.0033 N   0  0  0  0  0  0  0  0  0  0  0  0
   10.1851   -2.5839   22.3971 C   0  0  0  0  0  0  0  0  0  0  0  0
   10.7042   -1.4158   23.2195 C   0  0  0  0  0  0  0  0  0  0  0  0
   11.8495   -1.7756   24.0661 N   0  0  0  0  0  0  0  0  0  0  0  0
   12.2520   -0.6302   24.8855 C   0  0  0  0  0  0  0  0  0  0  0  0
   13.4683   -0.9580   25.7222 C   0  0  0  0  0  0  0  0  0  0  0  0
   14.5981   -1.3895   24.8861 N   0  0  0  0  0  0  0  0  0  0  0  0
   14.1903   -2.5148   24.0291 C   0  0  0  0  0  0  0  0  0  0  0  0
   12.9695   -2.1715   23.2164 C   0  0  0  0  0  0  0  0  0  0  0  0
    8.4694   -1.3933   21.0530 C   0  0  0  0  0  0  0  0  0  0  0  0
    9.3920   -0.7284   20.6017 O   0  0  0  0  0  0  0  0  0  0  0  0
    7.1605   -1.2037   20.6691 N   0  0  0  0  0  0  0  0  0  0  0  0
    6.5992   -0.2827   19.7456 C   0  0  0  0  0  0  0  0  0  0  0  0
    5.3399    0.2322   20.0273 C   0  0  0  0  0  0  0  0  0  0  0  0
    4.7515    1.1333   19.1577 C   0  0  0  0  0  0  0  0  0  0  0  0
    5.4392    1.4983   18.0245 C   0  0  0  0  0  0  0  0  0  0  0  0
    6.6477    1.0247   17.7230 N   0  0  0  0  0  0  0  0  0  0  0  0
    7.2077    0.1542   18.5691 C   0  0  0  0  0  0  0  0  0  0  0  0
    6.6499   -6.7557   22.3700 C   0  0  0  0  0  0  0  0  0  0  0  0
    6.6062   -7.8536   22.0580 N   0  0  0  0  0  0  0  0  0  0  0  0
  1  2  1  0
  2  3  1  0
  3  4  1  0
  4  5  2  0
  5  6  1  0
  6  7  2  0
  7  8  1  0
  8  9  2  0
  9 10  1  0
 10 11  1  0
 11 12  1  0
 12 13  1  0
 13 14  1  0
 14 15  1  0
 15 16  1  0
 16 17  1  0
 17 18  1  0
 10 19  1  0
 19 20  2  0
 19 21  1  0
 21 22  1  0
 22 23  2  0
 23 24  1  0
 24 25  2  0
 25 26  1  0
 26 27  2  0
  7 28  1  0
 28 29  3  0
  9  4  1  0
 18 13  1  0
 27 22  1  0
M  END
