CVD-0002432|dock_bobby27042020.34|mol2|22|dock1
     RDKit          3D

 37 40  0  0  0  0  0  0  0  0999 V2000
    8.7378    0.0311   25.8627 C   0  0  0  0  0  0  0  0  0  0  0  0
   10.1893    0.2957   25.5819 C   0  0  0  0  0  0  0  0  0  0  0  0
   11.0561   -0.1228   26.3428 O   0  0  0  0  0  0  0  0  0  0  0  0
   10.5239    0.9880   24.4812 N   0  0  0  0  0  0  0  0  0  0  0  0
   11.8846    1.3136   24.0711 C   0  0  0  0  0  0  0  0  0  0  0  0
   12.3463    0.3230   22.9915 C   0  0  0  0  0  0  0  0  0  0  0  0
   11.3638   -0.7972   22.7505 C   0  0  0  0  0  0  0  0  0  0  0  0
   11.2800   -1.8692   23.6249 C   0  0  0  0  0  0  0  0  0  0  0  0
   10.3800   -2.8980   23.4114 C   0  0  0  0  0  0  0  0  0  0  0  0
    9.5449   -2.8652   22.3067 C   0  0  0  0  0  0  0  0  0  0  0  0
    8.6185   -3.8800   22.0581 O   0  0  0  0  0  0  0  0  0  0  0  0
    7.4006   -3.9729   22.7323 C   0  0  0  0  0  0  0  0  0  0  0  0
    7.1843   -3.4132   23.9873 C   0  0  0  0  0  0  0  0  0  0  0  0
    5.9509   -3.5483   24.6029 C   0  0  0  0  0  0  0  0  0  0  0  0
    4.9357   -4.2378   23.9762 C   0  0  0  0  0  0  0  0  0  0  0  0
    5.1490   -4.7980   22.7287 C   0  0  0  0  0  0  0  0  0  0  0  0
    6.3801   -4.6766   22.0909 C   0  0  0  0  0  0  0  0  0  0  0  0
    6.6166   -5.2843   20.7303 C   0  0  0  0  0  0  0  0  0  0  0  0
    6.1954   -4.4250   19.6337 N   0  0  0  0  0  0  0  0  0  0  0  0
    6.0492   -3.1007   19.7539 C   0  0  0  0  0  0  0  0  0  0  0  0
    6.2667   -2.4240   20.8672 N   0  0  0  0  0  0  0  0  0  0  0  0
    5.9916   -1.1036   20.5215 C   0  0  0  0  0  0  0  0  0  0  0  0
    6.0462    0.0610   21.2865 C   0  0  0  0  0  0  0  0  0  0  0  0
    5.7165    1.2682   20.6885 C   0  0  0  0  0  0  0  0  0  0  0  0
    5.3395    1.3287   19.3609 C   0  0  0  0  0  0  0  0  0  0  0  0
    5.2799    0.1811   18.5863 C   0  0  0  0  0  0  0  0  0  0  0  0
    5.6101   -1.0291   19.1843 C   0  0  0  0  0  0  0  0  0  0  0  0
    5.6557   -2.3269   18.7148 N   0  0  0  0  0  0  0  0  0  0  0  0
    9.6139   -1.7994   21.4267 C   0  0  0  0  0  0  0  0  0  0  0  0
   10.5186   -0.7773   21.6524 C   0  0  0  0  0  0  0  0  0  0  0  0
   11.9584    2.7302   23.5072 C   0  0  0  0  0  0  0  0  0  0  0  0
   10.9287    3.3467   23.2464 O   0  0  0  0  0  0  0  0  0  0  0  0
   13.1742    3.2434   23.3211 N   0  0  0  0  0  0  0  0  0  0  0  0
   13.3606    4.5868   22.7890 C   0  0  0  0  0  0  0  0  0  0  0  0
   12.9856    5.6322   23.7485 C   0  0  0  0  0  0  0  0  0  0  0  0
   12.7295    6.4613   24.5568 C   0  0  0  0  0  0  0  0  0  0  0  0
   12.2972    7.7434   25.7455 Br  0  0  0  0  0  0  0  0  0  0  0  0
  1  2  1  0
  2  3  2  0
  2  4  1  0
  4  5  1  0
  5  6  1  0
  6  7  1  0
  7  8  2  0
  8  9  1  0
  9 10  2  0
 10 11  1  0
 11 12  1  0
 12 13  2  0
 13 14  1  0
 14 15  2  0
 15 16  1  0
 16 17  2  0
 17 18  1  0
 18 19  1  0
 19 20  1  0
 20 21  2  0
 21 22  1  0
 22 23  2  0
 23 24  1  0
 24 25  2  0
 25 26  1  0
 26 27  2  0
 27 28  1  0
 10 29  1  0
 29 30  2  0
  5 31  1  0
 31 32  2  0
 31 33  1  0
 33 34  1  0
 34 35  1  0
 35 36  3  0
 36 37  1  0
 30  7  1  0
 17 12  1  0
 28 20  1  0
 27 22  1  0
M  END
