CVD-0002607|dock_bobby27042020.48|mol2|5|dock3
     RDKit          3D

 31 34  0  0  0  0  0  0  0  0999 V2000
    5.5270    9.0835   24.4075 C   0  0  0  0  0  0  0  0  0  0  0  0
    6.2932    8.2342   23.4229 C   0  0  0  0  0  0  0  0  0  0  0  0
    5.7408    7.8898   22.1991 C   0  0  0  0  0  0  0  0  0  0  0  0
    6.4485    7.1134   21.2970 C   0  0  0  0  0  0  0  0  0  0  0  0
    7.7224    6.6723   21.6116 C   0  0  0  0  0  0  0  0  0  0  0  0
    8.2970    7.0030   22.8281 C   0  0  0  0  0  0  0  0  0  0  0  0
    9.6873    6.5312   23.1817 C   0  0  0  0  0  0  0  0  0  0  0  0
   10.0402    5.2362   22.5810 N   0  0  0  0  0  0  0  0  0  0  0  0
    9.2780    4.1617   23.2165 C   0  0  0  0  0  0  0  0  0  0  0  0
    9.5320    2.8352   22.5226 C   0  0  0  0  0  0  0  0  0  0  0  0
   10.9703    2.5311   22.5028 N   0  0  0  0  0  0  0  0  0  0  0  0
   11.8155    3.6328   22.0213 C   0  0  0  0  0  0  0  0  0  0  0  0
   11.4626    4.9270   22.7350 C   0  0  0  0  0  0  0  0  0  0  0  0
   11.4500    1.2925   22.6866 C   0  0  0  0  0  0  0  0  0  0  0  0
   10.6545    0.2654   22.8829 N   0  0  0  0  0  0  0  0  0  0  0  0
   11.4425   -0.8636   23.0375 C   0  0  0  0  0  0  0  0  0  0  0  0
   10.7350   -2.1630   23.2748 C   0  0  0  0  0  0  0  0  0  0  0  0
    9.4957   -2.3399   22.4231 C   0  0  0  0  0  0  0  0  0  0  0  0
    9.5692   -2.8000   21.2877 O   0  0  0  0  0  0  0  0  0  0  0  0
    8.3463   -1.9756   22.9863 N   0  0  0  0  0  0  0  0  0  0  0  0
    7.0825   -2.0935   22.3008 C   0  0  0  0  0  0  0  0  0  0  0  0
    7.0923   -1.4449   20.9825 N   0  0  0  0  0  0  0  0  0  0  0  0
    7.4165   -0.0186   21.1049 C   0  0  0  0  0  0  0  0  0  0  0  0
    7.4858    0.6611   19.7516 C   0  0  0  0  0  0  0  0  0  0  0  0
    6.2024    0.5000   18.9458 C   0  0  0  0  0  0  0  0  0  0  0  0
    6.2848    1.0211   17.6165 O   0  0  0  0  0  0  0  0  0  0  0  0
    5.8331   -0.9790   18.9198 C   0  0  0  0  0  0  0  0  0  0  0  0
    5.7984   -1.5910   20.3103 C   0  0  0  0  0  0  0  0  0  0  0  0
   12.7799   -0.6873   22.9596 C   0  0  0  0  0  0  0  0  0  0  0  0
   13.1531    0.9585   22.6784 S   0  0  0  0  0  0  0  0  0  0  0  0
    7.5711    7.7835   23.7186 C   0  0  0  0  0  0  0  0  0  0  0  0
  1  2  1  0
  2  3  2  0
  3  4  1  0
  4  5  2  0
  5  6  1  0
  6  7  1  0
  7  8  1  0
  8  9  1  0
  9 10  1  0
 10 11  1  0
 11 12  1  0
 12 13  1  0
 11 14  1  0
 14 15  2  0
 15 16  1  0
 16 17  1  0
 17 18  1  0
 18 19  2  0
 18 20  1  0
 20 21  1  0
 21 22  1  0
 22 23  1  0
 23 24  1  0
 24 25  1  0
 25 26  1  0
 25 27  1  0
 27 28  1  0
 16 29  2  0
 29 30  1  0
  6 31  2  0
 31  2  1  0
 13  8  1  0
 30 14  1  0
 28 22  1  0
M  END
