CVD-0003621|dock_bobby27042020.87|mol2|21|dock3
     RDKit          3D

 19 20  0  0  0  0  0  0  0  0999 V2000
   13.7576   -2.3706   23.4270 C   0  0  0  0  0  0  0  0  0  0  0  0
   12.7479   -1.3666   22.8766 C   0  0  0  0  0  0  0  0  0  0  0  0
   13.2452    0.0528   23.1309 C   0  0  0  0  0  0  0  0  0  0  0  0
   14.2845    0.2433   23.7553 O   0  0  0  0  0  0  0  0  0  0  0  0
   12.4413    1.0132   22.6092 N   0  0  0  0  0  0  0  0  0  0  0  0
   12.5592    2.4310   22.6315 C   0  0  0  0  0  0  0  0  0  0  0  0
   13.7713    3.1167   22.5486 C   0  0  0  0  0  0  0  0  0  0  0  0
   13.8814    4.4488   22.5682 N   0  0  0  0  0  0  0  0  0  0  0  0
   12.7626    5.1597   22.6738 C   0  0  0  0  0  0  0  0  0  0  0  0
   11.5136    4.5871   22.7627 C   0  0  0  0  0  0  0  0  0  0  0  0
   11.3856    3.2015   22.7441 C   0  0  0  0  0  0  0  0  0  0  0  0
   10.0042    2.6061   22.8396 C   0  0  0  0  0  0  0  0  0  0  0  0
   11.3772   -1.5136   23.5232 C   0  0  0  0  0  0  0  0  0  0  0  0
   10.3854   -2.2732   22.9190 C   0  0  0  0  0  0  0  0  0  0  0  0
    9.1400   -2.4087   23.5091 C   0  0  0  0  0  0  0  0  0  0  0  0
    8.8694   -1.7851   24.7153 C   0  0  0  0  0  0  0  0  0  0  0  0
    9.8590   -1.0335   25.3099 C   0  0  0  0  0  0  0  0  0  0  0  0
    9.5331   -0.2439   26.8275 Cl  0  0  0  0  0  0  0  0  0  0  0  0
   11.1040   -0.8910   24.7320 C   0  0  0  0  0  0  0  0  0  0  0  0
  1  2  1  0
  2  3  1  0
  3  4  2  0
  3  5  1  0
  5  6  1  0
  6  7  2  0
  7  8  1  0
  8  9  2  0
  9 10  1  0
 10 11  2  0
 11 12  1  0
  2 13  1  0
 13 14  2  0
 14 15  1  0
 15 16  2  0
 16 17  1  0
 17 18  1  0
 17 19  2  0
 11  6  1  0
 19 13  1  0
M  END
