CVD-0000637|dock_bobby27042020.83|mol2|42|dock2
     RDKit          3D

 15 16  0  0  0  0  0  0  0  0999 V2000
    9.6004    4.3989   23.4605 O   0  0  0  0  0  0  0  0  0  0  0  0
   10.8942    4.4819   23.0533 C   0  0  0  0  0  0  0  0  0  0  0  0
   11.5611    5.6751   23.3052 C   0  0  0  0  0  0  0  0  0  0  0  0
   12.8755    5.8414   22.9080 C   0  0  0  0  0  0  0  0  0  0  0  0
   13.5319    4.8187   22.2611 C   0  0  0  0  0  0  0  0  0  0  0  0
   12.8850    3.6206   22.0096 C   0  0  0  0  0  0  0  0  0  0  0  0
   11.5567    3.4237   22.3976 C   0  0  0  0  0  0  0  0  0  0  0  0
   10.8437    2.1138   22.1492 C   0  0  0  0  0  0  0  0  0  0  0  0
    9.9169    2.1312   21.3571 O   0  0  0  0  0  0  0  0  0  0  0  0
   11.1781    0.9501   22.7571 N   0  0  0  0  0  0  0  0  0  0  0  0
   10.5184   -0.3415   22.5561 C   0  0  0  0  0  0  0  0  0  0  0  0
   11.5195   -1.3847   22.1054 C   0  0  0  0  0  0  0  0  0  0  0  0
   12.6857   -1.4823   23.0883 C   0  0  0  0  0  0  0  0  0  0  0  0
   13.3079   -0.1141   23.3078 C   0  0  0  0  0  0  0  0  0  0  0  0
   12.2706    0.8993   23.7357 C   0  0  0  0  0  0  0  0  0  0  0  0
  1  2  1  0
  2  3  2  0
  3  4  1  0
  4  5  2  0
  5  6  1  0
  6  7  2  0
  7  8  1  0
  8  9  2  0
  8 10  1  0
 10 11  1  0
 11 12  1  0
 12 13  1  0
 13 14  1  0
 14 15  1  0
  7  2  1  0
 15 10  1  0
M  END
