CVD-0001919|dock_bobby27042020.51|mol2|3|dock3
     RDKit          3D

 26 28  0  0  0  0  0  0  0  0999 V2000
    6.0147   -3.7725   28.1821 C   0  0  0  0  0  0  0  0  0  0  0  0
    7.1619   -4.6009   28.3613 O   0  0  0  0  0  0  0  0  0  0  0  0
    7.7676   -5.1912   27.2801 C   0  0  0  0  0  0  0  0  0  0  0  0
    8.4351   -6.4030   27.3906 C   0  0  0  0  0  0  0  0  0  0  0  0
    9.0289   -6.9531   26.2670 C   0  0  0  0  0  0  0  0  0  0  0  0
    8.9580   -6.3037   25.0471 C   0  0  0  0  0  0  0  0  0  0  0  0
    8.2923   -5.0949   24.9290 C   0  0  0  0  0  0  0  0  0  0  0  0
    8.2164   -4.3826   23.6002 C   0  0  0  0  0  0  0  0  0  0  0  0
    9.3426   -3.4926   23.3592 N   0  0  0  0  0  0  0  0  0  0  0  0
    9.1286   -2.2071   23.0262 C   0  0  0  0  0  0  0  0  0  0  0  0
    7.9884   -1.7656   22.9514 O   0  0  0  0  0  0  0  0  0  0  0  0
   10.1790   -1.3753   22.7704 N   0  0  0  0  0  0  0  0  0  0  0  0
   11.5593   -1.5920   23.2000 C   0  0  0  0  0  0  0  0  0  0  0  0
   12.0747   -0.3769   23.9412 C   0  0  0  0  0  0  0  0  0  0  0  0
   11.9095    0.8204   23.1199 N   0  0  0  0  0  0  0  0  0  0  0  0
   10.5291    1.0370   22.6904 C   0  0  0  0  0  0  0  0  0  0  0  0
   10.0137   -0.1781   21.9492 C   0  0  0  0  0  0  0  0  0  0  0  0
   12.9655    1.6566   22.8627 C   0  0  0  0  0  0  0  0  0  0  0  0
   14.0962    1.2196   23.0084 O   0  0  0  0  0  0  0  0  0  0  0  0
   12.8174    2.9566   22.4508 N   0  0  0  0  0  0  0  0  0  0  0  0
   11.6129    3.7735   22.6103 C   0  0  0  0  0  0  0  0  0  0  0  0
   11.9298    5.0437   23.3717 C   0  0  0  0  0  0  0  0  0  0  0  0
   13.0624    5.8163   22.6967 C   0  0  0  0  0  0  0  0  0  0  0  0
   14.2727    4.9190   22.5036 C   0  0  0  0  0  0  0  0  0  0  0  0
   13.9069    3.6552   21.7586 C   0  0  0  0  0  0  0  0  0  0  0  0
    7.6983   -4.5431   26.0566 C   0  0  0  0  0  0  0  0  0  0  0  0
  1  2  1  0
  2  3  1  0
  3  4  2  0
  4  5  1  0
  5  6  2  0
  6  7  1  0
  7  8  1  0
  8  9  1  0
  9 10  1  0
 10 11  2  0
 10 12  1  0
 12 13  1  0
 13 14  1  0
 14 15  1  0
 15 16  1  0
 16 17  1  0
 15 18  1  0
 18 19  2  0
 18 20  1  0
 20 21  1  0
 21 22  1  0
 22 23  1  0
 23 24  1  0
 24 25  1  0
  7 26  2  0
 26  3  1  0
 17 12  1  0
 25 20  1  0
M  END
