CVD-0001981|dock_bobby27042020.36|mol2|20|dock1
     RDKit          3D

 19 21  0  0  0  0  0  0  0  0999 V2000
   14.2034   -2.6666   23.3491 C   0  0  0  0  0  0  0  0  0  0  0  0
   13.2505   -2.2930   22.2156 C   0  0  0  0  0  0  0  0  0  0  0  0
   13.9640   -2.3375   20.8769 C   0  0  0  0  0  0  0  0  0  0  0  0
   14.3328   -3.5400   20.5126 O   0  0  0  0  0  0  0  0  0  0  0  0
   14.1706   -1.3470   20.2108 O   0  0  0  0  0  0  0  0  0  0  0  0
   12.6257   -0.9131   22.3855 C   0  0  0  0  0  0  0  0  0  0  0  0
   11.2416   -0.7859   22.4243 C   0  0  0  0  0  0  0  0  0  0  0  0
   10.6252    0.4428   22.5840 C   0  0  0  0  0  0  0  0  0  0  0  0
   11.4122    1.5843   22.7102 C   0  0  0  0  0  0  0  0  0  0  0  0
   12.8127    1.4566   22.6705 C   0  0  0  0  0  0  0  0  0  0  0  0
   13.4245    0.2184   22.5083 C   0  0  0  0  0  0  0  0  0  0  0  0
   13.3803    2.7093   22.8142 N   0  0  0  0  0  0  0  0  0  0  0  0
   12.3729    3.6475   22.9463 C   0  0  0  0  0  0  0  0  0  0  0  0
   12.4541    5.0266   23.1136 C   0  0  0  0  0  0  0  0  0  0  0  0
   11.2881    5.7662   23.2241 C   0  0  0  0  0  0  0  0  0  0  0  0
   10.0828    5.1166   23.1652 C   0  0  0  0  0  0  0  0  0  0  0  0
    8.9436    5.8521   23.2746 F   0  0  0  0  0  0  0  0  0  0  0  0
    9.9632    3.7581   23.0010 C   0  0  0  0  0  0  0  0  0  0  0  0
   11.1246    2.9979   22.8881 C   0  0  0  0  0  0  0  0  0  0  0  0
  2  1  1  0
  2  3  1  0
  3  4  1  0
  3  5  2  0
  2  6  1  0
  6  7  2  0
  7  8  1  0
  8  9  2  0
  9 10  1  0
 10 11  2  0
 10 12  1  0
 12 13  1  0
 13 14  2  0
 14 15  1  0
 15 16  2  0
 16 17  1  0
 16 18  1  0
 18 19  2  0
 11  6  1  0
 19 13  1  0
 19  9  1  0
M  END
