CVD-0002882|dock_bobby27042020.89|mol2|40|dock1
     RDKit          3D

 26 28  0  0  0  0  0  0  0  0999 V2000
   14.1935    6.3227   22.0691 C   0  0  0  0  0  0  0  0  0  0  0  0
   13.2770    5.1816   22.3667 C   0  0  0  0  0  0  0  0  0  0  0  0
   13.4446    3.8604   22.5031 C   0  0  0  0  0  0  0  0  0  0  0  0
   12.1599    3.3502   22.7844 C   0  0  0  0  0  0  0  0  0  0  0  0
   11.7399    1.9827   23.0262 C   0  0  0  0  0  0  0  0  0  0  0  0
   12.4415    0.8555   22.9412 C   0  0  0  0  0  0  0  0  0  0  0  0
   11.9239   -0.5114   23.2060 C   0  0  0  0  0  0  0  0  0  0  0  0
   12.4917   -1.1824   24.0664 O   0  0  0  0  0  0  0  0  0  0  0  0
   10.8735   -1.0711   22.5484 N   0  0  0  0  0  0  0  0  0  0  0  0
   10.4472   -2.4242   22.8653 C   0  0  0  0  0  0  0  0  0  0  0  0
    8.9802   -2.4601   23.1582 C   0  0  0  0  0  0  0  0  0  0  0  0
    8.2498   -1.8884   22.0181 N   0  0  0  0  0  0  0  0  0  0  0  0
    8.6379   -0.4926   21.7658 C   0  0  0  0  0  0  0  0  0  0  0  0
   10.1074   -0.4396   21.4694 C   0  0  0  0  0  0  0  0  0  0  0  0
    6.6786   -2.2945   21.8611 S   0  0  0  0  0  0  0  0  0  0  0  0
    6.6493   -3.5285   21.1392 O   0  0  0  0  0  0  0  0  0  0  0  0
    6.1091   -2.2217   23.1707 O   0  0  0  0  0  0  0  0  0  0  0  0
    5.9147   -1.0613   20.8655 C   0  0  0  0  0  0  0  0  0  0  0  0
    5.7399   -1.2864   19.5097 C   0  0  0  0  0  0  0  0  0  0  0  0
    5.1346   -0.3173   18.7294 C   0  0  0  0  0  0  0  0  0  0  0  0
    4.7143    0.8564   19.3156 C   0  0  0  0  0  0  0  0  0  0  0  0
    3.9533    2.0748   18.3312 Cl  0  0  0  0  0  0  0  0  0  0  0  0
    4.8823    1.0877   20.6634 C   0  0  0  0  0  0  0  0  0  0  0  0
    5.4872    0.1212   21.4471 C   0  0  0  0  0  0  0  0  0  0  0  0
   11.2608    4.3104   22.8171 N   0  0  0  0  0  0  0  0  0  0  0  0
   11.9799    5.5006   22.5468 O   0  0  0  0  0  0  0  0  0  0  0  0
  1  2  1  0
  2  3  2  0
  3  4  1  0
  4  5  1  0
  5  6  2  0
  6  7  1  0
  7  8  2  0
  7  9  1  0
  9 10  1  0
 10 11  1  0
 11 12  1  0
 12 13  1  0
 13 14  1  0
 12 15  1  0
 15 16  2  0
 15 17  2  0
 15 18  1  0
 18 19  2  0
 19 20  1  0
 20 21  2  0
 21 22  1  0
 21 23  1  0
 23 24  2  0
  4 25  2  0
 25 26  1  0
 26  2  1  0
 14  9  1  0
 24 18  1  0
M  END
