CVD-0003622|dock_bobby27042020.73|mol2|15|dock2
     RDKit          3D

 20 21  0  0  0  0  0  0  0  0999 V2000
   12.2154    0.1534   25.1100 C   0  0  0  0  0  0  0  0  0  0  0  0
   12.5400   -0.7234   23.9203 C   0  0  0  0  0  0  0  0  0  0  0  0
   13.6029   -1.6372   24.0078 C   0  0  0  0  0  0  0  0  0  0  0  0
   14.4053   -1.7277   25.1238 N   0  0  0  0  0  0  0  0  0  0  0  0
   13.8489   -2.4765   22.9277 C   0  0  0  0  0  0  0  0  0  0  0  0
   13.1405   -2.4570   21.8010 N   0  0  0  0  0  0  0  0  0  0  0  0
   12.1587   -1.5583   21.7006 C   0  0  0  0  0  0  0  0  0  0  0  0
   11.8090   -0.6697   22.7170 C   0  0  0  0  0  0  0  0  0  0  0  0
   10.7585    0.2828   22.5932 N   0  0  0  0  0  0  0  0  0  0  0  0
    9.5508    0.1842   21.9842 C   0  0  0  0  0  0  0  0  0  0  0  0
    9.1170   -0.8003   21.3956 O   0  0  0  0  0  0  0  0  0  0  0  0
    8.7172    1.4450   22.0992 C   0  0  0  0  0  0  0  0  0  0  0  0
    7.3701    1.3077   21.4265 C   0  0  0  0  0  0  0  0  0  0  0  0
    6.1988    1.5205   22.1373 C   0  0  0  0  0  0  0  0  0  0  0  0
    4.9635    1.3923   21.5241 C   0  0  0  0  0  0  0  0  0  0  0  0
    4.8844    1.0470   20.1858 C   0  0  0  0  0  0  0  0  0  0  0  0
    6.0509    0.8293   19.4608 C   0  0  0  0  0  0  0  0  0  0  0  0
    7.2899    0.9600   20.0839 C   0  0  0  0  0  0  0  0  0  0  0  0
    5.9840    0.4686   18.0661 C   0  0  0  0  0  0  0  0  0  0  0  0
    5.9458    0.2118   16.9537 N   0  0  0  0  0  0  0  0  0  0  0  0
  1  2  1  0
  2  3  2  0
  3  4  1  0
  3  5  1  0
  5  6  2  0
  6  7  1  0
  7  8  2  0
  8  9  1  0
  9 10  1  0
 10 11  2  0
 10 12  1  0
 12 13  1  0
 13 14  2  0
 14 15  1  0
 15 16  2  0
 16 17  1  0
 17 18  2  0
 17 19  1  0
 19 20  3  0
  8  2  1  0
 18 13  1  0
M  END
