CVD-0003357|dock_bobby27042020.2|mol2|20|dock3
     RDKit          3D

 20 21  0  0  0  0  0  0  0  0999 V2000
   11.3974    7.4088   25.9431 C   0  0  0  0  0  0  0  0  0  0  0  0
   11.7973    5.9768   25.7710 C   0  0  0  0  0  0  0  0  0  0  0  0
   11.4469    5.4830   24.4494 N   0  0  0  0  0  0  0  0  0  0  0  0
   12.3380    5.3963   23.4024 C   0  0  0  0  0  0  0  0  0  0  0  0
   13.4038    6.2925   23.3047 C   0  0  0  0  0  0  0  0  0  0  0  0
   14.2888    6.2061   22.2428 C   0  0  0  0  0  0  0  0  0  0  0  0
   14.1297    5.2392   21.2762 C   0  0  0  0  0  0  0  0  0  0  0  0
   13.0807    4.3436   21.3679 C   0  0  0  0  0  0  0  0  0  0  0  0
   12.1755    4.4002   22.4237 C   0  0  0  0  0  0  0  0  0  0  0  0
   11.0575    3.3826   22.4738 C   0  0  0  0  0  0  0  0  0  0  0  0
   11.3659    2.2197   23.3188 N   0  0  0  0  0  0  0  0  0  0  0  0
   12.7304    1.7485   23.0640 C   0  0  0  0  0  0  0  0  0  0  0  0
   13.0579    0.5743   23.9676 C   0  0  0  0  0  0  0  0  0  0  0  0
   12.0998   -0.5137   23.7602 N   0  0  0  0  0  0  0  0  0  0  0  0
   10.7188   -0.0589   23.9493 C   0  0  0  0  0  0  0  0  0  0  0  0
   10.4286    1.1315   23.0534 C   0  0  0  0  0  0  0  0  0  0  0  0
   12.4772   -1.7734   23.4620 C   0  0  0  0  0  0  0  0  0  0  0  0
   11.6617   -2.6696   23.2849 O   0  0  0  0  0  0  0  0  0  0  0  0
   13.9683   -2.0234   23.3508 C   0  0  0  0  0  0  0  0  0  0  0  0
   14.7848   -1.7353   24.8928 Cl  0  0  0  0  0  0  0  0  0  0  0  0
  1  2  1  0
  2  3  1  0
  3  4  1  0
  4  5  2  0
  5  6  1  0
  6  7  2  0
  7  8  1  0
  8  9  2  0
  9 10  1  0
 10 11  1  0
 11 12  1  0
 12 13  1  0
 13 14  1  0
 14 15  1  0
 15 16  1  0
 14 17  1  0
 17 18  2  0
 17 19  1  0
 19 20  1  0
  9  4  1  0
 16 11  1  0
M  END
