CVD-0003227|dock_bobby27042020.74|mol2|30|dock3
     RDKit          3D

 38 43  0  0  0  0  0  0  0  0999 V2000
   11.8759    5.2735   22.6889 N   0  0  0  0  0  0  0  0  0  0  0  0
   12.0270    3.9269   22.9235 C   0  0  0  0  0  0  0  0  0  0  0  0
   11.0281    3.1896   23.5591 C   0  0  0  0  0  0  0  0  0  0  0  0
   11.1901    1.8366   23.7973 C   0  0  0  0  0  0  0  0  0  0  0  0
   12.3474    1.1593   23.4228 C   0  0  0  0  0  0  0  0  0  0  0  0
   13.3345    1.8980   22.7731 C   0  0  0  0  0  0  0  0  0  0  0  0
   13.1841    3.2526   22.5330 C   0  0  0  0  0  0  0  0  0  0  0  0
   12.4857   -0.3494   23.7362 C   0  0  0  0  0  0  0  0  0  0  0  0
   13.7262   -0.9270   23.0368 C   0  0  0  0  0  0  0  0  0  0  0  0
   13.9520   -2.3972   23.3334 C   0  0  0  0  0  0  0  0  0  0  0  0
   14.0785   -2.6533   24.8183 C   0  0  0  0  0  0  0  0  0  0  0  0
   12.8932   -2.0783   25.5667 C   0  0  0  0  0  0  0  0  0  0  0  0
   12.6924   -0.6169   25.2342 C   0  0  0  0  0  0  0  0  0  0  0  0
   11.2267   -1.1229   23.2905 C   0  0  0  0  0  0  0  0  0  0  0  0
   10.1639   -1.3551   24.1568 C   0  0  0  0  0  0  0  0  0  0  0  0
    9.0282   -2.0287   23.7433 C   0  0  0  0  0  0  0  0  0  0  0  0
    8.9126   -2.5171   22.4466 C   0  0  0  0  0  0  0  0  0  0  0  0
    9.9809   -2.3022   21.5829 C   0  0  0  0  0  0  0  0  0  0  0  0
   11.1091   -1.6167   21.9967 C   0  0  0  0  0  0  0  0  0  0  0  0
    7.7299   -3.2227   22.0168 N   0  0  0  0  0  0  0  0  0  0  0  0
    7.7794   -4.6848   21.9147 C   0  0  0  0  0  0  0  0  0  0  0  0
    6.5632   -5.3767   22.4793 C   0  0  0  0  0  0  0  0  0  0  0  0
    6.1588   -5.3241   23.8359 C   0  0  0  0  0  0  0  0  0  0  0  0
    5.0223   -6.0209   24.1153 C   0  0  0  0  0  0  0  0  0  0  0  0
    4.4367   -6.7524   22.6989 S   0  0  0  0  0  0  0  0  0  0  0  0
    5.6979   -6.1287   21.7442 C   0  0  0  0  0  0  0  0  0  0  0  0
    6.5553   -2.6095   21.6682 C   0  0  0  0  0  0  0  0  0  0  0  0
    5.5695   -3.2216   21.2762 O   0  0  0  0  0  0  0  0  0  0  0  0
    6.4588   -1.0860   21.7580 C   0  0  0  0  0  0  0  0  0  0  0  0
    6.4308   -0.4730   20.4440 N   0  0  0  0  0  0  0  0  0  0  0  0
    7.2594   -0.9141   19.4617 N   0  0  0  0  0  0  0  0  0  0  0  0
    7.0162   -0.2461   18.3701 N   0  0  0  0  0  0  0  0  0  0  0  0
    5.9844    0.6295   18.6249 C   0  0  0  0  0  0  0  0  0  0  0  0
    5.3311    1.5551   17.8125 C   0  0  0  0  0  0  0  0  0  0  0  0
    4.3020    2.3092   18.3551 C   0  0  0  0  0  0  0  0  0  0  0  0
    3.9227    2.1544   19.6741 C   0  0  0  0  0  0  0  0  0  0  0  0
    4.5617    1.2413   20.4981 C   0  0  0  0  0  0  0  0  0  0  0  0
    5.5953    0.4870   19.9560 C   0  0  0  0  0  0  0  0  0  0  0  0
  1  2  1  0
  2  3  2  0
  3  4  1  0
  4  5  2  0
  5  6  1  0
  6  7  2  0
  5  8  1  0
  8  9  1  0
  9 10  1  0
 10 11  1  0
 11 12  1  0
 12 13  1  0
  8 14  1  0
 14 15  2  0
 15 16  1  0
 16 17  2  0
 17 18  1  0
 18 19  2  0
 17 20  1  0
 20 21  1  0
 21 22  1  0
 22 23  1  0
 23 24  2  0
 24 25  1  0
 25 26  1  0
 20 27  1  0
 27 28  2  0
 27 29  1  0
 29 30  1  0
 30 31  1  0
 31 32  2  0
 32 33  1  0
 33 34  2  0
 34 35  1  0
 35 36  2  0
 36 37  1  0
 37 38  2  0
  7  2  1  0
 13  8  1  0
 19 14  1  0
 26 22  2  0
 38 30  1  0
 38 33  1  0
M  END
