CVD-0002859|dock_bobby27042020.18|mol2|25|dock2
     RDKit          3D

 20 21  0  0  0  0  0  0  0  0999 V2000
   12.8575    0.3630   23.0941 C   0  0  0  0  0  0  0  0  0  0  0  0
   12.7240   -1.0785   22.6162 C   0  0  0  0  0  0  0  0  0  0  0  0
   13.9642   -1.8719   23.0111 C   0  0  0  0  0  0  0  0  0  0  0  0
   11.4639   -1.7318   23.1983 C   0  0  0  0  0  0  0  0  0  0  0  0
   11.2470   -3.0091   22.6238 O   0  0  0  0  0  0  0  0  0  0  0  0
   10.2472   -0.8494   22.9524 C   0  0  0  0  0  0  0  0  0  0  0  0
    9.7149   -0.2596   23.8889 O   0  0  0  0  0  0  0  0  0  0  0  0
    9.8127   -0.7624   21.6954 N   0  0  0  0  0  0  0  0  0  0  0  0
    8.6609    0.0446   21.3182 C   0  0  0  0  0  0  0  0  0  0  0  0
    7.4830   -0.8081   20.8896 C   0  0  0  0  0  0  0  0  0  0  0  0
    6.1669   -0.0909   20.9708 C   0  0  0  0  0  0  0  0  0  0  0  0
    5.3001   -0.0580   22.0233 C   0  0  0  0  0  0  0  0  0  0  0  0
    4.2059    0.7038   21.7159 N   0  0  0  0  0  0  0  0  0  0  0  0
    4.3460    1.1866   20.4379 C   0  0  0  0  0  0  0  0  0  0  0  0
    3.5172    1.9985   19.6716 C   0  0  0  0  0  0  0  0  0  0  0  0
    3.9109    2.3384   18.3891 C   0  0  0  0  0  0  0  0  0  0  0  0
    5.1059    1.8624   17.9175 C   0  0  0  0  0  0  0  0  0  0  0  0
    5.4809    2.2042   16.6554 F   0  0  0  0  0  0  0  0  0  0  0  0
    5.9523    1.0582   18.6433 C   0  0  0  0  0  0  0  0  0  0  0  0
    5.5706    0.7062   19.9371 C   0  0  0  0  0  0  0  0  0  0  0  0
  1  2  1  0
  2  3  1  0
  2  4  1  0
  4  5  1  0
  4  6  1  0
  6  7  2  0
  6  8  1  0
  8  9  1  0
  9 10  1  0
 10 11  1  0
 11 12  2  0
 12 13  1  0
 13 14  1  0
 14 15  2  0
 15 16  1  0
 16 17  2  0
 17 18  1  0
 17 19  1  0
 19 20  2  0
 20 11  1  0
 20 14  1  0
M  END
