CVD-0004074|dock_bobby27042020.57|mol2|34|dock3
     RDKit          3D

 23 26  0  0  0  0  0  0  0  0999 V2000
    6.2677   -1.1302   20.2061 C   0  0  0  0  0  0  0  0  0  0  0  0
    7.6084   -0.8922   20.8261 C   0  0  0  0  0  0  0  0  0  0  0  0
    8.3543   -1.9760   21.3522 C   0  0  0  0  0  0  0  0  0  0  0  0
    9.5600   -1.7299   21.9085 C   0  0  0  0  0  0  0  0  0  0  0  0
   10.0331   -0.4010   21.9484 C   0  0  0  0  0  0  0  0  0  0  0  0
   11.1762    0.2696   22.4026 C   0  0  0  0  0  0  0  0  0  0  0  0
   10.9197    1.6457   22.1003 C   0  0  0  0  0  0  0  0  0  0  0  0
    9.7537    1.7855   21.4670 N   0  0  0  0  0  0  0  0  0  0  0  0
    9.2376    0.5517   21.4089 N   0  0  0  0  0  0  0  0  0  0  0  0
    8.0271    0.3452   20.8454 N   0  0  0  0  0  0  0  0  0  0  0  0
   11.6669    2.8952   22.3625 C   0  0  0  0  0  0  0  0  0  0  0  0
   10.9593    4.0761   22.5622 C   0  0  0  0  0  0  0  0  0  0  0  0
   11.6120    5.2746   22.7888 C   0  0  0  0  0  0  0  0  0  0  0  0
   12.9792    5.2743   22.8165 C   0  0  0  0  0  0  0  0  0  0  0  0
   13.6281    6.4518   23.0241 F   0  0  0  0  0  0  0  0  0  0  0  0
   13.7205    4.1378   22.6453 C   0  0  0  0  0  0  0  0  0  0  0  0
   13.0559    2.9428   22.4334 C   0  0  0  0  0  0  0  0  0  0  0  0
   12.3529   -0.4077   23.0339 C   0  0  0  0  0  0  0  0  0  0  0  0
   12.9062   -1.5727   22.5155 C   0  0  0  0  0  0  0  0  0  0  0  0
   13.9888   -2.1626   23.1438 C   0  0  0  0  0  0  0  0  0  0  0  0
   14.4834   -1.5773   24.2863 C   0  0  0  0  0  0  0  0  0  0  0  0
   13.9715   -0.4660   24.8158 N   0  0  0  0  0  0  0  0  0  0  0  0
   12.9378    0.1007   24.1859 C   0  0  0  0  0  0  0  0  0  0  0  0
  1  2  1  0
  2  3  1  0
  3  4  2  0
  4  5  1  0
  5  6  2  0
  6  7  1  0
  7  8  2  0
  8  9  1  0
  9 10  1  0
  7 11  1  0
 11 12  2  0
 12 13  1  0
 13 14  2  0
 14 15  1  0
 14 16  1  0
 16 17  2  0
  6 18  1  0
 18 19  2  0
 19 20  1  0
 20 21  2  0
 21 22  1  0
 22 23  2  0
 10  2  2  0
 17 11  1  0
 23 18  1  0
  9  5  1  0
M  END
