CVD-0002861|dock_bobby27042020.90|mol2|2|dock3
     RDKit          3D

 26 28  0  0  0  0  0  0  0  0999 V2000
    1.6294    2.8095   19.5115 C   0  0  0  0  0  0  0  0  0  0  0  0
    3.0877    2.4987   19.6803 C   0  0  0  0  0  0  0  0  0  0  0  0
    3.6380    2.5415   20.7761 O   0  0  0  0  0  0  0  0  0  0  0  0
    3.7475    2.1567   18.5719 N   0  0  0  0  0  0  0  0  0  0  0  0
    5.1615    1.8103   18.5755 C   0  0  0  0  0  0  0  0  0  0  0  0
    5.3963    0.3980   19.0734 C   0  0  0  0  0  0  0  0  0  0  0  0
    6.8300    0.1318   19.4275 C   0  0  0  0  0  0  0  0  0  0  0  0
    7.7015   -0.6964   18.7842 C   0  0  0  0  0  0  0  0  0  0  0  0
    8.9219   -0.6773   19.4023 N   0  0  0  0  0  0  0  0  0  0  0  0
    8.8594    0.1786   20.4748 C   0  0  0  0  0  0  0  0  0  0  0  0
    9.8367    0.5378   21.4128 C   0  0  0  0  0  0  0  0  0  0  0  0
   11.1466   -0.0168   21.3354 N   0  0  0  0  0  0  0  0  0  0  0  0
   12.3463    0.3425   22.3817 S   0  0  0  0  0  0  0  0  0  0  0  0
   11.8285    0.1155   23.6964 O   0  0  0  0  0  0  0  0  0  0  0  0
   13.5047   -0.3737   21.9427 O   0  0  0  0  0  0  0  0  0  0  0  0
   12.6720    2.0644   22.2127 C   0  0  0  0  0  0  0  0  0  0  0  0
   12.2443    2.7334   21.0774 C   0  0  0  0  0  0  0  0  0  0  0  0
   12.5096    4.0868   20.9515 C   0  0  0  0  0  0  0  0  0  0  0  0
   13.1917    4.7595   21.9428 C   0  0  0  0  0  0  0  0  0  0  0  0
   13.6156    4.0855   23.0684 C   0  0  0  0  0  0  0  0  0  0  0  0
   13.3600    2.7321   23.2128 C   0  0  0  0  0  0  0  0  0  0  0  0
    9.4888    1.4440   22.4113 C   0  0  0  0  0  0  0  0  0  0  0  0
    8.2088    1.9456   22.4351 C   0  0  0  0  0  0  0  0  0  0  0  0
    7.8913    2.8294   23.4194 F   0  0  0  0  0  0  0  0  0  0  0  0
    7.2293    1.6135   21.5307 C   0  0  0  0  0  0  0  0  0  0  0  0
    7.5557    0.7082   20.5232 C   0  0  0  0  0  0  0  0  0  0  0  0
  1  2  1  0
  2  3  2  0
  2  4  1  0
  4  5  1  0
  5  6  1  0
  6  7  1  0
  7  8  2  0
  8  9  1  0
  9 10  1  0
 10 11  2  0
 11 12  1  0
 12 13  1  0
 13 14  2  0
 13 15  2  0
 13 16  1  0
 16 17  2  0
 17 18  1  0
 18 19  2  0
 19 20  1  0
 20 21  2  0
 11 22  1  0
 22 23  2  0
 23 24  1  0
 23 25  1  0
 25 26  2  0
 26  7  1  0
 26 10  1  0
 21 16  1  0
M  END
