CVD-0002018|dock_bobby27042020.93|mol2|17|dock2
     RDKit          3D

 34 38  0  0  0  0  0  0  0  0999 V2000
    7.5762   -0.8461   27.3474 C   0  0  0  0  0  0  0  0  0  0  0  0
    7.8475   -2.2941   27.0622 C   0  0  0  0  0  0  0  0  0  0  0  0
    7.1444   -3.1889   27.5211 O   0  0  0  0  0  0  0  0  0  0  0  0
    8.9076   -2.5530   26.2943 N   0  0  0  0  0  0  0  0  0  0  0  0
    9.3104   -3.9072   25.9429 C   0  0  0  0  0  0  0  0  0  0  0  0
   10.1402   -3.9391   24.6749 C   0  0  0  0  0  0  0  0  0  0  0  0
    9.4070   -3.4167   23.4654 C   0  0  0  0  0  0  0  0  0  0  0  0
    9.3979   -2.1726   22.8591 C   0  0  0  0  0  0  0  0  0  0  0  0
    8.5341   -2.1922   21.7898 N   0  0  0  0  0  0  0  0  0  0  0  0
    7.9834   -3.4523   21.6775 C   0  0  0  0  0  0  0  0  0  0  0  0
    7.0685   -3.9704   20.7672 C   0  0  0  0  0  0  0  0  0  0  0  0
    6.6832   -5.2947   20.8799 C   0  0  0  0  0  0  0  0  0  0  0  0
    7.2178   -6.0532   21.8876 C   0  0  0  0  0  0  0  0  0  0  0  0
    6.8339   -7.3544   21.9872 F   0  0  0  0  0  0  0  0  0  0  0  0
    8.1215   -5.5768   22.8070 C   0  0  0  0  0  0  0  0  0  0  0  0
    8.5158   -4.2434   22.7059 C   0  0  0  0  0  0  0  0  0  0  0  0
   10.0719   -1.0135   23.1489 N   0  0  0  0  0  0  0  0  0  0  0  0
   11.3407   -0.7246   22.4643 C   0  0  0  0  0  0  0  0  0  0  0  0
   12.1589    0.2892   23.2562 C   0  0  0  0  0  0  0  0  0  0  0  0
   11.3873    1.4785   23.5829 N   0  0  0  0  0  0  0  0  0  0  0  0
   10.0963    1.1711   24.2162 C   0  0  0  0  0  0  0  0  0  0  0  0
    9.2994    0.2405   23.3409 C   0  0  0  0  0  0  0  0  0  0  0  0
   11.7336    2.7778   23.4215 C   0  0  0  0  0  0  0  0  0  0  0  0
   10.9782    3.6870   23.7421 O   0  0  0  0  0  0  0  0  0  0  0  0
   13.0920    3.1178   22.8323 C   0  0  0  0  0  0  0  0  0  0  0  0
   13.3283    4.5902   22.6761 C   0  0  0  0  0  0  0  0  0  0  0  0
   13.6742    5.2532   21.5352 C   0  0  0  0  0  0  0  0  0  0  0  0
   13.8034    6.5949   21.7784 N   0  0  0  0  0  0  0  0  0  0  0  0
   13.5403    6.8248   23.0969 C   0  0  0  0  0  0  0  0  0  0  0  0
   13.5588    8.0057   23.7378 N   0  0  0  0  0  0  0  0  0  0  0  0
   13.2627    7.9755   25.0444 C   0  0  0  0  0  0  0  0  0  0  0  0
   12.9506    6.8240   25.7351 C   0  0  0  0  0  0  0  0  0  0  0  0
   12.9363    5.6144   25.0586 C   0  0  0  0  0  0  0  0  0  0  0  0
   13.2371    5.5917   23.6983 C   0  0  0  0  0  0  0  0  0  0  0  0
  1  2  1  0
  2  3  2  0
  2  4  1  0
  4  5  1  0
  5  6  1  0
  6  7  1  0
  7  8  2  0
  8  9  1  0
  9 10  1  0
 10 11  2  0
 11 12  1  0
 12 13  2  0
 13 14  1  0
 13 15  1  0
 15 16  2  0
  8 17  1  0
 17 18  1  0
 18 19  1  0
 19 20  1  0
 20 21  1  0
 21 22  1  0
 20 23  1  0
 23 24  2  0
 23 25  1  0
 25 26  1  0
 26 27  2  0
 27 28  1  0
 28 29  1  0
 29 30  2  0
 30 31  1  0
 31 32  2  0
 32 33  1  0
 33 34  2  0
 16  7  1  0
 22 17  1  0
 34 26  1  0
 16 10  1  0
 34 29  1  0
M  END
