CVD-0003743|dock_bobby27042020.44|mol2|23|dock2
     RDKit          3D

 26 29  0  0  0  0  0  0  0  0999 V2000
   13.7889   -1.7807   20.7889 O   0  0  0  0  0  0  0  0  0  0  0  0
   13.4935   -1.4752   22.1408 C   0  0  0  0  0  0  0  0  0  0  0  0
   12.8871   -0.1010   22.2934 C   0  0  0  0  0  0  0  0  0  0  0  0
   13.7317    0.9840   22.5067 C   0  0  0  0  0  0  0  0  0  0  0  0
   13.1906    2.2417   22.6743 C   0  0  0  0  0  0  0  0  0  0  0  0
   11.8822    2.4889   22.6461 N   0  0  0  0  0  0  0  0  0  0  0  0
   11.0735    1.4482   22.4279 C   0  0  0  0  0  0  0  0  0  0  0  0
   11.5012    0.1340   22.2401 C   0  0  0  0  0  0  0  0  0  0  0  0
   10.4449   -0.8919   22.0026 C   0  0  0  0  0  0  0  0  0  0  0  0
   10.0246   -1.7482   23.0157 C   0  0  0  0  0  0  0  0  0  0  0  0
    9.0369   -2.6988   22.7845 C   0  0  0  0  0  0  0  0  0  0  0  0
    8.4960   -2.7462   21.5043 C   0  0  0  0  0  0  0  0  0  0  0  0
    8.9590   -1.8666   20.5471 C   0  0  0  0  0  0  0  0  0  0  0  0
    9.9107   -0.9524   20.7703 N   0  0  0  0  0  0  0  0  0  0  0  0
    8.5864   -3.6406   23.9204 C   0  0  0  0  0  0  0  0  0  0  0  0
    9.7895   -4.4188   24.4758 C   0  0  0  0  0  0  0  0  0  0  0  0
    9.4299   -5.3366   25.6285 C   0  0  0  0  0  0  0  0  0  0  0  0
    8.7865   -4.5767   26.7665 C   0  0  0  0  0  0  0  0  0  0  0  0
    7.6068   -3.7644   26.2722 C   0  0  0  0  0  0  0  0  0  0  0  0
    8.0013   -2.8738   25.1156 C   0  0  0  0  0  0  0  0  0  0  0  0
    7.5098   -4.6277   23.4237 C   0  0  0  0  0  0  0  0  0  0  0  0
    6.1869   -4.2181   23.2916 C   0  0  0  0  0  0  0  0  0  0  0  0
    5.2081   -5.0860   22.8373 C   0  0  0  0  0  0  0  0  0  0  0  0
    5.5323   -6.3836   22.5081 C   0  0  0  0  0  0  0  0  0  0  0  0
    6.8353   -6.8124   22.6368 C   0  0  0  0  0  0  0  0  0  0  0  0
    7.8145   -5.9452   23.0921 C   0  0  0  0  0  0  0  0  0  0  0  0
  1  2  1  0
  2  3  1  0
  3  4  2  0
  4  5  1  0
  5  6  2  0
  6  7  1  0
  7  8  2  0
  8  9  1  0
  9 10  2  0
 10 11  1  0
 11 12  2  0
 12 13  1  0
 13 14  2  0
 11 15  1  0
 15 16  1  0
 16 17  1  0
 17 18  1  0
 18 19  1  0
 19 20  1  0
 15 21  1  0
 21 22  2  0
 22 23  1  0
 23 24  2  0
 24 25  1  0
 25 26  2  0
  8  3  1  0
 14  9  1  0
 20 15  1  0
 26 21  1  0
M  END
