CVD-0003488|dock_bobby27042020.30|mol2|42|dock1
     RDKit          3D

 22 24  0  0  0  0  0  0  0  0999 V2000
   12.8424    5.0889   22.1532 Cl  0  0  0  0  0  0  0  0  0  0  0  0
   13.2971    3.4019   22.4267 C   0  0  0  0  0  0  0  0  0  0  0  0
   12.0686    2.5221   22.5590 C   0  0  0  0  0  0  0  0  0  0  0  0
   10.9557    2.9921   22.3576 O   0  0  0  0  0  0  0  0  0  0  0  0
   12.2413    1.2210   22.8938 N   0  0  0  0  0  0  0  0  0  0  0  0
   13.5406    0.5785   23.1349 C   0  0  0  0  0  0  0  0  0  0  0  0
   13.5956   -0.7644   22.4355 C   0  0  0  0  0  0  0  0  0  0  0  0
   12.4409   -1.6499   22.8861 C   0  0  0  0  0  0  0  0  0  0  0  0
   11.1237   -0.9317   22.6553 C   0  0  0  0  0  0  0  0  0  0  0  0
   11.0907    0.4277   23.3365 C   0  0  0  0  0  0  0  0  0  0  0  0
    9.9808   -1.7380   23.1166 N   0  0  0  0  0  0  0  0  0  0  0  0
    9.2416   -2.6351   22.4417 C   0  0  0  0  0  0  0  0  0  0  0  0
    8.2944   -3.0638   23.3324 C   0  0  0  0  0  0  0  0  0  0  0  0
    8.4947   -2.4011   24.5080 N   0  0  0  0  0  0  0  0  0  0  0  0
    9.5157   -1.5844   24.3716 N   0  0  0  0  0  0  0  0  0  0  0  0
    7.2149   -4.0484   23.1598 C   0  0  0  0  0  0  0  0  0  0  0  0
    6.4133   -4.4178   24.2341 C   0  0  0  0  0  0  0  0  0  0  0  0
    5.3971   -5.3433   24.0763 C   0  0  0  0  0  0  0  0  0  0  0  0
    5.1835   -5.9013   22.8351 C   0  0  0  0  0  0  0  0  0  0  0  0
    3.9058   -7.0669   22.6309 Cl  0  0  0  0  0  0  0  0  0  0  0  0
    5.9616   -5.5550   21.7525 C   0  0  0  0  0  0  0  0  0  0  0  0
    6.9756   -4.6287   21.9192 C   0  0  0  0  0  0  0  0  0  0  0  0
  1  2  1  0
  2  3  1  0
  3  4  2  0
  3  5  1  0
  5  6  1  0
  6  7  1  0
  7  8  1  0
  8  9  1  0
  9 10  1  0
  9 11  1  0
 11 12  1  0
 12 13  2  0
 13 14  1  0
 14 15  2  0
 13 16  1  0
 16 17  2  0
 17 18  1  0
 18 19  2  0
 19 20  1  0
 19 21  1  0
 21 22  2  0
 10  5  1  0
 15 11  1  0
 22 16  1  0
M  END
