CVD-0001528|dock_bobby27042020.9|mol2|25|dock1
     RDKit          3D

 18 20  0  0  0  0  0  0  0  0999 V2000
   13.8500   -0.9283   23.6647 C   0  0  0  0  0  0  0  0  0  0  0  0
   12.6088   -0.2804   23.1010 C   0  0  0  0  0  0  0  0  0  0  0  0
   12.4342    1.0929   23.1352 C   0  0  0  0  0  0  0  0  0  0  0  0
   11.2817    1.6353   22.6038 C   0  0  0  0  0  0  0  0  0  0  0  0
   10.3061    0.9063   22.0473 N   0  0  0  0  0  0  0  0  0  0  0  0
   10.4723   -0.4232   22.0081 C   0  0  0  0  0  0  0  0  0  0  0  0
    9.3532   -1.2195   21.3788 C   0  0  0  0  0  0  0  0  0  0  0  0
    8.1617   -0.4227   21.0467 N   0  0  0  0  0  0  0  0  0  0  0  0
    7.3504   -0.1534   22.2240 C   0  0  0  0  0  0  0  0  0  0  0  0
    6.1745    0.8165   21.8729 C   0  0  0  0  0  0  0  0  0  0  0  0
    5.3445    0.3047   20.6816 C   0  0  0  0  0  0  0  0  0  0  0  0
    6.2750   -0.0795   19.5303 C   0  0  0  0  0  0  0  0  0  0  0  0
    6.8394    1.1915   18.8676 C   0  0  0  0  0  0  0  0  0  0  0  0
    5.7928    1.5261   17.7968 C   0  0  0  0  0  0  0  0  0  0  0  0
    4.8451    0.4722   17.7736 O   0  0  0  0  0  0  0  0  0  0  0  0
    5.4887   -0.6699   18.3497 C   0  0  0  0  0  0  0  0  0  0  0  0
    7.3739   -1.0329   19.9779 C   0  0  0  0  0  0  0  0  0  0  0  0
   11.6017   -1.0377   22.5238 C   0  0  0  0  0  0  0  0  0  0  0  0
  1  2  1  0
  2  3  2  0
  3  4  1  0
  4  5  2  0
  5  6  1  0
  6  7  1  0
  7  8  1  0
  8  9  1  0
  9 10  1  0
 10 11  1  0
 11 12  1  0
 12 13  1  0
 13 14  1  0
 14 15  1  0
 15 16  1  0
 12 17  1  0
  6 18  2  0
 18  2  1  0
 17  8  1  0
 16 12  1  0
M  END
