CVD-0001869|dock_bobby27042020.65|mol2|37|dock2
     RDKit          3D

 16 17  0  0  0  0  0  0  0  0999 V2000
   14.2971   -1.5915   21.1178 Cl  0  0  0  0  0  0  0  0  0  0  0  0
   14.0025   -2.2903   22.7154 C   0  0  0  0  0  0  0  0  0  0  0  0
   12.6357   -1.8888   23.2340 C   0  0  0  0  0  0  0  0  0  0  0  0
   11.7305   -2.7048   23.3539 O   0  0  0  0  0  0  0  0  0  0  0  0
   12.4733   -0.5903   23.5592 N   0  0  0  0  0  0  0  0  0  0  0  0
   13.5388    0.4039   23.4145 C   0  0  0  0  0  0  0  0  0  0  0  0
   13.0582    1.5788   22.5831 C   0  0  0  0  0  0  0  0  0  0  0  0
   11.8773    2.1886   23.2013 N   0  0  0  0  0  0  0  0  0  0  0  0
   11.4329    3.3476   22.4238 C   0  0  0  0  0  0  0  0  0  0  0  0
   12.3815    4.5194   22.4616 C   0  0  0  0  0  0  0  0  0  0  0  0
   12.4149    5.5014   23.4820 C   0  0  0  0  0  0  0  0  0  0  0  0
   13.3523    6.4731   23.3022 C   0  0  0  0  0  0  0  0  0  0  0  0
   14.2075    6.1840   21.8637 S   0  0  0  0  0  0  0  0  0  0  0  0
   13.3167    4.7805   21.5065 C   0  0  0  0  0  0  0  0  0  0  0  0
   10.8140    1.1905   23.2846 C   0  0  0  0  0  0  0  0  0  0  0  0
   11.2555    0.0029   24.1206 C   0  0  0  0  0  0  0  0  0  0  0  0
  1  2  1  0
  2  3  1  0
  3  4  2  0
  3  5  1  0
  5  6  1  0
  6  7  1  0
  7  8  1  0
  8  9  1  0
  9 10  1  0
 10 11  1  0
 11 12  2  0
 12 13  1  0
 13 14  1  0
  8 15  1  0
 15 16  1  0
 16  5  1  0
 14 10  2  0
M  END
