CVD-0002318|dock_bobby27042020.92|mol2|4|dock1
     RDKit          3D

 25 27  0  0  0  0  0  0  0  0999 V2000
   14.4001   -2.6835   25.5975 C   0  0  0  0  0  0  0  0  0  0  0  0
   14.0344   -2.4299   24.1638 C   0  0  0  0  0  0  0  0  0  0  0  0
   14.6245   -3.0124   23.2609 O   0  0  0  0  0  0  0  0  0  0  0  0
   13.0535   -1.5387   23.8634 N   0  0  0  0  0  0  0  0  0  0  0  0
   12.2562   -0.7708   24.8248 C   0  0  0  0  0  0  0  0  0  0  0  0
   10.7935   -0.8268   24.4679 C   0  0  0  0  0  0  0  0  0  0  0  0
   10.5702   -0.3404   23.0965 N   0  0  0  0  0  0  0  0  0  0  0  0
   11.3277   -1.2021   22.1877 C   0  0  0  0  0  0  0  0  0  0  0  0
   12.8073   -1.1325   22.4811 C   0  0  0  0  0  0  0  0  0  0  0  0
    9.1473   -0.3469   22.7582 C   0  0  0  0  0  0  0  0  0  0  0  0
    8.7975    0.2800   21.3831 C   0  0  0  0  0  0  0  0  0  0  0  0
    9.6871    0.8816   20.7893 O   0  0  0  0  0  0  0  0  0  0  0  0
    7.5283    0.1086   20.9331 N   0  0  0  0  0  0  0  0  0  0  0  0
    6.9070    0.5458   19.7290 C   0  0  0  0  0  0  0  0  0  0  0  0
    7.5281    0.5448   18.4795 C   0  0  0  0  0  0  0  0  0  0  0  0
    6.9414    0.9527   17.3498 N   0  0  0  0  0  0  0  0  0  0  0  0
    5.6884    1.3907   17.4274 C   0  0  0  0  0  0  0  0  0  0  0  0
    4.9809    1.4373   18.6074 C   0  0  0  0  0  0  0  0  0  0  0  0
    5.5792    1.0125   19.7899 C   0  0  0  0  0  0  0  0  0  0  0  0
    4.7723    1.0699   21.0616 C   0  0  0  0  0  0  0  0  0  0  0  0
    8.5935   -1.7503   22.8219 C   0  0  0  0  0  0  0  0  0  0  0  0
    8.0149   -2.3748   23.9205 C   0  0  0  0  0  0  0  0  0  0  0  0
    7.6122   -3.6938   23.5997 C   0  0  0  0  0  0  0  0  0  0  0  0
    7.8744   -4.0412   22.3282 C   0  0  0  0  0  0  0  0  0  0  0  0
    8.6246   -2.7779   21.4598 S   0  0  0  0  0  0  0  0  0  0  0  0
  1  2  1  0
  2  3  2  0
  2  4  1  0
  4  5  1  0
  5  6  1  0
  6  7  1  0
  7  8  1  0
  8  9  1  0
  7 10  1  0
 10 11  1  0
 11 12  2  0
 11 13  1  0
 13 14  1  0
 14 15  2  0
 15 16  1  0
 16 17  2  0
 17 18  1  0
 18 19  2  0
 19 20  1  0
 10 21  1  0
 21 22  2  0
 22 23  1  0
 23 24  2  0
 24 25  1  0
  9  4  1  0
 19 14  1  0
 25 21  1  0
M  END
