CVD-0001983|dock_bobby27042020.7|mol2|43|dock2
     RDKit          3D

 19 21  0  0  0  0  0  0  0  0999 V2000
   13.1018   -2.1345   21.4698 C   0  0  0  0  0  0  0  0  0  0  0  0
   13.7251   -1.1059   22.4099 C   0  0  0  0  0  0  0  0  0  0  0  0
   13.9350   -1.7198   23.7809 C   0  0  0  0  0  0  0  0  0  0  0  0
   14.0967   -0.8296   24.7268 O   0  0  0  0  0  0  0  0  0  0  0  0
   13.9523   -2.9156   23.9741 O   0  0  0  0  0  0  0  0  0  0  0  0
   12.8562    0.1323   22.5349 C   0  0  0  0  0  0  0  0  0  0  0  0
   13.4320    1.3854   22.7188 C   0  0  0  0  0  0  0  0  0  0  0  0
   12.5819    2.4795   22.8225 C   0  0  0  0  0  0  0  0  0  0  0  0
   12.8705    3.8185   23.0059 N   0  0  0  0  0  0  0  0  0  0  0  0
   11.6842    4.5271   23.0465 C   0  0  0  0  0  0  0  0  0  0  0  0
   11.4655    5.8904   23.2116 C   0  0  0  0  0  0  0  0  0  0  0  0
   10.1660    6.3681   23.2179 C   0  0  0  0  0  0  0  0  0  0  0  0
    9.1120    5.4915   23.0613 C   0  0  0  0  0  0  0  0  0  0  0  0
    7.4862    6.1153   23.0725 Cl  0  0  0  0  0  0  0  0  0  0  0  0
    9.3041    4.1339   22.8958 C   0  0  0  0  0  0  0  0  0  0  0  0
   10.6053    3.6357   22.8869 C   0  0  0  0  0  0  0  0  0  0  0  0
   11.1873    2.3107   22.7418 C   0  0  0  0  0  0  0  0  0  0  0  0
   10.7281    1.0112   22.5560 C   0  0  0  0  0  0  0  0  0  0  0  0
   11.5309   -0.0552   22.4536 N   0  0  0  0  0  0  0  0  0  0  0  0
  2  1  1  0
  2  3  1  0
  3  4  1  0
  3  5  2  0
  2  6  1  0
  6  7  2  0
  7  8  1  0
  8  9  1  0
  9 10  1  0
 10 11  2  0
 11 12  1  0
 12 13  2  0
 13 14  1  0
 13 15  1  0
 15 16  2  0
 16 17  1  0
 17 18  1  0
 18 19  2  0
 19  6  1  0
 17  8  2  0
 16 10  1  0
M  END
