CVD-0002611|dock_bobby27042020.90|mol2|40|dock3
     RDKit          3D

 22 24  0  0  0  0  0  0  0  0999 V2000
   14.1998    6.3720   22.2409 Cl  0  0  0  0  0  0  0  0  0  0  0  0
   13.9599    4.7298   22.8518 C   0  0  0  0  0  0  0  0  0  0  0  0
   12.5867    4.2030   22.4831 C   0  0  0  0  0  0  0  0  0  0  0  0
   11.8046    4.8680   21.8156 O   0  0  0  0  0  0  0  0  0  0  0  0
   12.2754    2.9664   22.9220 N   0  0  0  0  0  0  0  0  0  0  0  0
   10.9937    2.3200   22.6318 C   0  0  0  0  0  0  0  0  0  0  0  0
   11.2176    0.9600   21.9970 C   0  0  0  0  0  0  0  0  0  0  0  0
   12.0229    0.1134   22.8820 N   0  0  0  0  0  0  0  0  0  0  0  0
   12.2086   -1.2143   22.2914 C   0  0  0  0  0  0  0  0  0  0  0  0
   11.0451   -2.1325   22.5221 C   0  0  0  0  0  0  0  0  0  0  0  0
    9.9192   -2.0080   21.8734 N   0  0  0  0  0  0  0  0  0  0  0  0
    9.0290   -2.9728   22.2710 C   0  0  0  0  0  0  0  0  0  0  0  0
    9.4523   -3.8426   23.2184 C   0  0  0  0  0  0  0  0  0  0  0  0
    8.7327   -4.9955   23.8590 C   0  0  0  0  0  0  0  0  0  0  0  0
    8.9654   -5.0799   25.3425 C   0  0  0  0  0  0  0  0  0  0  0  0
    7.9841   -4.8162   26.3291 C   0  0  0  0  0  0  0  0  0  0  0  0
    8.4257   -4.9486   27.6109 C   0  0  0  0  0  0  0  0  0  0  0  0
   10.0630   -5.4008   27.6093 S   0  0  0  0  0  0  0  0  0  0  0  0
   10.1575   -5.4097   25.9115 C   0  0  0  0  0  0  0  0  0  0  0  0
   11.0748   -3.4481   23.6595 S   0  0  0  0  0  0  0  0  0  0  0  0
   13.3142    0.7563   23.1115 C   0  0  0  0  0  0  0  0  0  0  0  0
   13.1300    2.1173   23.7578 C   0  0  0  0  0  0  0  0  0  0  0  0
  1  2  1  0
  2  3  1  0
  3  4  2  0
  3  5  1  0
  5  6  1  0
  6  7  1  0
  7  8  1  0
  8  9  1  0
  9 10  1  0
 10 11  2  0
 11 12  1  0
 12 13  2  0
 13 14  1  0
 14 15  1  0
 15 16  1  0
 16 17  2  0
 17 18  1  0
 18 19  1  0
 13 20  1  0
  8 21  1  0
 21 22  1  0
 22  5  1  0
 20 10  1  0
 19 15  2  0
M  END
