CVD-0002686|dock_bobby27042020.90|mol2|28|dock1
     RDKit          3D

 29 31  0  0  0  0  0  0  0  0999 V2000
    9.9778   -5.7647   27.4033 C   0  0  0  0  0  0  0  0  0  0  0  0
    9.7223   -4.6352   26.5178 N   0  0  0  0  0  0  0  0  0  0  0  0
    8.8486   -3.6335   26.6961 C   0  0  0  0  0  0  0  0  0  0  0  0
    8.9636   -2.7829   25.6359 C   0  0  0  0  0  0  0  0  0  0  0  0
    9.9976   -3.3725   24.8169 C   0  0  0  0  0  0  0  0  0  0  0  0
   10.4575   -4.5087   25.3787 N   0  0  0  0  0  0  0  0  0  0  0  0
   10.5502   -2.8820   23.5297 C   0  0  0  0  0  0  0  0  0  0  0  0
   11.7214   -3.0955   23.2201 O   0  0  0  0  0  0  0  0  0  0  0  0
    9.7038   -2.2045   22.7440 N   0  0  0  0  0  0  0  0  0  0  0  0
   10.1165   -1.6693   21.4570 C   0  0  0  0  0  0  0  0  0  0  0  0
    9.1608   -0.5622   20.9869 C   0  0  0  0  0  0  0  0  0  0  0  0
    8.0213   -1.0772   20.1415 C   0  0  0  0  0  0  0  0  0  0  0  0
    7.5203   -2.3560   20.3304 C   0  0  0  0  0  0  0  0  0  0  0  0
    6.4770   -2.8300   19.5527 C   0  0  0  0  0  0  0  0  0  0  0  0
    5.9229   -2.0306   18.5761 C   0  0  0  0  0  0  0  0  0  0  0  0
    6.4125   -0.7577   18.3770 C   0  0  0  0  0  0  0  0  0  0  0  0
    7.4559   -0.2842   19.1550 C   0  0  0  0  0  0  0  0  0  0  0  0
   11.5251   -1.0964   21.5749 C   0  0  0  0  0  0  0  0  0  0  0  0
   12.4365   -1.4711   20.8575 O   0  0  0  0  0  0  0  0  0  0  0  0
   11.7584   -0.0047   22.6373 C   0  0  0  0  0  0  0  0  0  0  0  0
   10.8971    0.2658   23.4729 O   0  0  0  0  0  0  0  0  0  0  0  0
   12.9440    0.5984   22.5665 N   0  0  0  0  0  0  0  0  0  0  0  0
   13.3325    1.6531   23.4913 C   0  0  0  0  0  0  0  0  0  0  0  0
   13.4246    3.0065   22.8329 C   0  0  0  0  0  0  0  0  0  0  0  0
   12.7289    3.2939   21.6706 C   0  0  0  0  0  0  0  0  0  0  0  0
   12.8545    4.5571   21.1191 C   0  0  0  0  0  0  0  0  0  0  0  0
   13.6605    5.4902   21.7342 C   0  0  0  0  0  0  0  0  0  0  0  0
   14.3146    5.1199   22.8871 C   0  0  0  0  0  0  0  0  0  0  0  0
   14.2106    3.9050   23.4420 N   0  0  0  0  0  0  0  0  0  0  0  0
  1  2  1  0
  2  3  1  0
  3  4  2  0
  4  5  1  0
  5  6  2  0
  5  7  1  0
  7  8  2  0
  7  9  1  0
  9 10  1  0
 10 11  1  0
 11 12  1  0
 12 13  2  0
 13 14  1  0
 14 15  2  0
 15 16  1  0
 16 17  2  0
 10 18  1  0
 18 19  2  0
 18 20  1  0
 20 21  2  0
 20 22  1  0
 22 23  1  0
 23 24  1  0
 24 25  2  0
 25 26  1  0
 26 27  2  0
 27 28  1  0
 28 29  2  0
  6  2  1  0
 17 12  1  0
 29 24  1  0
M  END
