CVD-0001929|dock_bobby27042020.79|mol2|24|dock2
     RDKit          3D

 22 24  0  0  0  0  0  0  0  0999 V2000
   13.7563   -2.1244   21.4066 C   0  0  0  0  0  0  0  0  0  0  0  0
   12.6895   -1.2962   22.1046 C   0  0  0  0  0  0  0  0  0  0  0  0
   11.5241   -2.2165   22.5961 C   0  0  0  0  0  0  0  0  0  0  0  0
   10.4755   -1.4277   23.4003 C   0  0  0  0  0  0  0  0  0  0  0  0
   11.1632   -0.5970   24.4823 C   0  0  0  0  0  0  0  0  0  0  0  0
   12.2533    0.2755   23.8791 C   0  0  0  0  0  0  0  0  0  0  0  0
   13.2601   -0.5493   23.2149 N   0  0  0  0  0  0  0  0  0  0  0  0
   13.9279   -1.4251   24.1785 C   0  0  0  0  0  0  0  0  0  0  0  0
    9.6452   -0.5247   22.4890 C   0  0  0  0  0  0  0  0  0  0  0  0
    8.7596   -1.2591   21.4471 C   0  0  0  0  0  0  0  0  0  0  0  0
    7.9699   -0.2079   20.6886 C   0  0  0  0  0  0  0  0  0  0  0  0
    7.5039   -0.4379   19.3852 C   0  0  0  0  0  0  0  0  0  0  0  0
    7.7911   -1.5906   18.7068 O   0  0  0  0  0  0  0  0  0  0  0  0
    6.6567    0.4782   18.7642 C   0  0  0  0  0  0  0  0  0  0  0  0
    6.2295    0.2291   17.4990 O   0  0  0  0  0  0  0  0  0  0  0  0
    6.2608    1.6316   19.4243 C   0  0  0  0  0  0  0  0  0  0  0  0
    6.7155    1.8648   20.7076 C   0  0  0  0  0  0  0  0  0  0  0  0
    7.5640    0.9624   21.3490 C   0  0  0  0  0  0  0  0  0  0  0  0
    8.1210    1.3106   22.7072 C   0  0  0  0  0  0  0  0  0  0  0  0
    9.1068    2.4710   22.6222 C   0  0  0  0  0  0  0  0  0  0  0  0
    8.4871    3.8051   22.4607 N   0  0  0  0  0  0  0  0  0  0  0  0
    8.7424    0.2025   23.3477 O   0  0  0  0  0  0  0  0  0  0  0  0
  1  2  1  0
  2  3  1  0
  3  4  1  0
  4  5  1  0
  5  6  1  0
  6  7  1  0
  7  8  1  0
  4  9  1  0
  9 10  1  0
 10 11  1  0
 11 12  2  0
 12 13  1  0
 12 14  1  0
 14 15  1  0
 14 16  2  0
 16 17  1  0
 17 18  2  0
 18 19  1  0
 19 20  1  0
 20 21  1  0
 19 22  1  0
  7  2  1  0
 22  9  1  0
 18 11  1  0
M  END
