CVD-0003222|dock_bobby27042020.46|mol2|3|dock1
     RDKit          3D

 26 28  0  0  0  0  0  0  0  0999 V2000
    4.4222    1.2547   19.4378 C   0  0  0  0  0  0  0  0  0  0  0  0
    5.5386    0.6358   20.2660 C   0  0  0  0  0  0  0  0  0  0  0  0
    6.5669   -0.2044   19.4714 C   0  0  0  0  0  0  0  0  0  0  0  0
    7.4255    0.7223   18.6085 C   0  0  0  0  0  0  0  0  0  0  0  0
    5.8286   -1.1964   18.5708 C   0  0  0  0  0  0  0  0  0  0  0  0
    7.4809   -0.9841   20.4356 C   0  0  0  0  0  0  0  0  0  0  0  0
    8.3413   -0.1024   21.3365 C   0  0  0  0  0  0  0  0  0  0  0  0
    9.1256   -0.9532   22.2417 N   0  0  0  0  0  0  0  0  0  0  0  0
   10.3950   -1.4520   21.7422 C   0  0  0  0  0  0  0  0  0  0  0  0
   11.5654   -1.0767   22.6154 C   0  0  0  0  0  0  0  0  0  0  0  0
   11.7771    0.2062   23.1777 C   0  0  0  0  0  0  0  0  0  0  0  0
   12.9088    0.3157   23.9279 C   0  0  0  0  0  0  0  0  0  0  0  0
   13.7286   -1.1714   23.9473 S   0  0  0  0  0  0  0  0  0  0  0  0
   12.5706   -1.9288   22.9593 C   0  0  0  0  0  0  0  0  0  0  0  0
    8.6772   -1.3146   23.4626 C   0  0  0  0  0  0  0  0  0  0  0  0
    7.5947   -0.9330   23.8894 O   0  0  0  0  0  0  0  0  0  0  0  0
    9.5625   -2.2195   24.3180 C   0  0  0  0  0  0  0  0  0  0  0  0
    8.8168   -2.8349   25.3988 N   0  0  0  0  0  0  0  0  0  0  0  0
    7.8378   -2.1439   26.0394 N   0  0  0  0  0  0  0  0  0  0  0  0
    7.3515   -2.8845   26.9944 N   0  0  0  0  0  0  0  0  0  0  0  0
    8.0441   -4.0746   27.0082 C   0  0  0  0  0  0  0  0  0  0  0  0
    7.9394   -5.1995   27.8252 C   0  0  0  0  0  0  0  0  0  0  0  0
    8.7942   -6.2678   27.6014 C   0  0  0  0  0  0  0  0  0  0  0  0
    9.7354   -6.2292   26.5912 C   0  0  0  0  0  0  0  0  0  0  0  0
    9.8530   -5.1210   25.7672 C   0  0  0  0  0  0  0  0  0  0  0  0
    8.9948   -4.0507   25.9889 C   0  0  0  0  0  0  0  0  0  0  0  0
  1  2  1  0
  2  3  1  0
  3  4  1  0
  3  5  1  0
  3  6  1  0
  6  7  1  0
  7  8  1  0
  8  9  1  0
  9 10  1  0
 10 11  1  0
 11 12  2  0
 12 13  1  0
 13 14  1  0
  8 15  1  0
 15 16  2  0
 15 17  1  0
 17 18  1  0
 18 19  1  0
 19 20  2  0
 20 21  1  0
 21 22  2  0
 22 23  1  0
 23 24  2  0
 24 25  1  0
 25 26  2  0
 14 10  2  0
 26 18  1  0
 26 21  1  0
M  END
