CVD-0003969|dock_bobby27042020.72|mol2|13|dock2
     RDKit          3D

 21 22  0  0  0  0  0  0  0  0999 V2000
    5.8616    3.3431   21.1758 O   0  0  0  0  0  0  0  0  0  0  0  0
    6.0115    2.0932   20.7618 C   0  0  0  0  0  0  0  0  0  0  0  0
    6.6828    1.2513   21.5420 C   0  0  0  0  0  0  0  0  0  0  0  0
    6.9733   -0.1648   21.0882 C   0  0  0  0  0  0  0  0  0  0  0  0
    6.3509   -0.4867   19.7601 C   0  0  0  0  0  0  0  0  0  0  0  0
    5.8489   -1.6116   19.2595 C   0  0  0  0  0  0  0  0  0  0  0  0
    5.1471   -1.3795   18.0124 O   0  0  0  0  0  0  0  0  0  0  0  0
    5.2666   -0.1313   17.7549 N   0  0  0  0  0  0  0  0  0  0  0  0
    6.0942    0.6059   18.7704 C   0  0  0  0  0  0  0  0  0  0  0  0
    5.3708    1.7679   19.4462 C   0  0  0  0  0  0  0  0  0  0  0  0
    8.7498   -0.4136   20.9187 S   0  0  0  0  0  0  0  0  0  0  0  0
    8.9734   -1.3485   19.8507 O   0  0  0  0  0  0  0  0  0  0  0  0
    9.3734    0.8773   20.8207 O   0  0  0  0  0  0  0  0  0  0  0  0
    9.2464   -1.1687   22.4510 C   0  0  0  0  0  0  0  0  0  0  0  0
   10.7275   -1.4713   22.5230 C   0  0  0  0  0  0  0  0  0  0  0  0
   11.1547   -2.5830   22.2365 O   0  0  0  0  0  0  0  0  0  0  0  0
   11.6906   -0.3515   22.9655 C   0  0  0  0  0  0  0  0  0  0  0  0
   11.2389    0.6667   23.4749 O   0  0  0  0  0  0  0  0  0  0  0  0
   13.1763   -0.5722   22.7450 C   0  0  0  0  0  0  0  0  0  0  0  0
   13.8732   -0.9092   24.0256 C   0  0  0  0  0  0  0  0  0  0  0  0
   14.5077   -2.0121   24.2870 C   0  0  0  0  0  0  0  0  0  0  0  0
  1  2  1  0
  2  3  2  0
  3  4  1  0
  4  5  1  0
  5  6  2  0
  6  7  1  0
  7  8  1  0
  8  9  1  0
  9 10  1  0
  4 11  1  0
 11 12  2  0
 11 13  2  0
 11 14  1  0
 14 15  1  0
 15 16  2  0
 15 17  1  0
 17 18  2  0
 17 19  1  0
 19 20  1  0
 20 21  2  0
 10  2  1  0
  9  5  1  0
M  END
