CVD-0002986|dock_bobby27042020.61|mol2|20|dock2
     RDKit          3D

 20 21  0  0  0  0  0  0  0  0999 V2000
   14.0678   -2.2544   20.6482 N   0  0  0  0  0  0  0  0  0  0  0  0
   13.9274   -2.0658   21.9506 C   0  0  0  0  0  0  0  0  0  0  0  0
   14.2473   -2.9140   22.7864 O   0  0  0  0  0  0  0  0  0  0  0  0
   13.3410   -0.7343   22.3720 C   0  0  0  0  0  0  0  0  0  0  0  0
   13.8834   -0.3575   23.7690 C   0  0  0  0  0  0  0  0  0  0  0  0
   12.8400   -0.8200   24.7902 C   0  0  0  0  0  0  0  0  0  0  0  0
   11.7418   -1.5322   24.0025 C   0  0  0  0  0  0  0  0  0  0  0  0
   11.8163   -0.9470   22.5848 C   0  0  0  0  0  0  0  0  0  0  0  0
   11.1206    0.4014   22.5224 C   0  0  0  0  0  0  0  0  0  0  0  0
   11.8619    1.5614   22.7462 C   0  0  0  0  0  0  0  0  0  0  0  0
   11.2765    2.8145   22.7034 C   0  0  0  0  0  0  0  0  0  0  0  0
    9.9312    2.9289   22.4349 C   0  0  0  0  0  0  0  0  0  0  0  0
    9.1781    1.7897   22.2112 C   0  0  0  0  0  0  0  0  0  0  0  0
    9.7514    0.5207   22.2514 C   0  0  0  0  0  0  0  0  0  0  0  0
    8.8926   -0.6941   21.9986 C   0  0  0  0  0  0  0  0  0  0  0  0
    8.6590   -0.9529   20.5854 N   0  0  0  0  0  0  0  0  0  0  0  0
    7.5086   -0.6537   19.9885 C   0  0  0  0  0  0  0  0  0  0  0  0
    6.5652   -0.1404   20.5822 O   0  0  0  0  0  0  0  0  0  0  0  0
    7.4210   -0.9738   18.5125 C   0  0  0  0  0  0  0  0  0  0  0  0
    5.7526   -1.1058   17.9410 Cl  0  0  0  0  0  0  0  0  0  0  0  0
  1  2  1  0
  2  3  2  0
  2  4  1  0
  4  5  1  0
  5  6  1  0
  6  7  1  0
  7  8  1  0
  8  9  1  0
  9 10  2  0
 10 11  1  0
 11 12  2  0
 12 13  1  0
 13 14  2  0
 14 15  1  0
 15 16  1  0
 16 17  1  0
 17 18  2  0
 17 19  1  0
 19 20  1  0
  8  4  1  0
 14  9  1  0
M  END
