CVD-0002398|dock_bobby27042020.77|mol2|27|dock3
     RDKit          3D

 26 29  0  0  0  0  0  0  0  0999 V2000
    6.6703   -6.6219   23.0100 F   0  0  0  0  0  0  0  0  0  0  0  0
    7.2294   -5.4139   22.7687 C   0  0  0  0  0  0  0  0  0  0  0  0
    6.6526   -4.5815   21.8470 C   0  0  0  0  0  0  0  0  0  0  0  0
    7.2274   -3.3380   21.5864 C   0  0  0  0  0  0  0  0  0  0  0  0
    8.4042   -2.9603   22.2500 C   0  0  0  0  0  0  0  0  0  0  0  0
    8.9534   -3.8131   23.2067 C   0  0  0  0  0  0  0  0  0  0  0  0
    8.3672   -5.0399   23.4539 C   0  0  0  0  0  0  0  0  0  0  0  0
    9.0734   -6.0995   24.6298 Cl  0  0  0  0  0  0  0  0  0  0  0  0
    8.9797   -1.7080   21.9185 N   0  0  0  0  0  0  0  0  0  0  0  0
   10.2246   -1.2870   22.5209 C   0  0  0  0  0  0  0  0  0  0  0  0
   11.4410   -1.7021   21.9914 C   0  0  0  0  0  0  0  0  0  0  0  0
   12.6302   -1.2974   22.5745 C   0  0  0  0  0  0  0  0  0  0  0  0
   12.6187   -0.4807   23.6844 C   0  0  0  0  0  0  0  0  0  0  0  0
   11.4173   -0.0654   24.2163 C   0  0  0  0  0  0  0  0  0  0  0  0
   10.2223   -0.4641   23.6411 C   0  0  0  0  0  0  0  0  0  0  0  0
    8.4056   -0.8296   20.9946 C   0  0  0  0  0  0  0  0  0  0  0  0
    8.9493    0.2315   20.7286 O   0  0  0  0  0  0  0  0  0  0  0  0
    7.2090   -1.2276   20.3784 N   0  0  0  0  0  0  0  0  0  0  0  0
    6.6002   -0.3166   19.4260 C   0  0  0  0  0  0  0  0  0  0  0  0
    5.3253    0.1983   19.6273 C   0  0  0  0  0  0  0  0  0  0  0  0
    4.7793    1.0609   18.6934 C   0  0  0  0  0  0  0  0  0  0  0  0
    5.5235    1.3843   17.5831 C   0  0  0  0  0  0  0  0  0  0  0  0
    6.7485    0.9072   17.3638 N   0  0  0  0  0  0  0  0  0  0  0  0
    7.2664    0.0777   18.2751 C   0  0  0  0  0  0  0  0  0  0  0  0
    6.5637   -2.4571   20.6188 C   0  0  0  0  0  0  0  0  0  0  0  0
    5.5185   -2.7766   20.0783 O   0  0  0  0  0  0  0  0  0  0  0  0
  1  2  1  0
  2  3  2  0
  3  4  1  0
  4  5  2  0
  5  6  1  0
  6  7  2  0
  7  8  1  0
  5  9  1  0
  9 10  1  0
 10 11  2  0
 11 12  1  0
 12 13  2  0
 13 14  1  0
 14 15  2  0
  9 16  1  0
 16 17  2  0
 16 18  1  0
 18 19  1  0
 19 20  2  0
 20 21  1  0
 21 22  2  0
 22 23  1  0
 23 24  2  0
 18 25  1  0
 25 26  2  0
  7  2  1  0
 15 10  1  0
 24 19  1  0
 25  4  1  0
M  END
