CVD-0004003|dock_bobby27042020.86|mol2|9|dock2
     RDKit          3D

 19 20  0  0  0  0  0  0  0  0999 V2000
   13.2251   -1.8645   20.9951 N   0  0  0  0  0  0  0  0  0  0  0  0
   12.6608   -1.4218   22.4265 S   0  0  0  0  0  0  0  0  0  0  0  0
   11.3629   -2.0102   22.5684 O   0  0  0  0  0  0  0  0  0  0  0  0
   13.6706   -1.7284   23.3946 O   0  0  0  0  0  0  0  0  0  0  0  0
   12.4414    0.3383   22.4329 C   0  0  0  0  0  0  0  0  0  0  0  0
   13.6192    1.0657   22.5370 C   0  0  0  0  0  0  0  0  0  0  0  0
   13.5748    2.4468   22.4662 C   0  0  0  0  0  0  0  0  0  0  0  0
   12.3734    3.0957   22.2935 C   0  0  0  0  0  0  0  0  0  0  0  0
   11.1933    2.3761   22.2258 C   0  0  0  0  0  0  0  0  0  0  0  0
   11.1929    0.9845   22.3324 C   0  0  0  0  0  0  0  0  0  0  0  0
    9.8308    0.3461   22.3191 C   0  0  0  0  0  0  0  0  0  0  0  0
    9.0546    0.5951   23.2368 O   0  0  0  0  0  0  0  0  0  0  0  0
    9.4698   -0.4909   21.3422 N   0  0  0  0  0  0  0  0  0  0  0  0
    8.1339   -1.0718   21.2959 C   0  0  0  0  0  0  0  0  0  0  0  0
    7.1264   -0.1551   20.6426 C   0  0  0  0  0  0  0  0  0  0  0  0
    5.7733   -0.8193   20.4247 C   0  0  0  0  0  0  0  0  0  0  0  0
    5.4920   -0.5994   19.0148 C   0  0  0  0  0  0  0  0  0  0  0  0
    6.6664   -0.1335   18.3682 C   0  0  0  0  0  0  0  0  0  0  0  0
    7.6032    0.2315   19.3365 O   0  0  0  0  0  0  0  0  0  0  0  0
  1  2  1  0
  2  3  2  0
  2  4  2  0
  2  5  1  0
  5  6  2  0
  6  7  1  0
  7  8  2  0
  8  9  1  0
  9 10  2  0
 10 11  1  0
 11 12  2  0
 11 13  1  0
 13 14  1  0
 15 14  1  0
 15 16  1  0
 16 17  1  0
 17 18  1  0
 18 19  1  0
 10  5  1  0
 19 15  1  0
M  END
