CVD-0002538|dock_bobby27042020.63|mol2|5|dock2
     RDKit          3D

 23 26  0  0  0  0  0  0  0  0999 V2000
    6.6459    1.1462   22.9672 C   0  0  0  0  0  0  0  0  0  0  0  0
    7.8823    0.8136   21.9298 S   0  0  0  0  0  0  0  0  0  0  0  0
    7.7912    2.3842   21.4397 C   0  0  0  0  0  0  0  0  0  0  0  0
    9.2717    0.1090   22.4086 N   0  0  0  0  0  0  0  0  0  0  0  0
    9.6003   -1.2333   21.8462 C   0  0  0  0  0  0  0  0  0  0  0  0
   10.4623   -2.0876   22.7505 C   0  0  0  0  0  0  0  0  0  0  0  0
   11.4152   -1.0990   23.2081 N   0  0  0  0  0  0  0  0  0  0  0  0
   10.8263   -0.2938   24.2589 C   0  0  0  0  0  0  0  0  0  0  0  0
   10.0342    0.7537   23.5247 C   0  0  0  0  0  0  0  0  0  0  0  0
   11.0172    1.8552   23.1676 C   0  0  0  0  0  0  0  0  0  0  0  0
   10.5561    3.1653   23.2650 C   0  0  0  0  0  0  0  0  0  0  0  0
   11.4440    4.2031   23.0688 C   0  0  0  0  0  0  0  0  0  0  0  0
   12.7387    4.0296   22.8027 N   0  0  0  0  0  0  0  0  0  0  0  0
   13.1770    2.7759   22.6507 C   0  0  0  0  0  0  0  0  0  0  0  0
   12.3567    1.6623   22.7818 C   0  0  0  0  0  0  0  0  0  0  0  0
   13.0118    0.4424   22.4550 N   0  0  0  0  0  0  0  0  0  0  0  0
   12.5236   -0.8290   22.4877 C   0  0  0  0  0  0  0  0  0  0  0  0
   13.0612   -1.7175   21.8382 O   0  0  0  0  0  0  0  0  0  0  0  0
    7.2058   -0.1703   20.6383 C   0  0  0  0  0  0  0  0  0  0  0  0
    6.1563   -1.1357   20.8083 C   0  0  0  0  0  0  0  0  0  0  0  0
    5.8136   -1.7658   19.6438 C   0  0  0  0  0  0  0  0  0  0  0  0
    6.7473   -1.2051   18.3380 S   0  0  0  0  0  0  0  0  0  0  0  0
    7.5839   -0.1379   19.3553 C   0  0  0  0  0  0  0  0  0  0  0  0
  1  2  2  0
  2  3  2  0
  2  4  1  0
  4  5  1  0
  5  6  1  0
  6  7  1  0
  7  8  1  0
  8  9  1  0
  9 10  1  0
 10 11  2  0
 11 12  1  0
 12 13  2  0
 13 14  1  0
 14 15  2  0
 15 16  1  0
 16 17  1  0
 17 18  2  0
  2 19  1  0
 19 20  1  0
 20 21  2  0
 21 22  1  0
 22 23  1  0
  9  4  1  0
 15 10  1  0
 23 19  2  0
 17  7  1  0
M  END
