CVD-0002219|dock_bobby27042020.78|mol2|14|dock1
     RDKit          3D

 12 12  0  0  0  0  0  0  0  0999 V2000
   12.7897    5.5305   23.6662 C   0  0  0  0  0  0  0  0  0  0  0  0
   13.2151    4.9901   22.3310 C   0  0  0  0  0  0  0  0  0  0  0  0
   14.2476    5.8314   21.6404 C   0  0  0  0  0  0  0  0  0  0  0  0
   12.7441    3.8787   21.7843 C   0  0  0  0  0  0  0  0  0  0  0  0
   11.7206    2.9235   22.3231 C   0  0  0  0  0  0  0  0  0  0  0  0
   12.1169    1.5081   22.2415 N   0  0  0  0  0  0  0  0  0  0  0  0
   10.9938    0.6305   22.5924 C   0  0  0  0  0  0  0  0  0  0  0  0
   11.3623   -0.8344   22.4632 C   0  0  0  0  0  0  0  0  0  0  0  0
   12.5802   -1.2106   23.2983 C   0  0  0  0  0  0  0  0  0  0  0  0
   13.0272   -2.5559   23.0969 O   0  0  0  0  0  0  0  0  0  0  0  0
   13.6993   -0.2221   22.9895 C   0  0  0  0  0  0  0  0  0  0  0  0
   13.2490    1.2227   23.1270 C   0  0  0  0  0  0  0  0  0  0  0  0
  1  2  1  0
  2  3  1  0
  2  4  2  3
  4  5  1  0
  5  6  1  0
  6  7  1  0
  7  8  1  0
  8  9  1  0
  9 10  1  0
  9 11  1  0
 11 12  1  0
 12  6  1  0
M  END
