CVD-0001411|dock_bobby27042020.52|mol2|39|dock2
     RDKit          3D

 39 43  0  0  0  0  0  0  0  0999 V2000
    7.6746   -5.3555   25.1204 F   0  0  0  0  0  0  0  0  0  0  0  0
    7.1067   -4.2487   24.6549 C   0  0  0  0  0  0  0  0  0  0  0  0
    5.9800   -4.0999   25.3424 F   0  0  0  0  0  0  0  0  0  0  0  0
    6.7399   -4.5232   23.4083 F   0  0  0  0  0  0  0  0  0  0  0  0
    8.0028   -3.0553   24.7459 C   0  0  0  0  0  0  0  0  0  0  0  0
    7.9687   -2.2213   25.8556 C   0  0  0  0  0  0  0  0  0  0  0  0
    8.8099   -1.1254   25.9382 C   0  0  0  0  0  0  0  0  0  0  0  0
    9.6962   -0.8490   24.9106 C   0  0  0  0  0  0  0  0  0  0  0  0
    9.7369   -1.6594   23.7787 C   0  0  0  0  0  0  0  0  0  0  0  0
    8.8920   -2.7627   23.7188 C   0  0  0  0  0  0  0  0  0  0  0  0
   10.6513   -1.4050   22.6282 C   0  0  0  0  0  0  0  0  0  0  0  0
   10.6307   -2.1942   21.6900 O   0  0  0  0  0  0  0  0  0  0  0  0
   11.5567   -0.2316   22.5748 C   0  0  0  0  0  0  0  0  0  0  0  0
   12.9799   -0.3425   22.6661 C   0  0  0  0  0  0  0  0  0  0  0  0
   13.6099    0.8594   22.6362 C   0  0  0  0  0  0  0  0  0  0  0  0
   12.5161    2.1594   22.4993 S   0  0  0  0  0  0  0  0  0  0  0  0
   11.1531    1.0905   22.4532 C   0  0  0  0  0  0  0  0  0  0  0  0
    9.8164    1.7241   22.2914 C   0  0  0  0  0  0  0  0  0  0  0  0
    9.6978    3.1131   22.2807 C   0  0  0  0  0  0  0  0  0  0  0  0
    8.4569    3.7197   22.1354 C   0  0  0  0  0  0  0  0  0  0  0  0
    8.0965    5.1765   22.0883 C   0  0  0  0  0  0  0  0  0  0  0  0
    6.6631    5.1162   21.9042 N   0  0  0  0  0  0  0  0  0  0  0  0
    6.1581    3.8704   21.8532 C   0  0  0  0  0  0  0  0  0  0  0  0
    4.9755    3.5868   21.6989 O   0  0  0  0  0  0  0  0  0  0  0  0
    7.3116    2.9547   21.9984 C   0  0  0  0  0  0  0  0  0  0  0  0
    7.4144    1.5467   22.0073 C   0  0  0  0  0  0  0  0  0  0  0  0
    8.6662    0.9475   22.1538 C   0  0  0  0  0  0  0  0  0  0  0  0
    6.2211    0.7486   21.8973 N   0  0  0  0  0  0  0  0  0  0  0  0
    5.7445    0.2937   20.5628 C   0  0  0  0  0  0  0  0  0  0  0  0
    5.8765    1.3659   19.4727 C   0  0  0  0  0  0  0  0  0  0  0  0
    5.6394    0.6751   18.1386 C   0  0  0  0  0  0  0  0  0  0  0  0
    6.3463   -0.9668   18.3019 S   0  0  0  0  0  0  0  0  0  0  0  0
    7.6661   -1.0058   17.7325 O   0  0  0  0  0  0  0  0  0  0  0  0
    5.3888   -1.9405   17.8515 O   0  0  0  0  0  0  0  0  0  0  0  0
    6.4507   -0.9611   20.0955 C   0  0  0  0  0  0  0  0  0  0  0  0
    5.5045    0.4772   23.0388 C   0  0  0  0  0  0  0  0  0  0  0  0
    4.4276   -0.1021   22.9687 O   0  0  0  0  0  0  0  0  0  0  0  0
    6.0360    0.8928   24.3993 C   0  0  0  0  0  0  0  0  0  0  0  0
    5.2093    0.0876   25.7390 Cl  0  0  0  0  0  0  0  0  0  0  0  0
  1  2  1  0
  2  3  1  0
  2  4  1  0
  2  5  1  0
  5  6  2  0
  6  7  1  0
  7  8  2  0
  8  9  1  0
  9 10  2  0
  9 11  1  0
 11 12  2  0
 11 13  1  0
 13 14  1  0
 14 15  2  0
 15 16  1  0
 16 17  1  0
 17 18  1  0
 18 19  2  0
 19 20  1  0
 20 21  1  0
 21 22  1  0
 22 23  1  0
 23 24  2  0
 23 25  1  0
 25 26  1  0
 26 27  2  0
 26 28  1  0
 29 28  1  0
 29 30  1  0
 30 31  1  0
 31 32  1  0
 32 33  2  0
 32 34  2  0
 32 35  1  0
 28 36  1  0
 36 37  2  0
 36 38  1  0
 38 39  1  0
 10  5  1  0
 17 13  2  0
 27 18  1  0
 35 29  1  0
 25 20  2  0
M  END
