CVD-0000204|dock_bobby27042020.28|mol2|10|dock1
     RDKit          3D

 21 23  0  0  0  0  0  0  0  0999 V2000
    7.4170   -5.6151   24.9708 C   0  0  0  0  0  0  0  0  0  0  0  0
    7.1616   -4.7587   23.7547 C   0  0  0  0  0  0  0  0  0  0  0  0
    6.7941   -5.3243   22.5450 C   0  0  0  0  0  0  0  0  0  0  0  0
    6.5622   -4.5425   21.4276 C   0  0  0  0  0  0  0  0  0  0  0  0
    6.6919   -3.1588   21.4828 C   0  0  0  0  0  0  0  0  0  0  0  0
    7.0630   -2.5889   22.6974 C   0  0  0  0  0  0  0  0  0  0  0  0
    7.2923   -3.3807   23.8090 C   0  0  0  0  0  0  0  0  0  0  0  0
    6.4346   -2.3570   20.2669 C   0  0  0  0  0  0  0  0  0  0  0  0
    5.5748   -2.8352   19.3590 N   0  0  0  0  0  0  0  0  0  0  0  0
    5.5389   -1.9072   18.3762 N   0  0  0  0  0  0  0  0  0  0  0  0
    6.3387   -0.8673   18.6284 C   0  0  0  0  0  0  0  0  0  0  0  0
    6.9533   -1.0968   19.8427 C   0  0  0  0  0  0  0  0  0  0  0  0
    7.9297   -0.1612   20.4940 C   0  0  0  0  0  0  0  0  0  0  0  0
    9.0642   -0.8950   21.0578 N   0  0  0  0  0  0  0  0  0  0  0  0
    9.8847   -0.0680   21.9420 C   0  0  0  0  0  0  0  0  0  0  0  0
   11.1547   -0.7585   22.3770 C   0  0  0  0  0  0  0  0  0  0  0  0
   12.3497   -0.0705   22.5049 C   0  0  0  0  0  0  0  0  0  0  0  0
   13.4914   -0.7434   22.9033 C   0  0  0  0  0  0  0  0  0  0  0  0
   13.3998   -2.0923   23.1616 C   0  0  0  0  0  0  0  0  0  0  0  0
   12.2640   -2.7821   23.0460 N   0  0  0  0  0  0  0  0  0  0  0  0
   11.1745   -2.1112   22.6598 C   0  0  0  0  0  0  0  0  0  0  0  0
  1  2  1  0
  2  3  2  0
  3  4  1  0
  4  5  2  0
  5  6  1  0
  6  7  2  0
  5  8  1  0
  8  9  2  0
  9 10  1  0
 10 11  1  0
 11 12  2  0
 12 13  1  0
 13 14  1  0
 14 15  1  0
 15 16  1  0
 16 17  2  0
 17 18  1  0
 18 19  2  0
 19 20  1  0
 20 21  2  0
  7  2  1  0
 12  8  1  0
 21 16  1  0
M  END
