CVD-0003223|dock_bobby27042020.31|mol2|32|dock1
     RDKit          3D

 25 27  0  0  0  0  0  0  0  0999 V2000
   12.3176    1.2779   23.6498 C   0  0  0  0  0  0  0  0  0  0  0  0
   12.6629   -0.0391   24.2966 C   0  0  0  0  0  0  0  0  0  0  0  0
   12.1773   -1.2950   23.6927 N   0  0  0  0  0  0  0  0  0  0  0  0
   12.8802   -2.3784   24.3817 C   0  0  0  0  0  0  0  0  0  0  0  0
   10.7211   -1.4399   23.7847 C   0  0  0  0  0  0  0  0  0  0  0  0
   10.1182   -2.5563   22.9453 C   0  0  0  0  0  0  0  0  0  0  0  0
    8.7201   -2.3301   22.5537 N   0  0  0  0  0  0  0  0  0  0  0  0
    7.7027   -2.9683   23.3725 C   0  0  0  0  0  0  0  0  0  0  0  0
    7.0512   -4.1516   22.7022 C   0  0  0  0  0  0  0  0  0  0  0  0
    7.5298   -4.7806   21.5265 C   0  0  0  0  0  0  0  0  0  0  0  0
    6.7773   -5.8333   21.1013 C   0  0  0  0  0  0  0  0  0  0  0  0
    5.4636   -6.0597   22.1535 S   0  0  0  0  0  0  0  0  0  0  0  0
    5.9178   -4.7594   23.1504 C   0  0  0  0  0  0  0  0  0  0  0  0
    8.3908   -1.5525   21.4988 C   0  0  0  0  0  0  0  0  0  0  0  0
    9.2269   -0.9713   20.8182 O   0  0  0  0  0  0  0  0  0  0  0  0
    6.9063   -1.4085   21.1679 C   0  0  0  0  0  0  0  0  0  0  0  0
    6.6963   -0.6698   19.9377 N   0  0  0  0  0  0  0  0  0  0  0  0
    7.5422   -0.8304   18.8866 N   0  0  0  0  0  0  0  0  0  0  0  0
    7.1781   -0.0320   17.9236 N   0  0  0  0  0  0  0  0  0  0  0  0
    6.0920    0.6948   18.3578 C   0  0  0  0  0  0  0  0  0  0  0  0
    5.3308    1.6851   17.7384 C   0  0  0  0  0  0  0  0  0  0  0  0
    4.2781    2.2529   18.4392 C   0  0  0  0  0  0  0  0  0  0  0  0
    3.9801    1.8529   19.7273 C   0  0  0  0  0  0  0  0  0  0  0  0
    4.7236    0.8683   20.3589 C   0  0  0  0  0  0  0  0  0  0  0  0
    5.7773    0.2965   19.6562 C   0  0  0  0  0  0  0  0  0  0  0  0
  1  2  1  0
  2  3  1  0
  3  4  1  0
  3  5  1  0
  5  6  1  0
  6  7  1  0
  7  8  1  0
  8  9  1  0
  9 10  1  0
 10 11  2  0
 11 12  1  0
 12 13  1  0
  7 14  1  0
 14 15  2  0
 14 16  1  0
 16 17  1  0
 17 18  1  0
 18 19  2  0
 19 20  1  0
 20 21  2  0
 21 22  1  0
 22 23  2  0
 23 24  1  0
 24 25  2  0
 13  9  2  0
 25 17  1  0
 25 20  1  0
M  END
