CVD-0003311|dock_bobby27042020.60|mol2|14|dock1
     RDKit          3D

 25 26  0  0  0  0  0  0  0  0999 V2000
   14.3197    5.9898   21.7498 C   0  0  0  0  0  0  0  0  0  0  0  0
   13.3835    5.4494   23.1276 S   0  0  0  0  0  0  0  0  0  0  0  0
   14.1517    4.4676   23.8287 O   0  0  0  0  0  0  0  0  0  0  0  0
   12.9373    6.6055   23.8420 O   0  0  0  0  0  0  0  0  0  0  0  0
   12.0759    4.7101   22.5669 N   0  0  0  0  0  0  0  0  0  0  0  0
   12.1443    3.2892   22.2050 C   0  0  0  0  0  0  0  0  0  0  0  0
   11.8359    2.4149   23.4071 C   0  0  0  0  0  0  0  0  0  0  0  0
   11.4697    1.0001   23.0172 C   0  0  0  0  0  0  0  0  0  0  0  0
   12.4838    0.0534   22.9103 C   0  0  0  0  0  0  0  0  0  0  0  0
   12.2016   -1.2639   22.5581 C   0  0  0  0  0  0  0  0  0  0  0  0
   10.8866   -1.6385   22.3109 C   0  0  0  0  0  0  0  0  0  0  0  0
    9.8771   -0.7000   22.4176 C   0  0  0  0  0  0  0  0  0  0  0  0
   10.1447    0.6210   22.7677 C   0  0  0  0  0  0  0  0  0  0  0  0
    9.0139    1.6138   22.8773 C   0  0  0  0  0  0  0  0  0  0  0  0
    7.8009    1.1836   22.1976 N   0  0  0  0  0  0  0  0  0  0  0  0
    7.7816    1.0819   20.8560 C   0  0  0  0  0  0  0  0  0  0  0  0
    8.7969    1.3312   20.2175 O   0  0  0  0  0  0  0  0  0  0  0  0
    6.6421    0.7053   20.1998 N   0  0  0  0  0  0  0  0  0  0  0  0
    6.6493    0.1760   18.8311 C   0  0  0  0  0  0  0  0  0  0  0  0
    5.5664    0.8487   18.0123 C   0  0  0  0  0  0  0  0  0  0  0  0
    4.2924    0.7138   18.6091 O   0  0  0  0  0  0  0  0  0  0  0  0
    4.2939    1.3018   19.9103 C   0  0  0  0  0  0  0  0  0  0  0  0
    5.3112    0.6376   20.8114 C   0  0  0  0  0  0  0  0  0  0  0  0
   13.2694   -2.2274   22.4524 C   0  0  0  0  0  0  0  0  0  0  0  0
   14.1334   -2.9719   22.3893 N   0  0  0  0  0  0  0  0  0  0  0  0
  1  2  1  0
  2  3  2  0
  2  4  2  0
  2  5  1  0
  5  6  1  0
  6  7  1  0
  7  8  1  0
  8  9  2  0
  9 10  1  0
 10 11  2  0
 11 12  1  0
 12 13  2  0
 13 14  1  0
 14 15  1  0
 15 16  1  0
 16 17  2  0
 16 18  1  0
 18 19  1  0
 19 20  1  0
 20 21  1  0
 21 22  1  0
 22 23  1  0
 10 24  1  0
 24 25  3  0
 13  8  1  0
 23 18  1  0
M  END
