CVD-0001438|dock_bobby27042020.38|mol2|11|dock1
     RDKit          3D

 18 20  0  0  0  0  0  0  0  0999 V2000
    9.7552    1.2588   22.3310 O   0  0  0  0  0  0  0  0  0  0  0  0
   10.9208    1.4430   22.6691 C   0  0  0  0  0  0  0  0  0  0  0  0
   11.4784    2.6408   22.9752 N   0  0  0  0  0  0  0  0  0  0  0  0
   10.9312    3.9480   22.9977 C   0  0  0  0  0  0  0  0  0  0  0  0
   11.7821    5.0048   23.3014 C   0  0  0  0  0  0  0  0  0  0  0  0
   11.3050    6.3040   23.3385 C   0  0  0  0  0  0  0  0  0  0  0  0
    9.9788    6.5644   23.0742 C   0  0  0  0  0  0  0  0  0  0  0  0
    9.1260    5.5255   22.7721 C   0  0  0  0  0  0  0  0  0  0  0  0
    9.5913    4.2213   22.7319 C   0  0  0  0  0  0  0  0  0  0  0  0
   11.8855    0.2816   22.7779 C   0  0  0  0  0  0  0  0  0  0  0  0
   11.2655   -0.9829   22.2007 C   0  0  0  0  0  0  0  0  0  0  0  0
   12.3522   -2.0371   21.9987 C   0  0  0  0  0  0  0  0  0  0  0  0
   13.2984   -2.0275   23.1658 C   0  0  0  0  0  0  0  0  0  0  0  0
   14.5066   -3.2342   23.4014 S   0  0  0  0  0  0  0  0  0  0  0  0
   14.9808   -2.5624   24.8934 C   0  0  0  0  0  0  0  0  0  0  0  0
   14.2416   -1.4663   25.1861 C   0  0  0  0  0  0  0  0  0  0  0  0
   13.2672   -1.1434   24.2013 C   0  0  0  0  0  0  0  0  0  0  0  0
   12.3289    0.0347   24.2201 C   0  0  0  0  0  0  0  0  0  0  0  0
  1  2  2  0
  2  3  1  0
  3  4  1  0
  4  5  2  0
  5  6  1  0
  6  7  2  0
  7  8  1  0
  8  9  2  0
  2 10  1  0
 10 11  1  0
 11 12  1  0
 12 13  1  0
 13 14  1  0
 14 15  1  0
 15 16  2  0
 16 17  1  0
 17 18  1  0
  9  4  1  0
 18 10  1  0
 17 13  2  0
M  END
