CVD-0001883|dock_bobby27042020.65|mol2|35|dock3
     RDKit          3D

 32 34  0  0  0  0  0  0  0  0999 V2000
    9.2918    1.1525   25.8498 C   0  0  0  0  0  0  0  0  0  0  0  0
   10.5140    0.2724   25.9159 C   0  0  0  0  0  0  0  0  0  0  0  0
   11.4911    0.4271   24.7717 C   0  0  0  0  0  0  0  0  0  0  0  0
   12.1238    1.6597   24.6283 C   0  0  0  0  0  0  0  0  0  0  0  0
   13.1090    1.8618   23.6788 C   0  0  0  0  0  0  0  0  0  0  0  0
   13.4846    0.8210   22.8504 C   0  0  0  0  0  0  0  0  0  0  0  0
   12.8547   -0.4176   22.9283 C   0  0  0  0  0  0  0  0  0  0  0  0
   13.2745   -1.5364   22.0120 C   0  0  0  0  0  0  0  0  0  0  0  0
   11.8260   -0.5916   23.8590 C   0  0  0  0  0  0  0  0  0  0  0  0
   11.1550   -1.8595   23.8233 N   0  0  0  0  0  0  0  0  0  0  0  0
    9.8227   -2.0549   23.6744 C   0  0  0  0  0  0  0  0  0  0  0  0
    8.9776   -1.1747   23.5464 O   0  0  0  0  0  0  0  0  0  0  0  0
    9.4165   -3.5410   23.6582 C   0  0  0  0  0  0  0  0  0  0  0  0
    8.3737   -3.7404   22.6163 N   0  0  0  0  0  0  0  0  0  0  0  0
    7.8366   -5.0116   22.4878 C   0  0  0  0  0  0  0  0  0  0  0  0
    8.2185   -5.9294   23.2130 O   0  0  0  0  0  0  0  0  0  0  0  0
    6.7906   -5.3180   21.4676 C   0  0  0  0  0  0  0  0  0  0  0  0
    6.0394   -6.3807   21.5840 C   0  0  0  0  0  0  0  0  0  0  0  0
    7.9567   -2.6935   21.7278 C   0  0  0  0  0  0  0  0  0  0  0  0
    6.6469   -2.2270   21.7035 C   0  0  0  0  0  0  0  0  0  0  0  0
    6.2703   -1.2116   20.8425 C   0  0  0  0  0  0  0  0  0  0  0  0
    7.1928   -0.6449   19.9759 C   0  0  0  0  0  0  0  0  0  0  0  0
    6.7167    0.6562   18.8871 S   0  0  0  0  0  0  0  0  0  0  0  0
    5.4107   -0.0748   17.9028 C   0  0  0  0  0  0  0  0  0  0  0  0
    8.4994   -1.1094   19.9898 C   0  0  0  0  0  0  0  0  0  0  0  0
    8.8746   -2.1223   20.8541 C   0  0  0  0  0  0  0  0  0  0  0  0
    9.0356   -3.9614   25.0703 C   0  0  0  0  0  0  0  0  0  0  0  0
    9.9283   -4.6205   25.9013 C   0  0  0  0  0  0  0  0  0  0  0  0
    9.5372   -4.9864   27.1774 C   0  0  0  0  0  0  0  0  0  0  0  0
    8.2580   -4.6806   27.5847 C   0  0  0  0  0  0  0  0  0  0  0  0
    7.3751   -4.0485   26.8095 N   0  0  0  0  0  0  0  0  0  0  0  0
    7.7741   -3.7048   25.5814 C   0  0  0  0  0  0  0  0  0  0  0  0
  1  2  1  0
  2  3  1  0
  3  4  2  0
  4  5  1  0
  5  6  2  0
  6  7  1  0
  7  8  1  0
  7  9  2  0
  9 10  1  0
 10 11  1  0
 11 12  2  0
 11 13  1  0
 13 14  1  0
 14 15  1  0
 15 16  2  0
 15 17  1  0
 17 18  2  0
 14 19  1  0
 19 20  2  0
 20 21  1  0
 21 22  2  0
 22 23  1  0
 23 24  1  0
 22 25  1  0
 25 26  2  0
 13 27  1  0
 27 28  2  0
 28 29  1  0
 29 30  2  0
 30 31  1  0
 31 32  2  0
  9  3  1  0
 26 19  1  0
 32 27  1  0
M  END
