CVD-0000181|dock_bobby27042020.57|mol2|4|dock2
     RDKit          3D

 18 19  0  0  0  0  0  0  0  0999 V2000
   14.2111   -1.9553   24.1650 C   0  0  0  0  0  0  0  0  0  0  0  0
   12.8140   -1.5657   24.0119 N   0  0  0  0  0  0  0  0  0  0  0  0
   12.7545   -0.1787   23.5626 C   0  0  0  0  0  0  0  0  0  0  0  0
   12.1323   -2.4582   23.0699 C   0  0  0  0  0  0  0  0  0  0  0  0
   10.7289   -2.0312   22.7761 C   0  0  0  0  0  0  0  0  0  0  0  0
   10.3037   -1.5547   21.6169 C   0  0  0  0  0  0  0  0  0  0  0  0
    8.9253   -1.1181   21.2818 C   0  0  0  0  0  0  0  0  0  0  0  0
    8.1387   -0.7742   22.1757 O   0  0  0  0  0  0  0  0  0  0  0  0
    8.5472   -1.1062   19.9531 N   0  0  0  0  0  0  0  0  0  0  0  0
    7.3027   -0.7320   19.4201 C   0  0  0  0  0  0  0  0  0  0  0  0
    6.5074   -1.3405   18.5068 C   0  0  0  0  0  0  0  0  0  0  0  0
    5.3885   -0.5656   18.3236 N   0  0  0  0  0  0  0  0  0  0  0  0
    5.4396    0.5577   19.1146 C   0  0  0  0  0  0  0  0  0  0  0  0
    4.5538    1.6182   19.2716 C   0  0  0  0  0  0  0  0  0  0  0  0
    4.8843    2.6280   20.1624 C   0  0  0  0  0  0  0  0  0  0  0  0
    6.0647    2.5853   20.8790 C   0  0  0  0  0  0  0  0  0  0  0  0
    6.9505    1.5304   20.7259 C   0  0  0  0  0  0  0  0  0  0  0  0
    6.6404    0.5041   19.8368 C   0  0  0  0  0  0  0  0  0  0  0  0
  1  2  1  0
  2  3  1  0
  2  4  1  0
  4  5  1  0
  5  6  2  0
  6  7  1  0
  7  8  2  0
  7  9  1  0
  9 10  1  0
 10 11  2  0
 11 12  1  0
 12 13  1  0
 13 14  2  0
 14 15  1  0
 15 16  2  0
 16 17  1  0
 17 18  2  0
 18 10  1  0
 18 13  1  0
M  END
