CVD-0003298|dock_bobby27042020.45|mol2|40|dock3
     RDKit          3D

 17 18  0  0  0  0  0  0  0  0999 V2000
   13.4332    4.2651   22.4947 C   0  0  0  0  0  0  0  0  0  0  0  0
   11.9869    3.8682   22.5398 C   0  0  0  0  0  0  0  0  0  0  0  0
   11.0840    4.6968   22.4788 O   0  0  0  0  0  0  0  0  0  0  0  0
   11.7394    2.5601   22.6334 N   0  0  0  0  0  0  0  0  0  0  0  0
   10.3889    2.0175   22.6701 C   0  0  0  0  0  0  0  0  0  0  0  0
   10.3080    0.7589   23.5106 C   0  0  0  0  0  0  0  0  0  0  0  0
   11.1782   -0.3571   22.9942 C   0  0  0  0  0  0  0  0  0  0  0  0
   11.0263   -1.0626   21.8032 C   0  0  0  0  0  0  0  0  0  0  0  0
   10.1334   -0.9593   20.8507 O   0  0  0  0  0  0  0  0  0  0  0  0
   12.0173   -1.9820   21.7152 N   0  0  0  0  0  0  0  0  0  0  0  0
   12.8404   -1.9167   22.8218 C   0  0  0  0  0  0  0  0  0  0  0  0
   13.9703   -2.6451   23.1768 C   0  0  0  0  0  0  0  0  0  0  0  0
   14.6062   -2.3557   24.3717 C   0  0  0  0  0  0  0  0  0  0  0  0
   14.1002   -1.3600   25.1656 C   0  0  0  0  0  0  0  0  0  0  0  0
   14.7356   -1.0866   26.3370 F   0  0  0  0  0  0  0  0  0  0  0  0
   12.9868   -0.6177   24.8505 C   0  0  0  0  0  0  0  0  0  0  0  0
   12.3353   -0.8973   23.6504 C   0  0  0  0  0  0  0  0  0  0  0  0
  1  2  1  0
  2  3  2  0
  2  4  1  0
  4  5  1  0
  5  6  1  0
  6  7  1  0
  7  8  2  0
  8  9  1  0
  8 10  1  0
 10 11  1  0
 11 12  2  0
 12 13  1  0
 13 14  2  0
 14 15  1  0
 14 16  1  0
 16 17  2  0
 17  7  1  0
 17 11  1  0
M  END
