CVD-0001377|dock_bobby27042020.38|mol2|22|dock1
     RDKit          3D

 41 44  0  0  0  0  0  0  0  0999 V2000
    6.8369    8.3098   23.4311 C   0  0  0  0  0  0  0  0  0  0  0  0
    6.7596    7.3035   22.3005 C   0  0  0  0  0  0  0  0  0  0  0  0
    6.5223    7.9934   20.9723 C   0  0  0  0  0  0  0  0  0  0  0  0
    5.6614    6.2960   22.5707 C   0  0  0  0  0  0  0  0  0  0  0  0
    8.0389    6.5587   22.2327 O   0  0  0  0  0  0  0  0  0  0  0  0
    8.6622    6.0742   23.3218 C   0  0  0  0  0  0  0  0  0  0  0  0
    8.6267    6.5387   24.4412 O   0  0  0  0  0  0  0  0  0  0  0  0
    9.3577    4.9483   22.9543 N   0  0  0  0  0  0  0  0  0  0  0  0
   10.1790    3.8028   23.0184 C   0  0  0  0  0  0  0  0  0  0  0  0
   11.5142    3.7229   22.7394 C   0  0  0  0  0  0  0  0  0  0  0  0
   12.2076    2.4985   22.8524 C   0  0  0  0  0  0  0  0  0  0  0  0
   11.5803    1.3483   23.2484 C   0  0  0  0  0  0  0  0  0  0  0  0
   10.2288    1.4236   23.5217 N   0  0  0  0  0  0  0  0  0  0  0  0
    9.4643    2.5742   23.4387 C   0  0  0  0  0  0  0  0  0  0  0  0
    8.2619    2.5601   23.6982 O   0  0  0  0  0  0  0  0  0  0  0  0
   12.2947    0.0633   23.3730 C   0  0  0  0  0  0  0  0  0  0  0  0
   13.2168   -0.0199   24.4206 C   0  0  0  0  0  0  0  0  0  0  0  0
   13.9920   -1.1520   24.5996 C   0  0  0  0  0  0  0  0  0  0  0  0
   13.8636   -2.2168   23.7388 C   0  0  0  0  0  0  0  0  0  0  0  0
   12.9325   -2.1643   22.7180 C   0  0  0  0  0  0  0  0  0  0  0  0
   12.1094   -1.0552   22.5328 C   0  0  0  0  0  0  0  0  0  0  0  0
   11.0612   -1.1597   21.4461 C   0  0  0  0  0  0  0  0  0  0  0  0
   10.0647   -2.2798   21.6705 C   0  0  0  0  0  0  0  0  0  0  0  0
    9.6456   -2.9663   20.7437 O   0  0  0  0  0  0  0  0  0  0  0  0
    9.6851   -2.4692   22.9360 N   0  0  0  0  0  0  0  0  0  0  0  0
    8.7407   -3.5115   23.3033 C   0  0  0  0  0  0  0  0  0  0  0  0
    8.9747   -3.9049   24.7661 C   0  0  0  0  0  0  0  0  0  0  0  0
    8.4872   -5.2758   25.2704 C   0  0  0  0  0  0  0  0  0  0  0  0
    7.0734   -5.2714   25.8850 C   0  0  0  0  0  0  0  0  0  0  0  0
    7.1538   -6.1897   27.0975 C   0  0  0  0  0  0  0  0  0  0  0  0
    8.5785   -6.2621   27.3604 N   0  0  0  0  0  0  0  0  0  0  0  0
    9.3592   -5.8289   26.3673 C   0  0  0  0  0  0  0  0  0  0  0  0
   10.5871   -5.8448   26.3710 O   0  0  0  0  0  0  0  0  0  0  0  0
    7.3349   -2.9713   23.0522 C   0  0  0  0  0  0  0  0  0  0  0  0
    6.3361   -3.5636   23.4227 O   0  0  0  0  0  0  0  0  0  0  0  0
    7.2131   -1.6328   22.2981 C   0  0  0  0  0  0  0  0  0  0  0  0
    8.0289   -0.7257   22.4556 O   0  0  0  0  0  0  0  0  0  0  0  0
    6.1593   -1.5594   21.4767 N   0  0  0  0  0  0  0  0  0  0  0  0
    5.8585   -0.3789   20.6668 C   0  0  0  0  0  0  0  0  0  0  0  0
    5.7918   -1.0755   19.1789 C   0  0  0  0  0  0  0  0  0  0  0  0
    6.5004    0.2143   19.3861 C   0  0  0  0  0  0  0  0  0  0  0  0
  1  2  1  0
  2  3  1  0
  2  4  1  0
  2  5  1  0
  5  6  1  0
  6  7  2  0
  6  8  1  0
  8  9  1  0
  9 10  2  0
 10 11  1  0
 11 12  2  0
 12 13  1  0
 13 14  1  0
 14 15  2  0
 12 16  1  0
 16 17  2  0
 17 18  1  0
 18 19  2  0
 19 20  1  0
 20 21  2  0
 21 22  1  0
 22 23  1  0
 23 24  2  0
 23 25  1  0
 25 26  1  0
 26 27  1  0
 28 27  1  0
 28 29  1  0
 29 30  1  0
 30 31  1  0
 31 32  1  0
 32 33  2  0
 26 34  1  0
 34 35  2  0
 34 36  1  0
 36 37  2  0
 36 38  1  0
 38 39  1  0
 39 40  1  0
 40 41  1  0
 14  9  1  0
 21 16  1  0
 32 28  1  0
 41 39  1  0
M  END
