CVD-0002194|dock_bobby27042020.78|mol2|18|dock3
     RDKit          3D

 22 24  0  0  0  0  0  0  0  0999 V2000
   13.7003   -1.2588   24.0358 C   0  0  0  0  0  0  0  0  0  0  0  0
   13.0138    0.0844   24.1279 C   0  0  0  0  0  0  0  0  0  0  0  0
   12.5354    0.5800   22.7764 C   0  0  0  0  0  0  0  0  0  0  0  0
   11.8555    1.9329   22.8104 C   0  0  0  0  0  0  0  0  0  0  0  0
   12.6256    3.0718   22.5839 C   0  0  0  0  0  0  0  0  0  0  0  0
   12.0667    4.3359   22.5897 C   0  0  0  0  0  0  0  0  0  0  0  0
   10.7063    4.4830   22.8276 C   0  0  0  0  0  0  0  0  0  0  0  0
    9.9253    3.3539   23.0591 C   0  0  0  0  0  0  0  0  0  0  0  0
   10.4821    2.0779   23.0564 C   0  0  0  0  0  0  0  0  0  0  0  0
    9.5825    0.8845   23.3264 C   0  0  0  0  0  0  0  0  0  0  0  0
    8.9476    0.2868   22.0870 C   0  0  0  0  0  0  0  0  0  0  0  0
    9.3097   -0.9775   21.6406 C   0  0  0  0  0  0  0  0  0  0  0  0
    8.7308   -1.5309   20.5096 C   0  0  0  0  0  0  0  0  0  0  0  0
    7.7701   -0.8146   19.8040 C   0  0  0  0  0  0  0  0  0  0  0  0
    6.9996   -1.1737   18.5670 C   0  0  0  0  0  0  0  0  0  0  0  0
    6.1776    0.0037   18.3889 N   0  0  0  0  0  0  0  0  0  0  0  0
    6.3715    0.9646   19.3107 C   0  0  0  0  0  0  0  0  0  0  0  0
    5.7770    2.0370   19.3489 O   0  0  0  0  0  0  0  0  0  0  0  0
    7.4005    0.4458   20.2379 C   0  0  0  0  0  0  0  0  0  0  0  0
    7.9859    0.9977   21.3761 C   0  0  0  0  0  0  0  0  0  0  0  0
   10.1024    5.7925   22.8363 C   0  0  0  0  0  0  0  0  0  0  0  0
    9.6463    6.8393   22.8662 N   0  0  0  0  0  0  0  0  0  0  0  0
  1  2  1  0
  2  3  1  0
  3  4  1  0
  4  5  2  0
  5  6  1  0
  6  7  2  0
  7  8  1  0
  8  9  2  0
  9 10  1  0
 10 11  1  0
 11 12  2  0
 12 13  1  0
 13 14  2  0
 14 15  1  0
 15 16  1  0
 16 17  1  0
 17 18  2  0
 17 19  1  0
 19 20  2  0
  7 21  1  0
 21 22  3  0
  9  4  1  0
 20 11  1  0
 19 14  1  0
M  END
