CVD-0002971|dock_bobby27042020.75|mol2|21|dock1
     RDKit          3D

 34 36  0  0  0  0  0  0  0  0999 V2000
    7.8172    0.2724   18.2007 C   0  0  0  0  0  0  0  0  0  0  0  0
    7.1601   -0.5074   19.3013 C   0  0  0  0  0  0  0  0  0  0  0  0
    5.9827   -0.3331   19.5995 O   0  0  0  0  0  0  0  0  0  0  0  0
    7.9336   -1.4116   19.9161 N   0  0  0  0  0  0  0  0  0  0  0  0
    7.4583   -2.2714   20.9913 C   0  0  0  0  0  0  0  0  0  0  0  0
    6.8326   -3.5549   20.4219 C   0  0  0  0  0  0  0  0  0  0  0  0
    6.3680   -4.5146   21.4902 C   0  0  0  0  0  0  0  0  0  0  0  0
    5.5078   -4.0978   22.4940 C   0  0  0  0  0  0  0  0  0  0  0  0
    5.0805   -4.9712   23.4783 C   0  0  0  0  0  0  0  0  0  0  0  0
    5.5152   -6.2869   23.4693 C   0  0  0  0  0  0  0  0  0  0  0  0
    5.0975   -7.1537   24.4366 O   0  0  0  0  0  0  0  0  0  0  0  0
    6.3763   -6.7176   22.4729 C   0  0  0  0  0  0  0  0  0  0  0  0
    6.7956   -5.8332   21.4949 C   0  0  0  0  0  0  0  0  0  0  0  0
    8.5638   -2.6265   21.9846 C   0  0  0  0  0  0  0  0  0  0  0  0
    8.8801   -3.7947   22.1950 O   0  0  0  0  0  0  0  0  0  0  0  0
    9.1589   -1.6005   22.5997 N   0  0  0  0  0  0  0  0  0  0  0  0
   10.2343   -1.7691   23.5738 C   0  0  0  0  0  0  0  0  0  0  0  0
   10.6293   -0.3846   24.1173 C   0  0  0  0  0  0  0  0  0  0  0  0
   11.4178    0.4168   23.1734 N   0  0  0  0  0  0  0  0  0  0  0  0
   12.7852    0.5958   23.6704 C   0  0  0  0  0  0  0  0  0  0  0  0
   13.6072    1.3896   22.6720 C   0  0  0  0  0  0  0  0  0  0  0  0
   12.9864    2.6916   22.4185 N   0  0  0  0  0  0  0  0  0  0  0  0
   11.5957    2.5485   21.9766 C   0  0  0  0  0  0  0  0  0  0  0  0
   10.8054    1.7286   22.9801 C   0  0  0  0  0  0  0  0  0  0  0  0
   13.6499    3.8573   22.5563 C   0  0  0  0  0  0  0  0  0  0  0  0
   14.8250    3.8976   22.8982 O   0  0  0  0  0  0  0  0  0  0  0  0
   12.8658    5.1206   22.2602 C   0  0  0  0  0  0  0  0  0  0  0  0
   13.8837    6.5528   22.4602 Cl  0  0  0  0  0  0  0  0  0  0  0  0
    9.8143   -2.6743   24.7149 C   0  0  0  0  0  0  0  0  0  0  0  0
   10.4862   -3.8636   24.9611 C   0  0  0  0  0  0  0  0  0  0  0  0
   10.1041   -4.6887   26.0057 C   0  0  0  0  0  0  0  0  0  0  0  0
    9.0471   -4.3347   26.8167 C   0  0  0  0  0  0  0  0  0  0  0  0
    8.3719   -3.1557   26.5844 C   0  0  0  0  0  0  0  0  0  0  0  0
    8.7530   -2.3298   25.5401 C   0  0  0  0  0  0  0  0  0  0  0  0
  1  2  1  0
  2  3  2  0
  2  4  1  0
  4  5  1  0
  5  6  1  0
  6  7  1  0
  7  8  2  0
  8  9  1  0
  9 10  2  0
 10 11  1  0
 10 12  1  0
 12 13  2  0
  5 14  1  0
 14 15  2  0
 14 16  1  0
 16 17  1  0
 17 18  1  0
 18 19  1  0
 19 20  1  0
 20 21  1  0
 21 22  1  0
 22 23  1  0
 23 24  1  0
 22 25  1  0
 25 26  2  0
 25 27  1  0
 27 28  1  0
 17 29  1  0
 29 30  2  0
 30 31  1  0
 31 32  2  0
 32 33  1  0
 33 34  2  0
 13  7  1  0
 24 19  1  0
 34 29  1  0
M  END
