CVD-0000431|dock_bobby27042020.56|mol2|8|dock1
     RDKit          3D

 30 32  0  0  0  0  0  0  0  0999 V2000
   13.3128   -1.6760   21.7840 C   0  0  0  0  0  0  0  0  0  0  0  0
   12.7548   -0.3129   22.0497 C   0  0  0  0  0  0  0  0  0  0  0  0
   11.5578   -0.0655   21.2633 N   0  0  0  0  0  0  0  0  0  0  0  0
   10.6826    0.9469   21.5131 C   0  0  0  0  0  0  0  0  0  0  0  0
   11.1229    2.1924   21.9550 C   0  0  0  0  0  0  0  0  0  0  0  0
   10.1716    3.1675   22.1859 C   0  0  0  0  0  0  0  0  0  0  0  0
    8.8200    2.8907   21.9766 C   0  0  0  0  0  0  0  0  0  0  0  0
    7.8316    3.9092   22.2174 C   0  0  0  0  0  0  0  0  0  0  0  0
    7.0648    4.7386   22.3876 N   0  0  0  0  0  0  0  0  0  0  0  0
    8.4634    1.6098   21.5317 C   0  0  0  0  0  0  0  0  0  0  0  0
    7.0306    1.2111   21.2719 C   0  0  0  0  0  0  0  0  0  0  0  0
    6.8324   -0.0417   20.4386 C   0  0  0  0  0  0  0  0  0  0  0  0
    7.3703   -1.2520   20.8648 C   0  0  0  0  0  0  0  0  0  0  0  0
    7.2089   -2.4236   20.1320 C   0  0  0  0  0  0  0  0  0  0  0  0
    7.7636   -3.6010   20.5972 N   0  0  0  0  0  0  0  0  0  0  0  0
    6.9762   -4.7413   21.0252 C   0  0  0  0  0  0  0  0  0  0  0  0
    7.5552   -5.4032   22.2604 C   0  0  0  0  0  0  0  0  0  0  0  0
    7.5645   -6.6258   22.3584 O   0  0  0  0  0  0  0  0  0  0  0  0
    8.0226   -4.5312   23.1861 N   0  0  0  0  0  0  0  0  0  0  0  0
    8.7653   -4.7449   24.3734 C   0  0  0  0  0  0  0  0  0  0  0  0
    9.4225   -5.9338   24.6728 C   0  0  0  0  0  0  0  0  0  0  0  0
   10.1217   -6.0390   25.8629 C   0  0  0  0  0  0  0  0  0  0  0  0
   10.1455   -4.9602   26.7165 C   0  0  0  0  0  0  0  0  0  0  0  0
    9.5259   -3.8089   26.4566 N   0  0  0  0  0  0  0  0  0  0  0  0
    8.8537   -3.7173   25.3056 C   0  0  0  0  0  0  0  0  0  0  0  0
    6.4894   -2.3861   18.9426 C   0  0  0  0  0  0  0  0  0  0  0  0
    5.9452   -1.1944   18.5007 C   0  0  0  0  0  0  0  0  0  0  0  0
    6.1203   -0.0431   19.2475 C   0  0  0  0  0  0  0  0  0  0  0  0
    5.4232    1.4324   18.6636 Cl  0  0  0  0  0  0  0  0  0  0  0  0
    9.3898    0.6668   21.3075 N   0  0  0  0  0  0  0  0  0  0  0  0
  1  2  1  0
  2  3  1  0
  3  4  1  0
  4  5  2  0
  5  6  1  0
  6  7  2  0
  7  8  1  0
  8  9  3  0
  7 10  1  0
 10 11  1  0
 11 12  1  0
 12 13  2  0
 13 14  1  0
 14 15  1  0
 15 16  1  0
 16 17  1  0
 17 18  2  0
 17 19  1  0
 19 20  1  0
 20 21  2  0
 21 22  1  0
 22 23  2  0
 23 24  1  0
 24 25  2  0
 14 26  2  0
 26 27  1  0
 27 28  2  0
 28 29  1  0
 10 30  2  0
 30  4  1  0
 28 12  1  0
 25 20  1  0
M  END
