CVD-0001816|dock_bobby27042020.37|mol2|7|dock3
     RDKit          3D

 26 29  0  0  0  0  0  0  0  0999 V2000
    9.8845   -3.5939   22.9095 F   0  0  0  0  0  0  0  0  0  0  0  0
   10.5886   -2.4670   22.8183 C   0  0  0  0  0  0  0  0  0  0  0  0
   11.5123   -2.5190   23.7765 F   0  0  0  0  0  0  0  0  0  0  0  0
   11.2421   -2.5215   21.6589 F   0  0  0  0  0  0  0  0  0  0  0  0
    9.7249   -1.2468   22.9271 C   0  0  0  0  0  0  0  0  0  0  0  0
    8.7216   -1.1123   21.7958 C   0  0  0  0  0  0  0  0  0  0  0  0
    8.5978    0.3281   21.5967 N   0  0  0  0  0  0  0  0  0  0  0  0
    9.5381    1.0721   22.4254 C   0  0  0  0  0  0  0  0  0  0  0  0
   10.5688    0.0194   22.8228 C   0  0  0  0  0  0  0  0  0  0  0  0
   11.3827    0.3511   24.0007 N   0  0  0  0  0  0  0  0  0  0  0  0
   12.8204    0.3694   23.7549 C   0  0  0  0  0  0  0  0  0  0  0  0
   13.2558    1.6444   23.1146 C   0  0  0  0  0  0  0  0  0  0  0  0
   14.4165    1.7496   22.5455 N   0  0  0  0  0  0  0  0  0  0  0  0
   14.4186    3.0875   22.0787 O   0  0  0  0  0  0  0  0  0  0  0  0
   13.2336    3.6041   22.4355 C   0  0  0  0  0  0  0  0  0  0  0  0
   12.4832    2.7708   23.0710 N   0  0  0  0  0  0  0  0  0  0  0  0
   12.9536    5.0282   22.0686 C   0  0  0  0  0  0  0  0  0  0  0  0
   13.2395    5.9003   23.2399 C   0  0  0  0  0  0  0  0  0  0  0  0
   14.0716    6.0199   22.0254 C   0  0  0  0  0  0  0  0  0  0  0  0
    7.7271    0.8580   20.7186 C   0  0  0  0  0  0  0  0  0  0  0  0
    7.6284    2.0744   20.6057 O   0  0  0  0  0  0  0  0  0  0  0  0
    6.8382    0.0383   19.8369 C   0  0  0  0  0  0  0  0  0  0  0  0
    6.0610    0.5965   18.7524 C   0  0  0  0  0  0  0  0  0  0  0  0
    5.4028   -0.4737   18.2126 C   0  0  0  0  0  0  0  0  0  0  0  0
    5.7553   -1.5595   18.9087 N   0  0  0  0  0  0  0  0  0  0  0  0
    6.6299   -1.2845   19.9072 N   0  0  0  0  0  0  0  0  0  0  0  0
  1  2  1  0
  2  3  1  0
  2  4  1  0
  2  5  1  0
  5  6  1  0
  6  7  1  0
  7  8  1  0
  8  9  1  0
  9 10  1  0
 10 11  1  0
 11 12  1  0
 12 13  2  0
 13 14  1  0
 14 15  1  0
 15 16  2  0
 15 17  1  0
 17 18  1  0
 18 19  1  0
  7 20  1  0
 20 21  2  0
 20 22  1  0
 22 23  1  0
 23 24  2  0
 24 25  1  0
 25 26  1  0
  9  5  1  0
 16 12  1  0
 19 17  1  0
 26 22  2  0
M  END
