CVD-0001431|dock_bobby27042020.38|mol2|12|dock1
     RDKit          3D

 22 24  0  0  0  0  0  0  0  0999 V2000
    6.7828    0.5086   22.0368 F   0  0  0  0  0  0  0  0  0  0  0  0
    6.4079    0.1406   20.7902 C   0  0  0  0  0  0  0  0  0  0  0  0
    6.0885    1.1381   19.9004 C   0  0  0  0  0  0  0  0  0  0  0  0
    5.6955    0.7877   18.6205 C   0  0  0  0  0  0  0  0  0  0  0  0
    5.6238   -0.5439   18.2493 C   0  0  0  0  0  0  0  0  0  0  0  0
    5.9518   -1.5114   19.1698 C   0  0  0  0  0  0  0  0  0  0  0  0
    5.8601   -2.7980   18.7627 F   0  0  0  0  0  0  0  0  0  0  0  0
    6.3636   -1.2183   20.4737 C   0  0  0  0  0  0  0  0  0  0  0  0
    6.8043   -2.4645   21.6907 S   0  0  0  0  0  0  0  0  0  0  0  0
    5.9646   -2.3553   22.8428 O   0  0  0  0  0  0  0  0  0  0  0  0
    6.9170   -3.7210   21.0174 O   0  0  0  0  0  0  0  0  0  0  0  0
    8.3012   -2.0168   22.1628 N   0  0  0  0  0  0  0  0  0  0  0  0
    9.2626   -1.6699   21.1066 C   0  0  0  0  0  0  0  0  0  0  0  0
   10.3431   -0.8159   21.6917 C   0  0  0  0  0  0  0  0  0  0  0  0
   10.9686   -1.4835   22.8214 N   0  0  0  0  0  0  0  0  0  0  0  0
   10.0255   -1.9187   23.8564 C   0  0  0  0  0  0  0  0  0  0  0  0
    8.9393   -2.7625   23.2579 C   0  0  0  0  0  0  0  0  0  0  0  0
   12.3155   -1.6250   22.8714 C   0  0  0  0  0  0  0  0  0  0  0  0
   13.0025   -1.1589   21.9827 O   0  0  0  0  0  0  0  0  0  0  0  0
   13.0379   -2.3560   24.0121 C   0  0  0  0  0  0  0  0  0  0  0  0
   13.5776   -1.6202   25.1474 C   0  0  0  0  0  0  0  0  0  0  0  0
   14.4561   -2.1261   24.1359 O   0  0  0  0  0  0  0  0  0  0  0  0
  1  2  1  0
  2  3  2  0
  3  4  1  0
  4  5  2  0
  5  6  1  0
  6  7  1  0
  6  8  2  0
  8  9  1  0
  9 10  2  0
  9 11  2  0
  9 12  1  0
 12 13  1  0
 13 14  1  0
 14 15  1  0
 15 16  1  0
 16 17  1  0
 15 18  1  0
 18 19  2  0
 18 20  1  0
 20 21  1  0
 21 22  1  0
  8  2  1  0
 17 12  1  0
 22 20  1  0
M  END
