CVD-0003485|dock_bobby27042020.73|mol2|36|dock1
     RDKit          3D

 25 27  0  0  0  0  0  0  0  0999 V2000
   14.1912    6.3758   22.1113 Cl  0  0  0  0  0  0  0  0  0  0  0  0
   13.9928    4.7345   22.7391 C   0  0  0  0  0  0  0  0  0  0  0  0
   12.6331    4.1827   22.3582 C   0  0  0  0  0  0  0  0  0  0  0  0
   11.8508    4.8252   21.6693 O   0  0  0  0  0  0  0  0  0  0  0  0
   12.3311    2.9529   22.8217 N   0  0  0  0  0  0  0  0  0  0  0  0
   11.0586    2.2867   22.5358 C   0  0  0  0  0  0  0  0  0  0  0  0
   11.3018    0.9157   21.9328 C   0  0  0  0  0  0  0  0  0  0  0  0
   12.1087    0.0972   22.8425 N   0  0  0  0  0  0  0  0  0  0  0  0
   12.3136   -1.2448   22.2812 C   0  0  0  0  0  0  0  0  0  0  0  0
   11.2201   -2.2183   22.6735 C   0  0  0  0  0  0  0  0  0  0  0  0
   10.1541   -2.2518   21.6825 N   0  0  0  0  0  0  0  0  0  0  0  0
    8.8875   -2.5005   22.0273 C   0  0  0  0  0  0  0  0  0  0  0  0
    8.5870   -2.7090   23.1989 O   0  0  0  0  0  0  0  0  0  0  0  0
    7.8228   -2.5500   20.9620 C   0  0  0  0  0  0  0  0  0  0  0  0
    7.3842   -3.8115   20.6292 C   0  0  0  0  0  0  0  0  0  0  0  0
    6.4725   -3.9994   19.6052 C   0  0  0  0  0  0  0  0  0  0  0  0
    5.9764   -2.9453   18.9027 C   0  0  0  0  0  0  0  0  0  0  0  0
    6.3476   -1.6214   19.2326 C   0  0  0  0  0  0  0  0  0  0  0  0
    5.8271   -0.5111   18.5255 C   0  0  0  0  0  0  0  0  0  0  0  0
    6.1593    0.7611   18.8787 C   0  0  0  0  0  0  0  0  0  0  0  0
    7.0016    0.9902   19.9439 C   0  0  0  0  0  0  0  0  0  0  0  0
    7.5326   -0.0482   20.6493 C   0  0  0  0  0  0  0  0  0  0  0  0
    7.2631   -1.4020   20.3072 C   0  0  0  0  0  0  0  0  0  0  0  0
   13.3914    0.7586   23.0679 C   0  0  0  0  0  0  0  0  0  0  0  0
   13.1878    2.1314   23.6826 C   0  0  0  0  0  0  0  0  0  0  0  0
  1  2  1  0
  2  3  1  0
  3  4  2  0
  3  5  1  0
  5  6  1  0
  6  7  1  0
  7  8  1  0
  8  9  1  0
  9 10  1  0
 10 11  1  0
 11 12  1  0
 12 13  2  0
 12 14  1  0
 14 15  2  0
 15 16  1  0
 16 17  2  0
 17 18  1  0
 18 19  2  0
 19 20  1  0
 20 21  2  0
 21 22  1  0
 22 23  2  0
  8 24  1  0
 24 25  1  0
 25  5  1  0
 23 14  1  0
 23 18  1  0
M  END
