CVD-0000542|dock_bobby27042020.98|mol2|15|dock3
     RDKit          3D

 27 29  0  0  0  0  0  0  0  0999 V2000
    6.9705   -1.0810   18.0786 C   0  0  0  0  0  0  0  0  0  0  0  0
    6.5526    0.1759   18.7980 C   0  0  0  0  0  0  0  0  0  0  0  0
    5.3493    0.7750   18.4378 C   0  0  0  0  0  0  0  0  0  0  0  0
    4.9379    1.9220   19.0781 C   0  0  0  0  0  0  0  0  0  0  0  0
    5.6409    2.5046   20.0446 N   0  0  0  0  0  0  0  0  0  0  0  0
    6.7982    1.9380   20.3999 C   0  0  0  0  0  0  0  0  0  0  0  0
    7.3122    0.7766   19.8210 C   0  0  0  0  0  0  0  0  0  0  0  0
    8.5430    0.1643   20.1926 N   0  0  0  0  0  0  0  0  0  0  0  0
    9.1219    0.0387   21.4339 C   0  0  0  0  0  0  0  0  0  0  0  0
    8.6472    0.4569   22.4853 O   0  0  0  0  0  0  0  0  0  0  0  0
   10.3070   -0.6158   21.3679 N   0  0  0  0  0  0  0  0  0  0  0  0
   11.1226   -0.8878   22.5259 C   0  0  0  0  0  0  0  0  0  0  0  0
   11.8867    0.3961   22.9356 C   0  0  0  0  0  0  0  0  0  0  0  0
   13.2909    0.1714   22.6777 C   0  0  0  0  0  0  0  0  0  0  0  0
   13.5145   -1.1890   22.2089 C   0  0  0  0  0  0  0  0  0  0  0  0
   12.2185   -1.9194   22.2321 C   0  0  0  0  0  0  0  0  0  0  0  0
   10.2751   -1.2851   23.5900 O   0  0  0  0  0  0  0  0  0  0  0  0
    9.6723   -2.5587   23.6401 C   0  0  0  0  0  0  0  0  0  0  0  0
    9.0248   -3.0695   22.5288 C   0  0  0  0  0  0  0  0  0  0  0  0
    8.4433   -4.3245   22.5961 C   0  0  0  0  0  0  0  0  0  0  0  0
    8.5067   -5.0670   23.7634 C   0  0  0  0  0  0  0  0  0  0  0  0
    9.1590   -4.5395   24.8660 C   0  0  0  0  0  0  0  0  0  0  0  0
    9.7488   -3.2857   24.8168 C   0  0  0  0  0  0  0  0  0  0  0  0
    9.2534   -5.4793   26.3596 S   0  0  0  0  0  0  0  0  0  0  0  0
   10.2084   -6.7391   26.1067 N   0  0  0  0  0  0  0  0  0  0  0  0
    9.8900   -4.6561   27.3434 O   0  0  0  0  0  0  0  0  0  0  0  0
    7.9421   -5.9890   26.6279 O   0  0  0  0  0  0  0  0  0  0  0  0
  1  2  1  0
  2  3  2  0
  3  4  1  0
  4  5  2  0
  5  6  1  0
  6  7  2  0
  7  8  1  0
  8  9  1  0
  9 10  2  0
  9 11  1  0
 11 12  1  0
 12 13  1  0
 13 14  1  0
 14 15  1  0
 15 16  1  0
 12 17  1  0
 17 18  1  0
 18 19  2  0
 19 20  1  0
 20 21  2  0
 21 22  1  0
 22 23  2  0
 22 24  1  0
 24 25  1  0
 24 26  2  0
 24 27  2  0
  7  2  1  0
 16 12  1  0
 23 18  1  0
M  END
