CVD-0003162|dock_bobby27042020.3|mol2|6|dock1
     RDKit          3D

 25 28  0  0  0  0  0  0  0  0999 V2000
   10.9877    5.6903   22.5674 F   0  0  0  0  0  0  0  0  0  0  0  0
   10.9368    4.3385   22.5528 C   0  0  0  0  0  0  0  0  0  0  0  0
    9.7374    3.7155   22.3349 C   0  0  0  0  0  0  0  0  0  0  0  0
    9.6733    2.3259   22.3180 C   0  0  0  0  0  0  0  0  0  0  0  0
    8.3837    1.6667   21.8645 C   0  0  0  0  0  0  0  0  0  0  0  0
    8.5734    0.2430   21.7258 N   0  0  0  0  0  0  0  0  0  0  0  0
    9.6523   -0.5060   22.0717 C   0  0  0  0  0  0  0  0  0  0  0  0
    9.6482   -1.7273   22.0732 O   0  0  0  0  0  0  0  0  0  0  0  0
   10.7553    0.1616   22.5355 N   0  0  0  0  0  0  0  0  0  0  0  0
   11.9502   -0.6098   22.7957 C   0  0  0  0  0  0  0  0  0  0  0  0
   12.5614   -0.5521   24.0427 C   0  0  0  0  0  0  0  0  0  0  0  0
   13.7064   -1.2898   24.2934 C   0  0  0  0  0  0  0  0  0  0  0  0
   14.2499   -2.0874   23.3099 C   0  0  0  0  0  0  0  0  0  0  0  0
   13.6507   -2.1504   22.0707 C   0  0  0  0  0  0  0  0  0  0  0  0
   12.5056   -1.4169   21.8090 C   0  0  0  0  0  0  0  0  0  0  0  0
   10.8314    1.5688   22.5229 C   0  0  0  0  0  0  0  0  0  0  0  0
   12.0429    2.2276   22.7432 C   0  0  0  0  0  0  0  0  0  0  0  0
   12.0891    3.6091   22.7570 C   0  0  0  0  0  0  0  0  0  0  0  0
   13.5822    4.4095   23.1265 Cl  0  0  0  0  0  0  0  0  0  0  0  0
    7.4509   -0.3066   21.0051 C   0  0  0  0  0  0  0  0  0  0  0  0
    7.6265   -0.8121   19.7210 C   0  0  0  0  0  0  0  0  0  0  0  0
    6.5435   -1.3368   19.0380 C   0  0  0  0  0  0  0  0  0  0  0  0
    5.3171   -1.3551   19.6582 C   0  0  0  0  0  0  0  0  0  0  0  0
    5.1187   -0.8813   20.8871 N   0  0  0  0  0  0  0  0  0  0  0  0
    6.1647   -0.3500   21.5276 C   0  0  0  0  0  0  0  0  0  0  0  0
  1  2  1  0
  2  3  2  0
  3  4  1  0
  4  5  1  0
  5  6  1  0
  6  7  1  0
  7  8  2  0
  7  9  1  0
  9 10  1  0
 10 11  2  0
 11 12  1  0
 12 13  2  0
 13 14  1  0
 14 15  2  0
  9 16  1  0
 16 17  1  0
 17 18  2  0
 18 19  1  0
  6 20  1  0
 20 21  2  0
 21 22  1  0
 22 23  2  0
 23 24  1  0
 24 25  2  0
 18  2  1  0
 25 20  1  0
 16  4  2  0
 15 10  1  0
M  END
