CVD-0000326|dock_bobby27042020.27|mol2|30|dock2
     RDKit          3D

 26 29  0  0  0  0  0  0  0  0999 V2000
    4.9222    0.3459   21.3222 C   0  0  0  0  0  0  0  0  0  0  0  0
    5.6112    0.3832   19.9828 C   0  0  0  0  0  0  0  0  0  0  0  0
    4.9502    1.0297   18.9408 C   0  0  0  0  0  0  0  0  0  0  0  0
    5.4919    1.0437   17.6732 C   0  0  0  0  0  0  0  0  0  0  0  0
    6.6437    0.4543   17.3648 N   0  0  0  0  0  0  0  0  0  0  0  0
    7.3020   -0.1365   18.3649 C   0  0  0  0  0  0  0  0  0  0  0  0
    6.8612   -0.1987   19.6927 C   0  0  0  0  0  0  0  0  0  0  0  0
    7.7471   -0.8748   20.6821 C   0  0  0  0  0  0  0  0  0  0  0  0
    7.3994   -2.0983   21.3296 C   0  0  0  0  0  0  0  0  0  0  0  0
    8.2237   -2.6864   22.2218 C   0  0  0  0  0  0  0  0  0  0  0  0
    9.4890   -2.1223   22.5836 C   0  0  0  0  0  0  0  0  0  0  0  0
   10.2241   -2.6468   23.4187 O   0  0  0  0  0  0  0  0  0  0  0  0
    9.8203   -0.9134   21.9275 N   0  0  0  0  0  0  0  0  0  0  0  0
    8.9565   -0.3322   21.0207 C   0  0  0  0  0  0  0  0  0  0  0  0
   11.0688   -0.2211   22.1764 C   0  0  0  0  0  0  0  0  0  0  0  0
   12.2270   -0.9614   22.3702 C   0  0  0  0  0  0  0  0  0  0  0  0
   13.4321   -0.3230   22.5912 C   0  0  0  0  0  0  0  0  0  0  0  0
   13.5014    1.0575   22.6177 C   0  0  0  0  0  0  0  0  0  0  0  0
   12.3527    1.8226   22.4421 C   0  0  0  0  0  0  0  0  0  0  0  0
   11.1359    1.1706   22.2354 C   0  0  0  0  0  0  0  0  0  0  0  0
   12.3883    3.2633   22.4695 N   0  0  0  0  0  0  0  0  0  0  0  0
   13.6141    4.0034   22.1603 C   0  0  0  0  0  0  0  0  0  0  0  0
   13.2134    5.4544   22.2637 C   0  0  0  0  0  0  0  0  0  0  0  0
   11.8152    5.4910   22.8268 C   0  0  0  0  0  0  0  0  0  0  0  0
   11.3495    4.0667   22.8743 C   0  0  0  0  0  0  0  0  0  0  0  0
   10.2552    3.6339   23.2106 O   0  0  0  0  0  0  0  0  0  0  0  0
  1  2  1  0
  2  3  2  0
  3  4  1  0
  4  5  2  0
  5  6  1  0
  6  7  2  0
  7  8  1  0
  8  9  1  0
  9 10  2  0
 10 11  1  0
 11 12  2  0
 11 13  1  0
 13 14  1  0
 13 15  1  0
 15 16  2  0
 16 17  1  0
 17 18  2  0
 18 19  1  0
 19 20  2  0
 19 21  1  0
 21 22  1  0
 22 23  1  0
 23 24  1  0
 24 25  1  0
 25 26  2  0
  7  2  1  0
 14  8  2  0
 20 15  1  0
 25 21  1  0
M  END
