CVD-0003953|dock_bobby27042020.29|mol2|16|dock1
     RDKit          3D

 23 24  0  0  0  0  0  0  0  0999 V2000
   13.7582   -1.8437   21.0477 C   0  0  0  0  0  0  0  0  0  0  0  0
   12.5840   -1.1655   21.6902 C   0  0  0  0  0  0  0  0  0  0  0  0
   11.4403   -1.3115   21.2704 O   0  0  0  0  0  0  0  0  0  0  0  0
   12.8537   -0.4076   22.7548 N   0  0  0  0  0  0  0  0  0  0  0  0
   11.8119    0.2957   23.4886 C   0  0  0  0  0  0  0  0  0  0  0  0
   11.6294    1.7260   23.0447 C   0  0  0  0  0  0  0  0  0  0  0  0
   12.7435    2.4707   22.6693 C   0  0  0  0  0  0  0  0  0  0  0  0
   12.6175    3.7927   22.2514 C   0  0  0  0  0  0  0  0  0  0  0  0
   11.3584    4.3781   22.2078 C   0  0  0  0  0  0  0  0  0  0  0  0
   10.2492    3.6412   22.5787 C   0  0  0  0  0  0  0  0  0  0  0  0
   10.3604    2.3174   22.9979 C   0  0  0  0  0  0  0  0  0  0  0  0
    9.1295    1.5406   23.3977 C   0  0  0  0  0  0  0  0  0  0  0  0
    8.5962    0.6984   22.3364 N   0  0  0  0  0  0  0  0  0  0  0  0
    7.7426    1.2046   21.4278 C   0  0  0  0  0  0  0  0  0  0  0  0
    7.4195    2.3857   21.4648 O   0  0  0  0  0  0  0  0  0  0  0  0
    7.2223    0.4103   20.4481 N   0  0  0  0  0  0  0  0  0  0  0  0
    7.8325   -0.8630   20.0476 C   0  0  0  0  0  0  0  0  0  0  0  0
    7.9001   -0.9495   18.5364 C   0  0  0  0  0  0  0  0  0  0  0  0
    6.6301   -0.7779   17.9403 O   0  0  0  0  0  0  0  0  0  0  0  0
    6.0922    0.4984   18.2875 C   0  0  0  0  0  0  0  0  0  0  0  0
    5.9346    0.6385   19.7853 C   0  0  0  0  0  0  0  0  0  0  0  0
   13.7876    4.5435   21.8679 C   0  0  0  0  0  0  0  0  0  0  0  0
   14.6948    5.1640   21.5570 N   0  0  0  0  0  0  0  0  0  0  0  0
  1  2  1  0
  2  3  2  0
  2  4  1  0
  4  5  1  0
  5  6  1  0
  6  7  2  0
  7  8  1  0
  8  9  2  0
  9 10  1  0
 10 11  2  0
 11 12  1  0
 12 13  1  0
 13 14  1  0
 14 15  2  0
 14 16  1  0
 16 17  1  0
 17 18  1  0
 18 19  1  0
 19 20  1  0
 20 21  1  0
  8 22  1  0
 22 23  3  0
 11  6  1  0
 21 16  1  0
M  END
