CVD-0003922|dock_bobby27042020.72|mol2|20|dock1
     RDKit          3D

 31 34  0  0  0  0  0  0  0  0999 V2000
    6.2255    1.0943   17.5288 O   0  0  0  0  0  0  0  0  0  0  0  0
    5.4030    0.2591   18.3480 C   0  0  0  0  0  0  0  0  0  0  0  0
    6.1002   -1.0475   18.7323 C   0  0  0  0  0  0  0  0  0  0  0  0
    7.2439   -0.8349   19.7286 C   0  0  0  0  0  0  0  0  0  0  0  0
    6.7097   -0.1300   20.9674 C   0  0  0  0  0  0  0  0  0  0  0  0
    6.0481    1.2001   20.6195 C   0  0  0  0  0  0  0  0  0  0  0  0
    4.9276    0.9807   19.6032 C   0  0  0  0  0  0  0  0  0  0  0  0
    7.7805    0.0518   21.9931 N   0  0  0  0  0  0  0  0  0  0  0  0
    8.7069    1.0796   21.7676 C   0  0  0  0  0  0  0  0  0  0  0  0
    8.8605    1.5593   20.6505 O   0  0  0  0  0  0  0  0  0  0  0  0
    9.4669    1.5858   22.7608 N   0  0  0  0  0  0  0  0  0  0  0  0
   10.4047    2.6800   22.5079 C   0  0  0  0  0  0  0  0  0  0  0  0
   11.8265    2.3164   22.9825 C   0  0  0  0  0  0  0  0  0  0  0  0
   12.8146    3.4668   22.7984 C   0  0  0  0  0  0  0  0  0  0  0  0
   12.3148    4.7398   23.4692 C   0  0  0  0  0  0  0  0  0  0  0  0
   10.9246    5.1120   22.9742 C   0  0  0  0  0  0  0  0  0  0  0  0
    9.9358    3.9725   23.1978 C   0  0  0  0  0  0  0  0  0  0  0  0
    7.8442   -0.8232   23.2328 C   0  0  0  0  0  0  0  0  0  0  0  0
    7.2551   -0.1891   24.4923 C   0  0  0  0  0  0  0  0  0  0  0  0
    7.4008   -1.1090   25.6916 C   0  0  0  0  0  0  0  0  0  0  0  0
    6.7869   -2.4689   25.4297 C   0  0  0  0  0  0  0  0  0  0  0  0
    7.3791   -3.1062   24.1836 C   0  0  0  0  0  0  0  0  0  0  0  0
    7.2324   -2.1960   22.9740 C   0  0  0  0  0  0  0  0  0  0  0  0
    9.3106   -0.9388   23.3977 C   0  0  0  0  0  0  0  0  0  0  0  0
   10.4636   -1.0750   23.6751 C   0  0  0  0  0  0  0  0  0  0  0  0
   11.8280   -1.2599   24.0937 C   0  0  0  0  0  0  0  0  0  0  0  0
   12.3256   -0.5627   25.1900 C   0  0  0  0  0  0  0  0  0  0  0  0
   13.6436   -0.7724   25.5560 C   0  0  0  0  0  0  0  0  0  0  0  0
   14.4186   -1.6543   24.8349 C   0  0  0  0  0  0  0  0  0  0  0  0
   13.8439   -2.3010   23.7643 C   0  0  0  0  0  0  0  0  0  0  0  0
   12.5726   -2.1249   23.3790 N   0  0  0  0  0  0  0  0  0  0  0  0
  1  2  1  0
  2  3  1  0
  3  4  1  0
  4  5  1  0
  5  6  1  0
  6  7  1  0
  5  8  1  0
  8  9  1  0
  9 10  2  0
  9 11  1  0
 11 12  1  0
 12 13  1  0
 13 14  1  0
 14 15  1  0
 15 16  1  0
 16 17  1  0
  8 18  1  0
 18 19  1  0
 19 20  1  0
 20 21  1  0
 21 22  1  0
 22 23  1  0
 18 24  1  0
 24 25  3  0
 25 26  1  0
 26 27  2  0
 27 28  1  0
 28 29  2  0
 29 30  1  0
 30 31  2  0
  7  2  1  0
 17 12  1  0
 23 18  1  0
 31 26  1  0
M  END
