CVD-0004064|dock_bobby27042020.0|mol2|3|dock3
     RDKit          3D

 23 26  0  0  0  0  0  0  0  0999 V2000
    5.8349   -0.3583   19.4355 C   0  0  0  0  0  0  0  0  0  0  0  0
    7.1126   -0.0232   20.1658 C   0  0  0  0  0  0  0  0  0  0  0  0
    7.4955    1.2906   20.3928 C   0  0  0  0  0  0  0  0  0  0  0  0
    8.6081    1.6788   21.0315 N   0  0  0  0  0  0  0  0  0  0  0  0
    9.3874    0.6830   21.4726 C   0  0  0  0  0  0  0  0  0  0  0  0
   10.5951    0.7791   22.1499 N   0  0  0  0  0  0  0  0  0  0  0  0
   10.9803   -0.5411   22.3969 C   0  0  0  0  0  0  0  0  0  0  0  0
   10.1307   -1.4240   21.8962 N   0  0  0  0  0  0  0  0  0  0  0  0
    9.1204   -0.6713   21.3163 C   0  0  0  0  0  0  0  0  0  0  0  0
    7.9521   -1.0167   20.6444 C   0  0  0  0  0  0  0  0  0  0  0  0
   12.1675   -1.0353   23.1223 C   0  0  0  0  0  0  0  0  0  0  0  0
   12.9073   -2.1374   22.7041 C   0  0  0  0  0  0  0  0  0  0  0  0
   14.0012   -2.5809   23.4261 C   0  0  0  0  0  0  0  0  0  0  0  0
   14.3594   -1.8940   24.5532 C   0  0  0  0  0  0  0  0  0  0  0  0
   15.4333   -2.3267   25.2674 F   0  0  0  0  0  0  0  0  0  0  0  0
   13.6826   -0.7891   24.9904 C   0  0  0  0  0  0  0  0  0  0  0  0
   12.5840   -0.3619   24.2659 C   0  0  0  0  0  0  0  0  0  0  0  0
   11.2494    2.0302   22.4594 C   0  0  0  0  0  0  0  0  0  0  0  0
   12.6318    2.1524   22.4393 C   0  0  0  0  0  0  0  0  0  0  0  0
   13.1990    3.3771   22.7310 C   0  0  0  0  0  0  0  0  0  0  0  0
   12.4947    4.4681   23.0320 N   0  0  0  0  0  0  0  0  0  0  0  0
   11.1678    4.3405   23.0452 C   0  0  0  0  0  0  0  0  0  0  0  0
   10.5056    3.1601   22.7709 C   0  0  0  0  0  0  0  0  0  0  0  0
  1  2  1  0
  2  3  2  0
  3  4  1  0
  4  5  2  0
  5  6  1  0
  6  7  1  0
  7  8  2  0
  8  9  1  0
  9 10  2  0
  7 11  1  0
 11 12  2  0
 12 13  1  0
 13 14  2  0
 14 15  1  0
 14 16  1  0
 16 17  2  0
  6 18  1  0
 18 19  2  0
 19 20  1  0
 20 21  2  0
 21 22  1  0
 22 23  2  0
 10  2  1  0
 17 11  1  0
 23 18  1  0
  9  5  1  0
M  END
