CVD-0002115|dock_bobby27042020.92|mol2|38|dock1
     RDKit          3D

 27 28  0  0  0  0  0  0  0  0999 V2000
    7.4570   -2.2130   24.2383 C   0  0  0  0  0  0  0  0  0  0  0  0
    8.3899   -2.4284   23.0686 C   0  0  0  0  0  0  0  0  0  0  0  0
    9.4047   -1.4160   23.0357 O   0  0  0  0  0  0  0  0  0  0  0  0
   10.2646   -1.3921   24.1701 C   0  0  0  0  0  0  0  0  0  0  0  0
   11.5445   -0.6437   23.7935 C   0  0  0  0  0  0  0  0  0  0  0  0
   12.3321   -1.4130   22.6948 C   0  0  0  0  0  0  0  0  0  0  0  0
   13.5265   -2.0152   23.3607 C   0  0  0  0  0  0  0  0  0  0  0  0
   13.5879   -1.5171   24.7280 C   0  0  0  0  0  0  0  0  0  0  0  0
   12.4840   -0.5857   25.0190 C   0  0  0  0  0  0  0  0  0  0  0  0
   11.1024    0.7333   23.3787 C   0  0  0  0  0  0  0  0  0  0  0  0
   12.0053    1.6795   22.9205 C   0  0  0  0  0  0  0  0  0  0  0  0
   11.5273    2.9274   22.5593 C   0  0  0  0  0  0  0  0  0  0  0  0
   10.1800    3.1965   22.6635 C   0  0  0  0  0  0  0  0  0  0  0  0
    9.3557    2.1980   23.1296 C   0  0  0  0  0  0  0  0  0  0  0  0
    9.7923    0.9827   23.4858 N   0  0  0  0  0  0  0  0  0  0  0  0
    7.6523   -2.3759   21.7241 C   0  0  0  0  0  0  0  0  0  0  0  0
    6.8299   -1.1791   21.6410 N   0  0  0  0  0  0  0  0  0  0  0  0
    7.2413   -0.0831   20.9943 C   0  0  0  0  0  0  0  0  0  0  0  0
    6.2944    1.0809   21.0020 C   0  0  0  0  0  0  0  0  0  0  0  0
    8.3347   -0.0268   20.4401 O   0  0  0  0  0  0  0  0  0  0  0  0
    6.7730   -3.6062   21.5185 C   0  0  0  0  0  0  0  0  0  0  0  0
    5.5493   -3.5075   21.5529 O   0  0  0  0  0  0  0  0  0  0  0  0
    7.3950   -4.7647   21.2984 N   0  0  0  0  0  0  0  0  0  0  0  0
    6.6534   -6.0027   21.0990 C   0  0  0  0  0  0  0  0  0  0  0  0
    5.5116   -6.1313   22.0122 C   0  0  0  0  0  0  0  0  0  0  0  0
    4.5656   -6.2751   22.7126 C   0  0  0  0  0  0  0  0  0  0  0  0
    3.1156   -6.5465   23.7457 Br  0  0  0  0  0  0  0  0  0  0  0  0
  2  1  1  0
  2  3  1  0
  3  4  1  0
  4  5  1  0
  5  6  1  0
  6  7  1  0
  7  8  1  0
  8  9  1  0
  5 10  1  0
 10 11  2  0
 11 12  1  0
 12 13  2  0
 13 14  1  0
 14 15  2  0
  2 16  1  0
 16 17  1  0
 17 18  1  0
 18 19  1  0
 18 20  2  0
 16 21  1  0
 21 22  2  0
 21 23  1  0
 23 24  1  0
 24 25  1  0
 25 26  3  0
 26 27  1  0
  9  5  1  0
 15 10  1  0
M  END
