CVD-0003612|dock_bobby27042020.16|mol2|7|dock2
     RDKit          3D

 22 24  0  0  0  0  0  0  0  0999 V2000
    9.3345   -0.5860   20.5717 O   0  0  0  0  0  0  0  0  0  0  0  0
    8.5909    0.2443   21.0849 C   0  0  0  0  0  0  0  0  0  0  0  0
    7.2072    0.5058   20.5284 C   0  0  0  0  0  0  0  0  0  0  0  0
    6.6292   -0.6297   19.7380 C   0  0  0  0  0  0  0  0  0  0  0  0
    6.0280   -0.5615   18.5155 C   0  0  0  0  0  0  0  0  0  0  0  0
    5.6241   -1.8050   18.1075 N   0  0  0  0  0  0  0  0  0  0  0  0
    5.9616   -2.7093   19.0713 C   0  0  0  0  0  0  0  0  0  0  0  0
    5.7422   -4.0350   19.0579 N   0  0  0  0  0  0  0  0  0  0  0  0
    6.1692   -4.7172   20.1293 C   0  0  0  0  0  0  0  0  0  0  0  0
    6.8023   -4.1369   21.2075 C   0  0  0  0  0  0  0  0  0  0  0  0
    7.0208   -2.7682   21.2050 C   0  0  0  0  0  0  0  0  0  0  0  0
    6.5956   -2.0130   20.1140 C   0  0  0  0  0  0  0  0  0  0  0  0
    8.9436    0.9729   22.1405 N   0  0  0  0  0  0  0  0  0  0  0  0
   10.2469    0.8430   22.7752 C   0  0  0  0  0  0  0  0  0  0  0  0
   11.0748    2.1033   22.7019 C   0  0  0  0  0  0  0  0  0  0  0  0
   11.4693    2.7618   23.8563 C   0  0  0  0  0  0  0  0  0  0  0  0
   12.2253    3.9190   23.7968 C   0  0  0  0  0  0  0  0  0  0  0  0
   12.6035    4.4442   22.5658 C   0  0  0  0  0  0  0  0  0  0  0  0
   12.2102    3.7896   21.4033 C   0  0  0  0  0  0  0  0  0  0  0  0
   11.4543    2.6333   21.4785 C   0  0  0  0  0  0  0  0  0  0  0  0
   13.3917    5.6497   22.4957 C   0  0  0  0  0  0  0  0  0  0  0  0
   13.9887    6.6224   22.4471 N   0  0  0  0  0  0  0  0  0  0  0  0
  1  2  2  0
  2  3  1  0
  3  4  1  0
  4  5  2  0
  5  6  1  0
  6  7  1  0
  7  8  2  0
  8  9  1  0
  9 10  2  0
 10 11  1  0
 11 12  2  0
  2 13  1  0
 13 14  1  0
 14 15  1  0
 15 16  2  0
 16 17  1  0
 17 18  2  0
 18 19  1  0
 19 20  2  0
 18 21  1  0
 21 22  3  0
 12  4  1  0
 20 15  1  0
 12  7  1  0
M  END
