CVD-0001028|dock_bobby27042020.39|mol2|31|dock2
     RDKit          3D

 38 42  0  0  0  0  0  0  0  0999 V2000
   12.7507   11.1578   29.9560 C   0  0  0  0  0  0  0  0  0  0  0  0
   13.5195   11.1249   28.7551 O   0  0  0  0  0  0  0  0  0  0  0  0
   13.3351   10.1157   27.8431 C   0  0  0  0  0  0  0  0  0  0  0  0
   13.6547   10.3632   26.5189 C   0  0  0  0  0  0  0  0  0  0  0  0
   13.4844    9.3746   25.5667 C   0  0  0  0  0  0  0  0  0  0  0  0
   12.9929    8.1247   25.9213 C   0  0  0  0  0  0  0  0  0  0  0  0
   12.6755    7.8878   27.2532 C   0  0  0  0  0  0  0  0  0  0  0  0
   12.8430    8.8715   28.2120 C   0  0  0  0  0  0  0  0  0  0  0  0
   12.8120    7.0736   24.9078 C   0  0  0  0  0  0  0  0  0  0  0  0
   13.3561    7.0224   23.7271 N   0  0  0  0  0  0  0  0  0  0  0  0
   12.8642    5.8420   23.1796 C   0  0  0  0  0  0  0  0  0  0  0  0
   13.0701    5.2266   21.9479 C   0  0  0  0  0  0  0  0  0  0  0  0
   12.4297    4.0268   21.6792 C   0  0  0  0  0  0  0  0  0  0  0  0
   11.5861    3.4232   22.6113 C   0  0  0  0  0  0  0  0  0  0  0  0
   10.9754    2.1967   22.2476 N   0  0  0  0  0  0  0  0  0  0  0  0
    9.8161    1.6199   22.6527 C   0  0  0  0  0  0  0  0  0  0  0  0
    9.0338    2.0978   23.4688 O   0  0  0  0  0  0  0  0  0  0  0  0
    9.5171    0.2778   22.0147 C   0  0  0  0  0  0  0  0  0  0  0  0
    8.0730   -0.1359   22.2690 C   0  0  0  0  0  0  0  0  0  0  0  0
    7.7937   -1.4953   21.6616 C   0  0  0  0  0  0  0  0  0  0  0  0
    8.7192   -2.4848   22.2070 N   0  0  0  0  0  0  0  0  0  0  0  0
   10.1158   -2.1577   21.9405 C   0  0  0  0  0  0  0  0  0  0  0  0
   10.4583   -0.8007   22.5464 C   0  0  0  0  0  0  0  0  0  0  0  0
    8.3834   -3.7164   22.6559 C   0  0  0  0  0  0  0  0  0  0  0  0
    9.2697   -4.4483   23.0620 O   0  0  0  0  0  0  0  0  0  0  0  0
    6.9894   -4.2814   22.7102 C   0  0  0  0  0  0  0  0  0  0  0  0
    5.9559   -3.8010   23.5137 C   0  0  0  0  0  0  0  0  0  0  0  0
    4.7104   -4.4043   23.5117 C   0  0  0  0  0  0  0  0  0  0  0  0
    4.4398   -5.4898   22.6956 C   0  0  0  0  0  0  0  0  0  0  0  0
    3.0786   -6.1429   22.6961 C   0  0  0  0  0  0  0  0  0  0  0  0
    3.0606   -7.4552   23.3382 N   0  0  0  0  0  0  0  0  0  0  0  0
    1.7505   -8.0815   23.2003 C   0  0  0  0  0  0  0  0  0  0  0  0
    3.3984   -7.3362   24.7519 C   0  0  0  0  0  0  0  0  0  0  0  0
    5.4531   -5.9538   21.8742 C   0  0  0  0  0  0  0  0  0  0  0  0
    6.7029   -5.3609   21.8802 C   0  0  0  0  0  0  0  0  0  0  0  0
   11.3813    4.0424   23.8449 C   0  0  0  0  0  0  0  0  0  0  0  0
   12.0312    5.2370   24.0877 C   0  0  0  0  0  0  0  0  0  0  0  0
   11.9832    6.0232   25.2211 O   0  0  0  0  0  0  0  0  0  0  0  0
  1  2  1  0
  2  3  1  0
  3  4  2  0
  4  5  1  0
  5  6  2  0
  6  7  1  0
  7  8  2  0
  6  9  1  0
  9 10  2  0
 10 11  1  0
 11 12  2  0
 12 13  1  0
 13 14  2  0
 14 15  1  0
 15 16  1  0
 16 17  2  0
 16 18  1  0
 18 19  1  0
 19 20  1  0
 20 21  1  0
 21 22  1  0
 22 23  1  0
 21 24  1  0
 24 25  2  0
 24 26  1  0
 26 27  2  0
 27 28  1  0
 28 29  2  0
 29 30  1  0
 30 31  1  0
 31 32  1  0
 31 33  1  0
 29 34  1  0
 34 35  2  0
 14 36  1  0
 36 37  2  0
 37 38  1  0
  8  3  1  0
 38  9  1  0
 37 11  1  0
 23 18  1  0
 35 26  1  0
M  END
