CVD-0003929|dock_bobby27042020.72|mol2|19|dock2
     RDKit          3D

 24 26  0  0  0  0  0  0  0  0999 V2000
    5.5791    0.0454   18.2424 C   0  0  0  0  0  0  0  0  0  0  0  0
    5.4301    0.0647   19.6608 O   0  0  0  0  0  0  0  0  0  0  0  0
    6.4665   -0.3285   20.4704 C   0  0  0  0  0  0  0  0  0  0  0  0
    7.6897   -0.7331   19.9567 C   0  0  0  0  0  0  0  0  0  0  0  0
    8.7026   -1.1208   20.8162 C   0  0  0  0  0  0  0  0  0  0  0  0
    8.5168   -1.1141   22.1934 C   0  0  0  0  0  0  0  0  0  0  0  0
    7.2877   -0.7047   22.6929 C   0  0  0  0  0  0  0  0  0  0  0  0
    6.2705   -0.3157   21.8401 C   0  0  0  0  0  0  0  0  0  0  0  0
    9.5536   -1.5065   23.0924 N   0  0  0  0  0  0  0  0  0  0  0  0
   10.9329   -1.0506   22.9283 C   0  0  0  0  0  0  0  0  0  0  0  0
   11.4159   -0.2948   24.1580 C   0  0  0  0  0  0  0  0  0  0  0  0
   12.8421    0.2090   23.9169 C   0  0  0  0  0  0  0  0  0  0  0  0
   13.8135   -0.9189   23.5638 C   0  0  0  0  0  0  0  0  0  0  0  0
   14.0906   -1.7682   24.6806 O   0  0  0  0  0  0  0  0  0  0  0  0
   13.2850   -1.7022   22.3682 C   0  0  0  0  0  0  0  0  0  0  0  0
   11.8592   -2.2115   22.5785 C   0  0  0  0  0  0  0  0  0  0  0  0
    9.2139   -2.3425   24.2045 C   0  0  0  0  0  0  0  0  0  0  0  0
    9.1327   -3.7279   24.0781 C   0  0  0  0  0  0  0  0  0  0  0  0
    8.8112   -4.5332   25.1567 C   0  0  0  0  0  0  0  0  0  0  0  0
    8.5548   -3.9656   26.3940 C   0  0  0  0  0  0  0  0  0  0  0  0
    8.2330   -4.7218   27.4934 O   0  0  0  0  0  0  0  0  0  0  0  0
    8.7029   -6.0638   27.6048 C   0  0  0  0  0  0  0  0  0  0  0  0
    8.6225   -2.5927   26.5359 C   0  0  0  0  0  0  0  0  0  0  0  0
    8.9467   -1.7921   25.4555 C   0  0  0  0  0  0  0  0  0  0  0  0
  1  2  1  0
  2  3  1  0
  3  4  2  0
  4  5  1  0
  5  6  2  0
  6  7  1  0
  7  8  2  0
  6  9  1  0
  9 10  1  0
 10 11  1  0
 11 12  1  0
 12 13  1  0
 13 14  1  0
 13 15  1  0
 15 16  1  0
  9 17  1  0
 17 18  2  0
 18 19  1  0
 19 20  2  0
 20 21  1  0
 21 22  1  0
 20 23  1  0
 23 24  2  0
  8  3  1  0
 16 10  1  0
 24 17  1  0
M  END
