CVD-0003952|dock_bobby27042020.43|mol2|33|dock2
     RDKit          3D

 21 23  0  0  0  0  0  0  0  0999 V2000
   10.0255   -3.0193   22.2644 N   0  0  0  0  0  0  0  0  0  0  0  0
   10.7060   -1.7946   22.3724 C   0  0  0  0  0  0  0  0  0  0  0  0
   11.6590   -1.7170   21.3459 O   0  0  0  0  0  0  0  0  0  0  0  0
   11.1957   -1.5315   23.7961 C   0  0  0  0  0  0  0  0  0  0  0  0
   12.2653   -2.5058   24.3376 C   0  0  0  0  0  0  0  0  0  0  0  0
   13.6434   -1.8543   24.0640 C   0  0  0  0  0  0  0  0  0  0  0  0
   13.3532   -0.5081   23.4060 C   0  0  0  0  0  0  0  0  0  0  0  0
   11.9387   -0.1518   23.8644 C   0  0  0  0  0  0  0  0  0  0  0  0
   11.2093    1.0143   23.1635 C   0  0  0  0  0  0  0  0  0  0  0  0
   11.8168    2.3743   23.5538 C   0  0  0  0  0  0  0  0  0  0  0  0
   12.9941    2.7948   22.6788 C   0  0  0  0  0  0  0  0  0  0  0  0
   12.8028    4.0846   22.2860 C   0  0  0  0  0  0  0  0  0  0  0  0
   11.5287    4.5971   22.8870 C   0  0  0  0  0  0  0  0  0  0  0  0
   10.8521    3.5432   23.4314 C   0  0  0  0  0  0  0  0  0  0  0  0
    9.7709    1.0343   23.4026 N   0  0  0  0  0  0  0  0  0  0  0  0
    9.2596    0.8745   24.7152 C   0  0  0  0  0  0  0  0  0  0  0  0
    7.9794    0.9896   24.9871 C   0  0  0  0  0  0  0  0  0  0  0  0
    6.9316    1.3167   23.9423 C   0  0  0  0  0  0  0  0  0  0  0  0
    5.8854    0.3466   23.9116 O   0  0  0  0  0  0  0  0  0  0  0  0
    7.5713    1.4936   22.5901 C   0  0  0  0  0  0  0  0  0  0  0  0
    8.8581    1.3641   22.3629 C   0  0  0  0  0  0  0  0  0  0  0  0
  1  2  1  0
  2  3  1  0
  2  4  1  0
  4  5  1  0
  5  6  1  0
  6  7  1  0
  7  8  1  0
  8  9  1  0
  9 10  1  0
 10 11  1  0
 11 12  2  0
 12 13  1  0
 13 14  2  0
  9 15  1  0
 15 16  1  0
 16 17  2  0
 17 18  1  0
 18 19  1  0
 18 20  1  0
 20 21  2  0
  8  4  1  0
 14 10  1  0
 21 15  1  0
M  END
