CVD-0003664|dock_bobby27042020.59|mol2|9|dock1
     RDKit          3D

 18 19  0  0  0  0  0  0  0  0999 V2000
    4.9150    1.7625   18.4946 C   0  0  0  0  0  0  0  0  0  0  0  0
    6.0311    0.7281   18.4620 C   0  0  0  0  0  0  0  0  0  0  0  0
    5.4928   -0.6120   17.9809 C   0  0  0  0  0  0  0  0  0  0  0  0
    6.6537    0.5849   19.8243 C   0  0  0  0  0  0  0  0  0  0  0  0
    6.1205    0.8264   21.0247 C   0  0  0  0  0  0  0  0  0  0  0  0
    7.0675    0.5522   21.9728 O   0  0  0  0  0  0  0  0  0  0  0  0
    8.1375    0.1532   21.2656 C   0  0  0  0  0  0  0  0  0  0  0  0
    7.9607    0.1483   19.9728 N   0  0  0  0  0  0  0  0  0  0  0  0
    9.2301   -0.1836   21.9520 N   0  0  0  0  0  0  0  0  0  0  0  0
   10.0853   -1.2739   21.4602 C   0  0  0  0  0  0  0  0  0  0  0  0
   10.9442   -1.8330   22.5886 C   0  0  0  0  0  0  0  0  0  0  0  0
   11.6752   -0.7876   23.2883 N   0  0  0  0  0  0  0  0  0  0  0  0
   10.8153    0.3225   23.7249 C   0  0  0  0  0  0  0  0  0  0  0  0
   10.0658    0.8896   22.5487 C   0  0  0  0  0  0  0  0  0  0  0  0
   12.9843   -0.7508   23.6093 C   0  0  0  0  0  0  0  0  0  0  0  0
   13.4810    0.1999   24.2003 O   0  0  0  0  0  0  0  0  0  0  0  0
   13.8127   -1.9545   23.2054 C   0  0  0  0  0  0  0  0  0  0  0  0
   14.0537   -2.0133   21.4544 Cl  0  0  0  0  0  0  0  0  0  0  0  0
  1  2  1  0
  2  3  1  0
  2  4  1  0
  4  5  2  0
  5  6  1  0
  6  7  1  0
  7  8  2  0
  7  9  1  0
  9 10  1  0
 10 11  1  0
 11 12  1  0
 12 13  1  0
 13 14  1  0
 12 15  1  0
 15 16  2  0
 15 17  1  0
 17 18  1  0
  8  4  1  0
 14  9  1  0
M  END
