CVD-0002283|dock_bobby27042020.6|mol2|25|dock1
     RDKit          3D

 40 43  0  0  0  0  0  0  0  0999 V2000
    7.0712   -4.1118   21.6471 C   0  0  0  0  0  0  0  0  0  0  0  0
    6.1302   -4.1865   22.8469 C   0  0  0  0  0  0  0  0  0  0  0  0
    6.4729   -3.0422   23.8113 C   0  0  0  0  0  0  0  0  0  0  0  0
    7.4133   -2.0175   23.2364 C   0  0  0  0  0  0  0  0  0  0  0  0
    8.8158   -2.0537   23.3241 C   0  0  0  0  0  0  0  0  0  0  0  0
    9.3720   -0.9591   22.6843 C   0  0  0  0  0  0  0  0  0  0  0  0
   10.8229   -0.6457   22.5695 C   0  0  0  0  0  0  0  0  0  0  0  0
   11.7489   -1.6217   22.1910 C   0  0  0  0  0  0  0  0  0  0  0  0
   13.0984   -1.3322   22.0779 C   0  0  0  0  0  0  0  0  0  0  0  0
   13.5643   -0.0619   22.3252 C   0  0  0  0  0  0  0  0  0  0  0  0
   12.6789    0.9319   22.6962 C   0  0  0  0  0  0  0  0  0  0  0  0
   11.3451    0.6207   22.8156 C   0  0  0  0  0  0  0  0  0  0  0  0
   10.5338    1.6319   23.2020 F   0  0  0  0  0  0  0  0  0  0  0  0
    8.2653   -0.2220   22.1713 N   0  0  0  0  0  0  0  0  0  0  0  0
    7.0905   -0.8774   22.5178 C   0  0  0  0  0  0  0  0  0  0  0  0
    8.1382    1.2105   21.2698 S   0  0  0  0  0  0  0  0  0  0  0  0
    7.5068    2.1432   22.1508 O   0  0  0  0  0  0  0  0  0  0  0  0
    9.4387    1.5130   20.7569 O   0  0  0  0  0  0  0  0  0  0  0  0
    7.0166    0.8999   19.9497 C   0  0  0  0  0  0  0  0  0  0  0  0
    5.7151    1.3676   20.0120 C   0  0  0  0  0  0  0  0  0  0  0  0
    4.8652    1.0961   18.9538 C   0  0  0  0  0  0  0  0  0  0  0  0
    5.3468    0.3731   17.8860 C   0  0  0  0  0  0  0  0  0  0  0  0
    6.5973   -0.0851   17.8134 N   0  0  0  0  0  0  0  0  0  0  0  0
    7.4125    0.1803   18.8383 C   0  0  0  0  0  0  0  0  0  0  0  0
    6.1820   -5.5693   23.5279 C   0  0  0  0  0  0  0  0  0  0  0  0
    5.6834   -6.6652   22.5971 C   0  0  0  0  0  0  0  0  0  0  0  0
    5.4412   -5.6160   24.8134 N   0  0  0  0  0  0  0  0  0  0  0  0
    3.9855   -5.4931   24.7611 C   0  0  0  0  0  0  0  0  0  0  0  0
    6.0447   -5.7811   26.0162 C   0  0  0  0  0  0  0  0  0  0  0  0
    7.2545   -5.9005   26.0544 O   0  0  0  0  0  0  0  0  0  0  0  0
    5.2556   -5.8175   27.3130 C   0  0  0  0  0  0  0  0  0  0  0  0
    6.0484   -5.1856   28.4505 C   0  0  0  0  0  0  0  0  0  0  0  0
    5.2703   -5.2610   29.7480 C   0  0  0  0  0  0  0  0  0  0  0  0
    4.9448   -6.6514   30.0543 N   0  0  0  0  0  0  0  0  0  0  0  0
    4.1385   -7.2836   29.0157 C   0  0  0  0  0  0  0  0  0  0  0  0
    4.8832   -7.2509   27.6853 C   0  0  0  0  0  0  0  0  0  0  0  0
    5.0905   -7.2486   31.2583 C   0  0  0  0  0  0  0  0  0  0  0  0
    4.8034   -8.4288   31.4149 O   0  0  0  0  0  0  0  0  0  0  0  0
    5.6263   -6.4250   32.4138 C   0  0  0  0  0  0  0  0  0  0  0  0
    5.5489   -7.3459   33.9214 Cl  0  0  0  0  0  0  0  0  0  0  0  0
  1  2  1  0
  2  3  1  0
  3  4  1  0
  4  5  1  0
  5  6  2  0
  6  7  1  0
  7  8  2  0
  8  9  1  0
  9 10  2  0
 10 11  1  0
 11 12  2  0
 12 13  1  0
  6 14  1  0
 14 15  1  0
 14 16  1  0
 16 17  2  0
 16 18  2  0
 16 19  1  0
 19 20  2  0
 20 21  1  0
 21 22  2  0
 22 23  1  0
 23 24  2  0
  2 25  1  0
 25 26  1  0
 25 27  1  0
 27 28  1  0
 27 29  1  0
 29 30  2  0
 29 31  1  0
 31 32  1  0
 32 33  1  0
 33 34  1  0
 34 35  1  0
 35 36  1  0
 34 37  1  0
 37 38  2  0
 37 39  1  0
 39 40  1  0
 15  4  2  0
 24 19  1  0
 36 31  1  0
 12  7  1  0
M  END
