CVD-0002645|dock_bobby27042020.5|mol2|4|dock1
     RDKit          3D

 24 26  0  0  0  0  0  0  0  0999 V2000
    2.6415    2.9328   21.7701 C   0  0  0  0  0  0  0  0  0  0  0  0
    3.2600    1.9928   20.7775 C   0  0  0  0  0  0  0  0  0  0  0  0
    2.5709    1.1888   20.1592 O   0  0  0  0  0  0  0  0  0  0  0  0
    4.6078    2.1230   20.6664 N   0  0  0  0  0  0  0  0  0  0  0  0
    5.5506    1.4227   19.8642 C   0  0  0  0  0  0  0  0  0  0  0  0
    5.3205    1.0412   18.5429 C   0  0  0  0  0  0  0  0  0  0  0  0
    6.2094    0.3841   17.7914 N   0  0  0  0  0  0  0  0  0  0  0  0
    7.3832    0.0829   18.3407 C   0  0  0  0  0  0  0  0  0  0  0  0
    7.7176    0.4105   19.6361 C   0  0  0  0  0  0  0  0  0  0  0  0
    6.7958    1.0887   20.4262 C   0  0  0  0  0  0  0  0  0  0  0  0
    7.2041    1.4237   21.8450 C   0  0  0  0  0  0  0  0  0  0  0  0
    7.8829    2.7790   21.9979 C   0  0  0  0  0  0  0  0  0  0  0  0
    8.5688    2.9597   23.3406 C   0  0  0  0  0  0  0  0  0  0  0  0
    9.7729    2.1343   23.4623 N   0  0  0  0  0  0  0  0  0  0  0  0
    9.8878    0.8880   23.9501 C   0  0  0  0  0  0  0  0  0  0  0  0
   11.2030    0.5698   23.8116 C   0  0  0  0  0  0  0  0  0  0  0  0
   11.8360    1.6290   23.2381 N   0  0  0  0  0  0  0  0  0  0  0  0
   10.9580    2.5809   23.0143 N   0  0  0  0  0  0  0  0  0  0  0  0
   11.9036   -0.6862   24.1904 C   0  0  0  0  0  0  0  0  0  0  0  0
   12.8213   -0.4455   25.3663 C   0  0  0  0  0  0  0  0  0  0  0  0
   13.6149   -1.7023   25.7085 C   0  0  0  0  0  0  0  0  0  0  0  0
   14.3845   -2.2084   24.5165 C   0  0  0  0  0  0  0  0  0  0  0  0
   13.4760   -2.4314   23.3307 C   0  0  0  0  0  0  0  0  0  0  0  0
   12.6776   -1.1812   22.9868 C   0  0  0  0  0  0  0  0  0  0  0  0
  1  2  1  0
  2  3  2  0
  2  4  1  0
  4  5  1  0
  5  6  2  0
  6  7  1  0
  7  8  2  0
  8  9  1  0
  9 10  2  0
 10 11  1  0
 11 12  1  0
 12 13  1  0
 13 14  1  0
 14 15  1  0
 15 16  2  0
 16 17  1  0
 17 18  2  0
 16 19  1  0
 19 20  1  0
 20 21  1  0
 21 22  1  0
 22 23  1  0
 23 24  1  0
 10  5  1  0
 18 14  1  0
 24 19  1  0
M  END
