CVD-0000953|dock_bobby27042020.40|mol2|1|dock1
     RDKit          3D

 19 21  0  0  0  0  0  0  0  0999 V2000
    7.8349   -0.2148   19.4115 C   0  0  0  0  0  0  0  0  0  0  0  0
    7.9494    0.0533   20.8680 C   0  0  0  0  0  0  0  0  0  0  0  0
    9.3138    0.3416   21.2025 O   0  0  0  0  0  0  0  0  0  0  0  0
    9.6234    0.5425   22.5904 C   0  0  0  0  0  0  0  0  0  0  0  0
    9.7927   -0.8041   23.3248 C   0  0  0  0  0  0  0  0  0  0  0  0
   11.0590   -1.4790   22.7540 C   0  0  0  0  0  0  0  0  0  0  0  0
   12.3476   -0.7379   23.0962 C   0  0  0  0  0  0  0  0  0  0  0  0
   13.4431   -1.3080   22.2960 C   0  0  0  0  0  0  0  0  0  0  0  0
   14.2715   -1.7847   21.6765 N   0  0  0  0  0  0  0  0  0  0  0  0
   12.1639    0.7368   22.8443 C   0  0  0  0  0  0  0  0  0  0  0  0
   13.1453    1.7574   22.8000 C   0  0  0  0  0  0  0  0  0  0  0  0
   12.6815    3.0147   22.5321 C   0  0  0  0  0  0  0  0  0  0  0  0
   10.9665    2.9977   22.3161 S   0  0  0  0  0  0  0  0  0  0  0  0
   10.9331    1.2864   22.5963 C   0  0  0  0  0  0  0  0  0  0  0  0
   13.4072    4.2709   22.3932 C   0  0  0  0  0  0  0  0  0  0  0  0
   14.4289    4.7007   23.0461 N   0  0  0  0  0  0  0  0  0  0  0  0
   14.7245    5.9512   22.5214 N   0  0  0  0  0  0  0  0  0  0  0  0
   13.8645    6.1618   21.6092 C   0  0  0  0  0  0  0  0  0  0  0  0
   12.9804    5.1460   21.4522 O   0  0  0  0  0  0  0  0  0  0  0  0
  1  2  1  0
  2  3  1  0
  3  4  1  0
  4  5  1  0
  5  6  1  0
  6  7  1  0
  7  8  1  0
  8  9  3  0
  7 10  1  0
 10 11  1  0
 11 12  2  0
 12 13  1  0
 13 14  1  0
 12 15  1  0
 15 16  2  0
 16 17  1  0
 17 18  2  0
 18 19  1  0
 14  4  1  0
 19 15  1  0
 14 10  2  0
M  END
