CVD-0002940|dock_bobby27042020.61|mol2|27|dock3
     RDKit          3D

 18 19  0  0  0  0  0  0  0  0999 V2000
   14.2644   -2.1594   24.2743 N   0  0  0  0  0  0  0  0  0  0  0  0
   13.8697   -0.9119   23.6568 C   0  0  0  0  0  0  0  0  0  0  0  0
   12.4179   -0.8094   23.2592 C   0  0  0  0  0  0  0  0  0  0  0  0
   11.5398   -0.0072   23.9707 C   0  0  0  0  0  0  0  0  0  0  0  0
   10.2092    0.0899   23.6044 C   0  0  0  0  0  0  0  0  0  0  0  0
    9.7168   -0.6120   22.5135 C   0  0  0  0  0  0  0  0  0  0  0  0
   10.5970   -1.4144   21.8016 C   0  0  0  0  0  0  0  0  0  0  0  0
   11.9275   -1.5107   22.1688 C   0  0  0  0  0  0  0  0  0  0  0  0
    8.2657   -0.5105   22.1165 C   0  0  0  0  0  0  0  0  0  0  0  0
    8.0121    0.5808   21.1025 C   0  0  0  0  0  0  0  0  0  0  0  0
    6.5541    0.5496   20.6995 C   0  0  0  0  0  0  0  0  0  0  0  0
    6.2036   -0.8043   20.2237 N   0  0  0  0  0  0  0  0  0  0  0  0
    6.5006   -1.8456   21.2031 C   0  0  0  0  0  0  0  0  0  0  0  0
    7.8566   -1.7831   21.5855 O   0  0  0  0  0  0  0  0  0  0  0  0
    5.6593   -1.0439   19.0079 C   0  0  0  0  0  0  0  0  0  0  0  0
    5.3866   -2.1820   18.6470 O   0  0  0  0  0  0  0  0  0  0  0  0
    5.3825    0.1336   18.0926 C   0  0  0  0  0  0  0  0  0  0  0  0
    4.2047    1.2409   18.8094 Cl  0  0  0  0  0  0  0  0  0  0  0  0
  1  2  1  0
  2  3  1  0
  3  4  2  0
  4  5  1  0
  5  6  2  0
  6  7  1  0
  7  8  2  0
  6  9  1  0
  9 10  1  0
 10 11  1  0
 11 12  1  0
 12 13  1  0
 13 14  1  0
 12 15  1  0
 15 16  2  0
 15 17  1  0
 17 18  1  0
  8  3  1  0
 14  9  1  0
M  END
