CVD-0000465|dock_bobby27042020.27|mol2|9|dock1
     RDKit          3D

 19 20  0  0  0  0  0  0  0  0999 V2000
    5.2685    0.5072   17.9865 C   0  0  0  0  0  0  0  0  0  0  0  0
    6.2952    0.5500   19.1049 C   0  0  0  0  0  0  0  0  0  0  0  0
    5.9759    1.9368   20.1945 Cl  0  0  0  0  0  0  0  0  0  0  0  0
    6.4078   -0.7178   19.8992 C   0  0  0  0  0  0  0  0  0  0  0  0
    5.6565   -1.6415   19.6505 O   0  0  0  0  0  0  0  0  0  0  0  0
    7.3361   -0.8146   20.8766 N   0  0  0  0  0  0  0  0  0  0  0  0
    8.3060    0.2167   21.2355 C   0  0  0  0  0  0  0  0  0  0  0  0
    9.6803   -0.3995   21.3971 C   0  0  0  0  0  0  0  0  0  0  0  0
    9.6524   -1.5031   22.4473 C   0  0  0  0  0  0  0  0  0  0  0  0
    8.5922   -2.5367   22.0735 C   0  0  0  0  0  0  0  0  0  0  0  0
    7.2352   -1.8678   21.8812 C   0  0  0  0  0  0  0  0  0  0  0  0
   11.0187   -2.1533   22.5880 C   0  0  0  0  0  0  0  0  0  0  0  0
   11.2185   -3.2538   22.1115 O   0  0  0  0  0  0  0  0  0  0  0  0
   12.0090   -1.5178   23.2550 N   0  0  0  0  0  0  0  0  0  0  0  0
   11.9186   -0.1860   23.8566 C   0  0  0  0  0  0  0  0  0  0  0  0
   12.2482   -0.2470   25.3336 C   0  0  0  0  0  0  0  0  0  0  0  0
   13.6164   -0.8884   25.5613 C   0  0  0  0  0  0  0  0  0  0  0  0
   13.6853   -2.2434   24.8783 C   0  0  0  0  0  0  0  0  0  0  0  0
   13.3293   -2.1391   23.4126 C   0  0  0  0  0  0  0  0  0  0  0  0
  1  2  1  0
  2  3  1  0
  2  4  1  0
  4  5  2  0
  4  6  1  0
  6  7  1  0
  7  8  1  0
  8  9  1  0
  9 10  1  0
 10 11  1  0
  9 12  1  0
 12 13  2  0
 12 14  1  0
 14 15  1  0
 15 16  1  0
 16 17  1  0
 17 18  1  0
 18 19  1  0
 11  6  1  0
 19 14  1  0
M  END
