CVD-0001365|dock_bobby27042020.10|mol2|2|dock3
     RDKit          3D

 33 35  0  0  0  0  0  0  0  0999 V2000
    6.5867   -7.9655   30.2886 C   0  0  0  0  0  0  0  0  0  0  0  0
    6.2536   -6.8616   29.3051 C   0  0  0  0  0  0  0  0  0  0  0  0
    5.6910   -5.6481   30.0175 C   0  0  0  0  0  0  0  0  0  0  0  0
    5.2678   -7.3637   28.2705 C   0  0  0  0  0  0  0  0  0  0  0  0
    7.4885   -6.4685   28.5862 O   0  0  0  0  0  0  0  0  0  0  0  0
    7.5295   -5.4662   27.6898 C   0  0  0  0  0  0  0  0  0  0  0  0
    6.5965   -4.7654   27.3624 O   0  0  0  0  0  0  0  0  0  0  0  0
    8.8191   -5.3854   27.2170 N   0  0  0  0  0  0  0  0  0  0  0  0
    9.3101   -4.4705   26.2576 C   0  0  0  0  0  0  0  0  0  0  0  0
    9.9953   -4.7198   25.1003 C   0  0  0  0  0  0  0  0  0  0  0  0
   10.4122   -3.6673   24.2563 C   0  0  0  0  0  0  0  0  0  0  0  0
   10.1490   -2.3547   24.5485 C   0  0  0  0  0  0  0  0  0  0  0  0
    9.4571   -2.0994   25.7169 N   0  0  0  0  0  0  0  0  0  0  0  0
    9.0113   -3.0612   26.6061 C   0  0  0  0  0  0  0  0  0  0  0  0
    8.3994   -2.7467   27.6259 O   0  0  0  0  0  0  0  0  0  0  0  0
   10.5546   -1.2003   23.7193 C   0  0  0  0  0  0  0  0  0  0  0  0
   11.3850   -0.2527   24.3256 C   0  0  0  0  0  0  0  0  0  0  0  0
   11.8701    0.8330   23.6194 C   0  0  0  0  0  0  0  0  0  0  0  0
   11.5463    0.9876   22.2926 C   0  0  0  0  0  0  0  0  0  0  0  0
   10.7091    0.0737   21.6798 C   0  0  0  0  0  0  0  0  0  0  0  0
   10.1650   -1.0064   22.3757 C   0  0  0  0  0  0  0  0  0  0  0  0
    9.1766   -1.8858   21.6337 C   0  0  0  0  0  0  0  0  0  0  0  0
    8.0993   -1.1196   20.8851 C   0  0  0  0  0  0  0  0  0  0  0  0
    7.1227   -2.0467   20.3007 N   0  0  0  0  0  0  0  0  0  0  0  0
    6.3655   -1.6619   18.9324 S   0  0  0  0  0  0  0  0  0  0  0  0
    5.4076   -2.6957   18.6848 O   0  0  0  0  0  0  0  0  0  0  0  0
    7.3801   -1.3949   17.9591 O   0  0  0  0  0  0  0  0  0  0  0  0
    5.4837   -0.1652   19.2182 C   0  0  0  0  0  0  0  0  0  0  0  0
    4.8660    0.0421   20.4410 C   0  0  0  0  0  0  0  0  0  0  0  0
    4.1706    1.2206   20.6545 C   0  0  0  0  0  0  0  0  0  0  0  0
    4.0930    2.1748   19.6624 C   0  0  0  0  0  0  0  0  0  0  0  0
    4.7090    1.9594   18.4479 C   0  0  0  0  0  0  0  0  0  0  0  0
    5.4090    0.7874   18.2150 C   0  0  0  0  0  0  0  0  0  0  0  0
  1  2  1  0
  2  3  1  0
  2  4  1  0
  2  5  1  0
  5  6  1  0
  6  7  2  0
  6  8  1  0
  8  9  1  0
  9 10  2  0
 10 11  1  0
 11 12  2  0
 12 13  1  0
 13 14  1  0
 14 15  2  0
 12 16  1  0
 16 17  2  0
 17 18  1  0
 18 19  2  0
 19 20  1  0
 20 21  2  0
 21 22  1  0
 22 23  1  0
 23 24  1  0
 24 25  1  0
 25 26  2  0
 25 27  2  0
 25 28  1  0
 28 29  2  0
 29 30  1  0
 30 31  2  0
 31 32  1  0
 32 33  2  0
 14  9  1  0
 21 16  1  0
 33 28  1  0
M  END
