CVD-0000034|dock_bobby27042020.57|mol2|28|dock3
     RDKit          3D

 23 25  0  0  0  0  0  0  0  0999 V2000
    9.7901   -2.8266   22.8312 O   0  0  0  0  0  0  0  0  0  0  0  0
    9.6876   -1.3969   22.9377 S   0  0  0  0  0  0  0  0  0  0  0  0
    9.1048   -0.8324   24.1242 O   0  0  0  0  0  0  0  0  0  0  0  0
    8.8040   -0.8025   21.5526 C   0  0  0  0  0  0  0  0  0  0  0  0
    7.6492   -1.3299   21.1839 C   0  0  0  0  0  0  0  0  0  0  0  0
    6.8236   -0.9201   20.0417 C   0  0  0  0  0  0  0  0  0  0  0  0
    6.8441    0.3782   19.5442 C   0  0  0  0  0  0  0  0  0  0  0  0
    6.0465    0.7149   18.4646 C   0  0  0  0  0  0  0  0  0  0  0  0
    5.2474   -0.2595   17.9103 C   0  0  0  0  0  0  0  0  0  0  0  0
    5.2028   -1.5141   18.3618 N   0  0  0  0  0  0  0  0  0  0  0  0
    5.9799   -1.8206   19.4050 C   0  0  0  0  0  0  0  0  0  0  0  0
   11.3041   -0.7188   22.7484 C   0  0  0  0  0  0  0  0  0  0  0  0
   12.3994   -1.5598   22.6410 C   0  0  0  0  0  0  0  0  0  0  0  0
   13.6589   -1.0046   22.4880 C   0  0  0  0  0  0  0  0  0  0  0  0
   13.8178    0.3706   22.4418 C   0  0  0  0  0  0  0  0  0  0  0  0
   12.7204    1.2188   22.5472 C   0  0  0  0  0  0  0  0  0  0  0  0
   11.4530    0.6586   22.7013 C   0  0  0  0  0  0  0  0  0  0  0  0
   12.8861    2.6899   22.4976 C   0  0  0  0  0  0  0  0  0  0  0  0
   11.9059    3.4323   23.0275 N   0  0  0  0  0  0  0  0  0  0  0  0
   12.0790    4.7587   22.9704 C   0  0  0  0  0  0  0  0  0  0  0  0
   13.1859    5.3506   22.4077 C   0  0  0  0  0  0  0  0  0  0  0  0
   14.1293    4.4914   21.8941 C   0  0  0  0  0  0  0  0  0  0  0  0
   14.0028    3.1589   21.9267 N   0  0  0  0  0  0  0  0  0  0  0  0
  1  2  2  0
  2  3  2  0
  2  4  1  0
  4  5  2  0
  5  6  1  0
  6  7  2  0
  7  8  1  0
  8  9  2  0
  9 10  1  0
 10 11  2  0
  2 12  1  0
 12 13  2  0
 13 14  1  0
 14 15  2  0
 15 16  1  0
 16 17  2  0
 16 18  1  0
 18 19  2  0
 19 20  1  0
 20 21  2  0
 21 22  1  0
 22 23  2  0
 11  6  1  0
 17 12  1  0
 23 18  1  0
M  END
