CVD-0001472|dock_bobby27042020.38|mol2|6|dock3
     RDKit          3D

 33 36  0  0  0  0  0  0  0  0999 V2000
    3.3175   -7.9344   26.8743 C   0  0  0  0  0  0  0  0  0  0  0  0
    4.0813   -7.2441   26.0656 C   0  0  0  0  0  0  0  0  0  0  0  0
    4.0991   -7.3443   24.5737 C   0  0  0  0  0  0  0  0  0  0  0  0
    3.5335   -8.3050   24.0544 O   0  0  0  0  0  0  0  0  0  0  0  0
    4.7062   -6.4385   23.7683 N   0  0  0  0  0  0  0  0  0  0  0  0
    4.6206   -6.2371   22.3253 C   0  0  0  0  0  0  0  0  0  0  0  0
    5.1719   -4.8051   22.5478 C   0  0  0  0  0  0  0  0  0  0  0  0
    5.0667   -5.0535   24.0673 C   0  0  0  0  0  0  0  0  0  0  0  0
    6.5510   -4.6223   22.0618 N   0  0  0  0  0  0  0  0  0  0  0  0
    7.2968   -3.1923   22.1189 S   0  0  0  0  0  0  0  0  0  0  0  0
    6.6914   -2.4710   23.1964 O   0  0  0  0  0  0  0  0  0  0  0  0
    8.6997   -3.4734   22.1457 O   0  0  0  0  0  0  0  0  0  0  0  0
    6.9438   -2.3233   20.6135 C   0  0  0  0  0  0  0  0  0  0  0  0
    6.0776   -2.9871   19.7554 C   0  0  0  0  0  0  0  0  0  0  0  0
    5.7046   -2.3861   18.5660 C   0  0  0  0  0  0  0  0  0  0  0  0
    6.1887   -1.1409   18.2350 C   0  0  0  0  0  0  0  0  0  0  0  0
    7.0659   -0.4856   19.0811 C   0  0  0  0  0  0  0  0  0  0  0  0
    7.4792   -1.0643   20.2825 C   0  0  0  0  0  0  0  0  0  0  0  0
    8.4517   -0.2649   21.0853 C   0  0  0  0  0  0  0  0  0  0  0  0
    9.6955   -0.7972   21.4036 C   0  0  0  0  0  0  0  0  0  0  0  0
   10.6183   -0.0809   22.1439 C   0  0  0  0  0  0  0  0  0  0  0  0
   10.3307    1.2005   22.5981 C   0  0  0  0  0  0  0  0  0  0  0  0
   11.3274    1.8665   23.3433 N   0  0  0  0  0  0  0  0  0  0  0  0
   11.8898    3.1332   23.2834 C   0  0  0  0  0  0  0  0  0  0  0  0
   12.0934    3.7100   22.0302 C   0  0  0  0  0  0  0  0  0  0  0  0
   12.6534    4.9728   21.9601 C   0  0  0  0  0  0  0  0  0  0  0  0
   13.0004    5.6390   23.1292 C   0  0  0  0  0  0  0  0  0  0  0  0
   12.7601    4.9847   24.3330 C   0  0  0  0  0  0  0  0  0  0  0  0
   12.2193    3.7638   24.4145 N   0  0  0  0  0  0  0  0  0  0  0  0
   13.5865    6.9562   23.0959 C   0  0  0  0  0  0  0  0  0  0  0  0
   14.0396    8.0031   23.0385 N   0  0  0  0  0  0  0  0  0  0  0  0
    9.0842    1.7408   22.2900 C   0  0  0  0  0  0  0  0  0  0  0  0
    8.1668    1.0143   21.5509 C   0  0  0  0  0  0  0  0  0  0  0  0
  1  2  2  0
  2  3  1  0
  3  4  2  0
  3  5  1  0
  5  6  1  0
  6  7  1  0
  7  8  1  0
  7  9  1  0
  9 10  1  0
 10 11  2  0
 10 12  2  0
 10 13  1  0
 13 14  2  0
 14 15  1  0
 15 16  2  0
 16 17  1  0
 17 18  2  0
 18 19  1  0
 19 20  2  0
 20 21  1  0
 21 22  2  0
 22 23  1  0
 23 24  1  0
 24 25  2  0
 25 26  1  0
 26 27  2  0
 27 28  1  0
 28 29  2  0
 27 30  1  0
 30 31  3  0
 22 32  1  0
 32 33  2  0
  8  5  1  0
 18 13  1  0
 33 19  1  0
 29 24  1  0
M  END
