CVD-0001948|dock_bobby27042020.7|mol2|48|dock1
     RDKit          3D

 21 23  0  0  0  0  0  0  0  0999 V2000
   14.0831    6.3836   22.1405 C   0  0  0  0  0  0  0  0  0  0  0  0
   13.7476    4.9918   22.4521 N   0  0  0  0  0  0  0  0  0  0  0  0
   12.3530    4.6278   22.1798 C   0  0  0  0  0  0  0  0  0  0  0  0
   12.0855    3.1779   22.4876 C   0  0  0  0  0  0  0  0  0  0  0  0
   13.0571    2.1967   22.7439 C   0  0  0  0  0  0  0  0  0  0  0  0
   12.4326    0.9868   22.9928 C   0  0  0  0  0  0  0  0  0  0  0  0
   13.0949   -0.3079   23.3140 C   0  0  0  0  0  0  0  0  0  0  0  0
   13.7207   -0.5240   24.5473 C   0  0  0  0  0  0  0  0  0  0  0  0
   14.3492   -1.7239   24.8359 C   0  0  0  0  0  0  0  0  0  0  0  0
   14.3538   -2.7504   23.9201 C   0  0  0  0  0  0  0  0  0  0  0  0
   13.7298   -2.5815   22.6990 C   0  0  0  0  0  0  0  0  0  0  0  0
   13.1266   -1.3772   22.4238 C   0  0  0  0  0  0  0  0  0  0  0  0
   12.5491   -1.2684   21.2053 F   0  0  0  0  0  0  0  0  0  0  0  0
   11.0651    1.2156   22.8890 N   0  0  0  0  0  0  0  0  0  0  0  0
    9.9313    0.3004   23.0937 C   0  0  0  0  0  0  0  0  0  0  0  0
    9.1274    0.0706   21.8219 C   0  0  0  0  0  0  0  0  0  0  0  0
    7.8975   -0.8116   22.0512 C   0  0  0  0  0  0  0  0  0  0  0  0
    8.0433   -2.2059   21.7068 C   0  0  0  0  0  0  0  0  0  0  0  0
    7.2509   -1.2956   20.8244 C   0  0  0  0  0  0  0  0  0  0  0  0
    7.8487   -0.9380   19.4659 C   0  0  0  0  0  0  0  0  0  0  0  0
   10.8646    2.5326   22.5959 C   0  0  0  0  0  0  0  0  0  0  0  0
  1  2  1  0
  2  3  1  0
  3  4  1  0
  4  5  1  0
  5  6  2  0
  6  7  1  0
  7  8  2  0
  8  9  1  0
  9 10  2  0
 10 11  1  0
 11 12  2  0
 12 13  1  0
  6 14  1  0
 14 15  1  0
 15 16  1  0
 16 17  1  0
 17 18  1  0
 18 19  1  0
 19 20  1  0
 14 21  1  0
 21  4  2  0
 12  7  1  0
 19 17  1  0
M  END
