CVD-0002130|dock_bobby27042020.21|mol2|26|dock2
     RDKit          3D

 21 22  0  0  0  0  0  0  0  0999 V2000
    5.6064   -1.6259   18.0329 N   0  0  0  0  0  0  0  0  0  0  0  0
    6.0033   -0.1300   18.4441 S   0  0  0  0  0  0  0  0  0  0  0  0
    5.0235    0.3549   19.3737 O   0  0  0  0  0  0  0  0  0  0  0  0
    6.2575    0.6131   17.2432 O   0  0  0  0  0  0  0  0  0  0  0  0
    7.5498   -0.2422   19.3262 C   0  0  0  0  0  0  0  0  0  0  0  0
    7.3419   -1.1829   20.8488 S   0  0  0  0  0  0  0  0  0  0  0  0
    9.0512   -1.2518   21.4447 C   0  0  0  0  0  0  0  0  0  0  0  0
    9.3396   -0.2222   22.5171 C   0  0  0  0  0  0  0  0  0  0  0  0
   10.7694   -0.2480   22.9877 C   0  0  0  0  0  0  0  0  0  0  0  0
   11.4742   -1.3299   23.4058 C   0  0  0  0  0  0  0  0  0  0  0  0
   13.0621   -0.9227   23.8615 S   0  0  0  0  0  0  0  0  0  0  0  0
   12.8029    0.7212   23.5054 C   0  0  0  0  0  0  0  0  0  0  0  0
   11.5476    0.9574   23.0455 C   0  0  0  0  0  0  0  0  0  0  0  0
   11.0727    2.3367   22.6671 C   0  0  0  0  0  0  0  0  0  0  0  0
   12.0879    3.3761   22.8442 N   0  0  0  0  0  0  0  0  0  0  0  0
   13.0039    3.4119   21.6978 C   0  0  0  0  0  0  0  0  0  0  0  0
   14.0977    4.4452   21.8831 C   0  0  0  0  0  0  0  0  0  0  0  0
   13.5488    5.8438   22.1377 C   0  0  0  0  0  0  0  0  0  0  0  0
   14.5550    6.8135   22.4422 O   0  0  0  0  0  0  0  0  0  0  0  0
   12.5254    5.7613   23.2649 C   0  0  0  0  0  0  0  0  0  0  0  0
   11.4722    4.6952   23.0129 C   0  0  0  0  0  0  0  0  0  0  0  0
  1  2  1  0
  2  3  2  0
  2  4  2  0
  2  5  1  0
  5  6  1  0
  6  7  1  0
  7  8  1  0
  8  9  1  0
  9 10  2  0
 10 11  1  0
 11 12  1  0
 12 13  2  0
 13 14  1  0
 14 15  1  0
 15 16  1  0
 16 17  1  0
 17 18  1  0
 18 19  1  0
 18 20  1  0
 20 21  1  0
 13  9  1  0
 21 15  1  0
M  END
