CVD-0002781|dock_bobby27042020.76|mol2|7|dock2
     RDKit          3D

 17 18  0  0  0  0  0  0  0  0999 V2000
    8.5336   -2.9109   22.7642 C   0  0  0  0  0  0  0  0  0  0  0  0
    9.2094   -1.5519   22.5892 C   0  0  0  0  0  0  0  0  0  0  0  0
   10.7364   -1.6157   22.8468 C   0  0  0  0  0  0  0  0  0  0  0  0
   11.4363   -0.2579   22.7893 C   0  0  0  0  0  0  0  0  0  0  0  0
   12.9383   -0.3956   23.0375 C   0  0  0  0  0  0  0  0  0  0  0  0
   13.2165   -1.0854   24.3588 C   0  0  0  0  0  0  0  0  0  0  0  0
   12.5206   -2.4285   24.4418 C   0  0  0  0  0  0  0  0  0  0  0  0
   11.0225   -2.3000   24.1856 C   0  0  0  0  0  0  0  0  0  0  0  0
    8.9172   -1.0369   21.1865 C   0  0  0  0  0  0  0  0  0  0  0  0
    9.7794   -1.0752   20.3136 O   0  0  0  0  0  0  0  0  0  0  0  0
    7.6603   -0.5514   21.0287 N   0  0  0  0  0  0  0  0  0  0  0  0
    7.0117    0.0131   19.9018 C   0  0  0  0  0  0  0  0  0  0  0  0
    5.8267    0.7122   20.0924 C   0  0  0  0  0  0  0  0  0  0  0  0
    5.1781    1.2715   19.0055 C   0  0  0  0  0  0  0  0  0  0  0  0
    5.7330    1.1161   17.7566 C   0  0  0  0  0  0  0  0  0  0  0  0
    6.8679    0.4513   17.5403 N   0  0  0  0  0  0  0  0  0  0  0  0
    7.4871   -0.0860   18.5960 C   0  0  0  0  0  0  0  0  0  0  0  0
  2  1  1  0
  2  3  1  0
  3  4  1  0
  4  5  1  0
  5  6  1  0
  6  7  1  0
  7  8  1  0
  2  9  1  0
  9 10  2  0
  9 11  1  0
 11 12  1  0
 12 13  2  0
 13 14  1  0
 14 15  2  0
 15 16  1  0
 16 17  2  0
  8  3  1  0
 17 12  1  0
M  END
