CVD-0003273|dock_bobby27042020.17|mol2|3|dock2
     RDKit          3D

 36 36  0  0  0  0  0  0  0  0999 V2000
    3.9903    2.9104   21.0499 C   0  0  0  0  0  0  0  0  0  0  0  0
    4.0302    1.4519   20.6995 C   0  0  0  0  0  0  0  0  0  0  0  0
    3.1063    0.6927   20.9747 O   0  0  0  0  0  0  0  0  0  0  0  0
    5.1245    1.0325   20.0550 N   0  0  0  0  0  0  0  0  0  0  0  0
    5.2848   -0.3517   19.6411 C   0  0  0  0  0  0  0  0  0  0  0  0
    6.4662   -0.4812   18.6825 C   0  0  0  0  0  0  0  0  0  0  0  0
    6.3646    0.4533   17.6154 O   0  0  0  0  0  0  0  0  0  0  0  0
    5.5075   -1.2580   20.8484 C   0  0  0  0  0  0  0  0  0  0  0  0
    5.2838   -2.4632   20.7717 O   0  0  0  0  0  0  0  0  0  0  0  0
    5.9485   -0.6705   21.9605 N   0  0  0  0  0  0  0  0  0  0  0  0
    6.1946   -1.4316   23.1662 C   0  0  0  0  0  0  0  0  0  0  0  0
    7.5815   -2.0432   23.2113 C   0  0  0  0  0  0  0  0  0  0  0  0
    8.1379   -2.4084   22.1805 O   0  0  0  0  0  0  0  0  0  0  0  0
    8.1367   -2.1388   24.4232 N   0  0  0  0  0  0  0  0  0  0  0  0
    9.4659   -2.6886   24.6502 C   0  0  0  0  0  0  0  0  0  0  0  0
    9.4706   -4.2078   24.4157 C   0  0  0  0  0  0  0  0  0  0  0  0
    8.6068   -4.9638   25.3959 C   0  0  0  0  0  0  0  0  0  0  0  0
    9.1467   -5.4834   26.5623 C   0  0  0  0  0  0  0  0  0  0  0  0
    8.3551   -6.1798   27.4602 C   0  0  0  0  0  0  0  0  0  0  0  0
    7.0142   -6.3656   27.2015 C   0  0  0  0  0  0  0  0  0  0  0  0
    6.4651   -5.8553   26.0448 C   0  0  0  0  0  0  0  0  0  0  0  0
    7.2571   -5.1590   25.1473 C   0  0  0  0  0  0  0  0  0  0  0  0
   10.5257   -2.0246   23.7727 C   0  0  0  0  0  0  0  0  0  0  0  0
   11.2559   -2.6901   23.0426 O   0  0  0  0  0  0  0  0  0  0  0  0
   10.6052   -0.6929   23.8470 N   0  0  0  0  0  0  0  0  0  0  0  0
   11.5698    0.0589   23.0613 C   0  0  0  0  0  0  0  0  0  0  0  0
   11.1209    1.5218   22.9638 C   0  0  0  0  0  0  0  0  0  0  0  0
   12.2171    2.5639   22.7597 C   0  0  0  0  0  0  0  0  0  0  0  0
   11.7368    4.0025   22.7896 C   0  0  0  0  0  0  0  0  0  0  0  0
   12.8377    4.9544   22.7481 N   0  0  0  0  0  0  0  0  0  0  0  0
   13.4592    5.2976   21.6070 C   0  0  0  0  0  0  0  0  0  0  0  0
   14.4511    6.1807   21.7170 N   0  0  0  0  0  0  0  0  0  0  0  0
   13.1157    4.8099   20.5214 O   0  0  0  0  0  0  0  0  0  0  0  0
   12.9419   -0.0884   23.7149 C   0  0  0  0  0  0  0  0  0  0  0  0
   12.9725   -0.0755   25.0379 N   0  0  0  0  0  0  0  0  0  0  0  0
   13.9529   -0.2100   23.0198 O   0  0  0  0  0  0  0  0  0  0  0  0
  1  2  1  0
  2  3  2  0
  2  4  1  0
  4  5  1  0
  5  6  1  0
  6  7  1  0
  5  8  1  0
  8  9  2  0
  8 10  1  0
 10 11  1  0
 11 12  1  0
 12 13  2  0
 12 14  1  0
 14 15  1  0
 15 16  1  0
 16 17  1  0
 17 18  2  0
 18 19  1  0
 19 20  2  0
 20 21  1  0
 21 22  2  0
 15 23  1  0
 23 24  2  0
 23 25  1  0
 25 26  1  0
 26 27  1  0
 27 28  1  0
 28 29  1  0
 29 30  1  0
 30 31  1  0
 31 32  1  0
 31 33  2  0
 26 34  1  0
 34 35  1  0
 34 36  2  0
 22 17  1  0
M  END
