CVD-0000235|dock_bobby27042020.85|mol2|9|dock2
     RDKit          3D

 26 29  0  0  0  0  0  0  0  0999 V2000
    7.0079    0.4130   18.6816 C   0  0  0  0  0  0  0  0  0  0  0  0
    7.6170   -0.0530   19.9953 C   0  0  0  0  0  0  0  0  0  0  0  0
    7.8854    1.0599   20.9485 C   0  0  0  0  0  0  0  0  0  0  0  0
    7.1663    2.1541   21.0408 N   0  0  0  0  0  0  0  0  0  0  0  0
    7.7354    2.9062   22.0130 N   0  0  0  0  0  0  0  0  0  0  0  0
    8.7739    2.3092   22.5073 N   0  0  0  0  0  0  0  0  0  0  0  0
    8.8898    1.1177   21.8544 N   0  0  0  0  0  0  0  0  0  0  0  0
    9.9396    0.1878   22.1864 C   0  0  0  0  0  0  0  0  0  0  0  0
    9.6178   -1.1663   22.2834 C   0  0  0  0  0  0  0  0  0  0  0  0
   10.5995   -2.0868   22.5984 C   0  0  0  0  0  0  0  0  0  0  0  0
   11.8876   -1.6758   22.8424 C   0  0  0  0  0  0  0  0  0  0  0  0
   12.2278   -0.3379   22.7640 C   0  0  0  0  0  0  0  0  0  0  0  0
   11.2673    0.6164   22.4177 C   0  0  0  0  0  0  0  0  0  0  0  0
   11.5811    1.9976   22.2823 N   0  0  0  0  0  0  0  0  0  0  0  0
   12.5598    2.7661   22.8342 C   0  0  0  0  0  0  0  0  0  0  0  0
   13.4085    2.3506   23.6103 O   0  0  0  0  0  0  0  0  0  0  0  0
   12.5975    4.2632   22.4509 C   0  0  0  0  0  0  0  0  0  0  0  0
   12.7405    4.6398   20.9923 C   0  0  0  0  0  0  0  0  0  0  0  0
   13.9282    4.7484   21.8965 C   0  0  0  0  0  0  0  0  0  0  0  0
   11.9054    5.1418   23.4932 C   0  0  0  0  0  0  0  0  0  0  0  0
   10.5947    5.5525   23.3496 C   0  0  0  0  0  0  0  0  0  0  0  0
    9.9528    6.3185   24.2367 N   0  0  0  0  0  0  0  0  0  0  0  0
   10.6276    6.7043   25.3239 C   0  0  0  0  0  0  0  0  0  0  0  0
   11.9392    6.3380   25.5446 C   0  0  0  0  0  0  0  0  0  0  0  0
   12.8454    6.9178   27.1100 Br  0  0  0  0  0  0  0  0  0  0  0  0
   12.5965    5.5480   24.6268 C   0  0  0  0  0  0  0  0  0  0  0  0
  1  2  1  0
  2  3  1  0
  3  4  2  0
  4  5  1  0
  5  6  2  0
  6  7  1  0
  7  8  1  0
  8  9  2  0
  9 10  1  0
 10 11  2  0
 11 12  1  0
 12 13  2  0
 13 14  1  0
 14 15  1  0
 15 16  2  0
 15 17  1  0
 17 18  1  0
 18 19  1  0
 17 20  1  0
 20 21  2  0
 21 22  1  0
 22 23  2  0
 23 24  1  0
 24 25  1  0
 24 26  2  0
  7  3  1  0
 13  8  1  0
 19 17  1  0
 26 20  1  0
M  END
