CVD-0001093|dock_bobby27042020.96|mol2|26|dock1
     RDKit          3D

 22 23  0  0  0  0  0  0  0  0999 V2000
   13.4082    5.1487   22.1128 C   0  0  0  0  0  0  0  0  0  0  0  0
   13.8001    3.7374   22.3658 C   0  0  0  0  0  0  0  0  0  0  0  0
   12.6375    3.0101   22.7806 O   0  0  0  0  0  0  0  0  0  0  0  0
   12.6436    1.6365   22.7965 C   0  0  0  0  0  0  0  0  0  0  0  0
   13.8176    0.8908   22.8322 C   0  0  0  0  0  0  0  0  0  0  0  0
   13.7678   -0.4866   22.9429 C   0  0  0  0  0  0  0  0  0  0  0  0
   12.5520   -1.1248   23.0192 C   0  0  0  0  0  0  0  0  0  0  0  0
   11.3778   -0.3966   22.9446 C   0  0  0  0  0  0  0  0  0  0  0  0
   11.3904    0.9912   22.7884 C   0  0  0  0  0  0  0  0  0  0  0  0
   10.0641    1.6457   22.6391 C   0  0  0  0  0  0  0  0  0  0  0  0
    9.8783    2.6966   23.2625 O   0  0  0  0  0  0  0  0  0  0  0  0
    8.9620    1.1116   21.8160 C   0  0  0  0  0  0  0  0  0  0  0  0
    8.0347    1.8811   21.2510 C   0  0  0  0  0  0  0  0  0  0  0  0
    6.9087    1.4457   20.4095 C   0  0  0  0  0  0  0  0  0  0  0  0
    5.7241    2.1996   20.3939 C   0  0  0  0  0  0  0  0  0  0  0  0
    4.6212    1.8568   19.6287 C   0  0  0  0  0  0  0  0  0  0  0  0
    3.3705    2.7016   19.6428 C   0  0  0  0  0  0  0  0  0  0  0  0
    4.7048    0.7175   18.8464 C   0  0  0  0  0  0  0  0  0  0  0  0
    5.8591   -0.0415   18.8450 C   0  0  0  0  0  0  0  0  0  0  0  0
    5.9171   -1.5917   17.7557 Br  0  0  0  0  0  0  0  0  0  0  0  0
    6.9782    0.2857   19.6096 C   0  0  0  0  0  0  0  0  0  0  0  0
    8.0611   -0.5441   19.5265 O   0  0  0  0  0  0  0  0  0  0  0  0
  1  2  1  0
  2  3  1  0
  3  4  1  0
  4  5  2  0
  5  6  1  0
  6  7  2  0
  7  8  1  0
  8  9  2  0
  9 10  1  0
 10 11  2  0
 10 12  1  0
 12 13  2  0
 13 14  1  0
 14 15  2  0
 15 16  1  0
 16 17  1  0
 16 18  2  0
 18 19  1  0
 19 20  1  0
 19 21  2  0
 21 22  1  0
  9  4  1  0
 21 14  1  0
M  END
