CVD-0001581|dock_bobby27042020.37|mol2|41|dock1
     RDKit          3D

 14 15  0  0  0  0  0  0  0  0999 V2000
   14.1093    5.7011   22.1678 C   0  0  0  0  0  0  0  0  0  0  0  0
   14.2350    4.4342   22.8108 O   0  0  0  0  0  0  0  0  0  0  0  0
   13.2207    3.5127   22.7305 C   0  0  0  0  0  0  0  0  0  0  0  0
   11.9274    3.9943   22.5978 C   0  0  0  0  0  0  0  0  0  0  0  0
   10.8558    3.1233   22.5110 C   0  0  0  0  0  0  0  0  0  0  0  0
   11.0964    1.7558   22.5589 C   0  0  0  0  0  0  0  0  0  0  0  0
   10.2411    0.6833   22.4965 N   0  0  0  0  0  0  0  0  0  0  0  0
   10.9721   -0.4698   22.5875 C   0  0  0  0  0  0  0  0  0  0  0  0
   12.2994   -0.1813   22.7095 C   0  0  0  0  0  0  0  0  0  0  0  0
   13.4358   -1.1530   22.8360 C   0  0  0  0  0  0  0  0  0  0  0  0
   13.4713   -2.4115   21.9872 C   0  0  0  0  0  0  0  0  0  0  0  0
   13.7004   -2.1146   20.5729 N   0  0  0  0  0  0  0  0  0  0  0  0
   12.4022    1.2502   22.6932 C   0  0  0  0  0  0  0  0  0  0  0  0
   13.4680    2.1449   22.7790 C   0  0  0  0  0  0  0  0  0  0  0  0
  1  2  1  0
  2  3  1  0
  3  4  2  0
  4  5  1  0
  5  6  2  0
  6  7  1  0
  7  8  1  0
  8  9  2  0
  9 10  1  0
 10 11  1  0
 11 12  1  0
  9 13  1  0
 13 14  2  0
 14  3  1  0
 13  6  1  0
M  END
