CVD-0004027|dock_bobby27042020.43|mol2|21|dock3
     RDKit          3D

 26 28  0  0  0  0  0  0  0  0999 V2000
   14.3594    6.0788   21.6905 C   0  0  0  0  0  0  0  0  0  0  0  0
   13.4981    5.1824   22.9240 S   0  0  0  0  0  0  0  0  0  0  0  0
   14.3742    4.1722   23.4318 O   0  0  0  0  0  0  0  0  0  0  0  0
   12.9337    6.1219   23.8429 O   0  0  0  0  0  0  0  0  0  0  0  0
   12.2750    4.4287   22.2123 N   0  0  0  0  0  0  0  0  0  0  0  0
   11.3723    3.5929   23.0131 C   0  0  0  0  0  0  0  0  0  0  0  0
   11.9009    2.1682   23.0690 C   0  0  0  0  0  0  0  0  0  0  0  0
   10.8396    1.1174   23.4320 C   0  0  0  0  0  0  0  0  0  0  0  0
   11.4436   -0.2847   23.6586 C   0  0  0  0  0  0  0  0  0  0  0  0
   12.3158   -0.3939   24.9092 C   0  0  0  0  0  0  0  0  0  0  0  0
   12.8686   -1.8087   25.0799 C   0  0  0  0  0  0  0  0  0  0  0  0
   13.6384   -2.2505   23.8506 C   0  0  0  0  0  0  0  0  0  0  0  0
   12.7955   -2.1375   22.5969 C   0  0  0  0  0  0  0  0  0  0  0  0
   12.2325   -0.7304   22.4251 C   0  0  0  0  0  0  0  0  0  0  0  0
    9.7809    1.0122   22.3486 C   0  0  0  0  0  0  0  0  0  0  0  0
    9.9848    1.4325   21.2305 O   0  0  0  0  0  0  0  0  0  0  0  0
    8.4523    0.3688   22.6865 C   0  0  0  0  0  0  0  0  0  0  0  0
    7.3081    0.9000   21.8761 C   0  0  0  0  0  0  0  0  0  0  0  0
    6.4561    1.9099   22.2153 C   0  0  0  0  0  0  0  0  0  0  0  0
    5.5349    2.1164   21.2230 N   0  0  0  0  0  0  0  0  0  0  0  0
    5.7787    1.2326   20.2131 C   0  0  0  0  0  0  0  0  0  0  0  0
    5.1021    1.1069   19.0589 N   0  0  0  0  0  0  0  0  0  0  0  0
    5.5357    0.1577   18.2181 C   0  0  0  0  0  0  0  0  0  0  0  0
    6.6093   -0.6670   18.4782 C   0  0  0  0  0  0  0  0  0  0  0  0
    7.2960   -0.5238   19.6735 C   0  0  0  0  0  0  0  0  0  0  0  0
    6.8849    0.4490   20.5824 C   0  0  0  0  0  0  0  0  0  0  0  0
  1  2  1  0
  2  3  2  0
  2  4  2  0
  2  5  1  0
  5  6  1  0
  6  7  1  0
  7  8  1  0
  8  9  1  0
  9 10  1  0
 10 11  1  0
 11 12  1  0
 12 13  1  0
 13 14  1  0
  8 15  1  0
 15 16  2  0
 15 17  1  0
 17 18  1  0
 18 19  2  0
 19 20  1  0
 20 21  1  0
 21 22  2  0
 22 23  1  0
 23 24  2  0
 24 25  1  0
 25 26  2  0
 14  9  1  0
 26 18  1  0
 26 21  1  0
M  END
