CVD-0002097|dock_bobby27042020.50|mol2|18|dock2
     RDKit          3D

 21 23  0  0  0  0  0  0  0  0999 V2000
   10.1155    2.9402   23.3698 N   0  0  0  0  0  0  0  0  0  0  0  0
    9.2957    2.5609   22.1973 C   0  0  0  0  0  0  0  0  0  0  0  0
    8.4633    1.3093   22.4283 C   0  0  0  0  0  0  0  0  0  0  0  0
    9.3156    0.3496   23.0314 O   0  0  0  0  0  0  0  0  0  0  0  0
   10.1451   -0.3410   22.0728 C   0  0  0  0  0  0  0  0  0  0  0  0
    9.1683   -1.2354   21.2633 C   0  0  0  0  0  0  0  0  0  0  0  0
    8.1981   -0.3170   20.5365 C   0  0  0  0  0  0  0  0  0  0  0  0
    7.5976   -0.6506   19.3161 C   0  0  0  0  0  0  0  0  0  0  0  0
    8.1339   -1.6269   18.5164 O   0  0  0  0  0  0  0  0  0  0  0  0
    6.5402    0.1002   18.8091 C   0  0  0  0  0  0  0  0  0  0  0  0
    6.0321   -0.2103   17.5882 O   0  0  0  0  0  0  0  0  0  0  0  0
    6.0615    1.2001   19.5098 C   0  0  0  0  0  0  0  0  0  0  0  0
    6.6472    1.5385   20.7149 C   0  0  0  0  0  0  0  0  0  0  0  0
    7.7075    0.7921   21.2309 C   0  0  0  0  0  0  0  0  0  0  0  0
   11.2512   -0.9836   22.8876 C   0  0  0  0  0  0  0  0  0  0  0  0
   12.1648   -1.9017   22.0628 C   0  0  0  0  0  0  0  0  0  0  0  0
   13.2739   -2.5251   22.9163 C   0  0  0  0  0  0  0  0  0  0  0  0
   14.0765   -1.4596   23.6530 C   0  0  0  0  0  0  0  0  0  0  0  0
   13.1610   -0.5919   24.5025 C   0  0  0  0  0  0  0  0  0  0  0  0
   12.0678    0.0654   23.6534 C   0  0  0  0  0  0  0  0  0  0  0  0
   12.6392    1.0133   22.7507 O   0  0  0  0  0  0  0  0  0  0  0  0
  1  2  1  0
  2  3  1  0
  3  4  1  0
  4  5  1  0
  5  6  1  0
  6  7  1  0
  7  8  2  0
  8  9  1  0
  8 10  1  0
 10 11  1  0
 10 12  2  0
 12 13  1  0
 13 14  2  0
  5 15  1  0
 15 16  1  0
 16 17  1  0
 17 18  1  0
 18 19  1  0
 19 20  1  0
 20 21  1  0
 14  3  1  0
 20 15  1  0
 14  7  1  0
M  END
