CVD-0001873|dock_bobby27042020.8|mol2|13|dock1
     RDKit          3D

 29 30  0  0  0  0  0  0  0  0999 V2000
   14.2559   -2.0144   24.3541 C   0  0  0  0  0  0  0  0  0  0  0  0
   14.5023   -1.7588   22.9764 O   0  0  0  0  0  0  0  0  0  0  0  0
   13.3850   -2.0262   22.1506 C   0  0  0  0  0  0  0  0  0  0  0  0
   13.8997   -1.8892   20.7322 C   0  0  0  0  0  0  0  0  0  0  0  0
   12.2531   -1.0691   22.4401 C   0  0  0  0  0  0  0  0  0  0  0  0
   12.4892    0.2884   22.5973 C   0  0  0  0  0  0  0  0  0  0  0  0
   11.4546    1.1682   22.8608 C   0  0  0  0  0  0  0  0  0  0  0  0
   10.1468    0.7128   22.9775 C   0  0  0  0  0  0  0  0  0  0  0  0
    9.9078   -0.6468   22.8146 C   0  0  0  0  0  0  0  0  0  0  0  0
   10.9470   -1.5214   22.5512 C   0  0  0  0  0  0  0  0  0  0  0  0
    9.0767    1.6316   23.2425 N   0  0  0  0  0  0  0  0  0  0  0  0
    8.6888    2.5698   22.1554 C   0  0  0  0  0  0  0  0  0  0  0  0
    7.3027    2.2158   21.5764 C   0  0  0  0  0  0  0  0  0  0  0  0
    6.3070    2.8933   21.8178 O   0  0  0  0  0  0  0  0  0  0  0  0
    7.2797    1.1203   20.8066 N   0  0  0  0  0  0  0  0  0  0  0  0
    6.0909    0.5514   20.1335 C   0  0  0  0  0  0  0  0  0  0  0  0
    5.7954    1.3584   18.8771 C   0  0  0  0  0  0  0  0  0  0  0  0
    6.3799   -0.8960   19.7618 C   0  0  0  0  0  0  0  0  0  0  0  0
    4.9028    0.6138   21.0830 C   0  0  0  0  0  0  0  0  0  0  0  0
    8.8258    4.0373   22.5498 C   0  0  0  0  0  0  0  0  0  0  0  0
    8.1451    5.0232   21.8510 C   0  0  0  0  0  0  0  0  0  0  0  0
    8.2717    6.3502   22.2229 C   0  0  0  0  0  0  0  0  0  0  0  0
    9.0810    6.6568   23.2927 C   0  0  0  0  0  0  0  0  0  0  0  0
    9.7502    5.7363   23.9877 N   0  0  0  0  0  0  0  0  0  0  0  0
    9.6157    4.4617   23.6088 C   0  0  0  0  0  0  0  0  0  0  0  0
    8.3413    1.6989   24.4231 C   0  0  0  0  0  0  0  0  0  0  0  0
    7.4231    2.5099   24.5353 O   0  0  0  0  0  0  0  0  0  0  0  0
    8.5871    0.8385   25.6224 C   0  0  0  0  0  0  0  0  0  0  0  0
    8.0095    0.9975   26.7860 C   0  0  0  0  0  0  0  0  0  0  0  0
  1  2  1  0
  2  3  1  0
  3  4  1  0
  3  5  1  0
  5  6  2  0
  6  7  1  0
  7  8  2  0
  8  9  1  0
  9 10  2  0
  8 11  1  0
 11 12  1  0
 12 13  1  0
 13 14  2  0
 13 15  1  0
 15 16  1  0
 16 17  1  0
 16 18  1  0
 16 19  1  0
 12 20  1  0
 20 21  2  0
 21 22  1  0
 22 23  2  0
 23 24  1  0
 24 25  2  0
 11 26  1  0
 26 27  2  0
 26 28  1  0
 28 29  2  0
 10  5  1  0
 25 20  1  0
M  END
