CVD-0003788|dock_bobby27042020.1|mol2|2|dock2
     RDKit          3D

 23 25  0  0  0  0  0  0  0  0999 V2000
   13.0770    6.1614   23.3675 N   0  0  0  0  0  0  0  0  0  0  0  0
   13.5703    5.0734   22.3016 S   0  0  0  0  0  0  0  0  0  0  0  0
   14.9201    4.7327   22.6382 O   0  0  0  0  0  0  0  0  0  0  0  0
   13.2944    5.6012   20.9992 O   0  0  0  0  0  0  0  0  0  0  0  0
   12.5932    3.6142   22.4976 C   0  0  0  0  0  0  0  0  0  0  0  0
   13.2099    2.3853   22.6471 C   0  0  0  0  0  0  0  0  0  0  0  0
   12.4394    1.2462   22.7980 C   0  0  0  0  0  0  0  0  0  0  0  0
   11.0489    1.3089   22.8190 C   0  0  0  0  0  0  0  0  0  0  0  0
   10.4542    2.5592   22.6753 C   0  0  0  0  0  0  0  0  0  0  0  0
   11.2131    3.7041   22.5095 C   0  0  0  0  0  0  0  0  0  0  0  0
   10.2772    0.1624   22.9783 N   0  0  0  0  0  0  0  0  0  0  0  0
    9.0816    0.1196   23.8257 C   0  0  0  0  0  0  0  0  0  0  0  0
    9.0499   -1.1048   24.6960 C   0  0  0  0  0  0  0  0  0  0  0  0
    9.1514   -2.3812   23.8536 C   0  0  0  0  0  0  0  0  0  0  0  0
    9.1177   -3.6266   24.7183 C   0  0  0  0  0  0  0  0  0  0  0  0
    8.0021   -3.6030   25.6432 O   0  0  0  0  0  0  0  0  0  0  0  0
    7.8126   -4.5784   26.5678 C   0  0  0  0  0  0  0  0  0  0  0  0
    6.7780   -4.7519   27.4243 C   0  0  0  0  0  0  0  0  0  0  0  0
    6.9641   -5.9050   28.2246 C   0  0  0  0  0  0  0  0  0  0  0  0
    8.1034   -6.5653   27.9625 C   0  0  0  0  0  0  0  0  0  0  0  0
    9.0057   -5.8129   26.7258 S   0  0  0  0  0  0  0  0  0  0  0  0
   10.3924   -2.3007   23.0009 C   0  0  0  0  0  0  0  0  0  0  0  0
   10.4426   -1.0521   22.1464 C   0  0  0  0  0  0  0  0  0  0  0  0
  1  2  1  0
  2  3  2  0
  2  4  2  0
  2  5  1  0
  5  6  2  0
  6  7  1  0
  7  8  2  0
  8  9  1  0
  9 10  2  0
  8 11  1  0
 11 12  1  0
 12 13  1  0
 13 14  1  0
 14 15  1  0
 15 16  1  0
 16 17  1  0
 17 18  2  0
 18 19  1  0
 19 20  2  0
 20 21  1  0
 14 22  1  0
 22 23  1  0
 10  5  1  0
 23 11  1  0
 21 17  1  0
M  END
