CVD-0000122|dock_bobby27042020.14|mol2|9|dock1
     RDKit          3D

 24 27  0  0  0  0  0  0  0  0999 V2000
   13.5199    5.7380   22.0148 N   0  0  0  0  0  0  0  0  0  0  0  0
   13.6016    4.6803   23.2138 S   0  0  0  0  0  0  0  0  0  0  0  0
   14.9634    4.2461   23.3034 O   0  0  0  0  0  0  0  0  0  0  0  0
   12.9931    5.2896   24.3582 O   0  0  0  0  0  0  0  0  0  0  0  0
   12.6255    3.2710   22.7847 C   0  0  0  0  0  0  0  0  0  0  0  0
   11.3344    3.4505   22.3190 C   0  0  0  0  0  0  0  0  0  0  0  0
   10.5666    2.3730   21.9967 C   0  0  0  0  0  0  0  0  0  0  0  0
   11.0374    1.0397   22.1516 C   0  0  0  0  0  0  0  0  0  0  0  0
   10.2642   -0.1433   21.8993 C   0  0  0  0  0  0  0  0  0  0  0  0
   10.8839   -1.3747   21.9538 C   0  0  0  0  0  0  0  0  0  0  0  0
   12.2076   -1.5070   22.3332 C   0  0  0  0  0  0  0  0  0  0  0  0
   12.9491   -0.4154   22.6636 C   0  0  0  0  0  0  0  0  0  0  0  0
   12.3913    0.8814   22.5791 C   0  0  0  0  0  0  0  0  0  0  0  0
   13.1579    2.0234   22.9068 C   0  0  0  0  0  0  0  0  0  0  0  0
    8.8681   -0.1052   21.5963 N   0  0  0  0  0  0  0  0  0  0  0  0
    8.2196   -0.9273   20.0207 Se  0  0  0  0  0  2  0  0  0  0  0  0
    6.9119    0.4891   20.1979 C   0  0  0  0  0  0  0  0  0  0  0  0
    5.6750    0.5586   19.3368 C   0  0  0  0  0  0  0  0  0  0  0  0
    4.5669    1.1225   19.8165 C   0  0  0  0  0  0  0  0  0  0  0  0
    4.5246    1.6399   21.1292 C   0  0  0  0  0  0  0  0  0  0  0  0
    5.4547    1.3221   22.0313 C   0  0  0  0  0  0  0  0  0  0  0  0
    6.5715    0.3772   21.6817 C   0  0  0  0  0  0  0  0  0  0  0  0
    7.9315    0.5746   22.3268 C   0  0  0  0  0  0  0  0  0  0  0  0
    8.1628    1.2193   23.3323 O   0  0  0  0  0  0  0  0  0  0  0  0
  1  2  1  0
  2  3  2  0
  2  4  2  0
  2  5  1  0
  5  6  2  0
  6  7  1  0
  7  8  2  0
  8  9  1  0
  9 10  2  0
 10 11  1  0
 11 12  2  0
 12 13  1  0
 13 14  2  0
  9 15  1  0
 15 16  1  0
 16 17  1  0
 17 18  1  0
 18 19  2  0
 19 20  1  0
 20 21  2  0
 21 22  1  0
 22 23  1  0
 23 24  2  0
 14  5  1  0
 23 15  1  0
 13  8  1  0
 22 17  1  0
M  END
