CVD-0003263|dock_bobby27042020.60|mol2|21|dock1
     RDKit          3D

 38 38  0  0  0  0  0  0  0  0999 V2000
    7.4239   -7.0882   22.4320 C   0  0  0  0  0  0  0  0  0  0  0  0
    7.6482   -5.7659   23.1047 C   0  0  0  0  0  0  0  0  0  0  0  0
    6.8444   -4.8438   23.0079 O   0  0  0  0  0  0  0  0  0  0  0  0
    8.7833   -5.6467   23.8018 N   0  0  0  0  0  0  0  0  0  0  0  0
    9.1334   -4.4140   24.4881 C   0  0  0  0  0  0  0  0  0  0  0  0
   10.1615   -4.7016   25.5813 C   0  0  0  0  0  0  0  0  0  0  0  0
   11.4295   -5.0455   25.0365 O   0  0  0  0  0  0  0  0  0  0  0  0
    9.6814   -3.3879   23.4989 C   0  0  0  0  0  0  0  0  0  0  0  0
   10.8737   -3.3900   23.2047 O   0  0  0  0  0  0  0  0  0  0  0  0
    8.8117   -2.5145   22.9828 N   0  0  0  0  0  0  0  0  0  0  0  0
    9.2255   -1.4987   22.0287 C   0  0  0  0  0  0  0  0  0  0  0  0
    8.0171   -0.6566   21.5918 C   0  0  0  0  0  0  0  0  0  0  0  0
    7.2455   -1.2692   20.4483 C   0  0  0  0  0  0  0  0  0  0  0  0
    7.0257   -2.6369   20.3937 C   0  0  0  0  0  0  0  0  0  0  0  0
    6.3150   -3.1987   19.3463 C   0  0  0  0  0  0  0  0  0  0  0  0
    5.8149   -2.3990   18.3413 C   0  0  0  0  0  0  0  0  0  0  0  0
    6.0252   -1.0374   18.3841 C   0  0  0  0  0  0  0  0  0  0  0  0
    6.7361   -0.4761   19.4318 C   0  0  0  0  0  0  0  0  0  0  0  0
   10.2933   -0.5912   22.6324 C   0  0  0  0  0  0  0  0  0  0  0  0
   10.1312   -0.0943   23.7438 O   0  0  0  0  0  0  0  0  0  0  0  0
   11.3858   -0.3783   21.8934 N   0  0  0  0  0  0  0  0  0  0  0  0
   12.4712    0.4677   22.3618 C   0  0  0  0  0  0  0  0  0  0  0  0
   12.8534    0.0907   23.7911 C   0  0  0  0  0  0  0  0  0  0  0  0
   14.2336    0.3338   24.0333 O   0  0  0  0  0  0  0  0  0  0  0  0
   12.0729    1.9399   22.3132 C   0  0  0  0  0  0  0  0  0  0  0  0
   10.9720    2.2723   21.8821 O   0  0  0  0  0  0  0  0  0  0  0  0
   12.9750    2.8192   22.7583 N   0  0  0  0  0  0  0  0  0  0  0  0
   12.7100    4.2486   22.7619 C   0  0  0  0  0  0  0  0  0  0  0  0
   12.2181    4.6963   24.1403 C   0  0  0  0  0  0  0  0  0  0  0  0
   11.6848    6.1223   24.1664 C   0  0  0  0  0  0  0  0  0  0  0  0
   11.2958    6.5597   25.5650 C   0  0  0  0  0  0  0  0  0  0  0  0
   12.4509    6.7205   26.4367 N   0  0  0  0  0  0  0  0  0  0  0  0
   13.1631    7.8586   26.4965 C   0  0  0  0  0  0  0  0  0  0  0  0
   14.1958    7.8656   27.3386 N   0  0  0  0  0  0  0  0  0  0  0  0
   12.8617    8.8374   25.8000 O   0  0  0  0  0  0  0  0  0  0  0  0
   13.9795    5.0044   22.3778 C   0  0  0  0  0  0  0  0  0  0  0  0
   14.2850    5.0323   21.0905 N   0  0  0  0  0  0  0  0  0  0  0  0
   14.6655    5.5511   23.2442 O   0  0  0  0  0  0  0  0  0  0  0  0
  1  2  1  0
  2  3  2  0
  2  4  1  0
  4  5  1  0
  5  6  1  0
  6  7  1  0
  5  8  1  0
  8  9  2  0
  8 10  1  0
 10 11  1  0
 11 12  1  0
 12 13  1  0
 13 14  2  0
 14 15  1  0
 15 16  2  0
 16 17  1  0
 17 18  2  0
 11 19  1  0
 19 20  2  0
 19 21  1  0
 21 22  1  0
 22 23  1  0
 23 24  1  0
 22 25  1  0
 25 26  2  0
 25 27  1  0
 27 28  1  0
 28 29  1  0
 29 30  1  0
 30 31  1  0
 31 32  1  0
 32 33  1  0
 33 34  1  0
 33 35  2  0
 28 36  1  0
 36 37  1  0
 36 38  2  0
 18 13  1  0
M  END
