CVD-0003402|dock_bobby27042020.60|mol2|1|dock2
     RDKit          3D

 20 22  0  0  0  0  0  0  0  0999 V2000
    7.7869    0.4282   22.3553 O   0  0  0  0  0  0  0  0  0  0  0  0
    8.4028   -0.3907   21.6814 C   0  0  0  0  0  0  0  0  0  0  0  0
    9.4183   -1.3167   22.3129 C   0  0  0  0  0  0  0  0  0  0  0  0
   10.8609   -0.8229   22.1695 C   0  0  0  0  0  0  0  0  0  0  0  0
   11.0652    0.5208   22.8989 C   0  0  0  0  0  0  0  0  0  0  0  0
   12.5128    1.0043   22.8355 C   0  0  0  0  0  0  0  0  0  0  0  0
   13.4754   -0.0579   23.3505 C   0  0  0  0  0  0  0  0  0  0  0  0
   13.2919   -1.3726   22.6061 C   0  0  0  0  0  0  0  0  0  0  0  0
   11.8530   -1.8681   22.7076 C   0  0  0  0  0  0  0  0  0  0  0  0
    8.2579   -0.5681   20.3466 N   0  0  0  0  0  0  0  0  0  0  0  0
    7.4267    0.0784   19.4080 C   0  0  0  0  0  0  0  0  0  0  0  0
    7.7756    0.3666   18.0935 C   0  0  0  0  0  0  0  0  0  0  0  0
    6.9501    0.9842   17.2362 N   0  0  0  0  0  0  0  0  0  0  0  0
    5.7426    1.3437   17.6418 C   0  0  0  0  0  0  0  0  0  0  0  0
    5.2730    1.1066   18.9502 C   0  0  0  0  0  0  0  0  0  0  0  0
    4.0174    1.4929   19.3342 N   0  0  0  0  0  0  0  0  0  0  0  0
    3.6827    1.2202   20.5833 C   0  0  0  0  0  0  0  0  0  0  0  0
    4.5297    0.5834   21.4726 C   0  0  0  0  0  0  0  0  0  0  0  0
    5.7489    0.1923   21.1489 N   0  0  0  0  0  0  0  0  0  0  0  0
    6.1332    0.4553   19.8676 C   0  0  0  0  0  0  0  0  0  0  0  0
  1  2  2  0
  2  3  1  0
  3  4  1  0
  4  5  1  0
  5  6  1  0
  6  7  1  0
  7  8  1  0
  8  9  1  0
  2 10  1  0
 10 11  1  0
 11 12  2  0
 12 13  1  0
 13 14  2  0
 14 15  1  0
 15 16  2  0
 16 17  1  0
 17 18  2  0
 18 19  1  0
 19 20  2  0
  9  4  1  0
 20 11  1  0
 20 15  1  0
M  END
