CVD-0000749|dock_bobby27042020.40|mol2|31|dock2
     RDKit          3D

 20 22  0  0  0  0  0  0  0  0999 V2000
    8.5123   -0.2373   21.2529 O   0  0  0  0  0  0  0  0  0  0  0  0
    7.8616   -1.2759   21.2025 C   0  0  0  0  0  0  0  0  0  0  0  0
    8.3426   -2.5165   21.9250 C   0  0  0  0  0  0  0  0  0  0  0  0
    9.7115   -2.3576   22.5134 C   0  0  0  0  0  0  0  0  0  0  0  0
   10.1131   -2.4520   23.8141 C   0  0  0  0  0  0  0  0  0  0  0  0
   11.5233   -2.2157   23.8394 C   0  0  0  0  0  0  0  0  0  0  0  0
   12.5406   -2.1635   24.8036 C   0  0  0  0  0  0  0  0  0  0  0  0
   13.8414   -1.8934   24.4090 C   0  0  0  0  0  0  0  0  0  0  0  0
   14.1044   -1.6816   23.0710 C   0  0  0  0  0  0  0  0  0  0  0  0
   13.1736   -1.7191   22.1058 N   0  0  0  0  0  0  0  0  0  0  0  0
   11.9172   -1.9820   22.5037 C   0  0  0  0  0  0  0  0  0  0  0  0
   10.8003   -2.0737   21.7197 N   0  0  0  0  0  0  0  0  0  0  0  0
    6.6900   -1.4363   20.5129 N   0  0  0  0  0  0  0  0  0  0  0  0
    6.0141   -0.4757   19.7463 C   0  0  0  0  0  0  0  0  0  0  0  0
    6.2173   -0.1627   18.4450 C   0  0  0  0  0  0  0  0  0  0  0  0
    5.3713    0.8437   17.9845 C   0  0  0  0  0  0  0  0  0  0  0  0
    4.5071    1.3134   18.9350 C   0  0  0  0  0  0  0  0  0  0  0  0
    4.7382    0.4966   20.4403 S   0  0  0  0  0  0  0  0  0  0  0  0
    3.5164    2.3317   18.8032 C   0  0  0  0  0  0  0  0  0  0  0  0
    2.6944    3.1234   18.7181 N   0  0  0  0  0  0  0  0  0  0  0  0
  1  2  2  0
  2  3  1  0
  3  4  1  0
  4  5  2  0
  5  6  1  0
  6  7  2  0
  7  8  1  0
  8  9  2  0
  9 10  1  0
 10 11  2  0
 11 12  1  0
  2 13  1  0
 13 14  1  0
 14 15  2  0
 15 16  1  0
 16 17  2  0
 17 18  1  0
 17 19  1  0
 19 20  3  0
 12  4  1  0
 18 14  1  0
 11  6  1  0
M  END
