CVD-0001887|dock_bobby27042020.8|mol2|11|dock1
     RDKit          3D

 28 29  0  0  0  0  0  0  0  0999 V2000
    8.3704   -3.7128   22.8382 C   0  0  0  0  0  0  0  0  0  0  0  0
    7.1188   -3.0752   23.4247 C   0  0  0  0  0  0  0  0  0  0  0  0
    7.1819   -3.1325   24.9448 C   0  0  0  0  0  0  0  0  0  0  0  0
    5.8865   -3.8155   22.9230 C   0  0  0  0  0  0  0  0  0  0  0  0
    7.0592   -1.6624   22.9853 N   0  0  0  0  0  0  0  0  0  0  0  0
    7.0445   -1.2358   21.7115 C   0  0  0  0  0  0  0  0  0  0  0  0
    7.0811   -2.0191   20.7660 O   0  0  0  0  0  0  0  0  0  0  0  0
    6.9903    0.2889   21.4398 C   0  0  0  0  0  0  0  0  0  0  0  0
    8.2724    0.9613   21.7916 N   0  0  0  0  0  0  0  0  0  0  0  0
    8.2721    2.3729   21.9641 C   0  0  0  0  0  0  0  0  0  0  0  0
    7.2073    2.9710   21.8135 O   0  0  0  0  0  0  0  0  0  0  0  0
    9.4430    3.2341   22.3204 C   0  0  0  0  0  0  0  0  0  0  0  0
    9.2676    4.4410   22.7935 C   0  0  0  0  0  0  0  0  0  0  0  0
    9.4107    0.1173   21.9594 C   0  0  0  0  0  0  0  0  0  0  0  0
   10.3721    0.1477   23.0004 C   0  0  0  0  0  0  0  0  0  0  0  0
   11.2507   -0.8225   22.7378 C   0  0  0  0  0  0  0  0  0  0  0  0
   10.8891   -1.4480   21.5978 O   0  0  0  0  0  0  0  0  0  0  0  0
    9.7100   -0.8314   21.1119 N   0  0  0  0  0  0  0  0  0  0  0  0
   12.5073   -1.3411   23.4201 C   0  0  0  0  0  0  0  0  0  0  0  0
   12.2409   -2.7318   24.0033 C   0  0  0  0  0  0  0  0  0  0  0  0
   12.9115   -0.3889   24.5491 C   0  0  0  0  0  0  0  0  0  0  0  0
   13.6476   -1.4304   22.4020 C   0  0  0  0  0  0  0  0  0  0  0  0
    6.4667    0.7075   20.0672 C   0  0  0  0  0  0  0  0  0  0  0  0
    5.2361    1.3150   19.8488 C   0  0  0  0  0  0  0  0  0  0  0  0
    4.8562    1.6655   18.5647 C   0  0  0  0  0  0  0  0  0  0  0  0
    5.7108    1.3865   17.5233 C   0  0  0  0  0  0  0  0  0  0  0  0
    6.8901    0.7889   17.6918 N   0  0  0  0  0  0  0  0  0  0  0  0
    7.2385    0.4662   18.9407 C   0  0  0  0  0  0  0  0  0  0  0  0
  1  2  1  0
  2  3  1  0
  2  4  1  0
  2  5  1  0
  5  6  1  0
  6  7  2  0
  6  8  1  0
  8  9  1  0
  9 10  1  0
 10 11  2  0
 10 12  1  0
 12 13  2  0
  9 14  1  0
 14 15  1  0
 15 16  2  0
 16 17  1  0
 17 18  1  0
 16 19  1  0
 19 20  1  0
 19 21  1  0
 19 22  1  0
  8 23  1  0
 23 24  2  0
 24 25  1  0
 25 26  2  0
 26 27  1  0
 27 28  2  0
 18 14  2  0
 28 23  1  0
M  END
