CVD-0001832|dock_bobby27042020.8|mol2|19|dock1
     RDKit          3D

 30 33  0  0  0  0  0  0  0  0999 V2000
    3.4038   -5.9201   25.1103 C   0  0  0  0  0  0  0  0  0  0  0  0
    4.7562   -5.9791   24.4075 C   0  0  0  0  0  0  0  0  0  0  0  0
    5.6321   -4.9635   24.9870 C   0  0  0  0  0  0  0  0  0  0  0  0
    7.0578   -4.9484   24.6818 C   0  0  0  0  0  0  0  0  0  0  0  0
    7.5978   -4.8589   23.3433 C   0  0  0  0  0  0  0  0  0  0  0  0
    6.5928   -4.7867   22.2811 N   0  0  0  0  0  0  0  0  0  0  0  0
    5.7369   -5.9570   22.1156 C   0  0  0  0  0  0  0  0  0  0  0  0
    4.5193   -5.9308   22.9500 C   0  0  0  0  0  0  0  0  0  0  0  0
    6.4747   -3.7298   21.4100 C   0  0  0  0  0  0  0  0  0  0  0  0
    5.8963   -3.8804   20.2394 N   0  0  0  0  0  0  0  0  0  0  0  0
    5.9394   -2.6398   19.6077 N   0  0  0  0  0  0  0  0  0  0  0  0
    6.5378   -1.7954   20.4181 C   0  0  0  0  0  0  0  0  0  0  0  0
    6.7673   -0.3503   20.0588 C   0  0  0  0  0  0  0  0  0  0  0  0
    5.5949    0.5181   20.5240 C   0  0  0  0  0  0  0  0  0  0  0  0
    5.2336    1.3342   19.2850 C   0  0  0  0  0  0  0  0  0  0  0  0
    5.8689    0.6627   18.1453 C   0  0  0  0  0  0  0  0  0  0  0  0
    5.6593    0.7660   16.9406 O   0  0  0  0  0  0  0  0  0  0  0  0
    6.8159   -0.1415   18.6255 N   0  0  0  0  0  0  0  0  0  0  0  0
    6.8979   -2.4273   21.5752 N   0  0  0  0  0  0  0  0  0  0  0  0
    7.5898   -1.7653   22.6709 C   0  0  0  0  0  0  0  0  0  0  0  0
    9.0938   -1.9583   22.5928 C   0  0  0  0  0  0  0  0  0  0  0  0
    9.6139   -2.3882   21.5686 O   0  0  0  0  0  0  0  0  0  0  0  0
    9.7396   -1.6214   23.7357 N   0  0  0  0  0  0  0  0  0  0  0  0
   11.1138   -1.6575   24.0798 C   0  0  0  0  0  0  0  0  0  0  0  0
   11.5466   -0.8539   25.1284 C   0  0  0  0  0  0  0  0  0  0  0  0
   12.8748   -0.8425   25.5147 C   0  0  0  0  0  0  0  0  0  0  0  0
   13.7549   -1.6418   24.8398 C   0  0  0  0  0  0  0  0  0  0  0  0
   15.0623   -1.6348   25.2154 F   0  0  0  0  0  0  0  0  0  0  0  0
   13.3750   -2.4482   23.8028 C   0  0  0  0  0  0  0  0  0  0  0  0
   12.0451   -2.4559   23.4201 C   0  0  0  0  0  0  0  0  0  0  0  0
  1  2  1  0
  2  3  1  0
  3  4  1  0
  4  5  1  0
  5  6  1  0
  6  7  1  0
  7  8  1  0
  6  9  1  0
  9 10  2  0
 10 11  1  0
 11 12  2  0
 12 13  1  0
 13 14  1  0
 14 15  1  0
 15 16  1  0
 16 17  2  0
 16 18  1  0
 12 19  1  0
 19 20  1  0
 20 21  1  0
 21 22  2  0
 21 23  1  0
 23 24  1  0
 24 25  2  0
 25 26  1  0
 26 27  2  0
 27 28  1  0
 27 29  1  0
 29 30  2  0
  8  2  1  0
 19  9  1  0
 30 24  1  0
 18 13  1  0
M  END
