CVD-0002921|dock_bobby27042020.32|mol2|35|dock3
     RDKit          3D

 25 27  0  0  0  0  0  0  0  0999 V2000
    8.4596   -3.2329   22.4428 C   0  0  0  0  0  0  0  0  0  0  0  0
    7.3867   -2.6909   21.5427 C   0  0  0  0  0  0  0  0  0  0  0  0
    6.4005   -3.3782   21.3021 O   0  0  0  0  0  0  0  0  0  0  0  0
    7.4643   -1.4499   20.9964 N   0  0  0  0  0  0  0  0  0  0  0  0
    8.6113   -0.6073   21.2942 C   0  0  0  0  0  0  0  0  0  0  0  0
    8.5439   -0.0017   22.6578 C   0  0  0  0  0  0  0  0  0  0  0  0
    7.5315    0.0568   23.5695 C   0  0  0  0  0  0  0  0  0  0  0  0
    7.9582    0.7111   24.6744 N   0  0  0  0  0  0  0  0  0  0  0  0
    9.2110    1.0643   24.4957 N   0  0  0  0  0  0  0  0  0  0  0  0
    9.5648    0.6440   23.2613 N   0  0  0  0  0  0  0  0  0  0  0  0
   10.9275    0.8805   22.7827 C   0  0  0  0  0  0  0  0  0  0  0  0
   11.9350   -0.0584   23.4012 C   0  0  0  0  0  0  0  0  0  0  0  0
   12.4264   -1.1409   22.6883 C   0  0  0  0  0  0  0  0  0  0  0  0
   13.3523   -2.0040   23.2468 C   0  0  0  0  0  0  0  0  0  0  0  0
   13.7889   -1.7765   24.5332 C   0  0  0  0  0  0  0  0  0  0  0  0
   14.9539   -2.8574   25.2454 Cl  0  0  0  0  0  0  0  0  0  0  0  0
   13.3199   -0.7086   25.2659 C   0  0  0  0  0  0  0  0  0  0  0  0
   12.3942    0.1453   24.6931 C   0  0  0  0  0  0  0  0  0  0  0  0
    6.4497   -0.8105   20.1337 C   0  0  0  0  0  0  0  0  0  0  0  0
    5.9876    0.6002   20.5232 C   0  0  0  0  0  0  0  0  0  0  0  0
    5.1139    1.1112   19.3877 C   0  0  0  0  0  0  0  0  0  0  0  0
    5.8331    0.4551   17.8797 S   0  0  0  0  0  0  0  0  0  0  0  0
    4.8042   -0.1372   17.0681 O   0  0  0  0  0  0  0  0  0  0  0  0
    6.6842    1.4411   17.2704 O   0  0  0  0  0  0  0  0  0  0  0  0
    6.8393   -0.8055   18.6709 C   0  0  0  0  0  0  0  0  0  0  0  0
  1  2  1  0
  2  3  2  0
  2  4  1  0
  4  5  1  0
  5  6  1  0
  6  7  2  0
  7  8  1  0
  8  9  2  0
  9 10  1  0
 10 11  1  0
 11 12  1  0
 12 13  2  0
 13 14  1  0
 14 15  2  0
 15 16  1  0
 15 17  1  0
 17 18  2  0
  4 19  1  0
 19 20  1  0
 20 21  1  0
 21 22  1  0
 22 23  2  0
 22 24  2  0
 22 25  1  0
 10  6  1  0
 18 12  1  0
 25 19  1  0
M  END
