CVD-0002420|dock_bobby27042020.6|mol2|4|dock2
     RDKit          3D

 27 28  0  0  0  0  0  0  0  0999 V2000
   11.3271    1.2339   22.8216 C   0  0  0  0  0  0  0  0  0  0  0  0
   10.3361    0.2934   23.4748 C   0  0  0  0  0  0  0  0  0  0  0  0
    9.6813   -0.5568   22.5154 O   0  0  0  0  0  0  0  0  0  0  0  0
    8.9123    0.0002   21.4198 C   0  0  0  0  0  0  0  0  0  0  0  0
    7.7513    0.8802   21.8667 C   0  0  0  0  0  0  0  0  0  0  0  0
    6.8845    1.3375   20.7099 C   0  0  0  0  0  0  0  0  0  0  0  0
    6.3677    0.2035   19.9345 N   0  0  0  0  0  0  0  0  0  0  0  0
    5.4919    0.6663   18.8558 C   0  0  0  0  0  0  0  0  0  0  0  0
    4.2676    1.3994   19.3425 C   0  0  0  0  0  0  0  0  0  0  0  0
    3.7241    2.5588   18.7366 C   0  0  0  0  0  0  0  0  0  0  0  0
    2.6166    3.0548   19.3553 C   0  0  0  0  0  0  0  0  0  0  0  0
    2.2322    2.0907   20.6995 S   0  0  0  0  0  0  0  0  0  0  0  0
    3.5416    1.0385   20.4368 C   0  0  0  0  0  0  0  0  0  0  0  0
    7.4920   -0.5747   19.4075 C   0  0  0  0  0  0  0  0  0  0  0  0
    8.3604   -1.1108   20.5332 C   0  0  0  0  0  0  0  0  0  0  0  0
   11.0619   -0.6168   24.4720 C   0  0  0  0  0  0  0  0  0  0  0  0
   12.3244   -1.0856   23.9227 N   0  0  0  0  0  0  0  0  0  0  0  0
   12.3785   -1.8321   22.8144 C   0  0  0  0  0  0  0  0  0  0  0  0
   13.7506   -2.2241   22.3504 C   0  0  0  0  0  0  0  0  0  0  0  0
   11.3672   -2.1643   22.2038 O   0  0  0  0  0  0  0  0  0  0  0  0
   10.1836   -1.8084   24.8372 C   0  0  0  0  0  0  0  0  0  0  0  0
   10.4312   -2.9282   24.3978 O   0  0  0  0  0  0  0  0  0  0  0  0
    9.1544   -1.5575   25.6461 N   0  0  0  0  0  0  0  0  0  0  0  0
    8.2028   -2.5973   26.0144 C   0  0  0  0  0  0  0  0  0  0  0  0
    8.8330   -3.9146   26.1613 C   0  0  0  0  0  0  0  0  0  0  0  0
    9.3917   -4.9563   26.2559 C   0  0  0  0  0  0  0  0  0  0  0  0
   10.2386   -6.5437   26.3372 Br  0  0  0  0  0  0  0  0  0  0  0  0
  2  1  1  0
  2  3  1  0
  3  4  1  0
  4  5  1  0
  5  6  1  0
  6  7  1  0
  7  8  1  0
  8  9  1  0
  9 10  1  0
 10 11  2  0
 11 12  1  0
 12 13  1  0
  7 14  1  0
 14 15  1  0
  2 16  1  0
 16 17  1  0
 17 18  1  0
 18 19  1  0
 18 20  2  0
 16 21  1  0
 21 22  2  0
 21 23  1  0
 23 24  1  0
 24 25  1  0
 25 26  3  0
 26 27  1  0
 15  4  1  0
 13  9  2  0
M  END
