CVD-0003576|dock_bobby27042020.30|mol2|28|dock1
     RDKit          3D

 27 29  0  0  0  0  0  0  0  0999 V2000
    9.9255   -2.4941   22.1745 C   0  0  0  0  0  0  0  0  0  0  0  0
   11.3167   -1.9526   22.0237 C   0  0  0  0  0  0  0  0  0  0  0  0
   11.6136   -1.1650   21.1308 O   0  0  0  0  0  0  0  0  0  0  0  0
   12.2084   -2.3640   22.9272 N   0  0  0  0  0  0  0  0  0  0  0  0
   13.5932   -1.9144   22.9246 C   0  0  0  0  0  0  0  0  0  0  0  0
   13.7904   -0.6863   23.7907 C   0  0  0  0  0  0  0  0  0  0  0  0
   13.1148    0.5349   23.2391 C   0  0  0  0  0  0  0  0  0  0  0  0
   13.6869    1.5636   22.5629 C   0  0  0  0  0  0  0  0  0  0  0  0
   12.7490    2.4947   22.2139 N   0  0  0  0  0  0  0  0  0  0  0  0
   13.0096    3.7415   21.5052 C   0  0  0  0  0  0  0  0  0  0  0  0
   11.5241    2.0792   22.6878 C   0  0  0  0  0  0  0  0  0  0  0  0
   10.2647    2.6625   22.6161 C   0  0  0  0  0  0  0  0  0  0  0  0
    9.1692    2.0204   23.1808 C   0  0  0  0  0  0  0  0  0  0  0  0
    7.7972    2.6465   23.1035 C   0  0  0  0  0  0  0  0  0  0  0  0
    6.8185    1.8317   22.3683 N   0  0  0  0  0  0  0  0  0  0  0  0
    7.3962    1.3463   21.1116 C   0  0  0  0  0  0  0  0  0  0  0  0
    6.3967    0.4726   20.3768 C   0  0  0  0  0  0  0  0  0  0  0  0
    5.1636    1.2172   20.1124 N   0  0  0  0  0  0  0  0  0  0  0  0
    4.5919    1.7678   21.3453 C   0  0  0  0  0  0  0  0  0  0  0  0
    5.6214    2.6143   22.0716 C   0  0  0  0  0  0  0  0  0  0  0  0
    4.6318    1.3368   18.8791 C   0  0  0  0  0  0  0  0  0  0  0  0
    3.6033    1.9695   18.6758 O   0  0  0  0  0  0  0  0  0  0  0  0
    5.3775    0.6509   17.7513 C   0  0  0  0  0  0  0  0  0  0  0  0
    5.4393   -1.0998   17.9927 Cl  0  0  0  0  0  0  0  0  0  0  0  0
    9.3546    0.7974   23.8090 C   0  0  0  0  0  0  0  0  0  0  0  0
   10.6070    0.2132   23.8863 C   0  0  0  0  0  0  0  0  0  0  0  0
   11.7171    0.8452   23.3297 C   0  0  0  0  0  0  0  0  0  0  0  0
  1  2  1  0
  2  3  2  0
  2  4  1  0
  4  5  1  0
  5  6  1  0
  6  7  1  0
  7  8  2  0
  8  9  1  0
  9 10  1  0
  9 11  1  0
 11 12  2  0
 12 13  1  0
 13 14  1  0
 14 15  1  0
 15 16  1  0
 16 17  1  0
 17 18  1  0
 18 19  1  0
 19 20  1  0
 18 21  1  0
 21 22  2  0
 21 23  1  0
 23 24  1  0
 13 25  2  0
 25 26  1  0
 26 27  2  0
 27  7  1  0
 27 11  1  0
 20 15  1  0
M  END
