CVD-0002238|dock_bobby27042020.78|mol2|11|dock1
     RDKit          3D

 43 48  0  0  0  0  0  0  0  0999 V2000
   10.3659    4.1052   25.2822 F   0  0  0  0  0  0  0  0  0  0  0  0
    9.6442    4.7969   24.3750 C   0  0  0  0  0  0  0  0  0  0  0  0
    9.2817    6.0764   24.7239 C   0  0  0  0  0  0  0  0  0  0  0  0
    8.6074    6.8530   23.7993 C   0  0  0  0  0  0  0  0  0  0  0  0
    8.3161    6.3415   22.5547 C   0  0  0  0  0  0  0  0  0  0  0  0
    8.6680    5.0417   22.2320 C   0  0  0  0  0  0  0  0  0  0  0  0
    9.3173    4.2197   23.1551 C   0  0  0  0  0  0  0  0  0  0  0  0
    9.5968    2.8293   22.7196 C   0  0  0  0  0  0  0  0  0  0  0  0
    8.6902    1.9985   22.0888 C   0  0  0  0  0  0  0  0  0  0  0  0
    9.2866    0.7552   21.8143 C   0  0  0  0  0  0  0  0  0  0  0  0
    8.6135   -0.3982   21.1179 C   0  0  0  0  0  0  0  0  0  0  0  0
    8.3587   -1.5343   21.9825 N   0  0  0  0  0  0  0  0  0  0  0  0
    7.7289   -2.6906   21.5610 C   0  0  0  0  0  0  0  0  0  0  0  0
    7.1243   -2.7218   20.3112 C   0  0  0  0  0  0  0  0  0  0  0  0
    6.4865   -3.8720   19.8811 C   0  0  0  0  0  0  0  0  0  0  0  0
    6.4508   -4.9950   20.6895 C   0  0  0  0  0  0  0  0  0  0  0  0
    7.0570   -4.9919   21.9399 C   0  0  0  0  0  0  0  0  0  0  0  0
    7.6868   -3.8282   22.3627 C   0  0  0  0  0  0  0  0  0  0  0  0
    7.0310   -6.2385   22.8200 C   0  0  0  0  0  0  0  0  0  0  0  0
    5.6353   -6.7088   23.0601 C   0  0  0  0  0  0  0  0  0  0  0  0
    4.8746   -5.7292   23.8747 N   0  0  0  0  0  0  0  0  0  0  0  0
    5.5184   -5.2110   25.0978 C   0  0  0  0  0  0  0  0  0  0  0  0
    7.0127   -5.5197   25.2298 C   0  0  0  0  0  0  0  0  0  0  0  0
    7.6634   -5.3111   26.4418 C   0  0  0  0  0  0  0  0  0  0  0  0
    9.0147   -5.5728   26.5800 C   0  0  0  0  0  0  0  0  0  0  0  0
    9.7306   -6.0472   25.5031 C   0  0  0  0  0  0  0  0  0  0  0  0
    9.0895   -6.2568   24.2950 C   0  0  0  0  0  0  0  0  0  0  0  0
    7.7282   -5.9995   24.1344 C   0  0  0  0  0  0  0  0  0  0  0  0
    3.6182   -5.3407   23.5580 C   0  0  0  0  0  0  0  0  0  0  0  0
    3.0343   -5.7915   22.5805 O   0  0  0  0  0  0  0  0  0  0  0  0
    2.9337   -4.3263   24.4559 C   0  0  0  0  0  0  0  0  0  0  0  0
    1.1854   -4.2905   24.1906 Cl  0  0  0  0  0  0  0  0  0  0  0  0
   10.5865    0.8155   22.2940 C   0  0  0  0  0  0  0  0  0  0  0  0
   10.7920    2.0689   22.8580 N   0  0  0  0  0  0  0  0  0  0  0  0
   12.3010    2.4066   23.5570 S   0  0  0  0  0  0  0  0  0  0  0  0
   13.2190    1.4080   23.1044 O   0  0  0  0  0  0  0  0  0  0  0  0
   12.0388    2.5236   24.9578 O   0  0  0  0  0  0  0  0  0  0  0  0
   12.7931    3.9961   22.9841 C   0  0  0  0  0  0  0  0  0  0  0  0
   13.0545    5.0148   23.8844 C   0  0  0  0  0  0  0  0  0  0  0  0
   13.4347    6.2505   23.3901 C   0  0  0  0  0  0  0  0  0  0  0  0
   13.5365    6.4162   22.0273 C   0  0  0  0  0  0  0  0  0  0  0  0
   13.2864    5.4443   21.1486 N   0  0  0  0  0  0  0  0  0  0  0  0
   12.9195    4.2541   21.6324 C   0  0  0  0  0  0  0  0  0  0  0  0
  1  2  1  0
  2  3  2  0
  3  4  1  0
  4  5  2  0
  5  6  1  0
  6  7  2  0
  7  8  1  0
  8  9  2  0
  9 10  1  0
 10 11  1  0
 11 12  1  0
 12 13  1  0
 13 14  2  0
 14 15  1  0
 15 16  2  0
 16 17  1  0
 17 18  2  0
 17 19  1  0
 19 20  1  0
 20 21  1  0
 21 22  1  0
 22 23  1  0
 23 24  2  0
 24 25  1  0
 25 26  2  0
 26 27  1  0
 27 28  2  0
 21 29  1  0
 29 30  2  0
 29 31  1  0
 31 32  1  0
 10 33  2  0
 33 34  1  0
 34 35  1  0
 35 36  2  0
 35 37  2  0
 35 38  1  0
 38 39  2  0
 39 40  1  0
 40 41  2  0
 41 42  1  0
 42 43  2  0
  7  2  1  0
 34  8  1  0
 43 38  1  0
 18 13  1  0
 28 19  1  0
 28 23  1  0
M  END
