CVD-0000489|dock_bobby27042020.55|mol2|43|dock3
     RDKit          3D

 40 42  0  0  0  0  0  0  0  0999 V2000
   12.6820   -1.0634   21.2776 N   0  0  0  0  0  0  0  0  0  0  0  0
   12.7683    0.1395   21.8231 C   0  0  0  0  0  0  0  0  0  0  0  0
   12.2859    1.1445   21.2930 O   0  0  0  0  0  0  0  0  0  0  0  0
   13.4969    0.2236   23.1421 C   0  0  0  0  0  0  0  0  0  0  0  0
   13.5520    1.6376   23.6859 C   0  0  0  0  0  0  0  0  0  0  0  0
   12.2048    2.2061   23.8156 N   0  0  0  0  0  0  0  0  0  0  0  0
   11.1208    1.6052   24.8376 S   0  0  0  0  0  0  0  0  0  0  0  0
   11.7935    0.6081   25.6149 O   0  0  0  0  0  0  0  0  0  0  0  0
   10.5243    2.7234   25.5040 O   0  0  0  0  0  0  0  0  0  0  0  0
    9.8679    0.7948   23.8791 C   0  0  0  0  0  0  0  0  0  0  0  0
    9.3104   -0.4798   24.4965 C   0  0  0  0  0  0  0  0  0  0  0  0
   10.0284   -1.7394   24.0441 C   0  0  0  0  0  0  0  0  0  0  0  0
    9.1918   -2.9385   24.1251 N   0  0  0  0  0  0  0  0  0  0  0  0
    9.3167   -3.6853   25.3932 C   0  0  0  0  0  0  0  0  0  0  0  0
   10.0460   -4.9895   25.1688 C   0  0  0  0  0  0  0  0  0  0  0  0
   10.1025   -5.8135   26.4511 C   0  0  0  0  0  0  0  0  0  0  0  0
    8.7250   -6.0536   27.0118 C   0  0  0  0  0  0  0  0  0  0  0  0
    7.9825   -4.7547   27.2191 C   0  0  0  0  0  0  0  0  0  0  0  0
    7.9266   -3.9253   25.9432 C   0  0  0  0  0  0  0  0  0  0  0  0
    8.4032   -3.2786   23.0530 C   0  0  0  0  0  0  0  0  0  0  0  0
    7.9931   -4.4313   23.0203 O   0  0  0  0  0  0  0  0  0  0  0  0
    8.1141   -2.3484   22.0828 N   0  0  0  0  0  0  0  0  0  0  0  0
    7.3314   -2.4844   20.8990 C   0  0  0  0  0  0  0  0  0  0  0  0
    6.2970   -3.4080   20.7399 C   0  0  0  0  0  0  0  0  0  0  0  0
    5.5837   -3.5505   19.6190 N   0  0  0  0  0  0  0  0  0  0  0  0
    5.8621   -2.7404   18.6026 C   0  0  0  0  0  0  0  0  0  0  0  0
    6.8473   -1.7799   18.6512 C   0  0  0  0  0  0  0  0  0  0  0  0
    7.6066   -1.6347   19.8089 C   0  0  0  0  0  0  0  0  0  0  0  0
    8.6882   -0.5794   19.8504 C   0  0  0  0  0  0  0  0  0  0  0  0
    8.3112    0.6295   20.5682 N   0  0  0  0  0  0  0  0  0  0  0  0
    7.0629    1.1324   20.4947 C   0  0  0  0  0  0  0  0  0  0  0  0
    6.1802    0.6041   19.8237 O   0  0  0  0  0  0  0  0  0  0  0  0
    6.8511    2.2555   21.2089 N   0  0  0  0  0  0  0  0  0  0  0  0
    5.5545    2.9172   21.2301 C   0  0  0  0  0  0  0  0  0  0  0  0
    5.5099    4.0541   22.2320 C   0  0  0  0  0  0  0  0  0  0  0  0
    6.6106    5.0483   22.0278 C   0  0  0  0  0  0  0  0  0  0  0  0
    7.7199    5.3334   22.7661 C   0  0  0  0  0  0  0  0  0  0  0  0
    8.3840    6.3518   22.0906 C   0  0  0  0  0  0  0  0  0  0  0  0
    7.7355    6.6956   20.9850 N   0  0  0  0  0  0  0  0  0  0  0  0
    6.6441    5.8769   20.9675 N   0  0  0  0  0  0  0  0  0  0  0  0
  1  2  1  0
  2  3  2  0
  2  4  1  0
  4  5  1  0
  5  6  1  0
  6  7  1  0
  7  8  2  0
  7  9  2  0
  7 10  1  0
 10 11  1  0
 11 12  1  0
 12 13  1  0
 13 14  1  0
 14 15  1  0
 15 16  1  0
 16 17  1  0
 17 18  1  0
 18 19  1  0
 13 20  1  0
 20 21  2  0
 20 22  1  0
 22 23  1  0
 23 24  2  0
 24 25  1  0
 25 26  2  0
 26 27  1  0
 27 28  2  0
 28 29  1  0
 29 30  1  0
 30 31  1  0
 31 32  2  0
 31 33  1  0
 33 34  1  0
 34 35  1  0
 35 36  1  0
 36 37  2  0
 37 38  1  0
 38 39  2  0
 39 40  1  0
 19 14  1  0
 28 23  1  0
 40 36  1  0
M  END
