CVD-0001486|dock_bobby27042020.38|mol2|4|dock2
     RDKit          3D

 22 23  0  0  0  0  0  0  0  0999 V2000
    7.0308   -5.6271   22.7470 C   0  0  0  0  0  0  0  0  0  0  0  0
    6.5747   -4.7888   21.5941 C   0  0  0  0  0  0  0  0  0  0  0  0
    6.6675   -3.3701   21.8979 N   0  0  0  0  0  0  0  0  0  0  0  0
    6.5174   -2.3644   20.9683 C   0  0  0  0  0  0  0  0  0  0  0  0
    5.9711   -2.6591   19.7170 C   0  0  0  0  0  0  0  0  0  0  0  0
    5.7927   -1.6671   18.7709 C   0  0  0  0  0  0  0  0  0  0  0  0
    6.1682   -0.3598   19.0444 C   0  0  0  0  0  0  0  0  0  0  0  0
    6.7308   -0.0492   20.2773 C   0  0  0  0  0  0  0  0  0  0  0  0
    6.9022   -1.0321   21.2564 C   0  0  0  0  0  0  0  0  0  0  0  0
    7.5097   -0.6560   22.5896 C   0  0  0  0  0  0  0  0  0  0  0  0
    6.8060   -0.0597   23.3870 O   0  0  0  0  0  0  0  0  0  0  0  0
    8.7849   -0.9430   22.9334 N   0  0  0  0  0  0  0  0  0  0  0  0
    9.4215   -0.5975   24.2032 C   0  0  0  0  0  0  0  0  0  0  0  0
   10.7149    0.1488   23.9553 C   0  0  0  0  0  0  0  0  0  0  0  0
   11.5812   -0.6268   23.0703 N   0  0  0  0  0  0  0  0  0  0  0  0
   10.9446   -0.9723   21.8006 C   0  0  0  0  0  0  0  0  0  0  0  0
    9.6512   -1.7186   22.0484 C   0  0  0  0  0  0  0  0  0  0  0  0
   12.8612   -0.9149   23.4154 C   0  0  0  0  0  0  0  0  0  0  0  0
   13.7034   -1.7062   22.4580 C   0  0  0  0  0  0  0  0  0  0  0  0
   13.3178   -0.5240   24.4838 O   0  0  0  0  0  0  0  0  0  0  0  0
    5.9805    0.6751   18.0577 C   0  0  0  0  0  0  0  0  0  0  0  0
    5.8187    1.4721   17.2556 N   0  0  0  0  0  0  0  0  0  0  0  0
  1  2  1  0
  2  3  1  0
  3  4  1  0
  4  5  2  0
  5  6  1  0
  6  7  2  0
  7  8  1  0
  8  9  2  0
  9 10  1  0
 10 11  2  0
 10 12  1  0
 12 13  1  0
 13 14  1  0
 14 15  1  0
 15 16  1  0
 16 17  1  0
 15 18  1  0
 18 19  1  0
 18 20  2  0
  7 21  1  0
 21 22  3  0
  9  4  1  0
 17 12  1  0
M  END
