CVD-0003591|dock_bobby27042020.16|mol2|10|dock2
     RDKit          3D

 13 13  0  0  0  0  0  0  0  0999 V2000
   13.8534    5.2967   21.7868 Cl  0  0  0  0  0  0  0  0  0  0  0  0
   13.7395    3.6772   22.4879 C   0  0  0  0  0  0  0  0  0  0  0  0
   12.3008    3.1966   22.4936 C   0  0  0  0  0  0  0  0  0  0  0  0
   11.4155    3.9042   22.0295 O   0  0  0  0  0  0  0  0  0  0  0  0
   12.0273    1.9824   23.0265 N   0  0  0  0  0  0  0  0  0  0  0  0
   10.6734    1.4266   23.0832 C   0  0  0  0  0  0  0  0  0  0  0  0
   10.6378    0.0512   22.4432 C   0  0  0  0  0  0  0  0  0  0  0  0
   11.5820   -0.8459   23.1159 N   0  0  0  0  0  0  0  0  0  0  0  0
   11.5230   -2.1838   22.5288 C   0  0  0  0  0  0  0  0  0  0  0  0
   10.2153   -2.8356   22.6398 C   0  0  0  0  0  0  0  0  0  0  0  0
    9.1599   -3.3367   22.7659 C   0  0  0  0  0  0  0  0  0  0  0  0
   12.9295   -0.2947   22.9984 C   0  0  0  0  0  0  0  0  0  0  0  0
   13.0063    1.0791   23.6393 C   0  0  0  0  0  0  0  0  0  0  0  0
  1  2  1  0
  2  3  1  0
  3  4  2  0
  3  5  1  0
  5  6  1  0
  6  7  1  0
  7  8  1  0
  8  9  1  0
  9 10  1  0
 10 11  3  0
  8 12  1  0
 12 13  1  0
 13  5  1  0
M  END
