CVD-0002292|dock_bobby27042020.64|mol2|3|dock1
     RDKit          3D

 40 43  0  0  0  0  0  0  0  0999 V2000
    1.9810   -8.6539   23.5852 C   0  0  0  0  0  0  0  0  0  0  0  0
    3.2763   -8.0310   23.8697 N   0  0  0  0  0  0  0  0  0  0  0  0
    3.3345   -7.3057   25.1434 C   0  0  0  0  0  0  0  0  0  0  0  0
    4.6062   -6.5093   25.2733 C   0  0  0  0  0  0  0  0  0  0  0  0
    5.0297   -5.5032   24.3877 C   0  0  0  0  0  0  0  0  0  0  0  0
    6.2473   -4.9855   24.7938 C   0  0  0  0  0  0  0  0  0  0  0  0
    7.0213   -3.9101   24.1166 C   0  0  0  0  0  0  0  0  0  0  0  0
    7.6768   -4.1324   22.9041 C   0  0  0  0  0  0  0  0  0  0  0  0
    8.4047   -3.1423   22.2688 C   0  0  0  0  0  0  0  0  0  0  0  0
    8.4785   -1.8615   22.7969 C   0  0  0  0  0  0  0  0  0  0  0  0
    7.8343   -1.6181   24.0027 C   0  0  0  0  0  0  0  0  0  0  0  0
    7.1391   -2.6224   24.6263 C   0  0  0  0  0  0  0  0  0  0  0  0
    6.5544   -2.3023   25.8035 F   0  0  0  0  0  0  0  0  0  0  0  0
    9.1943   -0.7968   22.1559 N   0  0  0  0  0  0  0  0  0  0  0  0
   10.5797   -0.5680   22.6468 C   0  0  0  0  0  0  0  0  0  0  0  0
   10.6094   -0.1499   24.1102 C   0  0  0  0  0  0  0  0  0  0  0  0
   11.4795   -1.7632   22.3697 C   0  0  0  0  0  0  0  0  0  0  0  0
    8.6889    0.0174   21.1654 C   0  0  0  0  0  0  0  0  0  0  0  0
    9.3972    0.8288   20.6011 O   0  0  0  0  0  0  0  0  0  0  0  0
    7.2228   -0.0508   20.7593 C   0  0  0  0  0  0  0  0  0  0  0  0
    6.3925    0.9552   21.5468 C   0  0  0  0  0  0  0  0  0  0  0  0
    4.9430    0.9079   21.1092 C   0  0  0  0  0  0  0  0  0  0  0  0
    4.8462    1.1668   19.6750 N   0  0  0  0  0  0  0  0  0  0  0  0
    5.5835    0.1944   18.8755 C   0  0  0  0  0  0  0  0  0  0  0  0
    7.0581    0.2108   19.2639 C   0  0  0  0  0  0  0  0  0  0  0  0
    3.9688    2.0040   19.0839 C   0  0  0  0  0  0  0  0  0  0  0  0
    3.9635    2.1803   17.8722 O   0  0  0  0  0  0  0  0  0  0  0  0
    2.9812    2.7147   19.9889 C   0  0  0  0  0  0  0  0  0  0  0  0
    1.7863    3.6258   19.0564 Cl  0  0  0  0  0  0  0  0  0  0  0  0
    6.5834   -5.6961   25.9820 N   0  0  0  0  0  0  0  0  0  0  0  0
    5.5807   -6.6190   26.2526 C   0  0  0  0  0  0  0  0  0  0  0  0
    7.9019   -5.6095   27.0471 S   0  0  0  0  0  0  0  0  0  0  0  0
    8.2566   -4.2248   27.0847 O   0  0  0  0  0  0  0  0  0  0  0  0
    8.8770   -6.5667   26.6261 O   0  0  0  0  0  0  0  0  0  0  0  0
    7.2775   -6.0352   28.6369 C   0  0  0  0  0  0  0  0  0  0  0  0
    7.5930   -7.2557   29.2093 C   0  0  0  0  0  0  0  0  0  0  0  0
    7.0764   -7.5516   30.4588 C   0  0  0  0  0  0  0  0  0  0  0  0
    6.2712   -6.6233   31.0795 C   0  0  0  0  0  0  0  0  0  0  0  0
    5.9577   -5.4448   30.5393 N   0  0  0  0  0  0  0  0  0  0  0  0
    6.4594   -5.1655   29.3328 C   0  0  0  0  0  0  0  0  0  0  0  0
  1  2  1  0
  2  3  1  0
  3  4  1  0
  4  5  1  0
  5  6  2  0
  6  7  1  0
  7  8  2  0
  8  9  1  0
  9 10  2  0
 10 11  1  0
 11 12  2  0
 12 13  1  0
 10 14  1  0
 14 15  1  0
 15 16  1  0
 15 17  1  0
 14 18  1  0
 18 19  2  0
 18 20  1  0
 20 21  1  0
 21 22  1  0
 22 23  1  0
 23 24  1  0
 24 25  1  0
 23 26  1  0
 26 27  2  0
 26 28  1  0
 28 29  1  0
  6 30  1  0
 30 31  1  0
 30 32  1  0
 32 33  2  0
 32 34  2  0
 32 35  1  0
 35 36  2  0
 36 37  1  0
 37 38  2  0
 38 39  1  0
 39 40  2  0
 31  4  2  0
 40 35  1  0
 12  7  1  0
 25 20  1  0
M  END
