CVD-0000318|dock_bobby27042020.70|mol2|31|dock3
     RDKit          3D

 18 18  0  0  0  0  0  0  0  0999 V2000
   13.1993   -1.9030   22.7375 C   0  0  0  0  0  0  0  0  0  0  0  0
   11.7055   -1.9859   22.7777 C   0  0  0  0  0  0  0  0  0  0  0  0
   11.0992   -1.1263   21.7747 N   0  0  0  0  0  0  0  0  0  0  0  0
   10.7713    0.1545   22.0134 C   0  0  0  0  0  0  0  0  0  0  0  0
   11.7870    0.9997   22.2798 N   0  0  0  0  0  0  0  0  0  0  0  0
   11.4896    2.2819   22.5194 C   0  0  0  0  0  0  0  0  0  0  0  0
   10.1945    2.7863   22.5086 C   0  0  0  0  0  0  0  0  0  0  0  0
    9.1549    1.9055   22.2337 C   0  0  0  0  0  0  0  0  0  0  0  0
    9.4228    0.5654   21.9807 C   0  0  0  0  0  0  0  0  0  0  0  0
    8.2691   -0.3670   21.6821 C   0  0  0  0  0  0  0  0  0  0  0  0
    7.6802   -0.1418   20.3011 C   0  0  0  0  0  0  0  0  0  0  0  0
    6.5618   -1.0609   20.0589 N   0  0  0  0  0  0  0  0  0  0  0  0
    5.9015   -1.1393   18.5999 S   0  0  0  0  0  0  0  0  0  0  0  0
    4.9619    0.3194   18.3633 C   0  0  0  0  0  0  0  0  0  0  0  0
    5.0014   -2.2509   18.6065 O   0  0  0  0  0  0  0  0  0  0  0  0
    6.9742   -1.1347   17.6538 O   0  0  0  0  0  0  0  0  0  0  0  0
    9.9317    4.1793   22.7736 C   0  0  0  0  0  0  0  0  0  0  0  0
    9.7125    5.2860   22.9523 N   0  0  0  0  0  0  0  0  0  0  0  0
  1  2  1  0
  2  3  1  0
  3  4  1  0
  4  5  2  0
  5  6  1  0
  6  7  2  0
  7  8  1  0
  8  9  2  0
  9 10  1  0
 10 11  1  0
 11 12  1  0
 12 13  1  0
 13 14  1  0
 13 15  2  0
 13 16  2  0
  7 17  1  0
 17 18  3  0
  9  4  1  0
M  END
