CVD-0000351|dock_bobby27042020.70|mol2|26|dock2
     RDKit          3D

 29 31  0  0  0  0  0  0  0  0999 V2000
   13.5241   -1.7905   22.0277 C   0  0  0  0  0  0  0  0  0  0  0  0
   12.1856   -1.1428   22.3246 C   0  0  0  0  0  0  0  0  0  0  0  0
   11.1456   -1.7431   21.5521 N   0  0  0  0  0  0  0  0  0  0  0  0
    9.9750   -2.2643   22.0681 C   0  0  0  0  0  0  0  0  0  0  0  0
    9.9708   -3.2110   23.0927 C   0  0  0  0  0  0  0  0  0  0  0  0
    8.7669   -3.6966   23.5746 C   0  0  0  0  0  0  0  0  0  0  0  0
    7.5954   -3.2328   23.0262 C   0  0  0  0  0  0  0  0  0  0  0  0
    7.5553   -2.3289   22.0421 N   0  0  0  0  0  0  0  0  0  0  0  0
    8.7126   -1.8759   21.5965 C   0  0  0  0  0  0  0  0  0  0  0  0
    8.5800   -0.7054   20.3218 Cl  0  0  0  0  0  0  0  0  0  0  0  0
   12.2690    0.2568   22.1014 O   0  0  0  0  0  0  0  0  0  0  0  0
   13.1267    0.9759   22.9878 C   0  0  0  0  0  0  0  0  0  0  0  0
   12.9573    2.4504   22.7425 C   0  0  0  0  0  0  0  0  0  0  0  0
   11.7205    3.0721   22.8776 C   0  0  0  0  0  0  0  0  0  0  0  0
   11.5436    4.4311   22.6583 C   0  0  0  0  0  0  0  0  0  0  0  0
   12.6417    5.1970   22.2941 C   0  0  0  0  0  0  0  0  0  0  0  0
   13.8658    4.5949   22.1591 C   0  0  0  0  0  0  0  0  0  0  0  0
   14.9404    5.3358   21.8038 F   0  0  0  0  0  0  0  0  0  0  0  0
   14.0228    3.2478   22.3789 C   0  0  0  0  0  0  0  0  0  0  0  0
   15.2340    2.6777   22.2412 F   0  0  0  0  0  0  0  0  0  0  0  0
   10.1849    5.0645   22.8189 C   0  0  0  0  0  0  0  0  0  0  0  0
   10.0486    5.7828   24.1333 C   0  0  0  0  0  0  0  0  0  0  0  0
    8.6979    6.3287   24.2545 N   0  0  0  0  0  0  0  0  0  0  0  0
    7.6511    5.3371   24.0159 C   0  0  0  0  0  0  0  0  0  0  0  0
    7.8997    4.6332   22.7150 C   0  0  0  0  0  0  0  0  0  0  0  0
    9.1945    4.0579   22.6667 O   0  0  0  0  0  0  0  0  0  0  0  0
    8.4460    7.6288   24.5488 C   0  0  0  0  0  0  0  0  0  0  0  0
    7.0178    8.0727   24.6727 C   0  0  0  0  0  0  0  0  0  0  0  0
    9.3699    8.4159   24.7210 O   0  0  0  0  0  0  0  0  0  0  0  0
  2  1  1  0
  2  3  1  0
  3  4  1  0
  4  5  2  0
  5  6  1  0
  6  7  2  0
  7  8  1  0
  8  9  2  0
  9 10  1  0
  2 11  1  0
 11 12  1  0
 12 13  1  0
 13 14  2  0
 14 15  1  0
 15 16  2  0
 16 17  1  0
 17 18  1  0
 17 19  2  0
 19 20  1  0
 21 15  1  0
 21 22  1  0
 22 23  1  0
 23 24  1  0
 24 25  1  0
 25 26  1  0
 23 27  1  0
 27 28  1  0
 27 29  2  0
  9  4  1  0
 19 13  1  0
 26 21  1  0
M  END
