CVD-0003545|dock_bobby27042020.1|mol2|38|dock3
     RDKit          3D

 22 23  0  0  0  0  0  0  0  0999 V2000
   14.7382   -1.8725   26.2338 Cl  0  0  0  0  0  0  0  0  0  0  0  0
   13.6632   -0.9552   25.1708 C   0  0  0  0  0  0  0  0  0  0  0  0
   12.9466   -1.8788   24.2042 C   0  0  0  0  0  0  0  0  0  0  0  0
   13.0515   -3.0931   24.3243 O   0  0  0  0  0  0  0  0  0  0  0  0
   12.1930   -1.3290   23.2228 N   0  0  0  0  0  0  0  0  0  0  0  0
   12.0010    0.1029   22.9993 C   0  0  0  0  0  0  0  0  0  0  0  0
   10.5245    0.4308   22.9390 C   0  0  0  0  0  0  0  0  0  0  0  0
    9.8654   -0.4011   21.9346 N   0  0  0  0  0  0  0  0  0  0  0  0
   10.0574   -1.8329   22.1581 C   0  0  0  0  0  0  0  0  0  0  0  0
   11.5339   -2.1609   22.2184 C   0  0  0  0  0  0  0  0  0  0  0  0
    9.1042    0.1543   20.9433 C   0  0  0  0  0  0  0  0  0  0  0  0
    9.2462    1.3374   20.6585 O   0  0  0  0  0  0  0  0  0  0  0  0
    8.1992   -0.5842   20.2755 N   0  0  0  0  0  0  0  0  0  0  0  0
    7.4428    0.0066   19.1812 C   0  0  0  0  0  0  0  0  0  0  0  0
    6.1295    0.6078   19.6198 C   0  0  0  0  0  0  0  0  0  0  0  0
    5.7311    0.5524   20.9465 C   0  0  0  0  0  0  0  0  0  0  0  0
    4.5303    1.1040   21.3565 C   0  0  0  0  0  0  0  0  0  0  0  0
    3.6975    1.7291   20.4344 C   0  0  0  0  0  0  0  0  0  0  0  0
    4.0912    1.7896   19.1018 C   0  0  0  0  0  0  0  0  0  0  0  0
    5.2949    1.2335   18.7067 C   0  0  0  0  0  0  0  0  0  0  0  0
    2.4442    2.3061   20.8540 C   0  0  0  0  0  0  0  0  0  0  0  0
    1.4358    2.7445   21.1635 N   0  0  0  0  0  0  0  0  0  0  0  0
  1  2  1  0
  2  3  1  0
  3  4  2  0
  3  5  1  0
  5  6  1  0
  6  7  1  0
  7  8  1  0
  8  9  1  0
  9 10  1  0
  8 11  1  0
 11 12  2  0
 11 13  1  0
 13 14  1  0
 14 15  1  0
 15 16  2  0
 16 17  1  0
 17 18  2  0
 18 19  1  0
 19 20  2  0
 18 21  1  0
 21 22  3  0
 10  5  1  0
 20 15  1  0
M  END
