CVD-0004033|dock_bobby27042020.43|mol2|20|dock2
     RDKit          3D

 23 26  0  0  0  0  0  0  0  0999 V2000
    6.2510   -0.9738   19.6267 C   0  0  0  0  0  0  0  0  0  0  0  0
    7.4774   -0.4648   20.3326 C   0  0  0  0  0  0  0  0  0  0  0  0
    7.8080    0.9472   20.3181 C   0  0  0  0  0  0  0  0  0  0  0  0
    8.8594    1.4787   20.8992 N   0  0  0  0  0  0  0  0  0  0  0  0
    9.6859    0.6241   21.5509 C   0  0  0  0  0  0  0  0  0  0  0  0
   10.9017    0.8086   22.2991 C   0  0  0  0  0  0  0  0  0  0  0  0
   11.2699   -0.5163   22.6954 C   0  0  0  0  0  0  0  0  0  0  0  0
   10.3588   -1.4095   22.3015 N   0  0  0  0  0  0  0  0  0  0  0  0
    9.4101   -0.7239   21.5909 N   0  0  0  0  0  0  0  0  0  0  0  0
    8.3290   -1.2776   20.9952 C   0  0  0  0  0  0  0  0  0  0  0  0
   12.4376   -1.0676   23.4170 C   0  0  0  0  0  0  0  0  0  0  0  0
   12.9323   -0.5068   24.5907 C   0  0  0  0  0  0  0  0  0  0  0  0
   14.0084   -1.0695   25.2541 C   0  0  0  0  0  0  0  0  0  0  0  0
   14.5990   -2.1786   24.7143 C   0  0  0  0  0  0  0  0  0  0  0  0
   15.6566   -2.7362   25.3633 F   0  0  0  0  0  0  0  0  0  0  0  0
   14.1702   -2.7490   23.5478 C   0  0  0  0  0  0  0  0  0  0  0  0
   13.0855   -2.1849   22.9004 C   0  0  0  0  0  0  0  0  0  0  0  0
   11.5198    2.1507   22.5411 C   0  0  0  0  0  0  0  0  0  0  0  0
   10.7295    3.2923   22.6122 C   0  0  0  0  0  0  0  0  0  0  0  0
   11.3164    4.5253   22.8369 C   0  0  0  0  0  0  0  0  0  0  0  0
   12.6833    4.5862   22.9785 C   0  0  0  0  0  0  0  0  0  0  0  0
   13.4707    3.5121   22.9172 N   0  0  0  0  0  0  0  0  0  0  0  0
   12.8854    2.3267   22.7207 C   0  0  0  0  0  0  0  0  0  0  0  0
  1  2  1  0
  2  3  1  0
  3  4  2  0
  4  5  1  0
  5  6  2  0
  6  7  1  0
  7  8  2  0
  8  9  1  0
  9 10  1  0
  7 11  1  0
 11 12  2  0
 12 13  1  0
 13 14  2  0
 14 15  1  0
 14 16  1  0
 16 17  2  0
  6 18  1  0
 18 19  2  0
 19 20  1  0
 20 21  2  0
 21 22  1  0
 22 23  2  0
 10  2  2  0
 17 11  1  0
 23 18  1  0
  9  5  1  0
M  END
