CVD-0000262|dock_bobby27042020.71|mol2|1|dock2
     RDKit          3D

 23 25  0  0  0  0  0  0  0  0999 V2000
   10.8186    3.4171   23.9860 O   0  0  0  0  0  0  0  0  0  0  0  0
   12.2132    3.3510   23.7348 C   0  0  0  0  0  0  0  0  0  0  0  0
   12.5166    3.4668   22.2742 C   0  0  0  0  0  0  0  0  0  0  0  0
   11.7404    2.4801   21.5808 O   0  0  0  0  0  0  0  0  0  0  0  0
   12.0463    1.1869   21.7935 C   0  0  0  0  0  0  0  0  0  0  0  0
   13.2616    0.9261   22.2410 N   0  0  0  0  0  0  0  0  0  0  0  0
   13.5796   -0.3547   22.4568 C   0  0  0  0  0  0  0  0  0  0  0  0
   12.7082   -1.3934   22.2357 C   0  0  0  0  0  0  0  0  0  0  0  0
   11.4393   -1.1020   21.7669 C   0  0  0  0  0  0  0  0  0  0  0  0
   11.0592    0.2204   21.5259 C   0  0  0  0  0  0  0  0  0  0  0  0
    9.6584    0.4203   21.0184 C   0  0  0  0  0  0  0  0  0  0  0  0
    8.9264    1.2556   21.5408 O   0  0  0  0  0  0  0  0  0  0  0  0
    9.2340   -0.3249   19.9962 N   0  0  0  0  0  0  0  0  0  0  0  0
    7.8973   -0.1806   19.4617 C   0  0  0  0  0  0  0  0  0  0  0  0
    7.2412   -1.5109   19.2335 C   0  0  0  0  0  0  0  0  0  0  0  0
    6.4628   -1.9201   18.1466 C   0  0  0  0  0  0  0  0  0  0  0  0
    6.0272   -3.1673   18.2656 N   0  0  0  0  0  0  0  0  0  0  0  0
    6.5252   -3.6001   19.4651 N   0  0  0  0  0  0  0  0  0  0  0  0
    6.3374   -4.8371   20.0225 C   0  0  0  0  0  0  0  0  0  0  0  0
    6.9056   -5.0910   21.2211 C   0  0  0  0  0  0  0  0  0  0  0  0
    7.6710   -4.1141   21.8847 C   0  0  0  0  0  0  0  0  0  0  0  0
    7.8573   -2.8814   21.3280 C   0  0  0  0  0  0  0  0  0  0  0  0
    7.2641   -2.6169   20.0752 C   0  0  0  0  0  0  0  0  0  0  0  0
  1  2  1  0
  2  3  1  0
  3  4  1  0
  4  5  1  0
  5  6  2  0
  6  7  1  0
  7  8  2  0
  8  9  1  0
  9 10  2  0
 10 11  1  0
 11 12  2  0
 11 13  1  0
 13 14  1  0
 14 15  1  0
 15 16  1  0
 16 17  2  0
 17 18  1  0
 18 19  1  0
 19 20  2  0
 20 21  1  0
 21 22  2  0
 22 23  1  0
 10  5  1  0
 23 15  2  0
 23 18  1  0
M  END
