CVD-0003724|dock_bobby27042020.44|mol2|26|dock3
     RDKit          3D

 25 26  0  0  0  0  0  0  0  0999 V2000
    6.1261   -1.0247   18.1829 C   0  0  0  0  0  0  0  0  0  0  0  0
    6.9614   -1.5980   19.3017 C   0  0  0  0  0  0  0  0  0  0  0  0
    6.5881   -2.7678   19.9371 C   0  0  0  0  0  0  0  0  0  0  0  0
    7.3530   -3.2869   20.9616 C   0  0  0  0  0  0  0  0  0  0  0  0
    8.5161   -2.6558   21.3903 C   0  0  0  0  0  0  0  0  0  0  0  0
    9.2751   -3.3094   22.5257 C   0  0  0  0  0  0  0  0  0  0  0  0
    9.0408   -2.6649   23.8859 C   0  0  0  0  0  0  0  0  0  0  0  0
   10.0996   -3.0385   24.9043 C   0  0  0  0  0  0  0  0  0  0  0  0
   10.2704   -4.4950   24.9663 N   0  0  0  0  0  0  0  0  0  0  0  0
    9.7423   -5.3015   26.2474 S   0  0  0  0  0  0  0  0  0  0  0  0
    7.9947   -5.1900   26.2617 C   0  0  0  0  0  0  0  0  0  0  0  0
   10.2398   -4.6228   27.4041 O   0  0  0  0  0  0  0  0  0  0  0  0
   10.0980   -6.6733   26.0547 O   0  0  0  0  0  0  0  0  0  0  0  0
    8.9105   -1.4616   20.7579 C   0  0  0  0  0  0  0  0  0  0  0  0
   10.1027   -0.8278   21.2144 N   0  0  0  0  0  0  0  0  0  0  0  0
   10.4023    0.5118   21.3403 C   0  0  0  0  0  0  0  0  0  0  0  0
    9.6401    1.4308   21.0613 O   0  0  0  0  0  0  0  0  0  0  0  0
   11.6782    0.6949   21.8256 N   0  0  0  0  0  0  0  0  0  0  0  0
   12.4010    1.8811   22.1121 C   0  0  0  0  0  0  0  0  0  0  0  0
   12.1468    3.0117   21.3460 C   0  0  0  0  0  0  0  0  0  0  0  0
   12.8357    4.1843   21.6008 C   0  0  0  0  0  0  0  0  0  0  0  0
   13.7623    4.1955   22.6168 C   0  0  0  0  0  0  0  0  0  0  0  0
   14.0301    3.1292   23.3702 N   0  0  0  0  0  0  0  0  0  0  0  0
   13.3598    2.0008   23.1168 C   0  0  0  0  0  0  0  0  0  0  0  0
    8.1198   -0.9598   19.7199 C   0  0  0  0  0  0  0  0  0  0  0  0
  1  2  1  0
  2  3  2  0
  3  4  1  0
  4  5  2  0
  5  6  1  0
  6  7  1  0
  7  8  1  0
  8  9  1  0
  9 10  1  0
 10 11  1  0
 10 12  2  0
 10 13  2  0
  5 14  1  0
 14 15  1  0
 15 16  1  0
 16 17  2  0
 16 18  1  0
 18 19  1  0
 19 20  2  0
 20 21  1  0
 21 22  2  0
 22 23  1  0
 23 24  2  0
 14 25  2  0
 25  2  1  0
 24 19  1  0
M  END
