CVD-0003587|dock_bobby27042020.73|mol2|20|dock2
     RDKit          3D

 28 31  0  0  0  0  0  0  0  0999 V2000
   12.1018    5.7110   23.9010 C   0  0  0  0  0  0  0  0  0  0  0  0
   13.0581    4.5753   22.9655 S   0  0  0  0  0  0  0  0  0  0  0  0
   14.3099    4.3931   23.6327 O   0  0  0  0  0  0  0  0  0  0  0  0
   13.0660    5.0165   21.6051 O   0  0  0  0  0  0  0  0  0  0  0  0
   12.2824    3.1410   22.9985 N   0  0  0  0  0  0  0  0  0  0  0  0
   13.1126    1.9377   22.7833 C   0  0  0  0  0  0  0  0  0  0  0  0
   12.4011    0.7519   23.4136 C   0  0  0  0  0  0  0  0  0  0  0  0
   10.9346    0.6995   23.0543 C   0  0  0  0  0  0  0  0  0  0  0  0
   10.1927   -0.4545   23.2908 C   0  0  0  0  0  0  0  0  0  0  0  0
    8.8523   -0.5269   22.9571 C   0  0  0  0  0  0  0  0  0  0  0  0
    8.2135    0.5588   22.3742 C   0  0  0  0  0  0  0  0  0  0  0  0
    8.9613    1.7044   22.1424 C   0  0  0  0  0  0  0  0  0  0  0  0
   10.3103    1.7934   22.4722 C   0  0  0  0  0  0  0  0  0  0  0  0
   11.0514    3.0785   22.1923 C   0  0  0  0  0  0  0  0  0  0  0  0
    6.7362    0.5161   21.9999 C   0  0  0  0  0  0  0  0  0  0  0  0
    5.9526    1.4378   22.8745 C   0  0  0  0  0  0  0  0  0  0  0  0
    4.5040    1.3693   22.5612 N   0  0  0  0  0  0  0  0  0  0  0  0
    4.1054    1.4527   21.1425 C   0  0  0  0  0  0  0  0  0  0  0  0
    5.2478    1.3063   20.1332 C   0  0  0  0  0  0  0  0  0  0  0  0
    5.0285    1.5874   18.7885 C   0  0  0  0  0  0  0  0  0  0  0  0
    6.0379    1.4370   17.8545 C   0  0  0  0  0  0  0  0  0  0  0  0
    7.2808    1.0024   18.2588 C   0  0  0  0  0  0  0  0  0  0  0  0
    7.5054    0.7210   19.5950 C   0  0  0  0  0  0  0  0  0  0  0  0
    6.5017    0.8660   20.5523 C   0  0  0  0  0  0  0  0  0  0  0  0
    3.5491    1.1890   23.4990 C   0  0  0  0  0  0  0  0  0  0  0  0
    2.3604    1.1258   23.2115 O   0  0  0  0  0  0  0  0  0  0  0  0
    4.0123    1.0734   24.9382 C   0  0  0  0  0  0  0  0  0  0  0  0
    2.6341    0.9822   26.0425 Cl  0  0  0  0  0  0  0  0  0  0  0  0
  1  2  1  0
  2  3  2  0
  2  4  2  0
  2  5  1  0
  5  6  1  0
  6  7  1  0
  7  8  1  0
  8  9  2  0
  9 10  1  0
 10 11  2  0
 11 12  1  0
 12 13  2  0
 13 14  1  0
 11 15  1  0
 15 16  1  0
 16 17  1  0
 17 18  1  0
 18 19  1  0
 19 20  2  0
 20 21  1  0
 21 22  2  0
 22 23  1  0
 23 24  2  0
 17 25  1  0
 25 26  2  0
 25 27  1  0
 27 28  1  0
 14  5  1  0
 24 15  1  0
 13  8  1  0
 24 19  1  0
M  END
