CVD-0002792|dock_bobby27042020.18|mol2|35|dock3
     RDKit          3D

 22 24  0  0  0  0  0  0  0  0999 V2000
    6.1470   -2.6560   20.3677 O   0  0  0  0  0  0  0  0  0  0  0  0
    6.8490   -1.7891   20.8676 C   0  0  0  0  0  0  0  0  0  0  0  0
    7.2276   -1.9378   22.1553 N   0  0  0  0  0  0  0  0  0  0  0  0
    6.8509   -3.1307   22.9139 C   0  0  0  0  0  0  0  0  0  0  0  0
    8.3442   -3.7532   23.2074 C   0  0  0  0  0  0  0  0  0  0  0  0
    7.2236   -4.6296   22.7778 C   0  0  0  0  0  0  0  0  0  0  0  0
    7.2718   -0.6517   20.1042 N   0  0  0  0  0  0  0  0  0  0  0  0
    6.5588   -0.4248   18.8330 C   0  0  0  0  0  0  0  0  0  0  0  0
    5.4718    0.6174   18.9435 C   0  0  0  0  0  0  0  0  0  0  0  0
    4.6795    0.7182   20.0748 C   0  0  0  0  0  0  0  0  0  0  0  0
    3.6915    1.6851   20.1392 C   0  0  0  0  0  0  0  0  0  0  0  0
    3.5269    2.5255   19.0617 C   0  0  0  0  0  0  0  0  0  0  0  0
    4.2732    2.4527   17.9587 N   0  0  0  0  0  0  0  0  0  0  0  0
    5.2209    1.5111   17.9193 C   0  0  0  0  0  0  0  0  0  0  0  0
    8.2730    0.2892   20.4174 C   0  0  0  0  0  0  0  0  0  0  0  0
    8.2212    1.4026   19.9234 O   0  0  0  0  0  0  0  0  0  0  0  0
    9.4475    0.0554   21.3247 C   0  0  0  0  0  0  0  0  0  0  0  0
   10.1205   -1.1607   21.4053 C   0  0  0  0  0  0  0  0  0  0  0  0
   11.1969   -1.3204   22.2621 C   0  0  0  0  0  0  0  0  0  0  0  0
   11.6292   -0.2672   23.0381 C   0  0  0  0  0  0  0  0  0  0  0  0
   10.9871    0.9491   22.9559 C   0  0  0  0  0  0  0  0  0  0  0  0
    9.9067    1.1115   22.1049 C   0  0  0  0  0  0  0  0  0  0  0  0
  1  2  2  0
  2  3  1  0
  3  4  1  0
  4  5  1  0
  5  6  1  0
  2  7  1  0
  7  8  1  0
  8  9  1  0
  9 10  2  0
 10 11  1  0
 11 12  2  0
 12 13  1  0
 13 14  2  0
  7 15  1  0
 15 16  2  0
 15 17  1  0
 17 18  2  0
 18 19  1  0
 19 20  2  0
 20 21  1  0
 21 22  2  0
  6  4  1  0
 14  9  1  0
 22 17  1  0
M  END
