CVD-0001930|dock_bobby27042020.65|mol2|26|dock3
     RDKit          3D

 21 23  0  0  0  0  0  0  0  0999 V2000
   10.1133   -1.8564   21.2798 N   0  0  0  0  0  0  0  0  0  0  0  0
    9.2984   -0.7644   21.8569 C   0  0  0  0  0  0  0  0  0  0  0  0
    7.9252   -0.6478   21.2084 C   0  0  0  0  0  0  0  0  0  0  0  0
    8.0416    0.2932   20.1528 O   0  0  0  0  0  0  0  0  0  0  0  0
    6.8373    0.3983   19.3636 C   0  0  0  0  0  0  0  0  0  0  0  0
    6.7388   -0.9422   18.5894 C   0  0  0  0  0  0  0  0  0  0  0  0
    6.6083   -2.0639   19.6070 C   0  0  0  0  0  0  0  0  0  0  0  0
    5.9481   -3.2687   19.3331 C   0  0  0  0  0  0  0  0  0  0  0  0
    5.0537   -3.3577   18.2971 O   0  0  0  0  0  0  0  0  0  0  0  0
    6.0437   -4.3513   20.2038 C   0  0  0  0  0  0  0  0  0  0  0  0
    5.3525   -5.4876   19.9274 O   0  0  0  0  0  0  0  0  0  0  0  0
    6.7989   -4.2535   21.3655 C   0  0  0  0  0  0  0  0  0  0  0  0
    7.4541   -3.0695   21.6459 C   0  0  0  0  0  0  0  0  0  0  0  0
    7.3636   -1.9795   20.7788 C   0  0  0  0  0  0  0  0  0  0  0  0
    5.7201    0.7920   20.3294 C   0  0  0  0  0  0  0  0  0  0  0  0
    6.0740    1.9965   21.2145 C   0  0  0  0  0  0  0  0  0  0  0  0
    4.9780    2.2669   22.2340 C   0  0  0  0  0  0  0  0  0  0  0  0
    3.6121    2.4476   21.5800 C   0  0  0  0  0  0  0  0  0  0  0  0
    3.3061    1.2477   20.7053 C   0  0  0  0  0  0  0  0  0  0  0  0
    1.9893    1.3793   20.0717 N   0  0  0  0  0  0  0  0  0  0  0  0
    4.3767    1.0572   19.6290 C   0  0  0  0  0  0  0  0  0  0  0  0
  1  2  1  0
  2  3  1  0
  3  4  1  0
  4  5  1  0
  5  6  1  0
  6  7  1  0
  7  8  2  0
  8  9  1  0
  8 10  1  0
 10 11  1  0
 10 12  2  0
 12 13  1  0
 13 14  2  0
  5 15  1  0
 15 16  1  0
 16 17  1  0
 17 18  1  0
 18 19  1  0
 19 20  1  0
 19 21  1  0
 14  3  1  0
 21 15  1  0
 14  7  1  0
M  END
