CVD-0003762|dock_bobby27042020.72|mol2|43|dock1
     RDKit          3D

 24 26  0  0  0  0  0  0  0  0999 V2000
   10.8864   -2.2433   21.3388 O   0  0  0  0  0  0  0  0  0  0  0  0
   11.4856   -1.1834   21.9411 C   0  0  0  0  0  0  0  0  0  0  0  0
   12.7720   -1.2900   22.4511 C   0  0  0  0  0  0  0  0  0  0  0  0
   13.3546   -0.1921   23.0589 C   0  0  0  0  0  0  0  0  0  0  0  0
   12.6612    0.9962   23.1557 C   0  0  0  0  0  0  0  0  0  0  0  0
   11.3753    1.1176   22.6506 C   0  0  0  0  0  0  0  0  0  0  0  0
   10.7760    0.0184   22.0354 C   0  0  0  0  0  0  0  0  0  0  0  0
    9.4725    0.0090   21.4799 N   0  0  0  0  0  0  0  0  0  0  0  0
    8.3911    0.7800   21.7514 C   0  0  0  0  0  0  0  0  0  0  0  0
    8.3615    1.6772   22.5825 O   0  0  0  0  0  0  0  0  0  0  0  0
    7.1580    0.4675   20.9404 C   0  0  0  0  0  0  0  0  0  0  0  0
    7.3209    0.6568   19.4327 C   0  0  0  0  0  0  0  0  0  0  0  0
    6.0521    0.2774   18.6898 C   0  0  0  0  0  0  0  0  0  0  0  0
    4.8521    1.0438   19.2073 C   0  0  0  0  0  0  0  0  0  0  0  0
    4.6816    0.8483   20.7047 C   0  0  0  0  0  0  0  0  0  0  0  0
    5.9448    1.2322   21.4598 C   0  0  0  0  0  0  0  0  0  0  0  0
    7.0151   -0.9658   21.2251 C   0  0  0  0  0  0  0  0  0  0  0  0
    6.9128   -2.1429   21.3961 C   0  0  0  0  0  0  0  0  0  0  0  0
    6.8773   -3.5634   21.6229 C   0  0  0  0  0  0  0  0  0  0  0  0
    7.6020   -4.1245   22.6698 C   0  0  0  0  0  0  0  0  0  0  0  0
    7.5377   -5.4950   22.8498 C   0  0  0  0  0  0  0  0  0  0  0  0
    6.7682   -6.2584   21.9992 C   0  0  0  0  0  0  0  0  0  0  0  0
    6.0841   -5.6193   20.9900 C   0  0  0  0  0  0  0  0  0  0  0  0
    6.1209   -4.2959   20.7835 N   0  0  0  0  0  0  0  0  0  0  0  0
  1  2  1  0
  2  3  2  0
  3  4  1  0
  4  5  2  0
  5  6  1  0
  6  7  2  0
  7  8  1  0
  8  9  1  0
  9 10  2  0
  9 11  1  0
 11 12  1  0
 12 13  1  0
 13 14  1  0
 14 15  1  0
 15 16  1  0
 11 17  1  0
 17 18  3  0
 18 19  1  0
 19 20  2  0
 20 21  1  0
 21 22  2  0
 22 23  1  0
 23 24  2  0
  7  2  1  0
 16 11  1  0
 24 19  1  0
M  END
