CVD-0002814|dock_bobby27042020.4|mol2|23|dock3
     RDKit          3D

 25 27  0  0  0  0  0  0  0  0999 V2000
    5.1826    0.5208   21.5410 C   0  0  0  0  0  0  0  0  0  0  0  0
    5.8764    0.3587   20.2128 C   0  0  0  0  0  0  0  0  0  0  0  0
    5.2464    0.8458   19.0716 C   0  0  0  0  0  0  0  0  0  0  0  0
    5.8542    0.7092   17.8438 C   0  0  0  0  0  0  0  0  0  0  0  0
    7.0373    0.1244   17.6806 N   0  0  0  0  0  0  0  0  0  0  0  0
    7.6521   -0.3481   18.7694 C   0  0  0  0  0  0  0  0  0  0  0  0
    7.1298   -0.2654   20.0606 C   0  0  0  0  0  0  0  0  0  0  0  0
    7.7815   -0.7687   21.2213 N   0  0  0  0  0  0  0  0  0  0  0  0
    9.1003   -0.8340   21.5294 C   0  0  0  0  0  0  0  0  0  0  0  0
   10.0258   -0.4493   20.8230 O   0  0  0  0  0  0  0  0  0  0  0  0
    9.3660   -1.4601   22.8807 C   0  0  0  0  0  0  0  0  0  0  0  0
   10.7894   -1.1945   23.3932 C   0  0  0  0  0  0  0  0  0  0  0  0
   11.7273   -2.2258   22.8092 C   0  0  0  0  0  0  0  0  0  0  0  0
   13.1630   -1.8812   23.1790 C   0  0  0  0  0  0  0  0  0  0  0  0
   13.5689   -0.5929   22.5047 C   0  0  0  0  0  0  0  0  0  0  0  0
   12.5391    0.4994   22.6505 C   0  0  0  0  0  0  0  0  0  0  0  0
   12.9049    1.8103   22.3654 C   0  0  0  0  0  0  0  0  0  0  0  0
   11.9883    2.8425   22.4579 C   0  0  0  0  0  0  0  0  0  0  0  0
   10.6852    2.5791   22.8387 C   0  0  0  0  0  0  0  0  0  0  0  0
   10.3171    1.2762   23.1232 C   0  0  0  0  0  0  0  0  0  0  0  0
   11.2233    0.2173   23.0374 C   0  0  0  0  0  0  0  0  0  0  0  0
   12.4881    4.4945   22.0780 S   0  0  0  0  0  0  0  0  0  0  0  0
   13.9624    4.7245   22.6583 N   0  0  0  0  0  0  0  0  0  0  0  0
   11.6119    5.3797   22.7850 O   0  0  0  0  0  0  0  0  0  0  0  0
   12.5733    4.5983   20.6522 O   0  0  0  0  0  0  0  0  0  0  0  0
  1  2  1  0
  2  3  2  0
  3  4  1  0
  4  5  2  0
  5  6  1  0
  6  7  2  0
  7  8  1  0
  8  9  1  0
  9 10  2  0
  9 11  1  0
 12 11  1  0
 12 13  1  0
 13 14  1  0
 14 15  1  0
 15 16  1  0
 16 17  2  0
 17 18  1  0
 18 19  2  0
 19 20  1  0
 20 21  2  0
 18 22  1  0
 22 23  1  0
 22 24  2  0
 22 25  2  0
  7  2  1  0
 21 12  1  0
 21 16  1  0
M  END
