CVD-0003853|dock_bobby27042020.72|mol2|30|dock1
     RDKit          3D

 19 20  0  0  0  0  0  0  0  0999 V2000
   14.5948   -2.3150   25.4859 C   0  0  0  0  0  0  0  0  0  0  0  0
   13.2433   -1.9267   25.2929 O   0  0  0  0  0  0  0  0  0  0  0  0
   13.1144   -0.6709   24.6581 C   0  0  0  0  0  0  0  0  0  0  0  0
   11.6761   -0.3016   24.3720 C   0  0  0  0  0  0  0  0  0  0  0  0
   11.5781    0.9294   23.4640 C   0  0  0  0  0  0  0  0  0  0  0  0
   10.1441    1.2854   23.1914 C   0  0  0  0  0  0  0  0  0  0  0  0
    9.3985    0.1642   22.6115 N   0  0  0  0  0  0  0  0  0  0  0  0
    9.4651   -1.0649   23.4357 C   0  0  0  0  0  0  0  0  0  0  0  0
   10.9019   -1.4311   23.7409 C   0  0  0  0  0  0  0  0  0  0  0  0
    8.5507    0.3066   21.5214 C   0  0  0  0  0  0  0  0  0  0  0  0
    7.5508    1.2745   21.5145 C   0  0  0  0  0  0  0  0  0  0  0  0
    6.7012    1.4182   20.4321 C   0  0  0  0  0  0  0  0  0  0  0  0
    6.8463    0.5897   19.3337 C   0  0  0  0  0  0  0  0  0  0  0  0
    7.8360   -0.3767   19.3157 C   0  0  0  0  0  0  0  0  0  0  0  0
    8.6774   -0.5149   20.4053 C   0  0  0  0  0  0  0  0  0  0  0  0
    5.7701    0.7736   17.9440 S   0  0  0  0  0  0  0  0  0  0  0  0
    4.5253    1.6799   18.3828 N   0  0  0  0  0  0  0  0  0  0  0  0
    6.4886    1.4987   16.9396 O   0  0  0  0  0  0  0  0  0  0  0  0
    5.2570   -0.5251   17.6257 O   0  0  0  0  0  0  0  0  0  0  0  0
  1  2  1  0
  2  3  1  0
  3  4  1  0
  4  5  1  0
  5  6  1  0
  6  7  1  0
  7  8  1  0
  8  9  1  0
  7 10  1  0
 10 11  2  0
 11 12  1  0
 12 13  2  0
 13 14  1  0
 14 15  2  0
 13 16  1  0
 16 17  1  0
 16 18  2  0
 16 19  2  0
  9  4  1  0
 15 10  1  0
M  END
