CVD-0004013|dock_bobby27042020.43|mol2|24|dock2
     RDKit          3D

 35 37  0  0  0  0  0  0  0  0999 V2000
    6.8649   -6.7963   22.2588 C   0  0  0  0  0  0  0  0  0  0  0  0
    6.9031   -5.8217   23.4230 C   0  0  0  0  0  0  0  0  0  0  0  0
    6.2100   -4.5328   23.0133 C   0  0  0  0  0  0  0  0  0  0  0  0
    8.3557   -5.6070   23.8504 C   0  0  0  0  0  0  0  0  0  0  0  0
    8.6304   -4.6227   24.9921 C   0  0  0  0  0  0  0  0  0  0  0  0
    8.8462   -3.2867   24.4619 N   0  0  0  0  0  0  0  0  0  0  0  0
   10.0441   -2.8917   24.0214 C   0  0  0  0  0  0  0  0  0  0  0  0
   11.0334   -3.6194   24.0330 O   0  0  0  0  0  0  0  0  0  0  0  0
   10.1407   -1.4649   23.4891 C   0  0  0  0  0  0  0  0  0  0  0  0
   11.3370   -1.3562   22.5350 C   0  0  0  0  0  0  0  0  0  0  0  0
   12.1225   -0.0867   22.6773 C   0  0  0  0  0  0  0  0  0  0  0  0
   13.4618    0.0143   22.9132 C   0  0  0  0  0  0  0  0  0  0  0  0
   13.8364    1.3280   22.9847 N   0  0  0  0  0  0  0  0  0  0  0  0
   12.7290    2.1167   22.7925 C   0  0  0  0  0  0  0  0  0  0  0  0
   12.5898    3.5003   22.7753 C   0  0  0  0  0  0  0  0  0  0  0  0
   11.3329    4.0367   22.5488 C   0  0  0  0  0  0  0  0  0  0  0  0
   10.2436    3.2146   22.3443 C   0  0  0  0  0  0  0  0  0  0  0  0
   10.3806    1.8356   22.3629 C   0  0  0  0  0  0  0  0  0  0  0  0
   11.6299    1.2596   22.5911 C   0  0  0  0  0  0  0  0  0  0  0  0
    8.9087   -1.0900   22.8128 N   0  0  0  0  0  0  0  0  0  0  0  0
    8.4665   -1.7189   21.7200 C   0  0  0  0  0  0  0  0  0  0  0  0
    9.0500   -2.6599   21.1904 O   0  0  0  0  0  0  0  0  0  0  0  0
    7.1561   -1.1935   21.1595 C   0  0  0  0  0  0  0  0  0  0  0  0
    6.9422   -1.6001   19.7698 N   0  0  0  0  0  0  0  0  0  0  0  0
    7.8434   -1.0125   18.7953 N   0  0  0  0  0  0  0  0  0  0  0  0
    5.5575   -1.4451   19.3058 C   0  0  0  0  0  0  0  0  0  0  0  0
    5.0773   -0.0144   19.3586 C   0  0  0  0  0  0  0  0  0  0  0  0
    4.4065    0.4668   20.4722 C   0  0  0  0  0  0  0  0  0  0  0  0
    3.9632    1.7780   20.5194 C   0  0  0  0  0  0  0  0  0  0  0  0
    4.1848    2.6224   19.4528 C   0  0  0  0  0  0  0  0  0  0  0  0
    4.8493    2.1558   18.3390 C   0  0  0  0  0  0  0  0  0  0  0  0
    5.2926    0.8446   18.2921 C   0  0  0  0  0  0  0  0  0  0  0  0
    9.8158   -5.0612   25.8381 C   0  0  0  0  0  0  0  0  0  0  0  0
    9.7438   -4.6371   27.0740 O   0  0  0  0  0  0  0  0  0  0  0  0
   10.7241   -5.7318   25.3990 O   0  0  0  0  0  0  0  0  0  0  0  0
  1  2  1  0
  2  3  1  0
  2  4  1  0
  5  4  1  0
  5  6  1  0
  6  7  1  0
  7  8  2  0
  7  9  1  0
  9 10  1  0
 10 11  1  0
 11 12  2  0
 12 13  1  0
 13 14  1  0
 14 15  2  0
 15 16  1  0
 16 17  2  0
 17 18  1  0
 18 19  2  0
  9 20  1  0
 20 21  1  0
 21 22  2  0
 21 23  1  0
 23 24  1  0
 24 25  1  0
 24 26  1  0
 26 27  1  0
 27 28  2  0
 28 29  1  0
 29 30  2  0
 30 31  1  0
 31 32  2  0
  5 33  1  0
 33 34  1  0
 33 35  2  0
 19 11  1  0
 32 27  1  0
 19 14  1  0
M  END
