CVD-0003172|dock_bobby27042020.60|mol2|34|dock3
     RDKit          3D

 41 44  0  0  0  0  0  0  0  0999 V2000
    9.9156   -1.1550   21.7275 C   0  0  0  0  0  0  0  0  0  0  0  0
   11.0015   -0.1751   22.1135 C   0  0  0  0  0  0  0  0  0  0  0  0
   12.3528   -0.4841   21.8762 C   0  0  0  0  0  0  0  0  0  0  0  0
   12.7265   -1.7067   21.4033 O   0  0  0  0  0  0  0  0  0  0  0  0
   13.3634    0.4402   22.1065 C   0  0  0  0  0  0  0  0  0  0  0  0
   13.0536    1.6957   22.5935 C   0  0  0  0  0  0  0  0  0  0  0  0
   11.7405    2.0145   22.8872 C   0  0  0  0  0  0  0  0  0  0  0  0
   10.7207    1.0822   22.6914 C   0  0  0  0  0  0  0  0  0  0  0  0
    9.3557    1.5399   23.1306 C   0  0  0  0  0  0  0  0  0  0  0  0
    8.7631    0.8749   23.9753 O   0  0  0  0  0  0  0  0  0  0  0  0
    8.7969    2.6366   22.5926 N   0  0  0  0  0  0  0  0  0  0  0  0
    7.5260    3.1995   23.0428 C   0  0  0  0  0  0  0  0  0  0  0  0
    7.8142    4.5358   23.7310 C   0  0  0  0  0  0  0  0  0  0  0  0
    8.7732    5.7273   22.7624 S   0  0  0  0  0  0  0  0  0  0  0  0
   10.2491    5.9407   23.7017 C   0  0  0  0  0  0  0  0  0  0  0  0
   10.1843    6.3367   25.0304 C   0  0  0  0  0  0  0  0  0  0  0  0
   11.3473    6.5107   25.7619 C   0  0  0  0  0  0  0  0  0  0  0  0
   12.5759    6.2945   25.1756 C   0  0  0  0  0  0  0  0  0  0  0  0
   12.6472    5.9046   23.8553 C   0  0  0  0  0  0  0  0  0  0  0  0
   11.4894    5.7280   23.1162 C   0  0  0  0  0  0  0  0  0  0  0  0
    6.5684    3.3419   21.8470 C   0  0  0  0  0  0  0  0  0  0  0  0
    6.6514    4.6386   21.2533 O   0  0  0  0  0  0  0  0  0  0  0  0
    5.1223    3.1305   22.3000 C   0  0  0  0  0  0  0  0  0  0  0  0
    4.0681    3.4286   21.2668 C   0  0  0  0  0  0  0  0  0  0  0  0
    3.1269    4.2436   21.7074 N   0  0  0  0  0  0  0  0  0  0  0  0
    2.1729    4.7085   20.8429 C   0  0  0  0  0  0  0  0  0  0  0  0
    1.1917    5.6153   21.3047 C   0  0  0  0  0  0  0  0  0  0  0  0
    0.2496    6.0838   20.4384 C   0  0  0  0  0  0  0  0  0  0  0  0
   -0.9525    7.2007   21.0214 Cl  0  0  0  0  0  0  0  0  0  0  0  0
    0.2147    5.7040   19.1130 C   0  0  0  0  0  0  0  0  0  0  0  0
    1.1436    4.8280   18.6386 C   0  0  0  0  0  0  0  0  0  0  0  0
    2.1439    4.3045   19.4911 C   0  0  0  0  0  0  0  0  0  0  0  0
    3.1300    3.3865   19.0731 C   0  0  0  0  0  0  0  0  0  0  0  0
    4.0774    2.9167   19.9499 C   0  0  0  0  0  0  0  0  0  0  0  0
    5.0205    1.8996   19.3645 C   0  0  0  0  0  0  0  0  0  0  0  0
    5.5172    2.1099   18.2621 O   0  0  0  0  0  0  0  0  0  0  0  0
    5.3005    0.7673   20.0414 N   0  0  0  0  0  0  0  0  0  0  0  0
    6.2456   -0.2911   19.6179 C   0  0  0  0  0  0  0  0  0  0  0  0
    7.5953    0.3521   19.3329 C   0  0  0  0  0  0  0  0  0  0  0  0
    6.3953   -1.3156   20.7343 C   0  0  0  0  0  0  0  0  0  0  0  0
    5.7265   -0.9639   18.3545 C   0  0  0  0  0  0  0  0  0  0  0  0
  1  2  1  0
  2  3  2  0
  3  4  1  0
  3  5  1  0
  5  6  2  0
  6  7  1  0
  7  8  2  0
  8  9  1  0
  9 10  2  0
  9 11  1  0
 11 12  1  0
 12 13  1  0
 13 14  1  0
 14 15  1  0
 15 16  2  0
 16 17  1  0
 17 18  2  0
 18 19  1  0
 19 20  2  0
 12 21  1  0
 21 22  1  0
 21 23  1  0
 23 24  1  0
 24 25  2  0
 25 26  1  0
 26 27  2  0
 27 28  1  0
 28 29  1  0
 28 30  2  0
 30 31  1  0
 31 32  2  0
 32 33  1  0
 33 34  2  0
 34 35  1  0
 35 36  2  0
 35 37  1  0
 37 38  1  0
 38 39  1  0
 38 40  1  0
 38 41  1  0
  8  2  1  0
 20 15  1  0
 34 24  1  0
 32 26  1  0
M  END
