CVD-0000464|dock_bobby27042020.70|mol2|9|dock2
     RDKit          3D

 22 23  0  0  0  0  0  0  0  0999 V2000
    6.6645   -6.6958   22.3621 C   0  0  0  0  0  0  0  0  0  0  0  0
    6.8227   -5.6560   21.2973 C   0  0  0  0  0  0  0  0  0  0  0  0
    6.1387   -4.4236   21.6515 N   0  0  0  0  0  0  0  0  0  0  0  0
    6.1693   -3.3252   20.8788 C   0  0  0  0  0  0  0  0  0  0  0  0
    5.7440   -3.4736   19.6082 N   0  0  0  0  0  0  0  0  0  0  0  0
    5.7742   -2.4034   18.8072 C   0  0  0  0  0  0  0  0  0  0  0  0
    6.2152   -1.1515   19.2176 C   0  0  0  0  0  0  0  0  0  0  0  0
    6.6436   -1.0110   20.5325 C   0  0  0  0  0  0  0  0  0  0  0  0
    6.6284   -2.0973   21.4006 C   0  0  0  0  0  0  0  0  0  0  0  0
    7.0924   -1.8988   22.8258 C   0  0  0  0  0  0  0  0  0  0  0  0
    8.4176   -1.2694   22.9165 N   0  0  0  0  0  0  0  0  0  0  0  0
    8.7107   -0.8891   24.3014 C   0  0  0  0  0  0  0  0  0  0  0  0
   10.0617   -0.2031   24.3829 C   0  0  0  0  0  0  0  0  0  0  0  0
   11.1135   -1.0813   23.8659 N   0  0  0  0  0  0  0  0  0  0  0  0
   10.8192   -1.5283   22.5008 C   0  0  0  0  0  0  0  0  0  0  0  0
    9.4524   -2.1859   22.4447 C   0  0  0  0  0  0  0  0  0  0  0  0
   12.2180   -1.3957   24.5744 C   0  0  0  0  0  0  0  0  0  0  0  0
   12.4051   -0.9523   25.7005 O   0  0  0  0  0  0  0  0  0  0  0  0
   13.2265   -2.3173   23.9154 C   0  0  0  0  0  0  0  0  0  0  0  0
   14.6216   -2.6376   24.9543 Cl  0  0  0  0  0  0  0  0  0  0  0  0
    6.2300   -0.0293   18.3119 C   0  0  0  0  0  0  0  0  0  0  0  0
    6.2574    0.8406   17.5722 N   0  0  0  0  0  0  0  0  0  0  0  0
  1  2  1  0
  2  3  1  0
  3  4  1  0
  4  5  2  0
  5  6  1  0
  6  7  2  0
  7  8  1  0
  8  9  2  0
  9 10  1  0
 10 11  1  0
 11 12  1  0
 12 13  1  0
 13 14  1  0
 14 15  1  0
 15 16  1  0
 14 17  1  0
 17 18  2  0
 17 19  1  0
 19 20  1  0
  7 21  1  0
 21 22  3  0
  9  4  1  0
 16 11  1  0
M  END
