CVD-0003061|dock_bobby27042020.89|mol2|13|dock1
     RDKit          3D

 40 43  0  0  0  0  0  0  0  0999 V2000
    8.5368    8.3434   24.3322 O   0  0  0  0  0  0  0  0  0  0  0  0
    9.6780    8.0442   24.6777 N   0  0  0  0  0  0  0  0  0  0  0  0
   10.3503    8.6985   25.4567 O   0  0  0  0  0  0  0  0  0  0  0  0
   10.2690    6.8219   24.1173 C   0  0  0  0  0  0  0  0  0  0  0  0
   11.6242    6.5767   24.2661 C   0  0  0  0  0  0  0  0  0  0  0  0
   12.1731    5.4231   23.7350 C   0  0  0  0  0  0  0  0  0  0  0  0
   11.3901    4.5036   23.0532 C   0  0  0  0  0  0  0  0  0  0  0  0
   12.0044    3.2484   22.4809 C   0  0  0  0  0  0  0  0  0  0  0  0
   11.7634    2.0603   23.2869 N   0  0  0  0  0  0  0  0  0  0  0  0
   12.6535    1.0507   23.2838 C   0  0  0  0  0  0  0  0  0  0  0  0
   13.6737    1.1488   22.6125 O   0  0  0  0  0  0  0  0  0  0  0  0
   12.4333   -0.0824   24.0181 N   0  0  0  0  0  0  0  0  0  0  0  0
   13.5128   -0.9952   24.3908 C   0  0  0  0  0  0  0  0  0  0  0  0
   13.1578   -2.3940   23.9670 C   0  0  0  0  0  0  0  0  0  0  0  0
   11.9104   -2.8047   24.5079 O   0  0  0  0  0  0  0  0  0  0  0  0
   10.8764   -1.9413   24.0658 C   0  0  0  0  0  0  0  0  0  0  0  0
   10.8286   -2.0789   22.5524 C   0  0  0  0  0  0  0  0  0  0  0  0
    9.4265   -2.0614   21.9885 C   0  0  0  0  0  0  0  0  0  0  0  0
    9.0605   -1.0559   21.0996 C   0  0  0  0  0  0  0  0  0  0  0  0
    7.7834   -1.0102   20.5614 C   0  0  0  0  0  0  0  0  0  0  0  0
    6.8409   -1.9689   20.8933 C   0  0  0  0  0  0  0  0  0  0  0  0
    7.1891   -2.9760   21.7746 C   0  0  0  0  0  0  0  0  0  0  0  0
    8.4658   -3.0128   22.3087 C   0  0  0  0  0  0  0  0  0  0  0  0
    8.8514   -4.2963   23.4082 Cl  0  0  0  0  0  0  0  0  0  0  0  0
    7.3657    0.2770   19.4369 S   0  0  0  0  0  0  0  0  0  0  0  0
    6.8718   -0.3248   18.2375 O   0  0  0  0  0  0  0  0  0  0  0  0
    8.4667    1.1874   19.3758 O   0  0  0  0  0  0  0  0  0  0  0  0
    6.1184    1.1008   20.0877 N   0  0  0  0  0  0  0  0  0  0  0  0
    6.1327    1.3005   21.5438 C   0  0  0  0  0  0  0  0  0  0  0  0
    5.2574    2.4652   21.8850 C   0  0  0  0  0  0  0  0  0  0  0  0
    3.9163    2.2698   21.3595 N   0  0  0  0  0  0  0  0  0  0  0  0
    3.8727    1.9842   19.9219 C   0  0  0  0  0  0  0  0  0  0  0  0
    4.7635    0.8243   19.5881 C   0  0  0  0  0  0  0  0  0  0  0  0
    2.8441    2.3924   22.1685 C   0  0  0  0  0  0  0  0  0  0  0  0
    2.9557    2.6591   23.3585 O   0  0  0  0  0  0  0  0  0  0  0  0
    1.4860    2.1762   21.5302 C   0  0  0  0  0  0  0  0  0  0  0  0
    0.1737    2.5480   22.6559 Cl  0  0  0  0  0  0  0  0  0  0  0  0
   11.1195   -0.5216   24.4838 C   0  0  0  0  0  0  0  0  0  0  0  0
   10.0348    4.7653   22.9144 C   0  0  0  0  0  0  0  0  0  0  0  0
    9.4712    5.9144   23.4399 C   0  0  0  0  0  0  0  0  0  0  0  0
  1  2  1  0
  2  3  2  0
  2  4  1  0
  4  5  2  0
  5  6  1  0
  6  7  2  0
  7  8  1  0
  8  9  1  0
  9 10  1  0
 10 11  2  0
 10 12  1  0
 12 13  1  0
 13 14  1  0
 14 15  1  0
 15 16  1  0
 16 17  1  0
 17 18  1  0
 18 19  2  0
 19 20  1  0
 20 21  2  0
 21 22  1  0
 22 23  2  0
 23 24  1  0
 20 25  1  0
 25 26  2  0
 25 27  2  0
 25 28  1  0
 28 29  1  0
 29 30  1  0
 30 31  1  0
 31 32  1  0
 32 33  1  0
 31 34  1  0
 34 35  2  0
 34 36  1  0
 36 37  1  0
 16 38  1  0
  7 39  1  0
 39 40  2  0
 40  4  1  0
 38 12  1  0
 23 18  1  0
 33 28  1  0
M  CHG  2   1  -1   2   1
M  END
