CVD-0001552|dock_bobby27042020.66|mol2|42|dock1
     RDKit          3D

 27 28  0  0  0  0  0  0  0  0999 V2000
   14.0915    4.4213   22.6379 F   0  0  0  0  0  0  0  0  0  0  0  0
   12.6832    4.2437   22.1144 S   0  0  0  0  0  0  0  0  0  0  0  0
   12.4350    2.8483   22.0364 O   0  0  0  0  0  0  0  0  0  0  0  0
   12.5752    5.0117   20.9255 O   0  0  0  0  0  0  0  0  0  0  0  0
   11.6193    4.9379   23.3321 C   0  0  0  0  0  0  0  0  0  0  0  0
   10.1998    4.9290   22.8243 C   0  0  0  0  0  0  0  0  0  0  0  0
    9.6412    6.1697   22.5340 C   0  0  0  0  0  0  0  0  0  0  0  0
    8.3485    6.2770   22.0598 C   0  0  0  0  0  0  0  0  0  0  0  0
    7.5996    5.1391   21.8703 C   0  0  0  0  0  0  0  0  0  0  0  0
    8.1275    3.8889   22.1492 C   0  0  0  0  0  0  0  0  0  0  0  0
    9.4350    3.7639   22.6298 C   0  0  0  0  0  0  0  0  0  0  0  0
   10.0331    2.5084   22.9333 N   0  0  0  0  0  0  0  0  0  0  0  0
    9.9294    1.3020   22.2822 C   0  0  0  0  0  0  0  0  0  0  0  0
    9.2731    1.0701   21.2713 O   0  0  0  0  0  0  0  0  0  0  0  0
   10.6534    0.3320   22.8825 N   0  0  0  0  0  0  0  0  0  0  0  0
   10.6066   -1.0370   22.3961 C   0  0  0  0  0  0  0  0  0  0  0  0
   12.0286   -1.5622   22.1462 C   0  0  0  0  0  0  0  0  0  0  0  0
   12.8341   -1.7280   23.4119 C   0  0  0  0  0  0  0  0  0  0  0  0
   12.6866   -2.8471   24.2146 C   0  0  0  0  0  0  0  0  0  0  0  0
   13.4362   -2.9704   25.3713 C   0  0  0  0  0  0  0  0  0  0  0  0
   14.3162   -1.9620   25.6917 C   0  0  0  0  0  0  0  0  0  0  0  0
   14.4803   -0.8720   24.9408 N   0  0  0  0  0  0  0  0  0  0  0  0
   13.7453   -0.7756   23.8287 C   0  0  0  0  0  0  0  0  0  0  0  0
    9.9032   -1.9545   23.3802 C   0  0  0  0  0  0  0  0  0  0  0  0
   10.0169   -1.7755   24.5732 O   0  0  0  0  0  0  0  0  0  0  0  0
    9.0815   -3.0762   22.8089 C   0  0  0  0  0  0  0  0  0  0  0  0
    7.3886   -2.6450   22.5335 Cl  0  0  0  0  0  0  0  0  0  0  0  0
  1  2  1  0
  2  3  2  0
  2  4  2  0
  2  5  1  0
  5  6  1  0
  6  7  2  0
  7  8  1  0
  8  9  2  0
  9 10  1  0
 10 11  2  0
 11 12  1  0
 12 13  1  0
 13 14  2  0
 13 15  1  0
 15 16  1  0
 16 17  1  0
 17 18  1  0
 18 19  2  0
 19 20  1  0
 20 21  2  0
 21 22  1  0
 22 23  2  0
 16 24  1  0
 24 25  2  0
 24 26  1  0
 26 27  1  0
 11  6  1  0
 23 18  1  0
M  END
