CVD-0001969|dock_bobby27042020.7|mol2|45|dock3
     RDKit          3D

 27 29  0  0  0  0  0  0  0  0999 V2000
   13.7233    5.5930   22.0761 C   0  0  0  0  0  0  0  0  0  0  0  0
   12.3758    5.2887   21.5879 N   0  0  0  0  0  0  0  0  0  0  0  0
   11.4526    4.8006   22.6180 C   0  0  0  0  0  0  0  0  0  0  0  0
   11.4294    3.2958   22.6774 C   0  0  0  0  0  0  0  0  0  0  0  0
   12.3896    2.4800   23.2962 C   0  0  0  0  0  0  0  0  0  0  0  0
   12.0263    1.1537   23.1448 C   0  0  0  0  0  0  0  0  0  0  0  0
   12.7776   -0.0270   23.6495 C   0  0  0  0  0  0  0  0  0  0  0  0
   13.0521   -0.1908   25.0112 C   0  0  0  0  0  0  0  0  0  0  0  0
   13.7704   -1.2814   25.4727 C   0  0  0  0  0  0  0  0  0  0  0  0
   14.2097   -2.2506   24.6004 C   0  0  0  0  0  0  0  0  0  0  0  0
   13.9354   -2.1346   23.2507 C   0  0  0  0  0  0  0  0  0  0  0  0
   13.2369   -1.0359   22.8096 C   0  0  0  0  0  0  0  0  0  0  0  0
   13.0089   -0.9662   21.4778 F   0  0  0  0  0  0  0  0  0  0  0  0
   10.8280    1.1385   22.4392 N   0  0  0  0  0  0  0  0  0  0  0  0
    9.9891    0.0052   22.0303 C   0  0  0  0  0  0  0  0  0  0  0  0
    9.0951   -0.5305   23.1530 C   0  0  0  0  0  0  0  0  0  0  0  0
    9.8739   -0.5814   24.3926 N   0  0  0  0  0  0  0  0  0  0  0  0
    8.5686   -1.8526   22.7980 C   0  0  0  0  0  0  0  0  0  0  0  0
    9.0396   -2.8975   23.4889 N   0  0  0  0  0  0  0  0  0  0  0  0
    8.5469   -4.0904   23.1435 C   0  0  0  0  0  0  0  0  0  0  0  0
    7.6074   -4.2794   22.1378 C   0  0  0  0  0  0  0  0  0  0  0  0
    7.1058   -5.6640   21.8191 C   0  0  0  0  0  0  0  0  0  0  0  0
    7.1865   -3.1137   21.4813 C   0  0  0  0  0  0  0  0  0  0  0  0
    6.1901   -3.0883   20.3793 C   0  0  0  0  0  0  0  0  0  0  0  0
    5.6549   -4.0553   19.8834 O   0  0  0  0  0  0  0  0  0  0  0  0
    7.6688   -1.9000   21.8122 N   0  0  0  0  0  0  0  0  0  0  0  0
   10.4791    2.4285   22.1636 C   0  0  0  0  0  0  0  0  0  0  0  0
  1  2  1  0
  2  3  1  0
  3  4  1  0
  4  5  1  0
  5  6  2  0
  6  7  1  0
  7  8  2  0
  8  9  1  0
  9 10  2  0
 10 11  1  0
 11 12  2  0
 12 13  1  0
  6 14  1  0
 14 15  1  0
 15 16  1  0
 16 17  1  0
 16 18  1  0
 18 19  2  0
 19 20  1  0
 20 21  2  0
 21 22  1  0
 21 23  1  0
 23 24  1  0
 24 25  2  0
 23 26  2  0
 14 27  1  0
 27  4  2  0
 12  7  1  0
 26 18  1  0
M  END
