CVD-0000694|dock_bobby27042020.55|mol2|13|dock1
     RDKit          3D

 30 32  0  0  0  0  0  0  0  0999 V2000
    9.5411    1.9074   20.8964 O   0  0  0  0  0  0  0  0  0  0  0  0
   10.2031    1.2644   21.7068 C   0  0  0  0  0  0  0  0  0  0  0  0
   10.1889   -0.0829   21.7377 N   0  0  0  0  0  0  0  0  0  0  0  0
    9.3840   -0.8624   20.8081 C   0  0  0  0  0  0  0  0  0  0  0  0
    7.8973   -0.6620   21.0410 C   0  0  0  0  0  0  0  0  0  0  0  0
    7.0601   -1.7699   20.4380 C   0  0  0  0  0  0  0  0  0  0  0  0
    6.4629   -1.5177   19.2078 C   0  0  0  0  0  0  0  0  0  0  0  0
    5.6947   -2.4964   18.6182 C   0  0  0  0  0  0  0  0  0  0  0  0
    5.4883   -3.6898   19.1681 N   0  0  0  0  0  0  0  0  0  0  0  0
    6.0597   -3.9395   20.3504 C   0  0  0  0  0  0  0  0  0  0  0  0
    6.8580   -3.0257   21.0400 C   0  0  0  0  0  0  0  0  0  0  0  0
    7.4763   -3.2734   22.2991 N   0  0  0  0  0  0  0  0  0  0  0  0
    7.1632   -4.2060   23.2638 C   0  0  0  0  0  0  0  0  0  0  0  0
    6.2464   -5.0158   23.1794 O   0  0  0  0  0  0  0  0  0  0  0  0
    8.0147   -4.1147   24.3424 N   0  0  0  0  0  0  0  0  0  0  0  0
    8.0707   -4.8589   25.5486 C   0  0  0  0  0  0  0  0  0  0  0  0
    9.2462   -4.7868   26.2884 C   0  0  0  0  0  0  0  0  0  0  0  0
    9.3791   -5.4843   27.4773 C   0  0  0  0  0  0  0  0  0  0  0  0
    8.3393   -6.2659   27.9474 C   0  0  0  0  0  0  0  0  0  0  0  0
    7.1585   -6.3478   27.2193 C   0  0  0  0  0  0  0  0  0  0  0  0
    7.0223   -5.6471   26.0228 C   0  0  0  0  0  0  0  0  0  0  0  0
    6.0673   -7.1594   27.6992 C   0  0  0  0  0  0  0  0  0  0  0  0
    5.1817   -7.7781   28.0703 N   0  0  0  0  0  0  0  0  0  0  0  0
   10.9937    1.8606   22.6260 N   0  0  0  0  0  0  0  0  0  0  0  0
   11.1942    3.3088   22.6798 C   0  0  0  0  0  0  0  0  0  0  0  0
   12.4565    3.6668   23.4908 C   0  0  0  0  0  0  0  0  0  0  0  0
   12.6534    5.1755   23.6266 C   0  0  0  0  0  0  0  0  0  0  0  0
   11.4142    5.8469   24.2044 C   0  0  0  0  0  0  0  0  0  0  0  0
   10.1768    5.5164   23.3823 C   0  0  0  0  0  0  0  0  0  0  0  0
    9.9655    4.0089   23.2849 C   0  0  0  0  0  0  0  0  0  0  0  0
  1  2  2  0
  2  3  1  0
  3  4  1  0
  4  5  1  0
  5  6  1  0
  6  7  2  0
  7  8  1  0
  8  9  2  0
  9 10  1  0
 10 11  2  0
 11 12  1  0
 12 13  1  0
 13 14  2  0
 13 15  1  0
 15 16  1  0
 16 17  2  0
 17 18  1  0
 18 19  2  0
 19 20  1  0
 20 21  2  0
 20 22  1  0
 22 23  3  0
  2 24  1  0
 24 25  1  0
 25 26  1  0
 26 27  1  0
 27 28  1  0
 28 29  1  0
 29 30  1  0
 11  6  1  0
 21 16  1  0
 30 25  1  0
M  END
