CVD-0003027|dock_bobby27042020.32|mol2|19|dock1
     RDKit          3D

 28 31  0  0  0  0  0  0  0  0999 V2000
    3.6160    1.7102   19.2792 C   0  0  0  0  0  0  0  0  0  0  0  0
    4.9278    1.0432   19.5986 C   0  0  0  0  0  0  0  0  0  0  0  0
    5.1140    0.4298   20.8355 C   0  0  0  0  0  0  0  0  0  0  0  0
    6.3117   -0.1870   21.1526 C   0  0  0  0  0  0  0  0  0  0  0  0
    6.4013   -0.7696   22.4034 O   0  0  0  0  0  0  0  0  0  0  0  0
    7.5910   -1.3829   22.7156 C   0  0  0  0  0  0  0  0  0  0  0  0
    7.8700   -2.0614   24.0016 C   0  0  0  0  0  0  0  0  0  0  0  0
    7.0959   -2.2308   24.9342 O   0  0  0  0  0  0  0  0  0  0  0  0
    9.1449   -2.4965   23.9391 N   0  0  0  0  0  0  0  0  0  0  0  0
    9.8539   -3.1447   25.0442 C   0  0  0  0  0  0  0  0  0  0  0  0
    9.7261   -4.6578   25.0332 C   0  0  0  0  0  0  0  0  0  0  0  0
   10.1108   -5.2789   26.3530 C   0  0  0  0  0  0  0  0  0  0  0  0
    9.9607   -6.6891   26.3226 O   0  0  0  0  0  0  0  0  0  0  0  0
    9.7733   -2.2128   22.6545 C   0  0  0  0  0  0  0  0  0  0  0  0
    8.6704   -1.4745   21.9361 C   0  0  0  0  0  0  0  0  0  0  0  0
    8.6447   -0.8800   20.5999 C   0  0  0  0  0  0  0  0  0  0  0  0
    9.6061   -0.9323   19.8402 O   0  0  0  0  0  0  0  0  0  0  0  0
    7.3752   -0.2130   20.2377 C   0  0  0  0  0  0  0  0  0  0  0  0
    7.1943    0.3988   18.9992 C   0  0  0  0  0  0  0  0  0  0  0  0
    5.9904    1.0095   18.7017 C   0  0  0  0  0  0  0  0  0  0  0  0
    5.8068    1.7625   17.1515 Cl  0  0  0  0  0  0  0  0  0  0  0  0
   11.0585   -1.4123   22.7991 C   0  0  0  0  0  0  0  0  0  0  0  0
   11.2133   -0.4985   23.8319 C   0  0  0  0  0  0  0  0  0  0  0  0
   12.3779    0.2359   23.9686 C   0  0  0  0  0  0  0  0  0  0  0  0
   13.3787    0.0399   23.0562 C   0  0  0  0  0  0  0  0  0  0  0  0
   14.5271    0.7578   23.1839 F   0  0  0  0  0  0  0  0  0  0  0  0
   13.2724   -0.8483   22.0207 C   0  0  0  0  0  0  0  0  0  0  0  0
   12.1014   -1.5749   21.8981 C   0  0  0  0  0  0  0  0  0  0  0  0
  1  2  1  0
  2  3  2  0
  3  4  1  0
  4  5  1  0
  5  6  1  0
  6  7  1  0
  7  8  2  0
  7  9  1  0
  9 10  1  0
 10 11  1  0
 11 12  1  0
 12 13  1  0
  9 14  1  0
 14 15  1  0
 15 16  1  0
 16 17  2  0
 16 18  1  0
 18 19  1  0
 19 20  2  0
 20 21  1  0
 14 22  1  0
 22 23  2  0
 23 24  1  0
 24 25  2  0
 25 26  1  0
 25 27  1  0
 27 28  2  0
 20  2  1  0
 28 22  1  0
 18  4  2  0
 15  6  2  0
M  END
