CVD-0001824|dock_bobby27042020.22|mol2|35|dock1
     RDKit          3D

 24 27  0  0  0  0  0  0  0  0999 V2000
   13.9772   -0.7521   22.0823 C   0  0  0  0  0  0  0  0  0  0  0  0
   12.6363   -0.9212   22.7937 C   0  0  0  0  0  0  0  0  0  0  0  0
   11.5913   -1.6449   21.9715 C   0  0  0  0  0  0  0  0  0  0  0  0
   10.4757   -0.6412   21.8771 N   0  0  0  0  0  0  0  0  0  0  0  0
   10.7603    0.6189   22.6218 C   0  0  0  0  0  0  0  0  0  0  0  0
   12.1821    0.4342   23.1684 C   0  0  0  0  0  0  0  0  0  0  0  0
   13.0808    1.5088   22.7241 N   0  0  0  0  0  0  0  0  0  0  0  0
   12.8501    2.7948   23.3727 C   0  0  0  0  0  0  0  0  0  0  0  0
   13.4633    3.9314   22.6027 C   0  0  0  0  0  0  0  0  0  0  0  0
   14.3263    3.6982   21.5717 N   0  0  0  0  0  0  0  0  0  0  0  0
   14.7909    4.7608   20.9827 N   0  0  0  0  0  0  0  0  0  0  0  0
   14.1850    6.1582   21.6711 S   0  0  0  0  0  0  0  0  0  0  0  0
   13.2772    5.2656   22.7883 C   0  0  0  0  0  0  0  0  0  0  0  0
   12.2896    6.0336   23.9538 Cl  0  0  0  0  0  0  0  0  0  0  0  0
    9.3667   -0.9255   21.1707 C   0  0  0  0  0  0  0  0  0  0  0  0
    9.2459   -2.0011   20.5959 O   0  0  0  0  0  0  0  0  0  0  0  0
    8.2300    0.0453   21.0475 C   0  0  0  0  0  0  0  0  0  0  0  0
    8.1498    1.2995   21.5584 N   0  0  0  0  0  0  0  0  0  0  0  0
    7.2080    2.0060   20.8515 N   0  0  0  0  0  0  0  0  0  0  0  0
    6.6728    1.2323   19.8876 C   0  0  0  0  0  0  0  0  0  0  0  0
    5.6308    1.3471   18.8265 C   0  0  0  0  0  0  0  0  0  0  0  0
    5.3799   -0.1267   18.4668 C   0  0  0  0  0  0  0  0  0  0  0  0
    6.5630   -0.9490   19.0215 C   0  0  0  0  0  0  0  0  0  0  0  0
    7.2612    0.0021   19.9517 C   0  0  0  0  0  0  0  0  0  0  0  0
  1  2  1  0
  2  3  1  0
  3  4  1  0
  4  5  1  0
  5  6  1  0
  6  7  1  0
  7  8  1  0
  8  9  1  0
  9 10  1  0
 10 11  2  0
 11 12  1  0
 12 13  1  0
 13 14  1  0
  4 15  1  0
 15 16  2  0
 15 17  1  0
 17 18  2  0
 18 19  1  0
 19 20  1  0
 20 21  1  0
 21 22  1  0
 22 23  1  0
 23 24  1  0
  6  2  1  0
 13  9  2  0
 24 17  1  0
 24 20  2  0
M  END
