CVD-0002085|dock_bobby27042020.21|mol2|36|dock2
     RDKit          3D

 20 21  0  0  0  0  0  0  0  0999 V2000
    7.8111    2.1338   21.3002 O   0  0  0  0  0  0  0  0  0  0  0  0
    6.4926    1.8266   21.1890 C   0  0  0  0  0  0  0  0  0  0  0  0
    5.6171    2.2123   22.1971 C   0  0  0  0  0  0  0  0  0  0  0  0
    4.2684    1.9093   22.1028 C   0  0  0  0  0  0  0  0  0  0  0  0
    3.7801    1.2233   21.0103 C   0  0  0  0  0  0  0  0  0  0  0  0
    4.6340    0.8290   19.9937 C   0  0  0  0  0  0  0  0  0  0  0  0
    5.9868    1.1318   20.0877 C   0  0  0  0  0  0  0  0  0  0  0  0
    7.1200    0.6302   18.7737 S   0  0  0  0  0  0  0  0  0  0  0  0
    6.3007    0.4558   17.5309 O   0  0  0  0  0  0  0  0  0  0  0  0
    7.4796   -1.0285   19.3895 C   0  0  0  0  0  0  0  0  0  0  0  0
    8.3199   -0.9093   20.6531 C   0  0  0  0  0  0  0  0  0  0  0  0
    9.1830   -2.0820   20.8057 N   0  0  0  0  0  0  0  0  0  0  0  0
   10.0582   -2.0205   21.9782 C   0  0  0  0  0  0  0  0  0  0  0  0
   11.4005   -1.4042   21.6263 C   0  0  0  0  0  0  0  0  0  0  0  0
   12.3740   -1.4319   22.7796 C   0  0  0  0  0  0  0  0  0  0  0  0
   12.3734   -0.4256   23.7333 C   0  0  0  0  0  0  0  0  0  0  0  0
   13.2642   -0.4522   24.7934 C   0  0  0  0  0  0  0  0  0  0  0  0
   14.1666   -1.4869   24.9134 C   0  0  0  0  0  0  0  0  0  0  0  0
   14.1775   -2.4947   23.9734 C   0  0  0  0  0  0  0  0  0  0  0  0
   13.2864   -2.4672   22.9137 C   0  0  0  0  0  0  0  0  0  0  0  0
  1  2  1  0
  2  3  2  0
  3  4  1  0
  4  5  2  0
  5  6  1  0
  6  7  2  0
  7  8  1  0
  8  9  1  0
  8 10  1  0
 10 11  1  0
 11 12  1  0
 12 13  1  0
 13 14  1  0
 14 15  1  0
 15 16  2  0
 16 17  1  0
 17 18  2  0
 18 19  1  0
 19 20  2  0
  7  2  1  0
 20 15  1  0
M  CHG  2   8   1   9  -1
M  END
