CVD-0003917|dock_bobby27042020.43|mol2|38|dock3
     RDKit          3D

 26 28  0  0  0  0  0  0  0  0999 V2000
    7.8904   -0.4413   18.2197 F   0  0  0  0  0  0  0  0  0  0  0  0
    7.0328    0.0825   19.1254 C   0  0  0  0  0  0  0  0  0  0  0  0
    5.7701    0.4151   18.6979 C   0  0  0  0  0  0  0  0  0  0  0  0
    4.8791    0.9422   19.6164 C   0  0  0  0  0  0  0  0  0  0  0  0
    5.2583    1.1252   20.9289 C   0  0  0  0  0  0  0  0  0  0  0  0
    6.5344    0.7905   21.3521 C   0  0  0  0  0  0  0  0  0  0  0  0
    7.4394    0.2662   20.4400 C   0  0  0  0  0  0  0  0  0  0  0  0
    9.0597   -0.1325   21.0615 S   0  0  0  0  0  0  0  0  0  0  0  0
    9.7454    1.1092   21.2430 O   0  0  0  0  0  0  0  0  0  0  0  0
    9.6299   -1.1308   20.2108 O   0  0  0  0  0  0  0  0  0  0  0  0
    8.9347   -0.8040   22.5646 N   0  0  0  0  0  0  0  0  0  0  0  0
    9.7068   -0.2023   23.6811 C   0  0  0  0  0  0  0  0  0  0  0  0
   10.9742   -0.9821   24.0132 C   0  0  0  0  0  0  0  0  0  0  0  0
   11.7605   -0.3075   25.1559 C   0  0  0  0  0  0  0  0  0  0  0  0
   13.0734   -1.0252   25.4633 C   0  0  0  0  0  0  0  0  0  0  0  0
   13.9304   -1.1734   24.2129 C   0  0  0  0  0  0  0  0  0  0  0  0
   13.1607   -1.8682   23.0987 C   0  0  0  0  0  0  0  0  0  0  0  0
   11.8708   -1.1230   22.7713 C   0  0  0  0  0  0  0  0  0  0  0  0
    8.1662   -2.0258   22.7446 C   0  0  0  0  0  0  0  0  0  0  0  0
    7.5327   -2.6391   21.6644 C   0  0  0  0  0  0  0  0  0  0  0  0
    6.7967   -3.7995   21.8387 C   0  0  0  0  0  0  0  0  0  0  0  0
    6.6779   -4.3754   23.0892 C   0  0  0  0  0  0  0  0  0  0  0  0
    7.3056   -3.7806   24.1749 C   0  0  0  0  0  0  0  0  0  0  0  0
    8.0462   -2.6133   24.0038 C   0  0  0  0  0  0  0  0  0  0  0  0
    7.1940   -4.3688   25.4870 C   0  0  0  0  0  0  0  0  0  0  0  0
    7.1176   -4.8633   26.5139 N   0  0  0  0  0  0  0  0  0  0  0  0
  1  2  1  0
  2  3  2  0
  3  4  1  0
  4  5  2  0
  5  6  1  0
  6  7  2  0
  7  8  1  0
  8  9  2  0
  8 10  2  0
  8 11  1  0
 11 12  1  0
 12 13  1  0
 13 14  1  0
 14 15  1  0
 15 16  1  0
 16 17  1  0
 17 18  1  0
 11 19  1  0
 19 20  2  0
 20 21  1  0
 21 22  2  0
 22 23  1  0
 23 24  2  0
 23 25  1  0
 25 26  3  0
  7  2  1  0
 18 13  1  0
 24 19  1  0
M  END
