CVD-0001191|dock_bobby27042020.10|mol2|28|dock1
     RDKit          3D

 25 27  0  0  0  0  0  0  0  0999 V2000
    3.3718    2.9869   17.7611 F   0  0  0  0  0  0  0  0  0  0  0  0
    4.3135    2.1521   18.2778 C   0  0  0  0  0  0  0  0  0  0  0  0
    4.0593    1.5360   19.4717 C   0  0  0  0  0  0  0  0  0  0  0  0
    5.0166    0.6866   19.9981 C   0  0  0  0  0  0  0  0  0  0  0  0
    6.2151    0.4649   19.3235 C   0  0  0  0  0  0  0  0  0  0  0  0
    7.2359   -0.3915   19.8065 N   0  0  0  0  0  0  0  0  0  0  0  0
    7.3418   -1.0819   20.9895 C   0  0  0  0  0  0  0  0  0  0  0  0
    6.5189   -1.0820   21.9002 O   0  0  0  0  0  0  0  0  0  0  0  0
    8.4819   -1.7958   21.0722 N   0  0  0  0  0  0  0  0  0  0  0  0
    8.7978   -2.6028   22.2422 C   0  0  0  0  0  0  0  0  0  0  0  0
   10.2450   -2.4409   22.6547 C   0  0  0  0  0  0  0  0  0  0  0  0
   10.5367   -1.0663   23.0279 N   0  0  0  0  0  0  0  0  0  0  0  0
   11.7847   -0.5130   22.9704 C   0  0  0  0  0  0  0  0  0  0  0  0
   12.9181   -1.2743   23.1501 C   0  0  0  0  0  0  0  0  0  0  0  0
   14.1623   -0.6786   23.0825 C   0  0  0  0  0  0  0  0  0  0  0  0
   14.3733    0.6034   22.8527 N   0  0  0  0  0  0  0  0  0  0  0  0
   13.2705    1.3942   22.6707 C   0  0  0  0  0  0  0  0  0  0  0  0
   13.4808    2.7701   22.4248 C   0  0  0  0  0  0  0  0  0  0  0  0
   12.4113    3.5922   22.2386 C   0  0  0  0  0  0  0  0  0  0  0  0
   12.6864    5.2850   21.9363 Cl  0  0  0  0  0  0  0  0  0  0  0  0
   11.1150    3.1267   22.2820 C   0  0  0  0  0  0  0  0  0  0  0  0
   10.8787    1.8061   22.5169 C   0  0  0  0  0  0  0  0  0  0  0  0
   11.9445    0.8887   22.7194 C   0  0  0  0  0  0  0  0  0  0  0  0
    6.4287    1.1137   18.1126 C   0  0  0  0  0  0  0  0  0  0  0  0
    5.4750    1.9637   17.5821 C   0  0  0  0  0  0  0  0  0  0  0  0
  1  2  1  0
  2  3  2  0
  3  4  1  0
  4  5  2  0
  5  6  1  0
  6  7  1  0
  7  8  2  0
  7  9  1  0
  9 10  1  0
 10 11  1  0
 11 12  1  0
 12 13  1  0
 13 14  2  0
 14 15  1  0
 15 16  2  0
 16 17  1  0
 17 18  2  0
 18 19  1  0
 19 20  1  0
 19 21  2  0
 21 22  1  0
 22 23  2  0
  5 24  1  0
 24 25  2  0
 25  2  1  0
 23 13  1  0
 23 17  1  0
M  END
