CVD-0002214|dock_bobby27042020.49|mol2|32|dock2
     RDKit          3D

 29 31  0  0  0  0  0  0  0  0999 V2000
   10.6241    1.4109   22.4682 O   0  0  0  0  0  0  0  0  0  0  0  0
   11.7677    1.5752   22.8826 C   0  0  0  0  0  0  0  0  0  0  0  0
   12.6530    0.5558   22.9327 N   0  0  0  0  0  0  0  0  0  0  0  0
   12.2885   -0.8125   22.5824 C   0  0  0  0  0  0  0  0  0  0  0  0
   13.5577   -1.6942   22.3691 C   0  0  0  0  0  0  0  0  0  0  0  0
   13.4552   -2.7179   23.4522 N   0  0  0  0  0  0  0  0  0  0  0  0
   12.2778   -2.5415   24.2675 C   0  0  0  0  0  0  0  0  0  0  0  0
   11.5613   -1.3956   23.6880 C   0  0  0  0  0  0  0  0  0  0  0  0
   10.2160   -1.8202   23.3969 O   0  0  0  0  0  0  0  0  0  0  0  0
    9.9368   -2.5880   22.2250 C   0  0  0  0  0  0  0  0  0  0  0  0
    8.8114   -3.5283   22.5562 C   0  0  0  0  0  0  0  0  0  0  0  0
    8.3185   -4.1984   21.3517 N   0  0  0  0  0  0  0  0  0  0  0  0
    6.9364   -4.5805   21.4969 C   0  0  0  0  0  0  0  0  0  0  0  0
    6.0215   -3.4656   21.5996 N   0  0  0  0  0  0  0  0  0  0  0  0
    6.0137   -2.4153   20.7328 C   0  0  0  0  0  0  0  0  0  0  0  0
    6.0917   -1.0982   21.1854 C   0  0  0  0  0  0  0  0  0  0  0  0
    6.0790   -0.0784   20.2509 C   0  0  0  0  0  0  0  0  0  0  0  0
    5.9898   -0.3831   18.8976 C   0  0  0  0  0  0  0  0  0  0  0  0
    5.9159   -1.7271   18.5451 C   0  0  0  0  0  0  0  0  0  0  0  0
    5.9269   -2.7255   19.4354 N   0  0  0  0  0  0  0  0  0  0  0  0
    5.9741    0.6548   17.8964 C   0  0  0  0  0  0  0  0  0  0  0  0
    5.9481    1.4553   17.0820 N   0  0  0  0  0  0  0  0  0  0  0  0
   12.2976    2.7585   23.3360 N   0  0  0  0  0  0  0  0  0  0  0  0
   11.7180    4.0468   23.4499 C   0  0  0  0  0  0  0  0  0  0  0  0
   12.4955    5.0910   23.9339 C   0  0  0  0  0  0  0  0  0  0  0  0
   11.9476    6.3560   24.0523 C   0  0  0  0  0  0  0  0  0  0  0  0
   10.6358    6.5421   23.6832 C   0  0  0  0  0  0  0  0  0  0  0  0
    9.8635    5.5614   23.2155 N   0  0  0  0  0  0  0  0  0  0  0  0
   10.4012    4.3427   23.1045 C   0  0  0  0  0  0  0  0  0  0  0  0
  1  2  2  0
  2  3  1  0
  3  4  1  0
  4  5  1  0
  5  6  1  0
  6  7  1  0
  7  8  1  0
  8  9  1  0
  9 10  1  0
 10 11  1  0
 11 12  1  0
 12 13  1  0
 13 14  1  0
 14 15  1  0
 15 16  2  0
 16 17  1  0
 17 18  2  0
 18 19  1  0
 19 20  2  0
 18 21  1  0
 21 22  3  0
  2 23  1  0
 23 24  1  0
 24 25  2  0
 25 26  1  0
 26 27  2  0
 27 28  1  0
 28 29  2  0
  8  4  1  0
 20 15  1  0
 29 24  1  0
M  END
