CVD-0003562|dock_bobby27042020.30|mol2|30|dock1
     RDKit          3D

 26 29  0  0  0  0  0  0  0  0999 V2000
   12.9898    4.6551   23.7680 N   0  0  0  0  0  0  0  0  0  0  0  0
   13.2131    3.9268   22.3599 S   0  0  0  0  0  0  0  0  0  0  0  0
   14.6266    3.7962   22.1701 O   0  0  0  0  0  0  0  0  0  0  0  0
   12.4479    4.6453   21.3855 O   0  0  0  0  0  0  0  0  0  0  0  0
   12.5411    2.2955   22.4604 C   0  0  0  0  0  0  0  0  0  0  0  0
   13.3714    1.2226   22.7423 C   0  0  0  0  0  0  0  0  0  0  0  0
   12.8325   -0.0505   22.7656 C   0  0  0  0  0  0  0  0  0  0  0  0
   11.4816   -0.2732   22.5130 C   0  0  0  0  0  0  0  0  0  0  0  0
   10.8976   -1.6538   22.6015 C   0  0  0  0  0  0  0  0  0  0  0  0
    9.6637   -1.7611   21.7361 C   0  0  0  0  0  0  0  0  0  0  0  0
    8.7067   -0.7170   22.1179 N   0  0  0  0  0  0  0  0  0  0  0  0
    9.1867    0.6451   21.9086 C   0  0  0  0  0  0  0  0  0  0  0  0
   10.6556    0.8084   22.2311 C   0  0  0  0  0  0  0  0  0  0  0  0
   11.1927    2.0920   22.2063 C   0  0  0  0  0  0  0  0  0  0  0  0
    7.5489   -1.0813   22.7085 C   0  0  0  0  0  0  0  0  0  0  0  0
    7.3035   -2.2528   22.9669 O   0  0  0  0  0  0  0  0  0  0  0  0
    6.5419    0.0031   23.0495 C   0  0  0  0  0  0  0  0  0  0  0  0
    6.1386    0.8405   21.8730 C   0  0  0  0  0  0  0  0  0  0  0  0
    6.0170    2.1984   21.8303 C   0  0  0  0  0  0  0  0  0  0  0  0
    5.6279    2.6081   20.5827 N   0  0  0  0  0  0  0  0  0  0  0  0
    5.4896    1.5084   19.7877 C   0  0  0  0  0  0  0  0  0  0  0  0
    5.1231    1.4777   18.4953 N   0  0  0  0  0  0  0  0  0  0  0  0
    5.0584    0.2662   17.9262 C   0  0  0  0  0  0  0  0  0  0  0  0
    5.3419   -0.9096   18.5877 C   0  0  0  0  0  0  0  0  0  0  0  0
    5.7184   -0.8598   19.9207 C   0  0  0  0  0  0  0  0  0  0  0  0
    5.8010    0.3760   20.5590 C   0  0  0  0  0  0  0  0  0  0  0  0
  1  2  1  0
  2  3  2  0
  2  4  2  0
  2  5  1  0
  5  6  2  0
  6  7  1  0
  7  8  2  0
  8  9  1  0
  9 10  1  0
 10 11  1  0
 11 12  1  0
 12 13  1  0
 13 14  2  0
 11 15  1  0
 15 16  2  0
 15 17  1  0
 17 18  1  0
 18 19  2  0
 19 20  1  0
 20 21  1  0
 21 22  2  0
 22 23  1  0
 23 24  2  0
 24 25  1  0
 25 26  2  0
 14  5  1  0
 26 18  1  0
 13  8  1  0
 26 21  1  0
M  END
