CVD-0002400|dock_bobby27042020.91|mol2|30|dock1
     RDKit          3D

 27 30  0  0  0  0  0  0  0  0999 V2000
    3.6503    2.1480   19.3330 C   0  0  0  0  0  0  0  0  0  0  0  0
    4.8730    1.3380   18.9770 C   0  0  0  0  0  0  0  0  0  0  0  0
    5.4744    1.4397   17.7345 C   0  0  0  0  0  0  0  0  0  0  0  0
    6.5575    0.7463   17.3730 N   0  0  0  0  0  0  0  0  0  0  0  0
    7.0906   -0.0952   18.2638 C   0  0  0  0  0  0  0  0  0  0  0  0
    6.5768   -0.2747   19.5386 C   0  0  0  0  0  0  0  0  0  0  0  0
    5.4485    0.4617   19.8827 C   0  0  0  0  0  0  0  0  0  0  0  0
    7.1901   -1.1941   20.4803 N   0  0  0  0  0  0  0  0  0  0  0  0
    8.3897   -0.8025   21.0950 C   0  0  0  0  0  0  0  0  0  0  0  0
    8.9019    0.2858   20.8820 O   0  0  0  0  0  0  0  0  0  0  0  0
    8.9784   -1.6990   21.9917 N   0  0  0  0  0  0  0  0  0  0  0  0
   10.1997   -1.2633   22.6308 C   0  0  0  0  0  0  0  0  0  0  0  0
   11.4357   -1.5913   22.0862 C   0  0  0  0  0  0  0  0  0  0  0  0
   12.6030   -1.1737   22.7035 C   0  0  0  0  0  0  0  0  0  0  0  0
   12.5501   -0.4305   23.8626 C   0  0  0  0  0  0  0  0  0  0  0  0
   11.3291   -0.1018   24.4100 C   0  0  0  0  0  0  0  0  0  0  0  0
   10.1556   -0.5141   23.8011 C   0  0  0  0  0  0  0  0  0  0  0  0
    8.4181   -2.9658   22.2931 C   0  0  0  0  0  0  0  0  0  0  0  0
    9.0321   -3.8773   23.1512 C   0  0  0  0  0  0  0  0  0  0  0  0
    8.4132   -5.0793   23.4372 C   0  0  0  0  0  0  0  0  0  0  0  0
    9.1772   -6.1934   24.5230 Cl  0  0  0  0  0  0  0  0  0  0  0  0
    7.1976   -5.3861   22.8605 C   0  0  0  0  0  0  0  0  0  0  0  0
    6.5947   -6.5604   23.1563 F   0  0  0  0  0  0  0  0  0  0  0  0
    6.5889   -4.5218   21.9901 C   0  0  0  0  0  0  0  0  0  0  0  0
    7.1997   -3.3056   21.6864 C   0  0  0  0  0  0  0  0  0  0  0  0
    6.5373   -2.4189   20.7232 C   0  0  0  0  0  0  0  0  0  0  0  0
    5.4996   -2.7408   20.1696 O   0  0  0  0  0  0  0  0  0  0  0  0
  1  2  1  0
  2  3  2  0
  3  4  1  0
  4  5  2  0
  5  6  1  0
  6  7  2  0
  6  8  1  0
  8  9  1  0
  9 10  2  0
  9 11  1  0
 11 12  1  0
 12 13  2  0
 13 14  1  0
 14 15  2  0
 15 16  1  0
 16 17  2  0
 11 18  1  0
 18 19  2  0
 19 20  1  0
 20 21  1  0
 20 22  2  0
 22 23  1  0
 22 24  1  0
 24 25  2  0
 25 26  1  0
 26 27  2  0
  7  2  1  0
 26  8  1  0
 17 12  1  0
 25 18  1  0
M  END
