CVD-0000001|dock_bobby27042020.71|mol2|42|dock2
     RDKit          3D

 47 48  0  0  0  0  0  0  0  0999 V2000
    6.7810   -0.4185   26.0340 N   0  0  0  0  0  0  0  0  0  0  0  0
    7.2469   -1.1609   27.2129 C   0  0  0  0  0  0  0  0  0  0  0  0
    8.4557   -2.0279   26.9052 C   0  0  0  0  0  0  0  0  0  0  0  0
    9.5948   -1.6095   27.0870 O   0  0  0  0  0  0  0  0  0  0  0  0
    8.1926   -3.2457   26.4260 N   0  0  0  0  0  0  0  0  0  0  0  0
    9.2534   -4.1774   26.0800 C   0  0  0  0  0  0  0  0  0  0  0  0
    8.6602   -5.5485   25.7220 C   0  0  0  0  0  0  0  0  0  0  0  0
    7.6402   -6.0365   26.7218 C   0  0  0  0  0  0  0  0  0  0  0  0
    8.0124   -6.3445   28.0212 C   0  0  0  0  0  0  0  0  0  0  0  0
    7.0761   -6.7892   28.9396 C   0  0  0  0  0  0  0  0  0  0  0  0
    5.7561   -6.9303   28.5694 C   0  0  0  0  0  0  0  0  0  0  0  0
    5.3723   -6.6263   27.2810 C   0  0  0  0  0  0  0  0  0  0  0  0
    6.3090   -6.1817   26.3629 C   0  0  0  0  0  0  0  0  0  0  0  0
   10.0759   -3.6510   24.9075 C   0  0  0  0  0  0  0  0  0  0  0  0
   11.2865   -3.8518   24.8573 O   0  0  0  0  0  0  0  0  0  0  0  0
    9.4114   -2.9759   23.9653 N   0  0  0  0  0  0  0  0  0  0  0  0
   10.0862   -2.4261   22.8010 C   0  0  0  0  0  0  0  0  0  0  0  0
    9.0881   -1.6351   21.9496 C   0  0  0  0  0  0  0  0  0  0  0  0
    8.1001   -2.4848   21.1612 C   0  0  0  0  0  0  0  0  0  0  0  0
    7.2478   -1.6445   20.2307 C   0  0  0  0  0  0  0  0  0  0  0  0
    8.0352   -1.0301   19.1716 N   0  0  0  0  0  0  0  0  0  0  0  0
    7.5550   -0.1636   18.2899 C   0  0  0  0  0  0  0  0  0  0  0  0
    6.2682    0.1902   18.3495 N   0  0  0  0  0  0  0  0  0  0  0  0
    8.3343    0.3527   17.3546 N   0  0  0  0  0  0  0  0  0  0  0  0
   11.2547   -1.5439   23.2353 C   0  0  0  0  0  0  0  0  0  0  0  0
   11.4599   -1.3365   24.4283 O   0  0  0  0  0  0  0  0  0  0  0  0
   12.0226   -1.0321   22.2735 N   0  0  0  0  0  0  0  0  0  0  0  0
   13.1575   -0.1909   22.5864 C   0  0  0  0  0  0  0  0  0  0  0  0
   12.7637    1.1255   23.2280 C   0  0  0  0  0  0  0  0  0  0  0  0
   13.6063    1.8501   23.7484 O   0  0  0  0  0  0  0  0  0  0  0  0
   11.4668    1.4372   23.1800 N   0  0  0  0  0  0  0  0  0  0  0  0
   10.9553    2.6734   23.7487 C   0  0  0  0  0  0  0  0  0  0  0  0
   10.8973    3.7635   22.6657 C   0  0  0  0  0  0  0  0  0  0  0  0
   12.0568    4.7296   22.6966 C   0  0  0  0  0  0  0  0  0  0  0  0
   12.1493    5.6942   23.6879 C   0  0  0  0  0  0  0  0  0  0  0  0
   13.2141    6.5793   23.7176 C   0  0  0  0  0  0  0  0  0  0  0  0
   14.1993    6.5096   22.7562 C   0  0  0  0  0  0  0  0  0  0  0  0
   14.1197    5.5548   21.7654 C   0  0  0  0  0  0  0  0  0  0  0  0
   13.0547    4.6699   21.7361 C   0  0  0  0  0  0  0  0  0  0  0  0
    9.5758    2.4459   24.3629 C   0  0  0  0  0  0  0  0  0  0  0  0
    8.9577    1.4120   24.1237 O   0  0  0  0  0  0  0  0  0  0  0  0
    9.0950    3.4056   25.1591 N   0  0  0  0  0  0  0  0  0  0  0  0
    7.7931    3.3061   25.8145 C   0  0  0  0  0  0  0  0  0  0  0  0
    7.5748    4.5184   26.6836 C   0  0  0  0  0  0  0  0  0  0  0  0
    6.3289    4.3280   27.3422 O   0  0  0  0  0  0  0  0  0  0  0  0
    6.7188    3.1957   24.7511 C   0  0  0  0  0  0  0  0  0  0  0  0
    6.9145    3.3293   23.5794 O   0  0  0  0  0  0  0  0  0  0  0  0
  1  2  1  0
  2  3  1  0
  3  4  2  0
  3  5  1  0
  5  6  1  0
  6  7  1  0
  7  8  1  0
  8  9  2  0
  9 10  1  0
 10 11  2  0
 11 12  1  0
 12 13  2  0
  6 14  1  0
 14 15  2  0
 14 16  1  0
 16 17  1  0
 17 18  1  0
 18 19  1  0
 19 20  1  0
 20 21  1  0
 21 22  1  0
 22 23  1  0
 22 24  2  0
 17 25  1  0
 25 26  2  0
 25 27  1  0
 27 28  1  0
 28 29  1  0
 29 30  2  0
 29 31  1  0
 31 32  1  0
 32 33  1  0
 33 34  1  0
 34 35  2  0
 35 36  1  0
 36 37  2  0
 37 38  1  0
 38 39  2  0
 32 40  1  0
 40 41  2  0
 40 42  1  0
 42 43  1  0
 43 44  1  0
 44 45  1  0
 43 46  1  0
 46 47  2  0
 13  8  1  0
 39 34  1  0
M  END
