CVD-0001933|dock_bobby27042020.65|mol2|25|dock2
     RDKit          3D

 19 20  0  0  0  0  0  0  0  0999 V2000
   13.6859   -2.2071   20.6313 C   0  0  0  0  0  0  0  0  0  0  0  0
   12.5876   -1.8437   21.5305 N   0  0  0  0  0  0  0  0  0  0  0  0
   13.0525   -1.6130   22.9037 C   0  0  0  0  0  0  0  0  0  0  0  0
   11.9927   -0.9421   23.7762 C   0  0  0  0  0  0  0  0  0  0  0  0
   10.8137   -1.8862   23.9974 C   0  0  0  0  0  0  0  0  0  0  0  0
   11.5314    0.3724   23.1413 C   0  0  0  0  0  0  0  0  0  0  0  0
   12.6278    1.3995   23.0615 C   0  0  0  0  0  0  0  0  0  0  0  0
   12.1146    2.8050   22.8856 C   0  0  0  0  0  0  0  0  0  0  0  0
   12.9906    3.8698   22.6207 C   0  0  0  0  0  0  0  0  0  0  0  0
   14.3371    3.6804   22.4639 O   0  0  0  0  0  0  0  0  0  0  0  0
   12.4929    5.1545   22.4026 C   0  0  0  0  0  0  0  0  0  0  0  0
   13.3576    6.1545   22.0902 O   0  0  0  0  0  0  0  0  0  0  0  0
   11.1269    5.3947   22.4449 C   0  0  0  0  0  0  0  0  0  0  0  0
   10.2670    4.3449   22.7059 C   0  0  0  0  0  0  0  0  0  0  0  0
   10.7506    3.0546   22.9260 C   0  0  0  0  0  0  0  0  0  0  0  0
    9.7813    1.9546   23.2943 C   0  0  0  0  0  0  0  0  0  0  0  0
    8.6619    2.4161   24.2165 C   0  0  0  0  0  0  0  0  0  0  0  0
    7.5157    2.9947   23.4808 N   0  0  0  0  0  0  0  0  0  0  0  0
   10.4470    0.8665   23.9412 O   0  0  0  0  0  0  0  0  0  0  0  0
  1  2  1  0
  2  3  1  0
  3  4  1  0
  4  5  1  0
  4  6  1  0
  6  7  1  0
  7  8  1  0
  8  9  2  0
  9 10  1  0
  9 11  1  0
 11 12  1  0
 11 13  2  0
 13 14  1  0
 14 15  2  0
 15 16  1  0
 16 17  1  0
 17 18  1  0
 16 19  1  0
 19  6  1  0
 15  8  1  0
M  END
