CVD-0003632|dock_bobby27042020.30|mol2|20|dock1
     RDKit          3D

 18 19  0  0  0  0  0  0  0  0999 V2000
   11.5513    0.0301   25.0439 C   0  0  0  0  0  0  0  0  0  0  0  0
   12.1634   -0.7745   23.9181 C   0  0  0  0  0  0  0  0  0  0  0  0
   13.3763   -1.4491   24.1332 C   0  0  0  0  0  0  0  0  0  0  0  0
   14.0660   -1.3608   25.3222 N   0  0  0  0  0  0  0  0  0  0  0  0
   13.8931   -2.2308   23.1070 C   0  0  0  0  0  0  0  0  0  0  0  0
   13.3098   -2.3686   21.9185 N   0  0  0  0  0  0  0  0  0  0  0  0
   12.1805   -1.6919   21.6986 C   0  0  0  0  0  0  0  0  0  0  0  0
   11.5578   -0.8855   22.6510 C   0  0  0  0  0  0  0  0  0  0  0  0
   10.3510   -0.1715   22.4054 N   0  0  0  0  0  0  0  0  0  0  0  0
    9.2329   -0.5620   21.7078 C   0  0  0  0  0  0  0  0  0  0  0  0
    9.0632   -1.6411   21.1480 O   0  0  0  0  0  0  0  0  0  0  0  0
    8.2777    0.3934   21.6908 N   0  0  0  0  0  0  0  0  0  0  0  0
    7.0269    0.2508   20.9455 C   0  0  0  0  0  0  0  0  0  0  0  0
    6.0136    1.3437   21.3430 C   0  0  0  0  0  0  0  0  0  0  0  0
    4.7231    1.2659   20.5295 C   0  0  0  0  0  0  0  0  0  0  0  0
    5.0082    1.2920   19.0334 C   0  0  0  0  0  0  0  0  0  0  0  0
    5.9838    0.1918   18.6411 C   0  0  0  0  0  0  0  0  0  0  0  0
    7.2847    0.3007   19.4299 C   0  0  0  0  0  0  0  0  0  0  0  0
  1  2  1  0
  2  3  2  0
  3  4  1  0
  3  5  1  0
  5  6  2  0
  6  7  1  0
  7  8  2  0
  8  9  1  0
  9 10  1  0
 10 11  2  0
 10 12  1  0
 12 13  1  0
 13 14  1  0
 14 15  1  0
 15 16  1  0
 16 17  1  0
 17 18  1  0
  8  2  1  0
 18 13  1  0
M  END
