CVD-0000060|dock_bobby27042020.99|mol2|45|dock2
     RDKit          3D

 19 20  0  0  0  0  0  0  0  0999 V2000
   14.4630   -1.4327   20.3012 Cl  0  0  0  0  0  0  0  0  0  0  0  0
   13.2384   -1.1728   21.5116 C   0  0  0  0  0  0  0  0  0  0  0  0
   13.4691   -0.2635   22.5202 C   0  0  0  0  0  0  0  0  0  0  0  0
   12.4876   -0.0663   23.4769 C   0  0  0  0  0  0  0  0  0  0  0  0
   11.2988   -0.7740   23.4133 C   0  0  0  0  0  0  0  0  0  0  0  0
   11.0713   -1.6868   22.3953 C   0  0  0  0  0  0  0  0  0  0  0  0
    9.7752   -2.4624   22.3271 C   0  0  0  0  0  0  0  0  0  0  0  0
    8.6079   -1.5984   21.8931 C   0  0  0  0  0  0  0  0  0  0  0  0
    7.6999   -1.3374   22.6749 O   0  0  0  0  0  0  0  0  0  0  0  0
    8.7045   -1.1745   20.6083 N   0  0  0  0  0  0  0  0  0  0  0  0
    7.8355   -0.3536   19.8356 C   0  0  0  0  0  0  0  0  0  0  0  0
    7.0624    0.6681   20.3906 C   0  0  0  0  0  0  0  0  0  0  0  0
    6.2428    1.4212   19.5685 C   0  0  0  0  0  0  0  0  0  0  0  0
    6.2111    1.1421   18.2239 C   0  0  0  0  0  0  0  0  0  0  0  0
    6.9336    0.1738   17.6511 N   0  0  0  0  0  0  0  0  0  0  0  0
    7.7356   -0.5658   18.4412 C   0  0  0  0  0  0  0  0  0  0  0  0
    8.4858   -1.5933   17.7500 C   0  0  0  0  0  0  0  0  0  0  0  0
    9.0513   -2.4337   17.2219 N   0  0  0  0  0  0  0  0  0  0  0  0
   12.0581   -1.8836   21.4379 C   0  0  0  0  0  0  0  0  0  0  0  0
  1  2  1  0
  2  3  2  0
  3  4  1  0
  4  5  2  0
  5  6  1  0
  6  7  1  0
  7  8  1  0
  8  9  2  0
  8 10  1  0
 10 11  1  0
 11 12  2  0
 12 13  1  0
 13 14  2  0
 14 15  1  0
 15 16  2  0
 16 17  1  0
 17 18  3  0
  6 19  2  0
 19  2  1  0
 16 11  1  0
M  END
