CVD-0003395|dock_bobby27042020.60|mol2|2|dock3
     RDKit          3D

 20 22  0  0  0  0  0  0  0  0999 V2000
    8.8849   -0.5641   23.0178 O   0  0  0  0  0  0  0  0  0  0  0  0
    9.2004   -0.9879   21.9113 C   0  0  0  0  0  0  0  0  0  0  0  0
   10.4009   -1.6050   21.6378 N   0  0  0  0  0  0  0  0  0  0  0  0
   11.5074   -1.8981   22.4755 C   0  0  0  0  0  0  0  0  0  0  0  0
   12.7597   -1.9842   21.8776 C   0  0  0  0  0  0  0  0  0  0  0  0
   13.8850   -2.2669   22.6332 C   0  0  0  0  0  0  0  0  0  0  0  0
   13.7766   -2.4669   23.9912 C   0  0  0  0  0  0  0  0  0  0  0  0
   12.5419   -2.3846   24.5962 C   0  0  0  0  0  0  0  0  0  0  0  0
   11.4089   -2.1023   23.8507 C   0  0  0  0  0  0  0  0  0  0  0  0
    8.4100   -0.9121   20.7849 N   0  0  0  0  0  0  0  0  0  0  0  0
    7.1142   -0.3657   20.6076 C   0  0  0  0  0  0  0  0  0  0  0  0
    6.1048   -0.4293   21.5655 C   0  0  0  0  0  0  0  0  0  0  0  0
    4.8816    0.0857   21.4000 N   0  0  0  0  0  0  0  0  0  0  0  0
    4.5902    0.6964   20.2681 C   0  0  0  0  0  0  0  0  0  0  0  0
    5.5081    0.8383   19.2091 C   0  0  0  0  0  0  0  0  0  0  0  0
    5.1282    1.4866   18.0643 N   0  0  0  0  0  0  0  0  0  0  0  0
    6.0518    1.5698   17.1322 C   0  0  0  0  0  0  0  0  0  0  0  0
    7.2994    1.1087   17.1570 N   0  0  0  0  0  0  0  0  0  0  0  0
    7.6658    0.4838   18.2603 C   0  0  0  0  0  0  0  0  0  0  0  0
    6.8068    0.2969   19.3723 C   0  0  0  0  0  0  0  0  0  0  0  0
  1  2  2  0
  2  3  1  0
  3  4  1  0
  4  5  2  0
  5  6  1  0
  6  7  2  0
  7  8  1  0
  8  9  2  0
  2 10  1  0
 10 11  1  0
 11 12  2  0
 12 13  1  0
 13 14  2  0
 14 15  1  0
 15 16  2  0
 16 17  1  0
 17 18  2  0
 18 19  1  0
 19 20  2  0
  9  4  1  0
 20 11  1  0
 20 15  1  0
M  END
