CVD-0000035|dock_bobby27042020.43|mol2|8|dock1
     RDKit          3D

 25 27  0  0  0  0  0  0  0  0999 V2000
    6.5655   -4.6551   21.8641 C   0  0  0  0  0  0  0  0  0  0  0  0
    6.8696   -3.2626   21.8174 O   0  0  0  0  0  0  0  0  0  0  0  0
    8.1531   -2.8436   22.0468 C   0  0  0  0  0  0  0  0  0  0  0  0
    9.0472   -3.5205   22.8709 C   0  0  0  0  0  0  0  0  0  0  0  0
   10.3366   -3.0536   23.0381 C   0  0  0  0  0  0  0  0  0  0  0  0
   10.7290   -1.9029   22.3792 C   0  0  0  0  0  0  0  0  0  0  0  0
    9.8527   -1.2076   21.5611 C   0  0  0  0  0  0  0  0  0  0  0  0
    8.5436   -1.6655   21.3893 C   0  0  0  0  0  0  0  0  0  0  0  0
    7.6848   -0.8333   20.5036 C   0  0  0  0  0  0  0  0  0  0  0  0
    8.2211   -0.3135   19.3908 N   0  0  0  0  0  0  0  0  0  0  0  0
    7.4064    0.4240   18.6260 C   0  0  0  0  0  0  0  0  0  0  0  0
    6.0866    0.6545   18.9354 C   0  0  0  0  0  0  0  0  0  0  0  0
    5.6369    0.0741   20.0979 C   0  0  0  0  0  0  0  0  0  0  0  0
    6.4137   -0.6709   20.8943 N   0  0  0  0  0  0  0  0  0  0  0  0
   12.3758   -1.3019   22.5667 S   0  0  0  0  0  0  0  0  0  0  0  0
   13.1037   -1.6183   21.3683 O   0  0  0  0  0  0  0  0  0  0  0  0
   12.8807   -1.7744   23.8268 O   0  0  0  0  0  0  0  0  0  0  0  0
   12.1950    0.4334   22.6605 C   0  0  0  0  0  0  0  0  0  0  0  0
   13.2257    1.2503   22.5293 C   0  0  0  0  0  0  0  0  0  0  0  0
   13.1898    2.7158   22.5957 C   0  0  0  0  0  0  0  0  0  0  0  0
   12.0424    3.4137   22.9556 C   0  0  0  0  0  0  0  0  0  0  0  0
   12.0645    4.7967   23.0020 C   0  0  0  0  0  0  0  0  0  0  0  0
   13.2371    5.4452   22.6860 C   0  0  0  0  0  0  0  0  0  0  0  0
   14.3557    4.8073   22.3368 N   0  0  0  0  0  0  0  0  0  0  0  0
   14.3153    3.4720   22.2976 C   0  0  0  0  0  0  0  0  0  0  0  0
  1  2  1  0
  2  3  1  0
  3  4  2  0
  4  5  1  0
  5  6  2  0
  6  7  1  0
  7  8  2  0
  8  9  1  0
  9 10  2  0
 10 11  1  0
 11 12  2  0
 12 13  1  0
 13 14  2  0
  6 15  1  0
 15 16  2  0
 15 17  2  0
 15 18  1  0
 18 19  2  0
 19 20  1  0
 20 21  2  0
 21 22  1  0
 22 23  2  0
 23 24  1  0
 24 25  2  0
  8  3  1  0
 14  9  1  0
 25 20  1  0
M  END
