CVD-0003275|dock_bobby27042020.88|mol2|28|dock2
     RDKit          3D

 24 27  0  0  0  0  0  0  0  0999 V2000
   11.9570    3.0762   22.7561 O   0  0  0  0  0  0  0  0  0  0  0  0
   13.0802    2.8085   23.1748 C   0  0  0  0  0  0  0  0  0  0  0  0
   14.0342    3.8279   23.2801 N   0  0  0  0  0  0  0  0  0  0  0  0
   14.0168    5.1982   22.9994 C   0  0  0  0  0  0  0  0  0  0  0  0
   14.4228    5.9573   21.9425 C   0  0  0  0  0  0  0  0  0  0  0  0
   14.1251    7.2416   22.2898 N   0  0  0  0  0  0  0  0  0  0  0  0
   13.5678    7.2179   23.5037 C   0  0  0  0  0  0  0  0  0  0  0  0
   13.4776    5.9892   23.9850 N   0  0  0  0  0  0  0  0  0  0  0  0
   13.3801    1.4949   23.5360 N   0  0  0  0  0  0  0  0  0  0  0  0
   12.4588    0.4482   23.4468 C   0  0  0  0  0  0  0  0  0  0  0  0
   12.1583   -0.1648   22.2524 C   0  0  0  0  0  0  0  0  0  0  0  0
   11.1946   -1.1879   22.4678 C   0  0  0  0  0  0  0  0  0  0  0  0
   10.4865   -2.1385   21.7664 N   0  0  0  0  0  0  0  0  0  0  0  0
    9.6769   -2.8445   22.6017 C   0  0  0  0  0  0  0  0  0  0  0  0
    9.8370   -2.3724   23.8862 C   0  0  0  0  0  0  0  0  0  0  0  0
    9.1503   -2.8335   25.1443 C   0  0  0  0  0  0  0  0  0  0  0  0
    9.4237   -4.2912   25.4676 C   0  0  0  0  0  0  0  0  0  0  0  0
    8.8441   -5.2179   24.4549 C   0  0  0  0  0  0  0  0  0  0  0  0
    7.6660   -5.0729   23.8653 N   0  0  0  0  0  0  0  0  0  0  0  0
    7.5428   -6.1509   23.0221 C   0  0  0  0  0  0  0  0  0  0  0  0
    8.6402   -6.9345   23.1116 C   0  0  0  0  0  0  0  0  0  0  0  0
    9.4590   -6.3333   24.0253 N   0  0  0  0  0  0  0  0  0  0  0  0
   10.8048   -1.3162   23.7847 C   0  0  0  0  0  0  0  0  0  0  0  0
   11.5978   -0.1883   24.8303 S   0  0  0  0  0  0  0  0  0  0  0  0
  1  2  2  0
  2  3  1  0
  3  4  1  0
  4  5  2  0
  5  6  1  0
  6  7  1  0
  7  8  2  0
  2  9  1  0
  9 10  1  0
 10 11  2  0
 11 12  1  0
 12 13  1  0
 13 14  1  0
 14 15  2  0
 15 16  1  0
 16 17  1  0
 17 18  1  0
 18 19  2  0
 19 20  1  0
 20 21  2  0
 21 22  1  0
 15 23  1  0
 23 24  1  0
  8  4  1  0
 24 10  1  0
 23 12  2  0
 22 18  1  0
M  END
