CVD-0003720|dock_bobby27042020.1|mol2|12|dock1
     RDKit          3D

 25 26  0  0  0  0  0  0  0  0999 V2000
    5.4653    0.3646   18.1672 C   0  0  0  0  0  0  0  0  0  0  0  0
    6.1847   -1.1038   18.7945 S   0  0  0  0  0  0  0  0  0  0  0  0
    7.4294   -1.3111   18.1209 O   0  0  0  0  0  0  0  0  0  0  0  0
    5.1987   -2.1387   18.7415 O   0  0  0  0  0  0  0  0  0  0  0  0
    6.5234   -0.8565   20.3419 N   0  0  0  0  0  0  0  0  0  0  0  0
    7.6366    0.0275   20.7086 C   0  0  0  0  0  0  0  0  0  0  0  0
    8.7208   -0.7424   21.4364 C   0  0  0  0  0  0  0  0  0  0  0  0
    9.6041    0.1486   22.3014 C   0  0  0  0  0  0  0  0  0  0  0  0
   10.8799   -0.4964   22.8076 C   0  0  0  0  0  0  0  0  0  0  0  0
   10.9420   -1.8889   22.8390 C   0  0  0  0  0  0  0  0  0  0  0  0
   12.0464   -2.5580   23.3273 C   0  0  0  0  0  0  0  0  0  0  0  0
   13.1158   -1.8230   23.7793 C   0  0  0  0  0  0  0  0  0  0  0  0
   14.5115   -2.6502   24.4120 Cl  0  0  0  0  0  0  0  0  0  0  0  0
   13.1119   -0.4445   23.7417 C   0  0  0  0  0  0  0  0  0  0  0  0
   11.9958    0.2387   23.2533 C   0  0  0  0  0  0  0  0  0  0  0  0
   11.9400    1.6595   23.1804 N   0  0  0  0  0  0  0  0  0  0  0  0
   12.9238    2.5563   22.8254 C   0  0  0  0  0  0  0  0  0  0  0  0
   14.0657    2.2493   22.4987 O   0  0  0  0  0  0  0  0  0  0  0  0
   12.4647    3.8525   22.8888 N   0  0  0  0  0  0  0  0  0  0  0  0
   13.1243    5.0783   22.6190 C   0  0  0  0  0  0  0  0  0  0  0  0
   12.9360    6.2514   23.3440 C   0  0  0  0  0  0  0  0  0  0  0  0
   13.6382    7.3894   22.9857 C   0  0  0  0  0  0  0  0  0  0  0  0
   14.5051    7.3274   21.9193 C   0  0  0  0  0  0  0  0  0  0  0  0
   14.7066    6.2196   21.2064 N   0  0  0  0  0  0  0  0  0  0  0  0
   14.0242    5.1268   21.5602 C   0  0  0  0  0  0  0  0  0  0  0  0
  1  2  1  0
  2  3  2  0
  2  4  2  0
  2  5  1  0
  5  6  1  0
  6  7  1  0
  7  8  1  0
  8  9  1  0
  9 10  2  0
 10 11  1  0
 11 12  2  0
 12 13  1  0
 12 14  1  0
 14 15  2  0
 15 16  1  0
 16 17  1  0
 17 18  2  0
 17 19  1  0
 19 20  1  0
 20 21  2  0
 21 22  1  0
 22 23  2  0
 23 24  1  0
 24 25  2  0
 15  9  1  0
 25 20  1  0
M  END
