CVD-0002388|dock_bobby27042020.49|mol2|6|dock2
     RDKit          3D

 26 29  0  0  0  0  0  0  0  0999 V2000
   13.1549   -3.1235   23.7951 F   0  0  0  0  0  0  0  0  0  0  0  0
   12.4640   -2.0272   23.4068 C   0  0  0  0  0  0  0  0  0  0  0  0
   11.4031   -2.1723   22.5533 C   0  0  0  0  0  0  0  0  0  0  0  0
   10.6904   -1.0465   22.1419 C   0  0  0  0  0  0  0  0  0  0  0  0
   11.0759    0.2252   22.5903 C   0  0  0  0  0  0  0  0  0  0  0  0
   12.1433    0.3430   23.4798 C   0  0  0  0  0  0  0  0  0  0  0  0
   12.8370   -0.7845   23.8763 C   0  0  0  0  0  0  0  0  0  0  0  0
   14.1749   -0.6215   24.9662 Cl  0  0  0  0  0  0  0  0  0  0  0  0
   10.3429    1.3429   22.1194 N   0  0  0  0  0  0  0  0  0  0  0  0
   10.7237    2.6840   22.5016 C   0  0  0  0  0  0  0  0  0  0  0  0
    9.8156    3.5243   23.1356 C   0  0  0  0  0  0  0  0  0  0  0  0
   10.1879    4.8084   23.4966 C   0  0  0  0  0  0  0  0  0  0  0  0
   11.4605    5.2650   23.2305 C   0  0  0  0  0  0  0  0  0  0  0  0
   12.3666    4.4389   22.6016 C   0  0  0  0  0  0  0  0  0  0  0  0
   12.0048    3.1531   22.2363 C   0  0  0  0  0  0  0  0  0  0  0  0
    9.2351    1.2230   21.2747 C   0  0  0  0  0  0  0  0  0  0  0  0
    8.6226    2.2164   20.9135 O   0  0  0  0  0  0  0  0  0  0  0  0
    8.8640   -0.0675   20.8644 N   0  0  0  0  0  0  0  0  0  0  0  0
    7.7183   -0.2160   19.9845 C   0  0  0  0  0  0  0  0  0  0  0  0
    6.7446   -1.1815   20.2167 C   0  0  0  0  0  0  0  0  0  0  0  0
    5.6933   -1.2455   19.3205 C   0  0  0  0  0  0  0  0  0  0  0  0
    5.6895   -0.3544   18.2746 C   0  0  0  0  0  0  0  0  0  0  0  0
    6.6360    0.5473   18.0949 N   0  0  0  0  0  0  0  0  0  0  0  0
    7.6626    0.6176   18.9607 N   0  0  0  0  0  0  0  0  0  0  0  0
    9.5462   -1.2413   21.2445 C   0  0  0  0  0  0  0  0  0  0  0  0
    9.2287   -2.3522   20.8547 O   0  0  0  0  0  0  0  0  0  0  0  0
  1  2  1  0
  2  3  2  0
  3  4  1  0
  4  5  2  0
  5  6  1  0
  6  7  2  0
  7  8  1  0
  5  9  1  0
  9 10  1  0
 10 11  2  0
 11 12  1  0
 12 13  2  0
 13 14  1  0
 14 15  2  0
  9 16  1  0
 16 17  2  0
 16 18  1  0
 18 19  1  0
 19 20  2  0
 20 21  1  0
 21 22  2  0
 22 23  1  0
 23 24  2  0
 18 25  1  0
 25 26  2  0
  7  2  1  0
 15 10  1  0
 24 19  1  0
 25  4  1  0
M  END
