CVD-0000232|dock_bobby27042020.28|mol2|6|dock3
     RDKit          3D

 27 30  0  0  0  0  0  0  0  0999 V2000
    5.1352    1.1732   17.1262 Cl  0  0  0  0  0  0  0  0  0  0  0  0
    5.1395    0.7018   18.7941 C   0  0  0  0  0  0  0  0  0  0  0  0
    4.7723    1.6367   19.7452 C   0  0  0  0  0  0  0  0  0  0  0  0
    4.7597    1.2732   21.0800 C   0  0  0  0  0  0  0  0  0  0  0  0
    5.1514    0.0014   21.4632 C   0  0  0  0  0  0  0  0  0  0  0  0
    5.5696   -0.9343   20.5155 C   0  0  0  0  0  0  0  0  0  0  0  0
    6.0533   -2.2400   21.0086 C   0  0  0  0  0  0  0  0  0  0  0  0
    5.5023   -3.3683   20.5941 N   0  0  0  0  0  0  0  0  0  0  0  0
    6.1938   -4.3762   21.2559 C   0  0  0  0  0  0  0  0  0  0  0  0
    6.0430   -5.7608   21.1965 C   0  0  0  0  0  0  0  0  0  0  0  0
    6.8759   -6.5549   21.9698 C   0  0  0  0  0  0  0  0  0  0  0  0
    7.8392   -5.9954   22.7863 C   0  0  0  0  0  0  0  0  0  0  0  0
    8.0032   -4.6209   22.8586 C   0  0  0  0  0  0  0  0  0  0  0  0
    7.1679   -3.8247   22.0838 C   0  0  0  0  0  0  0  0  0  0  0  0
    7.0686   -2.4435   21.9263 N   0  0  0  0  0  0  0  0  0  0  0  0
    7.8716   -1.4751   22.6653 C   0  0  0  0  0  0  0  0  0  0  0  0
    9.3516   -1.5861   22.3410 C   0  0  0  0  0  0  0  0  0  0  0  0
    9.7823   -2.5482   21.7141 O   0  0  0  0  0  0  0  0  0  0  0  0
   10.0867   -0.5509   22.8141 N   0  0  0  0  0  0  0  0  0  0  0  0
   11.4755   -0.2814   22.7361 C   0  0  0  0  0  0  0  0  0  0  0  0
   11.9777    0.8745   23.3178 C   0  0  0  0  0  0  0  0  0  0  0  0
   13.3333    1.1103   23.2260 C   0  0  0  0  0  0  0  0  0  0  0  0
   14.1671    0.2913   22.6142 N   0  0  0  0  0  0  0  0  0  0  0  0
   13.6887   -0.8305   22.0480 N   0  0  0  0  0  0  0  0  0  0  0  0
   12.3951   -1.1133   22.1021 C   0  0  0  0  0  0  0  0  0  0  0  0
    5.4992   -0.5901   19.1625 C   0  0  0  0  0  0  0  0  0  0  0  0
    5.8236   -1.7376   17.9164 Cl  0  0  0  0  0  0  0  0  0  0  0  0
  1  2  1  0
  2  3  2  0
  3  4  1  0
  4  5  2  0
  5  6  1  0
  6  7  1  0
  7  8  2  0
  8  9  1  0
  9 10  2  0
 10 11  1  0
 11 12  2  0
 12 13  1  0
 13 14  2  0
 14 15  1  0
 15 16  1  0
 16 17  1  0
 17 18  2  0
 17 19  1  0
 19 20  1  0
 20 21  2  0
 21 22  1  0
 22 23  2  0
 23 24  1  0
 24 25  2  0
  6 26  2  0
 26 27  1  0
 26  2  1  0
 15  7  1  0
 25 20  1  0
 14  9  1  0
M  END
