CVD-0001413|dock_bobby27042020.9|mol2|43|dock2
     RDKit          3D

 40 44  0  0  0  0  0  0  0  0999 V2000
   13.4062    4.7705   22.1181 C   0  0  0  0  0  0  0  0  0  0  0  0
   12.7382    3.7058   22.9572 C   0  0  0  0  0  0  0  0  0  0  0  0
   12.0865    2.6297   22.1090 C   0  0  0  0  0  0  0  0  0  0  0  0
   11.3894    1.5546   22.9031 C   0  0  0  0  0  0  0  0  0  0  0  0
   10.4483    1.8571   23.6222 O   0  0  0  0  0  0  0  0  0  0  0  0
   11.8405    0.1420   22.7788 C   0  0  0  0  0  0  0  0  0  0  0  0
   13.2396   -0.1516   22.7673 C   0  0  0  0  0  0  0  0  0  0  0  0
   13.4935   -1.4756   22.6087 C   0  0  0  0  0  0  0  0  0  0  0  0
   12.0659   -2.3981   22.4696 S   0  0  0  0  0  0  0  0  0  0  0  0
   11.0606   -0.9995   22.6581 C   0  0  0  0  0  0  0  0  0  0  0  0
    9.5948   -1.2561   22.6605 C   0  0  0  0  0  0  0  0  0  0  0  0
    9.0527   -2.4466   23.1416 C   0  0  0  0  0  0  0  0  0  0  0  0
    7.6757   -2.6611   23.1057 C   0  0  0  0  0  0  0  0  0  0  0  0
    6.8422   -1.6760   22.5898 C   0  0  0  0  0  0  0  0  0  0  0  0
    7.3585   -0.4765   22.1072 C   0  0  0  0  0  0  0  0  0  0  0  0
    8.7384   -0.2851   22.1487 C   0  0  0  0  0  0  0  0  0  0  0  0
    6.4412    0.5624   21.5505 C   0  0  0  0  0  0  0  0  0  0  0  0
    5.9294    1.4683   22.4839 C   0  0  0  0  0  0  0  0  0  0  0  0
    4.9888    2.4156   22.1217 C   0  0  0  0  0  0  0  0  0  0  0  0
    4.5529    2.4586   20.8078 C   0  0  0  0  0  0  0  0  0  0  0  0
    3.6187    3.3205   20.2976 O   0  0  0  0  0  0  0  0  0  0  0  0
    3.2673    2.8362   18.9734 C   0  0  0  0  0  0  0  0  0  0  0  0
    4.3884    1.9052   18.5447 C   0  0  0  0  0  0  0  0  0  0  0  0
    5.0406    1.5746   19.8577 C   0  0  0  0  0  0  0  0  0  0  0  0
    5.9927    0.6117   20.2123 C   0  0  0  0  0  0  0  0  0  0  0  0
    6.6113   -0.2879   19.1384 C   0  0  0  0  0  0  0  0  0  0  0  0
    7.5133    0.4763   18.1679 C   0  0  0  0  0  0  0  0  0  0  0  0
    5.5416   -1.0389   18.3463 C   0  0  0  0  0  0  0  0  0  0  0  0
    7.0781   -3.8817   23.5707 N   0  0  0  0  0  0  0  0  0  0  0  0
    6.9497   -4.0457   25.0410 C   0  0  0  0  0  0  0  0  0  0  0  0
    7.7893   -5.1648   25.6720 C   0  0  0  0  0  0  0  0  0  0  0  0
    7.7114   -4.9826   27.1800 C   0  0  0  0  0  0  0  0  0  0  0  0
    7.6655   -3.2102   27.4601 S   0  0  0  0  0  0  0  0  0  0  0  0
    8.9805   -2.7205   27.7739 O   0  0  0  0  0  0  0  0  0  0  0  0
    6.5965   -2.8946   28.3687 O   0  0  0  0  0  0  0  0  0  0  0  0
    7.2339   -2.7538   25.7769 C   0  0  0  0  0  0  0  0  0  0  0  0
    6.6504   -4.9040   22.7539 C   0  0  0  0  0  0  0  0  0  0  0  0
    6.2192   -5.9595   23.1992 O   0  0  0  0  0  0  0  0  0  0  0  0
    6.7249   -4.7264   21.2499 C   0  0  0  0  0  0  0  0  0  0  0  0
    5.8957   -6.0469   20.4155 Cl  0  0  0  0  0  0  0  0  0  0  0  0
  1  2  1  0
  2  3  1  0
  3  4  1  0
  4  5  2  0
  4  6  1  0
  6  7  1  0
  7  8  2  0
  8  9  1  0
  9 10  1  0
 10 11  1  0
 11 12  2  0
 12 13  1  0
 13 14  2  0
 14 15  1  0
 15 16  2  0
 15 17  1  0
 17 18  2  0
 18 19  1  0
 19 20  2  0
 20 21  1  0
 21 22  1  0
 22 23  1  0
 23 24  1  0
 24 25  2  0
 25 26  1  0
 26 27  1  0
 26 28  1  0
 13 29  1  0
 30 29  1  0
 30 31  1  0
 31 32  1  0
 32 33  1  0
 33 34  2  0
 33 35  2  0
 33 36  1  0
 29 37  1  0
 37 38  2  0
 37 39  1  0
 39 40  1  0
 10  6  2  0
 16 11  1  0
 25 17  1  0
 36 30  1  0
 24 20  1  0
M  END
