CVD-0003406|dock_bobby27042020.2|mol2|13|dock1
     RDKit          3D

 19 20  0  0  0  0  0  0  0  0999 V2000
   12.7489   -0.3210   25.6257 C   0  0  0  0  0  0  0  0  0  0  0  0
   13.1823   -1.5204   24.9284 N   0  0  0  0  0  0  0  0  0  0  0  0
   13.9394   -2.4661   25.7314 C   0  0  0  0  0  0  0  0  0  0  0  0
   13.0228   -1.6759   23.5713 C   0  0  0  0  0  0  0  0  0  0  0  0
   14.0553   -2.1511   22.7749 C   0  0  0  0  0  0  0  0  0  0  0  0
   13.9494   -2.3102   21.4542 N   0  0  0  0  0  0  0  0  0  0  0  0
   12.7873   -1.9999   20.8794 C   0  0  0  0  0  0  0  0  0  0  0  0
   11.6853   -1.5231   21.5764 C   0  0  0  0  0  0  0  0  0  0  0  0
   10.5072   -1.2334   20.8421 N   0  0  0  0  0  0  0  0  0  0  0  0
    9.3475   -0.5960   21.2201 C   0  0  0  0  0  0  0  0  0  0  0  0
    9.1408   -0.1448   22.3418 O   0  0  0  0  0  0  0  0  0  0  0  0
    8.4512   -0.5305   20.1775 N   0  0  0  0  0  0  0  0  0  0  0  0
    7.1490    0.0267   20.1067 C   0  0  0  0  0  0  0  0  0  0  0  0
    6.7099    0.4809   18.8681 C   0  0  0  0  0  0  0  0  0  0  0  0
    5.4495    1.0363   18.7265 C   0  0  0  0  0  0  0  0  0  0  0  0
    4.6131    1.1458   19.8149 C   0  0  0  0  0  0  0  0  0  0  0  0
    5.0360    0.6996   21.0476 C   0  0  0  0  0  0  0  0  0  0  0  0
    6.2948    0.1421   21.2018 C   0  0  0  0  0  0  0  0  0  0  0  0
   11.8122   -1.3610   22.9550 C   0  0  0  0  0  0  0  0  0  0  0  0
  1  2  1  0
  2  3  1  0
  2  4  1  0
  4  5  2  0
  5  6  1  0
  6  7  2  0
  7  8  1  0
  8  9  1  0
  9 10  1  0
 10 11  2  0
 10 12  1  0
 12 13  1  0
 13 14  2  0
 14 15  1  0
 15 16  2  0
 16 17  1  0
 17 18  2  0
  8 19  2  0
 19  4  1  0
 18 13  1  0
M  END
