CVD-0001155|dock_bobby27042020.39|mol2|11|dock3
     RDKit          3D

 30 31  0  0  0  0  0  0  0  0999 V2000
   10.0128   -5.5853   26.1432 C   0  0  0  0  0  0  0  0  0  0  0  0
    9.2898   -4.7484   24.7350 S   0  0  0  0  0  0  0  0  0  0  0  0
    9.1246   -3.0801   25.3994 C   0  0  0  0  0  0  0  0  0  0  0  0
    8.7330   -2.0955   24.3175 C   0  0  0  0  0  0  0  0  0  0  0  0
    7.5887   -1.6625   24.2577 O   0  0  0  0  0  0  0  0  0  0  0  0
    9.6991   -1.7209   23.4501 N   0  0  0  0  0  0  0  0  0  0  0  0
   11.1080   -2.1394   23.4776 C   0  0  0  0  0  0  0  0  0  0  0  0
   11.6837   -1.4799   22.2296 C   0  0  0  0  0  0  0  0  0  0  0  0
   10.8216   -0.2573   22.0178 C   0  0  0  0  0  0  0  0  0  0  0  0
   11.2224    0.7772   22.9649 N   0  0  0  0  0  0  0  0  0  0  0  0
   11.7078    1.9734   22.5662 C   0  0  0  0  0  0  0  0  0  0  0  0
   11.9029    2.2203   21.3798 O   0  0  0  0  0  0  0  0  0  0  0  0
   11.9385    2.8253   23.6193 N   0  0  0  0  0  0  0  0  0  0  0  0
   12.4408    4.1547   23.6082 C   0  0  0  0  0  0  0  0  0  0  0  0
   13.4074    4.6305   22.7192 C   0  0  0  0  0  0  0  0  0  0  0  0
   13.8352    5.9454   22.7858 C   0  0  0  0  0  0  0  0  0  0  0  0
   13.2986    6.7717   23.7335 C   0  0  0  0  0  0  0  0  0  0  0  0
   13.7259    8.0619   23.7905 F   0  0  0  0  0  0  0  0  0  0  0  0
   12.3478    6.3622   24.6323 C   0  0  0  0  0  0  0  0  0  0  0  0
   11.9438    5.0557   24.5423 C   0  0  0  0  0  0  0  0  0  0  0  0
   11.0060    4.6292   25.4194 F   0  0  0  0  0  0  0  0  0  0  0  0
    9.4216   -0.7695   22.3863 C   0  0  0  0  0  0  0  0  0  0  0  0
    8.7098   -1.4462   21.2039 C   0  0  0  0  0  0  0  0  0  0  0  0
    8.9395   -2.6163   20.9646 O   0  0  0  0  0  0  0  0  0  0  0  0
    7.8380   -0.7603   20.4409 N   0  0  0  0  0  0  0  0  0  0  0  0
    7.5908    0.6583   20.6396 C   0  0  0  0  0  0  0  0  0  0  0  0
    7.1514   -1.3878   19.3207 C   0  0  0  0  0  0  0  0  0  0  0  0
    7.4357   -0.6916   18.0007 C   0  0  0  0  0  0  0  0  0  0  0  0
    8.7103   -0.5963   17.6567 N   0  0  0  0  0  0  0  0  0  0  0  0
    6.5173   -0.2462   17.3065 O   0  0  0  0  0  0  0  0  0  0  0  0
  1  2  1  0
  2  3  1  0
  3  4  1  0
  4  5  2  0
  4  6  1  0
  6  7  1  0
  7  8  1  0
  8  9  1  0
  9 10  1  0
 10 11  1  0
 11 12  2  0
 11 13  1  0
 13 14  1  0
 14 15  2  0
 15 16  1  0
 16 17  2  0
 17 18  1  0
 17 19  1  0
 19 20  2  0
 20 21  1  0
  9 22  1  0
 22 23  1  0
 23 24  2  0
 23 25  1  0
 25 26  1  0
 25 27  1  0
 27 28  1  0
 28 29  1  0
 28 30  2  0
 22  6  1  0
 20 14  1  0
M  END
