CVD-0002194|dock_bobby27042020.92|mol2|23|dock2
     RDKit          3D

 22 24  0  0  0  0  0  0  0  0999 V2000
   12.9948   -1.7705   24.9321 C   0  0  0  0  0  0  0  0  0  0  0  0
   12.1504   -2.3585   23.8253 C   0  0  0  0  0  0  0  0  0  0  0  0
   12.3339   -1.6298   22.5082 C   0  0  0  0  0  0  0  0  0  0  0  0
   11.8897   -0.1842   22.5444 C   0  0  0  0  0  0  0  0  0  0  0  0
   12.7929    0.7747   22.9954 C   0  0  0  0  0  0  0  0  0  0  0  0
   12.4533    2.1130   23.0541 C   0  0  0  0  0  0  0  0  0  0  0  0
   11.1847    2.5160   22.6559 C   0  0  0  0  0  0  0  0  0  0  0  0
   10.2730    1.5662   22.2017 C   0  0  0  0  0  0  0  0  0  0  0  0
   10.6097    0.2167   22.1381 C   0  0  0  0  0  0  0  0  0  0  0  0
    9.5870   -0.7831   21.6272 C   0  0  0  0  0  0  0  0  0  0  0  0
    8.2268   -0.1885   21.3224 C   0  0  0  0  0  0  0  0  0  0  0  0
    7.3606    0.1698   22.3471 C   0  0  0  0  0  0  0  0  0  0  0  0
    6.1158    0.7150   22.0750 C   0  0  0  0  0  0  0  0  0  0  0  0
    5.7198    0.9099   20.7562 C   0  0  0  0  0  0  0  0  0  0  0  0
    4.4469    1.4715   20.1932 C   0  0  0  0  0  0  0  0  0  0  0  0
    4.7046    1.3974   18.7715 N   0  0  0  0  0  0  0  0  0  0  0  0
    5.9016    0.8751   18.4473 C   0  0  0  0  0  0  0  0  0  0  0  0
    6.3217    0.7275   17.3042 O   0  0  0  0  0  0  0  0  0  0  0  0
    6.5733    0.5571   19.7263 C   0  0  0  0  0  0  0  0  0  0  0  0
    7.8241    0.0093   20.0055 C   0  0  0  0  0  0  0  0  0  0  0  0
   10.8091    3.9073   22.7103 C   0  0  0  0  0  0  0  0  0  0  0  0
   10.5355    5.0161   22.7312 N   0  0  0  0  0  0  0  0  0  0  0  0
  1  2  1  0
  2  3  1  0
  3  4  1  0
  4  5  2  0
  5  6  1  0
  6  7  2  0
  7  8  1  0
  8  9  2  0
  9 10  1  0
 10 11  1  0
 11 12  2  0
 12 13  1  0
 13 14  2  0
 14 15  1  0
 15 16  1  0
 16 17  1  0
 17 18  2  0
 17 19  1  0
 19 20  2  0
  7 21  1  0
 21 22  3  0
  9  4  1  0
 20 11  1  0
 19 14  1  0
M  END
