CVD-0001898|dock_bobby27042020.51|mol2|6|dock2
     RDKit          3D

 33 35  0  0  0  0  0  0  0  0999 V2000
    7.7276   -3.7264   27.6779 C   0  0  0  0  0  0  0  0  0  0  0  0
    6.5572   -4.3954   26.9723 C   0  0  0  0  0  0  0  0  0  0  0  0
    6.8314   -4.8125   25.5239 C   0  0  0  0  0  0  0  0  0  0  0  0
    7.8221   -5.9844   25.5230 C   0  0  0  0  0  0  0  0  0  0  0  0
    5.5280   -5.3289   24.9000 C   0  0  0  0  0  0  0  0  0  0  0  0
    7.3871   -3.6174   24.7351 C   0  0  0  0  0  0  0  0  0  0  0  0
    8.5229   -3.7398   23.9426 C   0  0  0  0  0  0  0  0  0  0  0  0
    9.0178   -2.6674   23.2219 C   0  0  0  0  0  0  0  0  0  0  0  0
    8.3985   -1.4255   23.2710 C   0  0  0  0  0  0  0  0  0  0  0  0
    7.2646   -1.2970   24.0631 C   0  0  0  0  0  0  0  0  0  0  0  0
    6.7722   -2.3714   24.7826 C   0  0  0  0  0  0  0  0  0  0  0  0
    8.9284   -0.3349   22.5026 N   0  0  0  0  0  0  0  0  0  0  0  0
   10.0170    0.4774   23.1087 C   0  0  0  0  0  0  0  0  0  0  0  0
    9.9978    1.9336   22.5969 C   0  0  0  0  0  0  0  0  0  0  0  0
   10.9999    2.4533   22.1144 O   0  0  0  0  0  0  0  0  0  0  0  0
    8.7858    2.5261   22.7383 N   0  0  0  0  0  0  0  0  0  0  0  0
    8.3360    3.8267   22.3994 C   0  0  0  0  0  0  0  0  0  0  0  0
    9.1697    4.9424   22.3708 C   0  0  0  0  0  0  0  0  0  0  0  0
    8.6687    6.1869   22.0311 C   0  0  0  0  0  0  0  0  0  0  0  0
    7.3331    6.3176   21.7198 C   0  0  0  0  0  0  0  0  0  0  0  0
    6.6465    8.0261   21.2536 Br  0  0  0  0  0  0  0  0  0  0  0  0
    6.4869    5.2311   21.7404 C   0  0  0  0  0  0  0  0  0  0  0  0
    6.9927    3.9894   22.0805 C   0  0  0  0  0  0  0  0  0  0  0  0
   11.3898   -0.1770   22.9921 C   0  0  0  0  0  0  0  0  0  0  0  0
   12.3622   -0.0753   23.9777 C   0  0  0  0  0  0  0  0  0  0  0  0
   13.5847   -0.7012   23.8071 C   0  0  0  0  0  0  0  0  0  0  0  0
   13.8029   -1.4135   22.6497 C   0  0  0  0  0  0  0  0  0  0  0  0
   12.8923   -1.5303   21.6825 N   0  0  0  0  0  0  0  0  0  0  0  0
   11.7188   -0.9189   21.8692 C   0  0  0  0  0  0  0  0  0  0  0  0
    8.5047    0.0265   21.2290 C   0  0  0  0  0  0  0  0  0  0  0  0
    9.0173    0.9777   20.6414 O   0  0  0  0  0  0  0  0  0  0  0  0
    7.4033   -0.6902   20.5209 C   0  0  0  0  0  0  0  0  0  0  0  0
    7.1148   -0.4083   19.2777 C   0  0  0  0  0  0  0  0  0  0  0  0
  1  2  1  0
  2  3  1  0
  3  4  1  0
  3  5  1  0
  3  6  1  0
  6  7  2  0
  7  8  1  0
  8  9  2  0
  9 10  1  0
 10 11  2  0
  9 12  1  0
 12 13  1  0
 13 14  1  0
 14 15  2  0
 14 16  1  0
 16 17  1  0
 17 18  2  0
 18 19  1  0
 19 20  2  0
 20 21  1  0
 20 22  1  0
 22 23  2  0
 13 24  1  0
 24 25  2  0
 25 26  1  0
 26 27  2  0
 27 28  1  0
 28 29  2  0
 12 30  1  0
 30 31  2  0
 30 32  1  0
 32 33  2  0
 11  6  1  0
 23 17  1  0
 29 24  1  0
M  END
