CVD-0002685|dock_bobby27042020.33|mol2|22|dock3
     RDKit          3D

 28 30  0  0  0  0  0  0  0  0999 V2000
   13.6090    1.7039   22.8320 C   0  0  0  0  0  0  0  0  0  0  0  0
   12.8453    0.5807   22.2914 N   0  0  0  0  0  0  0  0  0  0  0  0
   11.4273    0.7100   22.6397 C   0  0  0  0  0  0  0  0  0  0  0  0
   10.6329   -0.4362   22.0417 C   0  0  0  0  0  0  0  0  0  0  0  0
   11.1546   -1.7210   22.5129 N   0  0  0  0  0  0  0  0  0  0  0  0
   12.5873   -1.8562   22.2324 C   0  0  0  0  0  0  0  0  0  0  0  0
   13.3522   -0.6836   22.8188 C   0  0  0  0  0  0  0  0  0  0  0  0
   10.3786   -2.6536   23.1016 C   0  0  0  0  0  0  0  0  0  0  0  0
   10.8574   -3.6878   23.5527 O   0  0  0  0  0  0  0  0  0  0  0  0
    8.8537   -2.5120   23.2609 C   0  0  0  0  0  0  0  0  0  0  0  0
    8.3290   -1.8670   24.1521 O   0  0  0  0  0  0  0  0  0  0  0  0
    7.9811   -3.2199   22.2270 C   0  0  0  0  0  0  0  0  0  0  0  0
    6.9982   -4.1555   22.9481 C   0  0  0  0  0  0  0  0  0  0  0  0
    7.5607   -4.7674   24.2080 C   0  0  0  0  0  0  0  0  0  0  0  0
    8.4095   -5.8618   24.1465 C   0  0  0  0  0  0  0  0  0  0  0  0
    8.9283   -6.4215   25.3021 C   0  0  0  0  0  0  0  0  0  0  0  0
    8.6050   -5.8924   26.5331 C   0  0  0  0  0  0  0  0  0  0  0  0
    7.7633   -4.8036   26.6082 C   0  0  0  0  0  0  0  0  0  0  0  0
    7.2447   -4.2443   25.4523 C   0  0  0  0  0  0  0  0  0  0  0  0
    7.2655   -2.2231   21.4476 N   0  0  0  0  0  0  0  0  0  0  0  0
    6.3527   -2.5627   20.5301 C   0  0  0  0  0  0  0  0  0  0  0  0
    6.0522   -3.7286   20.2782 O   0  0  0  0  0  0  0  0  0  0  0  0
    5.7121   -1.4287   19.8209 C   0  0  0  0  0  0  0  0  0  0  0  0
    5.3703   -1.3329   18.4209 C   0  0  0  0  0  0  0  0  0  0  0  0
    4.8092   -0.0956   18.2975 C   0  0  0  0  0  0  0  0  0  0  0  0
    4.8268    0.4879   19.5053 N   0  0  0  0  0  0  0  0  0  0  0  0
    4.3109    1.8021   19.8686 C   0  0  0  0  0  0  0  0  0  0  0  0
    5.3649   -0.3021   20.4751 N   0  0  0  0  0  0  0  0  0  0  0  0
  1  2  1  0
  2  3  1  0
  3  4  1  0
  4  5  1  0
  5  6  1  0
  6  7  1  0
  5  8  1  0
  8  9  2  0
  8 10  1  0
 10 11  2  0
 10 12  1  0
 12 13  1  0
 13 14  1  0
 14 15  2  0
 15 16  1  0
 16 17  2  0
 17 18  1  0
 18 19  2  0
 12 20  1  0
 20 21  1  0
 21 22  2  0
 21 23  1  0
 23 24  1  0
 24 25  2  0
 25 26  1  0
 26 27  1  0
 26 28  1  0
  7  2  1  0
 19 14  1  0
 28 23  2  0
M  END
