CVD-0001322|dock_bobby27042020.67|mol2|29|dock1
     RDKit          3D

 23 25  0  0  0  0  0  0  0  0999 V2000
   11.5508   -1.0572   21.0401 O   0  0  0  0  0  0  0  0  0  0  0  0
   11.2503   -1.0793   22.2300 C   0  0  0  0  0  0  0  0  0  0  0  0
    9.9804   -0.9160   22.6326 N   0  0  0  0  0  0  0  0  0  0  0  0
    8.8643   -0.7569   21.7050 C   0  0  0  0  0  0  0  0  0  0  0  0
    8.4456    0.7037   21.7456 C   0  0  0  0  0  0  0  0  0  0  0  0
    7.2323    0.9660   20.8601 C   0  0  0  0  0  0  0  0  0  0  0  0
    6.0728    0.0707   21.2354 C   0  0  0  0  0  0  0  0  0  0  0  0
    6.4879   -1.3939   21.1626 C   0  0  0  0  0  0  0  0  0  0  0  0
    7.6878   -1.6451   22.0726 C   0  0  0  0  0  0  0  0  0  0  0  0
    8.1067   -3.1005   21.9903 C   0  0  0  0  0  0  0  0  0  0  0  0
    9.0652   -3.4257   21.3161 O   0  0  0  0  0  0  0  0  0  0  0  0
    7.4153   -4.0395   22.6744 N   0  0  0  0  0  0  0  0  0  0  0  0
    7.8231   -5.4483   22.7266 C   0  0  0  0  0  0  0  0  0  0  0  0
    6.6241   -6.3416   22.4815 C   0  0  0  0  0  0  0  0  0  0  0  0
    5.5736   -6.0764   23.3891 O   0  0  0  0  0  0  0  0  0  0  0  0
    5.1477   -4.7191   23.2655 C   0  0  0  0  0  0  0  0  0  0  0  0
    6.2798   -3.7598   23.5587 C   0  0  0  0  0  0  0  0  0  0  0  0
   12.3338   -1.2942   23.2483 C   0  0  0  0  0  0  0  0  0  0  0  0
   12.3187   -0.7116   24.5142 C   0  0  0  0  0  0  0  0  0  0  0  0
   13.3477   -0.9481   25.4109 C   0  0  0  0  0  0  0  0  0  0  0  0
   14.4025   -1.7638   25.0635 C   0  0  0  0  0  0  0  0  0  0  0  0
   14.4319   -2.3466   23.8158 C   0  0  0  0  0  0  0  0  0  0  0  0
   13.4066   -2.1145   22.9146 C   0  0  0  0  0  0  0  0  0  0  0  0
  1  2  2  0
  2  3  1  0
  3  4  1  0
  4  5  1  0
  5  6  1  0
  6  7  1  0
  7  8  1  0
  8  9  1  0
  9 10  1  0
 10 11  2  0
 10 12  1  0
 12 13  1  0
 13 14  1  0
 14 15  1  0
 15 16  1  0
 16 17  1  0
  2 18  1  0
 18 19  2  0
 19 20  1  0
 20 21  2  0
 21 22  1  0
 22 23  2  0
  9  4  1  0
 17 12  1  0
 23 18  1  0
M  END
