CVD-0000193|dock_bobby27042020.85|mol2|15|dock1
     RDKit          3D

 30 32  0  0  0  0  0  0  0  0999 V2000
   13.0112    4.3413   21.2636 C   0  0  0  0  0  0  0  0  0  0  0  0
   13.3289    4.3290   22.7548 C   0  0  0  0  0  0  0  0  0  0  0  0
   13.5687    2.9403   23.1641 N   0  0  0  0  0  0  0  0  0  0  0  0
   12.6282    1.9915   23.1554 C   0  0  0  0  0  0  0  0  0  0  0  0
   11.4710    2.1965   22.8021 O   0  0  0  0  0  0  0  0  0  0  0  0
   13.0719    0.6219   23.6242 C   0  0  0  0  0  0  0  0  0  0  0  0
   12.2161   -0.4972   23.0903 C   0  0  0  0  0  0  0  0  0  0  0  0
   12.5464   -1.4013   22.0684 C   0  0  0  0  0  0  0  0  0  0  0  0
   13.7997   -1.4820   21.2588 C   0  0  0  0  0  0  0  0  0  0  0  0
   11.5728   -2.2611   21.8519 N   0  0  0  0  0  0  0  0  0  0  0  0
   10.5722   -1.9265   22.7495 N   0  0  0  0  0  0  0  0  0  0  0  0
   10.9352   -0.8615   23.5150 C   0  0  0  0  0  0  0  0  0  0  0  0
   10.1210   -0.2200   24.5891 C   0  0  0  0  0  0  0  0  0  0  0  0
    9.3936   -2.7181   22.7187 C   0  0  0  0  0  0  0  0  0  0  0  0
    8.3321   -2.3534   21.8978 C   0  0  0  0  0  0  0  0  0  0  0  0
    7.2115   -3.1639   21.9104 C   0  0  0  0  0  0  0  0  0  0  0  0
    7.1692   -4.2922   22.7170 C   0  0  0  0  0  0  0  0  0  0  0  0
    8.2758   -4.5644   23.4953 C   0  0  0  0  0  0  0  0  0  0  0  0
    9.3727   -3.7987   23.5031 N   0  0  0  0  0  0  0  0  0  0  0  0
    5.9612   -5.1732   22.7409 C   0  0  0  0  0  0  0  0  0  0  0  0
    5.1317   -4.8823   23.7366 F   0  0  0  0  0  0  0  0  0  0  0  0
    6.2643   -6.4586   22.8822 F   0  0  0  0  0  0  0  0  0  0  0  0
    5.2402   -5.0884   21.6287 F   0  0  0  0  0  0  0  0  0  0  0  0
   12.2270    4.9694   23.5806 C   0  0  0  0  0  0  0  0  0  0  0  0
   10.9056    4.9549   23.1518 C   0  0  0  0  0  0  0  0  0  0  0  0
    9.9048    5.5349   23.9135 C   0  0  0  0  0  0  0  0  0  0  0  0
   10.2091    6.1435   25.1191 C   0  0  0  0  0  0  0  0  0  0  0  0
   11.5167    6.1488   25.5205 C   0  0  0  0  0  0  0  0  0  0  0  0
   11.8320    6.7443   26.7023 F   0  0  0  0  0  0  0  0  0  0  0  0
   12.5302    5.5811   24.7884 C   0  0  0  0  0  0  0  0  0  0  0  0
  1  2  1  0
  2  3  1  0
  3  4  1  0
  4  5  2  0
  4  6  1  0
  6  7  1  0
  7  8  1  0
  8  9  1  0
  8 10  2  0
 10 11  1  0
 11 12  1  0
 12 13  1  0
 11 14  1  0
 14 15  2  0
 15 16  1  0
 16 17  2  0
 17 18  1  0
 18 19  2  0
 17 20  1  0
 20 21  1  0
 20 22  1  0
 20 23  1  0
  2 24  1  0
 24 25  2  0
 25 26  1  0
 26 27  2  0
 27 28  1  0
 28 29  1  0
 28 30  2  0
 12  7  2  0
 19 14  1  0
 30 24  1  0
M  END
