CVD-0002976|dock_bobby27042020.3|mol2|35|dock2
     RDKit          3D

 27 29  0  0  0  0  0  0  0  0999 V2000
    1.6116    2.8460   19.6806 C   0  0  0  0  0  0  0  0  0  0  0  0
    3.0106    2.4112   20.0052 C   0  0  0  0  0  0  0  0  0  0  0  0
    3.4202    2.3511   21.1602 O   0  0  0  0  0  0  0  0  0  0  0  0
    3.7885    2.1098   18.9637 N   0  0  0  0  0  0  0  0  0  0  0  0
    5.1742    1.6891   19.1147 C   0  0  0  0  0  0  0  0  0  0  0  0
    5.3641    0.2289   18.7556 C   0  0  0  0  0  0  0  0  0  0  0  0
    6.5906   -0.3730   19.3763 C   0  0  0  0  0  0  0  0  0  0  0  0
    7.7860   -0.6277   18.7699 C   0  0  0  0  0  0  0  0  0  0  0  0
    8.6659   -1.1814   19.6600 N   0  0  0  0  0  0  0  0  0  0  0  0
    8.0404   -1.2950   20.8771 C   0  0  0  0  0  0  0  0  0  0  0  0
    8.5271   -1.7983   22.0865 C   0  0  0  0  0  0  0  0  0  0  0  0
    9.9367   -2.3262   22.2159 C   0  0  0  0  0  0  0  0  0  0  0  0
   10.8875   -1.4214   23.0092 C   0  0  0  0  0  0  0  0  0  0  0  0
   12.3553   -1.6525   22.6564 C   0  0  0  0  0  0  0  0  0  0  0  0
   13.2781   -0.6825   23.3663 C   0  0  0  0  0  0  0  0  0  0  0  0
   12.8545    0.7020   23.1341 N   0  0  0  0  0  0  0  0  0  0  0  0
   11.4904    0.9634   23.5789 C   0  0  0  0  0  0  0  0  0  0  0  0
   10.5393    0.0513   22.8358 C   0  0  0  0  0  0  0  0  0  0  0  0
   13.6370    1.6958   22.6641 C   0  0  0  0  0  0  0  0  0  0  0  0
   14.8161    1.5114   22.3899 O   0  0  0  0  0  0  0  0  0  0  0  0
   12.9921    3.0578   22.4958 C   0  0  0  0  0  0  0  0  0  0  0  0
   14.1286    4.2135   21.7888 Cl  0  0  0  0  0  0  0  0  0  0  0  0
    7.6714   -1.7952   23.1822 C   0  0  0  0  0  0  0  0  0  0  0  0
    6.3949   -1.3048   23.0331 C   0  0  0  0  0  0  0  0  0  0  0  0
    5.5776   -1.3140   24.1205 F   0  0  0  0  0  0  0  0  0  0  0  0
    5.8926   -0.8056   21.8537 C   0  0  0  0  0  0  0  0  0  0  0  0
    6.7322   -0.7965   20.7402 C   0  0  0  0  0  0  0  0  0  0  0  0
  1  2  1  0
  2  3  2  0
  2  4  1  0
  4  5  1  0
  5  6  1  0
  6  7  1  0
  7  8  2  0
  8  9  1  0
  9 10  1  0
 10 11  2  0
 11 12  1  0
 12 13  1  0
 13 14  1  0
 14 15  1  0
 15 16  1  0
 16 17  1  0
 17 18  1  0
 16 19  1  0
 19 20  2  0
 19 21  1  0
 21 22  1  0
 11 23  1  0
 23 24  2  0
 24 25  1  0
 24 26  1  0
 26 27  2  0
 27  7  1  0
 27 10  1  0
 18 13  1  0
M  END
