CVD-0000908|dock_bobby27042020.83|mol2|2|dock1
     RDKit          3D

 17 18  0  0  0  0  0  0  0  0999 V2000
    8.6506   -1.1352   23.2028 C   0  0  0  0  0  0  0  0  0  0  0  0
    9.1729   -2.2445   22.3001 C   0  0  0  0  0  0  0  0  0  0  0  0
   10.4716   -1.8468   21.7775 N   0  0  0  0  0  0  0  0  0  0  0  0
   11.4908   -1.5421   22.5850 C   0  0  0  0  0  0  0  0  0  0  0  0
   11.4253   -1.5694   23.8101 O   0  0  0  0  0  0  0  0  0  0  0  0
   12.7644   -1.1606   21.8632 C   0  0  0  0  0  0  0  0  0  0  0  0
   13.9348   -0.3819   22.9360 Cl  0  0  0  0  0  0  0  0  0  0  0  0
    8.1983   -2.5904   21.1991 C   0  0  0  0  0  0  0  0  0  0  0  0
    7.5552   -3.7653   21.1416 C   0  0  0  0  0  0  0  0  0  0  0  0
    6.6428   -4.0475   20.0958 C   0  0  0  0  0  0  0  0  0  0  0  0
    6.1759   -5.6967   19.8449 Cl  0  0  0  0  0  0  0  0  0  0  0  0
    6.1361   -3.0771   19.3166 C   0  0  0  0  0  0  0  0  0  0  0  0
    6.5249   -1.6514   19.5675 C   0  0  0  0  0  0  0  0  0  0  0  0
    6.7446   -0.7000   18.3791 C   0  0  0  0  0  0  0  0  0  0  0  0
    7.3904    0.4981   19.0682 C   0  0  0  0  0  0  0  0  0  0  0  0
    7.9927   -0.0533   20.3576 C   0  0  0  0  0  0  0  0  0  0  0  0
    7.9587   -1.5701   20.1119 C   0  0  0  0  0  0  0  0  0  0  0  0
  1  2  1  0
  2  3  1  0
  3  4  1  0
  4  5  2  0
  4  6  1  0
  6  7  1  0
  2  8  1  0
  8  9  2  0
  9 10  1  0
 10 11  1  0
 10 12  2  0
 12 13  1  0
 13 14  1  0
 14 15  1  0
 15 16  1  0
 16 17  1  0
 17  8  1  0
 17 13  1  0
M  END
