CVD-0001804|dock_bobby27042020.22|mol2|38|dock2
     RDKit          3D

 19 20  0  0  0  0  0  0  0  0999 V2000
    5.0984    0.6373   21.4367 C   0  0  0  0  0  0  0  0  0  0  0  0
    5.6760    0.6597   20.0447 C   0  0  0  0  0  0  0  0  0  0  0  0
    5.0046    1.3585   19.0454 C   0  0  0  0  0  0  0  0  0  0  0  0
    5.4882    1.3424   17.7541 C   0  0  0  0  0  0  0  0  0  0  0  0
    6.5818    0.6764   17.3887 N   0  0  0  0  0  0  0  0  0  0  0  0
    7.2472    0.0224   18.3453 C   0  0  0  0  0  0  0  0  0  0  0  0
    6.8521    0.0014   19.6762 C   0  0  0  0  0  0  0  0  0  0  0  0
    7.6621   -0.7017   20.6522 N   0  0  0  0  0  0  0  0  0  0  0  0
    7.1587   -1.8887   21.1533 C   0  0  0  0  0  0  0  0  0  0  0  0
    6.1149   -2.3983   20.7642 O   0  0  0  0  0  0  0  0  0  0  0  0
    7.9939   -2.5906   22.2410 C   0  0  0  0  0  0  0  0  0  0  0  0
    9.4811   -2.2730   22.0982 C   0  0  0  0  0  0  0  0  0  0  0  0
    9.7046   -0.8850   21.8288 N   0  0  0  0  0  0  0  0  0  0  0  0
   10.7767   -0.2455   22.5719 C   0  0  0  0  0  0  0  0  0  0  0  0
   11.9941   -1.1398   22.7348 C   0  0  0  0  0  0  0  0  0  0  0  0
   12.3790   -1.8000   21.6540 N   0  0  0  0  0  0  0  0  0  0  0  0
   12.5714   -1.2356   23.8217 O   0  0  0  0  0  0  0  0  0  0  0  0
    8.8998   -0.1627   20.9845 C   0  0  0  0  0  0  0  0  0  0  0  0
    9.2691    0.9181   20.5525 O   0  0  0  0  0  0  0  0  0  0  0  0
  1  2  1  0
  2  3  2  0
  3  4  1  0
  4  5  2  0
  5  6  1  0
  6  7  2  0
  7  8  1  0
  8  9  1  0
  9 10  2  0
  9 11  1  0
 11 12  1  0
 12 13  1  0
 13 14  1  0
 14 15  1  0
 15 16  1  0
 15 17  2  0
 13 18  1  0
 18 19  2  0
  7  2  1  0
 18  8  1  0
M  END
