CVD-0003410|dock_bobby27042020.45|mol2|24|dock1
     RDKit          3D

 28 29  0  0  0  0  0  0  0  0999 V2000
    6.9200   -5.7103   21.4259 C   0  0  0  0  0  0  0  0  0  0  0  0
    6.7496   -4.6598   22.4783 C   0  0  0  0  0  0  0  0  0  0  0  0
    7.5863   -3.5009   22.2136 N   0  0  0  0  0  0  0  0  0  0  0  0
    7.2471   -2.5510   21.3238 C   0  0  0  0  0  0  0  0  0  0  0  0
    6.3276   -2.9513   20.4242 N   0  0  0  0  0  0  0  0  0  0  0  0
    5.9741   -2.0949   19.4631 C   0  0  0  0  0  0  0  0  0  0  0  0
    6.4858   -0.8092   19.3583 C   0  0  0  0  0  0  0  0  0  0  0  0
    7.4078   -0.3764   20.3054 C   0  0  0  0  0  0  0  0  0  0  0  0
    7.8025   -1.2478   21.3216 C   0  0  0  0  0  0  0  0  0  0  0  0
    8.7250   -0.8607   22.3322 N   0  0  0  0  0  0  0  0  0  0  0  0
    9.7408    0.0381   22.3046 C   0  0  0  0  0  0  0  0  0  0  0  0
   10.0810    0.7302   21.3495 O   0  0  0  0  0  0  0  0  0  0  0  0
   10.5047    0.1491   23.6322 C   0  0  0  0  0  0  0  0  0  0  0  0
   10.9655    1.5219   23.7819 N   0  0  0  0  0  0  0  0  0  0  0  0
   12.0638    1.9714   23.1629 C   0  0  0  0  0  0  0  0  0  0  0  0
   12.7679    1.2426   22.4494 O   0  0  0  0  0  0  0  0  0  0  0  0
   12.3782    3.4000   23.3906 C   0  0  0  0  0  0  0  0  0  0  0  0
   13.4704    3.9553   22.9363 C   0  0  0  0  0  0  0  0  0  0  0  0
   11.6917   -0.8052   23.6465 C   0  0  0  0  0  0  0  0  0  0  0  0
   12.5983   -0.8041   24.7033 C   0  0  0  0  0  0  0  0  0  0  0  0
   13.6794   -1.6841   24.6941 C   0  0  0  0  0  0  0  0  0  0  0  0
   14.5874   -1.7017   25.7268 N   0  0  0  0  0  0  0  0  0  0  0  0
   13.8054   -2.5403   23.6057 C   0  0  0  0  0  0  0  0  0  0  0  0
   12.9493   -2.5600   22.5785 N   0  0  0  0  0  0  0  0  0  0  0  0
   11.9547   -1.7133   22.6405 C   0  0  0  0  0  0  0  0  0  0  0  0
   11.1175   -1.7603   21.5932 F   0  0  0  0  0  0  0  0  0  0  0  0
    6.0713    0.0667   18.2903 C   0  0  0  0  0  0  0  0  0  0  0  0
    5.7688    0.7499   17.4262 N   0  0  0  0  0  0  0  0  0  0  0  0
  1  2  1  0
  2  3  1  0
  3  4  1  0
  4  5  2  0
  5  6  1  0
  6  7  2  0
  7  8  1  0
  8  9  2  0
  9 10  1  0
 10 11  1  0
 11 12  2  0
 11 13  1  0
 13 14  1  0
 14 15  1  0
 15 16  2  0
 15 17  1  0
 17 18  2  0
 13 19  1  0
 19 20  2  0
 20 21  1  0
 21 22  1  0
 21 23  2  0
 23 24  1  0
 24 25  2  0
 25 26  1  0
  7 27  1  0
 27 28  3  0
  9  4  1  0
 25 19  1  0
M  END
