CVD-0003672|dock_bobby27042020.15|mol2|46|dock1
     RDKit          3D

 15 15  0  0  0  0  0  0  0  0999 V2000
    6.6253   -0.8414   18.5675 C   0  0  0  0  0  0  0  0  0  0  0  0
    7.3144    0.2288   19.3550 C   0  0  0  0  0  0  0  0  0  0  0  0
    8.5279   -0.2707   19.9914 N   0  0  0  0  0  0  0  0  0  0  0  0
    8.9290    0.2349   21.1720 C   0  0  0  0  0  0  0  0  0  0  0  0
    8.2762    1.1048   21.7357 O   0  0  0  0  0  0  0  0  0  0  0  0
   10.0758   -0.2200   21.7522 N   0  0  0  0  0  0  0  0  0  0  0  0
   10.7412   -1.4845   21.4437 C   0  0  0  0  0  0  0  0  0  0  0  0
   10.9721   -2.2786   22.7115 C   0  0  0  0  0  0  0  0  0  0  0  0
   11.7000   -1.4688   23.6861 N   0  0  0  0  0  0  0  0  0  0  0  0
   11.0347   -0.2044   23.9947 C   0  0  0  0  0  0  0  0  0  0  0  0
   10.8037    0.5896   22.7268 C   0  0  0  0  0  0  0  0  0  0  0  0
   12.8357   -1.9194   24.2607 C   0  0  0  0  0  0  0  0  0  0  0  0
   13.2930   -3.0235   23.9937 O   0  0  0  0  0  0  0  0  0  0  0  0
   13.5243   -1.0061   25.2563 C   0  0  0  0  0  0  0  0  0  0  0  0
   14.9694   -1.7861   25.9123 Cl  0  0  0  0  0  0  0  0  0  0  0  0
  1  2  1  0
  2  3  1  0
  3  4  1  0
  4  5  2  0
  4  6  1  0
  6  7  1  0
  7  8  1  0
  8  9  1  0
  9 10  1  0
 10 11  1  0
  9 12  1  0
 12 13  2  0
 12 14  1  0
 14 15  1  0
 11  6  1  0
M  END
