CVD-0003510|dock_bobby27042020.16|mol2|23|dock3
     RDKit          3D

 26 28  0  0  0  0  0  0  0  0999 V2000
    6.1646   -3.8643   19.9496 C   0  0  0  0  0  0  0  0  0  0  0  0
    7.2993   -2.9263   20.2663 C   0  0  0  0  0  0  0  0  0  0  0  0
    8.1365   -3.2064   21.3436 C   0  0  0  0  0  0  0  0  0  0  0  0
    9.2043   -2.3906   21.7011 C   0  0  0  0  0  0  0  0  0  0  0  0
   10.0576   -2.7177   22.8964 C   0  0  0  0  0  0  0  0  0  0  0  0
   11.3593   -1.9469   22.8997 C   0  0  0  0  0  0  0  0  0  0  0  0
   11.1248   -0.5236   22.6492 N   0  0  0  0  0  0  0  0  0  0  0  0
   12.3785    0.2232   22.8105 C   0  0  0  0  0  0  0  0  0  0  0  0
   12.2694    1.7309   22.6135 C   0  0  0  0  0  0  0  0  0  0  0  0
   11.1115    2.3470   23.3957 C   0  0  0  0  0  0  0  0  0  0  0  0
   11.0757    3.8574   23.2779 C   0  0  0  0  0  0  0  0  0  0  0  0
   12.3724    4.4376   23.6415 N   0  0  0  0  0  0  0  0  0  0  0  0
   13.4698    3.9429   22.8181 C   0  0  0  0  0  0  0  0  0  0  0  0
   13.5695    2.4409   22.9687 C   0  0  0  0  0  0  0  0  0  0  0  0
   12.5711    5.4110   24.5587 C   0  0  0  0  0  0  0  0  0  0  0  0
   13.6969    5.8280   24.7997 O   0  0  0  0  0  0  0  0  0  0  0  0
   11.3677    5.9730   25.2913 C   0  0  0  0  0  0  0  0  0  0  0  0
   11.8603    7.2336   26.4295 Cl  0  0  0  0  0  0  0  0  0  0  0  0
   10.6345   -0.3558   21.2803 C   0  0  0  0  0  0  0  0  0  0  0  0
    9.4623   -1.2367   20.9584 C   0  0  0  0  0  0  0  0  0  0  0  0
    8.6382   -0.9395   19.8790 C   0  0  0  0  0  0  0  0  0  0  0  0
    7.5756   -1.7633   19.5337 C   0  0  0  0  0  0  0  0  0  0  0  0
    6.5957   -1.2992   18.1320 S   0  0  0  0  0  0  0  0  0  0  0  0
    5.1195   -0.9447   18.6403 N   0  0  0  0  0  0  0  0  0  0  0  0
    6.4892   -2.4507   17.2870 O   0  0  0  0  0  0  0  0  0  0  0  0
    7.1608   -0.0969   17.5970 O   0  0  0  0  0  0  0  0  0  0  0  0
  1  2  1  0
  2  3  2  0
  3  4  1  0
  4  5  1  0
  5  6  1  0
  6  7  1  0
  7  8  1  0
  8  9  1  0
  9 10  1  0
 10 11  1  0
 11 12  1  0
 12 13  1  0
 13 14  1  0
 12 15  1  0
 15 16  2  0
 15 17  1  0
 17 18  1  0
  7 19  1  0
 19 20  1  0
 20 21  1  0
 21 22  2  0
 22 23  1  0
 23 24  1  0
 23 25  2  0
 23 26  2  0
 22  2  1  0
 20  4  2  0
 14  9  1  0
M  END
