CVD-0001067|dock_bobby27042020.68|mol2|17|dock1
     RDKit          3D

 21 23  0  0  0  0  0  0  0  0999 V2000
    2.3901    2.9549   19.5715 N   0  0  0  0  0  0  0  0  0  0  0  0
    3.4554    2.1151   19.3447 C   0  0  0  0  0  0  0  0  0  0  0  0
    3.7975    1.1226   20.2638 C   0  0  0  0  0  0  0  0  0  0  0  0
    4.8753    0.2863   20.0339 C   0  0  0  0  0  0  0  0  0  0  0  0
    5.6549    0.4039   18.8876 C   0  0  0  0  0  0  0  0  0  0  0  0
    5.2994    1.3831   17.9624 C   0  0  0  0  0  0  0  0  0  0  0  0
    4.2274    2.2284   18.1876 C   0  0  0  0  0  0  0  0  0  0  0  0
    6.8115   -0.5341   18.7171 C   0  0  0  0  0  0  0  0  0  0  0  0
    6.7612   -1.3108   17.7569 O   0  0  0  0  0  0  0  0  0  0  0  0
    7.9945   -0.5943   19.6008 C   0  0  0  0  0  0  0  0  0  0  0  0
    8.1519    0.1038   20.7240 C   0  0  0  0  0  0  0  0  0  0  0  0
    9.3162    0.0597   21.6133 C   0  0  0  0  0  0  0  0  0  0  0  0
    9.3862    0.8310   22.7707 C   0  0  0  0  0  0  0  0  0  0  0  0
   10.4102    0.8199   23.5920 N   0  0  0  0  0  0  0  0  0  0  0  0
   11.4476   -0.0086   23.2584 C   0  0  0  0  0  0  0  0  0  0  0  0
   12.5910   -0.0833   24.0865 C   0  0  0  0  0  0  0  0  0  0  0  0
   13.6222   -0.9104   23.7498 C   0  0  0  0  0  0  0  0  0  0  0  0
   13.5708   -1.6829   22.6064 C   0  0  0  0  0  0  0  0  0  0  0  0
   12.4874   -1.6425   21.7785 C   0  0  0  0  0  0  0  0  0  0  0  0
   11.3946   -0.8001   22.0865 C   0  0  0  0  0  0  0  0  0  0  0  0
   10.3038   -0.7538   21.2608 N   0  0  0  0  0  0  0  0  0  0  0  0
  1  2  1  0
  2  3  2  0
  3  4  1  0
  4  5  2  0
  5  6  1  0
  6  7  2  0
  5  8  1  0
  8  9  2  0
  8 10  1  0
 10 11  2  0
 11 12  1  0
 12 13  2  0
 13 14  1  0
 14 15  2  0
 15 16  1  0
 16 17  2  0
 17 18  1  0
 18 19  2  0
 19 20  1  0
 20 21  2  0
  7  2  1  0
 21 12  1  0
 20 15  1  0
M  END
