CVD-0000445|dock_bobby27042020.56|mol2|6|dock1
     RDKit          3D

 30 32  0  0  0  0  0  0  0  0999 V2000
    9.2690   -5.1190   26.7444 C   0  0  0  0  0  0  0  0  0  0  0  0
   10.2127   -4.8646   25.6110 C   0  0  0  0  0  0  0  0  0  0  0  0
   10.0763   -5.8688   24.5695 N   0  0  0  0  0  0  0  0  0  0  0  0
    9.0149   -5.9294   23.7202 C   0  0  0  0  0  0  0  0  0  0  0  0
    8.6825   -7.1228   23.0823 C   0  0  0  0  0  0  0  0  0  0  0  0
    7.5939   -7.1217   22.2305 C   0  0  0  0  0  0  0  0  0  0  0  0
    6.9055   -5.9450   22.0648 C   0  0  0  0  0  0  0  0  0  0  0  0
    5.8371   -5.9211   21.2352 F   0  0  0  0  0  0  0  0  0  0  0  0
    7.2731   -4.7865   22.7209 C   0  0  0  0  0  0  0  0  0  0  0  0
    6.5358   -3.4797   22.5532 C   0  0  0  0  0  0  0  0  0  0  0  0
    7.2269   -2.5399   21.5863 C   0  0  0  0  0  0  0  0  0  0  0  0
    6.4963   -1.8513   20.6276 C   0  0  0  0  0  0  0  0  0  0  0  0
    7.1138   -0.9842   19.7359 C   0  0  0  0  0  0  0  0  0  0  0  0
    6.2997   -0.2381   18.6968 C   0  0  0  0  0  0  0  0  0  0  0  0
    5.5414    0.9371   19.2569 C   0  0  0  0  0  0  0  0  0  0  0  0
    8.4892   -0.8077   19.8161 C   0  0  0  0  0  0  0  0  0  0  0  0
    9.2444   -1.4861   20.7682 C   0  0  0  0  0  0  0  0  0  0  0  0
   10.6138   -1.3176   20.8538 N   0  0  0  0  0  0  0  0  0  0  0  0
   11.3366   -1.2703   22.1103 C   0  0  0  0  0  0  0  0  0  0  0  0
   12.4646   -0.2573   22.0819 C   0  0  0  0  0  0  0  0  0  0  0  0
   13.6309   -0.6328   22.1354 O   0  0  0  0  0  0  0  0  0  0  0  0
   12.0475    1.0285   21.9873 N   0  0  0  0  0  0  0  0  0  0  0  0
   12.7550    2.2517   22.0926 C   0  0  0  0  0  0  0  0  0  0  0  0
   12.2096    3.3954   21.5238 C   0  0  0  0  0  0  0  0  0  0  0  0
   12.8883    4.5976   21.6179 C   0  0  0  0  0  0  0  0  0  0  0  0
   14.0944    4.6226   22.2789 C   0  0  0  0  0  0  0  0  0  0  0  0
   14.6441    3.5430   22.8352 N   0  0  0  0  0  0  0  0  0  0  0  0
   13.9814    2.3861   22.7394 C   0  0  0  0  0  0  0  0  0  0  0  0
    8.6007   -2.3487   21.6480 C   0  0  0  0  0  0  0  0  0  0  0  0
    8.3303   -4.7919   23.5447 N   0  0  0  0  0  0  0  0  0  0  0  0
  1  2  1  0
  2  3  1  0
  3  4  1  0
  4  5  2  0
  5  6  1  0
  6  7  2  0
  7  8  1  0
  7  9  1  0
  9 10  1  0
 10 11  1  0
 11 12  2  0
 12 13  1  0
 13 14  1  0
 14 15  1  0
 13 16  2  0
 16 17  1  0
 17 18  1  0
 18 19  1  0
 19 20  1  0
 20 21  2  0
 20 22  1  0
 22 23  1  0
 23 24  2  0
 24 25  1  0
 25 26  2  0
 26 27  1  0
 27 28  2  0
 17 29  2  0
  9 30  2  0
 30  4  1  0
 29 11  1  0
 28 23  1  0
M  END
