CVD-0001994|dock_bobby27042020.50|mol2|35|dock2
     RDKit          3D

 20 22  0  0  0  0  0  0  0  0999 V2000
   13.9488   -2.2381   23.4406 C   0  0  0  0  0  0  0  0  0  0  0  0
   13.0340   -1.9784   22.2465 C   0  0  0  0  0  0  0  0  0  0  0  0
   13.8369   -1.9977   20.9599 C   0  0  0  0  0  0  0  0  0  0  0  0
   14.3426   -0.8314   20.6478 O   0  0  0  0  0  0  0  0  0  0  0  0
   13.9894   -2.9961   20.2911 O   0  0  0  0  0  0  0  0  0  0  0  0
   12.3299   -0.6322   22.3520 C   0  0  0  0  0  0  0  0  0  0  0  0
   10.9518   -0.5484   22.2004 C   0  0  0  0  0  0  0  0  0  0  0  0
   10.2589    0.6559   22.2889 C   0  0  0  0  0  0  0  0  0  0  0  0
    8.7630    0.6824   22.1180 C   0  0  0  0  0  0  0  0  0  0  0  0
   10.9904    1.8222   22.5444 C   0  0  0  0  0  0  0  0  0  0  0  0
   12.3850    1.7343   22.6986 C   0  0  0  0  0  0  0  0  0  0  0  0
   13.0596    0.5219   22.6053 C   0  0  0  0  0  0  0  0  0  0  0  0
   12.8804    3.0023   22.9401 N   0  0  0  0  0  0  0  0  0  0  0  0
   11.8340    3.9075   22.9453 C   0  0  0  0  0  0  0  0  0  0  0  0
   11.8536    5.2834   23.1456 C   0  0  0  0  0  0  0  0  0  0  0  0
   10.6628    5.9884   23.1049 C   0  0  0  0  0  0  0  0  0  0  0  0
    9.4790    5.3208   22.8674 C   0  0  0  0  0  0  0  0  0  0  0  0
    7.9929    6.2273   22.8203 Cl  0  0  0  0  0  0  0  0  0  0  0  0
    9.4340    3.9553   22.6656 C   0  0  0  0  0  0  0  0  0  0  0  0
   10.6229    3.2293   22.7030 C   0  0  0  0  0  0  0  0  0  0  0  0
  2  1  1  0
  2  3  1  0
  3  4  1  0
  3  5  2  0
  2  6  1  0
  6  7  2  0
  7  8  1  0
  8  9  1  0
  8 10  2  0
 10 11  1  0
 11 12  2  0
 11 13  1  0
 13 14  1  0
 14 15  2  0
 15 16  1  0
 16 17  2  0
 17 18  1  0
 17 19  1  0
 19 20  2  0
 12  6  1  0
 20 14  1  0
 20 10  1  0
M  END
