CVD-0003467|dock_bobby27042020.30|mol2|45|dock2
     RDKit          3D

 26 28  0  0  0  0  0  0  0  0999 V2000
   11.4034    7.5929   27.2783 C   0  0  0  0  0  0  0  0  0  0  0  0
   11.4718    7.1115   25.8997 N   0  0  0  0  0  0  0  0  0  0  0  0
   12.6825    6.3314   25.6439 C   0  0  0  0  0  0  0  0  0  0  0  0
   12.7298    5.8864   24.2077 C   0  0  0  0  0  0  0  0  0  0  0  0
   11.5539    5.0768   23.8752 N   0  0  0  0  0  0  0  0  0  0  0  0
   11.6226    4.5927   22.4890 C   0  0  0  0  0  0  0  0  0  0  0  0
   10.9712    3.2344   22.2864 C   0  0  0  0  0  0  0  0  0  0  0  0
   11.8107    2.1153   22.8524 C   0  0  0  0  0  0  0  0  0  0  0  0
   12.7388    2.3566   23.6168 O   0  0  0  0  0  0  0  0  0  0  0  0
   11.4228    0.8876   22.4258 N   0  0  0  0  0  0  0  0  0  0  0  0
   11.9456   -0.4030   22.7210 C   0  0  0  0  0  0  0  0  0  0  0  0
   13.3029   -0.6384   22.9459 C   0  0  0  0  0  0  0  0  0  0  0  0
   13.7256   -1.9198   23.2317 C   0  0  0  0  0  0  0  0  0  0  0  0
   12.9076   -2.9649   23.3128 N   0  0  0  0  0  0  0  0  0  0  0  0
   11.6129   -2.7272   23.0956 C   0  0  0  0  0  0  0  0  0  0  0  0
   11.0683   -1.5014   22.7945 C   0  0  0  0  0  0  0  0  0  0  0  0
    9.5815   -1.3783   22.5525 C   0  0  0  0  0  0  0  0  0  0  0  0
    9.2227   -1.2203   21.1507 N   0  0  0  0  0  0  0  0  0  0  0  0
    7.9868   -0.8318   20.7792 C   0  0  0  0  0  0  0  0  0  0  0  0
    7.1027   -0.5917   21.5971 O   0  0  0  0  0  0  0  0  0  0  0  0
    7.7849   -0.7239   19.4476 N   0  0  0  0  0  0  0  0  0  0  0  0
    6.4825   -0.3975   18.8669 C   0  0  0  0  0  0  0  0  0  0  0  0
    6.2275    1.0676   19.5685 C   0  0  0  0  0  0  0  0  0  0  0  0
    5.9399    0.8522   18.1264 C   0  0  0  0  0  0  0  0  0  0  0  0
   10.3431    5.8570   24.1310 C   0  0  0  0  0  0  0  0  0  0  0  0
   10.2959    6.3019   25.5672 C   0  0  0  0  0  0  0  0  0  0  0  0
  1  2  1  0
  2  3  1  0
  3  4  1  0
  4  5  1  0
  5  6  1  0
  6  7  1  0
  7  8  1  0
  8  9  2  0
  8 10  1  0
 10 11  1  0
 11 12  2  0
 12 13  1  0
 13 14  2  0
 14 15  1  0
 15 16  2  0
 16 17  1  0
 17 18  1  0
 18 19  1  0
 19 20  2  0
 19 21  1  0
 21 22  1  0
 22 23  1  0
 23 24  1  0
  5 25  1  0
 25 26  1  0
 26  2  1  0
 16 11  1  0
 24 22  1  0
M  END
