CVD-0003069|dock_bobby27042020.61|mol2|7|dock1
     RDKit          3D

 22 23  0  0  0  0  0  0  0  0999 V2000
   13.5760    4.9669   21.9810 C   0  0  0  0  0  0  0  0  0  0  0  0
   12.4651    4.5814   22.9069 C   0  0  0  0  0  0  0  0  0  0  0  0
   11.6446    3.5234   22.3417 N   0  0  0  0  0  0  0  0  0  0  0  0
   11.9233    2.2194   22.5060 C   0  0  0  0  0  0  0  0  0  0  0  0
   13.2144    1.8568   22.3688 N   0  0  0  0  0  0  0  0  0  0  0  0
   13.5234    0.5650   22.5266 C   0  0  0  0  0  0  0  0  0  0  0  0
   12.5877   -0.4184   22.8242 C   0  0  0  0  0  0  0  0  0  0  0  0
   11.2596   -0.0327   22.9640 C   0  0  0  0  0  0  0  0  0  0  0  0
   10.8971    1.2999   22.8066 C   0  0  0  0  0  0  0  0  0  0  0  0
    9.4459    1.6939   22.9686 C   0  0  0  0  0  0  0  0  0  0  0  0
    8.6604    1.6333   21.6737 C   0  0  0  0  0  0  0  0  0  0  0  0
    8.5009    2.6395   20.9911 O   0  0  0  0  0  0  0  0  0  0  0  0
    8.1949    0.3927   21.3861 N   0  0  0  0  0  0  0  0  0  0  0  0
    7.4333   -0.0721   20.2773 C   0  0  0  0  0  0  0  0  0  0  0  0
    7.2781    0.6308   19.0822 C   0  0  0  0  0  0  0  0  0  0  0  0
    6.5631    0.1914   18.0418 N   0  0  0  0  0  0  0  0  0  0  0  0
    5.9641   -0.9902   18.1584 C   0  0  0  0  0  0  0  0  0  0  0  0
    6.0495   -1.7673   19.2917 C   0  0  0  0  0  0  0  0  0  0  0  0
    6.7902   -1.3207   20.3820 C   0  0  0  0  0  0  0  0  0  0  0  0
    6.8667   -2.1969   21.6059 C   0  0  0  0  0  0  0  0  0  0  0  0
   12.9768   -1.7979   22.9840 C   0  0  0  0  0  0  0  0  0  0  0  0
   13.3106   -2.8851   23.0900 N   0  0  0  0  0  0  0  0  0  0  0  0
  1  2  1  0
  2  3  1  0
  3  4  1  0
  4  5  2  0
  5  6  1  0
  6  7  2  0
  7  8  1  0
  8  9  2  0
  9 10  1  0
 10 11  1  0
 11 12  2  0
 11 13  1  0
 13 14  1  0
 14 15  2  0
 15 16  1  0
 16 17  2  0
 17 18  1  0
 18 19  2  0
 19 20  1  0
  7 21  1  0
 21 22  3  0
  9  4  1  0
 19 14  1  0
M  END
