CVD-0003183|dock_bobby27042020.3|mol2|3|dock1
     RDKit          3D

 26 29  0  0  0  0  0  0  0  0999 V2000
    8.1295   -1.9396   22.8433 O   0  0  0  0  0  0  0  0  0  0  0  0
    8.0315   -0.7703   22.4743 C   0  0  0  0  0  0  0  0  0  0  0  0
    6.7982   -0.3779   21.7499 C   0  0  0  0  0  0  0  0  0  0  0  0
    6.2992   -1.0238   20.7113 C   0  0  0  0  0  0  0  0  0  0  0  0
    5.0606   -0.6359   19.9700 C   0  0  0  0  0  0  0  0  0  0  0  0
    5.2834    0.4856   19.0532 N   0  0  0  0  0  0  0  0  0  0  0  0
    4.8731    1.7439   19.1461 C   0  0  0  0  0  0  0  0  0  0  0  0
    5.3074    2.4545   18.1287 N   0  0  0  0  0  0  0  0  0  0  0  0
    6.0140    1.5461   17.4272 C   0  0  0  0  0  0  0  0  0  0  0  0
    6.0433    0.3354   17.9384 N   0  0  0  0  0  0  0  0  0  0  0  0
    9.0642    0.0738   22.7478 N   0  0  0  0  0  0  0  0  0  0  0  0
   10.2082   -0.5496   23.4581 C   0  0  0  0  0  0  0  0  0  0  0  0
   11.4944   -0.2362   22.7685 C   0  0  0  0  0  0  0  0  0  0  0  0
   12.6444   -0.9623   23.4547 C   0  0  0  0  0  0  0  0  0  0  0  0
   13.1429   -0.5137   24.6698 C   0  0  0  0  0  0  0  0  0  0  0  0
   14.1868   -1.1757   25.2942 C   0  0  0  0  0  0  0  0  0  0  0  0
   14.7447   -2.2938   24.7121 C   0  0  0  0  0  0  0  0  0  0  0  0
   14.2589   -2.7511   23.5058 C   0  0  0  0  0  0  0  0  0  0  0  0
   13.2149   -2.0898   22.8806 C   0  0  0  0  0  0  0  0  0  0  0  0
   11.6983    1.2576   22.7184 C   0  0  0  0  0  0  0  0  0  0  0  0
   12.9555    1.8556   22.8048 C   0  0  0  0  0  0  0  0  0  0  0  0
   13.1248    3.2227   22.6838 C   0  0  0  0  0  0  0  0  0  0  0  0
   12.0264    4.0287   22.4711 C   0  0  0  0  0  0  0  0  0  0  0  0
   10.7695    3.4582   22.3819 C   0  0  0  0  0  0  0  0  0  0  0  0
   10.6028    2.0829   22.5040 C   0  0  0  0  0  0  0  0  0  0  0  0
    9.2335    1.4493   22.2423 C   0  0  0  0  0  0  0  0  0  0  0  0
  1  2  2  0
  2  3  1  0
  3  4  2  0
  4  5  1  0
  5  6  1  0
  6  7  1  0
  7  8  2  0
  8  9  1  0
  9 10  2  0
  2 11  1  0
 11 12  1  0
 12 13  1  0
 13 14  1  0
 14 15  2  0
 15 16  1  0
 16 17  2  0
 17 18  1  0
 18 19  2  0
 13 20  1  0
 20 21  2  0
 21 22  1  0
 22 23  2  0
 23 24  1  0
 24 25  2  0
 25 26  1  0
 10  6  1  0
 26 11  1  0
 19 14  1  0
 25 20  1  0
M  END
