CVD-0002505|dock_bobby27042020.34|mol2|11|dock3
     RDKit          3D

 26 27  0  0  0  0  0  0  0  0999 V2000
   12.8989    5.7140   24.7655 C   0  0  0  0  0  0  0  0  0  0  0  0
   13.6603    5.4492   23.5045 C   0  0  0  0  0  0  0  0  0  0  0  0
   12.8365    4.7701   22.5183 N   0  0  0  0  0  0  0  0  0  0  0  0
   12.7968    3.4179   22.3653 C   0  0  0  0  0  0  0  0  0  0  0  0
   11.6578    2.7756   21.8814 C   0  0  0  0  0  0  0  0  0  0  0  0
   11.6896    1.3992   21.7514 C   0  0  0  0  0  0  0  0  0  0  0  0
   12.8279    0.6894   22.0955 C   0  0  0  0  0  0  0  0  0  0  0  0
   12.8955   -0.8134   21.9692 C   0  0  0  0  0  0  0  0  0  0  0  0
   11.6224   -1.4184   21.6064 N   0  0  0  0  0  0  0  0  0  0  0  0
   10.6580   -1.6340   22.4968 C   0  0  0  0  0  0  0  0  0  0  0  0
   10.7738   -1.3389   23.6824 O   0  0  0  0  0  0  0  0  0  0  0  0
    9.3979   -2.2694   21.9617 C   0  0  0  0  0  0  0  0  0  0  0  0
    8.5096   -2.8463   23.0548 C   0  0  0  0  0  0  0  0  0  0  0  0
    9.1520   -4.0357   23.7467 C   0  0  0  0  0  0  0  0  0  0  0  0
    8.7778   -4.1690   25.1606 N   0  0  0  0  0  0  0  0  0  0  0  0
    9.6079   -5.1831   25.8172 C   0  0  0  0  0  0  0  0  0  0  0  0
    9.2451   -5.2875   27.2869 C   0  0  0  0  0  0  0  0  0  0  0  0
    7.8266   -5.6171   27.4417 N   0  0  0  0  0  0  0  0  0  0  0  0
    6.9704   -4.6528   26.7440 C   0  0  0  0  0  0  0  0  0  0  0  0
    7.3730   -4.5497   25.2842 C   0  0  0  0  0  0  0  0  0  0  0  0
    7.3950   -6.6684   28.1677 C   0  0  0  0  0  0  0  0  0  0  0  0
    8.1725   -7.4127   28.7517 O   0  0  0  0  0  0  0  0  0  0  0  0
    5.8953   -6.8827   28.2322 C   0  0  0  0  0  0  0  0  0  0  0  0
    5.4943   -8.2727   29.2494 Cl  0  0  0  0  0  0  0  0  0  0  0  0
   13.9025    1.4194   22.5664 C   0  0  0  0  0  0  0  0  0  0  0  0
   13.9040    2.7502   22.7038 N   0  0  0  0  0  0  0  0  0  0  0  0
  1  2  1  0
  2  3  1  0
  3  4  1  0
  4  5  2  0
  5  6  1  0
  6  7  2  0
  7  8  1  0
  8  9  1  0
  9 10  1  0
 10 11  2  0
 10 12  1  0
 12 13  1  0
 13 14  1  0
 14 15  1  0
 15 16  1  0
 16 17  1  0
 17 18  1  0
 18 19  1  0
 19 20  1  0
 18 21  1  0
 21 22  2  0
 21 23  1  0
 23 24  1  0
  7 25  1  0
 25 26  2  0
 26  4  1  0
 20 15  1  0
M  END
