CVD-0001761|dock_bobby27042020.37|mol2|15|dock2
     RDKit          3D

 28 30  0  0  0  0  0  0  0  0999 V2000
    6.5424   -6.5631   22.0575 C   0  0  0  0  0  0  0  0  0  0  0  0
    6.7581   -5.1839   21.5176 C   0  0  0  0  0  0  0  0  0  0  0  0
    7.9388   -4.5660   22.0977 N   0  0  0  0  0  0  0  0  0  0  0  0
    7.9087   -3.8339   23.2225 C   0  0  0  0  0  0  0  0  0  0  0  0
    7.1173   -4.2897   24.2147 N   0  0  0  0  0  0  0  0  0  0  0  0
    6.9753   -3.5494   25.3192 C   0  0  0  0  0  0  0  0  0  0  0  0
    7.6216   -2.3375   25.5235 C   0  0  0  0  0  0  0  0  0  0  0  0
    8.4793   -1.8801   24.5306 C   0  0  0  0  0  0  0  0  0  0  0  0
    8.6512   -2.6376   23.3756 C   0  0  0  0  0  0  0  0  0  0  0  0
    9.5862   -2.1714   22.3822 N   0  0  0  0  0  0  0  0  0  0  0  0
   10.9859   -2.4614   22.6775 C   0  0  0  0  0  0  0  0  0  0  0  0
   11.5213   -1.5902   23.7027 N   0  0  0  0  0  0  0  0  0  0  0  0
   12.8887   -1.9745   24.0638 C   0  0  0  0  0  0  0  0  0  0  0  0
   13.4074   -1.0584   25.1229 C   0  0  0  0  0  0  0  0  0  0  0  0
   13.4138    0.2964   24.6876 O   0  0  0  0  0  0  0  0  0  0  0  0
   12.0992    0.6859   24.3265 C   0  0  0  0  0  0  0  0  0  0  0  0
   11.5281   -0.1974   23.2581 C   0  0  0  0  0  0  0  0  0  0  0  0
    9.1601   -1.4447   21.2642 C   0  0  0  0  0  0  0  0  0  0  0  0
   10.0241   -0.9757   20.5350 O   0  0  0  0  0  0  0  0  0  0  0  0
    7.8168   -1.2710   21.0209 N   0  0  0  0  0  0  0  0  0  0  0  0
    7.1538   -0.5762   19.9751 C   0  0  0  0  0  0  0  0  0  0  0  0
    5.8747   -0.0948   20.2256 C   0  0  0  0  0  0  0  0  0  0  0  0
    5.1884    0.5898   19.2384 C   0  0  0  0  0  0  0  0  0  0  0  0
    5.7998    0.7769   18.0214 C   0  0  0  0  0  0  0  0  0  0  0  0
    7.0243    0.3288   17.7463 N   0  0  0  0  0  0  0  0  0  0  0  0
    7.6789   -0.3328   18.7059 C   0  0  0  0  0  0  0  0  0  0  0  0
    7.4143   -1.5734   26.7288 C   0  0  0  0  0  0  0  0  0  0  0  0
    7.2832   -0.9666   27.6876 N   0  0  0  0  0  0  0  0  0  0  0  0
  1  2  1  0
  2  3  1  0
  3  4  1  0
  4  5  2  0
  5  6  1  0
  6  7  2  0
  7  8  1  0
  8  9  2  0
  9 10  1  0
 10 11  1  0
 11 12  1  0
 12 13  1  0
 13 14  1  0
 14 15  1  0
 15 16  1  0
 16 17  1  0
 10 18  1  0
 18 19  2  0
 18 20  1  0
 20 21  1  0
 21 22  2  0
 22 23  1  0
 23 24  2  0
 24 25  1  0
 25 26  2  0
  7 27  1  0
 27 28  3  0
  9  4  1  0
 17 12  1  0
 26 21  1  0
M  END
