CVD-0003705|dock_bobby27042020.44|mol2|29|dock1
     RDKit          3D

 27 29  0  0  0  0  0  0  0  0999 V2000
    8.5729    1.5737   21.7596 O   0  0  0  0  0  0  0  0  0  0  0  0
    9.5502    0.7071   22.3299 C   0  0  0  0  0  0  0  0  0  0  0  0
   10.8847    1.4481   22.4977 C   0  0  0  0  0  0  0  0  0  0  0  0
   11.5648    0.9201   24.0890 Cl  0  0  0  0  0  0  0  0  0  0  0  0
   10.8011    2.9666   22.5685 C   0  0  0  0  0  0  0  0  0  0  0  0
   12.1220    3.7359   22.5644 C   0  0  0  0  0  0  0  0  0  0  0  0
   11.9602    5.2485   22.7434 C   0  0  0  0  0  0  0  0  0  0  0  0
   13.0874    6.0387   22.2765 N   0  0  0  0  0  0  0  0  0  0  0  0
   13.5017    6.9344   23.1852 C   0  0  0  0  0  0  0  0  0  0  0  0
   14.3749    7.7851   23.0357 O   0  0  0  0  0  0  0  0  0  0  0  0
   12.7611    6.7384   24.3342 N   0  0  0  0  0  0  0  0  0  0  0  0
   11.8588    5.7267   24.1880 C   0  0  0  0  0  0  0  0  0  0  0  0
   11.0714    5.3356   25.0454 O   0  0  0  0  0  0  0  0  0  0  0  0
    9.6351   -0.5655   21.4708 C   0  0  0  0  0  0  0  0  0  0  0  0
    8.2112   -1.0721   21.1999 C   0  0  0  0  0  0  0  0  0  0  0  0
    7.6844   -1.6472   22.5153 C   0  0  0  0  0  0  0  0  0  0  0  0
    8.5655   -2.6911   23.0712 N   0  0  0  0  0  0  0  0  0  0  0  0
    7.9721   -3.2717   24.2845 C   0  0  0  0  0  0  0  0  0  0  0  0
    8.7415   -4.4545   24.8221 C   0  0  0  0  0  0  0  0  0  0  0  0
    9.0315   -5.5394   24.0093 C   0  0  0  0  0  0  0  0  0  0  0  0
    9.7342   -6.6270   24.5013 C   0  0  0  0  0  0  0  0  0  0  0  0
   10.1582   -6.6451   25.8194 C   0  0  0  0  0  0  0  0  0  0  0  0
    9.8598   -5.5646   26.6035 C   0  0  0  0  0  0  0  0  0  0  0  0
   10.2695   -5.5685   27.9007 F   0  0  0  0  0  0  0  0  0  0  0  0
    9.1652   -4.4725   26.1447 C   0  0  0  0  0  0  0  0  0  0  0  0
    9.9316   -2.1488   23.2962 C   0  0  0  0  0  0  0  0  0  0  0  0
   10.5119   -1.5556   22.0987 N   0  0  0  0  0  0  0  0  0  0  0  0
  1  2  1  0
  2  3  1  0
  3  4  1  0
  3  5  1  0
  5  6  1  0
  6  7  1  0
  7  8  1  0
  8  9  1  0
  9 10  2  0
  9 11  1  0
 11 12  1  0
 12 13  2  0
  2 14  1  0
 14 15  1  0
 15 16  1  0
 16 17  1  0
 17 18  1  0
 18 19  1  0
 19 20  2  0
 20 21  1  0
 21 22  2  0
 22 23  1  0
 23 24  1  0
 23 25  2  0
 17 26  1  0
 26 27  1  0
 12  7  1  0
 27 14  1  0
 25 19  1  0
M  END
