CVD-0001879|dock_bobby27042020.22|mol2|27|dock3
     RDKit          3D

 33 35  0  0  0  0  0  0  0  0999 V2000
   11.8568    2.5587   24.5208 C   0  0  0  0  0  0  0  0  0  0  0  0
   12.6661    2.4922   23.2517 C   0  0  0  0  0  0  0  0  0  0  0  0
   12.5926    1.1466   22.5567 C   0  0  0  0  0  0  0  0  0  0  0  0
   13.7010    0.3185   22.4972 C   0  0  0  0  0  0  0  0  0  0  0  0
   13.6302   -0.9075   21.8591 C   0  0  0  0  0  0  0  0  0  0  0  0
   12.4491   -1.3252   21.2688 C   0  0  0  0  0  0  0  0  0  0  0  0
   11.3229   -0.5075   21.3153 C   0  0  0  0  0  0  0  0  0  0  0  0
   10.0795   -0.8629   20.7352 N   0  0  0  0  0  0  0  0  0  0  0  0
    9.0374   -0.1011   20.3178 C   0  0  0  0  0  0  0  0  0  0  0  0
    8.9752    1.1240   20.3696 O   0  0  0  0  0  0  0  0  0  0  0  0
    7.8661   -0.9321   19.7516 C   0  0  0  0  0  0  0  0  0  0  0  0
    7.5058   -2.0551   20.6581 N   0  0  0  0  0  0  0  0  0  0  0  0
    6.8035   -3.1182   20.0955 C   0  0  0  0  0  0  0  0  0  0  0  0
    6.5124   -3.1044   18.9003 O   0  0  0  0  0  0  0  0  0  0  0  0
    6.3595   -4.3319   20.8499 C   0  0  0  0  0  0  0  0  0  0  0  0
    6.1081   -5.4966   20.3085 C   0  0  0  0  0  0  0  0  0  0  0  0
    7.8789   -1.9382   22.0388 C   0  0  0  0  0  0  0  0  0  0  0  0
    7.5345   -0.8202   22.7797 C   0  0  0  0  0  0  0  0  0  0  0  0
    7.8676   -0.7204   24.1180 C   0  0  0  0  0  0  0  0  0  0  0  0
    8.5604   -1.7494   24.7640 C   0  0  0  0  0  0  0  0  0  0  0  0
    8.8518   -1.6234   26.1682 N   0  0  0  0  0  0  0  0  0  0  0  0
    8.3447   -2.5550   27.1622 C   0  0  0  0  0  0  0  0  0  0  0  0
    9.5502   -0.4436   26.6509 C   0  0  0  0  0  0  0  0  0  0  0  0
    8.9551   -2.8753   24.0224 C   0  0  0  0  0  0  0  0  0  0  0  0
    9.7710   -4.0352   24.5341 C   0  0  0  0  0  0  0  0  0  0  0  0
    8.5829   -2.9454   22.6824 C   0  0  0  0  0  0  0  0  0  0  0  0
    6.6664   -0.0825   19.3454 C   0  0  0  0  0  0  0  0  0  0  0  0
    5.4438   -0.1432   19.9996 C   0  0  0  0  0  0  0  0  0  0  0  0
    4.3975    0.6608   19.5817 C   0  0  0  0  0  0  0  0  0  0  0  0
    4.6039    1.5063   18.5154 C   0  0  0  0  0  0  0  0  0  0  0  0
    5.7646    1.5891   17.8638 N   0  0  0  0  0  0  0  0  0  0  0  0
    6.7608    0.8045   18.2853 C   0  0  0  0  0  0  0  0  0  0  0  0
   11.4125    0.7213   21.9611 C   0  0  0  0  0  0  0  0  0  0  0  0
  1  2  1  0
  2  3  1  0
  3  4  2  0
  4  5  1  0
  5  6  2  0
  6  7  1  0
  7  8  1  0
  8  9  1  0
  9 10  2  0
  9 11  1  0
 11 12  1  0
 12 13  1  0
 13 14  2  0
 13 15  1  0
 15 16  2  0
 12 17  1  0
 17 18  2  0
 18 19  1  0
 19 20  2  0
 20 21  1  0
 21 22  1  0
 21 23  1  0
 20 24  1  0
 24 25  1  0
 24 26  2  0
 11 27  1  0
 27 28  2  0
 28 29  1  0
 29 30  2  0
 30 31  1  0
 31 32  2  0
  7 33  2  0
 33  3  1  0
 26 17  1  0
 32 27  1  0
M  END
