CVD-0003264|dock_bobby27042020.45|mol2|45|dock3
     RDKit          3D

 36 36  0  0  0  0  0  0  0  0999 V2000
    5.9980   -6.3726   21.6577 C   0  0  0  0  0  0  0  0  0  0  0  0
    6.4147   -5.5137   22.8153 C   0  0  0  0  0  0  0  0  0  0  0  0
    5.6337   -4.7454   23.3677 O   0  0  0  0  0  0  0  0  0  0  0  0
    7.6826   -5.6476   23.2193 N   0  0  0  0  0  0  0  0  0  0  0  0
    8.2122   -4.8886   24.3403 C   0  0  0  0  0  0  0  0  0  0  0  0
    9.5993   -5.4037   24.7164 C   0  0  0  0  0  0  0  0  0  0  0  0
    9.5579   -6.7833   25.0591 O   0  0  0  0  0  0  0  0  0  0  0  0
    8.2959   -3.4034   24.0003 C   0  0  0  0  0  0  0  0  0  0  0  0
    7.9328   -2.5578   24.8137 O   0  0  0  0  0  0  0  0  0  0  0  0
    8.7765   -3.0917   22.7933 N   0  0  0  0  0  0  0  0  0  0  0  0
    8.9038   -1.7113   22.3556 C   0  0  0  0  0  0  0  0  0  0  0  0
    7.5164   -1.0637   22.2302 C   0  0  0  0  0  0  0  0  0  0  0  0
    6.9253   -1.1831   20.8465 C   0  0  0  0  0  0  0  0  0  0  0  0
    6.4573   -2.4012   20.3785 C   0  0  0  0  0  0  0  0  0  0  0  0
    5.9119   -2.5103   19.1102 C   0  0  0  0  0  0  0  0  0  0  0  0
    5.8273   -1.4019   18.2953 C   0  0  0  0  0  0  0  0  0  0  0  0
    6.2876   -0.1846   18.7489 C   0  0  0  0  0  0  0  0  0  0  0  0
    6.8330   -0.0760   20.0173 C   0  0  0  0  0  0  0  0  0  0  0  0
    9.7591   -0.9098   23.3325 C   0  0  0  0  0  0  0  0  0  0  0  0
   10.0492   -1.3742   24.4318 O   0  0  0  0  0  0  0  0  0  0  0  0
   10.1586    0.2945   22.9245 N   0  0  0  0  0  0  0  0  0  0  0  0
   10.9734    1.1421   23.7677 C   0  0  0  0  0  0  0  0  0  0  0  0
   11.1720    2.5336   23.1984 C   0  0  0  0  0  0  0  0  0  0  0  0
   10.6390    2.8653   22.1441 O   0  0  0  0  0  0  0  0  0  0  0  0
   11.9431    3.3557   23.9132 N   0  0  0  0  0  0  0  0  0  0  0  0
   12.1967    4.7245   23.4941 C   0  0  0  0  0  0  0  0  0  0  0  0
   12.1684    5.6579   24.7084 C   0  0  0  0  0  0  0  0  0  0  0  0
   10.7872    5.8873   25.3080 C   0  0  0  0  0  0  0  0  0  0  0  0
   10.8414    6.8192   26.5022 C   0  0  0  0  0  0  0  0  0  0  0  0
   11.6621    7.9939   26.2450 N   0  0  0  0  0  0  0  0  0  0  0  0
   12.9442    8.0855   26.6371 C   0  0  0  0  0  0  0  0  0  0  0  0
   13.5752    9.2193   26.3341 N   0  0  0  0  0  0  0  0  0  0  0  0
   13.4934    7.1569   27.2457 O   0  0  0  0  0  0  0  0  0  0  0  0
   13.5379    4.7850   22.7658 C   0  0  0  0  0  0  0  0  0  0  0  0
   13.5296    4.5264   21.4679 N   0  0  0  0  0  0  0  0  0  0  0  0
   14.5674    5.0584   23.3867 O   0  0  0  0  0  0  0  0  0  0  0  0
  1  2  1  0
  2  3  2  0
  2  4  1  0
  4  5  1  0
  5  6  1  0
  6  7  1  0
  5  8  1  0
  8  9  2  0
  8 10  1  0
 10 11  1  0
 11 12  1  0
 12 13  1  0
 13 14  2  0
 14 15  1  0
 15 16  2  0
 16 17  1  0
 17 18  2  0
 11 19  1  0
 19 20  2  0
 19 21  1  0
 21 22  1  0
 22 23  1  0
 23 24  2  0
 23 25  1  0
 25 26  1  0
 26 27  1  0
 27 28  1  0
 28 29  1  0
 29 30  1  0
 30 31  1  0
 31 32  1  0
 31 33  2  0
 26 34  1  0
 34 35  1  0
 34 36  2  0
 18 13  1  0
M  END
