CVD-0003528|dock_bobby27042020.59|mol2|30|dock2
     RDKit          3D

 11 11  0  0  0  0  0  0  0  0999 V2000
   12.2499    4.2713   22.2984 C   0  0  0  0  0  0  0  0  0  0  0  0
   11.9985    2.8236   22.6132 C   0  0  0  0  0  0  0  0  0  0  0  0
   12.9621    1.9821   22.9257 C   0  0  0  0  0  0  0  0  0  0  0  0
   12.7679    0.5232   23.2008 C   0  0  0  0  0  0  0  0  0  0  0  0
   11.4386    0.0452   22.6569 C   0  0  0  0  0  0  0  0  0  0  0  0
   10.3344    0.9975   23.1366 C   0  0  0  0  0  0  0  0  0  0  0  0
   10.5741    2.3983   22.6130 C   0  0  0  0  0  0  0  0  0  0  0  0
   11.1267   -1.4469   22.9152 C   0  0  0  0  0  0  0  0  0  0  0  0
   12.3330   -2.3311   22.6366 C   0  0  0  0  0  0  0  0  0  0  0  0
   10.6415   -1.6662   24.3403 C   0  0  0  0  0  0  0  0  0  0  0  0
   10.0675   -1.8511   22.0261 O   0  0  0  0  0  0  0  0  0  0  0  0
  1  2  1  0
  2  3  2  0
  3  4  1  0
  4  5  1  0
  5  6  1  0
  6  7  1  0
  5  8  1  0
  8  9  1  0
  8 10  1  0
  8 11  1  0
  7  2  1  0
M  END
