CVD-0001071|dock_bobby27042020.10|mol2|47|dock1
     RDKit          3D

 20 22  0  0  0  0  0  0  0  0999 V2000
   13.7210   -2.2752   20.9343 O   0  0  0  0  0  0  0  0  0  0  0  0
   12.9113   -1.9179   21.7971 C   0  0  0  0  0  0  0  0  0  0  0  0
   11.5393   -1.5593   21.3786 C   0  0  0  0  0  0  0  0  0  0  0  0
   10.4914   -1.3931   22.1842 C   0  0  0  0  0  0  0  0  0  0  0  0
    9.1406   -1.0323   21.7478 C   0  0  0  0  0  0  0  0  0  0  0  0
    8.0453   -1.1791   22.5941 C   0  0  0  0  0  0  0  0  0  0  0  0
    6.8157   -0.8712   22.2529 N   0  0  0  0  0  0  0  0  0  0  0  0
    6.6427   -0.3819   20.9861 C   0  0  0  0  0  0  0  0  0  0  0  0
    5.3519   -0.0243   20.5341 C   0  0  0  0  0  0  0  0  0  0  0  0
    5.1835    0.4629   19.2712 C   0  0  0  0  0  0  0  0  0  0  0  0
    6.2585    0.6151   18.4180 C   0  0  0  0  0  0  0  0  0  0  0  0
    7.5216    0.2830   18.8119 C   0  0  0  0  0  0  0  0  0  0  0  0
    7.7449   -0.2260   20.1118 C   0  0  0  0  0  0  0  0  0  0  0  0
    9.0096   -0.5614   20.5141 N   0  0  0  0  0  0  0  0  0  0  0  0
   13.4136   -1.8736   23.2152 C   0  0  0  0  0  0  0  0  0  0  0  0
   13.1716   -0.7253   23.9590 C   0  0  0  0  0  0  0  0  0  0  0  0
   13.6213   -0.6719   25.2669 C   0  0  0  0  0  0  0  0  0  0  0  0
   14.2927   -1.7489   25.8014 C   0  0  0  0  0  0  0  0  0  0  0  0
   14.4889   -2.8484   24.9983 C   0  0  0  0  0  0  0  0  0  0  0  0
   14.0647   -2.9283   23.7301 N   0  0  0  0  0  0  0  0  0  0  0  0
  1  2  2  0
  2  3  1  0
  3  4  2  0
  4  5  1  0
  5  6  2  0
  6  7  1  0
  7  8  2  0
  8  9  1  0
  9 10  2  0
 10 11  1  0
 11 12  2  0
 12 13  1  0
 13 14  2  0
  2 15  1  0
 15 16  2  0
 16 17  1  0
 17 18  2  0
 18 19  1  0
 19 20  2  0
 14  5  1  0
 20 15  1  0
 13  8  1  0
M  END
