CVD-0001463|dock_bobby27042020.67|mol2|6|dock3
     RDKit          3D

 24 26  0  0  0  0  0  0  0  0999 V2000
    4.6691    2.1110   18.3994 N   0  0  0  0  0  0  0  0  0  0  0  0
    5.3766    1.0465   18.0554 C   0  0  0  0  0  0  0  0  0  0  0  0
    6.1101    1.0265   17.0627 O   0  0  0  0  0  0  0  0  0  0  0  0
    5.2376   -0.1787   18.9373 C   0  0  0  0  0  0  0  0  0  0  0  0
    6.5360   -0.6236   19.5408 C   0  0  0  0  0  0  0  0  0  0  0  0
    7.7330   -0.7614   18.9010 C   0  0  0  0  0  0  0  0  0  0  0  0
    8.6958   -1.1884   19.7748 N   0  0  0  0  0  0  0  0  0  0  0  0
    8.1250   -1.3354   21.0150 C   0  0  0  0  0  0  0  0  0  0  0  0
    8.7066   -1.7466   22.2177 C   0  0  0  0  0  0  0  0  0  0  0  0
   10.1673   -2.1181   22.3146 C   0  0  0  0  0  0  0  0  0  0  0  0
   10.9754   -1.0758   22.9625 N   0  0  0  0  0  0  0  0  0  0  0  0
   10.5925    0.2504   22.4693 C   0  0  0  0  0  0  0  0  0  0  0  0
   11.4011    1.3255   23.1714 C   0  0  0  0  0  0  0  0  0  0  0  0
   12.8341    1.1038   22.9662 N   0  0  0  0  0  0  0  0  0  0  0  0
   13.2383   -0.2388   23.3951 C   0  0  0  0  0  0  0  0  0  0  0  0
   12.3955   -1.2910   22.6976 C   0  0  0  0  0  0  0  0  0  0  0  0
   13.6588    2.0522   22.4680 C   0  0  0  0  0  0  0  0  0  0  0  0
   14.8653    1.8414   22.3553 O   0  0  0  0  0  0  0  0  0  0  0  0
   13.0849    3.3637   22.0546 C   0  0  0  0  0  0  0  0  0  0  0  0
   13.4195    4.4669   22.6700 C   0  0  0  0  0  0  0  0  0  0  0  0
    7.8796   -1.8073   23.3360 C   0  0  0  0  0  0  0  0  0  0  0  0
    6.5361   -1.4710   23.2563 C   0  0  0  0  0  0  0  0  0  0  0  0
    5.9747   -1.0639   22.0553 C   0  0  0  0  0  0  0  0  0  0  0  0
    6.7654   -0.9898   20.9094 C   0  0  0  0  0  0  0  0  0  0  0  0
  1  2  1  0
  2  3  2  0
  2  4  1  0
  4  5  1  0
  5  6  2  0
  6  7  1  0
  7  8  1  0
  8  9  2  0
  9 10  1  0
 10 11  1  0
 11 12  1  0
 12 13  1  0
 13 14  1  0
 14 15  1  0
 15 16  1  0
 14 17  1  0
 17 18  2  0
 17 19  1  0
 19 20  2  0
  9 21  1  0
 21 22  2  0
 22 23  1  0
 23 24  2  0
 24  5  1  0
 24  8  1  0
 16 11  1  0
M  END
