CVD-0001436|dock_bobby27042020.67|mol2|10|dock1
     RDKit          3D

 19 20  0  0  0  0  0  0  0  0999 V2000
   14.6234   -1.7966   26.0618 C   0  0  0  0  0  0  0  0  0  0  0  0
   14.0408   -2.4101   25.0659 C   0  0  0  0  0  0  0  0  0  0  0  0
   13.7277   -1.6877   23.8006 C   0  0  0  0  0  0  0  0  0  0  0  0
   14.5321   -0.8758   23.3463 O   0  0  0  0  0  0  0  0  0  0  0  0
   12.5596   -1.9245   23.1593 N   0  0  0  0  0  0  0  0  0  0  0  0
   11.4561   -2.7336   23.6699 C   0  0  0  0  0  0  0  0  0  0  0  0
   10.1430   -2.0077   23.4616 C   0  0  0  0  0  0  0  0  0  0  0  0
    9.9378   -1.6843   21.9869 C   0  0  0  0  0  0  0  0  0  0  0  0
   11.1319   -0.8860   21.4685 C   0  0  0  0  0  0  0  0  0  0  0  0
   12.4339   -1.6341   21.7351 C   0  0  0  0  0  0  0  0  0  0  0  0
    8.6442   -0.9234   21.7743 C   0  0  0  0  0  0  0  0  0  0  0  0
    8.0189   -0.4985   22.7412 O   0  0  0  0  0  0  0  0  0  0  0  0
    8.2756   -0.7758   20.4770 N   0  0  0  0  0  0  0  0  0  0  0  0
    7.1522   -0.1408   19.8900 C   0  0  0  0  0  0  0  0  0  0  0  0
    5.9933   -0.0396   20.6513 C   0  0  0  0  0  0  0  0  0  0  0  0
    4.8623    0.5698   20.1351 C   0  0  0  0  0  0  0  0  0  0  0  0
    4.8728    1.0842   18.8577 C   0  0  0  0  0  0  0  0  0  0  0  0
    6.0150    0.9900   18.0934 C   0  0  0  0  0  0  0  0  0  0  0  0
    7.1527    0.3824   18.5987 C   0  0  0  0  0  0  0  0  0  0  0  0
  1  2  2  0
  2  3  1  0
  3  4  2  0
  3  5  1  0
  5  6  1  0
  6  7  1  0
  7  8  1  0
  8  9  1  0
  9 10  1  0
  8 11  1  0
 11 12  2  0
 11 13  1  0
 13 14  1  0
 14 15  2  0
 15 16  1  0
 16 17  2  0
 17 18  1  0
 18 19  2  0
 10  5  1  0
 19 14  1  0
M  END
