CVD-0000505|dock_bobby27042020.27|mol2|3|dock3
     RDKit          3D

 37 39  0  0  0  0  0  0  0  0999 V2000
    7.2649   -0.1501   18.4071 C   0  0  0  0  0  0  0  0  0  0  0  0
    6.0618    0.6355   18.8579 C   0  0  0  0  0  0  0  0  0  0  0  0
    5.5573    1.6541   18.0521 C   0  0  0  0  0  0  0  0  0  0  0  0
    4.4504    2.3936   18.4294 C   0  0  0  0  0  0  0  0  0  0  0  0
    3.8451    2.1529   19.6495 C   0  0  0  0  0  0  0  0  0  0  0  0
    4.3556    1.1678   20.4771 C   0  0  0  0  0  0  0  0  0  0  0  0
    3.6206    1.0136   22.0406 Cl  0  0  0  0  0  0  0  0  0  0  0  0
    5.4256    0.3563   20.0717 C   0  0  0  0  0  0  0  0  0  0  0  0
    5.9393   -0.7570   20.8192 N   0  0  0  0  0  0  0  0  0  0  0  0
    6.1763   -0.7581   22.1718 C   0  0  0  0  0  0  0  0  0  0  0  0
    5.9831    0.1890   22.9290 O   0  0  0  0  0  0  0  0  0  0  0  0
    6.6449   -1.9427   22.6218 N   0  0  0  0  0  0  0  0  0  0  0  0
    7.0203   -2.1102   24.0162 C   0  0  0  0  0  0  0  0  0  0  0  0
    7.5168   -3.5428   24.2643 C   0  0  0  0  0  0  0  0  0  0  0  0
    6.4914   -4.5968   23.9242 C   0  0  0  0  0  0  0  0  0  0  0  0
    5.4883   -4.9275   24.8218 C   0  0  0  0  0  0  0  0  0  0  0  0
    4.5433   -5.8904   24.5154 C   0  0  0  0  0  0  0  0  0  0  0  0
    4.5914   -6.5399   23.2925 C   0  0  0  0  0  0  0  0  0  0  0  0
    3.6627   -7.4907   22.9838 O   0  0  0  0  0  0  0  0  0  0  0  0
    5.5876   -6.2188   22.3845 C   0  0  0  0  0  0  0  0  0  0  0  0
    6.5262   -5.2539   22.7042 C   0  0  0  0  0  0  0  0  0  0  0  0
    8.1075   -1.1140   24.4082 C   0  0  0  0  0  0  0  0  0  0  0  0
    8.1626   -0.6720   25.5528 O   0  0  0  0  0  0  0  0  0  0  0  0
    8.9717   -0.7636   23.4514 N   0  0  0  0  0  0  0  0  0  0  0  0
   10.0660    0.1791   23.6698 C   0  0  0  0  0  0  0  0  0  0  0  0
    9.7810    1.4789   22.9106 C   0  0  0  0  0  0  0  0  0  0  0  0
    8.4124    1.9856   23.0551 N   0  0  0  0  0  0  0  0  0  0  0  0
    7.9822    2.9224   21.6890 S   0  0  0  0  0  0  0  0  0  0  0  0
    6.5045    3.3060   21.7907 N   0  0  0  0  0  0  0  0  0  0  0  0
    8.7762    4.1692   21.7176 O   0  0  0  0  0  0  0  0  0  0  0  0
    8.1499    2.0827   20.4838 O   0  0  0  0  0  0  0  0  0  0  0  0
   11.3943   -0.4122   23.2408 C   0  0  0  0  0  0  0  0  0  0  0  0
   11.5321   -1.0234   22.0024 C   0  0  0  0  0  0  0  0  0  0  0  0
   12.7466   -1.5610   21.6100 C   0  0  0  0  0  0  0  0  0  0  0  0
   13.8374   -1.4935   22.4501 C   0  0  0  0  0  0  0  0  0  0  0  0
   13.7151   -0.8884   23.6825 C   0  0  0  0  0  0  0  0  0  0  0  0
   12.5011   -0.3504   24.0760 C   0  0  0  0  0  0  0  0  0  0  0  0
  1  2  1  0
  2  3  2  0
  3  4  1  0
  4  5  2  0
  5  6  1  0
  6  7  1  0
  6  8  2  0
  8  9  1  0
  9 10  1  0
 10 11  2  0
 10 12  1  0
 12 13  1  0
 13 14  1  0
 14 15  1  0
 15 16  2  0
 16 17  1  0
 17 18  2  0
 18 19  1  0
 18 20  1  0
 20 21  2  0
 13 22  1  0
 22 23  2  0
 22 24  1  0
 24 25  1  0
 25 26  1  0
 26 27  1  0
 27 28  1  0
 28 29  1  0
 28 30  2  0
 28 31  2  0
 25 32  1  0
 32 33  2  0
 33 34  1  0
 34 35  2  0
 35 36  1  0
 36 37  2  0
  8  2  1  0
 21 15  1  0
 37 32  1  0
M  END
