CVD-0002617|dock_bobby27042020.5|mol2|8|dock2
     RDKit          3D

 27 29  0  0  0  0  0  0  0  0999 V2000
    5.7916   -2.8043   23.0549 C   0  0  0  0  0  0  0  0  0  0  0  0
    7.2403   -2.3969   22.9876 C   0  0  0  0  0  0  0  0  0  0  0  0
    8.2197   -3.3015   23.3900 C   0  0  0  0  0  0  0  0  0  0  0  0
    9.5606   -2.9667   23.3609 C   0  0  0  0  0  0  0  0  0  0  0  0
    9.9449   -1.7203   22.9017 C   0  0  0  0  0  0  0  0  0  0  0  0
    9.0058   -0.7905   22.4645 C   0  0  0  0  0  0  0  0  0  0  0  0
    9.5029    0.5254   21.9093 C   0  0  0  0  0  0  0  0  0  0  0  0
   10.0206    1.4162   22.9570 N   0  0  0  0  0  0  0  0  0  0  0  0
    9.1359    2.5720   23.1304 C   0  0  0  0  0  0  0  0  0  0  0  0
    9.6529    3.4671   24.2413 C   0  0  0  0  0  0  0  0  0  0  0  0
   11.0163    3.9133   23.9461 N   0  0  0  0  0  0  0  0  0  0  0  0
   11.9145    2.7792   23.7079 C   0  0  0  0  0  0  0  0  0  0  0  0
   11.3592    1.8881   22.6117 C   0  0  0  0  0  0  0  0  0  0  0  0
   11.3733    5.2136   23.9324 C   0  0  0  0  0  0  0  0  0  0  0  0
   10.5724    6.1075   24.1752 O   0  0  0  0  0  0  0  0  0  0  0  0
   12.8228    5.5147   23.6053 C   0  0  0  0  0  0  0  0  0  0  0  0
   13.1828    5.1314   21.9169 Cl  0  0  0  0  0  0  0  0  0  0  0  0
    7.6340   -1.1227   22.5405 C   0  0  0  0  0  0  0  0  0  0  0  0
    6.5624   -0.1318   22.1397 C   0  0  0  0  0  0  0  0  0  0  0  0
    6.1919    0.6900   22.9608 O   0  0  0  0  0  0  0  0  0  0  0  0
    6.0374   -0.1537   20.8986 N   0  0  0  0  0  0  0  0  0  0  0  0
    6.4075   -1.0871   19.8301 C   0  0  0  0  0  0  0  0  0  0  0  0
    6.7852   -0.3370   18.5687 C   0  0  0  0  0  0  0  0  0  0  0  0
    5.7046    0.6514   18.1354 C   0  0  0  0  0  0  0  0  0  0  0  0
    6.0927    1.4353   17.0040 O   0  0  0  0  0  0  0  0  0  0  0  0
    5.3007    1.5263   19.3151 C   0  0  0  0  0  0  0  0  0  0  0  0
    4.9243    0.7161   20.5359 C   0  0  0  0  0  0  0  0  0  0  0  0
  1  2  1  0
  2  3  2  0
  3  4  1  0
  4  5  2  0
  5  6  1  0
  6  7  1  0
  7  8  1  0
  8  9  1  0
  9 10  1  0
 10 11  1  0
 11 12  1  0
 12 13  1  0
 11 14  1  0
 14 15  2  0
 14 16  1  0
 16 17  1  0
  6 18  2  0
 18 19  1  0
 19 20  2  0
 19 21  1  0
 21 22  1  0
 22 23  1  0
 23 24  1  0
 24 25  1  0
 24 26  1  0
 26 27  1  0
 18  2  1  0
 27 21  1  0
 13  8  1  0
M  END
