CVD-0001416|dock_bobby27042020.67|mol2|13|dock1
     RDKit          3D

 44 48  0  0  0  0  0  0  0  0999 V2000
    4.8286   -4.4989   27.9258 C   0  0  0  0  0  0  0  0  0  0  0  0
    5.7711   -3.3030   27.9332 C   0  0  0  0  0  0  0  0  0  0  0  0
    5.2482   -2.2525   27.0741 N   0  0  0  0  0  0  0  0  0  0  0  0
    4.7468   -1.1244   27.5851 C   0  0  0  0  0  0  0  0  0  0  0  0
    4.7228   -0.9045   28.7931 O   0  0  0  0  0  0  0  0  0  0  0  0
    4.2152   -0.1595   26.5558 C   0  0  0  0  0  0  0  0  0  0  0  0
    5.2597    0.3629   25.5416 C   0  0  0  0  0  0  0  0  0  0  0  0
    4.9246    1.8193   26.0182 C   0  0  0  0  0  0  0  0  0  0  0  0
    3.8801    1.2970   27.0324 C   0  0  0  0  0  0  0  0  0  0  0  0
    4.1227    1.5531   28.3508 F   0  0  0  0  0  0  0  0  0  0  0  0
    2.5893    1.6827   26.8093 F   0  0  0  0  0  0  0  0  0  0  0  0
    6.6961   -0.1376   25.5743 C   0  0  0  0  0  0  0  0  0  0  0  0
    7.3382   -0.2851   26.8022 C   0  0  0  0  0  0  0  0  0  0  0  0
    8.6715   -0.6463   26.8691 C   0  0  0  0  0  0  0  0  0  0  0  0
    9.3721   -0.8628   25.6986 C   0  0  0  0  0  0  0  0  0  0  0  0
    8.7752   -0.7279   24.4460 C   0  0  0  0  0  0  0  0  0  0  0  0
    9.5312   -0.9823   23.1654 C   0  0  0  0  0  0  0  0  0  0  0  0
    9.0403   -0.0733   22.0890 C   0  0  0  0  0  0  0  0  0  0  0  0
    7.5872   -0.2654   21.8589 N   0  0  0  0  0  0  0  0  0  0  0  0
    6.7157   -0.3672   23.0428 C   0  0  0  0  0  0  0  0  0  0  0  0
    7.4311   -0.3637   24.3983 C   0  0  0  0  0  0  0  0  0  0  0  0
    7.1571   -0.4202   20.5840 C   0  0  0  0  0  0  0  0  0  0  0  0
    7.9455   -0.3898   19.6472 O   0  0  0  0  0  0  0  0  0  0  0  0
    5.6769   -0.6312   20.3253 C   0  0  0  0  0  0  0  0  0  0  0  0
    5.3414   -0.6734   18.5896 Cl  0  0  0  0  0  0  0  0  0  0  0  0
    9.3887    1.3837   22.3352 C   0  0  0  0  0  0  0  0  0  0  0  0
   10.6628    1.8621   22.0586 C   0  0  0  0  0  0  0  0  0  0  0  0
   10.9042    3.2103   22.3152 C   0  0  0  0  0  0  0  0  0  0  0  0
   12.1605    3.7931   22.0691 N   0  0  0  0  0  0  0  0  0  0  0  0
   12.7052    5.0175   22.3295 C   0  0  0  0  0  0  0  0  0  0  0  0
   13.9630    5.2312   21.9432 N   0  0  0  0  0  0  0  0  0  0  0  0
   12.0458    5.8938   22.9055 O   0  0  0  0  0  0  0  0  0  0  0  0
    9.9540    4.0130   22.8069 N   0  0  0  0  0  0  0  0  0  0  0  0
    8.7722    3.4348   23.0318 C   0  0  0  0  0  0  0  0  0  0  0  0
    8.4223    2.1645   22.8282 N   0  0  0  0  0  0  0  0  0  0  0  0
   11.0490   -0.9687   23.3572 C   0  0  0  0  0  0  0  0  0  0  0  0
   11.6487    0.0836   24.0395 C   0  0  0  0  0  0  0  0  0  0  0  0
   13.0190    0.1273   24.2334 C   0  0  0  0  0  0  0  0  0  0  0  0
   13.8189   -0.8813   23.7441 C   0  0  0  0  0  0  0  0  0  0  0  0
   13.2462   -1.9274   23.0548 C   0  0  0  0  0  0  0  0  0  0  0  0
   11.8760   -1.9678   22.8562 C   0  0  0  0  0  0  0  0  0  0  0  0
    7.1546   -3.7352   27.4593 C   0  0  0  0  0  0  0  0  0  0  0  0
    7.8394   -4.5125   28.2830 N   0  0  0  0  0  0  0  0  0  0  0  0
    7.5883   -3.3676   26.3652 O   0  0  0  0  0  0  0  0  0  0  0  0
  2  1  1  0
  2  3  1  0
  3  4  1  0
  4  5  2  0
  6  4  1  0
  6  7  1  0
  7  8  1  0
  8  9  1  0
  9 10  1  0
  9 11  1  0
  7 12  1  0
 12 13  2  0
 13 14  1  0
 14 15  2  0
 15 16  1  0
 16 17  1  0
 17 18  1  0
 18 19  1  0
 19 20  1  0
 20 21  1  0
 19 22  1  0
 22 23  2  0
 22 24  1  0
 24 25  1  0
 18 26  1  0
 26 27  2  0
 27 28  1  0
 28 29  1  0
 29 30  1  0
 30 31  1  0
 30 32  2  0
 28 33  2  0
 33 34  1  0
 34 35  2  0
 17 36  1  0
 36 37  2  0
 37 38  1  0
 38 39  2  0
 39 40  1  0
 40 41  2  0
  2 42  1  0
 42 43  1  0
 42 44  2  0
  9  6  1  0
 21 12  1  0
 35 26  1  0
 41 36  1  0
 21 16  2  0
M  END
