CVD-0000251|dock_bobby27042020.56|mol2|35|dock2
     RDKit          3D

 23 25  0  0  0  0  0  0  0  0999 V2000
    8.9833   -0.8199   23.8292 O   0  0  0  0  0  0  0  0  0  0  0  0
    9.3803   -0.5183   22.7079 C   0  0  0  0  0  0  0  0  0  0  0  0
    8.6075   -0.8914   21.4665 C   0  0  0  0  0  0  0  0  0  0  0  0
    7.9544    0.3094   20.8065 C   0  0  0  0  0  0  0  0  0  0  0  0
    7.1789   -0.0260   19.5707 C   0  0  0  0  0  0  0  0  0  0  0  0
    5.9054    0.2296   19.1863 C   0  0  0  0  0  0  0  0  0  0  0  0
    5.7571   -0.3189   17.9617 N   0  0  0  0  0  0  0  0  0  0  0  0
    6.8431   -0.8997   17.5493 N   0  0  0  0  0  0  0  0  0  0  0  0
    7.7281   -0.7167   18.5520 N   0  0  0  0  0  0  0  0  0  0  0  0
   10.5138    0.1557   22.5021 N   0  0  0  0  0  0  0  0  0  0  0  0
   11.3897    0.5990   23.5839 C   0  0  0  0  0  0  0  0  0  0  0  0
   12.0781    1.9066   23.1577 C   0  0  0  0  0  0  0  0  0  0  0  0
   11.1396    3.0126   22.9971 N   0  0  0  0  0  0  0  0  0  0  0  0
   11.4206    4.3263   22.9430 C   0  0  0  0  0  0  0  0  0  0  0  0
   10.2396    4.9848   22.7551 C   0  0  0  0  0  0  0  0  0  0  0  0
    9.2797    3.9833   22.6955 C   0  0  0  0  0  0  0  0  0  0  0  0
    9.8122    2.7756   22.8345 N   0  0  0  0  0  0  0  0  0  0  0  0
   12.4280   -0.4508   23.9277 C   0  0  0  0  0  0  0  0  0  0  0  0
   12.8495   -1.3697   22.9767 C   0  0  0  0  0  0  0  0  0  0  0  0
   13.7996   -2.3272   23.2906 C   0  0  0  0  0  0  0  0  0  0  0  0
   14.3400   -2.3770   24.5578 C   0  0  0  0  0  0  0  0  0  0  0  0
   13.9313   -1.4698   25.5117 C   0  0  0  0  0  0  0  0  0  0  0  0
   12.9812   -0.5120   25.1991 C   0  0  0  0  0  0  0  0  0  0  0  0
  1  2  2  0
  2  3  1  0
  3  4  1  0
  4  5  1  0
  5  6  2  0
  6  7  1  0
  7  8  2  0
  8  9  1  0
  2 10  1  0
 10 11  1  0
 11 12  1  0
 12 13  1  0
 13 14  1  0
 14 15  2  0
 15 16  1  0
 16 17  2  0
 11 18  1  0
 18 19  2  0
 19 20  1  0
 20 21  2  0
 21 22  1  0
 22 23  2  0
  9  5  1  0
 17 13  1  0
 23 18  1  0
M  END
