CVD-0000047|dock_bobby27042020.28|mol2|35|dock2
     RDKit          3D

 22 23  0  0  0  0  0  0  0  0999 V2000
    3.2741    2.2570   20.1127 C   0  0  0  0  0  0  0  0  0  0  0  0
    4.3251    1.6444   19.2236 C   0  0  0  0  0  0  0  0  0  0  0  0
    4.5065    2.2305   17.9724 C   0  0  0  0  0  0  0  0  0  0  0  0
    5.4589    1.7465   17.0999 C   0  0  0  0  0  0  0  0  0  0  0  0
    6.2614    0.7126   17.3721 N   0  0  0  0  0  0  0  0  0  0  0  0
    6.0915    0.1506   18.5392 C   0  0  0  0  0  0  0  0  0  0  0  0
    6.9113   -0.8862   18.7714 F   0  0  0  0  0  0  0  0  0  0  0  0
    5.1460    0.5425   19.5258 C   0  0  0  0  0  0  0  0  0  0  0  0
    5.1235   -0.2340   20.7449 N   0  0  0  0  0  0  0  0  0  0  0  0
    6.0298   -1.5129   21.1734 S   0  0  0  0  0  0  0  0  0  0  0  0
    5.9257   -2.4953   20.1354 O   0  0  0  0  0  0  0  0  0  0  0  0
    5.7210   -1.8510   22.5309 O   0  0  0  0  0  0  0  0  0  0  0  0
    7.6981   -0.9600   21.1677 C   0  0  0  0  0  0  0  0  0  0  0  0
    8.6689   -1.7054   21.7241 C   0  0  0  0  0  0  0  0  0  0  0  0
   10.0380   -1.4051   21.7943 N   0  0  0  0  0  0  0  0  0  0  0  0
   10.7329   -0.9237   22.8430 C   0  0  0  0  0  0  0  0  0  0  0  0
   10.2756   -0.6569   23.9504 O   0  0  0  0  0  0  0  0  0  0  0  0
   12.2044   -0.7214   22.5484 C   0  0  0  0  0  0  0  0  0  0  0  0
   12.9533   -0.0749   23.6746 C   0  0  0  0  0  0  0  0  0  0  0  0
   14.0983   -0.9025   23.9640 C   0  0  0  0  0  0  0  0  0  0  0  0
   14.0696   -2.0455   23.2076 C   0  0  0  0  0  0  0  0  0  0  0  0
   12.8954   -2.0409   22.3179 C   0  0  0  0  0  0  0  0  0  0  0  0
  1  2  1  0
  2  3  2  0
  3  4  1  0
  4  5  2  0
  5  6  1  0
  6  7  1  0
  6  8  2  0
  8  9  1  0
  9 10  1  0
 10 11  2  0
 10 12  2  0
 10 13  1  0
 13 14  2  0
 14 15  1  0
 15 16  1  0
 16 17  2  0
 16 18  1  0
 18 19  1  0
 19 20  1  0
 20 21  1  0
 21 22  1  0
  8  2  1  0
 22 18  1  0
M  END
