CVD-0001122|dock_bobby27042020.82|mol2|8|dock1
     RDKit          3D

 23 24  0  0  0  0  0  0  0  0999 V2000
   11.4341    6.4380   25.6379 C   0  0  0  0  0  0  0  0  0  0  0  0
   12.3597    5.7449   24.6816 C   0  0  0  0  0  0  0  0  0  0  0  0
   13.4880    5.3961   25.0153 O   0  0  0  0  0  0  0  0  0  0  0  0
   11.8720    5.5201   23.4588 N   0  0  0  0  0  0  0  0  0  0  0  0
   12.6215    4.8452   22.4078 C   0  0  0  0  0  0  0  0  0  0  0  0
   12.8623    3.3802   22.7172 C   0  0  0  0  0  0  0  0  0  0  0  0
   11.6706    2.5024   22.4638 C   0  0  0  0  0  0  0  0  0  0  0  0
   10.3751    2.9047   22.3170 C   0  0  0  0  0  0  0  0  0  0  0  0
    9.5589    1.8284   22.0998 N   0  0  0  0  0  0  0  0  0  0  0  0
   10.3288    0.6920   22.1017 C   0  0  0  0  0  0  0  0  0  0  0  0
    9.9489   -0.6409   21.9236 C   0  0  0  0  0  0  0  0  0  0  0  0
    8.5063   -1.0333   21.6937 C   0  0  0  0  0  0  0  0  0  0  0  0
    8.0314   -0.7101   20.2886 C   0  0  0  0  0  0  0  0  0  0  0  0
    6.6473   -1.1583   20.0937 N   0  0  0  0  0  0  0  0  0  0  0  0
    5.9957   -1.1069   18.6298 S   0  0  0  0  0  0  0  0  0  0  0  0
    5.0848    0.3837   18.5060 C   0  0  0  0  0  0  0  0  0  0  0  0
    5.0752   -2.1982   18.5422 O   0  0  0  0  0  0  0  0  0  0  0  0
    7.0748   -1.0466   17.6927 O   0  0  0  0  0  0  0  0  0  0  0  0
   10.9415   -1.6127   21.9685 C   0  0  0  0  0  0  0  0  0  0  0  0
   12.2442   -1.2262   22.1814 C   0  0  0  0  0  0  0  0  0  0  0  0
   13.1985   -2.1949   22.2182 F   0  0  0  0  0  0  0  0  0  0  0  0
   12.6429    0.0785   22.3595 C   0  0  0  0  0  0  0  0  0  0  0  0
   11.6651    1.0728   22.3237 C   0  0  0  0  0  0  0  0  0  0  0  0
  1  2  1  0
  2  3  2  0
  2  4  1  0
  4  5  1  0
  5  6  1  0
  6  7  1  0
  7  8  2  0
  8  9  1  0
  9 10  1  0
 10 11  2  0
 11 12  1  0
 12 13  1  0
 13 14  1  0
 14 15  1  0
 15 16  1  0
 15 17  2  0
 15 18  2  0
 11 19  1  0
 19 20  2  0
 20 21  1  0
 20 22  1  0
 22 23  2  0
 23  7  1  0
 23 10  1  0
M  END
