CVD-0000510|dock_bobby27042020.55|mol2|40|dock3
     RDKit          3D

 29 30  0  0  0  0  0  0  0  0999 V2000
    4.4491    0.8626   21.0896 C   0  0  0  0  0  0  0  0  0  0  0  0
    5.2784    0.9527   19.8341 C   0  0  0  0  0  0  0  0  0  0  0  0
    4.7123    1.5524   18.7131 C   0  0  0  0  0  0  0  0  0  0  0  0
    5.4344    1.6381   17.5444 C   0  0  0  0  0  0  0  0  0  0  0  0
    6.6744    1.1740   17.4236 N   0  0  0  0  0  0  0  0  0  0  0  0
    7.2353    0.6127   18.4992 C   0  0  0  0  0  0  0  0  0  0  0  0
    6.5929    0.4556   19.7290 C   0  0  0  0  0  0  0  0  0  0  0  0
    7.1704   -0.1631   20.8756 N   0  0  0  0  0  0  0  0  0  0  0  0
    8.4556   -0.0801   21.3615 C   0  0  0  0  0  0  0  0  0  0  0  0
    9.3214    0.5885   20.8138 O   0  0  0  0  0  0  0  0  0  0  0  0
    8.7684   -0.7874   22.5011 N   0  0  0  0  0  0  0  0  0  0  0  0
    7.7785   -1.4516   23.3588 C   0  0  0  0  0  0  0  0  0  0  0  0
    7.3309   -2.8145   22.8570 C   0  0  0  0  0  0  0  0  0  0  0  0
    8.2011   -3.9564   23.3579 C   0  0  0  0  0  0  0  0  0  0  0  0
    7.6297   -5.5635   22.8746 S   0  0  0  0  0  0  0  0  0  0  0  0
    8.4841   -6.5360   23.4866 O   0  0  0  0  0  0  0  0  0  0  0  0
    7.4818   -5.5672   21.4502 O   0  0  0  0  0  0  0  0  0  0  0  0
    6.1633   -5.7731   23.4966 N   0  0  0  0  0  0  0  0  0  0  0  0
    4.9848   -6.0026   22.6522 C   0  0  0  0  0  0  0  0  0  0  0  0
    3.7457   -6.2124   23.4994 C   0  0  0  0  0  0  0  0  0  0  0  0
    2.4854   -6.2302   22.6701 C   0  0  0  0  0  0  0  0  0  0  0  0
    2.3076   -7.2878   21.8943 N   0  0  0  0  0  0  0  0  0  0  0  0
    1.6747   -5.3008   22.7239 O   0  0  0  0  0  0  0  0  0  0  0  0
   10.1706   -0.9439   22.9433 C   0  0  0  0  0  0  0  0  0  0  0  0
   11.0233   -1.4809   21.8175 C   0  0  0  0  0  0  0  0  0  0  0  0
   12.4892   -1.5615   22.2306 C   0  0  0  0  0  0  0  0  0  0  0  0
   13.0006   -0.2270   22.7070 C   0  0  0  0  0  0  0  0  0  0  0  0
   12.1404    0.3255   23.8188 C   0  0  0  0  0  0  0  0  0  0  0  0
   10.6745    0.4042   23.4140 C   0  0  0  0  0  0  0  0  0  0  0  0
  1  2  1  0
  2  3  2  0
  3  4  1  0
  4  5  2  0
  5  6  1  0
  6  7  2  0
  7  8  1  0
  8  9  1  0
  9 10  2  0
  9 11  1  0
 11 12  1  0
 12 13  1  0
 13 14  1  0
 14 15  1  0
 15 16  2  0
 15 17  2  0
 15 18  1  0
 18 19  1  0
 19 20  1  0
 20 21  1  0
 21 22  1  0
 21 23  2  0
 11 24  1  0
 24 25  1  0
 25 26  1  0
 26 27  1  0
 27 28  1  0
 28 29  1  0
  7  2  1  0
 29 24  1  0
M  END
