CVD-0002100|dock_bobby27042020.50|mol2|17|dock2
     RDKit          3D

 23 25  0  0  0  0  0  0  0  0999 V2000
    8.2105   -4.8165   21.2257 N   0  0  0  0  0  0  0  0  0  0  0  0
    8.0824   -4.2180   22.5731 C   0  0  0  0  0  0  0  0  0  0  0  0
    8.2120   -2.7014   22.5585 C   0  0  0  0  0  0  0  0  0  0  0  0
    9.6010   -2.3905   22.6975 O   0  0  0  0  0  0  0  0  0  0  0  0
    9.8206   -0.9723   22.6803 C   0  0  0  0  0  0  0  0  0  0  0  0
    9.5176   -0.4169   21.3150 C   0  0  0  0  0  0  0  0  0  0  0  0
    8.2825   -1.0136   20.6920 C   0  0  0  0  0  0  0  0  0  0  0  0
    7.7480   -0.4958   19.5014 C   0  0  0  0  0  0  0  0  0  0  0  0
    8.2868    0.5972   18.8783 O   0  0  0  0  0  0  0  0  0  0  0  0
    6.5747   -1.0269   18.9657 C   0  0  0  0  0  0  0  0  0  0  0  0
    6.0481   -0.4695   17.8444 O   0  0  0  0  0  0  0  0  0  0  0  0
    5.9227   -2.0725   19.6033 C   0  0  0  0  0  0  0  0  0  0  0  0
    6.4508   -2.5805   20.7752 C   0  0  0  0  0  0  0  0  0  0  0  0
    7.6239   -2.0593   21.3227 C   0  0  0  0  0  0  0  0  0  0  0  0
   11.2715   -0.7391   23.1080 C   0  0  0  0  0  0  0  0  0  0  0  0
   11.3295   -0.7631   24.6388 C   0  0  0  0  0  0  0  0  0  0  0  0
   10.4918    0.2474   25.2021 O   0  0  0  0  0  0  0  0  0  0  0  0
   12.7648   -0.6106   25.1200 C   0  0  0  0  0  0  0  0  0  0  0  0
   13.6511   -1.6965   24.5192 C   0  0  0  0  0  0  0  0  0  0  0  0
   13.6154   -1.6708   23.0015 C   0  0  0  0  0  0  0  0  0  0  0  0
   14.1659   -0.4547   22.4934 O   0  0  0  0  0  0  0  0  0  0  0  0
   12.1841   -1.7845   22.4804 C   0  0  0  0  0  0  0  0  0  0  0  0
   12.2453   -1.6907   21.0605 O   0  0  0  0  0  0  0  0  0  0  0  0
  1  2  1  0
  2  3  1  0
  3  4  1  0
  4  5  1  0
  5  6  1  0
  6  7  1  0
  7  8  2  0
  8  9  1  0
  8 10  1  0
 10 11  1  0
 10 12  2  0
 12 13  1  0
 13 14  2  0
  5 15  1  0
 15 16  1  0
 16 17  1  0
 16 18  1  0
 18 19  1  0
 19 20  1  0
 20 21  1  0
 20 22  1  0
 22 23  1  0
 14  3  1  0
 22 15  1  0
 14  7  1  0
M  END
