CVD-0003392|dock_bobby27042020.2|mol2|15|dock2
     RDKit          3D

 19 21  0  0  0  0  0  0  0  0999 V2000
    8.5446    0.3465   21.7360 O   0  0  0  0  0  0  0  0  0  0  0  0
    9.3683   -0.2490   21.0501 C   0  0  0  0  0  0  0  0  0  0  0  0
   10.6624   -0.5135   21.4297 N   0  0  0  0  0  0  0  0  0  0  0  0
   11.3639   -0.2023   22.6220 C   0  0  0  0  0  0  0  0  0  0  0  0
   12.7535   -0.2053   22.5742 C   0  0  0  0  0  0  0  0  0  0  0  0
   13.4982    0.0900   23.7033 C   0  0  0  0  0  0  0  0  0  0  0  0
   12.8689    0.3911   24.8907 C   0  0  0  0  0  0  0  0  0  0  0  0
   11.4927    0.3973   24.9510 C   0  0  0  0  0  0  0  0  0  0  0  0
   10.7367    0.1036   23.8281 C   0  0  0  0  0  0  0  0  0  0  0  0
    9.0855   -0.7428   19.7701 N   0  0  0  0  0  0  0  0  0  0  0  0
    7.8848   -0.6657   19.0528 C   0  0  0  0  0  0  0  0  0  0  0  0
    7.4441    0.3836   18.2886 C   0  0  0  0  0  0  0  0  0  0  0  0
    6.2494    0.3666   17.6209 N   0  0  0  0  0  0  0  0  0  0  0  0
    5.4917   -0.6947   17.7129 C   0  0  0  0  0  0  0  0  0  0  0  0
    5.8470   -1.8415   18.4766 C   0  0  0  0  0  0  0  0  0  0  0  0
    5.2341   -3.0033   18.6999 N   0  0  0  0  0  0  0  0  0  0  0  0
    6.0877   -3.7005   19.5250 C   0  0  0  0  0  0  0  0  0  0  0  0
    7.2048   -2.9916   19.8094 C   0  0  0  0  0  0  0  0  0  0  0  0
    7.0622   -1.7847   19.1364 N   0  0  0  0  0  0  0  0  0  0  0  0
  1  2  2  0
  2  3  1  0
  3  4  1  0
  4  5  2  0
  5  6  1  0
  6  7  2  0
  7  8  1  0
  8  9  2  0
  2 10  1  0
 10 11  1  0
 11 12  2  0
 12 13  1  0
 13 14  2  0
 14 15  1  0
 15 16  2  0
 16 17  1  0
 17 18  2  0
 18 19  1  0
  9  4  1  0
 19 11  1  0
 19 15  1  0
M  END
