CVD-0003579|dock_bobby27042020.87|mol2|27|dock3
     RDKit          3D

 23 24  0  0  0  0  0  0  0  0999 V2000
   10.0417    0.3823   24.7775 C   0  0  0  0  0  0  0  0  0  0  0  0
   11.1693    0.4461   23.7536 C   0  0  0  0  0  0  0  0  0  0  0  0
   11.7090    1.8094   23.7439 N   0  0  0  0  0  0  0  0  0  0  0  0
   11.3749    2.7158   22.8230 C   0  0  0  0  0  0  0  0  0  0  0  0
   10.5906    2.4935   21.9058 O   0  0  0  0  0  0  0  0  0  0  0  0
   12.0376    4.0641   23.0010 C   0  0  0  0  0  0  0  0  0  0  0  0
   13.7793    4.0050   22.7007 Cl  0  0  0  0  0  0  0  0  0  0  0  0
   12.2705   -0.5587   24.0557 C   0  0  0  0  0  0  0  0  0  0  0  0
   12.9496   -0.5264   25.2751 C   0  0  0  0  0  0  0  0  0  0  0  0
   13.9409   -1.4463   25.5694 C   0  0  0  0  0  0  0  0  0  0  0  0
   14.2739   -2.4109   24.6454 C   0  0  0  0  0  0  0  0  0  0  0  0
   13.6177   -2.4511   23.4276 C   0  0  0  0  0  0  0  0  0  0  0  0
   12.6171   -1.5344   23.1127 C   0  0  0  0  0  0  0  0  0  0  0  0
   11.9296   -1.5983   21.7702 C   0  0  0  0  0  0  0  0  0  0  0  0
   10.5280   -1.9847   21.8485 N   0  0  0  0  0  0  0  0  0  0  0  0
   10.1177   -2.8888   22.7573 C   0  0  0  0  0  0  0  0  0  0  0  0
   10.9026   -3.3852   23.5561 O   0  0  0  0  0  0  0  0  0  0  0  0
    8.8066   -3.2594   22.7890 N   0  0  0  0  0  0  0  0  0  0  0  0
    7.7375   -2.4579   22.1822 C   0  0  0  0  0  0  0  0  0  0  0  0
    6.5733   -2.3379   23.1445 C   0  0  0  0  0  0  0  0  0  0  0  0
    6.0967   -3.6029   23.5569 O   0  0  0  0  0  0  0  0  0  0  0  0
    7.1370   -4.3321   24.2086 C   0  0  0  0  0  0  0  0  0  0  0  0
    8.3162   -4.5485   23.2863 C   0  0  0  0  0  0  0  0  0  0  0  0
  1  2  1  0
  2  3  1  0
  3  4  1  0
  4  5  2  0
  4  6  1  0
  6  7  1  0
  2  8  1  0
  8  9  2  0
  9 10  1  0
 10 11  2  0
 11 12  1  0
 12 13  2  0
 13 14  1  0
 14 15  1  0
 15 16  1  0
 16 17  2  0
 16 18  1  0
 18 19  1  0
 19 20  1  0
 20 21  1  0
 21 22  1  0
 22 23  1  0
 13  8  1  0
 23 18  1  0
M  END
