CVD-0003048|dock_bobby27042020.89|mol2|15|dock1
     RDKit          3D

 31 33  0  0  0  0  0  0  0  0999 V2000
    8.2925   -5.2817   28.1415 F   0  0  0  0  0  0  0  0  0  0  0  0
    9.1547   -5.3780   27.1359 C   0  0  0  0  0  0  0  0  0  0  0  0
    9.0253   -6.6117   26.6612 F   0  0  0  0  0  0  0  0  0  0  0  0
   10.3630   -5.3231   27.6847 F   0  0  0  0  0  0  0  0  0  0  0  0
    8.9449   -4.3299   26.0905 C   0  0  0  0  0  0  0  0  0  0  0  0
    8.9606   -4.6571   24.7408 C   0  0  0  0  0  0  0  0  0  0  0  0
    8.7632   -3.6857   23.7756 C   0  0  0  0  0  0  0  0  0  0  0  0
    8.5450   -2.3625   24.1271 C   0  0  0  0  0  0  0  0  0  0  0  0
    8.3268   -1.3054   23.0719 C   0  0  0  0  0  0  0  0  0  0  0  0
    9.5880   -0.9950   22.2676 C   0  0  0  0  0  0  0  0  0  0  0  0
   10.6451   -0.2143   23.0579 C   0  0  0  0  0  0  0  0  0  0  0  0
   10.8138    1.1540   22.5137 N   0  0  0  0  0  0  0  0  0  0  0  0
   12.1336    1.7059   22.8606 C   0  0  0  0  0  0  0  0  0  0  0  0
   12.3152    3.0768   22.2626 C   0  0  0  0  0  0  0  0  0  0  0  0
   11.2433    3.9776   22.6976 N   0  0  0  0  0  0  0  0  0  0  0  0
    9.9129    3.4328   22.4340 C   0  0  0  0  0  0  0  0  0  0  0  0
    9.7959    2.0590   23.0498 C   0  0  0  0  0  0  0  0  0  0  0  0
   11.3970    5.2372   23.1552 C   0  0  0  0  0  0  0  0  0  0  0  0
   10.4428    5.9188   23.5085 O   0  0  0  0  0  0  0  0  0  0  0  0
   12.8149    5.7707   23.2185 C   0  0  0  0  0  0  0  0  0  0  0  0
   13.5765    5.7735   21.6224 Cl  0  0  0  0  0  0  0  0  0  0  0  0
   11.9378   -1.0052   23.0964 C   0  0  0  0  0  0  0  0  0  0  0  0
   12.5949   -1.2434   24.2962 C   0  0  0  0  0  0  0  0  0  0  0  0
   13.7743   -1.9689   24.3286 C   0  0  0  0  0  0  0  0  0  0  0  0
   14.3143   -2.4688   23.1561 C   0  0  0  0  0  0  0  0  0  0  0  0
   13.6664   -2.2391   21.9472 C   0  0  0  0  0  0  0  0  0  0  0  0
   12.4806   -1.5085   21.9233 C   0  0  0  0  0  0  0  0  0  0  0  0
   14.2166   -2.7542   20.7177 C   0  0  0  0  0  0  0  0  0  0  0  0
   14.6697   -3.1843   19.7615 N   0  0  0  0  0  0  0  0  0  0  0  0
    8.5269   -2.0380   25.4749 C   0  0  0  0  0  0  0  0  0  0  0  0
    8.7235   -3.0052   26.4444 C   0  0  0  0  0  0  0  0  0  0  0  0
  1  2  1  0
  2  3  1  0
  2  4  1  0
  2  5  1  0
  5  6  2  0
  6  7  1  0
  7  8  2  0
  8  9  1  0
  9 10  1  0
 10 11  1  0
 11 12  1  0
 12 13  1  0
 13 14  1  0
 14 15  1  0
 15 16  1  0
 16 17  1  0
 15 18  1  0
 18 19  2  0
 18 20  1  0
 20 21  1  0
 11 22  1  0
 22 23  2  0
 23 24  1  0
 24 25  2  0
 25 26  1  0
 26 27  2  0
 26 28  1  0
 28 29  3  0
  8 30  1  0
 30 31  2  0
 31  5  1  0
 17 12  1  0
 27 22  1  0
M  END
