CVD-0003865|dock_bobby27042020.0|mol2|33|dock1
     RDKit          3D

 26 28  0  0  0  0  0  0  0  0999 V2000
    2.3682    3.3636   19.1018 N   0  0  0  0  0  0  0  0  0  0  0  0
    2.1243    2.3830   20.3436 S   0  0  0  0  0  0  0  0  0  0  0  0
    1.9582    3.2039   21.5052 O   0  0  0  0  0  0  0  0  0  0  0  0
    1.0709    1.4858   19.9742 O   0  0  0  0  0  0  0  0  0  0  0  0
    3.5820    1.4137   20.5863 C   0  0  0  0  0  0  0  0  0  0  0  0
    3.9846    1.0835   21.8680 C   0  0  0  0  0  0  0  0  0  0  0  0
    5.1280    0.3269   22.0526 C   0  0  0  0  0  0  0  0  0  0  0  0
    5.8879   -0.1053   20.9697 C   0  0  0  0  0  0  0  0  0  0  0  0
    5.4654    0.2424   19.6902 C   0  0  0  0  0  0  0  0  0  0  0  0
    4.3209    0.9949   19.4942 C   0  0  0  0  0  0  0  0  0  0  0  0
    7.0359   -0.8624   21.1602 N   0  0  0  0  0  0  0  0  0  0  0  0
    8.2649   -0.6516   20.3892 C   0  0  0  0  0  0  0  0  0  0  0  0
    9.4863   -0.6448   21.2643 C   0  0  0  0  0  0  0  0  0  0  0  0
    9.5851   -1.9381   22.0808 C   0  0  0  0  0  0  0  0  0  0  0  0
   10.8256   -1.9476   22.9749 C   0  0  0  0  0  0  0  0  0  0  0  0
   10.7330   -0.6601   24.2426 S   0  0  0  0  0  0  0  0  0  0  0  0
   11.6517    0.6756   23.5511 C   0  0  0  0  0  0  0  0  0  0  0  0
   13.0077    0.5341   23.2908 C   0  0  0  0  0  0  0  0  0  0  0  0
   13.7294    1.5783   22.7404 C   0  0  0  0  0  0  0  0  0  0  0  0
   13.1021    2.7828   22.4394 C   0  0  0  0  0  0  0  0  0  0  0  0
   11.7425    2.9231   22.6971 C   0  0  0  0  0  0  0  0  0  0  0  0
   11.0248    1.8761   23.2475 C   0  0  0  0  0  0  0  0  0  0  0  0
   13.8525    3.8730   21.8665 C   0  0  0  0  0  0  0  0  0  0  0  0
   14.4187    4.7475   21.3982 N   0  0  0  0  0  0  0  0  0  0  0  0
    8.3070   -2.1169   22.8605 C   0  0  0  0  0  0  0  0  0  0  0  0
    7.0722   -2.0923   21.9851 C   0  0  0  0  0  0  0  0  0  0  0  0
  1  2  1  0
  2  3  2  0
  2  4  2  0
  2  5  1  0
  5  6  2  0
  6  7  1  0
  7  8  2  0
  8  9  1  0
  9 10  2  0
  8 11  1  0
 11 12  1  0
 12 13  1  0
 13 14  1  0
 14 15  1  0
 15 16  1  0
 16 17  1  0
 17 18  2  0
 18 19  1  0
 19 20  2  0
 20 21  1  0
 21 22  2  0
 20 23  1  0
 23 24  3  0
 14 25  1  0
 25 26  1  0
 10  5  1  0
 26 11  1  0
 22 17  1  0
M  END
