CVD-0001126|dock_bobby27042020.96|mol2|20|dock3
     RDKit          3D

 14 15  0  0  0  0  0  0  0  0999 V2000
   13.2413   -2.0018   20.9809 N   0  0  0  0  0  0  0  0  0  0  0  0
   12.9115   -1.7009   22.4998 S   0  0  0  0  0  0  0  0  0  0  0  0
   14.1139   -1.8755   23.2468 O   0  0  0  0  0  0  0  0  0  0  0  0
   11.7475   -2.4488   22.8465 O   0  0  0  0  0  0  0  0  0  0  0  0
   12.4861   -0.0046   22.5853 C   0  0  0  0  0  0  0  0  0  0  0  0
   11.2237    0.4964   22.6214 C   0  0  0  0  0  0  0  0  0  0  0  0
   11.3536    1.9207   22.6936 C   0  0  0  0  0  0  0  0  0  0  0  0
   10.4429    2.9838   22.7538 C   0  0  0  0  0  0  0  0  0  0  0  0
   10.9319    4.2659   22.8165 C   0  0  0  0  0  0  0  0  0  0  0  0
   10.0392    5.2907   22.8747 F   0  0  0  0  0  0  0  0  0  0  0  0
   12.2692    4.5634   22.8236 C   0  0  0  0  0  0  0  0  0  0  0  0
   13.1848    3.5259   22.7647 C   0  0  0  0  0  0  0  0  0  0  0  0
   12.7262    2.2136   22.7001 C   0  0  0  0  0  0  0  0  0  0  0  0
   13.4074    1.0130   22.6343 N   0  0  0  0  0  0  0  0  0  0  0  0
  1  2  1  0
  2  3  2  0
  2  4  2  0
  2  5  1  0
  5  6  2  0
  6  7  1  0
  7  8  2  0
  8  9  1  0
  9 10  1  0
  9 11  2  0
 11 12  1  0
 12 13  2  0
 13 14  1  0
 14  5  1  0
 13  7  1  0
M  END
