CVD-0001475|dock_bobby27042020.95|mol2|14|dock1
     RDKit          3D

 32 34  0  0  0  0  0  0  0  0999 V2000
    8.4838   -5.9768   23.8216 F   0  0  0  0  0  0  0  0  0  0  0  0
    8.3662   -4.8575   23.0715 C   0  0  0  0  0  0  0  0  0  0  0  0
    7.3792   -4.8342   22.1153 C   0  0  0  0  0  0  0  0  0  0  0  0
    7.2377   -3.7027   21.3283 C   0  0  0  0  0  0  0  0  0  0  0  0
    8.0741   -2.6104   21.4942 C   0  0  0  0  0  0  0  0  0  0  0  0
    9.0709   -2.6397   22.4628 C   0  0  0  0  0  0  0  0  0  0  0  0
    9.9546   -1.6175   22.7074 O   0  0  0  0  0  0  0  0  0  0  0  0
   10.2408   -0.6803   21.6598 C   0  0  0  0  0  0  0  0  0  0  0  0
   11.6358   -0.1518   21.8820 C   0  0  0  0  0  0  0  0  0  0  0  0
   11.9105    0.2268   23.3239 C   0  0  0  0  0  0  0  0  0  0  0  0
   11.2949    1.5005   23.6584 N   0  0  0  0  0  0  0  0  0  0  0  0
   11.9178    2.7047   23.5342 C   0  0  0  0  0  0  0  0  0  0  0  0
   11.5172    3.8081   24.2873 C   0  0  0  0  0  0  0  0  0  0  0  0
   12.1911    5.0035   24.1147 C   0  0  0  0  0  0  0  0  0  0  0  0
   13.2400    5.0795   23.2057 C   0  0  0  0  0  0  0  0  0  0  0  0
   13.5649    3.9244   22.5012 C   0  0  0  0  0  0  0  0  0  0  0  0
   12.9240    2.7603   22.6557 N   0  0  0  0  0  0  0  0  0  0  0  0
   13.9644    6.3094   23.0004 C   0  0  0  0  0  0  0  0  0  0  0  0
   14.5137    7.2943   22.8181 N   0  0  0  0  0  0  0  0  0  0  0  0
    9.2285   -3.7795   23.2798 C   0  0  0  0  0  0  0  0  0  0  0  0
   10.5259   -3.7337   24.5064 S   0  0  0  0  0  0  0  0  0  0  0  0
   11.7987   -3.9332   23.8838 O   0  0  0  0  0  0  0  0  0  0  0  0
   10.3275   -2.5749   25.3222 O   0  0  0  0  0  0  0  0  0  0  0  0
   10.3026   -5.0076   25.4717 N   0  0  0  0  0  0  0  0  0  0  0  0
    9.7133   -4.8756   26.8158 C   0  0  0  0  0  0  0  0  0  0  0  0
    8.4199   -4.0210   26.8446 C   0  0  0  0  0  0  0  0  0  0  0  0
    7.6752   -5.2500   27.1003 N   0  0  0  0  0  0  0  0  0  0  0  0
    8.8639   -6.0875   27.2534 C   0  0  0  0  0  0  0  0  0  0  0  0
    6.4402   -5.4434   27.6110 C   0  0  0  0  0  0  0  0  0  0  0  0
    5.8285   -4.5333   28.1679 O   0  0  0  0  0  0  0  0  0  0  0  0
    5.8364   -6.7980   27.4799 C   0  0  0  0  0  0  0  0  0  0  0  0
    4.6745   -7.0756   28.0096 C   0  0  0  0  0  0  0  0  0  0  0  0
  1  2  1  0
  2  3  2  0
  3  4  1  0
  4  5  2  0
  5  6  1  0
  6  7  1  0
  7  8  1  0
  8  9  1  0
  9 10  1  0
 10 11  1  0
 11 12  1  0
 12 13  2  0
 13 14  1  0
 14 15  2  0
 15 16  1  0
 16 17  2  0
 15 18  1  0
 18 19  3  0
  6 20  2  0
 20 21  1  0
 21 22  2  0
 21 23  2  0
 21 24  1  0
 24 25  1  0
 25 26  1  0
 26 27  1  0
 27 28  1  0
 27 29  1  0
 29 30  2  0
 29 31  1  0
 31 32  2  0
 20  2  1  0
 28 25  1  0
 17 12  1  0
M  END
