CVD-0000061|dock_bobby27042020.85|mol2|36|dock2
     RDKit          3D

 19 20  0  0  0  0  0  0  0  0999 V2000
   12.1434    2.7516   22.6783 Cl  0  0  0  0  0  0  0  0  0  0  0  0
   12.3034    1.0175   22.6843 C   0  0  0  0  0  0  0  0  0  0  0  0
   13.5569    0.4561   22.7881 C   0  0  0  0  0  0  0  0  0  0  0  0
   13.6708   -0.9239   22.7912 C   0  0  0  0  0  0  0  0  0  0  0  0
   12.5401   -1.7177   22.6918 C   0  0  0  0  0  0  0  0  0  0  0  0
   11.2810   -1.1475   22.5888 C   0  0  0  0  0  0  0  0  0  0  0  0
   10.0465   -2.0131   22.4767 C   0  0  0  0  0  0  0  0  0  0  0  0
    8.8104   -1.2118   22.1195 C   0  0  0  0  0  0  0  0  0  0  0  0
    8.0102   -0.8794   22.9874 O   0  0  0  0  0  0  0  0  0  0  0  0
    8.7146   -0.9395   20.7941 N   0  0  0  0  0  0  0  0  0  0  0  0
    7.7192   -0.2320   20.0621 C   0  0  0  0  0  0  0  0  0  0  0  0
    6.8818    0.7195   20.6481 C   0  0  0  0  0  0  0  0  0  0  0  0
    5.9377    1.3649   19.8697 C   0  0  0  0  0  0  0  0  0  0  0  0
    5.8502    1.0507   18.5359 C   0  0  0  0  0  0  0  0  0  0  0  0
    6.6319    0.1475   17.9355 N   0  0  0  0  0  0  0  0  0  0  0  0
    7.5560   -0.4898   18.6807 C   0  0  0  0  0  0  0  0  0  0  0  0
    8.3653   -1.4509   17.9736 C   0  0  0  0  0  0  0  0  0  0  0  0
    9.0002   -2.2286   17.3577 C   0  0  0  0  0  0  0  0  0  0  0  0
   11.1699    0.2370   22.5846 C   0  0  0  0  0  0  0  0  0  0  0  0
  1  2  1  0
  2  3  2  0
  3  4  1  0
  4  5  2  0
  5  6  1  0
  6  7  1  0
  7  8  1  0
  8  9  2  0
  8 10  1  0
 10 11  1  0
 11 12  2  0
 12 13  1  0
 13 14  2  0
 14 15  1  0
 15 16  2  0
 16 17  1  0
 17 18  3  0
  6 19  2  0
 19  2  1  0
 16 11  1  0
M  END
