CVD-0003770|dock_bobby27042020.58|mol2|37|dock1
     RDKit          3D

 31 34  0  0  0  0  0  0  0  0999 V2000
    5.3646    1.2983   26.6071 O   0  0  0  0  0  0  0  0  0  0  0  0
    5.6515    2.6138   26.1248 C   0  0  0  0  0  0  0  0  0  0  0  0
    7.0062    3.1304   26.6135 C   0  0  0  0  0  0  0  0  0  0  0  0
    8.1853    2.4039   25.9596 C   0  0  0  0  0  0  0  0  0  0  0  0
    8.0794    2.5301   24.4464 C   0  0  0  0  0  0  0  0  0  0  0  0
    6.7553    1.9802   23.9246 C   0  0  0  0  0  0  0  0  0  0  0  0
    5.5855    2.6915   24.6044 C   0  0  0  0  0  0  0  0  0  0  0  0
    9.2408    1.8803   23.7639 N   0  0  0  0  0  0  0  0  0  0  0  0
   10.3344    2.6354   23.4032 C   0  0  0  0  0  0  0  0  0  0  0  0
   11.3508    2.1507   22.9250 O   0  0  0  0  0  0  0  0  0  0  0  0
   10.3409    4.1427   23.5859 C   0  0  0  0  0  0  0  0  0  0  0  0
   11.6803    4.7639   23.2599 C   0  0  0  0  0  0  0  0  0  0  0  0
   12.2958    4.5518   22.0376 C   0  0  0  0  0  0  0  0  0  0  0  0
   13.5236    5.1335   21.7746 C   0  0  0  0  0  0  0  0  0  0  0  0
   14.1006    5.9140   22.7505 C   0  0  0  0  0  0  0  0  0  0  0  0
   13.5334    6.1360   23.9372 N   0  0  0  0  0  0  0  0  0  0  0  0
   12.3481    5.5636   24.1683 C   0  0  0  0  0  0  0  0  0  0  0  0
    9.2272    0.3876   23.4706 C   0  0  0  0  0  0  0  0  0  0  0  0
    8.9212   -0.4973   24.6784 C   0  0  0  0  0  0  0  0  0  0  0  0
    8.8813   -1.9647   24.2901 C   0  0  0  0  0  0  0  0  0  0  0  0
   10.1643   -2.3972   23.6105 C   0  0  0  0  0  0  0  0  0  0  0  0
   10.4650   -1.5255   22.4026 C   0  0  0  0  0  0  0  0  0  0  0  0
   10.5143   -0.0534   22.7814 C   0  0  0  0  0  0  0  0  0  0  0  0
    8.0912    0.3159   22.5269 C   0  0  0  0  0  0  0  0  0  0  0  0
    7.2255    0.1733   21.7235 C   0  0  0  0  0  0  0  0  0  0  0  0
    6.2138   -0.0445   20.7091 C   0  0  0  0  0  0  0  0  0  0  0  0
    5.5648    1.2857   20.2745 C   0  0  0  0  0  0  0  0  0  0  0  0
    4.5443    1.0977   19.1536 C   0  0  0  0  0  0  0  0  0  0  0  0
    5.1539    0.3641   17.9660 C   0  0  0  0  0  0  0  0  0  0  0  0
    5.7648   -0.9624   18.3944 C   0  0  0  0  0  0  0  0  0  0  0  0
    6.8108   -0.7612   19.4860 C   0  0  0  0  0  0  0  0  0  0  0  0
  1  2  1  0
  2  3  1  0
  3  4  1  0
  4  5  1  0
  5  6  1  0
  6  7  1  0
  5  8  1  0
  8  9  1  0
  9 10  2  0
  9 11  1  0
 11 12  1  0
 12 13  2  0
 13 14  1  0
 14 15  2  0
 15 16  1  0
 16 17  2  0
  8 18  1  0
 18 19  1  0
 19 20  1  0
 20 21  1  0
 21 22  1  0
 22 23  1  0
 18 24  1  0
 24 25  3  0
 25 26  1  0
 26 27  1  0
 27 28  1  0
 28 29  1  0
 29 30  1  0
 30 31  1  0
  7  2  1  0
 17 12  1  0
 23 18  1  0
 31 26  1  0
M  END
