CVD-0000162|dock_bobby27042020.57|mol2|7|dock2
     RDKit          3D

 30 31  0  0  0  0  0  0  0  0999 V2000
    8.2480    6.6652   26.0857 C   0  0  0  0  0  0  0  0  0  0  0  0
    9.6661    6.5258   26.0303 O   0  0  0  0  0  0  0  0  0  0  0  0
   10.2054    5.6497   25.1283 C   0  0  0  0  0  0  0  0  0  0  0  0
    9.5893    4.5004   24.6621 C   0  0  0  0  0  0  0  0  0  0  0  0
   10.2338    3.6788   23.7426 C   0  0  0  0  0  0  0  0  0  0  0  0
    9.5488    2.5137   23.3161 N   0  0  0  0  0  0  0  0  0  0  0  0
    9.9981    1.2691   23.0182 C   0  0  0  0  0  0  0  0  0  0  0  0
   11.1619    0.8750   23.0601 O   0  0  0  0  0  0  0  0  0  0  0  0
    8.8583    0.3328   22.5968 C   0  0  0  0  0  0  0  0  0  0  0  0
    7.7265    0.7641   22.3860 O   0  0  0  0  0  0  0  0  0  0  0  0
    9.2694   -0.9561   22.5007 N   0  0  0  0  0  0  0  0  0  0  0  0
    8.5702   -2.1377   22.1497 C   0  0  0  0  0  0  0  0  0  0  0  0
    7.5362   -2.1531   21.2141 C   0  0  0  0  0  0  0  0  0  0  0  0
    6.8878   -3.3407   20.9104 C   0  0  0  0  0  0  0  0  0  0  0  0
    5.8487   -3.4636   20.0276 O   0  0  0  0  0  0  0  0  0  0  0  0
    5.6355   -2.4390   19.0589 C   0  0  0  0  0  0  0  0  0  0  0  0
    7.2821   -4.5388   21.5294 C   0  0  0  0  0  0  0  0  0  0  0  0
    6.6710   -5.7386   21.2258 O   0  0  0  0  0  0  0  0  0  0  0  0
    5.5041   -6.0454   21.9878 C   0  0  0  0  0  0  0  0  0  0  0  0
    8.3157   -4.5112   22.4769 C   0  0  0  0  0  0  0  0  0  0  0  0
    8.6085   -5.7265   23.0333 O   0  0  0  0  0  0  0  0  0  0  0  0
    9.3273   -5.7606   24.2644 C   0  0  0  0  0  0  0  0  0  0  0  0
    8.9506   -3.3183   22.7801 C   0  0  0  0  0  0  0  0  0  0  0  0
   11.5043    4.0197   23.2791 C   0  0  0  0  0  0  0  0  0  0  0  0
   12.1259    5.1734   23.7326 C   0  0  0  0  0  0  0  0  0  0  0  0
   13.3576    5.6119   23.3268 O   0  0  0  0  0  0  0  0  0  0  0  0
   13.8041    5.3056   22.0076 C   0  0  0  0  0  0  0  0  0  0  0  0
   11.4873    5.9952   24.6763 C   0  0  0  0  0  0  0  0  0  0  0  0
   12.0949    7.1349   25.1636 O   0  0  0  0  0  0  0  0  0  0  0  0
   12.7669    6.9877   26.4138 C   0  0  0  0  0  0  0  0  0  0  0  0
  1  2  1  0
  2  3  1  0
  3  4  2  0
  4  5  1  0
  5  6  1  0
  6  7  1  0
  7  8  2  0
  7  9  1  0
  9 10  2  0
  9 11  1  0
 11 12  1  0
 12 13  2  0
 13 14  1  0
 14 15  1  0
 15 16  1  0
 14 17  2  0
 17 18  1  0
 18 19  1  0
 17 20  1  0
 20 21  1  0
 21 22  1  0
 20 23  2  0
  5 24  2  0
 24 25  1  0
 25 26  1  0
 26 27  1  0
 25 28  2  0
 28 29  1  0
 29 30  1  0
 28  3  1  0
 23 12  1  0
M  END
