CVD-0000707|dock_bobby27042020.40|mol2|37|dock1
     RDKit          3D

 17 18  0  0  0  0  0  0  0  0999 V2000
   13.8335   -2.8451   25.8887 Cl  0  0  0  0  0  0  0  0  0  0  0  0
   13.0026   -1.6841   24.8918 C   0  0  0  0  0  0  0  0  0  0  0  0
   13.0345   -0.3438   25.2094 C   0  0  0  0  0  0  0  0  0  0  0  0
   12.4077    0.5715   24.4645 N   0  0  0  0  0  0  0  0  0  0  0  0
   11.7382    0.1505   23.3873 C   0  0  0  0  0  0  0  0  0  0  0  0
   11.6508   -1.1717   22.9941 C   0  0  0  0  0  0  0  0  0  0  0  0
   10.8797   -1.5865   21.7614 C   0  0  0  0  0  0  0  0  0  0  0  0
    9.5593   -0.8533   21.6330 C   0  0  0  0  0  0  0  0  0  0  0  0
    9.0310   -0.3294   22.6082 O   0  0  0  0  0  0  0  0  0  0  0  0
    9.0574   -0.8560   20.3744 N   0  0  0  0  0  0  0  0  0  0  0  0
    7.8665   -0.3000   19.8452 C   0  0  0  0  0  0  0  0  0  0  0  0
    6.7995    0.1343   20.6250 C   0  0  0  0  0  0  0  0  0  0  0  0
    5.6801    0.6631   20.0056 C   0  0  0  0  0  0  0  0  0  0  0  0
    5.6570    0.7436   18.6323 C   0  0  0  0  0  0  0  0  0  0  0  0
    6.6635    0.3359   17.8595 N   0  0  0  0  0  0  0  0  0  0  0  0
    7.7392   -0.1730   18.4668 C   0  0  0  0  0  0  0  0  0  0  0  0
   12.3088   -2.1089   23.7784 C   0  0  0  0  0  0  0  0  0  0  0  0
  1  2  1  0
  2  3  2  0
  3  4  1  0
  4  5  2  0
  5  6  1  0
  6  7  1  0
  7  8  1  0
  8  9  2  0
  8 10  1  0
 10 11  1  0
 11 12  2  0
 12 13  1  0
 13 14  2  0
 14 15  1  0
 15 16  2  0
  6 17  2  0
 17  2  1  0
 16 11  1  0
M  END
