CVD-0003956|dock_bobby27042020.72|mol2|15|dock1
     RDKit          3D

 18 19  0  0  0  0  0  0  0  0999 V2000
    9.1229   -2.8117   22.1786 C   0  0  0  0  0  0  0  0  0  0  0  0
   10.2935   -2.0821   22.7693 C   0  0  0  0  0  0  0  0  0  0  0  0
   10.4485   -1.9817   23.9824 O   0  0  0  0  0  0  0  0  0  0  0  0
   11.1453   -1.5361   21.8940 N   0  0  0  0  0  0  0  0  0  0  0  0
   12.3194   -0.7858   22.2948 C   0  0  0  0  0  0  0  0  0  0  0  0
   12.9129   -1.2862   23.5348 N   0  0  0  0  0  0  0  0  0  0  0  0
   13.8411   -2.4206   23.4931 C   0  0  0  0  0  0  0  0  0  0  0  0
   13.7777   -3.1425   24.7954 C   0  0  0  0  0  0  0  0  0  0  0  0
   14.0862   -2.2921   25.8892 O   0  0  0  0  0  0  0  0  0  0  0  0
   13.1963   -1.1920   25.9320 C   0  0  0  0  0  0  0  0  0  0  0  0
   13.2244   -0.3979   24.6471 C   0  0  0  0  0  0  0  0  0  0  0  0
   11.9959    0.6893   22.4291 C   0  0  0  0  0  0  0  0  0  0  0  0
   10.6809    1.1296   22.4870 C   0  0  0  0  0  0  0  0  0  0  0  0
   10.3924    2.4782   22.6128 C   0  0  0  0  0  0  0  0  0  0  0  0
   11.4174    3.4064   22.6833 C   0  0  0  0  0  0  0  0  0  0  0  0
   12.7200    2.9617   22.6265 C   0  0  0  0  0  0  0  0  0  0  0  0
   14.0193    4.1177   22.7148 Cl  0  0  0  0  0  0  0  0  0  0  0  0
   13.0209    1.6207   22.5013 C   0  0  0  0  0  0  0  0  0  0  0  0
  1  2  1  0
  2  3  2  0
  2  4  1  0
  4  5  1  0
  5  6  1  0
  6  7  1  0
  7  8  1  0
  8  9  1  0
  9 10  1  0
 10 11  1  0
  5 12  1  0
 12 13  2  0
 13 14  1  0
 14 15  2  0
 15 16  1  0
 16 17  1  0
 16 18  2  0
 11  6  1  0
 18 12  1  0
M  END
