CVD-0001894|dock_bobby27042020.8|mol2|10|dock1
     RDKit          3D

 34 36  0  0  0  0  0  0  0  0999 V2000
    5.9791   -5.9432   28.7135 C   0  0  0  0  0  0  0  0  0  0  0  0
    5.8755   -4.5446   28.4532 O   0  0  0  0  0  0  0  0  0  0  0  0
    6.6135   -3.9711   27.4479 C   0  0  0  0  0  0  0  0  0  0  0  0
    6.9799   -2.6461   27.5829 C   0  0  0  0  0  0  0  0  0  0  0  0
    7.7235   -2.0180   26.6002 C   0  0  0  0  0  0  0  0  0  0  0  0
    8.1168   -2.7108   25.4528 C   0  0  0  0  0  0  0  0  0  0  0  0
    8.8805   -2.1038   24.4156 N   0  0  0  0  0  0  0  0  0  0  0  0
    8.8846   -0.8314   23.9417 C   0  0  0  0  0  0  0  0  0  0  0  0
    8.1872    0.0961   24.3423 O   0  0  0  0  0  0  0  0  0  0  0  0
    9.8852   -0.6236   22.7841 C   0  0  0  0  0  0  0  0  0  0  0  0
    9.6154    0.6468   22.0580 N   0  0  0  0  0  0  0  0  0  0  0  0
    8.5565    0.6425   21.1571 C   0  0  0  0  0  0  0  0  0  0  0  0
    8.2672    1.6508   20.5145 O   0  0  0  0  0  0  0  0  0  0  0  0
    7.7293   -0.5751   20.9104 C   0  0  0  0  0  0  0  0  0  0  0  0
    7.2509   -0.8280   19.7207 C   0  0  0  0  0  0  0  0  0  0  0  0
   10.4552    1.7801   22.3297 C   0  0  0  0  0  0  0  0  0  0  0  0
   11.8344    1.7375   22.2040 C   0  0  0  0  0  0  0  0  0  0  0  0
   12.6167    2.8391   22.4976 C   0  0  0  0  0  0  0  0  0  0  0  0
   12.0384    4.0337   22.9375 C   0  0  0  0  0  0  0  0  0  0  0  0
   12.8911    5.1448   23.2698 N   0  0  0  0  0  0  0  0  0  0  0  0
   13.7734    5.7751   22.3016 C   0  0  0  0  0  0  0  0  0  0  0  0
   12.7709    5.7736   24.5749 C   0  0  0  0  0  0  0  0  0  0  0  0
   10.6399    4.1142   23.0383 C   0  0  0  0  0  0  0  0  0  0  0  0
    9.8454    5.3375   23.4194 C   0  0  0  0  0  0  0  0  0  0  0  0
    9.8913    2.9755   22.7514 C   0  0  0  0  0  0  0  0  0  0  0  0
   11.3443   -0.7737   23.2068 C   0  0  0  0  0  0  0  0  0  0  0  0
   12.1904   -1.6452   22.5371 C   0  0  0  0  0  0  0  0  0  0  0  0
   13.5088   -1.7772   22.9365 C   0  0  0  0  0  0  0  0  0  0  0  0
   13.9485   -1.0291   24.0043 C   0  0  0  0  0  0  0  0  0  0  0  0
   13.1646   -0.1815   24.6715 N   0  0  0  0  0  0  0  0  0  0  0  0
   11.8963   -0.0668   24.2662 C   0  0  0  0  0  0  0  0  0  0  0  0
    7.7459   -4.0622   25.3133 C   0  0  0  0  0  0  0  0  0  0  0  0
    8.1143   -4.9012   24.1165 C   0  0  0  0  0  0  0  0  0  0  0  0
    6.9972   -4.6728   26.3158 C   0  0  0  0  0  0  0  0  0  0  0  0
  1  2  1  0
  2  3  1  0
  3  4  2  0
  4  5  1  0
  5  6  2  0
  6  7  1  0
  7  8  1  0
  8  9  2  0
  8 10  1  0
 10 11  1  0
 11 12  1  0
 12 13  2  0
 12 14  1  0
 14 15  2  0
 11 16  1  0
 16 17  2  0
 17 18  1  0
 18 19  2  0
 19 20  1  0
 20 21  1  0
 20 22  1  0
 19 23  1  0
 23 24  1  0
 23 25  2  0
 10 26  1  0
 26 27  2  0
 27 28  1  0
 28 29  2  0
 29 30  1  0
 30 31  2  0
  6 32  1  0
 32 33  1  0
 32 34  2  0
 34  3  1  0
 25 16  1  0
 31 26  1  0
M  END
