CVD-0003129|dock_bobby27042020.74|mol2|44|dock1
     RDKit          3D

 18 20  0  0  0  0  0  0  0  0999 V2000
   13.3369   -2.2893   24.4590 C   0  0  0  0  0  0  0  0  0  0  0  0
   13.0412   -2.1070   23.0056 C   0  0  0  0  0  0  0  0  0  0  0  0
   14.0565   -1.7255   22.1495 N   0  0  0  0  0  0  0  0  0  0  0  0
   13.4805   -1.6652   20.9774 C   0  0  0  0  0  0  0  0  0  0  0  0
   14.0918   -1.3501   19.9349 O   0  0  0  0  0  0  0  0  0  0  0  0
   12.1685   -1.9795   21.0202 N   0  0  0  0  0  0  0  0  0  0  0  0
   11.8620   -2.2610   22.3235 C   0  0  0  0  0  0  0  0  0  0  0  0
   10.5037   -2.6699   22.7818 C   0  0  0  0  0  0  0  0  0  0  0  0
   10.4799   -3.4008   23.7656 O   0  0  0  0  0  0  0  0  0  0  0  0
    9.2990   -2.2827   22.1614 N   0  0  0  0  0  0  0  0  0  0  0  0
    9.1729   -0.8681   21.8054 C   0  0  0  0  0  0  0  0  0  0  0  0
    8.4277   -0.6904   20.5031 C   0  0  0  0  0  0  0  0  0  0  0  0
    7.0114   -1.2256   20.6209 C   0  0  0  0  0  0  0  0  0  0  0  0
    7.0644   -2.6157   21.1658 C   0  0  0  0  0  0  0  0  0  0  0  0
    6.2100   -3.5752   20.9537 N   0  0  0  0  0  0  0  0  0  0  0  0
    6.7953   -4.6847   21.4771 N   0  0  0  0  0  0  0  0  0  0  0  0
    8.0052   -4.4557   22.0188 C   0  0  0  0  0  0  0  0  0  0  0  0
    8.2258   -3.1273   21.8423 C   0  0  0  0  0  0  0  0  0  0  0  0
  1  2  1  0
  2  3  1  0
  3  4  2  0
  4  5  1  0
  4  6  1  0
  6  7  1  0
  7  8  1  0
  8  9  2  0
  8 10  1  0
 10 11  1  0
 11 12  1  0
 12 13  1  0
 13 14  1  0
 14 15  2  0
 15 16  1  0
 16 17  1  0
 17 18  2  0
  7  2  2  0
 18 10  1  0
 18 14  1  0
M  END
