CVD-0002954|dock_bobby27042020.18|mol2|11|dock2
     RDKit          3D

 33 35  0  0  0  0  0  0  0  0999 V2000
    8.4751   -6.7104   22.8402 Cl  0  0  0  0  0  0  0  0  0  0  0  0
    6.7181   -6.6063   22.6694 C   0  0  0  0  0  0  0  0  0  0  0  0
    6.2596   -5.2206   22.2986 C   0  0  0  0  0  0  0  0  0  0  0  0
    5.8417   -4.9348   21.1969 O   0  0  0  0  0  0  0  0  0  0  0  0
    6.3477   -4.1795   23.3928 C   0  0  0  0  0  0  0  0  0  0  0  0
    6.8754   -2.9024   22.9120 N   0  0  0  0  0  0  0  0  0  0  0  0
    6.2503   -2.2549   21.8350 C   0  0  0  0  0  0  0  0  0  0  0  0
    5.1643   -2.6673   21.4517 O   0  0  0  0  0  0  0  0  0  0  0  0
    6.8593   -1.1688   21.2440 N   0  0  0  0  0  0  0  0  0  0  0  0
    6.4346   -0.3468   20.1661 C   0  0  0  0  0  0  0  0  0  0  0  0
    5.1209    0.0668   19.9451 C   0  0  0  0  0  0  0  0  0  0  0  0
    4.8148    0.8731   18.8608 C   0  0  0  0  0  0  0  0  0  0  0  0
    5.7986    1.2760   17.9856 C   0  0  0  0  0  0  0  0  0  0  0  0
    7.0985    0.8724   18.1914 C   0  0  0  0  0  0  0  0  0  0  0  0
    7.4162    0.0675   19.2720 C   0  0  0  0  0  0  0  0  0  0  0  0
    8.0530   -2.4171   23.5890 C   0  0  0  0  0  0  0  0  0  0  0  0
    7.9305   -1.6655   24.7486 C   0  0  0  0  0  0  0  0  0  0  0  0
    8.9781   -1.1863   25.4248 N   0  0  0  0  0  0  0  0  0  0  0  0
   10.1994   -1.4604   24.9610 C   0  0  0  0  0  0  0  0  0  0  0  0
   10.4445   -2.1930   23.8162 C   0  0  0  0  0  0  0  0  0  0  0  0
   11.8460   -2.4769   23.3324 C   0  0  0  0  0  0  0  0  0  0  0  0
   12.1677   -1.7794   22.0229 C   0  0  0  0  0  0  0  0  0  0  0  0
   11.8030   -0.3703   22.0547 N   0  0  0  0  0  0  0  0  0  0  0  0
   12.5678    0.5347   22.6727 C   0  0  0  0  0  0  0  0  0  0  0  0
   13.6079    0.2043   23.2342 O   0  0  0  0  0  0  0  0  0  0  0  0
   12.1558    1.9791   22.6847 C   0  0  0  0  0  0  0  0  0  0  0  0
   10.8067    2.2817   22.8363 C   0  0  0  0  0  0  0  0  0  0  0  0
   10.3709    3.5956   22.8540 C   0  0  0  0  0  0  0  0  0  0  0  0
   11.2777    4.6322   22.7203 C   0  0  0  0  0  0  0  0  0  0  0  0
   12.6126    4.3287   22.5710 C   0  0  0  0  0  0  0  0  0  0  0  0
   13.7628    5.6252   22.4021 Cl  0  0  0  0  0  0  0  0  0  0  0  0
   13.0663    3.0253   22.5511 C   0  0  0  0  0  0  0  0  0  0  0  0
    9.3405   -2.6677   23.1211 C   0  0  0  0  0  0  0  0  0  0  0  0
  1  2  1  0
  2  3  1  0
  3  4  2  0
  3  5  1  0
  5  6  1  0
  6  7  1  0
  7  8  2  0
  7  9  1  0
  9 10  1  0
 10 11  2  0
 11 12  1  0
 12 13  2  0
 13 14  1  0
 14 15  2  0
  6 16  1  0
 16 17  2  0
 17 18  1  0
 18 19  2  0
 19 20  1  0
 20 21  1  0
 21 22  1  0
 22 23  1  0
 23 24  1  0
 24 25  2  0
 24 26  1  0
 26 27  2  0
 27 28  1  0
 28 29  2  0
 29 30  1  0
 30 31  1  0
 30 32  2  0
 20 33  2  0
 15 10  1  0
 33 16  1  0
 32 26  1  0
M  END
