CVD-0000032|dock_bobby27042020.85|mol2|41|dock3
     RDKit          3D

 30 32  0  0  0  0  0  0  0  0999 V2000
   13.6895   -1.7765   23.4952 C   0  0  0  0  0  0  0  0  0  0  0  0
   13.7638   -0.7962   22.3253 C   0  0  0  0  0  0  0  0  0  0  0  0
   13.8599   -1.5769   21.0152 C   0  0  0  0  0  0  0  0  0  0  0  0
   12.5650    0.1203   22.3167 C   0  0  0  0  0  0  0  0  0  0  0  0
   12.6481    1.4286   22.7534 C   0  0  0  0  0  0  0  0  0  0  0  0
   11.4801    2.1575   22.6891 C   0  0  0  0  0  0  0  0  0  0  0  0
   10.3216    1.6609   22.2371 N   0  0  0  0  0  0  0  0  0  0  0  0
   10.3328    0.3845   21.8323 C   0  0  0  0  0  0  0  0  0  0  0  0
   11.4195   -0.4048   21.8571 N   0  0  0  0  0  0  0  0  0  0  0  0
    9.1531   -0.1101   21.3762 N   0  0  0  0  0  0  0  0  0  0  0  0
    9.1124   -1.5489   21.0804 C   0  0  0  0  0  0  0  0  0  0  0  0
    8.4258   -2.3501   22.1599 C   0  0  0  0  0  0  0  0  0  0  0  0
    8.4841   -1.9662   23.4896 C   0  0  0  0  0  0  0  0  0  0  0  0
    7.8331   -2.7402   24.4345 C   0  0  0  0  0  0  0  0  0  0  0  0
    7.1438   -3.8710   24.0331 C   0  0  0  0  0  0  0  0  0  0  0  0
    7.1349   -4.1846   22.6780 C   0  0  0  0  0  0  0  0  0  0  0  0
    7.7634   -3.4415   21.7464 N   0  0  0  0  0  0  0  0  0  0  0  0
    6.4330   -5.3515   22.1976 C   0  0  0  0  0  0  0  0  0  0  0  0
    5.8491   -6.2781   21.7644 C   0  0  0  0  0  0  0  0  0  0  0  0
    7.9916    0.6454   21.1440 C   0  0  0  0  0  0  0  0  0  0  0  0
    8.0452    1.8690   21.1650 O   0  0  0  0  0  0  0  0  0  0  0  0
    6.7975    0.0196   20.8676 N   0  0  0  0  0  0  0  0  0  0  0  0
    5.5687    0.7108   20.5931 C   0  0  0  0  0  0  0  0  0  0  0  0
    5.3280    1.0569   19.2606 C   0  0  0  0  0  0  0  0  0  0  0  0
    6.2807    0.6735   18.1590 C   0  0  0  0  0  0  0  0  0  0  0  0
    4.1763    1.7823   18.9762 C   0  0  0  0  0  0  0  0  0  0  0  0
    3.3366    2.1302   20.0114 C   0  0  0  0  0  0  0  0  0  0  0  0
    3.5576    1.7801   21.2836 N   0  0  0  0  0  0  0  0  0  0  0  0
    4.6215    1.0311   21.5812 C   0  0  0  0  0  0  0  0  0  0  0  0
    4.7066    0.5510   23.0007 C   0  0  0  0  0  0  0  0  0  0  0  0
  1  2  1  0
  2  3  1  0
  2  4  1  0
  4  5  2  0
  5  6  1  0
  6  7  2  0
  7  8  1  0
  8  9  2  0
  8 10  1  0
 10 11  1  0
 11 12  1  0
 12 13  2  0
 13 14  1  0
 14 15  2  0
 15 16  1  0
 16 17  2  0
 16 18  1  0
 18 19  3  0
 10 20  1  0
 20 21  2  0
 20 22  1  0
 22 23  1  0
 23 24  2  0
 24 25  1  0
 24 26  1  0
 26 27  2  0
 27 28  1  0
 28 29  2  0
 29 30  1  0
  9  4  1  0
 17 12  1  0
 29 23  1  0
M  END
