CVD-0003314|dock_bobby27042020.16|mol2|51|dock2
     RDKit          3D

 22 24  0  0  0  0  0  0  0  0999 V2000
   14.0517   -2.3036   25.7287 C   0  0  0  0  0  0  0  0  0  0  0  0
   13.3553   -2.4007   24.4031 C   0  0  0  0  0  0  0  0  0  0  0  0
   12.3834   -3.1298   24.2322 O   0  0  0  0  0  0  0  0  0  0  0  0
   13.8648   -1.6607   23.4163 N   0  0  0  0  0  0  0  0  0  0  0  0
   13.2928   -1.6813   22.0874 C   0  0  0  0  0  0  0  0  0  0  0  0
   11.9475   -0.9988   22.0484 C   0  0  0  0  0  0  0  0  0  0  0  0
   10.7504   -1.5642   21.7200 C   0  0  0  0  0  0  0  0  0  0  0  0
    9.7477   -0.6358   21.7962 N   0  0  0  0  0  0  0  0  0  0  0  0
   10.2928    0.5642   22.1821 C   0  0  0  0  0  0  0  0  0  0  0  0
    9.6716    1.7979   22.3946 C   0  0  0  0  0  0  0  0  0  0  0  0
    8.1832    1.9830   22.2057 C   0  0  0  0  0  0  0  0  0  0  0  0
    7.6987    1.4962   20.8723 C   0  0  0  0  0  0  0  0  0  0  0  0
    8.4582    1.0719   19.9199 N   0  0  0  0  0  0  0  0  0  0  0  0
    7.7382    0.6774   18.7935 N   0  0  0  0  0  0  0  0  0  0  0  0
    6.4629    0.8118   18.9399 C   0  0  0  0  0  0  0  0  0  0  0  0
    5.4647    0.4705   17.8840 C   0  0  0  0  0  0  0  0  0  0  0  0
    6.0046    1.4510   20.4846 S   0  0  0  0  0  0  0  0  0  0  0  0
   10.4710    2.8663   22.7854 C   0  0  0  0  0  0  0  0  0  0  0  0
   11.8228    2.6688   22.9468 C   0  0  0  0  0  0  0  0  0  0  0  0
   12.5807    3.7313   23.3305 F   0  0  0  0  0  0  0  0  0  0  0  0
   12.4564    1.4647   22.7447 C   0  0  0  0  0  0  0  0  0  0  0  0
   11.6769    0.3775   22.3509 C   0  0  0  0  0  0  0  0  0  0  0  0
  1  2  1  0
  2  3  2  0
  2  4  1  0
  4  5  1  0
  5  6  1  0
  6  7  2  0
  7  8  1  0
  8  9  1  0
  9 10  2  0
 10 11  1  0
 11 12  1  0
 12 13  2  0
 13 14  1  0
 14 15  2  0
 15 16  1  0
 15 17  1  0
 10 18  1  0
 18 19  2  0
 19 20  1  0
 19 21  1  0
 21 22  2  0
 22  6  1  0
 22  9  1  0
 17 12  1  0
M  END
