CVD-0001264|dock_bobby27042020.10|mol2|17|dock2
     RDKit          3D

 22 25  0  0  0  0  0  0  0  0999 V2000
    7.5083    2.9277   25.0556 C   0  0  0  0  0  0  0  0  0  0  0  0
    7.6654    1.7585   24.1514 C   0  0  0  0  0  0  0  0  0  0  0  0
    6.7155    0.8752   23.9208 N   0  0  0  0  0  0  0  0  0  0  0  0
    6.9954    0.1726   22.7438 N   0  0  0  0  0  0  0  0  0  0  0  0
    8.1285    0.6672   22.2958 C   0  0  0  0  0  0  0  0  0  0  0  0
    9.0322    0.1119   21.2627 C   0  0  0  0  0  0  0  0  0  0  0  0
   10.1538   -0.5907   21.9027 N   0  0  0  0  0  0  0  0  0  0  0  0
   11.0332    0.1060   22.5165 C   0  0  0  0  0  0  0  0  0  0  0  0
   12.1812   -0.6292   23.1373 C   0  0  0  0  0  0  0  0  0  0  0  0
   12.7538   -0.2488   24.3497 C   0  0  0  0  0  0  0  0  0  0  0  0
   13.8250   -0.9470   24.8818 C   0  0  0  0  0  0  0  0  0  0  0  0
   14.3337   -2.0460   24.2258 C   0  0  0  0  0  0  0  0  0  0  0  0
   13.7697   -2.4486   23.0356 C   0  0  0  0  0  0  0  0  0  0  0  0
   12.7040   -1.7489   22.4946 C   0  0  0  0  0  0  0  0  0  0  0  0
   11.0103    1.5930   22.6584 C   0  0  0  0  0  0  0  0  0  0  0  0
   12.2040    2.3000   22.5001 C   0  0  0  0  0  0  0  0  0  0  0  0
   12.2383    3.6686   22.6567 C   0  0  0  0  0  0  0  0  0  0  0  0
   13.7279    4.5217   22.3624 Cl  0  0  0  0  0  0  0  0  0  0  0  0
   11.1039    4.3787   22.9721 C   0  0  0  0  0  0  0  0  0  0  0  0
    9.9054    3.7063   23.1354 C   0  0  0  0  0  0  0  0  0  0  0  0
    9.8503    2.3228   22.9811 C   0  0  0  0  0  0  0  0  0  0  0  0
    8.5914    1.6608   23.1342 N   0  0  0  0  0  0  0  0  0  0  0  0
  1  2  1  0
  2  3  2  0
  3  4  1  0
  4  5  2  0
  5  6  1  0
  6  7  1  0
  7  8  2  0
  8  9  1  0
  9 10  2  0
 10 11  1  0
 11 12  2  0
 12 13  1  0
 13 14  2  0
  8 15  1  0
 15 16  2  0
 16 17  1  0
 17 18  1  0
 17 19  2  0
 19 20  1  0
 20 21  2  0
 21 22  1  0
 22  2  1  0
 22  5  1  0
 14  9  1  0
 21 15  1  0
M  END
