CVD-0003732|dock_bobby27042020.30|mol2|5|dock2
     RDKit          3D

 26 28  0  0  0  0  0  0  0  0999 V2000
    5.1897    1.6170   18.4946 C   0  0  0  0  0  0  0  0  0  0  0  0
    5.0638    0.1971   18.4453 O   0  0  0  0  0  0  0  0  0  0  0  0
    5.4937   -0.5714   19.4982 C   0  0  0  0  0  0  0  0  0  0  0  0
    5.8630   -1.8810   19.2502 C   0  0  0  0  0  0  0  0  0  0  0  0
    6.2996   -2.6892   20.2845 C   0  0  0  0  0  0  0  0  0  0  0  0
    6.3757   -2.2178   21.5919 C   0  0  0  0  0  0  0  0  0  0  0  0
    6.0062   -0.8960   21.8159 C   0  0  0  0  0  0  0  0  0  0  0  0
    5.5678   -0.0762   20.7909 C   0  0  0  0  0  0  0  0  0  0  0  0
    6.8422   -3.0971   22.7596 C   0  0  0  0  0  0  0  0  0  0  0  0
    8.0929   -2.3024   23.2203 C   0  0  0  0  0  0  0  0  0  0  0  0
    9.1862   -2.0685   22.1984 C   0  0  0  0  0  0  0  0  0  0  0  0
    9.0120   -2.3207   21.0136 O   0  0  0  0  0  0  0  0  0  0  0  0
   10.3669   -1.5697   22.6235 N   0  0  0  0  0  0  0  0  0  0  0  0
   11.5275   -1.2929   21.7812 C   0  0  0  0  0  0  0  0  0  0  0  0
   12.7826   -1.8309   22.4371 C   0  0  0  0  0  0  0  0  0  0  0  0
   12.9647   -1.2249   23.8231 C   0  0  0  0  0  0  0  0  0  0  0  0
   11.7145   -1.4830   24.6612 C   0  0  0  0  0  0  0  0  0  0  0  0
   10.4722   -0.9625   23.9459 C   0  0  0  0  0  0  0  0  0  0  0  0
   14.2010   -1.7887   24.5041 C   0  0  0  0  0  0  0  0  0  0  0  0
   14.5479   -1.2565   25.6653 N   0  0  0  0  0  0  0  0  0  0  0  0
   14.8432   -2.7003   23.9780 O   0  0  0  0  0  0  0  0  0  0  0  0
    7.2736   -4.5085   22.3630 C   0  0  0  0  0  0  0  0  0  0  0  0
    7.7628   -5.2936   23.5671 C   0  0  0  0  0  0  0  0  0  0  0  0
    6.7229   -5.3324   24.6680 C   0  0  0  0  0  0  0  0  0  0  0  0
    6.3003   -3.9295   25.0717 C   0  0  0  0  0  0  0  0  0  0  0  0
    5.8016   -3.1360   23.8739 C   0  0  0  0  0  0  0  0  0  0  0  0
  1  2  1  0
  2  3  1  0
  3  4  2  0
  4  5  1  0
  5  6  2  0
  6  7  1  0
  7  8  2  0
  6  9  1  0
  9 10  1  0
 10 11  1  0
 11 12  2  0
 11 13  1  0
 13 14  1  0
 14 15  1  0
 15 16  1  0
 16 17  1  0
 17 18  1  0
 16 19  1  0
 19 20  1  0
 19 21  2  0
  9 22  1  0
 22 23  1  0
 23 24  1  0
 24 25  1  0
 25 26  1  0
  8  3  1  0
 26  9  1  0
 18 13  1  0
M  END
