CVD-0000536|dock_bobby27042020.84|mol2|4|dock1
     RDKit          3D

 21 23  0  0  0  0  0  0  0  0999 V2000
    7.3976   -1.0036   19.4893 C   0  0  0  0  0  0  0  0  0  0  0  0
    6.9725   -1.7038   20.7546 C   0  0  0  0  0  0  0  0  0  0  0  0
    5.6169   -1.9516   20.9487 C   0  0  0  0  0  0  0  0  0  0  0  0
    5.1957   -2.5920   22.0921 C   0  0  0  0  0  0  0  0  0  0  0  0
    6.0298   -2.9979   23.0446 N   0  0  0  0  0  0  0  0  0  0  0  0
    7.3344   -2.7661   22.8690 C   0  0  0  0  0  0  0  0  0  0  0  0
    7.8737   -2.1269   21.7514 C   0  0  0  0  0  0  0  0  0  0  0  0
    9.2615   -1.8758   21.5530 N   0  0  0  0  0  0  0  0  0  0  0  0
   10.2249   -1.4961   22.4587 C   0  0  0  0  0  0  0  0  0  0  0  0
   10.0308   -1.3014   23.6545 O   0  0  0  0  0  0  0  0  0  0  0  0
   11.4381   -1.3592   21.8664 N   0  0  0  0  0  0  0  0  0  0  0  0
   12.6407   -0.9710   22.5633 C   0  0  0  0  0  0  0  0  0  0  0  0
   13.6375   -2.0651   22.9344 C   0  0  0  0  0  0  0  0  0  0  0  0
   13.9738   -1.1050   21.8346 C   0  0  0  0  0  0  0  0  0  0  0  0
   12.4792    0.1114   23.4609 O   0  0  0  0  0  0  0  0  0  0  0  0
   12.2811    1.4294   23.0035 C   0  0  0  0  0  0  0  0  0  0  0  0
   13.3641    2.2433   22.7198 C   0  0  0  0  0  0  0  0  0  0  0  0
   13.1430    3.5414   22.2903 C   0  0  0  0  0  0  0  0  0  0  0  0
   11.8578    4.0146   22.1329 C   0  0  0  0  0  0  0  0  0  0  0  0
   10.7839    3.1936   22.4025 C   0  0  0  0  0  0  0  0  0  0  0  0
   10.9884    1.8954   22.8391 C   0  0  0  0  0  0  0  0  0  0  0  0
  1  2  1  0
  2  3  2  0
  3  4  1  0
  4  5  2  0
  5  6  1  0
  6  7  2  0
  7  8  1  0
  8  9  1  0
  9 10  2  0
  9 11  1  0
 11 12  1  0
 12 13  1  0
 13 14  1  0
 12 15  1  0
 15 16  1  0
 16 17  2  0
 17 18  1  0
 18 19  2  0
 19 20  1  0
 20 21  2  0
  7  2  1  0
 14 12  1  0
 21 16  1  0
M  END
