CVD-0000293|dock_bobby27042020.27|mol2|35|dock1
     RDKit          3D

 26 28  0  0  0  0  0  0  0  0999 V2000
    5.8356    1.9902   22.1789 C   0  0  0  0  0  0  0  0  0  0  0  0
    6.3286    0.6102   21.7647 C   0  0  0  0  0  0  0  0  0  0  0  0
    7.5788    0.3011   22.4401 N   0  0  0  0  0  0  0  0  0  0  0  0
    8.7304    0.8590   22.0562 C   0  0  0  0  0  0  0  0  0  0  0  0
    8.8093    1.6550   21.1242 O   0  0  0  0  0  0  0  0  0  0  0  0
    9.9780    0.4602   22.8392 C   0  0  0  0  0  0  0  0  0  0  0  0
   10.4527   -0.9283   22.3846 C   0  0  0  0  0  0  0  0  0  0  0  0
   11.6827   -1.4073   23.1164 C   0  0  0  0  0  0  0  0  0  0  0  0
   12.9377   -1.3043   22.5364 C   0  0  0  0  0  0  0  0  0  0  0  0
   14.0669   -1.7407   23.2089 C   0  0  0  0  0  0  0  0  0  0  0  0
   13.9542   -2.2846   24.4703 C   0  0  0  0  0  0  0  0  0  0  0  0
   12.7127   -2.3915   25.0591 C   0  0  0  0  0  0  0  0  0  0  0  0
   11.5837   -1.9550   24.3861 C   0  0  0  0  0  0  0  0  0  0  0  0
   11.0373    1.4386   22.6557 N   0  0  0  0  0  0  0  0  0  0  0  0
   10.8245    2.7468   22.8529 C   0  0  0  0  0  0  0  0  0  0  0  0
    9.7304    3.1914   23.1969 O   0  0  0  0  0  0  0  0  0  0  0  0
   11.9602    3.6546   22.6420 C   0  0  0  0  0  0  0  0  0  0  0  0
   12.0059    4.9917   22.4584 C   0  0  0  0  0  0  0  0  0  0  0  0
   13.3698    5.3368   22.3055 C   0  0  0  0  0  0  0  0  0  0  0  0
   14.0625    4.2112   22.4029 C   0  0  0  0  0  0  0  0  0  0  0  0
   13.2298    3.1451   22.6114 O   0  0  0  0  0  0  0  0  0  0  0  0
    6.5452    0.5571   20.2781 C   0  0  0  0  0  0  0  0  0  0  0  0
    5.9143    1.2137   19.3511 N   0  0  0  0  0  0  0  0  0  0  0  0
    6.5059    0.7984   18.1806 C   0  0  0  0  0  0  0  0  0  0  0  0
    7.4779   -0.0982   18.4551 C   0  0  0  0  0  0  0  0  0  0  0  0
    7.5220   -0.2698   19.8117 O   0  0  0  0  0  0  0  0  0  0  0  0
  1  2  1  0
  2  3  1  0
  3  4  1  0
  4  5  2  0
  4  6  1  0
  6  7  1  0
  7  8  1  0
  8  9  2  0
  9 10  1  0
 10 11  2  0
 11 12  1  0
 12 13  2  0
  6 14  1  0
 14 15  1  0
 15 16  2  0
 15 17  1  0
 17 18  2  0
 18 19  1  0
 19 20  2  0
 20 21  1  0
  2 22  1  0
 22 23  2  0
 23 24  1  0
 24 25  2  0
 25 26  1  0
 13  8  1  0
 21 17  1  0
 26 22  1  0
M  END
