CVD-0002864|dock_bobby27042020.47|mol2|10|dock3
     RDKit          3D

 28 30  0  0  0  0  0  0  0  0999 V2000
    4.7489    1.9901   18.1861 C   0  0  0  0  0  0  0  0  0  0  0  0
    5.3682    0.6337   18.0189 C   0  0  0  0  0  0  0  0  0  0  0  0
    6.0411    0.3440   17.0345 O   0  0  0  0  0  0  0  0  0  0  0  0
    5.1307   -0.2449   18.9948 N   0  0  0  0  0  0  0  0  0  0  0  0
    5.6474   -1.6057   18.9687 C   0  0  0  0  0  0  0  0  0  0  0  0
    6.1526   -2.0448   20.3286 C   0  0  0  0  0  0  0  0  0  0  0  0
    7.4856   -1.4515   20.6788 C   0  0  0  0  0  0  0  0  0  0  0  0
    8.0070   -0.2712   20.2411 C   0  0  0  0  0  0  0  0  0  0  0  0
    9.2507   -0.0746   20.7750 N   0  0  0  0  0  0  0  0  0  0  0  0
    9.5745   -1.1516   21.5653 C   0  0  0  0  0  0  0  0  0  0  0  0
   10.7368   -1.4492   22.3043 C   0  0  0  0  0  0  0  0  0  0  0  0
   10.7230   -2.5874   23.1122 C   0  0  0  0  0  0  0  0  0  0  0  0
    9.6198   -3.4067   23.0938 C   0  0  0  0  0  0  0  0  0  0  0  0
    9.6396   -4.5173   23.8791 F   0  0  0  0  0  0  0  0  0  0  0  0
    8.4999   -3.1786   22.3332 C   0  0  0  0  0  0  0  0  0  0  0  0
    8.4659   -2.0223   21.5575 C   0  0  0  0  0  0  0  0  0  0  0  0
   12.0061   -0.6360   22.3127 C   0  0  0  0  0  0  0  0  0  0  0  0
   12.9971   -1.1370   21.8103 O   0  0  0  0  0  0  0  0  0  0  0  0
   12.0688    0.6086   22.8287 N   0  0  0  0  0  0  0  0  0  0  0  0
   10.9605    1.3258   23.4564 C   0  0  0  0  0  0  0  0  0  0  0  0
   10.7829    2.6842   22.8123 C   0  0  0  0  0  0  0  0  0  0  0  0
   12.0415    3.4259   22.8485 N   0  0  0  0  0  0  0  0  0  0  0  0
   13.1498    2.7087   22.2207 C   0  0  0  0  0  0  0  0  0  0  0  0
   13.3274    1.3504   22.8648 C   0  0  0  0  0  0  0  0  0  0  0  0
   12.1043    4.6724   23.3653 C   0  0  0  0  0  0  0  0  0  0  0  0
   11.1076    5.2268   23.8112 O   0  0  0  0  0  0  0  0  0  0  0  0
   13.4541    5.3634   23.3840 C   0  0  0  0  0  0  0  0  0  0  0  0
   14.0126    5.7402   21.7490 Cl  0  0  0  0  0  0  0  0  0  0  0  0
  1  2  1  0
  2  3  2  0
  2  4  1  0
  4  5  1  0
  5  6  1  0
  6  7  1  0
  7  8  2  0
  8  9  1  0
  9 10  1  0
 10 11  2  0
 11 12  1  0
 12 13  2  0
 13 14  1  0
 13 15  1  0
 15 16  2  0
 11 17  1  0
 17 18  2  0
 17 19  1  0
 19 20  1  0
 20 21  1  0
 21 22  1  0
 22 23  1  0
 23 24  1  0
 22 25  1  0
 25 26  2  0
 25 27  1  0
 27 28  1  0
 16  7  1  0
 24 19  1  0
 16 10  1  0
M  END
