CVD-0002862|dock_bobby27042020.75|mol2|37|dock2
     RDKit          3D

 21 23  0  0  0  0  0  0  0  0999 V2000
   13.2650   -2.2924   25.4409 C   0  0  0  0  0  0  0  0  0  0  0  0
   13.0561   -2.1201   24.0029 N   0  0  0  0  0  0  0  0  0  0  0  0
   14.1984   -1.5096   23.3255 C   0  0  0  0  0  0  0  0  0  0  0  0
   13.5940   -1.1068   22.0015 C   0  0  0  0  0  0  0  0  0  0  0  0
   12.1937   -0.7039   22.3132 C   0  0  0  0  0  0  0  0  0  0  0  0
   11.8292   -1.3648   23.6614 C   0  0  0  0  0  0  0  0  0  0  0  0
   10.5942   -2.2545   23.5620 C   0  0  0  0  0  0  0  0  0  0  0  0
   10.6936   -3.4771   23.6209 O   0  0  0  0  0  0  0  0  0  0  0  0
    9.4290   -1.6254   23.4104 N   0  0  0  0  0  0  0  0  0  0  0  0
    8.1630   -2.3358   23.3004 C   0  0  0  0  0  0  0  0  0  0  0  0
    7.0464   -1.4304   22.8203 C   0  0  0  0  0  0  0  0  0  0  0  0
    7.2444   -0.9513   21.4120 C   0  0  0  0  0  0  0  0  0  0  0  0
    8.2886   -1.2304   20.5805 C   0  0  0  0  0  0  0  0  0  0  0  0
    8.1142   -0.6109   19.3731 N   0  0  0  0  0  0  0  0  0  0  0  0
    6.9347    0.0922   19.4009 C   0  0  0  0  0  0  0  0  0  0  0  0
    6.3161    0.8781   18.4350 C   0  0  0  0  0  0  0  0  0  0  0  0
    5.1080    1.4826   18.7352 C   0  0  0  0  0  0  0  0  0  0  0  0
    4.5616    1.2857   19.9762 C   0  0  0  0  0  0  0  0  0  0  0  0
    3.3737    1.8858   20.2581 F   0  0  0  0  0  0  0  0  0  0  0  0
    5.1415    0.5169   20.9573 C   0  0  0  0  0  0  0  0  0  0  0  0
    6.3588   -0.0992   20.6710 C   0  0  0  0  0  0  0  0  0  0  0  0
  1  2  1  0
  2  3  1  0
  3  4  1  0
  4  5  1  0
  5  6  1  0
  6  7  1  0
  7  8  2  0
  7  9  1  0
  9 10  1  0
 10 11  1  0
 11 12  1  0
 12 13  2  0
 13 14  1  0
 14 15  1  0
 15 16  2  0
 16 17  1  0
 17 18  2  0
 18 19  1  0
 18 20  1  0
 20 21  2  0
  6  2  1  0
 21 12  1  0
 21 15  1  0
M  END
