CVD-0000643|dock_bobby27042020.97|mol2|48|dock3
     RDKit          3D

 28 31  0  0  0  0  0  0  0  0999 V2000
    8.1402   -2.6443   22.0753 O   0  0  0  0  0  0  0  0  0  0  0  0
    9.2162   -2.8995   22.6072 C   0  0  0  0  0  0  0  0  0  0  0  0
   10.5098   -2.2981   22.1043 C   0  0  0  0  0  0  0  0  0  0  0  0
   11.1760   -1.3752   23.1348 C   0  0  0  0  0  0  0  0  0  0  0  0
   12.6677   -1.6154   23.1204 C   0  0  0  0  0  0  0  0  0  0  0  0
   13.3642   -0.5945   24.0085 C   0  0  0  0  0  0  0  0  0  0  0  0
   13.2071    0.7861   23.4181 C   0  0  0  0  0  0  0  0  0  0  0  0
   11.7875    1.0920   23.0099 C   0  0  0  0  0  0  0  0  0  0  0  0
   11.4051    2.4073   22.7599 C   0  0  0  0  0  0  0  0  0  0  0  0
   10.1210    2.7236   22.3573 C   0  0  0  0  0  0  0  0  0  0  0  0
    9.1735    1.7284   22.1912 C   0  0  0  0  0  0  0  0  0  0  0  0
    7.7562    2.0588   21.7873 C   0  0  0  0  0  0  0  0  0  0  0  0
    7.0688    0.9581   21.0957 N   0  0  0  0  0  0  0  0  0  0  0  0
    7.7308    0.6550   19.8371 C   0  0  0  0  0  0  0  0  0  0  0  0
    7.0222   -0.4633   19.0896 C   0  0  0  0  0  0  0  0  0  0  0  0
    5.5826   -0.1326   18.9019 C   0  0  0  0  0  0  0  0  0  0  0  0
    5.0485   -0.1160   17.8135 O   0  0  0  0  0  0  0  0  0  0  0  0
    4.9078    0.2303   20.1657 C   0  0  0  0  0  0  0  0  0  0  0  0
    5.6787    1.3409   20.8535 C   0  0  0  0  0  0  0  0  0  0  0  0
    9.5504    0.4159   22.4392 C   0  0  0  0  0  0  0  0  0  0  0  0
   10.8388    0.0763   22.8454 C   0  0  0  0  0  0  0  0  0  0  0  0
    9.3225   -3.7229   23.6523 N   0  0  0  0  0  0  0  0  0  0  0  0
    8.1693   -4.3919   24.2545 C   0  0  0  0  0  0  0  0  0  0  0  0
    7.5724   -3.5323   25.3674 C   0  0  0  0  0  0  0  0  0  0  0  0
    8.5395   -3.4729   26.5628 C   0  0  0  0  0  0  0  0  0  0  0  0
    9.0185   -4.8988   26.9919 C   0  0  0  0  0  0  0  0  0  0  0  0
    9.5572   -5.6261   25.8531 N   0  0  0  0  0  0  0  0  0  0  0  0
    8.5675   -5.7601   24.7864 C   0  0  0  0  0  0  0  0  0  0  0  0
  1  2  2  0
  2  3  1  0
  3  4  1  0
  4  5  1  0
  5  6  1  0
  6  7  1  0
  7  8  1  0
  8  9  2  0
  9 10  1  0
 10 11  2  0
 11 12  1  0
 12 13  1  0
 13 14  1  0
 14 15  1  0
 15 16  1  0
 16 17  2  0
 16 18  1  0
 18 19  1  0
 11 20  1  0
 20 21  2  0
  2 22  1  0
 22 23  1  0
 23 24  1  0
 24 25  1  0
 25 26  1  0
 26 27  1  0
 27 28  1  0
 21  4  1  0
 28 23  1  0
 21  8  1  0
 19 13  1  0
M  END
