CVD-0000102|dock_bobby27042020.14|mol2|12|dock3
     RDKit          3D

 27 28  0  0  0  0  0  0  0  0999 V2000
    4.5881    2.1913   19.7844 C   0  0  0  0  0  0  0  0  0  0  0  0
    4.3819    2.0535   18.2937 C   0  0  0  0  0  0  0  0  0  0  0  0
    5.4708    1.2499   17.6343 C   0  0  0  0  0  0  0  0  0  0  0  0
    5.4843   -0.1403   18.0821 N   0  0  0  0  0  0  0  0  0  0  0  0
    6.0572   -0.5263   19.2051 C   0  0  0  0  0  0  0  0  0  0  0  0
    6.1104   -1.7683   19.6773 C   0  0  0  0  0  0  0  0  0  0  0  0
    6.6851   -2.2933   20.8461 N   0  0  0  0  0  0  0  0  0  0  0  0
    6.5118   -3.5681   21.3274 C   0  0  0  0  0  0  0  0  0  0  0  0
    5.7767   -4.4014   20.8144 O   0  0  0  0  0  0  0  0  0  0  0  0
    7.1997   -3.9357   22.4480 N   0  0  0  0  0  0  0  0  0  0  0  0
    7.8045   -2.9642   23.3629 C   0  0  0  0  0  0  0  0  0  0  0  0
    9.0222   -2.3667   22.8751 N   0  0  0  0  0  0  0  0  0  0  0  0
    9.7164   -1.4893   23.5992 C   0  0  0  0  0  0  0  0  0  0  0  0
    9.3640   -1.1290   24.7192 O   0  0  0  0  0  0  0  0  0  0  0  0
   10.9779   -0.9580   22.9529 C   0  0  0  0  0  0  0  0  0  0  0  0
   11.4859    0.2524   23.7013 C   0  0  0  0  0  0  0  0  0  0  0  0
   12.8061    0.7440   23.1166 C   0  0  0  0  0  0  0  0  0  0  0  0
   13.8399   -0.3515   23.0949 C   0  0  0  0  0  0  0  0  0  0  0  0
   13.3306   -1.5726   22.3661 C   0  0  0  0  0  0  0  0  0  0  0  0
   12.0103   -2.0657   22.9424 C   0  0  0  0  0  0  0  0  0  0  0  0
    7.4176   -5.3125   22.8622 C   0  0  0  0  0  0  0  0  0  0  0  0
    6.4371   -5.7590   23.9001 C   0  0  0  0  0  0  0  0  0  0  0  0
    5.1822   -6.3453   23.7067 C   0  0  0  0  0  0  0  0  0  0  0  0
    4.6945   -6.5605   24.9340 C   0  0  0  0  0  0  0  0  0  0  0  0
    3.4283   -7.1449   25.4686 C   0  0  0  0  0  0  0  0  0  0  0  0
    5.5849   -6.1367   25.8512 O   0  0  0  0  0  0  0  0  0  0  0  0
    6.7100   -5.6195   25.1632 N   0  0  0  0  0  0  0  0  0  0  0  0
  1  2  1  0
  2  3  1  0
  3  4  1  0
  4  5  1  0
  5  6  2  0
  6  7  1  0
  7  8  1  0
  8  9  2  0
  8 10  1  0
 10 11  1  0
 11 12  1  0
 12 13  1  0
 13 14  2  0
 13 15  1  0
 15 16  1  0
 16 17  1  0
 17 18  1  0
 18 19  1  0
 19 20  1  0
 10 21  1  0
 21 22  1  0
 22 23  1  0
 23 24  2  0
 24 25  1  0
 24 26  1  0
 26 27  1  0
 20 15  1  0
 27 22  2  0
M  END
