CVD-0003669|dock_bobby27042020.59|mol2|8|dock2
     RDKit          3D

 16 15  0  0  0  0  0  0  0  0999 V2000
    7.1271    0.2442   18.3987 C   0  0  0  0  0  0  0  0  0  0  0  0
    6.7726    0.3592   19.8662 C   0  0  0  0  0  0  0  0  0  0  0  0
    5.2791    0.2330   20.0817 C   0  0  0  0  0  0  0  0  0  0  0  0
    7.4630   -0.6931   20.6174 N   0  0  0  0  0  0  0  0  0  0  0  0
    8.7436   -0.5371   21.0063 C   0  0  0  0  0  0  0  0  0  0  0  0
    9.3646    0.4850   20.7419 O   0  0  0  0  0  0  0  0  0  0  0  0
    9.3592   -1.5354   21.7070 N   0  0  0  0  0  0  0  0  0  0  0  0
    8.6117   -2.6592   22.2470 C   0  0  0  0  0  0  0  0  0  0  0  0
   10.8093   -1.5943   21.9188 C   0  0  0  0  0  0  0  0  0  0  0  0
   11.2143   -0.9562   23.2369 C   0  0  0  0  0  0  0  0  0  0  0  0
   12.5860   -1.3081   23.6140 N   0  0  0  0  0  0  0  0  0  0  0  0
   13.6365   -0.4106   23.1613 C   0  0  0  0  0  0  0  0  0  0  0  0
   12.8245   -2.4397   24.3007 C   0  0  0  0  0  0  0  0  0  0  0  0
   11.9264   -3.2017   24.6359 O   0  0  0  0  0  0  0  0  0  0  0  0
   14.2770   -2.7237   24.6323 C   0  0  0  0  0  0  0  0  0  0  0  0
   14.8431   -1.7425   25.9903 Cl  0  0  0  0  0  0  0  0  0  0  0  0
  1  2  1  0
  2  3  1  0
  2  4  1  0
  4  5  1  0
  5  6  2  0
  5  7  1  0
  7  8  1  0
  7  9  1  0
  9 10  1  0
 10 11  1  0
 11 12  1  0
 11 13  1  0
 13 14  2  0
 13 15  1  0
 15 16  1  0
M  END
