CVD-0002905|dock_bobby27042020.61|mol2|32|dock1
     RDKit          3D

 24 26  0  0  0  0  0  0  0  0999 V2000
    5.8711    1.0090   17.7064 C   0  0  0  0  0  0  0  0  0  0  0  0
    6.3271    0.9190   19.0925 N   0  0  0  0  0  0  0  0  0  0  0  0
    7.6017    0.1989   19.1670 C   0  0  0  0  0  0  0  0  0  0  0  0
    8.0908    0.1443   20.6024 C   0  0  0  0  0  0  0  0  0  0  0  0
    7.0936   -0.5021   21.4585 N   0  0  0  0  0  0  0  0  0  0  0  0
    5.7890    0.1599   21.3602 C   0  0  0  0  0  0  0  0  0  0  0  0
    5.3381    0.2237   19.9123 C   0  0  0  0  0  0  0  0  0  0  0  0
    7.3812   -1.5549   22.2485 C   0  0  0  0  0  0  0  0  0  0  0  0
    6.5171   -2.0628   22.9372 O   0  0  0  0  0  0  0  0  0  0  0  0
    8.8004   -2.0995   22.2675 C   0  0  0  0  0  0  0  0  0  0  0  0
    8.8171   -3.4000   23.0506 C   0  0  0  0  0  0  0  0  0  0  0  0
    7.9368   -4.3348   22.3844 O   0  0  0  0  0  0  0  0  0  0  0  0
    7.8562   -5.5630   22.9027 C   0  0  0  0  0  0  0  0  0  0  0  0
    6.9385   -6.4383   22.1166 C   0  0  0  0  0  0  0  0  0  0  0  0
    8.4509   -5.8863   23.8937 O   0  0  0  0  0  0  0  0  0  0  0  0
    9.7539   -1.0892   22.8627 C   0  0  0  0  0  0  0  0  0  0  0  0
    9.4752   -0.1277   23.7891 C   0  0  0  0  0  0  0  0  0  0  0  0
   10.5981    0.5995   24.0834 N   0  0  0  0  0  0  0  0  0  0  0  0
   11.6368    0.1159   23.3432 C   0  0  0  0  0  0  0  0  0  0  0  0
   12.9076    0.5525   23.3381 N   0  0  0  0  0  0  0  0  0  0  0  0
   13.7513   -0.0893   22.5182 C   0  0  0  0  0  0  0  0  0  0  0  0
   13.3836   -1.1422   21.7079 C   0  0  0  0  0  0  0  0  0  0  0  0
   12.0686   -1.5799   21.7257 C   0  0  0  0  0  0  0  0  0  0  0  0
   11.1516   -0.9457   22.5614 C   0  0  0  0  0  0  0  0  0  0  0  0
  1  2  1  0
  2  3  1  0
  3  4  1  0
  4  5  1  0
  5  6  1  0
  6  7  1  0
  5  8  1  0
  8  9  2  0
  8 10  1  0
 10 11  1  0
 11 12  1  0
 12 13  1  0
 13 14  1  0
 13 15  2  0
 10 16  1  0
 16 17  2  0
 17 18  1  0
 18 19  1  0
 19 20  2  0
 20 21  1  0
 21 22  2  0
 22 23  1  0
 23 24  2  0
  7  2  1  0
 24 16  1  0
 24 19  1  0
M  END
