CVD-0001248|dock_bobby27042020.38|mol2|41|dock2
     RDKit          3D

 22 24  0  0  0  0  0  0  0  0999 V2000
    6.3600   -6.2533   21.6455 C   0  0  0  0  0  0  0  0  0  0  0  0
    6.3842   -5.0399   22.5214 C   0  0  0  0  0  0  0  0  0  0  0  0
    7.4145   -4.1040   22.1025 N   0  0  0  0  0  0  0  0  0  0  0  0
    7.1721   -3.0934   21.2497 C   0  0  0  0  0  0  0  0  0  0  0  0
    6.1990   -3.3442   20.3525 N   0  0  0  0  0  0  0  0  0  0  0  0
    5.8981   -2.3880   19.4695 C   0  0  0  0  0  0  0  0  0  0  0  0
    6.5330   -1.1536   19.4256 C   0  0  0  0  0  0  0  0  0  0  0  0
    7.5398   -0.8866   20.3474 C   0  0  0  0  0  0  0  0  0  0  0  0
    7.8746   -1.8657   21.2821 C   0  0  0  0  0  0  0  0  0  0  0  0
    8.8677   -1.6312   22.2081 N   0  0  0  0  0  0  0  0  0  0  0  0
    9.9985   -0.7619   21.9466 C   0  0  0  0  0  0  0  0  0  0  0  0
   11.0620   -0.8044   23.0170 C   0  0  0  0  0  0  0  0  0  0  0  0
   10.9463   -0.0344   24.1658 C   0  0  0  0  0  0  0  0  0  0  0  0
   11.9117   -0.0645   25.1587 C   0  0  0  0  0  0  0  0  0  0  0  0
   13.0239   -0.8861   25.0028 C   0  0  0  0  0  0  0  0  0  0  0  0
   14.1141   -1.1294   25.7780 N   0  0  0  0  0  0  0  0  0  0  0  0
   14.9554   -2.0327   25.1956 N   0  0  0  0  0  0  0  0  0  0  0  0
   14.3988   -2.3645   24.0470 C   0  0  0  0  0  0  0  0  0  0  0  0
   13.1726   -1.6792   23.8541 C   0  0  0  0  0  0  0  0  0  0  0  0
   12.1754   -1.6220   22.8718 C   0  0  0  0  0  0  0  0  0  0  0  0
    6.1597   -0.1641   18.4453 C   0  0  0  0  0  0  0  0  0  0  0  0
    5.8447    0.5970   17.6538 N   0  0  0  0  0  0  0  0  0  0  0  0
  1  2  1  0
  2  3  1  0
  3  4  1  0
  4  5  2  0
  5  6  1  0
  6  7  2  0
  7  8  1  0
  8  9  2  0
  9 10  1  0
 10 11  1  0
 11 12  1  0
 12 13  2  0
 13 14  1  0
 14 15  2  0
 15 16  1  0
 16 17  1  0
 17 18  2  0
 18 19  1  0
 19 20  2  0
  7 21  1  0
 21 22  3  0
  9  4  1  0
 20 12  1  0
 19 15  1  0
M  END
