CVD-0001155|dock_bobby27042020.24|mol2|43|dock3
     RDKit          3D

 30 31  0  0  0  0  0  0  0  0999 V2000
   10.0565   -5.0822   26.0191 C   0  0  0  0  0  0  0  0  0  0  0  0
    8.9013   -4.6596   24.7181 S   0  0  0  0  0  0  0  0  0  0  0  0
    8.4180   -2.9993   25.2303 C   0  0  0  0  0  0  0  0  0  0  0  0
    7.8126   -2.2225   24.0781 C   0  0  0  0  0  0  0  0  0  0  0  0
    6.6088   -2.0002   24.0467 O   0  0  0  0  0  0  0  0  0  0  0  0
    8.6244   -1.7762   23.0952 N   0  0  0  0  0  0  0  0  0  0  0  0
   10.0863   -1.9202   23.0368 C   0  0  0  0  0  0  0  0  0  0  0  0
   10.4348   -1.3114   21.6834 C   0  0  0  0  0  0  0  0  0  0  0  0
    9.3393   -0.3019   21.4311 C   0  0  0  0  0  0  0  0  0  0  0  0
    9.5966    0.8898   22.2321 N   0  0  0  0  0  0  0  0  0  0  0  0
   10.6303    1.7219   21.9785 C   0  0  0  0  0  0  0  0  0  0  0  0
   11.4500    1.4729   21.0994 O   0  0  0  0  0  0  0  0  0  0  0  0
   10.6324    2.8239   22.7991 N   0  0  0  0  0  0  0  0  0  0  0  0
   11.5441    3.9134   22.8408 C   0  0  0  0  0  0  0  0  0  0  0  0
   12.5036    4.1831   21.8623 C   0  0  0  0  0  0  0  0  0  0  0  0
   13.3499    5.2712   21.9905 C   0  0  0  0  0  0  0  0  0  0  0  0
   13.2335    6.0778   23.0880 C   0  0  0  0  0  0  0  0  0  0  0  0
   14.0699    7.1443   23.2044 F   0  0  0  0  0  0  0  0  0  0  0  0
   12.3120    5.8639   24.0803 C   0  0  0  0  0  0  0  0  0  0  0  0
   11.4883    4.7795   23.9261 C   0  0  0  0  0  0  0  0  0  0  0  0
   10.5707    4.5485   24.8934 F   0  0  0  0  0  0  0  0  0  0  0  0
    8.0943   -1.0199   21.9723 C   0  0  0  0  0  0  0  0  0  0  0  0
    7.4481   -1.9449   20.9327 C   0  0  0  0  0  0  0  0  0  0  0  0
    7.7214   -3.1298   20.9188 O   0  0  0  0  0  0  0  0  0  0  0  0
    6.5793   -1.4252   20.0485 N   0  0  0  0  0  0  0  0  0  0  0  0
    5.8677   -2.2249   19.0648 C   0  0  0  0  0  0  0  0  0  0  0  0
    6.2753   -0.0029   20.0940 C   0  0  0  0  0  0  0  0  0  0  0  0
    5.5390    0.4763   18.8545 C   0  0  0  0  0  0  0  0  0  0  0  0
    4.2592    0.7726   19.0173 N   0  0  0  0  0  0  0  0  0  0  0  0
    6.1172    0.5689   17.7678 O   0  0  0  0  0  0  0  0  0  0  0  0
  1  2  1  0
  2  3  1  0
  3  4  1  0
  4  5  2  0
  4  6  1  0
  6  7  1  0
  7  8  1  0
  8  9  1  0
  9 10  1  0
 10 11  1  0
 11 12  2  0
 11 13  1  0
 13 14  1  0
 14 15  2  0
 15 16  1  0
 16 17  2  0
 17 18  1  0
 17 19  1  0
 19 20  2  0
 20 21  1  0
  9 22  1  0
 22 23  1  0
 23 24  2  0
 23 25  1  0
 25 26  1  0
 25 27  1  0
 27 28  1  0
 28 29  1  0
 28 30  2  0
 22  6  1  0
 20 14  1  0
M  END
