CVD-0001878|dock_bobby27042020.36|mol2|38|dock1
     RDKit          3D

 32 34  0  0  0  0  0  0  0  0999 V2000
   13.7522    5.0490   22.7474 C   0  0  0  0  0  0  0  0  0  0  0  0
   12.6579    4.8062   21.7407 C   0  0  0  0  0  0  0  0  0  0  0  0
   11.4114    4.1843   22.3396 C   0  0  0  0  0  0  0  0  0  0  0  0
   10.3069    4.9628   22.6424 C   0  0  0  0  0  0  0  0  0  0  0  0
    9.1727    4.3912   23.1920 C   0  0  0  0  0  0  0  0  0  0  0  0
    9.1249    3.0311   23.4489 C   0  0  0  0  0  0  0  0  0  0  0  0
   10.2246    2.2294   23.1529 C   0  0  0  0  0  0  0  0  0  0  0  0
   10.2578    0.8310   23.3840 N   0  0  0  0  0  0  0  0  0  0  0  0
    9.4127    0.0156   24.0661 C   0  0  0  0  0  0  0  0  0  0  0  0
    8.3935    0.3792   24.6455 O   0  0  0  0  0  0  0  0  0  0  0  0
    9.7882   -1.4830   24.1006 C   0  0  0  0  0  0  0  0  0  0  0  0
    8.8897   -2.2637   23.2034 N   0  0  0  0  0  0  0  0  0  0  0  0
    8.5435   -3.5743   23.6183 C   0  0  0  0  0  0  0  0  0  0  0  0
    8.9910   -4.0029   24.6810 O   0  0  0  0  0  0  0  0  0  0  0  0
    7.6734   -4.5183   22.8600 C   0  0  0  0  0  0  0  0  0  0  0  0
    7.8044   -5.8090   23.0150 C   0  0  0  0  0  0  0  0  0  0  0  0
    8.4039   -1.6496   22.0087 C   0  0  0  0  0  0  0  0  0  0  0  0
    7.1000   -1.2867   21.5803 C   0  0  0  0  0  0  0  0  0  0  0  0
    7.2348   -0.7514   20.3643 C   0  0  0  0  0  0  0  0  0  0  0  0
    8.5387   -0.7506   20.0191 O   0  0  0  0  0  0  0  0  0  0  0  0
    9.2739   -1.3129   21.0899 N   0  0  0  0  0  0  0  0  0  0  0  0
    6.2713   -0.1667   19.3428 C   0  0  0  0  0  0  0  0  0  0  0  0
    5.8003   -1.2681   18.3888 C   0  0  0  0  0  0  0  0  0  0  0  0
    6.9748    0.9308   18.5394 C   0  0  0  0  0  0  0  0  0  0  0  0
    5.0586    0.4317   20.0613 C   0  0  0  0  0  0  0  0  0  0  0  0
   11.2746   -1.7619   23.9008 C   0  0  0  0  0  0  0  0  0  0  0  0
   12.2399   -1.1579   24.6926 C   0  0  0  0  0  0  0  0  0  0  0  0
   13.5790   -1.4361   24.4805 C   0  0  0  0  0  0  0  0  0  0  0  0
   13.9154   -2.3157   23.4765 C   0  0  0  0  0  0  0  0  0  0  0  0
   13.0132   -2.9136   22.6968 N   0  0  0  0  0  0  0  0  0  0  0  0
   11.7265   -2.6295   22.9193 C   0  0  0  0  0  0  0  0  0  0  0  0
   11.3559    2.8216   22.6010 C   0  0  0  0  0  0  0  0  0  0  0  0
  1  2  1  0
  2  3  1  0
  3  4  2  0
  4  5  1  0
  5  6  2  0
  6  7  1  0
  7  8  1  0
  8  9  1  0
  9 10  2  0
  9 11  1  0
 11 12  1  0
 12 13  1  0
 13 14  2  0
 13 15  1  0
 15 16  2  0
 12 17  1  0
 17 18  1  0
 18 19  2  0
 19 20  1  0
 20 21  1  0
 19 22  1  0
 22 23  1  0
 22 24  1  0
 22 25  1  0
 11 26  1  0
 26 27  2  0
 27 28  1  0
 28 29  2  0
 29 30  1  0
 30 31  2  0
  7 32  2  0
 32  3  1  0
 21 17  2  0
 31 26  1  0
M  END
