CVD-0001742|dock_bobby27042020.8|mol2|32|dock1
     RDKit          3D

 26 28  0  0  0  0  0  0  0  0999 V2000
   13.8968   -1.9231   25.4441 C   0  0  0  0  0  0  0  0  0  0  0  0
   13.0560   -1.3478   24.3956 N   0  0  0  0  0  0  0  0  0  0  0  0
   11.6364   -1.3703   24.7481 C   0  0  0  0  0  0  0  0  0  0  0  0
   10.8124   -0.7384   23.6598 C   0  0  0  0  0  0  0  0  0  0  0  0
   11.0057   -1.4402   22.3874 N   0  0  0  0  0  0  0  0  0  0  0  0
   10.1736   -0.8709   21.3499 C   0  0  0  0  0  0  0  0  0  0  0  0
    8.8037   -1.3775   21.3950 N   0  0  0  0  0  0  0  0  0  0  0  0
    8.5338   -2.6827   21.8337 C   0  0  0  0  0  0  0  0  0  0  0  0
    9.4574   -3.3738   22.2420 O   0  0  0  0  0  0  0  0  0  0  0  0
    7.2433   -3.1598   21.7821 N   0  0  0  0  0  0  0  0  0  0  0  0
    6.7176   -4.4271   22.1472 C   0  0  0  0  0  0  0  0  0  0  0  0
    7.3596   -5.6505   21.9694 C   0  0  0  0  0  0  0  0  0  0  0  0
    6.7280   -6.8144   22.3731 C   0  0  0  0  0  0  0  0  0  0  0  0
    5.4785   -6.7308   22.9417 C   0  0  0  0  0  0  0  0  0  0  0  0
    4.8382   -5.5770   23.1259 N   0  0  0  0  0  0  0  0  0  0  0  0
    5.4566   -4.4600   22.7326 C   0  0  0  0  0  0  0  0  0  0  0  0
    7.7827   -0.4414   20.9919 C   0  0  0  0  0  0  0  0  0  0  0  0
    7.0217    0.2173   21.9527 C   0  0  0  0  0  0  0  0  0  0  0  0
    6.0289    1.1112   21.5875 C   0  0  0  0  0  0  0  0  0  0  0  0
    5.7751    1.3665   20.2525 C   0  0  0  0  0  0  0  0  0  0  0  0
    6.5297    0.7243   19.2791 C   0  0  0  0  0  0  0  0  0  0  0  0
    7.5326   -0.1696   19.6478 C   0  0  0  0  0  0  0  0  0  0  0  0
    6.2795    0.9807   17.8821 C   0  0  0  0  0  0  0  0  0  0  0  0
    6.0782    1.2162   16.7827 N   0  0  0  0  0  0  0  0  0  0  0  0
   12.4252   -1.4177   22.0349 C   0  0  0  0  0  0  0  0  0  0  0  0
   13.2492   -2.0497   23.1233 C   0  0  0  0  0  0  0  0  0  0  0  0
  1  2  1  0
  2  3  1  0
  3  4  1  0
  4  5  1  0
  5  6  1  0
  6  7  1  0
  7  8  1  0
  8  9  2  0
  8 10  1  0
 10 11  1  0
 11 12  2  0
 12 13  1  0
 13 14  2  0
 14 15  1  0
 15 16  2  0
  7 17  1  0
 17 18  2  0
 18 19  1  0
 19 20  2  0
 20 21  1  0
 21 22  2  0
 21 23  1  0
 23 24  3  0
  5 25  1  0
 25 26  1  0
 26  2  1  0
 16 11  1  0
 22 17  1  0
M  END
