CVD-0002089|dock_bobby27042020.65|mol2|1|dock3
     RDKit          3D

 22 23  0  0  0  0  0  0  0  0999 V2000
    0.9562   -5.3674   25.7191 C   0  0  0  0  0  0  0  0  0  0  0  0
    1.8929   -5.5330   24.6089 N   0  0  0  0  0  0  0  0  0  0  0  0
    1.3836   -6.3293   23.4812 C   0  0  0  0  0  0  0  0  0  0  0  0
    2.6263   -6.5852   22.6331 C   0  0  0  0  0  0  0  0  0  0  0  0
    2.4859   -7.7526   21.8223 O   0  0  0  0  0  0  0  0  0  0  0  0
    3.7848   -6.6367   23.6557 C   0  0  0  0  0  0  0  0  0  0  0  0
    4.9690   -5.7631   23.2603 C   0  0  0  0  0  0  0  0  0  0  0  0
    5.5555   -6.2012   21.6040 S   0  0  0  0  0  0  0  0  0  0  0  0
    7.2970   -5.7002   21.6216 C   0  0  0  0  0  0  0  0  0  0  0  0
    7.5043   -4.2251   21.8394 C   0  0  0  0  0  0  0  0  0  0  0  0
    8.8800   -3.8530   21.8203 O   0  0  0  0  0  0  0  0  0  0  0  0
    9.2262   -2.5156   22.1308 C   0  0  0  0  0  0  0  0  0  0  0  0
   10.5503   -2.1208   21.7071 N   0  0  0  0  0  0  0  0  0  0  0  0
   10.9427   -0.7513   22.0451 C   0  0  0  0  0  0  0  0  0  0  0  0
   12.4544   -0.6189   22.0938 C   0  0  0  0  0  0  0  0  0  0  0  0
   13.0421   -1.1201   23.3908 C   0  0  0  0  0  0  0  0  0  0  0  0
   13.0458   -0.3213   24.5239 C   0  0  0  0  0  0  0  0  0  0  0  0
   13.5820   -0.7819   25.7149 C   0  0  0  0  0  0  0  0  0  0  0  0
   14.1206   -2.0484   25.7875 C   0  0  0  0  0  0  0  0  0  0  0  0
   14.1224   -2.8539   24.6693 C   0  0  0  0  0  0  0  0  0  0  0  0
   13.5860   -2.3924   23.4788 C   0  0  0  0  0  0  0  0  0  0  0  0
    3.1557   -6.2002   24.9869 C   0  0  0  0  0  0  0  0  0  0  0  0
  1  2  1  0
  2  3  1  0
  3  4  1  0
  4  5  1  0
  4  6  1  0
  6  7  1  0
  7  8  1  0
  8  9  1  0
  9 10  1  0
 10 11  1  0
 11 12  1  0
 12 13  1  0
 13 14  1  0
 14 15  1  0
 15 16  1  0
 16 17  2  0
 17 18  1  0
 18 19  2  0
 19 20  1  0
 20 21  2  0
  6 22  1  0
 22  2  1  0
 21 16  1  0
M  END
