CVD-0002763|dock_bobby27042020.33|mol2|10|dock3
     RDKit          3D

 20 22  0  0  0  0  0  0  0  0999 V2000
   10.0446   -6.4273   25.2609 N   0  0  0  0  0  0  0  0  0  0  0  0
    9.8360   -5.1735   24.8894 C   0  0  0  0  0  0  0  0  0  0  0  0
   10.6898   -4.5431   24.2621 O   0  0  0  0  0  0  0  0  0  0  0  0
    8.4853   -4.5929   25.2770 C   0  0  0  0  0  0  0  0  0  0  0  0
    8.4014   -4.2720   26.7782 C   0  0  0  0  0  0  0  0  0  0  0  0
    7.7493   -2.8940   26.8740 C   0  0  0  0  0  0  0  0  0  0  0  0
    6.4596   -2.9510   27.4900 O   0  0  0  0  0  0  0  0  0  0  0  0
    7.5704   -2.4188   25.6112 C   0  0  0  0  0  0  0  0  0  0  0  0
    7.9468   -3.3184   24.5404 C   0  0  0  0  0  0  0  0  0  0  0  0
    8.7557   -2.6066   23.4850 C   0  0  0  0  0  0  0  0  0  0  0  0
    9.9108   -1.8030   23.7726 C   0  0  0  0  0  0  0  0  0  0  0  0
   10.4624   -1.2414   22.6658 C   0  0  0  0  0  0  0  0  0  0  0  0
    9.6185   -1.6539   21.2436 S   0  0  0  0  0  0  0  0  0  0  0  0
    8.4992   -2.6181   22.1455 C   0  0  0  0  0  0  0  0  0  0  0  0
    7.4379   -3.2976   21.3622 C   0  0  0  0  0  0  0  0  0  0  0  0
    7.1569   -4.6521   21.4885 C   0  0  0  0  0  0  0  0  0  0  0  0
    6.1409   -5.1751   20.7149 C   0  0  0  0  0  0  0  0  0  0  0  0
    5.4376   -4.4557   19.8596 N   0  0  0  0  0  0  0  0  0  0  0  0
    5.7191   -3.1490   19.7109 N   0  0  0  0  0  0  0  0  0  0  0  0
    6.6789   -2.5964   20.4371 C   0  0  0  0  0  0  0  0  0  0  0  0
  1  2  1  0
  2  3  2  0
  4  2  1  0
  4  5  1  0
  5  6  1  0
  6  7  1  0
  6  8  1  0
  8  9  1  0
  9 10  1  0
 10 11  1  0
 11 12  2  0
 12 13  1  0
 13 14  1  0
 14 15  1  0
 15 16  2  0
 16 17  1  0
 17 18  2  0
 18 19  1  0
 19 20  2  0
  9  4  1  0
 14 10  2  0
 20 15  1  0
M  END
