CVD-0001653|dock_bobby27042020.94|mol2|33|dock2
     RDKit          3D

 19 20  0  0  0  0  0  0  0  0999 V2000
    8.6720    2.5954   22.4328 F   0  0  0  0  0  0  0  0  0  0  0  0
    9.4724    2.5859   23.4930 C   0  0  0  0  0  0  0  0  0  0  0  0
    9.0685    3.5611   24.2973 F   0  0  0  0  0  0  0  0  0  0  0  0
    9.1728    1.4644   24.1386 F   0  0  0  0  0  0  0  0  0  0  0  0
   10.9348    2.6497   23.1488 C   0  0  0  0  0  0  0  0  0  0  0  0
   11.4420    3.9296   22.9710 C   0  0  0  0  0  0  0  0  0  0  0  0
   12.7574    4.0774   22.5668 C   0  0  0  0  0  0  0  0  0  0  0  0
   13.5821    3.0449   22.3253 N   0  0  0  0  0  0  0  0  0  0  0  0
   13.1074    1.8113   22.5415 C   0  0  0  0  0  0  0  0  0  0  0  0
   11.8091    1.5573   22.9715 C   0  0  0  0  0  0  0  0  0  0  0  0
   11.4327    0.2100   23.2116 N   0  0  0  0  0  0  0  0  0  0  0  0
   11.8930   -0.4912   24.4153 C   0  0  0  0  0  0  0  0  0  0  0  0
   13.2446   -1.2138   24.2150 C   0  0  0  0  0  0  0  0  0  0  0  0
   13.0670   -2.4826   23.3520 C   0  0  0  0  0  0  0  0  0  0  0  0
   12.5477   -2.0911   22.0812 O   0  0  0  0  0  0  0  0  0  0  0  0
   11.1267   -1.9689   22.0126 C   0  0  0  0  0  0  0  0  0  0  0  0
   10.6659   -0.5024   22.1772 C   0  0  0  0  0  0  0  0  0  0  0  0
   13.3149    5.4026   22.3794 C   0  0  0  0  0  0  0  0  0  0  0  0
   13.7410    6.4464   22.1959 N   0  0  0  0  0  0  0  0  0  0  0  0
  1  2  1  0
  2  3  1  0
  2  4  1  0
  2  5  1  0
  5  6  2  0
  6  7  1  0
  7  8  2  0
  8  9  1  0
  9 10  2  0
 10 11  1  0
 11 12  1  0
 12 13  1  0
 13 14  1  0
 14 15  1  0
 15 16  1  0
 16 17  1  0
  7 18  1  0
 18 19  3  0
 10  5  1  0
 17 11  1  0
M  END
