CVD-0003984|dock_bobby27042020.58|mol2|6|dock3
     RDKit          3D

 24 24  0  0  0  0  0  0  0  0999 V2000
   15.2975   -2.6448   25.6259 O   0  0  0  0  0  0  0  0  0  0  0  0
   14.6332   -1.8022   24.7222 C   0  0  0  0  0  0  0  0  0  0  0  0
   14.1161   -1.0441   23.9929 C   0  0  0  0  0  0  0  0  0  0  0  0
   13.4055   -0.1531   23.1004 C   0  0  0  0  0  0  0  0  0  0  0  0
   13.7724    0.0247   21.9443 O   0  0  0  0  0  0  0  0  0  0  0  0
   12.2916    0.4895   23.6121 N   0  0  0  0  0  0  0  0  0  0  0  0
   11.3691    1.5498   22.6970 S   0  0  0  0  0  0  0  0  0  0  0  0
   10.0716    0.4611   22.0811 C   0  0  0  0  0  0  0  0  0  0  0  0
   10.5485   -0.9520   21.8381 C   0  0  0  0  0  0  0  0  0  0  0  0
   11.5341   -1.1639   21.1440 O   0  0  0  0  0  0  0  0  0  0  0  0
    9.7617   -2.0413   22.4688 C   0  0  0  0  0  0  0  0  0  0  0  0
   10.2727   -2.6048   23.4428 O   0  0  0  0  0  0  0  0  0  0  0  0
    8.4261   -2.4681   22.0009 C   0  0  0  0  0  0  0  0  0  0  0  0
    7.7922   -2.0025   20.9242 C   0  0  0  0  0  0  0  0  0  0  0  0
    6.4523   -2.4537   20.4992 C   0  0  0  0  0  0  0  0  0  0  0  0
    5.9066   -3.3827   21.1057 O   0  0  0  0  0  0  0  0  0  0  0  0
    5.7530   -1.8258   19.3468 C   0  0  0  0  0  0  0  0  0  0  0  0
    5.3162   -2.5318   18.4424 O   0  0  0  0  0  0  0  0  0  0  0  0
    5.5372   -0.3564   19.2422 C   0  0  0  0  0  0  0  0  0  0  0  0
    5.6103    0.4304   20.3421 C   0  0  0  0  0  0  0  0  0  0  0  0
    5.2231    1.8384   20.1692 C   0  0  0  0  0  0  0  0  0  0  0  0
    4.3927    2.2016   19.1504 C   0  0  0  0  0  0  0  0  0  0  0  0
    4.1717    1.3250   18.1522 O   0  0  0  0  0  0  0  0  0  0  0  0
    5.2338    0.3622   17.9528 C   0  0  0  0  0  0  0  0  0  0  0  0
  1  2  1  0
  2  3  3  0
  3  4  1  0
  4  5  2  0
  4  6  1  0
  6  7  1  0
  7  8  1  0
  8  9  1  0
  9 10  2  0
  9 11  1  0
 11 12  2  0
 11 13  1  0
 13 14  2  0
 14 15  1  0
 15 16  2  0
 15 17  1  0
 17 18  2  0
 17 19  1  0
 19 20  2  0
 20 21  1  0
 21 22  2  0
 22 23  1  0
 23 24  1  0
 24 19  1  0
M  END
