CVD-0000719|dock_bobby27042020.69|mol2|23|dock1
     RDKit          3D

 34 37  0  0  0  0  0  0  0  0999 V2000
   13.0233    0.0141   24.1198 C   0  0  0  0  0  0  0  0  0  0  0  0
   12.4325    0.0016   22.7831 N   0  0  0  0  0  0  0  0  0  0  0  0
   12.2129   -1.3380   22.2255 C   0  0  0  0  0  0  0  0  0  0  0  0
   11.0219   -2.1305   22.7473 C   0  0  0  0  0  0  0  0  0  0  0  0
    9.7673   -2.1154   21.8844 C   0  0  0  0  0  0  0  0  0  0  0  0
    8.4808   -2.2487   22.5804 N   0  0  0  0  0  0  0  0  0  0  0  0
    7.7584   -1.0106   22.8273 C   0  0  0  0  0  0  0  0  0  0  0  0
    6.8100   -0.6719   21.7211 C   0  0  0  0  0  0  0  0  0  0  0  0
    7.1124   -0.2211   20.4320 C   0  0  0  0  0  0  0  0  0  0  0  0
    5.9321   -0.0608   19.8228 C   0  0  0  0  0  0  0  0  0  0  0  0
    5.5101    0.3857   18.4614 C   0  0  0  0  0  0  0  0  0  0  0  0
    4.9402   -0.3895   20.6723 O   0  0  0  0  0  0  0  0  0  0  0  0
    5.5274   -0.7837   21.8997 N   0  0  0  0  0  0  0  0  0  0  0  0
    8.0426   -3.4638   23.0245 C   0  0  0  0  0  0  0  0  0  0  0  0
    8.8259   -4.4015   23.1087 O   0  0  0  0  0  0  0  0  0  0  0  0
    6.7499   -3.6226   23.3713 N   0  0  0  0  0  0  0  0  0  0  0  0
    6.2453   -4.9004   23.8741 C   0  0  0  0  0  0  0  0  0  0  0  0
    6.8756   -4.8672   25.3924 C   0  0  0  0  0  0  0  0  0  0  0  0
    5.4731   -5.2989   25.1582 C   0  0  0  0  0  0  0  0  0  0  0  0
   11.3594    0.9286   22.5781 C   0  0  0  0  0  0  0  0  0  0  0  0
   11.8235    2.2859   22.4796 N   0  0  0  0  0  0  0  0  0  0  0  0
   13.2426    2.5295   22.7049 C   0  0  0  0  0  0  0  0  0  0  0  0
   13.6642    3.8158   22.0172 C   0  0  0  0  0  0  0  0  0  0  0  0
   12.8521    4.9779   22.5498 C   0  0  0  0  0  0  0  0  0  0  0  0
   11.3729    4.6903   22.4593 C   0  0  0  0  0  0  0  0  0  0  0  0
   10.4424    5.7219   22.4091 C   0  0  0  0  0  0  0  0  0  0  0  0
    9.0853    5.4651   22.4076 C   0  0  0  0  0  0  0  0  0  0  0  0
    8.6503    4.1512   22.4572 C   0  0  0  0  0  0  0  0  0  0  0  0
    9.5509    3.0979   22.5079 C   0  0  0  0  0  0  0  0  0  0  0  0
   10.9201    3.3553   22.5094 C   0  0  0  0  0  0  0  0  0  0  0  0
    6.9180    3.8030   22.4289 S   0  0  0  0  0  0  0  0  0  0  0  0
    6.1616    5.0463   21.7618 N   0  0  0  0  0  0  0  0  0  0  0  0
    6.4765    3.7187   23.7887 O   0  0  0  0  0  0  0  0  0  0  0  0
    6.7223    2.6762   21.5669 O   0  0  0  0  0  0  0  0  0  0  0  0
  1  2  1  0
  2  3  1  0
  3  4  1  0
  4  5  1  0
  5  6  1  0
  6  7  1  0
  7  8  1  0
  8  9  1  0
  9 10  2  0
 10 11  1  0
 10 12  1  0
 12 13  1  0
  6 14  1  0
 14 15  2  0
 14 16  1  0
 16 17  1  0
 17 18  1  0
 18 19  1  0
  2 20  1  0
 20 21  1  0
 21 22  1  0
 22 23  1  0
 23 24  1  0
 24 25  1  0
 25 26  2  0
 26 27  1  0
 27 28  2  0
 28 29  1  0
 29 30  2  0
 28 31  1  0
 31 32  1  0
 31 33  2  0
 31 34  2  0
 13  8  2  0
 19 17  1  0
 30 21  1  0
 30 25  1  0
M  END
