CVD-0002903|dock_bobby27042020.89|mol2|37|dock3
     RDKit          3D

 20 22  0  0  0  0  0  0  0  0999 V2000
   14.2693   -1.7871   24.7014 C   0  0  0  0  0  0  0  0  0  0  0  0
   13.0412   -1.3134   24.0654 N   0  0  0  0  0  0  0  0  0  0  0  0
   12.1429   -0.7045   25.0537 C   0  0  0  0  0  0  0  0  0  0  0  0
   10.8849   -0.1568   24.4089 C   0  0  0  0  0  0  0  0  0  0  0  0
   10.1242   -1.2109   23.6139 C   0  0  0  0  0  0  0  0  0  0  0  0
   11.1022   -1.8977   22.6668 C   0  0  0  0  0  0  0  0  0  0  0  0
   12.3416   -2.4060   23.3842 C   0  0  0  0  0  0  0  0  0  0  0  0
    8.9782   -0.6816   22.8745 N   0  0  0  0  0  0  0  0  0  0  0  0
    7.8359   -1.3571   22.7315 C   0  0  0  0  0  0  0  0  0  0  0  0
    7.6591   -2.4735   23.2089 O   0  0  0  0  0  0  0  0  0  0  0  0
    6.7573   -0.6678   21.9227 C   0  0  0  0  0  0  0  0  0  0  0  0
    7.1310   -0.3864   20.4983 C   0  0  0  0  0  0  0  0  0  0  0  0
    8.2402   -0.8231   19.8352 C   0  0  0  0  0  0  0  0  0  0  0  0
    8.2418   -0.3638   18.5448 N   0  0  0  0  0  0  0  0  0  0  0  0
    7.1198    0.3869   18.3495 C   0  0  0  0  0  0  0  0  0  0  0  0
    6.7460    1.0159   17.2225 N   0  0  0  0  0  0  0  0  0  0  0  0
    5.5926    1.6961   17.2780 C   0  0  0  0  0  0  0  0  0  0  0  0
    4.8007    1.7752   18.4037 C   0  0  0  0  0  0  0  0  0  0  0  0
    5.2013    1.1204   19.5578 C   0  0  0  0  0  0  0  0  0  0  0  0
    6.3933    0.3988   19.5521 C   0  0  0  0  0  0  0  0  0  0  0  0
  1  2  1  0
  2  3  1  0
  3  4  1  0
  4  5  1  0
  5  6  1  0
  6  7  1  0
  5  8  1  0
  8  9  1  0
  9 10  2  0
  9 11  1  0
 11 12  1  0
 12 13  2  0
 13 14  1  0
 14 15  1  0
 15 16  2  0
 16 17  1  0
 17 18  2  0
 18 19  1  0
 19 20  2  0
  7  2  1  0
 20 12  1  0
 20 15  1  0
M  END
