CVD-0002688|dock_bobby27042020.47|mol2|36|dock3
     RDKit          3D

 35 38  0  0  0  0  0  0  0  0999 V2000
    9.1003    1.8001   20.6237 O   0  0  0  0  0  0  0  0  0  0  0  0
    8.5928    1.6091   21.7258 C   0  0  0  0  0  0  0  0  0  0  0  0
    8.2595    0.3942   22.1705 N   0  0  0  0  0  0  0  0  0  0  0  0
    8.5044   -0.8015   21.3808 C   0  0  0  0  0  0  0  0  0  0  0  0
    7.2053   -1.3205   20.7461 C   0  0  0  0  0  0  0  0  0  0  0  0
    6.4179   -0.2461   20.0360 C   0  0  0  0  0  0  0  0  0  0  0  0
    6.7052    0.0920   18.7226 C   0  0  0  0  0  0  0  0  0  0  0  0
    5.9807    1.0754   18.0698 C   0  0  0  0  0  0  0  0  0  0  0  0
    4.9596    1.7316   18.7229 C   0  0  0  0  0  0  0  0  0  0  0  0
    4.6627    1.4040   20.0284 C   0  0  0  0  0  0  0  0  0  0  0  0
    5.3875    0.4205   20.6807 C   0  0  0  0  0  0  0  0  0  0  0  0
    9.0917   -1.8880   22.2760 C   0  0  0  0  0  0  0  0  0  0  0  0
    8.4143   -2.8050   22.7072 O   0  0  0  0  0  0  0  0  0  0  0  0
   10.5871   -1.7797   22.6322 C   0  0  0  0  0  0  0  0  0  0  0  0
   10.9623   -1.7414   23.8031 O   0  0  0  0  0  0  0  0  0  0  0  0
   11.4083   -1.7331   21.5842 N   0  0  0  0  0  0  0  0  0  0  0  0
   12.8522   -1.6305   21.7361 C   0  0  0  0  0  0  0  0  0  0  0  0
   13.2954   -1.6741   23.1767 C   0  0  0  0  0  0  0  0  0  0  0  0
   13.2158   -0.5573   23.9916 C   0  0  0  0  0  0  0  0  0  0  0  0
   13.6428   -0.6637   25.3039 C   0  0  0  0  0  0  0  0  0  0  0  0
   14.1329   -1.8664   25.7638 C   0  0  0  0  0  0  0  0  0  0  0  0
   14.1777   -2.9247   24.8851 C   0  0  0  0  0  0  0  0  0  0  0  0
   13.7714   -2.8492   23.6108 N   0  0  0  0  0  0  0  0  0  0  0  0
    8.3109    2.7777   22.6646 C   0  0  0  0  0  0  0  0  0  0  0  0
    6.9960    3.5118   22.3192 C   0  0  0  0  0  0  0  0  0  0  0  0
    7.3508    4.9385   22.0769 C   0  0  0  0  0  0  0  0  0  0  0  0
    8.6758    5.1445   22.7716 C   0  0  0  0  0  0  0  0  0  0  0  0
    9.3256    3.8514   22.5670 N   0  0  0  0  0  0  0  0  0  0  0  0
   10.4923    3.6479   23.4351 C   0  0  0  0  0  0  0  0  0  0  0  0
   11.6580    4.5186   23.0333 C   0  0  0  0  0  0  0  0  0  0  0  0
   12.4393    4.2145   21.9312 C   0  0  0  0  0  0  0  0  0  0  0  0
   13.4918    5.0556   21.6139 C   0  0  0  0  0  0  0  0  0  0  0  0
   13.7342    6.1650   22.3941 C   0  0  0  0  0  0  0  0  0  0  0  0
   12.9068    6.3921   23.4702 C   0  0  0  0  0  0  0  0  0  0  0  0
   11.8817    5.5950   23.7995 N   0  0  0  0  0  0  0  0  0  0  0  0
  1  2  2  0
  2  3  1  0
  3  4  1  0
  4  5  1  0
  5  6  1  0
  6  7  2  0
  7  8  1  0
  8  9  2  0
  9 10  1  0
 10 11  2  0
  4 12  1  0
 12 13  2  0
 12 14  1  0
 14 15  2  0
 14 16  1  0
 16 17  1  0
 17 18  1  0
 18 19  2  0
 19 20  1  0
 20 21  2  0
 21 22  1  0
 22 23  2  0
  2 24  1  0
 24 25  1  0
 25 26  1  0
 26 27  1  0
 27 28  1  0
 28 29  1  0
 29 30  1  0
 30 31  2  0
 31 32  1  0
 32 33  2  0
 33 34  1  0
 34 35  2  0
 11  6  1  0
 23 18  1  0
 28 24  1  0
 35 30  1  0
M  END
