CVD-0002760|dock_bobby27042020.76|mol2|10|dock1
     RDKit          3D

 20 22  0  0  0  0  0  0  0  0999 V2000
   11.0320   -1.9477   21.4332 N   0  0  0  0  0  0  0  0  0  0  0  0
   12.1529   -1.6236   22.0583 C   0  0  0  0  0  0  0  0  0  0  0  0
   13.1313   -1.1558   21.4719 O   0  0  0  0  0  0  0  0  0  0  0  0
   12.1767   -1.8545   23.5556 C   0  0  0  0  0  0  0  0  0  0  0  0
   13.5542   -2.3543   24.0206 C   0  0  0  0  0  0  0  0  0  0  0  0
   13.9620   -1.4398   25.1740 C   0  0  0  0  0  0  0  0  0  0  0  0
   14.0052   -2.1397   26.4205 O   0  0  0  0  0  0  0  0  0  0  0  0
   13.0148   -0.4712   25.3048 C   0  0  0  0  0  0  0  0  0  0  0  0
   11.8732   -0.5829   24.4206 C   0  0  0  0  0  0  0  0  0  0  0  0
   11.5428    0.6710   23.6469 C   0  0  0  0  0  0  0  0  0  0  0  0
   12.4535    1.3986   22.9393 C   0  0  0  0  0  0  0  0  0  0  0  0
   11.7495    2.7662   22.1836 S   0  0  0  0  0  0  0  0  0  0  0  0
   10.1981    2.3919   22.8114 C   0  0  0  0  0  0  0  0  0  0  0  0
   10.2472    1.2571   23.5653 C   0  0  0  0  0  0  0  0  0  0  0  0
    9.0586    3.2532   22.5061 C   0  0  0  0  0  0  0  0  0  0  0  0
    7.7748    2.7517   22.3373 C   0  0  0  0  0  0  0  0  0  0  0  0
    6.7899    3.6757   22.0519 C   0  0  0  0  0  0  0  0  0  0  0  0
    7.0199    4.9834   21.9370 N   0  0  0  0  0  0  0  0  0  0  0  0
    8.2849    5.3467   22.1189 C   0  0  0  0  0  0  0  0  0  0  0  0
    9.3279    4.5626   22.3979 N   0  0  0  0  0  0  0  0  0  0  0  0
  1  2  1  0
  2  3  2  0
  4  2  1  0
  4  5  1  0
  5  6  1  0
  6  7  1  0
  6  8  1  0
  8  9  1  0
  9 10  1  0
 10 11  2  0
 11 12  1  0
 12 13  1  0
 13 14  2  0
 13 15  1  0
 15 16  2  0
 16 17  1  0
 17 18  2  0
 18 19  1  0
 19 20  2  0
  9  4  1  0
 14 10  1  0
 20 15  1  0
M  END
