CVD-0002831|dock_bobby27042020.32|mol2|48|dock3
     RDKit          3D

 23 24  0  0  0  0  0  0  0  0999 V2000
   12.0461   -2.6266   21.8674 N   0  0  0  0  0  0  0  0  0  0  0  0
   13.5699   -2.2302   22.1587 S   0  0  0  0  0  0  0  0  0  0  0  0
   13.9286   -2.7947   23.4283 O   0  0  0  0  0  0  0  0  0  0  0  0
   14.3400   -2.5959   21.0043 O   0  0  0  0  0  0  0  0  0  0  0  0
   13.6915   -0.4702   22.3236 C   0  0  0  0  0  0  0  0  0  0  0  0
   13.0516    0.1001   23.5885 C   0  0  0  0  0  0  0  0  0  0  0  0
   12.2565    1.3452   23.2638 C   0  0  0  0  0  0  0  0  0  0  0  0
   12.9387    2.5461   23.0871 C   0  0  0  0  0  0  0  0  0  0  0  0
   12.2614    3.7169   22.7922 C   0  0  0  0  0  0  0  0  0  0  0  0
   10.8891    3.7020   22.6704 C   0  0  0  0  0  0  0  0  0  0  0  0
   10.1956    2.5165   22.8439 C   0  0  0  0  0  0  0  0  0  0  0  0
   10.8618    1.3305   23.1413 C   0  0  0  0  0  0  0  0  0  0  0  0
   10.0655    0.0588   23.3192 C   0  0  0  0  0  0  0  0  0  0  0  0
    8.7263    0.1317   22.7179 N   0  0  0  0  0  0  0  0  0  0  0  0
    7.9110   -1.0103   23.1422 C   0  0  0  0  0  0  0  0  0  0  0  0
    6.5169   -0.9086   22.5517 C   0  0  0  0  0  0  0  0  0  0  0  0
    6.5835   -0.8496   21.0899 N   0  0  0  0  0  0  0  0  0  0  0  0
    7.4418    0.2480   20.6335 C   0  0  0  0  0  0  0  0  0  0  0  0
    8.8195    0.1354   21.2603 C   0  0  0  0  0  0  0  0  0  0  0  0
    5.9003   -1.7011   20.2889 C   0  0  0  0  0  0  0  0  0  0  0  0
    5.1772   -2.5734   20.7536 O   0  0  0  0  0  0  0  0  0  0  0  0
    6.0401   -1.5509   18.7860 C   0  0  0  0  0  0  0  0  0  0  0  0
    5.3997   -0.0120   18.1955 Cl  0  0  0  0  0  0  0  0  0  0  0  0
  1  2  1  0
  2  3  2  0
  2  4  2  0
  2  5  1  0
  5  6  1  0
  6  7  1  0
  7  8  2  0
  8  9  1  0
  9 10  2  0
 10 11  1  0
 11 12  2  0
 12 13  1  0
 13 14  1  0
 14 15  1  0
 15 16  1  0
 16 17  1  0
 17 18  1  0
 18 19  1  0
 17 20  1  0
 20 21  2  0
 20 22  1  0
 22 23  1  0
 12  7  1  0
 19 14  1  0
M  END
