CVD-0000002|dock_bobby27042020.57|mol2|33|dock3
     RDKit          3D

 48 49  0  0  0  0  0  0  0  0999 V2000
   12.3884   -1.7216   21.5807 N   0  0  0  0  0  0  0  0  0  0  0  0
   11.4085   -0.8303   22.2159 C   0  0  0  0  0  0  0  0  0  0  0  0
    9.9787   -1.2839   21.9755 C   0  0  0  0  0  0  0  0  0  0  0  0
    9.3484   -0.8920   20.9984 O   0  0  0  0  0  0  0  0  0  0  0  0
    9.4692   -2.1132   22.8890 N   0  0  0  0  0  0  0  0  0  0  0  0
    8.1100   -2.6192   22.7895 C   0  0  0  0  0  0  0  0  0  0  0  0
    7.9453   -3.9056   23.6170 C   0  0  0  0  0  0  0  0  0  0  0  0
    6.6989   -4.7011   23.3049 C   0  0  0  0  0  0  0  0  0  0  0  0
    5.6234   -4.7074   24.1799 C   0  0  0  0  0  0  0  0  0  0  0  0
    4.4763   -5.4289   23.9015 C   0  0  0  0  0  0  0  0  0  0  0  0
    4.3893   -6.1614   22.7287 C   0  0  0  0  0  0  0  0  0  0  0  0
    3.2613   -6.8756   22.4477 O   0  0  0  0  0  0  0  0  0  0  0  0
    5.4545   -6.1641   21.8429 C   0  0  0  0  0  0  0  0  0  0  0  0
    6.5953   -5.4377   22.1347 C   0  0  0  0  0  0  0  0  0  0  0  0
    7.1023   -1.5585   23.2265 C   0  0  0  0  0  0  0  0  0  0  0  0
    6.6914   -1.5240   24.3830 O   0  0  0  0  0  0  0  0  0  0  0  0
    6.7071   -0.6978   22.2815 N   0  0  0  0  0  0  0  0  0  0  0  0
    5.7469    0.3698   22.5260 C   0  0  0  0  0  0  0  0  0  0  0  0
    5.5382    1.2066   21.2604 C   0  0  0  0  0  0  0  0  0  0  0  0
    4.7142    0.5007   20.1921 C   0  0  0  0  0  0  0  0  0  0  0  0
    5.0449    0.9951   18.7975 C   0  0  0  0  0  0  0  0  0  0  0  0
    6.3757    0.5890   18.3659 N   0  0  0  0  0  0  0  0  0  0  0  0
    6.7177   -0.6293   17.9607 C   0  0  0  0  0  0  0  0  0  0  0  0
    5.8209   -1.6210   17.9172 N   0  0  0  0  0  0  0  0  0  0  0  0
    7.9629   -0.8771   17.5916 N   0  0  0  0  0  0  0  0  0  0  0  0
    6.1636    1.2741   23.6850 C   0  0  0  0  0  0  0  0  0  0  0  0
    7.3324    1.3354   24.0576 O   0  0  0  0  0  0  0  0  0  0  0  0
    5.1902    1.9805   24.2597 N   0  0  0  0  0  0  0  0  0  0  0  0
    5.4644    2.8845   25.3556 C   0  0  0  0  0  0  0  0  0  0  0  0
    6.7687    3.6403   25.1917 C   0  0  0  0  0  0  0  0  0  0  0  0
    7.5762    3.7086   26.1133 O   0  0  0  0  0  0  0  0  0  0  0  0
    6.9727    4.2046   23.9989 N   0  0  0  0  0  0  0  0  0  0  0  0
    8.1712    4.9801   23.7110 C   0  0  0  0  0  0  0  0  0  0  0  0
    9.0302    4.3074   22.6234 C   0  0  0  0  0  0  0  0  0  0  0  0
   10.5337    4.4675   22.7105 C   0  0  0  0  0  0  0  0  0  0  0  0
   11.4231    3.4705   22.3340 C   0  0  0  0  0  0  0  0  0  0  0  0
   12.7918    3.6621   22.4237 C   0  0  0  0  0  0  0  0  0  0  0  0
   13.2953    4.8545   22.8954 C   0  0  0  0  0  0  0  0  0  0  0  0
   12.4275    5.8540   23.2768 C   0  0  0  0  0  0  0  0  0  0  0  0
   11.0594    5.6603   23.1844 C   0  0  0  0  0  0  0  0  0  0  0  0
    7.8543    6.4312   23.3483 C   0  0  0  0  0  0  0  0  0  0  0  0
    8.2618    6.9170   22.2964 O   0  0  0  0  0  0  0  0  0  0  0  0
    7.1276    7.1311   24.2247 N   0  0  0  0  0  0  0  0  0  0  0  0
    6.7584    8.5268   24.0019 C   0  0  0  0  0  0  0  0  0  0  0  0
    5.4122    8.7955   24.6249 C   0  0  0  0  0  0  0  0  0  0  0  0
    4.5369    7.7765   24.1580 O   0  0  0  0  0  0  0  0  0  0  0  0
    7.8269    9.4165   24.6051 C   0  0  0  0  0  0  0  0  0  0  0  0
    8.8617    9.0182   25.0519 O   0  0  0  0  0  0  0  0  0  0  0  0
  1  2  1  0
  2  3  1  0
  3  4  2  0
  3  5  1  0
  5  6  1  0
  6  7  1  0
  7  8  1  0
  8  9  2  0
  9 10  1  0
 10 11  2  0
 11 12  1  0
 11 13  1  0
 13 14  2  0
  6 15  1  0
 15 16  2  0
 15 17  1  0
 17 18  1  0
 18 19  1  0
 19 20  1  0
 20 21  1  0
 21 22  1  0
 22 23  1  0
 23 24  1  0
 23 25  2  0
 18 26  1  0
 26 27  2  0
 26 28  1  0
 28 29  1  0
 29 30  1  0
 30 31  2  0
 30 32  1  0
 32 33  1  0
 33 34  1  0
 34 35  1  0
 35 36  2  0
 36 37  1  0
 37 38  2  0
 38 39  1  0
 39 40  2  0
 33 41  1  0
 41 42  2  0
 41 43  1  0
 43 44  1  0
 44 45  1  0
 45 46  1  0
 44 47  1  0
 47 48  2  0
 14  8  1  0
 40 35  1  0
M  END
