CVD-0003204|dock_bobby27042020.2|mol2|42|dock3
     RDKit          3D

 25 26  0  0  0  0  0  0  0  0999 V2000
   13.5728    0.1413   22.7168 C   0  0  0  0  0  0  0  0  0  0  0  0
   13.1162    1.5435   23.0271 C   0  0  0  0  0  0  0  0  0  0  0  0
   11.6828    1.7455   22.7062 N   0  0  0  0  0  0  0  0  0  0  0  0
   10.8504    0.7033   22.4188 C   0  0  0  0  0  0  0  0  0  0  0  0
    9.5997    1.1364   22.1303 C   0  0  0  0  0  0  0  0  0  0  0  0
    8.4032    0.3054   21.7707 C   0  0  0  0  0  0  0  0  0  0  0  0
    8.7339   -0.8306   20.8232 C   0  0  0  0  0  0  0  0  0  0  0  0
    7.8610   -0.8374   19.6580 N   0  0  0  0  0  0  0  0  0  0  0  0
    6.5890   -1.2368   19.7142 C   0  0  0  0  0  0  0  0  0  0  0  0
    5.8171   -1.1661   18.4295 C   0  0  0  0  0  0  0  0  0  0  0  0
    6.0762   -1.6250   20.7593 O   0  0  0  0  0  0  0  0  0  0  0  0
    9.6394    2.5646   22.2325 C   0  0  0  0  0  0  0  0  0  0  0  0
    8.6807    3.5589   22.0521 C   0  0  0  0  0  0  0  0  0  0  0  0
    9.0312    4.8962   22.2166 C   0  0  0  0  0  0  0  0  0  0  0  0
   10.3364    5.2403   22.5634 C   0  0  0  0  0  0  0  0  0  0  0  0
   11.3202    4.2717   22.7608 C   0  0  0  0  0  0  0  0  0  0  0  0
   12.7211    4.7108   23.1527 C   0  0  0  0  0  0  0  0  0  0  0  0
   13.5885    4.9337   21.9194 C   0  0  0  0  0  0  0  0  0  0  0  0
   12.6807    5.9609   23.9180 N   0  0  0  0  0  0  0  0  0  0  0  0
   12.5160    5.9523   25.2453 C   0  0  0  0  0  0  0  0  0  0  0  0
   12.5102    7.2941   25.9171 C   0  0  0  0  0  0  0  0  0  0  0  0
   12.3922    4.9088   25.8787 O   0  0  0  0  0  0  0  0  0  0  0  0
   10.9518    2.9257   22.5880 C   0  0  0  0  0  0  0  0  0  0  0  0
    8.0414    5.9278   22.0273 C   0  0  0  0  0  0  0  0  0  0  0  0
    7.2622    6.7428   21.8444 N   0  0  0  0  0  0  0  0  0  0  0  0
  1  2  1  0
  2  3  1  0
  3  4  1  0
  4  5  2  0
  5  6  1  0
  6  7  1  0
  7  8  1  0
  8  9  1  0
  9 10  1  0
  9 11  2  0
  5 12  1  0
 12 13  2  0
 13 14  1  0
 14 15  2  0
 15 16  1  0
 16 17  1  0
 17 18  1  0
 17 19  1  0
 19 20  1  0
 20 21  1  0
 20 22  2  0
 16 23  2  0
 14 24  1  0
 24 25  3  0
 23  3  1  0
 23 12  1  0
M  END
