CVD-0002917|dock_bobby27042020.89|mol2|35|dock3
     RDKit          3D

 29 32  0  0  0  0  0  0  0  0999 V2000
    9.3154   -0.4669   20.3581 O   0  0  0  0  0  0  0  0  0  0  0  0
    8.5205    0.4103   20.6863 C   0  0  0  0  0  0  0  0  0  0  0  0
    7.1796    0.3802   20.2967 N   0  0  0  0  0  0  0  0  0  0  0  0
    6.5709   -0.6112   19.5091 C   0  0  0  0  0  0  0  0  0  0  0  0
    5.9565   -0.5447   18.3021 C   0  0  0  0  0  0  0  0  0  0  0  0
    5.5253   -1.8043   17.9591 N   0  0  0  0  0  0  0  0  0  0  0  0
    5.8528   -2.7012   18.9350 C   0  0  0  0  0  0  0  0  0  0  0  0
    5.6035   -4.0219   18.9653 N   0  0  0  0  0  0  0  0  0  0  0  0
    6.0403   -4.6699   20.0556 C   0  0  0  0  0  0  0  0  0  0  0  0
    6.7099   -4.0870   21.1207 C   0  0  0  0  0  0  0  0  0  0  0  0
    7.1629   -4.9094   22.3028 C   0  0  0  0  0  0  0  0  0  0  0  0
    6.0610   -5.4166   23.1073 N   0  0  0  0  0  0  0  0  0  0  0  0
    5.4522   -6.5667   22.8039 C   0  0  0  0  0  0  0  0  0  0  0  0
    5.8073   -7.2336   21.8366 O   0  0  0  0  0  0  0  0  0  0  0  0
    4.3155   -7.0569   23.6545 C   0  0  0  0  0  0  0  0  0  0  0  0
    3.1011   -7.4879   23.1243 C   0  0  0  0  0  0  0  0  0  0  0  0
    2.0863   -7.9294   23.9574 C   0  0  0  0  0  0  0  0  0  0  0  0
    2.2641   -7.9493   25.3237 C   0  0  0  0  0  0  0  0  0  0  0  0
    3.4595   -7.5268   25.8625 C   0  0  0  0  0  0  0  0  0  0  0  0
    4.4779   -7.0839   25.0357 C   0  0  0  0  0  0  0  0  0  0  0  0
    6.9526   -2.7207   21.0581 C   0  0  0  0  0  0  0  0  0  0  0  0
    6.5193   -2.0046   19.9481 C   0  0  0  0  0  0  0  0  0  0  0  0
    8.8559    1.4932   21.4556 N   0  0  0  0  0  0  0  0  0  0  0  0
    9.5755    2.4155   22.2533 C   0  0  0  0  0  0  0  0  0  0  0  0
    8.9347    2.9931   23.3432 C   0  0  0  0  0  0  0  0  0  0  0  0
    9.6026    3.8997   24.1485 C   0  0  0  0  0  0  0  0  0  0  0  0
   10.9100    4.2379   23.8767 C   0  0  0  0  0  0  0  0  0  0  0  0
   11.5542    3.6710   22.7987 C   0  0  0  0  0  0  0  0  0  0  0  0
   10.8992    2.7624   21.9836 C   0  0  0  0  0  0  0  0  0  0  0  0
  1  2  2  0
  2  3  1  0
  3  4  1  0
  4  5  2  0
  5  6  1  0
  6  7  1  0
  7  8  2  0
  8  9  1  0
  9 10  2  0
 10 11  1  0
 11 12  1  0
 12 13  1  0
 13 14  2  0
 13 15  1  0
 15 16  2  0
 16 17  1  0
 17 18  2  0
 18 19  1  0
 19 20  2  0
 10 21  1  0
 21 22  2  0
  2 23  1  0
 23 24  1  0
 24 25  2  0
 25 26  1  0
 26 27  2  0
 27 28  1  0
 28 29  2  0
 22  4  1  0
 29 24  1  0
 22  7  1  0
 20 15  1  0
M  END
