CVD-0002471|dock_bobby27042020.77|mol2|16|dock2
     RDKit          3D

 22 24  0  0  0  0  0  0  0  0999 V2000
   13.7814    3.8126   22.6972 C   0  0  0  0  0  0  0  0  0  0  0  0
   12.5988    2.8995   22.9115 C   0  0  0  0  0  0  0  0  0  0  0  0
   12.7544    1.6539   23.4974 C   0  0  0  0  0  0  0  0  0  0  0  0
   11.6780    0.8073   23.6964 C   0  0  0  0  0  0  0  0  0  0  0  0
   10.4082    1.2065   23.3077 C   0  0  0  0  0  0  0  0  0  0  0  0
    9.3027    0.3999   23.4869 O   0  0  0  0  0  0  0  0  0  0  0  0
    9.3193   -0.9471   22.9495 C   0  0  0  0  0  0  0  0  0  0  0  0
    9.7511   -0.9066   21.4848 C   0  0  0  0  0  0  0  0  0  0  0  0
   10.0009   -2.2147   21.0717 O   0  0  0  0  0  0  0  0  0  0  0  0
    8.7424   -0.2761   20.6822 O   0  0  0  0  0  0  0  0  0  0  0  0
    7.4598   -0.9378   20.7443 C   0  0  0  0  0  0  0  0  0  0  0  0
    6.9318   -0.9216   22.1817 C   0  0  0  0  0  0  0  0  0  0  0  0
    6.7763    0.4134   22.6583 O   0  0  0  0  0  0  0  0  0  0  0  0
    7.9635   -1.6306   23.0626 C   0  0  0  0  0  0  0  0  0  0  0  0
    7.6028   -1.6614   24.4426 O   0  0  0  0  0  0  0  0  0  0  0  0
    6.5626   -0.2368   19.7745 C   0  0  0  0  0  0  0  0  0  0  0  0
    6.3976    1.1700   19.6178 C   0  0  0  0  0  0  0  0  0  0  0  0
    5.5015    1.5209   18.6532 C   0  0  0  0  0  0  0  0  0  0  0  0
    4.8529    0.1274   17.9297 S   0  0  0  0  0  0  0  0  0  0  0  0
    5.7661   -0.9228   18.9061 C   0  0  0  0  0  0  0  0  0  0  0  0
   10.2359    2.4458   22.7157 C   0  0  0  0  0  0  0  0  0  0  0  0
   11.3242    3.2777   22.5232 C   0  0  0  0  0  0  0  0  0  0  0  0
  1  2  1  0
  2  3  2  0
  3  4  1  0
  4  5  2  0
  5  6  1  0
  6  7  1  0
  7  8  1  0
  8  9  1  0
  8 10  1  0
 10 11  1  0
 11 12  1  0
 12 13  1  0
 12 14  1  0
 14 15  1  0
 11 16  1  0
 16 17  1  0
 17 18  2  0
 18 19  1  0
 19 20  1  0
  5 21  1  0
 21 22  2  0
 22  2  1  0
 14  7  1  0
 20 16  2  0
M  END
