CVD-0001989|dock_bobby27042020.22|mol2|8|dock2
     RDKit          3D

 20 22  0  0  0  0  0  0  0  0999 V2000
   14.1216   -2.5243   23.4911 C   0  0  0  0  0  0  0  0  0  0  0  0
   13.1540   -2.2906   22.3333 C   0  0  0  0  0  0  0  0  0  0  0  0
   13.8956   -2.3164   21.0108 C   0  0  0  0  0  0  0  0  0  0  0  0
   14.3374   -3.5066   20.6930 O   0  0  0  0  0  0  0  0  0  0  0  0
   14.0579   -1.3327   20.3229 O   0  0  0  0  0  0  0  0  0  0  0  0
   12.4329   -0.9543   22.4452 C   0  0  0  0  0  0  0  0  0  0  0  0
   11.0440   -0.9084   22.4901 C   0  0  0  0  0  0  0  0  0  0  0  0
   10.3594    0.2897   22.5946 C   0  0  0  0  0  0  0  0  0  0  0  0
   11.0801    1.4796   22.6574 C   0  0  0  0  0  0  0  0  0  0  0  0
   12.4858    1.4314   22.6131 C   0  0  0  0  0  0  0  0  0  0  0  0
   13.1664    0.2235   22.5080 C   0  0  0  0  0  0  0  0  0  0  0  0
   12.9807    2.7201   22.6896 N   0  0  0  0  0  0  0  0  0  0  0  0
   11.9195    3.6007   22.7822 C   0  0  0  0  0  0  0  0  0  0  0  0
   11.9403    4.9923   22.8790 C   0  0  0  0  0  0  0  0  0  0  0  0
   13.2295    5.7704   22.8997 C   0  0  0  0  0  0  0  0  0  0  0  0
   10.7182    5.6545   22.9630 C   0  0  0  0  0  0  0  0  0  0  0  0
    9.5308    4.9481   22.9478 C   0  0  0  0  0  0  0  0  0  0  0  0
    8.0270    5.8198   23.0540 Cl  0  0  0  0  0  0  0  0  0  0  0  0
    9.5021    3.5707   22.8509 C   0  0  0  0  0  0  0  0  0  0  0  0
   10.7105    2.8812   22.7669 C   0  0  0  0  0  0  0  0  0  0  0  0
  2  1  1  0
  2  3  1  0
  3  4  1  0
  3  5  2  0
  2  6  1  0
  6  7  2  0
  7  8  1  0
  8  9  2  0
  9 10  1  0
 10 11  2  0
 10 12  1  0
 12 13  1  0
 13 14  2  0
 14 15  1  0
 14 16  1  0
 16 17  2  0
 17 18  1  0
 17 19  1  0
 19 20  2  0
 11  6  1  0
 20 13  1  0
 20  9  1  0
M  END
