CVD-0000346|dock_bobby27042020.42|mol2|2|dock2
     RDKit          3D

 29 31  0  0  0  0  0  0  0  0999 V2000
    8.7579   -2.7498   23.0250 C   0  0  0  0  0  0  0  0  0  0  0  0
    8.3944   -1.5499   22.1640 C   0  0  0  0  0  0  0  0  0  0  0  0
    9.6077   -1.0395   21.3944 C   0  0  0  0  0  0  0  0  0  0  0  0
   10.8307   -0.8128   22.2567 C   0  0  0  0  0  0  0  0  0  0  0  0
   11.7349   -1.8717   22.2519 C   0  0  0  0  0  0  0  0  0  0  0  0
   12.8827   -1.8056   22.9973 C   0  0  0  0  0  0  0  0  0  0  0  0
   13.7423   -2.8594   22.9665 F   0  0  0  0  0  0  0  0  0  0  0  0
   13.1907   -0.7232   23.7664 C   0  0  0  0  0  0  0  0  0  0  0  0
   12.3001    0.3328   23.7725 C   0  0  0  0  0  0  0  0  0  0  0  0
   11.1172    0.3331   23.0291 C   0  0  0  0  0  0  0  0  0  0  0  0
   10.2807    1.5982   23.1603 C   0  0  0  0  0  0  0  0  0  0  0  0
   10.9633    2.7366   22.4527 C   0  0  0  0  0  0  0  0  0  0  0  0
   10.1680    3.9538   22.6044 N   0  0  0  0  0  0  0  0  0  0  0  0
    8.7681    3.7799   22.2227 C   0  0  0  0  0  0  0  0  0  0  0  0
    8.1881    2.5918   22.9307 C   0  0  0  0  0  0  0  0  0  0  0  0
    8.9492    1.4182   22.7000 O   0  0  0  0  0  0  0  0  0  0  0  0
   10.7461    5.1079   23.0475 C   0  0  0  0  0  0  0  0  0  0  0  0
   10.0666    6.1254   23.1741 O   0  0  0  0  0  0  0  0  0  0  0  0
   12.1936    5.2430   23.4015 C   0  0  0  0  0  0  0  0  0  0  0  0
   13.1922    5.0913   22.5702 C   0  0  0  0  0  0  0  0  0  0  0  0
    7.3167   -1.9215   21.2337 N   0  0  0  0  0  0  0  0  0  0  0  0
    6.8204   -1.0846   20.2790 C   0  0  0  0  0  0  0  0  0  0  0  0
    6.0823   -1.5919   19.2112 C   0  0  0  0  0  0  0  0  0  0  0  0
    5.5982   -0.7058   18.2660 C   0  0  0  0  0  0  0  0  0  0  0  0
    5.8553    0.6537   18.4005 C   0  0  0  0  0  0  0  0  0  0  0  0
    6.6020    1.0620   19.5018 C   0  0  0  0  0  0  0  0  0  0  0  0
    7.0778    0.2188   20.4251 N   0  0  0  0  0  0  0  0  0  0  0  0
    5.3664    1.6063   17.4344 C   0  0  0  0  0  0  0  0  0  0  0  0
    4.9756    2.3831   16.6936 N   0  0  0  0  0  0  0  0  0  0  0  0
  2  1  1  0
  2  3  1  0
  3  4  1  0
  4  5  2  0
  5  6  1  0
  6  7  1  0
  6  8  2  0
  8  9  1  0
  9 10  2  0
 11 10  1  0
 11 12  1  0
 12 13  1  0
 13 14  1  0
 14 15  1  0
 15 16  1  0
 13 17  1  0
 17 18  2  0
 17 19  1  0
 19 20  2  0
  2 21  1  0
 21 22  1  0
 22 23  2  0
 23 24  1  0
 24 25  2  0
 25 26  1  0
 26 27  2  0
 25 28  1  0
 28 29  3  0
 10  4  1  0
 16 11  1  0
 27 22  1  0
M  END
