CVD-0001660|dock_bobby27042020.94|mol2|32|dock1
     RDKit          3D

 27 29  0  0  0  0  0  0  0  0999 V2000
    8.1114    4.5835   22.2396 C   0  0  0  0  0  0  0  0  0  0  0  0
    9.2916    3.7502   22.6302 C   0  0  0  0  0  0  0  0  0  0  0  0
   10.4843    4.5632   22.7989 N   0  0  0  0  0  0  0  0  0  0  0  0
   11.7467    4.0914   22.6108 C   0  0  0  0  0  0  0  0  0  0  0  0
   12.7660    4.9397   22.1829 C   0  0  0  0  0  0  0  0  0  0  0  0
   14.0268    4.3937   22.0122 C   0  0  0  0  0  0  0  0  0  0  0  0
   14.2351    3.0488   22.2656 C   0  0  0  0  0  0  0  0  0  0  0  0
   13.1639    2.2793   22.6866 C   0  0  0  0  0  0  0  0  0  0  0  0
   13.3292    0.8069   22.9826 C   0  0  0  0  0  0  0  0  0  0  0  0
   12.0178    0.1196   23.3037 C   0  0  0  0  0  0  0  0  0  0  0  0
   11.4087    0.2900   24.5363 C   0  0  0  0  0  0  0  0  0  0  0  0
   10.2086   -0.3380   24.8225 C   0  0  0  0  0  0  0  0  0  0  0  0
    9.5992   -1.1464   23.8776 C   0  0  0  0  0  0  0  0  0  0  0  0
   10.1949   -1.3290   22.6342 C   0  0  0  0  0  0  0  0  0  0  0  0
    9.6109   -2.1294   21.6706 N   0  0  0  0  0  0  0  0  0  0  0  0
    8.4184   -2.9205   21.9058 C   0  0  0  0  0  0  0  0  0  0  0  0
    7.1671   -2.0659   21.9629 C   0  0  0  0  0  0  0  0  0  0  0  0
    6.3919   -2.1718   22.9073 O   0  0  0  0  0  0  0  0  0  0  0  0
    7.0222   -1.2305   20.9058 N   0  0  0  0  0  0  0  0  0  0  0  0
    5.9357   -0.4175   20.4980 C   0  0  0  0  0  0  0  0  0  0  0  0
    5.7989   -0.1029   19.1521 C   0  0  0  0  0  0  0  0  0  0  0  0
    4.7433    0.6898   18.7378 C   0  0  0  0  0  0  0  0  0  0  0  0
    3.8530    1.1462   19.6816 C   0  0  0  0  0  0  0  0  0  0  0  0
    3.9565    0.8623   20.9800 N   0  0  0  0  0  0  0  0  0  0  0  0
    4.9794    0.0959   21.3711 C   0  0  0  0  0  0  0  0  0  0  0  0
   11.4002   -0.6916   22.3606 C   0  0  0  0  0  0  0  0  0  0  0  0
   11.9360    2.7900   22.8592 N   0  0  0  0  0  0  0  0  0  0  0  0
  1  2  1  0
  2  3  1  0
  3  4  1  0
  4  5  2  0
  5  6  1  0
  6  7  2  0
  7  8  1  0
  8  9  1  0
  9 10  1  0
 10 11  2  0
 11 12  1  0
 12 13  2  0
 13 14  1  0
 14 15  1  0
 15 16  1  0
 16 17  1  0
 17 18  2  0
 17 19  1  0
 19 20  1  0
 20 21  2  0
 21 22  1  0
 22 23  2  0
 23 24  1  0
 24 25  2  0
 14 26  2  0
  8 27  2  0
 27  4  1  0
 26 10  1  0
 25 20  1  0
M  END
