CVD-0001247|dock_bobby27042020.10|mol2|20|dock3
     RDKit          3D

 22 24  0  0  0  0  0  0  0  0999 V2000
    6.5250   -6.0889   21.6694 C   0  0  0  0  0  0  0  0  0  0  0  0
    6.2772   -4.9437   22.6006 C   0  0  0  0  0  0  0  0  0  0  0  0
    7.1984   -3.8476   22.3506 N   0  0  0  0  0  0  0  0  0  0  0  0
    6.9569   -2.8842   21.4458 C   0  0  0  0  0  0  0  0  0  0  0  0
    6.2473   -3.2435   20.3573 N   0  0  0  0  0  0  0  0  0  0  0  0
    5.9888   -2.3059   19.4389 C   0  0  0  0  0  0  0  0  0  0  0  0
    6.4116   -0.9867   19.5476 C   0  0  0  0  0  0  0  0  0  0  0  0
    7.1434   -0.6283   20.6737 C   0  0  0  0  0  0  0  0  0  0  0  0
    7.4346   -1.5730   21.6508 C   0  0  0  0  0  0  0  0  0  0  0  0
    8.2331   -1.1573   22.8734 C   0  0  0  0  0  0  0  0  0  0  0  0
    9.7171   -1.4466   22.7744 C   0  0  0  0  0  0  0  0  0  0  0  0
   10.3498   -1.5071   21.5396 C   0  0  0  0  0  0  0  0  0  0  0  0
   11.7062   -1.7742   21.4421 C   0  0  0  0  0  0  0  0  0  0  0  0
   12.4536   -1.9865   22.5956 C   0  0  0  0  0  0  0  0  0  0  0  0
   13.9134   -2.2886   22.7696 C   0  0  0  0  0  0  0  0  0  0  0  0
   14.0188   -2.3754   24.2100 N   0  0  0  0  0  0  0  0  0  0  0  0
   12.8598   -2.1864   24.8670 C   0  0  0  0  0  0  0  0  0  0  0  0
   12.7270   -2.2115   26.0864 O   0  0  0  0  0  0  0  0  0  0  0  0
   11.8353   -1.9289   23.8317 C   0  0  0  0  0  0  0  0  0  0  0  0
   10.4709   -1.6599   23.9242 C   0  0  0  0  0  0  0  0  0  0  0  0
    6.1038   -0.0156   18.5268 C   0  0  0  0  0  0  0  0  0  0  0  0
    5.8576    0.7288   17.6962 N   0  0  0  0  0  0  0  0  0  0  0  0
  1  2  1  0
  2  3  1  0
  3  4  1  0
  4  5  2  0
  5  6  1  0
  6  7  2  0
  7  8  1  0
  8  9  2  0
  9 10  1  0
 10 11  1  0
 11 12  2  0
 12 13  1  0
 13 14  2  0
 14 15  1  0
 15 16  1  0
 16 17  1  0
 17 18  2  0
 17 19  1  0
 19 20  2  0
  7 21  1  0
 21 22  3  0
  9  4  1  0
 20 11  1  0
 19 14  1  0
M  END
