CVD-0000889|dock_bobby27042020.54|mol2|26|dock2
     RDKit          3D

 23 24  0  0  0  0  0  0  0  0999 V2000
    5.4954    1.4476   19.6920 C   0  0  0  0  0  0  0  0  0  0  0  0
    6.6403    0.4688   19.4783 C   0  0  0  0  0  0  0  0  0  0  0  0
    6.2712   -0.6500   18.5158 C   0  0  0  0  0  0  0  0  0  0  0  0
    7.1538   -0.0631   20.7669 N   0  0  0  0  0  0  0  0  0  0  0  0
    6.2349   -0.9570   21.4694 C   0  0  0  0  0  0  0  0  0  0  0  0
    8.3984    0.2601   21.2109 C   0  0  0  0  0  0  0  0  0  0  0  0
    9.1143    0.9896   20.5522 O   0  0  0  0  0  0  0  0  0  0  0  0
    8.9575   -0.2563   22.5247 C   0  0  0  0  0  0  0  0  0  0  0  0
    9.3020   -1.7507   22.4332 C   0  0  0  0  0  0  0  0  0  0  0  0
    9.9008   -2.2767   23.7299 C   0  0  0  0  0  0  0  0  0  0  0  0
   11.0540   -1.4687   24.1128 N   0  0  0  0  0  0  0  0  0  0  0  0
   10.7748   -0.0374   24.2480 C   0  0  0  0  0  0  0  0  0  0  0  0
   10.2151    0.5287   22.9451 C   0  0  0  0  0  0  0  0  0  0  0  0
    9.9420    2.0309   23.0937 C   0  0  0  0  0  0  0  0  0  0  0  0
   10.9122    2.9876   22.3988 C   0  0  0  0  0  0  0  0  0  0  0  0
   10.7215    4.4126   22.7245 C   0  0  0  0  0  0  0  0  0  0  0  0
   11.7921    5.0125   23.3329 C   0  0  0  0  0  0  0  0  0  0  0  0
   12.8622    4.1156   23.4836 C   0  0  0  0  0  0  0  0  0  0  0  0
   12.5917    2.5682   22.9085 S   0  0  0  0  0  0  0  0  0  0  0  0
   12.2653   -2.0477   24.2748 C   0  0  0  0  0  0  0  0  0  0  0  0
   12.4132   -3.2518   24.1079 O   0  0  0  0  0  0  0  0  0  0  0  0
   13.4436   -1.1740   24.6609 C   0  0  0  0  0  0  0  0  0  0  0  0
   14.9072   -2.1368   24.9019 Cl  0  0  0  0  0  0  0  0  0  0  0  0
  1  2  1  0
  2  3  1  0
  2  4  1  0
  4  5  1  0
  4  6  1  0
  6  7  2  0
  6  8  1  0
  8  9  1  0
  9 10  1  0
 10 11  1  0
 11 12  1  0
 12 13  1  0
 13 14  1  0
 14 15  1  0
 15 16  1  0
 16 17  2  0
 17 18  1  0
 18 19  2  0
 11 20  1  0
 20 21  2  0
 20 22  1  0
 22 23  1  0
 13  8  1  0
 19 15  1  0
M  END
