CVD-0000340|dock_bobby27042020.27|mol2|28|dock3
     RDKit          3D

 28 31  0  0  0  0  0  0  0  0999 V2000
    4.8196    0.8432   20.9685 C   0  0  0  0  0  0  0  0  0  0  0  0
    5.7103    0.7573   19.7563 C   0  0  0  0  0  0  0  0  0  0  0  0
    5.3369    1.4925   18.6335 C   0  0  0  0  0  0  0  0  0  0  0  0
    6.0698    1.4081   17.4691 C   0  0  0  0  0  0  0  0  0  0  0  0
    7.1470    0.6388   17.3382 N   0  0  0  0  0  0  0  0  0  0  0  0
    7.5335   -0.0413   18.4202 C   0  0  0  0  0  0  0  0  0  0  0  0
    6.8807   -0.0211   19.6590 C   0  0  0  0  0  0  0  0  0  0  0  0
    7.4749   -0.8230   20.7656 C   0  0  0  0  0  0  0  0  0  0  0  0
    6.7249   -1.7659   21.5305 C   0  0  0  0  0  0  0  0  0  0  0  0
    7.2934   -2.4888   22.5181 C   0  0  0  0  0  0  0  0  0  0  0  0
    8.6765   -2.3577   22.8642 C   0  0  0  0  0  0  0  0  0  0  0  0
    9.1998   -3.0451   23.7398 O   0  0  0  0  0  0  0  0  0  0  0  0
    9.3964   -1.3945   22.1188 N   0  0  0  0  0  0  0  0  0  0  0  0
    8.7915   -0.6754   21.1070 C   0  0  0  0  0  0  0  0  0  0  0  0
   10.7995   -1.1269   22.3632 C   0  0  0  0  0  0  0  0  0  0  0  0
   11.6575   -2.1867   22.6336 C   0  0  0  0  0  0  0  0  0  0  0  0
   12.9982   -1.9572   22.8841 C   0  0  0  0  0  0  0  0  0  0  0  0
   13.4965   -0.6681   22.8702 C   0  0  0  0  0  0  0  0  0  0  0  0
   12.6637    0.4088   22.5934 C   0  0  0  0  0  0  0  0  0  0  0  0
   11.3162    0.1682   22.3261 C   0  0  0  0  0  0  0  0  0  0  0  0
   13.2716    1.7834   22.5962 C   0  0  0  0  0  0  0  0  0  0  0  0
   14.4700    1.9014   22.3581 O   0  0  0  0  0  0  0  0  0  0  0  0
   12.4804    2.8803   22.8644 N   0  0  0  0  0  0  0  0  0  0  0  0
   12.8934    4.1885   22.8986 C   0  0  0  0  0  0  0  0  0  0  0  0
   13.6211    4.9938   22.0444 C   0  0  0  0  0  0  0  0  0  0  0  0
   13.6877    6.2517   22.6882 C   0  0  0  0  0  0  0  0  0  0  0  0
   13.0311    6.1416   23.8352 C   0  0  0  0  0  0  0  0  0  0  0  0
   12.5228    4.8810   24.0062 O   0  0  0  0  0  0  0  0  0  0  0  0
  1  2  1  0
  2  3  2  0
  3  4  1  0
  4  5  2  0
  5  6  1  0
  6  7  2  0
  7  8  1  0
  8  9  1  0
  9 10  2  0
 10 11  1  0
 11 12  2  0
 11 13  1  0
 13 14  1  0
 13 15  1  0
 15 16  2  0
 16 17  1  0
 17 18  2  0
 18 19  1  0
 19 20  2  0
 19 21  1  0
 21 22  2  0
 21 23  1  0
 23 24  1  0
 24 25  2  0
 25 26  1  0
 26 27  2  0
 27 28  1  0
  7  2  1  0
 14  8  2  0
 20 15  1  0
 28 24  1  0
M  END
