CVD-0002279|dock_bobby27042020.64|mol2|5|dock3
     RDKit          3D

 40 43  0  0  0  0  0  0  0  0999 V2000
    5.1764    1.5651   20.6986 C   0  0  0  0  0  0  0  0  0  0  0  0
    5.7466    0.3943   19.9149 C   0  0  0  0  0  0  0  0  0  0  0  0
    6.2971    0.8468   18.5727 C   0  0  0  0  0  0  0  0  0  0  0  0
    6.8217   -0.2568   20.7000 N   0  0  0  0  0  0  0  0  0  0  0  0
    6.9083   -1.6978   20.5436 C   0  0  0  0  0  0  0  0  0  0  0  0
    6.4561   -2.4513   21.7414 N   0  0  0  0  0  0  0  0  0  0  0  0
    6.8126   -3.8679   21.6412 C   0  0  0  0  0  0  0  0  0  0  0  0
    6.2464   -4.6670   22.7854 C   0  0  0  0  0  0  0  0  0  0  0  0
    6.7226   -4.6402   24.1086 C   0  0  0  0  0  0  0  0  0  0  0  0
    5.9700   -5.4901   24.8965 C   0  0  0  0  0  0  0  0  0  0  0  0
    6.1645   -5.7254   26.3474 C   0  0  0  0  0  0  0  0  0  0  0  0
    5.0746   -5.4687   27.1811 C   0  0  0  0  0  0  0  0  0  0  0  0
    5.1800   -5.6064   28.5550 C   0  0  0  0  0  0  0  0  0  0  0  0
    6.3673   -6.0070   29.1258 C   0  0  0  0  0  0  0  0  0  0  0  0
    7.4537   -6.3063   28.3235 C   0  0  0  0  0  0  0  0  0  0  0  0
    7.3203   -6.1897   26.9601 C   0  0  0  0  0  0  0  0  0  0  0  0
    8.3775   -6.5708   26.2109 F   0  0  0  0  0  0  0  0  0  0  0  0
    5.0105   -6.0815   24.0298 N   0  0  0  0  0  0  0  0  0  0  0  0
    5.1897   -5.5655   22.7522 C   0  0  0  0  0  0  0  0  0  0  0  0
    3.7982   -7.2387   24.2927 S   0  0  0  0  0  0  0  0  0  0  0  0
    3.3622   -7.1176   25.6488 O   0  0  0  0  0  0  0  0  0  0  0  0
    4.3629   -8.4754   23.8492 O   0  0  0  0  0  0  0  0  0  0  0  0
    2.4844   -6.8349   23.1932 C   0  0  0  0  0  0  0  0  0  0  0  0
    2.0083   -5.5371   23.1184 C   0  0  0  0  0  0  0  0  0  0  0  0
    0.9711   -5.2643   22.2433 C   0  0  0  0  0  0  0  0  0  0  0  0
    0.4559   -6.2917   21.4859 C   0  0  0  0  0  0  0  0  0  0  0  0
    0.9036   -7.5466   21.5487 N   0  0  0  0  0  0  0  0  0  0  0  0
    1.9047   -7.8032   22.3956 C   0  0  0  0  0  0  0  0  0  0  0  0
    7.6954    0.3568   21.5201 C   0  0  0  0  0  0  0  0  0  0  0  0
    7.6130    1.5619   21.6619 O   0  0  0  0  0  0  0  0  0  0  0  0
    8.7859   -0.3739   22.2850 C   0  0  0  0  0  0  0  0  0  0  0  0
   10.0609   -0.4702   21.4565 C   0  0  0  0  0  0  0  0  0  0  0  0
   11.1544   -1.1655   22.2409 C   0  0  0  0  0  0  0  0  0  0  0  0
   11.4023   -0.4518   23.4909 N   0  0  0  0  0  0  0  0  0  0  0  0
   10.2207   -0.3809   24.3436 C   0  0  0  0  0  0  0  0  0  0  0  0
    9.0882    0.3273   23.6074 C   0  0  0  0  0  0  0  0  0  0  0  0
   12.6146   -0.1298   23.9857 C   0  0  0  0  0  0  0  0  0  0  0  0
   12.7470    0.4877   25.0349 O   0  0  0  0  0  0  0  0  0  0  0  0
   13.8128   -0.5799   23.1733 C   0  0  0  0  0  0  0  0  0  0  0  0
   13.8292   -2.3371   22.9751 Cl  0  0  0  0  0  0  0  0  0  0  0  0
  1  2  1  0
  2  3  1  0
  2  4  1  0
  4  5  1  0
  5  6  1  0
  6  7  1  0
  7  8  1  0
  8  9  1  0
  9 10  2  0
 10 11  1  0
 11 12  2  0
 12 13  1  0
 13 14  2  0
 14 15  1  0
 15 16  2  0
 16 17  1  0
 10 18  1  0
 18 19  1  0
 18 20  1  0
 20 21  2  0
 20 22  2  0
 20 23  1  0
 23 24  2  0
 24 25  1  0
 25 26  2  0
 26 27  1  0
 27 28  2  0
  4 29  1  0
 29 30  2  0
 29 31  1  0
 31 32  1  0
 32 33  1  0
 33 34  1  0
 34 35  1  0
 35 36  1  0
 34 37  1  0
 37 38  2  0
 37 39  1  0
 39 40  1  0
 19  8  2  0
 28 23  1  0
 36 31  1  0
 16 11  1  0
M  END
