CVD-0003029|dock_bobby27042020.75|mol2|12|dock2
     RDKit          3D

 28 31  0  0  0  0  0  0  0  0999 V2000
    4.3843   -6.9329   26.3535 C   0  0  0  0  0  0  0  0  0  0  0  0
    4.9677   -6.2006   25.1741 C   0  0  0  0  0  0  0  0  0  0  0  0
    5.9799   -5.2632   25.3680 C   0  0  0  0  0  0  0  0  0  0  0  0
    6.5295   -4.5757   24.2998 C   0  0  0  0  0  0  0  0  0  0  0  0
    7.5298   -3.6667   24.5913 O   0  0  0  0  0  0  0  0  0  0  0  0
    8.0752   -2.9863   23.5290 C   0  0  0  0  0  0  0  0  0  0  0  0
    9.1551   -1.9804   23.6455 C   0  0  0  0  0  0  0  0  0  0  0  0
    9.7540   -1.6491   24.6601 O   0  0  0  0  0  0  0  0  0  0  0  0
    9.3847   -1.5154   22.4007 N   0  0  0  0  0  0  0  0  0  0  0  0
   10.3188   -0.4345   22.0795 C   0  0  0  0  0  0  0  0  0  0  0  0
   11.6663   -0.5832   22.7638 C   0  0  0  0  0  0  0  0  0  0  0  0
   12.2865   -1.9395   22.5347 C   0  0  0  0  0  0  0  0  0  0  0  0
   12.9180   -2.0137   21.2665 O   0  0  0  0  0  0  0  0  0  0  0  0
    8.5639   -2.1766   21.3934 C   0  0  0  0  0  0  0  0  0  0  0  0
    7.7393   -3.1120   22.2435 C   0  0  0  0  0  0  0  0  0  0  0  0
    6.6883   -4.0559   21.8640 C   0  0  0  0  0  0  0  0  0  0  0  0
    6.3372   -4.2133   20.6995 O   0  0  0  0  0  0  0  0  0  0  0  0
    6.0838   -4.8022   22.9888 C   0  0  0  0  0  0  0  0  0  0  0  0
    5.0717   -5.7387   22.7894 C   0  0  0  0  0  0  0  0  0  0  0  0
    4.5359   -6.4148   23.8694 C   0  0  0  0  0  0  0  0  0  0  0  0
    3.2762   -7.5694   23.5792 Cl  0  0  0  0  0  0  0  0  0  0  0  0
    7.7372   -1.1933   20.5790 C   0  0  0  0  0  0  0  0  0  0  0  0
    6.5369   -0.6982   21.0690 C   0  0  0  0  0  0  0  0  0  0  0  0
    5.7777    0.1940   20.3331 C   0  0  0  0  0  0  0  0  0  0  0  0
    6.2282    0.5920   19.0925 C   0  0  0  0  0  0  0  0  0  0  0  0
    5.1940    1.8169   18.0737 Br  0  0  0  0  0  0  0  0  0  0  0  0
    7.4155    0.1170   18.5777 C   0  0  0  0  0  0  0  0  0  0  0  0
    8.1631   -0.7747   19.3261 C   0  0  0  0  0  0  0  0  0  0  0  0
  1  2  1  0
  2  3  2  0
  3  4  1  0
  4  5  1  0
  5  6  1  0
  6  7  1  0
  7  8  2  0
  7  9  1  0
  9 10  1  0
 10 11  1  0
 11 12  1  0
 12 13  1  0
  9 14  1  0
 14 15  1  0
 15 16  1  0
 16 17  2  0
 16 18  1  0
 18 19  1  0
 19 20  2  0
 20 21  1  0
 14 22  1  0
 22 23  2  0
 23 24  1  0
 24 25  2  0
 25 26  1  0
 25 27  1  0
 27 28  2  0
 20  2  1  0
 28 22  1  0
 18  4  2  0
 15  6  2  0
M  END
