CVD-0001557|dock_bobby27042020.95|mol2|1|dock1
     RDKit          3D

 33 37  0  0  0  0  0  0  0  0999 V2000
    9.0616    2.2057   21.2980 O   0  0  0  0  0  0  0  0  0  0  0  0
    9.5161    1.5152   22.2049 C   0  0  0  0  0  0  0  0  0  0  0  0
   10.9204    1.7394   22.7397 C   0  0  0  0  0  0  0  0  0  0  0  0
   11.5821    0.4697   23.0420 N   0  0  0  0  0  0  0  0  0  0  0  0
   11.4470   -0.5435   22.1346 C   0  0  0  0  0  0  0  0  0  0  0  0
   11.9947   -1.7602   22.2815 C   0  0  0  0  0  0  0  0  0  0  0  0
   12.7578   -1.9370   23.4934 C   0  0  0  0  0  0  0  0  0  0  0  0
   13.4298   -3.0607   23.9050 O   0  0  0  0  0  0  0  0  0  0  0  0
   14.0530   -2.8155   25.1496 C   0  0  0  0  0  0  0  0  0  0  0  0
   13.6864   -1.4567   25.4208 N   0  0  0  0  0  0  0  0  0  0  0  0
   12.9030   -0.9292   24.4152 C   0  0  0  0  0  0  0  0  0  0  0  0
   12.3032    0.3828   24.2407 C   0  0  0  0  0  0  0  0  0  0  0  0
   12.3950    1.2951   25.0387 O   0  0  0  0  0  0  0  0  0  0  0  0
    8.8297    0.5338   22.7948 N   0  0  0  0  0  0  0  0  0  0  0  0
    7.4700    0.2039   22.4006 C   0  0  0  0  0  0  0  0  0  0  0  0
    7.4033   -0.5309   21.0575 C   0  0  0  0  0  0  0  0  0  0  0  0
    6.1224   -0.3452   20.2291 C   0  0  0  0  0  0  0  0  0  0  0  0
    6.0646    0.9630   19.4153 C   0  0  0  0  0  0  0  0  0  0  0  0
    5.4497    0.5819   18.0750 C   0  0  0  0  0  0  0  0  0  0  0  0
    5.6325   -0.8563   18.0273 N   0  0  0  0  0  0  0  0  0  0  0  0
    5.9445   -1.4254   19.1943 C   0  0  0  0  0  0  0  0  0  0  0  0
    6.0989   -2.6292   19.3779 O   0  0  0  0  0  0  0  0  0  0  0  0
    6.8231   -0.6350   23.4981 C   0  0  0  0  0  0  0  0  0  0  0  0
    6.1203   -0.1377   24.3610 O   0  0  0  0  0  0  0  0  0  0  0  0
    7.0805   -2.1541   23.4722 C   0  0  0  0  0  0  0  0  0  0  0  0
    8.2071   -2.6043   23.6749 O   0  0  0  0  0  0  0  0  0  0  0  0
    6.0019   -2.9011   23.2177 N   0  0  0  0  0  0  0  0  0  0  0  0
    5.9531   -4.3728   23.1327 C   0  0  0  0  0  0  0  0  0  0  0  0
    6.4034   -5.2807   24.2991 C   0  0  0  0  0  0  0  0  0  0  0  0
    5.5770   -6.3335   23.4987 C   0  0  0  0  0  0  0  0  0  0  0  0
    4.6179   -5.1580   23.1527 C   0  0  0  0  0  0  0  0  0  0  0  0
    6.4061   -6.4950   22.1939 C   0  0  0  0  0  0  0  0  0  0  0  0
    6.6825   -4.9796   21.9256 C   0  0  0  0  0  0  0  0  0  0  0  0
  1  2  2  0
  2  3  1  0
  3  4  1  0
  4  5  1  0
  5  6  2  0
  6  7  1  0
  7  8  1  0
  8  9  1  0
  9 10  1  0
 10 11  1  0
 11 12  1  0
 12 13  2  0
  2 14  1  0
 14 15  1  0
 15 16  1  0
 16 17  1  0
 17 18  1  0
 18 19  1  0
 19 20  1  0
 20 21  1  0
 21 22  2  0
 15 23  1  0
 23 24  2  0
 23 25  1  0
 25 26  2  0
 25 27  1  0
 27 28  1  0
 28 29  1  0
 29 30  1  0
 30 31  1  0
 30 32  1  0
 32 33  1  0
 12  4  1  0
 21 17  1  0
 31 28  1  0
 11  7  2  0
 33 28  1  0
M  END
