CVD-0002765|dock_bobby27042020.4|mol2|30|dock3
     RDKit          3D

 32 35  0  0  0  0  0  0  0  0999 V2000
    5.3332    2.2999   18.1259 N   0  0  0  0  0  0  0  0  0  0  0  0
    5.9441    1.0003   18.4275 C   0  0  0  0  0  0  0  0  0  0  0  0
    4.9599   -0.1473   18.3192 C   0  0  0  0  0  0  0  0  0  0  0  0
    5.6348   -1.4782   18.6259 C   0  0  0  0  0  0  0  0  0  0  0  0
    6.3067   -1.4692   19.9857 C   0  0  0  0  0  0  0  0  0  0  0  0
    7.2865   -0.3113   20.0972 C   0  0  0  0  0  0  0  0  0  0  0  0
    6.5880    1.0276   19.8068 C   0  0  0  0  0  0  0  0  0  0  0  0
    7.9713   -0.2563   21.4474 C   0  0  0  0  0  0  0  0  0  0  0  0
    7.4435    0.2981   22.4078 O   0  0  0  0  0  0  0  0  0  0  0  0
    9.1659   -0.8411   21.5334 N   0  0  0  0  0  0  0  0  0  0  0  0
    9.9386   -0.8695   22.7688 C   0  0  0  0  0  0  0  0  0  0  0  0
   11.3798   -0.4399   22.5534 C   0  0  0  0  0  0  0  0  0  0  0  0
   12.5096   -0.9176   23.4259 C   0  0  0  0  0  0  0  0  0  0  0  0
   11.8583    0.4001   23.7026 C   0  0  0  0  0  0  0  0  0  0  0  0
   12.6201    1.6690   23.3803 C   0  0  0  0  0  0  0  0  0  0  0  0
   13.8350    1.6652   23.4352 O   0  0  0  0  0  0  0  0  0  0  0  0
   11.9193    2.8576   23.0253 N   0  0  0  0  0  0  0  0  0  0  0  0
   10.4895    3.0074   22.9219 C   0  0  0  0  0  0  0  0  0  0  0  0
    9.7854    2.0603   23.2475 O   0  0  0  0  0  0  0  0  0  0  0  0
    9.9823    4.1964   22.4587 N   0  0  0  0  0  0  0  0  0  0  0  0
    8.6420    4.6140   22.2503 C   0  0  0  0  0  0  0  0  0  0  0  0
    8.4467    5.8996   21.7575 C   0  0  0  0  0  0  0  0  0  0  0  0
    7.1700    6.3826   21.5266 C   0  0  0  0  0  0  0  0  0  0  0  0
    6.0722    5.5923   21.7832 C   0  0  0  0  0  0  0  0  0  0  0  0
    6.2503    4.3169   22.2717 C   0  0  0  0  0  0  0  0  0  0  0  0
    7.5230    3.8227   22.5066 C   0  0  0  0  0  0  0  0  0  0  0  0
   12.6719    4.0597   22.7339 C   0  0  0  0  0  0  0  0  0  0  0  0
   12.7110    5.1237   23.6258 C   0  0  0  0  0  0  0  0  0  0  0  0
   13.4436    6.2520   23.3020 C   0  0  0  0  0  0  0  0  0  0  0  0
   14.1115    6.2797   22.0994 C   0  0  0  0  0  0  0  0  0  0  0  0
   14.0889    5.2715   21.2269 N   0  0  0  0  0  0  0  0  0  0  0  0
   13.3785    4.1861   21.5488 C   0  0  0  0  0  0  0  0  0  0  0  0
  2  1  1  0
  2  3  1  0
  3  4  1  0
  4  5  1  0
  5  6  1  0
  6  7  1  0
  6  8  1  0
  8  9  2  0
  8 10  1  0
 10 11  1  0
 12 11  1  0
 12 13  1  0
 13 14  1  0
 14 15  1  0
 15 16  2  0
 15 17  1  0
 17 18  1  0
 18 19  2  0
 18 20  1  0
 20 21  1  0
 21 22  2  0
 22 23  1  0
 23 24  2  0
 24 25  1  0
 25 26  2  0
 17 27  1  0
 27 28  2  0
 28 29  1  0
 29 30  2  0
 30 31  1  0
 31 32  2  0
  7  2  1  0
 14 12  1  0
 26 21  1  0
 32 27  1  0
M  END
