CVD-0002356|dock_bobby27042020.20|mol2|23|dock2
     RDKit          3D

 38 42  0  0  0  0  0  0  0  0999 V2000
    8.7734    5.9130   22.2978 C   0  0  0  0  0  0  0  0  0  0  0  0
    9.0340    4.5020   22.5945 N   0  0  0  0  0  0  0  0  0  0  0  0
    7.8634    3.6277   22.4632 C   0  0  0  0  0  0  0  0  0  0  0  0
    8.2177    2.1833   22.7004 C   0  0  0  0  0  0  0  0  0  0  0  0
    9.1193    1.4920   22.0493 C   0  0  0  0  0  0  0  0  0  0  0  0
    9.2711    0.0914   22.6043 C   0  0  0  0  0  0  0  0  0  0  0  0
   10.5744   -0.1160   23.2763 N   0  0  0  0  0  0  0  0  0  0  0  0
   10.8641   -1.4743   23.7886 C   0  0  0  0  0  0  0  0  0  0  0  0
   11.7631   -2.1975   22.8169 C   0  0  0  0  0  0  0  0  0  0  0  0
   13.0543   -1.4434   22.6413 C   0  0  0  0  0  0  0  0  0  0  0  0
   12.9262    0.0623   22.6778 C   0  0  0  0  0  0  0  0  0  0  0  0
   14.0578    0.8414   22.4567 C   0  0  0  0  0  0  0  0  0  0  0  0
   14.0201    2.2171   22.5344 C   0  0  0  0  0  0  0  0  0  0  0  0
   12.8166    2.8240   22.8416 C   0  0  0  0  0  0  0  0  0  0  0  0
   11.6686    2.0773   23.0680 C   0  0  0  0  0  0  0  0  0  0  0  0
   11.7164    0.6854   22.9870 C   0  0  0  0  0  0  0  0  0  0  0  0
   12.7042    4.5878   22.8357 S   0  0  0  0  0  0  0  0  0  0  0  0
   14.1421    5.1864   22.4655 N   0  0  0  0  0  0  0  0  0  0  0  0
   12.4050    5.0017   24.1737 O   0  0  0  0  0  0  0  0  0  0  0  0
   11.8079    4.9557   21.7810 O   0  0  0  0  0  0  0  0  0  0  0  0
    8.1626    0.1010   23.7043 C   0  0  0  0  0  0  0  0  0  0  0  0
    7.6082    1.3017   23.6439 C   0  0  0  0  0  0  0  0  0  0  0  0
    7.7337   -1.0632   24.5429 C   0  0  0  0  0  0  0  0  0  0  0  0
    6.8254   -1.9980   24.0328 C   0  0  0  0  0  0  0  0  0  0  0  0
    6.4472   -3.1090   24.7676 C   0  0  0  0  0  0  0  0  0  0  0  0
    6.9462   -3.3136   26.0330 C   0  0  0  0  0  0  0  0  0  0  0  0
    7.8255   -2.3984   26.5798 C   0  0  0  0  0  0  0  0  0  0  0  0
    8.1917   -1.3012   25.8364 C   0  0  0  0  0  0  0  0  0  0  0  0
    9.0393   -0.4412   26.4443 F   0  0  0  0  0  0  0  0  0  0  0  0
    9.0411   -1.2312   21.3153 S   0  0  0  0  0  0  0  0  0  0  0  0
   10.1609   -1.0286   20.4390 O   0  0  0  0  0  0  0  0  0  0  0  0
    8.9662   -2.5329   21.9178 O   0  0  0  0  0  0  0  0  0  0  0  0
    7.6242   -0.9900   20.2872 C   0  0  0  0  0  0  0  0  0  0  0  0
    7.5397    0.1487   19.5028 C   0  0  0  0  0  0  0  0  0  0  0  0
    6.4243    0.3244   18.7024 C   0  0  0  0  0  0  0  0  0  0  0  0
    5.4418   -0.6389   18.7152 C   0  0  0  0  0  0  0  0  0  0  0  0
    5.5087   -1.7429   19.4598 N   0  0  0  0  0  0  0  0  0  0  0  0
    6.5921   -1.9083   20.2244 C   0  0  0  0  0  0  0  0  0  0  0  0
  1  2  1  0
  2  3  1  0
  3  4  1  0
  4  5  2  0
  5  6  1  0
  6  7  1  0
  7  8  1  0
  8  9  1  0
  9 10  1  0
 10 11  1  0
 11 12  2  0
 12 13  1  0
 13 14  2  0
 14 15  1  0
 15 16  2  0
 14 17  1  0
 17 18  1  0
 17 19  2  0
 17 20  2  0
  6 21  1  0
 21 22  2  0
 21 23  1  0
 23 24  2  0
 24 25  1  0
 25 26  2  0
 26 27  1  0
 27 28  2  0
 28 29  1  0
  6 30  1  0
 30 31  2  0
 30 32  2  0
 30 33  1  0
 33 34  2  0
 34 35  1  0
 35 36  2  0
 36 37  1  0
 37 38  2  0
 22  4  1  0
 28 23  1  0
 38 33  1  0
 16  7  1  0
 16 11  1  0
M  END
