CVD-0002372|dock_bobby27042020.77|mol2|31|dock2
     RDKit          3D

 38 42  0  0  0  0  0  0  0  0999 V2000
    8.9839    7.6180   24.3711 C   0  0  0  0  0  0  0  0  0  0  0  0
    8.8315    6.5440   23.3919 N   0  0  0  0  0  0  0  0  0  0  0  0
    7.6493    6.4695   22.5144 C   0  0  0  0  0  0  0  0  0  0  0  0
    6.8584    5.2708   22.8535 C   0  0  0  0  0  0  0  0  0  0  0  0
    7.5359    4.0778   23.1351 C   0  0  0  0  0  0  0  0  0  0  0  0
    9.0227    4.1533   23.1665 C   0  0  0  0  0  0  0  0  0  0  0  0
    9.8260    3.0158   22.9583 C   0  0  0  0  0  0  0  0  0  0  0  0
    9.2549    1.7604   22.8814 N   0  0  0  0  0  0  0  0  0  0  0  0
    9.8312    0.6367   22.1676 C   0  0  0  0  0  0  0  0  0  0  0  0
    8.8078   -0.3125   21.6020 C   0  0  0  0  0  0  0  0  0  0  0  0
    8.4546   -1.5537   22.1606 C   0  0  0  0  0  0  0  0  0  0  0  0
    7.4842   -2.1659   21.3879 C   0  0  0  0  0  0  0  0  0  0  0  0
    6.8486   -3.4893   21.6260 C   0  0  0  0  0  0  0  0  0  0  0  0
    5.5782   -3.5899   22.2028 C   0  0  0  0  0  0  0  0  0  0  0  0
    4.9985   -4.8231   22.4503 C   0  0  0  0  0  0  0  0  0  0  0  0
    5.6494   -5.9851   22.1045 C   0  0  0  0  0  0  0  0  0  0  0  0
    6.8941   -5.9231   21.5070 C   0  0  0  0  0  0  0  0  0  0  0  0
    7.4618   -4.6907   21.2867 C   0  0  0  0  0  0  0  0  0  0  0  0
    8.6864   -4.6899   20.7118 F   0  0  0  0  0  0  0  0  0  0  0  0
    7.2180   -1.2622   20.3224 N   0  0  0  0  0  0  0  0  0  0  0  0
    8.0327   -0.1449   20.4643 C   0  0  0  0  0  0  0  0  0  0  0  0
    6.1312   -1.3611   19.0239 S   0  0  0  0  0  0  0  0  0  0  0  0
    6.9234   -1.3642   17.8333 O   0  0  0  0  0  0  0  0  0  0  0  0
    5.2432   -2.4434   19.3153 O   0  0  0  0  0  0  0  0  0  0  0  0
    5.2030    0.1331   19.0687 C   0  0  0  0  0  0  0  0  0  0  0  0
    4.5189    0.4982   20.2154 C   0  0  0  0  0  0  0  0  0  0  0  0
    3.8055    1.6844   20.2085 C   0  0  0  0  0  0  0  0  0  0  0  0
    3.8065    2.4513   19.0653 C   0  0  0  0  0  0  0  0  0  0  0  0
    4.4623    2.1129   17.9543 N   0  0  0  0  0  0  0  0  0  0  0  0
    5.1492    0.9667   17.9678 C   0  0  0  0  0  0  0  0  0  0  0  0
   11.2137    3.1326   22.9094 C   0  0  0  0  0  0  0  0  0  0  0  0
   11.8022    4.3756   23.0672 C   0  0  0  0  0  0  0  0  0  0  0  0
   11.0378    5.5096   23.2733 C   0  0  0  0  0  0  0  0  0  0  0  0
    9.6520    5.3841   23.3206 C   0  0  0  0  0  0  0  0  0  0  0  0
   13.5630    4.5165   23.0106 S   0  0  0  0  0  0  0  0  0  0  0  0
   13.9380    5.9470   22.3975 N   0  0  0  0  0  0  0  0  0  0  0  0
   14.0372    4.4974   24.3619 O   0  0  0  0  0  0  0  0  0  0  0  0
   14.0421    3.5246   22.0954 O   0  0  0  0  0  0  0  0  0  0  0  0
  1  2  1  0
  2  3  1  0
  3  4  1  0
  4  5  1  0
  5  6  1  0
  6  7  2  0
  7  8  1  0
  8  9  1  0
  9 10  1  0
 10 11  1  0
 11 12  2  0
 12 13  1  0
 13 14  2  0
 14 15  1  0
 15 16  2  0
 16 17  1  0
 17 18  2  0
 18 19  1  0
 12 20  1  0
 20 21  1  0
 20 22  1  0
 22 23  2  0
 22 24  2  0
 22 25  1  0
 25 26  2  0
 26 27  1  0
 27 28  2  0
 28 29  1  0
 29 30  2  0
  7 31  1  0
 31 32  2  0
 32 33  1  0
 33 34  2  0
 32 35  1  0
 35 36  1  0
 35 37  2  0
 35 38  2  0
 34  2  1  0
 34  6  1  0
 21 10  2  0
 30 25  1  0
 18 13  1  0
M  END
