CVD-0000920|dock_bobby27042020.11|mol2|24|dock2
     RDKit          3D

 35 39  0  0  0  0  0  0  0  0999 V2000
   10.2044    6.4289   23.6032 C   0  0  0  0  0  0  0  0  0  0  0  0
    9.9663    5.0038   23.1680 C   0  0  0  0  0  0  0  0  0  0  0  0
   11.0024    4.1978   22.7292 C   0  0  0  0  0  0  0  0  0  0  0  0
   10.7806    2.8836   22.3592 C   0  0  0  0  0  0  0  0  0  0  0  0
    9.5085    2.3041   22.4083 C   0  0  0  0  0  0  0  0  0  0  0  0
    9.1888    0.8734   22.0175 C   0  0  0  0  0  0  0  0  0  0  0  0
    9.5878   -0.1862   23.0783 C   0  0  0  0  0  0  0  0  0  0  0  0
   10.8183    0.0803   23.9317 C   0  0  0  0  0  0  0  0  0  0  0  0
   12.1855   -0.7203   23.0880 S   0  0  0  0  0  0  0  0  0  0  0  0
   12.8817    0.2534   22.2910 O   0  0  0  0  0  0  0  0  0  0  0  0
   12.9563   -1.5100   24.0100 O   0  0  0  0  0  0  0  0  0  0  0  0
   11.1803   -1.7638   22.0259 C   0  0  0  0  0  0  0  0  0  0  0  0
    9.7485   -1.5932   22.4867 C   0  0  0  0  0  0  0  0  0  0  0  0
    9.3834   -2.6683   23.4241 N   0  0  0  0  0  0  0  0  0  0  0  0
   10.2780   -3.1851   24.4773 C   0  0  0  0  0  0  0  0  0  0  0  0
    9.4578   -4.2192   25.2098 C   0  0  0  0  0  0  0  0  0  0  0  0
    8.1579   -4.3463   24.4742 C   0  0  0  0  0  0  0  0  0  0  0  0
    8.2188   -3.3012   23.3997 C   0  0  0  0  0  0  0  0  0  0  0  0
    7.3269   -3.0535   22.5980 O   0  0  0  0  0  0  0  0  0  0  0  0
    7.8913    0.8088   21.3168 N   0  0  0  0  0  0  0  0  0  0  0  0
    7.6751    0.0200   20.1542 C   0  0  0  0  0  0  0  0  0  0  0  0
    8.5696   -0.5273   19.5329 O   0  0  0  0  0  0  0  0  0  0  0  0
    6.2816   -0.1964   19.5878 C   0  0  0  0  0  0  0  0  0  0  0  0
    6.2763   -1.3907   18.2824 Cl  0  0  0  0  0  0  0  0  0  0  0  0
    6.8416    1.5311   21.7435 C   0  0  0  0  0  0  0  0  0  0  0  0
    5.7164    1.5062   21.2871 O   0  0  0  0  0  0  0  0  0  0  0  0
    7.1083    2.4399   22.9145 C   0  0  0  0  0  0  0  0  0  0  0  0
    6.9020    1.6769   24.2225 C   0  0  0  0  0  0  0  0  0  0  0  0
    5.8074    0.8356   24.3685 C   0  0  0  0  0  0  0  0  0  0  0  0
    5.5996    0.1348   25.5448 C   0  0  0  0  0  0  0  0  0  0  0  0
    6.4834    0.2646   26.5942 C   0  0  0  0  0  0  0  0  0  0  0  0
    7.5754    1.0956   26.4672 C   0  0  0  0  0  0  0  0  0  0  0  0
    7.7835    1.7965   25.2911 C   0  0  0  0  0  0  0  0  0  0  0  0
    8.4613    3.1113   22.8496 C   0  0  0  0  0  0  0  0  0  0  0  0
    8.7088    4.4327   23.2172 C   0  0  0  0  0  0  0  0  0  0  0  0
  1  2  1  0
  2  3  2  0
  3  4  1  0
  4  5  2  0
  5  6  1  0
  6  7  1  0
  7  8  1  0
  8  9  1  0
  9 10  2  0
  9 11  2  0
  9 12  1  0
 12 13  1  0
 13 14  1  0
 14 15  1  0
 15 16  1  0
 16 17  1  0
 17 18  1  0
 18 19  2  0
  6 20  1  0
 20 21  1  0
 21 22  2  0
 21 23  1  0
 23 24  1  0
 20 25  1  0
 25 26  2  0
 25 27  1  0
 27 28  1  0
 28 29  2  0
 29 30  1  0
 30 31  2  0
 31 32  1  0
 32 33  2  0
 27 34  1  0
 34 35  2  0
 35  2  1  0
 34  5  1  0
 13  7  1  0
 18 14  1  0
 33 28  1  0
M  END
