CVD-0003688|dock_bobby27042020.87|mol2|11|dock1
     RDKit          3D

 23 24  0  0  0  0  0  0  0  0999 V2000
   14.1742    6.5062   22.6830 N   0  0  0  0  0  0  0  0  0  0  0  0
   13.6927    5.4022   23.2321 C   0  0  0  0  0  0  0  0  0  0  0  0
   14.1105    4.9556   24.3043 O   0  0  0  0  0  0  0  0  0  0  0  0
   12.5912    4.7030   22.4745 C   0  0  0  0  0  0  0  0  0  0  0  0
   12.0306    3.4853   23.1956 C   0  0  0  0  0  0  0  0  0  0  0  0
   11.0421    2.7043   22.3471 C   0  0  0  0  0  0  0  0  0  0  0  0
   10.4817    1.4867   23.0682 C   0  0  0  0  0  0  0  0  0  0  0  0
    9.7172    0.5667   22.1455 C   0  0  0  0  0  0  0  0  0  0  0  0
    9.6552    0.7919   20.9434 O   0  0  0  0  0  0  0  0  0  0  0  0
    9.1112   -0.5040   22.6969 N   0  0  0  0  0  0  0  0  0  0  0  0
    8.3469   -1.4757   21.9118 C   0  0  0  0  0  0  0  0  0  0  0  0
    8.8600   -2.8814   22.1635 C   0  0  0  0  0  0  0  0  0  0  0  0
    8.7750   -3.2045   23.5908 N   0  0  0  0  0  0  0  0  0  0  0  0
    9.2336   -4.5798   23.8349 C   0  0  0  0  0  0  0  0  0  0  0  0
    9.0092   -5.0439   25.2544 C   0  0  0  0  0  0  0  0  0  0  0  0
   10.0527   -5.0620   26.1669 C   0  0  0  0  0  0  0  0  0  0  0  0
    9.8497   -5.4895   27.4687 C   0  0  0  0  0  0  0  0  0  0  0  0
    8.5947   -5.9074   27.8779 C   0  0  0  0  0  0  0  0  0  0  0  0
    7.5800   -5.8820   26.9606 C   0  0  0  0  0  0  0  0  0  0  0  0
    6.3416   -6.2901   27.3482 F   0  0  0  0  0  0  0  0  0  0  0  0
    7.7502   -5.4639   25.6638 C   0  0  0  0  0  0  0  0  0  0  0  0
    9.5878   -2.2530   24.3441 C   0  0  0  0  0  0  0  0  0  0  0  0
    9.0955   -0.8340   24.1254 C   0  0  0  0  0  0  0  0  0  0  0  0
  1  2  1  0
  2  3  2  0
  2  4  1  0
  4  5  1  0
  5  6  1  0
  6  7  1  0
  7  8  1  0
  8  9  2  0
  8 10  1  0
 10 11  1  0
 11 12  1  0
 12 13  1  0
 13 14  1  0
 14 15  1  0
 15 16  2  0
 16 17  1  0
 17 18  2  0
 18 19  1  0
 19 20  1  0
 19 21  2  0
 13 22  1  0
 22 23  1  0
 23 10  1  0
 21 15  1  0
M  END
