CVD-0003649|dock_bobby27042020.87|mol2|17|dock2
     RDKit          3D

 31 34  0  0  0  0  0  0  0  0999 V2000
   12.8943    6.4319   25.3533 O   0  0  0  0  0  0  0  0  0  0  0  0
   12.9000    6.3665   24.1257 N   0  0  0  0  0  0  0  0  0  0  0  0
   13.4492    7.1786   23.4007 O   0  0  0  0  0  0  0  0  0  0  0  0
   12.2019    5.2403   23.4915 C   0  0  0  0  0  0  0  0  0  0  0  0
   12.9235    4.1376   23.0729 C   0  0  0  0  0  0  0  0  0  0  0  0
   12.2672    3.0581   22.5133 C   0  0  0  0  0  0  0  0  0  0  0  0
   10.8815    3.0774   22.3673 C   0  0  0  0  0  0  0  0  0  0  0  0
   10.1566    4.2393   22.7138 C   0  0  0  0  0  0  0  0  0  0  0  0
   10.8294    5.2982   23.3176 C   0  0  0  0  0  0  0  0  0  0  0  0
    8.7305    4.4153   22.4691 N   0  0  0  0  0  0  0  0  0  0  0  0
    7.9709    3.4535   22.5599 O   0  0  0  0  0  0  0  0  0  0  0  0
    8.3381    5.5165   22.1224 O   0  0  0  0  0  0  0  0  0  0  0  0
   10.2765    1.8705   21.8840 N   0  0  0  0  0  0  0  0  0  0  0  0
    9.2049    2.0120   21.0162 N   0  0  0  0  0  0  0  0  0  0  0  0
    8.7862    0.7667   20.7705 C   0  0  0  0  0  0  0  0  0  0  0  0
    9.5718   -0.1694   21.4584 C   0  0  0  0  0  0  0  0  0  0  0  0
   10.5230    0.5444   22.1607 C   0  0  0  0  0  0  0  0  0  0  0  0
   11.5721   -0.0440   23.0231 C   0  0  0  0  0  0  0  0  0  0  0  0
   12.2011   -1.2125   22.6054 C   0  0  0  0  0  0  0  0  0  0  0  0
   13.1762   -1.8194   23.3765 C   0  0  0  0  0  0  0  0  0  0  0  0
   13.5302   -1.2497   24.5797 C   0  0  0  0  0  0  0  0  0  0  0  0
   14.8559   -2.0841   25.6539 Br  0  0  0  0  0  0  0  0  0  0  0  0
   12.9393   -0.0842   25.0163 C   0  0  0  0  0  0  0  0  0  0  0  0
   11.9731    0.5201   24.2315 C   0  0  0  0  0  0  0  0  0  0  0  0
    7.6415    0.5295   19.8773 C   0  0  0  0  0  0  0  0  0  0  0  0
    7.6522   -0.5298   18.9769 C   0  0  0  0  0  0  0  0  0  0  0  0
    6.5781   -0.7572   18.1349 C   0  0  0  0  0  0  0  0  0  0  0  0
    5.5035    0.0864   18.2094 C   0  0  0  0  0  0  0  0  0  0  0  0
    4.4450   -0.1329   17.3836 F   0  0  0  0  0  0  0  0  0  0  0  0
    5.4480    1.1414   19.0791 C   0  0  0  0  0  0  0  0  0  0  0  0
    6.5272    1.3602   19.9168 C   0  0  0  0  0  0  0  0  0  0  0  0
  1  2  1  0
  2  3  2  0
  2  4  1  0
  4  5  2  0
  5  6  1  0
  6  7  2  0
  7  8  1  0
  8  9  2  0
  8 10  1  0
 10 11  1  0
 10 12  2  0
  7 13  1  0
 13 14  1  0
 14 15  2  0
 15 16  1  0
 16 17  2  0
 17 18  1  0
 18 19  2  0
 19 20  1  0
 20 21  2  0
 21 22  1  0
 21 23  1  0
 23 24  2  0
 15 25  1  0
 25 26  2  0
 26 27  1  0
 27 28  2  0
 28 29  1  0
 28 30  1  0
 30 31  2  0
  9  4  1  0
 17 13  1  0
 24 18  1  0
 31 25  1  0
M  CHG  4   1  -1   2   1  10   1  11  -1
M  END
