CVD-0000068|dock_bobby27042020.57|mol2|22|dock3
     RDKit          3D

 17 18  0  0  0  0  0  0  0  0999 V2000
   13.6740   -1.5245   21.2485 C   0  0  0  0  0  0  0  0  0  0  0  0
   13.0513   -1.9453   22.5550 C   0  0  0  0  0  0  0  0  0  0  0  0
   13.8929   -2.2624   23.6170 C   0  0  0  0  0  0  0  0  0  0  0  0
   13.3557   -2.6583   24.8211 C   0  0  0  0  0  0  0  0  0  0  0  0
   12.0466   -2.7507   25.0358 N   0  0  0  0  0  0  0  0  0  0  0  0
   11.2284   -2.4281   24.0294 C   0  0  0  0  0  0  0  0  0  0  0  0
   11.6607   -2.0341   22.7622 C   0  0  0  0  0  0  0  0  0  0  0  0
   10.7963   -1.7148   21.6763 N   0  0  0  0  0  0  0  0  0  0  0  0
    9.5462   -1.1342   21.7091 C   0  0  0  0  0  0  0  0  0  0  0  0
    8.9799   -0.7969   22.7444 O   0  0  0  0  0  0  0  0  0  0  0  0
    8.9062   -0.9513   20.5014 N   0  0  0  0  0  0  0  0  0  0  0  0
    7.6428   -0.4231   20.1275 C   0  0  0  0  0  0  0  0  0  0  0  0
    6.5271   -0.4206   20.9606 C   0  0  0  0  0  0  0  0  0  0  0  0
    5.3287    0.1230   20.5285 C   0  0  0  0  0  0  0  0  0  0  0  0
    5.2195    0.6510   19.2610 C   0  0  0  0  0  0  0  0  0  0  0  0
    6.3097    0.6341   18.4193 C   0  0  0  0  0  0  0  0  0  0  0  0
    7.5140    0.0994   18.8454 C   0  0  0  0  0  0  0  0  0  0  0  0
  1  2  1  0
  2  3  2  0
  3  4  1  0
  4  5  2  0
  5  6  1  0
  6  7  2  0
  7  8  1  0
  8  9  1  0
  9 10  2  0
  9 11  1  0
 11 12  1  0
 12 13  2  0
 13 14  1  0
 14 15  2  0
 15 16  1  0
 16 17  2  0
  7  2  1  0
 17 12  1  0
M  END
