CVD-0003128|dock_bobby27042020.89|mol2|2|dock2
     RDKit          3D

 18 21  0  0  0  0  0  0  0  0999 V2000
   14.2843   -2.4104   23.2720 O   0  0  0  0  0  0  0  0  0  0  0  0
   13.5272   -1.4658   23.2085 C   0  0  0  0  0  0  0  0  0  0  0  0
   13.0143   -0.6976   24.3940 C   0  0  0  0  0  0  0  0  0  0  0  0
   11.4983   -0.4704   24.2681 C   0  0  0  0  0  0  0  0  0  0  0  0
   10.7443   -1.7793   24.0331 C   0  0  0  0  0  0  0  0  0  0  0  0
   10.7180   -1.9567   22.4976 C   0  0  0  0  0  0  0  0  0  0  0  0
   11.4897   -0.7578   21.9517 C   0  0  0  0  0  0  0  0  0  0  0  0
   12.9974   -1.0188   21.8790 C   0  0  0  0  0  0  0  0  0  0  0  0
   11.2355    0.2528   22.9989 N   0  0  0  0  0  0  0  0  0  0  0  0
   11.6406    1.5492   22.8471 C   0  0  0  0  0  0  0  0  0  0  0  0
   12.9724    1.6953   22.7461 N   0  0  0  0  0  0  0  0  0  0  0  0
   13.4055    2.9544   22.6398 C   0  0  0  0  0  0  0  0  0  0  0  0
   12.7100    4.0896   22.6083 N   0  0  0  0  0  0  0  0  0  0  0  0
   11.3837    3.9125   22.6794 C   0  0  0  0  0  0  0  0  0  0  0  0
   10.4286    4.8854   22.6526 N   0  0  0  0  0  0  0  0  0  0  0  0
    9.1988    4.2799   22.7359 C   0  0  0  0  0  0  0  0  0  0  0  0
    9.3421    2.9351   22.8203 C   0  0  0  0  0  0  0  0  0  0  0  0
   10.7544    2.6666   22.7945 C   0  0  0  0  0  0  0  0  0  0  0  0
  1  2  2  0
  2  3  1  0
  4  3  1  0
  4  5  1  0
  5  6  1  0
  7  6  1  0
  7  8  1  0
  7  9  1  0
  9 10  1  0
 10 11  2  0
 11 12  1  0
 12 13  2  0
 13 14  1  0
 14 15  1  0
 15 16  1  0
 16 17  2  0
 17 18  1  0
  8  2  1  0
 18 10  1  0
  9  4  1  0
 18 14  2  0
M  END
