CVD-0000343|dock_bobby27042020.84|mol2|33|dock2
     RDKit          3D

 29 32  0  0  0  0  0  0  0  0999 V2000
    6.6964    1.5673   20.7949 C   0  0  0  0  0  0  0  0  0  0  0  0
    6.1243    0.6171   19.7751 C   0  0  0  0  0  0  0  0  0  0  0  0
    5.2887    1.1533   18.7976 C   0  0  0  0  0  0  0  0  0  0  0  0
    4.7843    0.3524   17.7955 C   0  0  0  0  0  0  0  0  0  0  0  0
    5.0561   -0.9455   17.6911 N   0  0  0  0  0  0  0  0  0  0  0  0
    5.8265   -1.4755   18.6442 C   0  0  0  0  0  0  0  0  0  0  0  0
    6.3805   -0.7670   19.7176 C   0  0  0  0  0  0  0  0  0  0  0  0
    7.1932   -1.5331   20.7042 C   0  0  0  0  0  0  0  0  0  0  0  0
    6.7680   -2.7760   21.2618 C   0  0  0  0  0  0  0  0  0  0  0  0
    7.5191   -3.4410   22.1643 C   0  0  0  0  0  0  0  0  0  0  0  0
    8.7850   -2.9494   22.6179 C   0  0  0  0  0  0  0  0  0  0  0  0
    9.4496   -3.5401   23.4678 O   0  0  0  0  0  0  0  0  0  0  0  0
    9.2063   -1.7333   22.0303 N   0  0  0  0  0  0  0  0  0  0  0  0
    8.4128   -1.0692   21.1156 C   0  0  0  0  0  0  0  0  0  0  0  0
   10.4741   -1.1179   22.3687 C   0  0  0  0  0  0  0  0  0  0  0  0
   11.5748   -1.9329   22.6067 C   0  0  0  0  0  0  0  0  0  0  0  0
   12.7869   -1.3554   22.9159 C   0  0  0  0  0  0  0  0  0  0  0  0
   14.1613   -2.3826   23.2135 Cl  0  0  0  0  0  0  0  0  0  0  0  0
   12.9436    0.0117   22.9958 C   0  0  0  0  0  0  0  0  0  0  0  0
   11.8464    0.8409   22.7699 C   0  0  0  0  0  0  0  0  0  0  0  0
   10.6146    0.2647   22.4685 C   0  0  0  0  0  0  0  0  0  0  0  0
   11.9222    2.3427   22.8369 C   0  0  0  0  0  0  0  0  0  0  0  0
   10.9005    2.9611   23.1216 O   0  0  0  0  0  0  0  0  0  0  0  0
   13.1249    2.9751   22.5792 N   0  0  0  0  0  0  0  0  0  0  0  0
   13.4044    4.3222   22.5877 C   0  0  0  0  0  0  0  0  0  0  0  0
   13.3160    5.2756   23.5834 C   0  0  0  0  0  0  0  0  0  0  0  0
   13.7417    6.4854   22.9867 C   0  0  0  0  0  0  0  0  0  0  0  0
   14.0491    6.2132   21.7265 C   0  0  0  0  0  0  0  0  0  0  0  0
   13.8553    4.8885   21.4379 O   0  0  0  0  0  0  0  0  0  0  0  0
  1  2  1  0
  2  3  2  0
  3  4  1  0
  4  5  2  0
  5  6  1  0
  6  7  2  0
  7  8  1  0
  8  9  1  0
  9 10  2  0
 10 11  1  0
 11 12  2  0
 11 13  1  0
 13 14  1  0
 13 15  1  0
 15 16  2  0
 16 17  1  0
 17 18  1  0
 17 19  2  0
 19 20  1  0
 20 21  2  0
 20 22  1  0
 22 23  2  0
 22 24  1  0
 24 25  1  0
 25 26  2  0
 26 27  1  0
 27 28  2  0
 28 29  1  0
  7  2  1  0
 14  8  2  0
 21 15  1  0
 29 25  1  0
M  END
