CVD-0002650|dock_bobby27042020.33|mol2|28|dock3
     RDKit          3D

 30 32  0  0  0  0  0  0  0  0999 V2000
   13.9449    4.2795   21.4584 C   0  0  0  0  0  0  0  0  0  0  0  0
   13.4522    4.6971   22.8128 C   0  0  0  0  0  0  0  0  0  0  0  0
   14.1437    4.5321   23.8119 O   0  0  0  0  0  0  0  0  0  0  0  0
   12.2183    5.2659   22.7952 N   0  0  0  0  0  0  0  0  0  0  0  0
   11.4206    5.7985   23.8453 C   0  0  0  0  0  0  0  0  0  0  0  0
   11.9271    6.5430   24.9100 C   0  0  0  0  0  0  0  0  0  0  0  0
   11.1737    7.0423   25.8949 N   0  0  0  0  0  0  0  0  0  0  0  0
    9.8643    6.8103   25.8524 C   0  0  0  0  0  0  0  0  0  0  0  0
    9.2570    6.0878   24.8492 C   0  0  0  0  0  0  0  0  0  0  0  0
   10.0338    5.5670   23.8201 C   0  0  0  0  0  0  0  0  0  0  0  0
    9.3244    4.7771   22.7409 C   0  0  0  0  0  0  0  0  0  0  0  0
    8.2208    3.8640   23.2589 C   0  0  0  0  0  0  0  0  0  0  0  0
    7.9201    2.7129   22.3195 C   0  0  0  0  0  0  0  0  0  0  0  0
    8.9948    1.7301   22.2995 N   0  0  0  0  0  0  0  0  0  0  0  0
    8.8057    0.4335   21.9825 C   0  0  0  0  0  0  0  0  0  0  0  0
    7.1640   -0.0141   21.5879 S   0  0  0  0  0  0  0  0  0  0  0  0
    7.2490    0.0372   19.7792 C   0  0  0  0  0  0  0  0  0  0  0  0
    7.0738    1.3847   19.3733 O   0  0  0  0  0  0  0  0  0  0  0  0
    6.0434    1.4702   18.3755 C   0  0  0  0  0  0  0  0  0  0  0  0
    5.1563    0.2721   18.6180 C   0  0  0  0  0  0  0  0  0  0  0  0
    4.3036    0.4534   19.7493 O   0  0  0  0  0  0  0  0  0  0  0  0
    6.1618   -0.7892   19.0616 C   0  0  0  0  0  0  0  0  0  0  0  0
    6.8019   -1.3557   17.9224 O   0  0  0  0  0  0  0  0  0  0  0  0
    9.7112   -0.4837   21.9448 N   0  0  0  0  0  0  0  0  0  0  0  0
   11.1305   -0.2724   22.2551 C   0  0  0  0  0  0  0  0  0  0  0  0
   11.9929   -1.4456   21.7463 C   0  0  0  0  0  0  0  0  0  0  0  0
   13.4663   -1.2901   22.1179 C   0  0  0  0  0  0  0  0  0  0  0  0
   13.6414   -1.0825   23.6167 C   0  0  0  0  0  0  0  0  0  0  0  0
   12.8133    0.0959   24.1084 C   0  0  0  0  0  0  0  0  0  0  0  0
   11.3377   -0.0863   23.7679 C   0  0  0  0  0  0  0  0  0  0  0  0
  1  2  1  0
  2  3  2  0
  2  4  1  0
  4  5  1  0
  5  6  2  0
  6  7  1  0
  7  8  2  0
  8  9  1  0
  9 10  2  0
 10 11  1  0
 11 12  1  0
 12 13  1  0
 13 14  1  0
 14 15  1  0
 15 16  1  0
 16 17  1  0
 17 18  1  0
 18 19  1  0
 19 20  1  0
 20 21  1  0
 20 22  1  0
 22 23  1  0
 15 24  2  0
 24 25  1  0
 25 26  1  0
 26 27  1  0
 27 28  1  0
 28 29  1  0
 29 30  1  0
 10  5  1  0
 22 17  1  0
 30 25  1  0
M  END
