CVD-0001529|dock_bobby27042020.95|mol2|5|dock1
     RDKit          3D

 22 24  0  0  0  0  0  0  0  0999 V2000
   11.9986    3.7442   22.4232 C   0  0  0  0  0  0  0  0  0  0  0  0
   12.1955    2.5102   23.1820 N   0  0  0  0  0  0  0  0  0  0  0  0
   13.4018    1.8143   22.7248 C   0  0  0  0  0  0  0  0  0  0  0  0
   13.6241    0.5558   23.5430 C   0  0  0  0  0  0  0  0  0  0  0  0
   12.4616   -0.3296   23.4456 N   0  0  0  0  0  0  0  0  0  0  0  0
   11.2273    0.3566   23.8398 C   0  0  0  0  0  0  0  0  0  0  0  0
   11.0453    1.6238   23.0244 C   0  0  0  0  0  0  0  0  0  0  0  0
   12.5551   -1.6203   23.0650 C   0  0  0  0  0  0  0  0  0  0  0  0
   13.6317   -2.1317   22.7840 O   0  0  0  0  0  0  0  0  0  0  0  0
   11.2658   -2.4216   22.9858 C   0  0  0  0  0  0  0  0  0  0  0  0
   10.3357   -1.8483   22.0107 N   0  0  0  0  0  0  0  0  0  0  0  0
    8.9901   -2.4220   22.0820 C   0  0  0  0  0  0  0  0  0  0  0  0
    7.9730   -1.5785   21.3893 C   0  0  0  0  0  0  0  0  0  0  0  0
    6.7268   -1.1947   21.7880 C   0  0  0  0  0  0  0  0  0  0  0  0
    6.1687   -0.3870   20.7460 C   0  0  0  0  0  0  0  0  0  0  0  0
    4.9563    0.2908   20.5500 C   0  0  0  0  0  0  0  0  0  0  0  0
    4.7294    1.0043   19.3862 C   0  0  0  0  0  0  0  0  0  0  0  0
    5.6844    1.0730   18.3808 C   0  0  0  0  0  0  0  0  0  0  0  0
    5.4222    1.8588   17.1192 C   0  0  0  0  0  0  0  0  0  0  0  0
    6.8895    0.4077   18.5628 C   0  0  0  0  0  0  0  0  0  0  0  0
    7.1293   -0.3127   19.7278 C   0  0  0  0  0  0  0  0  0  0  0  0
    8.2220   -1.0487   20.1454 N   0  0  0  0  0  0  0  0  0  0  0  0
  1  2  1  0
  2  3  1  0
  3  4  1  0
  4  5  1  0
  5  6  1  0
  6  7  1  0
  5  8  1  0
  8  9  2  0
  8 10  1  0
 10 11  1  0
 11 12  1  0
 12 13  1  0
 13 14  2  0
 14 15  1  0
 15 16  2  0
 16 17  1  0
 17 18  2  0
 18 19  1  0
 18 20  1  0
 20 21  2  0
 21 22  1  0
  7  2  1  0
 22 13  1  0
 21 15  1  0
M  END
