CVD-0001246|dock_bobby27042020.24|mol2|30|dock2
     RDKit          3D

 22 24  0  0  0  0  0  0  0  0999 V2000
   12.7788   -2.1583   23.5923 C   0  0  0  0  0  0  0  0  0  0  0  0
   13.2056   -1.7858   22.2069 C   0  0  0  0  0  0  0  0  0  0  0  0
   12.1181   -1.1737   21.4617 N   0  0  0  0  0  0  0  0  0  0  0  0
   11.4732   -0.0756   21.8929 C   0  0  0  0  0  0  0  0  0  0  0  0
   12.2299    0.7590   22.6316 N   0  0  0  0  0  0  0  0  0  0  0  0
   11.6606    1.8727   23.1016 C   0  0  0  0  0  0  0  0  0  0  0  0
   10.3356    2.2176   22.8682 C   0  0  0  0  0  0  0  0  0  0  0  0
    9.5483    1.3634   22.1033 C   0  0  0  0  0  0  0  0  0  0  0  0
   10.1150    0.1932   21.6020 C   0  0  0  0  0  0  0  0  0  0  0  0
    9.3531   -0.6666   20.8419 N   0  0  0  0  0  0  0  0  0  0  0  0
    7.9188   -0.8389   20.9840 C   0  0  0  0  0  0  0  0  0  0  0  0
    7.1112   -0.0175   20.0078 C   0  0  0  0  0  0  0  0  0  0  0  0
    7.4200    0.2680   18.7105 C   0  0  0  0  0  0  0  0  0  0  0  0
    6.4409    1.0406   18.1477 N   0  0  0  0  0  0  0  0  0  0  0  0
    5.4643    1.2734   19.0849 C   0  0  0  0  0  0  0  0  0  0  0  0
    4.2774    1.9938   19.0050 C   0  0  0  0  0  0  0  0  0  0  0  0
    3.4679    2.0627   20.1273 C   0  0  0  0  0  0  0  0  0  0  0  0
    3.8321    1.4300   21.2985 C   0  0  0  0  0  0  0  0  0  0  0  0
    5.0145    0.7116   21.3803 C   0  0  0  0  0  0  0  0  0  0  0  0
    5.8532    0.6212   20.2705 C   0  0  0  0  0  0  0  0  0  0  0  0
    9.7821    3.4361   23.4054 C   0  0  0  0  0  0  0  0  0  0  0  0
    9.3423    4.4137   23.8000 N   0  0  0  0  0  0  0  0  0  0  0  0
  1  2  1  0
  2  3  1  0
  3  4  1  0
  4  5  2  0
  5  6  1  0
  6  7  2  0
  7  8  1  0
  8  9  2  0
  9 10  1  0
 10 11  1  0
 11 12  1  0
 12 13  2  0
 13 14  1  0
 14 15  1  0
 15 16  2  0
 16 17  1  0
 17 18  2  0
 18 19  1  0
 19 20  2  0
  7 21  1  0
 21 22  3  0
  9  4  1  0
 20 12  1  0
 20 15  1  0
M  END
