CVD-0001241|dock_bobby27042020.96|mol2|3|dock3
     RDKit          3D

 21 23  0  0  0  0  0  0  0  0999 V2000
    6.9107   -0.0043   18.8758 C   0  0  0  0  0  0  0  0  0  0  0  0
    6.8190   -0.5982   20.2465 C   0  0  0  0  0  0  0  0  0  0  0  0
    8.1057   -0.5706   20.9225 N   0  0  0  0  0  0  0  0  0  0  0  0
    8.6702    0.5634   21.3719 C   0  0  0  0  0  0  0  0  0  0  0  0
    7.8229    1.6001   21.5201 N   0  0  0  0  0  0  0  0  0  0  0  0
    8.3103    2.7376   22.0233 C   0  0  0  0  0  0  0  0  0  0  0  0
    9.6426    2.9151   22.3733 C   0  0  0  0  0  0  0  0  0  0  0  0
   10.5293    1.8600   22.1844 C   0  0  0  0  0  0  0  0  0  0  0  0
   10.0486    0.6569   21.6707 C   0  0  0  0  0  0  0  0  0  0  0  0
   10.8929   -0.4388   21.4351 N   0  0  0  0  0  0  0  0  0  0  0  0
   11.9246   -1.0086   22.2113 C   0  0  0  0  0  0  0  0  0  0  0  0
   12.7886   -1.9881   21.7228 C   0  0  0  0  0  0  0  0  0  0  0  0
   13.7784   -2.5332   22.5218 C   0  0  0  0  0  0  0  0  0  0  0  0
   13.9190   -2.0800   23.8272 C   0  0  0  0  0  0  0  0  0  0  0  0
   14.7991   -2.4372   24.8194 N   0  0  0  0  0  0  0  0  0  0  0  0
   14.5268   -1.6856   25.9369 C   0  0  0  0  0  0  0  0  0  0  0  0
   13.4883   -0.8497   25.6918 C   0  0  0  0  0  0  0  0  0  0  0  0
   13.0761   -1.0838   24.3425 C   0  0  0  0  0  0  0  0  0  0  0  0
   12.0759   -0.5495   23.5176 C   0  0  0  0  0  0  0  0  0  0  0  0
   10.1037    4.1675   22.9198 C   0  0  0  0  0  0  0  0  0  0  0  0
   10.4470    5.1562   23.3774 N   0  0  0  0  0  0  0  0  0  0  0  0
  1  2  1  0
  2  3  1  0
  3  4  1  0
  4  5  2  0
  5  6  1  0
  6  7  2  0
  7  8  1  0
  8  9  2  0
  9 10  1  0
 10 11  1  0
 11 12  2  0
 12 13  1  0
 13 14  2  0
 14 15  1  0
 15 16  1  0
 16 17  2  0
 17 18  1  0
 18 19  2  0
  7 20  1  0
 20 21  3  0
  9  4  1  0
 19 11  1  0
 18 14  1  0
M  END
