CVD-0000400|dock_bobby27042020.13|mol2|10|dock1
     RDKit          3D

 24 27  0  0  0  0  0  0  0  0999 V2000
    4.8502    0.6065   19.3662 C   0  0  0  0  0  0  0  0  0  0  0  0
    5.2643   -0.8089   18.9932 C   0  0  0  0  0  0  0  0  0  0  0  0
    6.6352   -1.1784   19.5053 C   0  0  0  0  0  0  0  0  0  0  0  0
    7.7612   -1.3563   18.7547 C   0  0  0  0  0  0  0  0  0  0  0  0
    8.8240   -1.6856   19.5513 N   0  0  0  0  0  0  0  0  0  0  0  0
    8.3926   -1.7260   20.8536 C   0  0  0  0  0  0  0  0  0  0  0  0
    9.0834   -2.0103   22.0344 C   0  0  0  0  0  0  0  0  0  0  0  0
   10.4373   -2.3077   21.8732 O   0  0  0  0  0  0  0  0  0  0  0  0
   11.4391   -1.5922   22.4690 C   0  0  0  0  0  0  0  0  0  0  0  0
   11.3557   -0.2176   22.3267 C   0  0  0  0  0  0  0  0  0  0  0  0
   12.3410    0.5661   22.9143 C   0  0  0  0  0  0  0  0  0  0  0  0
   13.3600   -0.0635   23.6160 C   0  0  0  0  0  0  0  0  0  0  0  0
   13.3424   -1.4405   23.6954 C   0  0  0  0  0  0  0  0  0  0  0  0
   12.3996   -2.2095   23.1351 N   0  0  0  0  0  0  0  0  0  0  0  0
   12.2981    2.0283   22.7910 C   0  0  0  0  0  0  0  0  0  0  0  0
   11.2569    2.8777   22.5702 C   0  0  0  0  0  0  0  0  0  0  0  0
   11.6916    4.1786   22.5300 N   0  0  0  0  0  0  0  0  0  0  0  0
   12.9946    4.1114   22.7268 C   0  0  0  0  0  0  0  0  0  0  0  0
   13.4049    2.8405   22.8885 N   0  0  0  0  0  0  0  0  0  0  0  0
    8.4109   -1.9904   23.2466 C   0  0  0  0  0  0  0  0  0  0  0  0
    7.0705   -1.6799   23.2254 C   0  0  0  0  0  0  0  0  0  0  0  0
    6.4089   -1.6571   24.4138 F   0  0  0  0  0  0  0  0  0  0  0  0
    6.3514   -1.3912   22.0891 C   0  0  0  0  0  0  0  0  0  0  0  0
    7.0218   -1.4135   20.8677 C   0  0  0  0  0  0  0  0  0  0  0  0
  1  2  1  0
  2  3  1  0
  3  4  2  0
  4  5  1  0
  5  6  1  0
  6  7  2  0
  7  8  1  0
  8  9  1  0
  9 10  2  0
 10 11  1  0
 11 12  2  0
 12 13  1  0
 13 14  2  0
 11 15  1  0
 15 16  2  0
 16 17  1  0
 17 18  2  0
 18 19  1  0
  7 20  1  0
 20 21  2  0
 21 22  1  0
 21 23  1  0
 23 24  2  0
 24  3  1  0
 24  6  1  0
 14  9  1  0
 19 15  1  0
M  END
