CVD-0002576|dock_bobby27042020.19|mol2|21|dock3
     RDKit          3D

 37 40  0  0  0  0  0  0  0  0999 V2000
    4.9970    1.4608   19.4951 C   0  0  0  0  0  0  0  0  0  0  0  0
    5.0190   -0.0034   19.4456 N   0  0  0  0  0  0  0  0  0  0  0  0
    6.3519   -0.5843   19.2521 C   0  0  0  0  0  0  0  0  0  0  0  0
    7.1256   -0.6456   20.5429 C   0  0  0  0  0  0  0  0  0  0  0  0
    8.4054   -0.8945   20.6654 C   0  0  0  0  0  0  0  0  0  0  0  0
    8.8677   -0.7975   22.1040 C   0  0  0  0  0  0  0  0  0  0  0  0
    9.7216    0.3130   22.3282 O   0  0  0  0  0  0  0  0  0  0  0  0
    9.2901    1.5757   22.1539 C   0  0  0  0  0  0  0  0  0  0  0  0
    8.1598    1.9161   21.8436 O   0  0  0  0  0  0  0  0  0  0  0  0
   10.3788    2.5751   22.3883 C   0  0  0  0  0  0  0  0  0  0  0  0
   10.1070    3.9362   22.4924 C   0  0  0  0  0  0  0  0  0  0  0  0
   11.1247    4.8485   22.7084 C   0  0  0  0  0  0  0  0  0  0  0  0
   12.4307    4.4011   22.8212 C   0  0  0  0  0  0  0  0  0  0  0  0
   12.7223    3.0508   22.7229 C   0  0  0  0  0  0  0  0  0  0  0  0
   11.6967    2.1479   22.5068 C   0  0  0  0  0  0  0  0  0  0  0  0
   13.7336    5.5611   23.1033 S   0  0  0  0  0  0  0  0  0  0  0  0
   14.0483    6.3151   21.7266 N   0  0  0  0  0  0  0  0  0  0  0  0
   13.2401    6.5437   24.0211 O   0  0  0  0  0  0  0  0  0  0  0  0
   14.9037    4.8133   23.4536 O   0  0  0  0  0  0  0  0  0  0  0  0
    7.5098   -0.5081   22.8189 C   0  0  0  0  0  0  0  0  0  0  0  0
    6.5974   -0.4859   21.8598 C   0  0  0  0  0  0  0  0  0  0  0  0
    7.2855   -0.4216   24.2948 C   0  0  0  0  0  0  0  0  0  0  0  0
    8.2385    0.1953   25.1101 C   0  0  0  0  0  0  0  0  0  0  0  0
    8.0476    0.3099   26.4768 C   0  0  0  0  0  0  0  0  0  0  0  0
    6.9070   -0.1848   27.0664 C   0  0  0  0  0  0  0  0  0  0  0  0
    5.9471   -0.8086   26.2916 C   0  0  0  0  0  0  0  0  0  0  0  0
    6.1563   -0.9205   24.9372 C   0  0  0  0  0  0  0  0  0  0  0  0
    5.1898   -1.5598   24.2404 F   0  0  0  0  0  0  0  0  0  0  0  0
    9.6976   -2.3035   22.6861 S   0  0  0  0  0  0  0  0  0  0  0  0
    9.8019   -3.1769   21.5507 O   0  0  0  0  0  0  0  0  0  0  0  0
    8.9746   -2.7610   23.8398 O   0  0  0  0  0  0  0  0  0  0  0  0
   11.3351   -1.8788   23.1822 C   0  0  0  0  0  0  0  0  0  0  0  0
   12.3981   -2.0804   22.3187 C   0  0  0  0  0  0  0  0  0  0  0  0
   13.6687   -1.7371   22.7470 C   0  0  0  0  0  0  0  0  0  0  0  0
   13.8227   -1.2117   24.0102 C   0  0  0  0  0  0  0  0  0  0  0  0
   12.8074   -1.0127   24.8522 N   0  0  0  0  0  0  0  0  0  0  0  0
   11.5832   -1.3452   24.4324 C   0  0  0  0  0  0  0  0  0  0  0  0
  1  2  1  0
  2  3  1  0
  3  4  1  0
  4  5  2  0
  5  6  1  0
  6  7  1  0
  7  8  1  0
  8  9  2  0
  8 10  1  0
 10 11  2  0
 11 12  1  0
 12 13  2  0
 13 14  1  0
 14 15  2  0
 13 16  1  0
 16 17  1  0
 16 18  2  0
 16 19  2  0
  6 20  1  0
 20 21  2  0
 20 22  1  0
 22 23  2  0
 23 24  1  0
 24 25  2  0
 25 26  1  0
 26 27  2  0
 27 28  1  0
  6 29  1  0
 29 30  2  0
 29 31  2  0
 29 32  1  0
 32 33  2  0
 33 34  1  0
 34 35  2  0
 35 36  1  0
 36 37  2  0
 21  4  1  0
 27 22  1  0
 37 32  1  0
 15 10  1  0
M  END
