CVD-0002818|dock_bobby27042020.47|mol2|17|dock1
     RDKit          3D

 19 21  0  0  0  0  0  0  0  0999 V2000
    9.7627    2.4851   22.2487 N   0  0  0  0  0  0  0  0  0  0  0  0
    9.8485    1.1709   22.5046 C   0  0  0  0  0  0  0  0  0  0  0  0
   11.1598    0.7381   23.1407 C   0  0  0  0  0  0  0  0  0  0  0  0
   11.1455   -0.7708   23.4000 C   0  0  0  0  0  0  0  0  0  0  0  0
   10.8034   -1.4959   22.0870 C   0  0  0  0  0  0  0  0  0  0  0  0
    9.5228   -0.9531   21.4535 C   0  0  0  0  0  0  0  0  0  0  0  0
    8.2319   -1.2977   22.1787 C   0  0  0  0  0  0  0  0  0  0  0  0
    7.6895   -2.6681   21.8528 C   0  0  0  0  0  0  0  0  0  0  0  0
    8.1526   -3.7972   22.5077 C   0  0  0  0  0  0  0  0  0  0  0  0
    7.6392   -5.0412   22.1855 C   0  0  0  0  0  0  0  0  0  0  0  0
    6.6717   -5.1174   21.2099 C   0  0  0  0  0  0  0  0  0  0  0  0
    6.2059   -4.0497   20.5604 N   0  0  0  0  0  0  0  0  0  0  0  0
    6.7172   -2.8593   20.8889 C   0  0  0  0  0  0  0  0  0  0  0  0
    9.6329    0.4719   21.2667 O   0  0  0  0  0  0  0  0  0  0  0  0
   12.4061   -1.3048   24.0050 C   0  0  0  0  0  0  0  0  0  0  0  0
   12.9518   -0.8879   25.2538 C   0  0  0  0  0  0  0  0  0  0  0  0
   14.1066   -1.5241   25.5976 C   0  0  0  0  0  0  0  0  0  0  0  0
   14.5343   -2.6410   24.3915 S   0  0  0  0  0  0  0  0  0  0  0  0
   13.1818   -2.2683   23.4313 C   0  0  0  0  0  0  0  0  0  0  0  0
  2  1  1  0
  2  3  1  0
  3  4  1  0
  4  5  1  0
  5  6  1  0
  6  7  1  0
  7  8  1  0
  8  9  2  0
  9 10  1  0
 10 11  2  0
 11 12  1  0
 12 13  2  0
  6 14  1  0
  4 15  1  0
 15 16  1  0
 16 17  2  0
 17 18  1  0
 18 19  1  0
 14  2  1  0
 19 15  2  0
 13  8  1  0
M  END
