CVD-0002586|dock_bobby27042020.62|mol2|32|dock3
     RDKit          3D

 37 40  0  0  0  0  0  0  0  0999 V2000
    4.9758   -5.6011   22.4909 C   0  0  0  0  0  0  0  0  0  0  0  0
    6.1162   -6.2354   21.8243 N   0  0  0  0  0  0  0  0  0  0  0  0
    6.6177   -5.5067   20.6542 C   0  0  0  0  0  0  0  0  0  0  0  0
    7.2648   -4.2040   21.0447 C   0  0  0  0  0  0  0  0  0  0  0  0
    7.8948   -3.9464   22.2754 C   0  0  0  0  0  0  0  0  0  0  0  0
    8.3890   -2.6547   22.2944 C   0  0  0  0  0  0  0  0  0  0  0  0
    9.1288   -1.9837   23.3937 C   0  0  0  0  0  0  0  0  0  0  0  0
    8.4725   -1.7765   24.6076 C   0  0  0  0  0  0  0  0  0  0  0  0
    9.0858   -1.0917   25.6406 C   0  0  0  0  0  0  0  0  0  0  0  0
   10.3573   -0.5924   25.4809 C   0  0  0  0  0  0  0  0  0  0  0  0
   11.0493   -0.8002   24.3010 C   0  0  0  0  0  0  0  0  0  0  0  0
   10.4615   -1.5262   23.2638 C   0  0  0  0  0  0  0  0  0  0  0  0
   11.2151   -1.8114   22.0839 N   0  0  0  0  0  0  0  0  0  0  0  0
   12.7601   -1.3438   21.8370 S   0  0  0  0  0  0  0  0  0  0  0  0
   13.0911   -1.7228   20.4974 O   0  0  0  0  0  0  0  0  0  0  0  0
   13.5309   -1.8614   22.9260 O   0  0  0  0  0  0  0  0  0  0  0  0
   12.7929    0.4145   21.9233 C   0  0  0  0  0  0  0  0  0  0  0  0
   13.8877    1.0545   22.4808 C   0  0  0  0  0  0  0  0  0  0  0  0
   13.9108    2.4367   22.5419 C   0  0  0  0  0  0  0  0  0  0  0  0
   12.8499    3.1901   22.0499 C   0  0  0  0  0  0  0  0  0  0  0  0
   11.7617    2.5281   21.4926 C   0  0  0  0  0  0  0  0  0  0  0  0
   11.7275    1.1466   21.4261 C   0  0  0  0  0  0  0  0  0  0  0  0
   12.8686    4.6843   22.1137 C   0  0  0  0  0  0  0  0  0  0  0  0
   11.8894    5.3711   21.8748 O   0  0  0  0  0  0  0  0  0  0  0  0
   14.0565    5.1801   22.4555 O   0  0  0  0  0  0  0  0  0  0  0  0
   14.1265    6.6202   22.5798 C   0  0  0  0  0  0  0  0  0  0  0  0
    8.0488   -2.0932   21.0333 N   0  0  0  0  0  0  0  0  0  0  0  0
    7.3722   -3.0483   20.2851 C   0  0  0  0  0  0  0  0  0  0  0  0
    8.3226   -0.5574   20.3658 S   0  0  0  0  0  0  0  0  0  0  0  0
    8.6957    0.2684   21.4720 O   0  0  0  0  0  0  0  0  0  0  0  0
    9.2264   -0.7051   19.2681 O   0  0  0  0  0  0  0  0  0  0  0  0
    6.7612    0.0104   19.7849 C   0  0  0  0  0  0  0  0  0  0  0  0
    5.6411   -0.0716   20.5943 C   0  0  0  0  0  0  0  0  0  0  0  0
    4.4343    0.3914   20.0992 C   0  0  0  0  0  0  0  0  0  0  0  0
    4.3972    0.9142   18.8262 C   0  0  0  0  0  0  0  0  0  0  0  0
    5.4685    1.0010   18.0363 N   0  0  0  0  0  0  0  0  0  0  0  0
    6.6303    0.5525   18.5205 C   0  0  0  0  0  0  0  0  0  0  0  0
  1  2  1  0
  2  3  1  0
  3  4  1  0
  4  5  1  0
  5  6  2  0
  6  7  1  0
  7  8  2  0
  8  9  1  0
  9 10  2  0
 10 11  1  0
 11 12  2  0
 12 13  1  0
 13 14  1  0
 14 15  2  0
 14 16  2  0
 14 17  1  0
 17 18  2  0
 18 19  1  0
 19 20  2  0
 20 21  1  0
 21 22  2  0
 20 23  1  0
 23 24  2  0
 23 25  1  0
 25 26  1  0
  6 27  1  0
 27 28  1  0
 27 29  1  0
 29 30  2  0
 29 31  2  0
 29 32  1  0
 32 33  2  0
 33 34  1  0
 34 35  2  0
 35 36  1  0
 36 37  2  0
 28  4  2  0
 37 32  1  0
 12  7  1  0
 22 17  1  0
M  END
