CVD-0002944|dock_bobby27042020.4|mol2|4|dock1
     RDKit          3D

 18 19  0  0  0  0  0  0  0  0999 V2000
   14.5664   -1.7610   25.4931 S   0  0  0  0  0  0  0  0  0  0  0  0
   14.2541   -1.8872   23.6983 C   0  0  0  0  0  0  0  0  0  0  0  0
   12.8045   -1.7769   23.3380 C   0  0  0  0  0  0  0  0  0  0  0  0
   12.3739   -0.8628   22.3897 C   0  0  0  0  0  0  0  0  0  0  0  0
   11.0346   -0.7596   22.0588 C   0  0  0  0  0  0  0  0  0  0  0  0
   10.0824   -1.5663   22.6663 C   0  0  0  0  0  0  0  0  0  0  0  0
   10.5158   -2.4791   23.6188 C   0  0  0  0  0  0  0  0  0  0  0  0
   11.8558   -2.5822   23.9479 C   0  0  0  0  0  0  0  0  0  0  0  0
    8.6243   -1.4491   22.2934 C   0  0  0  0  0  0  0  0  0  0  0  0
    8.0152   -2.7646   21.8670 C   0  0  0  0  0  0  0  0  0  0  0  0
    6.5769   -2.5322   21.4591 C   0  0  0  0  0  0  0  0  0  0  0  0
    6.5229   -1.4820   20.4215 N   0  0  0  0  0  0  0  0  0  0  0  0
    7.1585   -0.2360   20.8402 C   0  0  0  0  0  0  0  0  0  0  0  0
    8.4887   -0.4778   21.2413 O   0  0  0  0  0  0  0  0  0  0  0  0
    5.9538   -1.6721   19.2080 C   0  0  0  0  0  0  0  0  0  0  0  0
    5.4437   -2.7437   18.9057 O   0  0  0  0  0  0  0  0  0  0  0  0
    5.9506   -0.5217   18.2192 C   0  0  0  0  0  0  0  0  0  0  0  0
    5.0066    0.8415   18.8339 Cl  0  0  0  0  0  0  0  0  0  0  0  0
  1  2  1  0
  2  3  1  0
  3  4  2  0
  4  5  1  0
  5  6  2  0
  6  7  1  0
  7  8  2  0
  6  9  1  0
  9 10  1  0
 10 11  1  0
 11 12  1  0
 12 13  1  0
 13 14  1  0
 12 15  1  0
 15 16  2  0
 15 17  1  0
 17 18  1  0
  8  3  1  0
 14  9  1  0
M  END
