CVD-0000251|dock_bobby27042020.42|mol2|16|dock3
     RDKit          3D

 23 25  0  0  0  0  0  0  0  0999 V2000
    7.5905   -1.1195   23.0021 O   0  0  0  0  0  0  0  0  0  0  0  0
    8.4068   -1.4556   22.1498 C   0  0  0  0  0  0  0  0  0  0  0  0
    9.8825   -1.5395   22.4549 C   0  0  0  0  0  0  0  0  0  0  0  0
   10.6300   -0.2799   22.0566 C   0  0  0  0  0  0  0  0  0  0  0  0
   12.1189   -0.4360   22.0489 C   0  0  0  0  0  0  0  0  0  0  0  0
   13.0904   -0.0328   22.9022 C   0  0  0  0  0  0  0  0  0  0  0  0
   14.2603   -0.4591   22.3804 N   0  0  0  0  0  0  0  0  0  0  0  0
   14.0948   -1.0999   21.2630 N   0  0  0  0  0  0  0  0  0  0  0  0
   12.7607   -1.0851   21.0572 N   0  0  0  0  0  0  0  0  0  0  0  0
    8.0563   -1.7693   20.9007 N   0  0  0  0  0  0  0  0  0  0  0  0
    6.6750   -1.7443   20.4261 C   0  0  0  0  0  0  0  0  0  0  0  0
    6.3713   -3.0852   19.7364 C   0  0  0  0  0  0  0  0  0  0  0  0
    6.5153   -4.2271   20.6337 N   0  0  0  0  0  0  0  0  0  0  0  0
    6.3441   -5.5282   20.3404 C   0  0  0  0  0  0  0  0  0  0  0  0
    6.5528   -6.2326   21.4911 C   0  0  0  0  0  0  0  0  0  0  0  0
    6.8399   -5.2703   22.4499 C   0  0  0  0  0  0  0  0  0  0  0  0
    6.8146   -4.0429   21.9455 N   0  0  0  0  0  0  0  0  0  0  0  0
    6.4268   -0.5929   19.4704 C   0  0  0  0  0  0  0  0  0  0  0  0
    7.4441   -0.1049   18.6612 C   0  0  0  0  0  0  0  0  0  0  0  0
    7.2118    0.9435   17.7864 C   0  0  0  0  0  0  0  0  0  0  0  0
    5.9612    1.5176   17.7094 C   0  0  0  0  0  0  0  0  0  0  0  0
    4.9419    1.0441   18.5071 C   0  0  0  0  0  0  0  0  0  0  0  0
    5.1728   -0.0041   19.3823 C   0  0  0  0  0  0  0  0  0  0  0  0
  1  2  2  0
  2  3  1  0
  3  4  1  0
  4  5  1  0
  5  6  2  0
  6  7  1  0
  7  8  2  0
  8  9  1  0
  2 10  1  0
 10 11  1  0
 11 12  1  0
 12 13  1  0
 13 14  1  0
 14 15  2  0
 15 16  1  0
 16 17  2  0
 11 18  1  0
 18 19  2  0
 19 20  1  0
 20 21  2  0
 21 22  1  0
 22 23  2  0
  9  5  1  0
 17 13  1  0
 23 18  1  0
M  END
