CVD-0003722|dock_bobby27042020.72|mol2|49|dock1
     RDKit          3D

 24 25  0  0  0  0  0  0  0  0999 V2000
    6.4247    7.6841   21.2610 C   0  0  0  0  0  0  0  0  0  0  0  0
    7.5828    6.6147   22.0238 S   0  0  0  0  0  0  0  0  0  0  0  0
    8.8819    6.9327   21.5164 O   0  0  0  0  0  0  0  0  0  0  0  0
    7.3704    6.6661   23.4373 O   0  0  0  0  0  0  0  0  0  0  0  0
    7.2476    5.1193   21.5525 N   0  0  0  0  0  0  0  0  0  0  0  0
    8.0632    4.0029   22.0452 C   0  0  0  0  0  0  0  0  0  0  0  0
    7.1842    2.8270   22.4314 C   0  0  0  0  0  0  0  0  0  0  0  0
    6.9003    1.9055   21.2642 C   0  0  0  0  0  0  0  0  0  0  0  0
    5.6607    2.0397   20.6458 C   0  0  0  0  0  0  0  0  0  0  0  0
    5.2929    1.2498   19.5757 C   0  0  0  0  0  0  0  0  0  0  0  0
    6.1849    0.3097   19.1181 C   0  0  0  0  0  0  0  0  0  0  0  0
    5.7403   -0.6970   17.7686 Cl  0  0  0  0  0  0  0  0  0  0  0  0
    7.4248    0.1420   19.6997 C   0  0  0  0  0  0  0  0  0  0  0  0
    7.8034    0.9368   20.7854 C   0  0  0  0  0  0  0  0  0  0  0  0
    9.0647    0.8193   21.4389 N   0  0  0  0  0  0  0  0  0  0  0  0
    9.9171   -0.2599   21.5324 C   0  0  0  0  0  0  0  0  0  0  0  0
    9.7115   -1.3617   21.0353 O   0  0  0  0  0  0  0  0  0  0  0  0
   11.0421    0.0538   22.2622 N   0  0  0  0  0  0  0  0  0  0  0  0
   12.1707   -0.7311   22.6115 C   0  0  0  0  0  0  0  0  0  0  0  0
   12.8863   -0.3893   23.7521 C   0  0  0  0  0  0  0  0  0  0  0  0
   13.9921   -1.1354   24.1195 C   0  0  0  0  0  0  0  0  0  0  0  0
   14.3539   -2.2056   23.3353 C   0  0  0  0  0  0  0  0  0  0  0  0
   13.6896   -2.5603   22.2356 N   0  0  0  0  0  0  0  0  0  0  0  0
   12.6227   -1.8336   21.8885 C   0  0  0  0  0  0  0  0  0  0  0  0
  1  2  1  0
  2  3  2  0
  2  4  2  0
  2  5  1  0
  5  6  1  0
  6  7  1  0
  7  8  1  0
  8  9  2  0
  9 10  1  0
 10 11  2  0
 11 12  1  0
 11 13  1  0
 13 14  2  0
 14 15  1  0
 15 16  1  0
 16 17  2  0
 16 18  1  0
 18 19  1  0
 19 20  2  0
 20 21  1  0
 21 22  2  0
 22 23  1  0
 23 24  2  0
 14  8  1  0
 24 19  1  0
M  END
