CVD-0000523|dock_bobby27042020.69|mol2|52|dock2
     RDKit          3D

 20 21  0  0  0  0  0  0  0  0999 V2000
   13.9841   -1.4918   20.5634 N   0  0  0  0  0  0  0  0  0  0  0  0
   13.9505   -1.3879   22.1606 S   0  0  0  0  0  0  0  0  0  0  0  0
   14.7499   -0.2580   22.5284 O   0  0  0  0  0  0  0  0  0  0  0  0
   14.2976   -2.6781   22.6762 O   0  0  0  0  0  0  0  0  0  0  0  0
   12.2913   -1.0470   22.6647 C   0  0  0  0  0  0  0  0  0  0  0  0
   12.0398   -0.0128   23.5513 C   0  0  0  0  0  0  0  0  0  0  0  0
   10.7329    0.2420   23.9313 C   0  0  0  0  0  0  0  0  0  0  0  0
    9.6961   -0.5265   23.4289 C   0  0  0  0  0  0  0  0  0  0  0  0
    9.9452   -1.5596   22.5390 C   0  0  0  0  0  0  0  0  0  0  0  0
    8.8127   -2.3997   21.9933 C   0  0  0  0  0  0  0  0  0  0  0  0
    7.6869   -1.5549   21.4307 C   0  0  0  0  0  0  0  0  0  0  0  0
    6.6264   -1.4335   22.0348 O   0  0  0  0  0  0  0  0  0  0  0  0
    7.9797   -0.9873   20.2356 N   0  0  0  0  0  0  0  0  0  0  0  0
    7.2122   -0.1492   19.3895 C   0  0  0  0  0  0  0  0  0  0  0  0
    6.0697    0.5304   19.7994 C   0  0  0  0  0  0  0  0  0  0  0  0
    5.3925    1.3249   18.8904 C   0  0  0  0  0  0  0  0  0  0  0  0
    5.8718    1.4187   17.6040 C   0  0  0  0  0  0  0  0  0  0  0  0
    6.9630    0.7797   17.1827 N   0  0  0  0  0  0  0  0  0  0  0  0
    7.6095    0.0155   18.0675 C   0  0  0  0  0  0  0  0  0  0  0  0
   11.2557   -1.8172   22.1581 C   0  0  0  0  0  0  0  0  0  0  0  0
  1  2  1  0
  2  3  2  0
  2  4  2  0
  2  5  1  0
  5  6  2  0
  6  7  1  0
  7  8  2  0
  8  9  1  0
  9 10  1  0
 10 11  1  0
 11 12  2  0
 11 13  1  0
 13 14  1  0
 14 15  2  0
 15 16  1  0
 16 17  2  0
 17 18  1  0
 18 19  2  0
  9 20  2  0
 20  5  1  0
 19 14  1  0
M  END
