CVD-0002995|dock_bobby27042020.32|mol2|24|dock1
     RDKit          3D

 33 36  0  0  0  0  0  0  0  0999 V2000
    4.9936    0.4750   17.9441 Cl  0  0  0  0  0  0  0  0  0  0  0  0
    6.1873    1.0122   19.1336 C   0  0  0  0  0  0  0  0  0  0  0  0
    5.6973    2.1611   19.9959 C   0  0  0  0  0  0  0  0  0  0  0  0
    4.6758    2.7655   19.6940 O   0  0  0  0  0  0  0  0  0  0  0  0
    6.4090    2.4889   21.0986 N   0  0  0  0  0  0  0  0  0  0  0  0
    5.9362    3.5915   21.9422 C   0  0  0  0  0  0  0  0  0  0  0  0
    6.8982    4.7531   21.8508 C   0  0  0  0  0  0  0  0  0  0  0  0
    8.2950    4.3070   22.1750 C   0  0  0  0  0  0  0  0  0  0  0  0
    9.2330    5.2180   22.6501 C   0  0  0  0  0  0  0  0  0  0  0  0
   10.5167    4.8167   22.9683 C   0  0  0  0  0  0  0  0  0  0  0  0
   10.8772    3.4894   22.8127 C   0  0  0  0  0  0  0  0  0  0  0  0
    9.9581    2.5529   22.3382 C   0  0  0  0  0  0  0  0  0  0  0  0
   10.3278    1.0958   22.1718 C   0  0  0  0  0  0  0  0  0  0  0  0
   11.8956    0.5184   22.8150 S   0  0  0  0  0  0  0  0  0  0  0  0
   12.9670    1.3159   22.1088 N   0  0  0  0  0  0  0  0  0  0  0  0
   11.8165    0.5359   24.2592 O   0  0  0  0  0  0  0  0  0  0  0  0
   12.1007   -1.1807   22.2959 C   0  0  0  0  0  0  0  0  0  0  0  0
   10.7901   -1.8863   22.2026 C   0  0  0  0  0  0  0  0  0  0  0  0
   10.3096   -2.8463   23.0330 C   0  0  0  0  0  0  0  0  0  0  0  0
    9.0221   -3.3147   22.6643 C   0  0  0  0  0  0  0  0  0  0  0  0
    8.4118   -4.2798   23.4056 N   0  0  0  0  0  0  0  0  0  0  0  0
    7.2036   -4.9851   23.2619 C   0  0  0  0  0  0  0  0  0  0  0  0
    6.4128   -5.3150   24.3614 C   0  0  0  0  0  0  0  0  0  0  0  0
    5.2355   -6.0100   24.1523 C   0  0  0  0  0  0  0  0  0  0  0  0
    4.8578   -6.3677   22.8632 C   0  0  0  0  0  0  0  0  0  0  0  0
    5.7127   -5.9938   21.8308 C   0  0  0  0  0  0  0  0  0  0  0  0
    6.8544   -5.3218   22.0168 N   0  0  0  0  0  0  0  0  0  0  0  0
    3.6349   -7.0917   22.6262 C   0  0  0  0  0  0  0  0  0  0  0  0
    2.6139   -7.6522   22.4517 C   0  0  0  0  0  0  0  0  0  0  0  0
    8.5555   -2.6924   21.5545 C   0  0  0  0  0  0  0  0  0  0  0  0
    9.6781   -1.5424   20.9616 S   0  0  0  0  0  0  0  0  0  0  0  0
    8.6575    2.9708   22.0181 C   0  0  0  0  0  0  0  0  0  0  0  0
    7.6923    1.9225   21.5036 C   0  0  0  0  0  0  0  0  0  0  0  0
  1  2  1  0
  2  3  1  0
  3  4  2  0
  3  5  1  0
  5  6  1  0
  6  7  1  0
  7  8  1  0
  8  9  2  0
  9 10  1  0
 10 11  2  0
 11 12  1  0
 12 13  1  0
 13 14  1  0
 14 15  2  0
 14 16  2  0
 14 17  1  0
 17 18  1  0
 18 19  2  0
 19 20  1  0
 20 21  1  0
 21 22  1  0
 22 23  2  0
 23 24  1  0
 24 25  2  0
 25 26  1  0
 26 27  2  0
 25 28  1  0
 28 29  3  0
 20 30  2  0
 30 31  1  0
 12 32  2  0
 32 33  1  0
 33  5  1  0
 32  8  1  0
 31 18  1  0
 27 22  1  0
M  END
