CVD-0001891|dock_bobby27042020.51|mol2|7|dock2
     RDKit          3D

 33 35  0  0  0  0  0  0  0  0999 V2000
   14.1336    5.8597   22.1048 C   0  0  0  0  0  0  0  0  0  0  0  0
   12.8355    5.8934   22.6947 O   0  0  0  0  0  0  0  0  0  0  0  0
   11.9919    4.8173   22.5735 C   0  0  0  0  0  0  0  0  0  0  0  0
   10.6436    5.0109   22.8133 C   0  0  0  0  0  0  0  0  0  0  0  0
    9.7590    3.9537   22.7023 C   0  0  0  0  0  0  0  0  0  0  0  0
   10.2040    2.6858   22.3502 C   0  0  0  0  0  0  0  0  0  0  0  0
    9.2474    1.6447   22.2533 N   0  0  0  0  0  0  0  0  0  0  0  0
    8.1660    1.3534   23.0177 C   0  0  0  0  0  0  0  0  0  0  0  0
    7.7839    1.9763   24.0041 O   0  0  0  0  0  0  0  0  0  0  0  0
    7.4012    0.1067   22.5305 C   0  0  0  0  0  0  0  0  0  0  0  0
    8.2221   -1.1151   22.7241 N   0  0  0  0  0  0  0  0  0  0  0  0
    7.5393   -2.3195   22.6440 C   0  0  0  0  0  0  0  0  0  0  0  0
    6.3274   -2.3449   22.4337 O   0  0  0  0  0  0  0  0  0  0  0  0
    8.2410   -3.6281   22.7876 C   0  0  0  0  0  0  0  0  0  0  0  0
    7.5654   -4.7461   22.8210 C   0  0  0  0  0  0  0  0  0  0  0  0
    9.6373   -0.9954   22.9256 C   0  0  0  0  0  0  0  0  0  0  0  0
   10.5228   -1.5284   21.9957 C   0  0  0  0  0  0  0  0  0  0  0  0
   11.8901   -1.4181   22.1763 C   0  0  0  0  0  0  0  0  0  0  0  0
   12.4129   -0.7706   23.2874 C   0  0  0  0  0  0  0  0  0  0  0  0
   11.5290   -0.2323   24.2126 C   0  0  0  0  0  0  0  0  0  0  0  0
   10.1612   -0.3419   24.0352 C   0  0  0  0  0  0  0  0  0  0  0  0
   13.8909   -0.6503   23.4794 C   0  0  0  0  0  0  0  0  0  0  0  0
   14.2505   -0.7100   24.7566 F   0  0  0  0  0  0  0  0  0  0  0  0
   14.5699   -1.6116   22.8638 F   0  0  0  0  0  0  0  0  0  0  0  0
   14.3787    0.4951   23.0164 F   0  0  0  0  0  0  0  0  0  0  0  0
    6.9367    0.2597   21.0890 C   0  0  0  0  0  0  0  0  0  0  0  0
    7.4568   -0.5158   20.0633 C   0  0  0  0  0  0  0  0  0  0  0  0
    7.0008   -0.3396   18.7684 C   0  0  0  0  0  0  0  0  0  0  0  0
    6.0329    0.6113   18.5366 C   0  0  0  0  0  0  0  0  0  0  0  0
    5.5113    1.3729   19.4996 N   0  0  0  0  0  0  0  0  0  0  0  0
    5.9663    1.1858   20.7420 C   0  0  0  0  0  0  0  0  0  0  0  0
   11.5629    2.5012   22.1107 C   0  0  0  0  0  0  0  0  0  0  0  0
   12.4513    3.5571   22.2209 C   0  0  0  0  0  0  0  0  0  0  0  0
  1  2  1  0
  2  3  1  0
  3  4  2  0
  4  5  1  0
  5  6  2  0
  6  7  1  0
  7  8  1  0
  8  9  2  0
  8 10  1  0
 10 11  1  0
 11 12  1  0
 12 13  2  0
 12 14  1  0
 14 15  2  0
 11 16  1  0
 16 17  2  0
 17 18  1  0
 18 19  2  0
 19 20  1  0
 20 21  2  0
 19 22  1  0
 22 23  1  0
 22 24  1  0
 22 25  1  0
 10 26  1  0
 26 27  2  0
 27 28  1  0
 28 29  2  0
 29 30  1  0
 30 31  2  0
  6 32  1  0
 32 33  2  0
 33  3  1  0
 21 16  1  0
 31 26  1  0
M  END
