CVD-0002955|dock_bobby27042020.4|mol2|2|dock1
     RDKit          3D

 24 25  0  0  0  0  0  0  0  0999 V2000
    5.1029    0.2522   17.6792 Cl  0  0  0  0  0  0  0  0  0  0  0  0
    5.9536   -0.6816   18.9168 C   0  0  0  0  0  0  0  0  0  0  0  0
    6.8663    0.1660   19.7634 C   0  0  0  0  0  0  0  0  0  0  0  0
    6.6213    1.3221   20.0341 O   0  0  0  0  0  0  0  0  0  0  0  0
    8.1194   -0.5206   20.2600 C   0  0  0  0  0  0  0  0  0  0  0  0
    7.8263   -1.6398   21.1343 N   0  0  0  0  0  0  0  0  0  0  0  0
    8.7654   -2.2129   21.9704 C   0  0  0  0  0  0  0  0  0  0  0  0
    8.3862   -3.1055   22.9658 C   0  0  0  0  0  0  0  0  0  0  0  0
    9.2508   -3.6886   23.8005 N   0  0  0  0  0  0  0  0  0  0  0  0
   10.5451   -3.3893   23.6604 C   0  0  0  0  0  0  0  0  0  0  0  0
   11.0413   -2.5163   22.7105 C   0  0  0  0  0  0  0  0  0  0  0  0
   12.5156   -2.2146   22.5923 C   0  0  0  0  0  0  0  0  0  0  0  0
   13.0131   -1.2807   23.6809 C   0  0  0  0  0  0  0  0  0  0  0  0
   12.4764    0.0641   23.5291 N   0  0  0  0  0  0  0  0  0  0  0  0
   13.1177    0.9949   22.8164 C   0  0  0  0  0  0  0  0  0  0  0  0
   14.1849    0.7428   22.2650 O   0  0  0  0  0  0  0  0  0  0  0  0
   12.5322    2.3718   22.6826 C   0  0  0  0  0  0  0  0  0  0  0  0
   11.1618    2.6188   22.7323 C   0  0  0  0  0  0  0  0  0  0  0  0
   10.6739    3.9085   22.6025 C   0  0  0  0  0  0  0  0  0  0  0  0
   11.5408    4.9721   22.4220 C   0  0  0  0  0  0  0  0  0  0  0  0
   12.8938    4.7221   22.3744 C   0  0  0  0  0  0  0  0  0  0  0  0
   13.9969    6.0505   22.1482 Cl  0  0  0  0  0  0  0  0  0  0  0  0
   13.3990    3.4445   22.5014 C   0  0  0  0  0  0  0  0  0  0  0  0
   10.1210   -1.9252   21.8553 C   0  0  0  0  0  0  0  0  0  0  0  0
  1  2  1  0
  2  3  1  0
  3  4  2  0
  3  5  1  0
  5  6  1  0
  6  7  1  0
  7  8  2  0
  8  9  1  0
  9 10  2  0
 10 11  1  0
 11 12  1  0
 12 13  1  0
 13 14  1  0
 14 15  1  0
 15 16  2  0
 15 17  1  0
 17 18  2  0
 18 19  1  0
 19 20  2  0
 20 21  1  0
 21 22  1  0
 21 23  2  0
 11 24  2  0
 24  7  1  0
 23 17  1  0
M  END
