CVD-0002594|dock_bobby27042020.48|mol2|7|dock3
     RDKit          3D

 51 57  0  0  0  0  0  0  0  0999 V2000
    2.3888   -5.4404   26.7060 Cl  0  0  0  0  0  0  0  0  0  0  0  0
    3.0472   -6.9931   27.2384 C   0  0  0  0  0  0  0  0  0  0  0  0
    4.1142   -6.7989   28.2989 C   0  0  0  0  0  0  0  0  0  0  0  0
    3.9589   -7.2252   29.4363 O   0  0  0  0  0  0  0  0  0  0  0  0
    5.2309   -6.1335   27.9342 N   0  0  0  0  0  0  0  0  0  0  0  0
    6.2901   -5.8939   28.9006 C   0  0  0  0  0  0  0  0  0  0  0  0
    7.6079   -6.3575   28.3645 C   0  0  0  0  0  0  0  0  0  0  0  0
    7.8588   -5.6994   27.0744 N   0  0  0  0  0  0  0  0  0  0  0  0
    6.8179   -6.0206   26.0867 C   0  0  0  0  0  0  0  0  0  0  0  0
    5.4891   -5.5609   26.6093 C   0  0  0  0  0  0  0  0  0  0  0  0
    9.3966   -5.6190   26.5716 S   0  0  0  0  0  0  0  0  0  0  0  0
    9.6539   -6.8050   25.8166 O   0  0  0  0  0  0  0  0  0  0  0  0
   10.1989   -5.3312   27.7188 O   0  0  0  0  0  0  0  0  0  0  0  0
    9.5528   -4.2708   25.4822 C   0  0  0  0  0  0  0  0  0  0  0  0
   10.5127   -4.1138   24.5120 C   0  0  0  0  0  0  0  0  0  0  0  0
   10.3672   -2.9186   23.8084 C   0  0  0  0  0  0  0  0  0  0  0  0
    9.3032   -2.1468   24.2236 C   0  0  0  0  0  0  0  0  0  0  0  0
    8.8817   -0.8136   23.6784 C   0  0  0  0  0  0  0  0  0  0  0  0
    9.9983    0.0800   23.3559 N   0  0  0  0  0  0  0  0  0  0  0  0
    9.5963    1.0543   22.3496 C   0  0  0  0  0  0  0  0  0  0  0  0
   10.7578    1.9586   21.9816 C   0  0  0  0  0  0  0  0  0  0  0  0
   11.2277    2.6321   23.2075 N   0  0  0  0  0  0  0  0  0  0  0  0
   11.6413    1.6609   24.2379 C   0  0  0  0  0  0  0  0  0  0  0  0
   10.4578    0.7717   24.5531 C   0  0  0  0  0  0  0  0  0  0  0  0
   12.1513    3.9652   23.0335 S   0  0  0  0  0  0  0  0  0  0  0  0
   13.4950    3.5824   23.3384 O   0  0  0  0  0  0  0  0  0  0  0  0
   11.8410    4.5041   21.7458 O   0  0  0  0  0  0  0  0  0  0  0  0
   11.6299    5.1472   24.2542 C   0  0  0  0  0  0  0  0  0  0  0  0
   12.5919    5.6624   25.0797 C   0  0  0  0  0  0  0  0  0  0  0  0
   12.2590    6.5898   26.0533 C   0  0  0  0  0  0  0  0  0  0  0  0
   10.9723    7.0111   26.2114 C   0  0  0  0  0  0  0  0  0  0  0  0
    9.9440    6.5080   25.3792 C   0  0  0  0  0  0  0  0  0  0  0  0
    8.5990    6.9171   25.5055 C   0  0  0  0  0  0  0  0  0  0  0  0
    7.6105    6.4251   24.6985 C   0  0  0  0  0  0  0  0  0  0  0  0
    6.1967    6.9263   24.8978 C   0  0  0  0  0  0  0  0  0  0  0  0
    5.9588    8.2830   24.2993 C   0  0  0  0  0  0  0  0  0  0  0  0
    4.9372    8.6917   23.4718 C   0  0  0  0  0  0  0  0  0  0  0  0
    5.0170   10.0300   23.0956 C   0  0  0  0  0  0  0  0  0  0  0  0
    6.0939   10.6354   23.6342 C   0  0  0  0  0  0  0  0  0  0  0  0
    6.5637   12.2719   23.4276 Cl  0  0  0  0  0  0  0  0  0  0  0  0
    7.0397    9.5946   24.6134 S   0  0  0  0  0  0  0  0  0  0  0  0
    7.9257    5.4788   23.7069 C   0  0  0  0  0  0  0  0  0  0  0  0
    6.8550    4.9030   22.8033 C   0  0  0  0  0  0  0  0  0  0  0  0
    6.2191    5.9023   21.8793 C   0  0  0  0  0  0  0  0  0  0  0  0
    4.8289    5.9483   21.6131 C   0  0  0  0  0  0  0  0  0  0  0  0
    4.4550    6.9334   20.7496 C   0  0  0  0  0  0  0  0  0  0  0  0
    5.8220    7.8141   20.2579 S   0  0  0  0  0  0  0  0  0  0  0  0
    6.8835    6.8763   21.1988 C   0  0  0  0  0  0  0  0  0  0  0  0
    9.2222    5.0633   23.5516 C   0  0  0  0  0  0  0  0  0  0  0  0
   10.2648    5.5550   24.3746 C   0  0  0  0  0  0  0  0  0  0  0  0
    8.4800   -2.9364   25.5217 S   0  0  0  0  0  0  0  0  0  0  0  0
  1  2  1  0
  2  3  1  0
  3  4  2  0
  3  5  1  0
  5  6  1  0
  6  7  1  0
  7  8  1  0
  8  9  1  0
  9 10  1  0
  8 11  1  0
 11 12  2  0
 11 13  2  0
 11 14  1  0
 14 15  2  0
 15 16  1  0
 16 17  2  0
 17 18  1  0
 18 19  1  0
 19 20  1  0
 20 21  1  0
 21 22  1  0
 22 23  1  0
 23 24  1  0
 22 25  1  0
 25 26  2  0
 25 27  2  0
 25 28  1  0
 28 29  2  0
 29 30  1  0
 30 31  2  0
 31 32  1  0
 32 33  2  0
 33 34  1  0
 34 35  1  0
 35 36  1  0
 36 37  2  0
 37 38  1  0
 38 39  2  0
 39 40  1  0
 39 41  1  0
 34 42  2  0
 42 43  1  0
 43 44  1  0
 44 45  1  0
 45 46  2  0
 46 47  1  0
 47 48  1  0
 42 49  1  0
 49 50  2  0
 17 51  1  0
 10  5  1  0
 51 14  1  0
 24 19  1  0
 50 28  1  0
 50 32  1  0
 41 36  1  0
 48 44  2  0
M  END
