CVD-0002277|dock_bobby27042020.92|mol2|10|dock2
     RDKit          3D

 40 43  0  0  0  0  0  0  0  0999 V2000
    5.8965    8.7397   21.1530 C   0  0  0  0  0  0  0  0  0  0  0  0
    6.5349    7.4225   21.0881 N   0  0  0  0  0  0  0  0  0  0  0  0
    6.6989    6.7627   22.3880 C   0  0  0  0  0  0  0  0  0  0  0  0
    7.4340    5.4544   22.2597 C   0  0  0  0  0  0  0  0  0  0  0  0
    8.8066    5.2663   22.4960 C   0  0  0  0  0  0  0  0  0  0  0  0
    9.1555    3.9436   22.2840 C   0  0  0  0  0  0  0  0  0  0  0  0
   10.5129    3.3533   22.4388 C   0  0  0  0  0  0  0  0  0  0  0  0
   10.7114    1.9700   22.4178 C   0  0  0  0  0  0  0  0  0  0  0  0
   11.9665    1.3958   22.5573 C   0  0  0  0  0  0  0  0  0  0  0  0
   13.0667    2.2205   22.7345 C   0  0  0  0  0  0  0  0  0  0  0  0
   12.9111    3.5915   22.7741 C   0  0  0  0  0  0  0  0  0  0  0  0
   11.6543    4.1264   22.6231 C   0  0  0  0  0  0  0  0  0  0  0  0
   11.5707    5.4763   22.6556 F   0  0  0  0  0  0  0  0  0  0  0  0
   12.0922   -0.1213   22.5166 C   0  0  0  0  0  0  0  0  0  0  0  0
   13.5276   -0.6270   22.3987 C   0  0  0  0  0  0  0  0  0  0  0  0
   11.4291   -0.7111   23.7100 N   0  0  0  0  0  0  0  0  0  0  0  0
   11.9303   -0.2700   25.0083 C   0  0  0  0  0  0  0  0  0  0  0  0
   10.4260   -1.6110   23.5731 C   0  0  0  0  0  0  0  0  0  0  0  0
   10.0257   -1.9729   22.4829 O   0  0  0  0  0  0  0  0  0  0  0  0
    9.7723   -2.1792   24.8175 C   0  0  0  0  0  0  0  0  0  0  0  0
    8.5415   -1.3688   25.2041 C   0  0  0  0  0  0  0  0  0  0  0  0
    7.8725   -1.9660   26.4250 C   0  0  0  0  0  0  0  0  0  0  0  0
    7.5151   -3.3584   26.1668 N   0  0  0  0  0  0  0  0  0  0  0  0
    8.6718   -4.1869   25.8443 C   0  0  0  0  0  0  0  0  0  0  0  0
    9.3769   -3.6392   24.6079 C   0  0  0  0  0  0  0  0  0  0  0  0
    6.3253   -3.9355   26.4582 C   0  0  0  0  0  0  0  0  0  0  0  0
    6.1034   -5.1104   26.1933 O   0  0  0  0  0  0  0  0  0  0  0  0
    5.2588   -3.0953   27.1345 C   0  0  0  0  0  0  0  0  0  0  0  0
    3.8554   -4.0741   27.5817 Cl  0  0  0  0  0  0  0  0  0  0  0  0
    7.9505    3.2933   21.8893 N   0  0  0  0  0  0  0  0  0  0  0  0
    6.9192    4.2242   21.8833 C   0  0  0  0  0  0  0  0  0  0  0  0
    7.5841    1.6954   21.4493 S   0  0  0  0  0  0  0  0  0  0  0  0
    8.4986    1.3114   20.4192 O   0  0  0  0  0  0  0  0  0  0  0  0
    7.5819    0.9678   22.6802 O   0  0  0  0  0  0  0  0  0  0  0  0
    5.9342    1.6875   20.8370 C   0  0  0  0  0  0  0  0  0  0  0  0
    4.8624    1.7310   21.7120 C   0  0  0  0  0  0  0  0  0  0  0  0
    3.5816    1.7178   21.1874 C   0  0  0  0  0  0  0  0  0  0  0  0
    3.4259    1.6609   19.8208 C   0  0  0  0  0  0  0  0  0  0  0  0
    4.4491    1.6167   18.9663 N   0  0  0  0  0  0  0  0  0  0  0  0
    5.6828    1.6295   19.4793 C   0  0  0  0  0  0  0  0  0  0  0  0
  1  2  1  0
  2  3  1  0
  3  4  1  0
  4  5  1  0
  5  6  2  0
  6  7  1  0
  7  8  2  0
  8  9  1  0
  9 10  2  0
 10 11  1  0
 11 12  2  0
 12 13  1  0
  9 14  1  0
 14 15  1  0
 14 16  1  0
 16 17  1  0
 16 18  1  0
 18 19  2  0
 18 20  1  0
 20 21  1  0
 21 22  1  0
 22 23  1  0
 23 24  1  0
 24 25  1  0
 23 26  1  0
 26 27  2  0
 26 28  1  0
 28 29  1  0
  6 30  1  0
 30 31  1  0
 30 32  1  0
 32 33  2  0
 32 34  2  0
 32 35  1  0
 35 36  2  0
 36 37  1  0
 37 38  2  0
 38 39  1  0
 39 40  2  0
 31  4  2  0
 40 35  1  0
 12  7  1  0
 25 20  1  0
M  END
