CVD-0002623|dock_bobby27042020.19|mol2|14|dock2
     RDKit          3D

 30 32  0  0  0  0  0  0  0  0999 V2000
    5.7264    0.9534   17.0073 O   0  0  0  0  0  0  0  0  0  0  0  0
    6.1541    0.8213   18.3656 C   0  0  0  0  0  0  0  0  0  0  0  0
    7.3677   -0.0829   18.5444 C   0  0  0  0  0  0  0  0  0  0  0  0
    7.7158   -0.3140   20.0018 C   0  0  0  0  0  0  0  0  0  0  0  0
    6.5811   -0.8650   20.7524 N   0  0  0  0  0  0  0  0  0  0  0  0
    6.9558   -1.1289   22.1429 C   0  0  0  0  0  0  0  0  0  0  0  0
    8.1845   -2.0036   22.2666 C   0  0  0  0  0  0  0  0  0  0  0  0
    8.2304   -3.1028   21.7570 O   0  0  0  0  0  0  0  0  0  0  0  0
    9.3369   -1.4448   23.0662 C   0  0  0  0  0  0  0  0  0  0  0  0
   10.7435   -0.8965   22.0622 S   0  0  0  0  0  0  0  0  0  0  0  0
   11.8174   -0.1661   23.3336 C   0  0  0  0  0  0  0  0  0  0  0  0
   12.3525    1.1958   22.9793 C   0  0  0  0  0  0  0  0  0  0  0  0
   13.6874    1.3709   22.6509 C   0  0  0  0  0  0  0  0  0  0  0  0
   14.1716    2.6261   22.3234 C   0  0  0  0  0  0  0  0  0  0  0  0
   13.3204    3.7182   22.3209 C   0  0  0  0  0  0  0  0  0  0  0  0
   11.9812    3.5663   22.6433 C   0  0  0  0  0  0  0  0  0  0  0  0
   11.0470    4.7526   22.6459 C   0  0  0  0  0  0  0  0  0  0  0  0
   10.8682    5.3438   23.9803 N   0  0  0  0  0  0  0  0  0  0  0  0
    9.7207    6.2559   23.9872 C   0  0  0  0  0  0  0  0  0  0  0  0
    9.5157    6.8315   25.3762 C   0  0  0  0  0  0  0  0  0  0  0  0
   10.7217    7.5320   25.8229 N   0  0  0  0  0  0  0  0  0  0  0  0
   11.9008    6.6619   25.7704 C   0  0  0  0  0  0  0  0  0  0  0  0
   12.0651    6.0804   24.3780 C   0  0  0  0  0  0  0  0  0  0  0  0
   10.7084    8.8161   26.2529 C   0  0  0  0  0  0  0  0  0  0  0  0
    9.6706    9.4649   26.2955 O   0  0  0  0  0  0  0  0  0  0  0  0
   12.0154    9.4459   26.6955 C   0  0  0  0  0  0  0  0  0  0  0  0
   11.7473   11.1030   27.2518 Cl  0  0  0  0  0  0  0  0  0  0  0  0
   11.5111    2.3009   22.9709 C   0  0  0  0  0  0  0  0  0  0  0  0
    5.4521    0.0659   20.6752 C   0  0  0  0  0  0  0  0  0  0  0  0
    5.0219    0.2844   19.2341 C   0  0  0  0  0  0  0  0  0  0  0  0
  1  2  1  0
  2  3  1  0
  3  4  1  0
  4  5  1  0
  5  6  1  0
  6  7  1  0
  7  8  2  0
  7  9  1  0
  9 10  1  0
 10 11  1  0
 11 12  1  0
 12 13  2  0
 13 14  1  0
 14 15  2  0
 15 16  1  0
 16 17  1  0
 17 18  1  0
 18 19  1  0
 19 20  1  0
 20 21  1  0
 21 22  1  0
 22 23  1  0
 21 24  1  0
 24 25  2  0
 24 26  1  0
 26 27  1  0
 16 28  2  0
  5 29  1  0
 29 30  1  0
 30  2  1  0
 28 12  1  0
 23 18  1  0
M  END
