CVD-0000772|dock_bobby27042020.12|mol2|2|dock1
     RDKit          3D

 20 22  0  0  0  0  0  0  0  0999 V2000
   13.6967    5.0544   21.5521 C   0  0  0  0  0  0  0  0  0  0  0  0
   13.8800    4.4178   22.8590 N   0  0  0  0  0  0  0  0  0  0  0  0
   12.6547    3.7749   23.3315 C   0  0  0  0  0  0  0  0  0  0  0  0
   12.5110    2.3639   22.7979 C   0  0  0  0  0  0  0  0  0  0  0  0
   11.5012    1.5587   23.4871 N   0  0  0  0  0  0  0  0  0  0  0  0
   10.2059    1.4791   22.7783 C   0  0  0  0  0  0  0  0  0  0  0  0
    9.4466    0.2336   23.2835 C   0  0  0  0  0  0  0  0  0  0  0  0
    9.3232    0.2370   24.8086 C   0  0  0  0  0  0  0  0  0  0  0  0
   10.7175    0.3328   25.3777 C   0  0  0  0  0  0  0  0  0  0  0  0
   10.9455   -0.2597   26.5881 F   0  0  0  0  0  0  0  0  0  0  0  0
   11.6711    0.9815   24.7020 C   0  0  0  0  0  0  0  0  0  0  0  0
   10.0682   -1.0516   22.7581 C   0  0  0  0  0  0  0  0  0  0  0  0
    9.2822   -2.3031   22.5160 C   0  0  0  0  0  0  0  0  0  0  0  0
    9.7738   -1.4955   21.3542 C   0  0  0  0  0  0  0  0  0  0  0  0
   11.4993   -1.2574   23.2382 C   0  0  0  0  0  0  0  0  0  0  0  0
   12.5427   -0.7264   22.6658 N   0  0  0  0  0  0  0  0  0  0  0  0
   13.6833   -1.0971   23.3322 C   0  0  0  0  0  0  0  0  0  0  0  0
   13.5421   -1.8978   24.4010 C   0  0  0  0  0  0  0  0  0  0  0  0
   14.5874   -2.4617   25.3163 C   0  0  0  0  0  0  0  0  0  0  0  0
   11.8663   -2.2410   24.6296 S   0  0  0  0  0  0  0  0  0  0  0  0
  1  2  1  0
  2  3  1  0
  3  4  1  0
  4  5  1  0
  5  6  1  0
  6  7  1  0
  7  8  1  0
  8  9  1  0
  9 10  1  0
  9 11  2  0
  7 12  1  0
 12 13  1  0
 13 14  1  0
 12 15  1  0
 15 16  2  0
 16 17  1  0
 17 18  2  0
 18 19  1  0
 18 20  1  0
 11  5  1  0
 14 12  1  0
 20 15  1  0
M  END
