CVD-0002720|dock_bobby27042020.62|mol2|11|dock3
     RDKit          3D

 18 19  0  0  0  0  0  0  0  0999 V2000
   13.4123    5.8942   23.5498 Cl  0  0  0  0  0  0  0  0  0  0  0  0
   13.6104    4.1612   23.2586 C   0  0  0  0  0  0  0  0  0  0  0  0
   12.6150    3.3435   24.0582 C   0  0  0  0  0  0  0  0  0  0  0  0
   11.7781    3.8762   24.7760 O   0  0  0  0  0  0  0  0  0  0  0  0
   12.7045    2.0031   23.9408 N   0  0  0  0  0  0  0  0  0  0  0  0
   11.8118    1.0827   24.6483 C   0  0  0  0  0  0  0  0  0  0  0  0
   11.1502    0.1295   23.6706 C   0  0  0  0  0  0  0  0  0  0  0  0
   12.1665   -0.6215   22.9275 N   0  0  0  0  0  0  0  0  0  0  0  0
   11.5304   -1.5751   22.0071 C   0  0  0  0  0  0  0  0  0  0  0  0
   10.6045   -2.5479   22.6977 C   0  0  0  0  0  0  0  0  0  0  0  0
    9.2657   -2.6232   22.3466 C   0  0  0  0  0  0  0  0  0  0  0  0
    8.4165   -3.5132   22.9825 C   0  0  0  0  0  0  0  0  0  0  0  0
    8.8962   -4.3422   23.9826 C   0  0  0  0  0  0  0  0  0  0  0  0
   10.2273   -4.2622   24.3283 C   0  0  0  0  0  0  0  0  0  0  0  0
   10.8457   -5.2977   25.5844 Cl  0  0  0  0  0  0  0  0  0  0  0  0
   11.0830   -3.3794   23.7019 C   0  0  0  0  0  0  0  0  0  0  0  0
   13.0083    0.3171   22.1902 C   0  0  0  0  0  0  0  0  0  0  0  0
   13.6973    1.2812   23.1389 C   0  0  0  0  0  0  0  0  0  0  0  0
  1  2  1  0
  2  3  1  0
  3  4  2  0
  3  5  1  0
  5  6  1  0
  6  7  1  0
  7  8  1  0
  8  9  1  0
  9 10  1  0
 10 11  2  0
 11 12  1  0
 12 13  2  0
 13 14  1  0
 14 15  1  0
 14 16  2  0
  8 17  1  0
 17 18  1  0
 18  5  1  0
 16 10  1  0
M  END
