CVD-0000828|dock_bobby27042020.83|mol2|14|dock1
     RDKit          3D

 28 30  0  0  0  0  0  0  0  0999 V2000
    6.2530   -2.8286   19.8326 C   0  0  0  0  0  0  0  0  0  0  0  0
    7.4206   -2.0321   20.0236 O   0  0  0  0  0  0  0  0  0  0  0  0
    8.3447   -2.3722   20.9802 C   0  0  0  0  0  0  0  0  0  0  0  0
    9.5751   -1.7299   20.9435 C   0  0  0  0  0  0  0  0  0  0  0  0
   10.5645   -2.0168   21.8769 C   0  0  0  0  0  0  0  0  0  0  0  0
   11.9020   -1.3165   21.8285 C   0  0  0  0  0  0  0  0  0  0  0  0
   11.9284   -0.0795   22.6232 N   0  0  0  0  0  0  0  0  0  0  0  0
   10.9738    0.8950   22.0868 C   0  0  0  0  0  0  0  0  0  0  0  0
   10.9754    2.1534   22.9348 C   0  0  0  0  0  0  0  0  0  0  0  0
   12.3185    2.7351   22.9843 N   0  0  0  0  0  0  0  0  0  0  0  0
   13.3087    1.7646   23.4610 C   0  0  0  0  0  0  0  0  0  0  0  0
   13.2658    0.5074   22.6117 C   0  0  0  0  0  0  0  0  0  0  0  0
   12.5736    4.0229   22.6518 C   0  0  0  0  0  0  0  0  0  0  0  0
   11.6796    4.7795   22.2934 O   0  0  0  0  0  0  0  0  0  0  0  0
   14.0048    4.5202   22.7237 C   0  0  0  0  0  0  0  0  0  0  0  0
   14.1170    6.2315   22.2923 Cl  0  0  0  0  0  0  0  0  0  0  0  0
   10.2774   -2.9752   22.8506 C   0  0  0  0  0  0  0  0  0  0  0  0
   11.0579   -3.4467   23.8770 N   0  0  0  0  0  0  0  0  0  0  0  0
   10.3409   -4.3835   24.5707 C   0  0  0  0  0  0  0  0  0  0  0  0
    9.1019   -4.5392   24.0209 C   0  0  0  0  0  0  0  0  0  0  0  0
    8.0119   -5.4637   24.4783 C   0  0  0  0  0  0  0  0  0  0  0  0
    6.9617   -4.7695   25.3223 C   0  0  0  0  0  0  0  0  0  0  0  0
    5.9378   -5.6953   25.7848 N   0  0  0  0  0  0  0  0  0  0  0  0
    6.1002   -6.4695   26.8595 C   0  0  0  0  0  0  0  0  0  0  0  0
    4.9431   -7.3558   27.2161 C   0  0  0  0  0  0  0  0  0  0  0  0
    7.1300   -6.4465   27.5263 O   0  0  0  0  0  0  0  0  0  0  0  0
    9.0389   -3.6375   22.9060 C   0  0  0  0  0  0  0  0  0  0  0  0
    8.0670   -3.3256   21.9557 C   0  0  0  0  0  0  0  0  0  0  0  0
  1  2  1  0
  2  3  1  0
  3  4  2  0
  4  5  1  0
  5  6  1  0
  6  7  1  0
  7  8  1  0
  8  9  1  0
  9 10  1  0
 10 11  1  0
 11 12  1  0
 10 13  1  0
 13 14  2  0
 13 15  1  0
 15 16  1  0
  5 17  2  0
 17 18  1  0
 18 19  1  0
 19 20  2  0
 20 21  1  0
 21 22  1  0
 22 23  1  0
 23 24  1  0
 24 25  1  0
 24 26  2  0
 20 27  1  0
 27 28  2  0
 28  3  1  0
 12  7  1  0
 27 17  1  0
M  END
