CVD-0002398|dock_bobby27042020.91|mol2|31|dock3
     RDKit          3D

 26 29  0  0  0  0  0  0  0  0999 V2000
    6.5420   -6.5221   23.2073 F   0  0  0  0  0  0  0  0  0  0  0  0
    7.1710   -5.3704   22.8789 C   0  0  0  0  0  0  0  0  0  0  0  0
    6.5741   -4.5099   21.9968 C   0  0  0  0  0  0  0  0  0  0  0  0
    7.2121   -3.3167   21.6595 C   0  0  0  0  0  0  0  0  0  0  0  0
    8.4460   -2.9954   22.2445 C   0  0  0  0  0  0  0  0  0  0  0  0
    9.0468   -3.9035   23.1153 C   0  0  0  0  0  0  0  0  0  0  0  0
    8.4008   -5.0827   23.4347 C   0  0  0  0  0  0  0  0  0  0  0  0
    9.1493   -6.1924   24.5359 Cl  0  0  0  0  0  0  0  0  0  0  0  0
    9.0347   -1.7503   21.9090 N   0  0  0  0  0  0  0  0  0  0  0  0
   10.2745   -1.3325   22.5239 C   0  0  0  0  0  0  0  0  0  0  0  0
   10.2642   -0.5504   23.6731 C   0  0  0  0  0  0  0  0  0  0  0  0
   11.4553   -0.1554   24.2589 C   0  0  0  0  0  0  0  0  0  0  0  0
   12.6607   -0.5342   23.7091 C   0  0  0  0  0  0  0  0  0  0  0  0
   12.6802   -1.3103   22.5708 C   0  0  0  0  0  0  0  0  0  0  0  0
   11.4950   -1.7109   21.9767 C   0  0  0  0  0  0  0  0  0  0  0  0
    8.4582   -0.8584   20.9997 C   0  0  0  0  0  0  0  0  0  0  0  0
    8.9951    0.2114   20.7564 O   0  0  0  0  0  0  0  0  0  0  0  0
    7.2414   -1.2320   20.4080 N   0  0  0  0  0  0  0  0  0  0  0  0
    6.6413   -0.3166   19.4540 C   0  0  0  0  0  0  0  0  0  0  0  0
    5.3723    0.2124   19.6556 C   0  0  0  0  0  0  0  0  0  0  0  0
    4.8376    1.0848   18.7242 C   0  0  0  0  0  0  0  0  0  0  0  0
    5.5876    1.4046   17.6168 C   0  0  0  0  0  0  0  0  0  0  0  0
    6.8065    0.9124   17.3962 N   0  0  0  0  0  0  0  0  0  0  0  0
    7.3104    0.0679   18.3015 C   0  0  0  0  0  0  0  0  0  0  0  0
    6.5607   -2.4343   20.6849 C   0  0  0  0  0  0  0  0  0  0  0  0
    5.5088   -2.7416   20.1501 O   0  0  0  0  0  0  0  0  0  0  0  0
  1  2  1  0
  2  3  2  0
  3  4  1  0
  4  5  2  0
  5  6  1  0
  6  7  2  0
  7  8  1  0
  5  9  1  0
  9 10  1  0
 10 11  2  0
 11 12  1  0
 12 13  2  0
 13 14  1  0
 14 15  2  0
  9 16  1  0
 16 17  2  0
 16 18  1  0
 18 19  1  0
 19 20  2  0
 20 21  1  0
 21 22  2  0
 22 23  1  0
 23 24  2  0
 18 25  1  0
 25 26  2  0
  7  2  1  0
 15 10  1  0
 24 19  1  0
 25  4  1  0
M  END
