CVD-0004021|dock_bobby27042020.86|mol2|6|dock1
     RDKit          3D

 42 45  0  0  0  0  0  0  0  0999 V2000
   13.2887   -2.2460   23.1610 C   0  0  0  0  0  0  0  0  0  0  0  0
   12.6521   -1.0805   22.4241 C   0  0  0  0  0  0  0  0  0  0  0  0
   13.3723    0.2019   22.8070 C   0  0  0  0  0  0  0  0  0  0  0  0
   11.1587   -1.0372   22.7480 C   0  0  0  0  0  0  0  0  0  0  0  0
   10.3430    0.1336   22.1859 C   0  0  0  0  0  0  0  0  0  0  0  0
   10.6093    1.3805   22.8916 N   0  0  0  0  0  0  0  0  0  0  0  0
   10.3733    2.5963   22.3457 C   0  0  0  0  0  0  0  0  0  0  0  0
    9.9848    2.7467   21.1905 O   0  0  0  0  0  0  0  0  0  0  0  0
   10.5991    3.6451   23.1614 N   0  0  0  0  0  0  0  0  0  0  0  0
   10.3943    5.0149   22.7142 C   0  0  0  0  0  0  0  0  0  0  0  0
   10.5500    6.0328   23.8180 C   0  0  0  0  0  0  0  0  0  0  0  0
   11.7677    6.2032   24.4586 C   0  0  0  0  0  0  0  0  0  0  0  0
   11.9118    7.1393   25.4691 C   0  0  0  0  0  0  0  0  0  0  0  0
   10.8396    7.9168   25.8504 C   0  0  0  0  0  0  0  0  0  0  0  0
    9.6238    7.7586   25.2209 C   0  0  0  0  0  0  0  0  0  0  0  0
    9.4803    6.8224   24.2105 C   0  0  0  0  0  0  0  0  0  0  0  0
    8.8561   -0.2220   22.1930 C   0  0  0  0  0  0  0  0  0  0  0  0
    8.0888    0.2459   23.0305 O   0  0  0  0  0  0  0  0  0  0  0  0
    8.4431   -1.0611   21.2385 N   0  0  0  0  0  0  0  0  0  0  0  0
    7.0524   -1.4722   21.1351 C   0  0  0  0  0  0  0  0  0  0  0  0
    6.4392   -1.0267   19.8055 C   0  0  0  0  0  0  0  0  0  0  0  0
    6.1687    0.4793   19.6835 C   0  0  0  0  0  0  0  0  0  0  0  0
    5.0684    1.0150   20.6212 C   0  0  0  0  0  0  0  0  0  0  0  0
    4.2783    2.0177   19.7905 C   0  0  0  0  0  0  0  0  0  0  0  0
    4.6292    1.6641   18.4282 N   0  0  0  0  0  0  0  0  0  0  0  0
    5.6957    0.8695   18.3075 C   0  0  0  0  0  0  0  0  0  0  0  0
    6.1817    0.4902   17.2454 O   0  0  0  0  0  0  0  0  0  0  0  0
    6.9655   -2.9879   21.2820 C   0  0  0  0  0  0  0  0  0  0  0  0
    6.2604   -3.6674   20.5561 O   0  0  0  0  0  0  0  0  0  0  0  0
    7.8196   -3.6421   22.3853 C   0  0  0  0  0  0  0  0  0  0  0  0
    8.6271   -2.9845   23.0402 O   0  0  0  0  0  0  0  0  0  0  0  0
    7.6067   -4.9459   22.5564 N   0  0  0  0  0  0  0  0  0  0  0  0
    8.3262   -5.7234   23.5545 C   0  0  0  0  0  0  0  0  0  0  0  0
    7.8326   -5.4904   24.9620 C   0  0  0  0  0  0  0  0  0  0  0  0
    8.4804   -6.0787   26.0421 C   0  0  0  0  0  0  0  0  0  0  0  0
    8.0418   -5.8873   27.3433 C   0  0  0  0  0  0  0  0  0  0  0  0
    6.9287   -5.0870   27.5533 C   0  0  0  0  0  0  0  0  0  0  0  0
    6.3256   -4.7060   28.7284 O   0  0  0  0  0  0  0  0  0  0  0  0
    5.1327   -4.0268   28.3486 C   0  0  0  0  0  0  0  0  0  0  0  0
    5.2422   -3.7200   26.9556 O   0  0  0  0  0  0  0  0  0  0  0  0
    6.2766   -4.4970   26.4866 C   0  0  0  0  0  0  0  0  0  0  0  0
    6.7166   -4.6897   25.1892 C   0  0  0  0  0  0  0  0  0  0  0  0
  1  2  1  0
  2  3  1  0
  2  4  1  0
  5  4  1  0
  5  6  1  0
  6  7  1  0
  7  8  2  0
  7  9  1  0
  9 10  1  0
 10 11  1  0
 11 12  2  0
 12 13  1  0
 13 14  2  0
 14 15  1  0
 15 16  2  0
  5 17  1  0
 17 18  2  0
 17 19  1  0
 19 20  1  0
 20 21  1  0
 22 21  1  0
 22 23  1  0
 23 24  1  0
 24 25  1  0
 25 26  1  0
 26 27  2  0
 20 28  1  0
 28 29  2  0
 28 30  1  0
 30 31  2  0
 30 32  1  0
 32 33  1  0
 33 34  1  0
 34 35  2  0
 35 36  1  0
 36 37  2  0
 37 38  1  0
 38 39  1  0
 39 40  1  0
 40 41  1  0
 41 42  2  0
 16 11  1  0
 26 22  1  0
 42 34  1  0
 41 37  1  0
M  END
