CVD-0002072|dock_bobby27042020.65|mol2|4|dock3
     RDKit          3D

 29 30  0  0  0  0  0  0  0  0999 V2000
    5.4567   -6.7870   21.9454 C   0  0  0  0  0  0  0  0  0  0  0  0
    5.8680   -5.3958   21.9901 N   0  0  0  0  0  0  0  0  0  0  0  0
    6.8156   -4.9128   21.1982 C   0  0  0  0  0  0  0  0  0  0  0  0
    7.4068   -5.6083   20.3766 O   0  0  0  0  0  0  0  0  0  0  0  0
    7.1637   -3.4236   21.3390 C   0  0  0  0  0  0  0  0  0  0  0  0
    7.1751   -2.8763   19.9839 N   0  0  0  0  0  0  0  0  0  0  0  0
    6.5300   -1.5607   19.8974 C   0  0  0  0  0  0  0  0  0  0  0  0
    6.8171   -0.9145   18.5592 C   0  0  0  0  0  0  0  0  0  0  0  0
    5.8583    0.1387   18.2574 N   0  0  0  0  0  0  0  0  0  0  0  0
    5.7638    1.2550   18.9824 C   0  0  0  0  0  0  0  0  0  0  0  0
    4.7375    2.2516   18.5299 C   0  0  0  0  0  0  0  0  0  0  0  0
    6.4849    1.4611   19.9535 O   0  0  0  0  0  0  0  0  0  0  0  0
    8.4816   -3.3235   22.0953 C   0  0  0  0  0  0  0  0  0  0  0  0
    8.7355   -4.1237   23.1999 C   0  0  0  0  0  0  0  0  0  0  0  0
    9.9377   -4.0201   23.8787 C   0  0  0  0  0  0  0  0  0  0  0  0
   10.8949   -3.1128   23.4566 C   0  0  0  0  0  0  0  0  0  0  0  0
   10.6600   -2.3026   22.3568 C   0  0  0  0  0  0  0  0  0  0  0  0
   11.7008   -1.3132   21.8891 C   0  0  0  0  0  0  0  0  0  0  0  0
   11.6885   -0.0475   22.6374 N   0  0  0  0  0  0  0  0  0  0  0  0
   10.8274    0.9339   21.9708 C   0  0  0  0  0  0  0  0  0  0  0  0
   10.7859    2.2238   22.7688 C   0  0  0  0  0  0  0  0  0  0  0  0
   12.1360    2.7660   22.9354 N   0  0  0  0  0  0  0  0  0  0  0  0
   13.0388    1.7853   23.5461 C   0  0  0  0  0  0  0  0  0  0  0  0
   13.0396    0.4975   22.7425 C   0  0  0  0  0  0  0  0  0  0  0  0
   12.4663    4.0260   22.5864 C   0  0  0  0  0  0  0  0  0  0  0  0
   11.6472    4.8022   22.1110 O   0  0  0  0  0  0  0  0  0  0  0  0
   13.9070    4.4369   22.8186 C   0  0  0  0  0  0  0  0  0  0  0  0
   14.1702    6.1065   22.2987 Cl  0  0  0  0  0  0  0  0  0  0  0  0
    9.4496   -2.4191   21.6854 C   0  0  0  0  0  0  0  0  0  0  0  0
  1  2  1  0
  2  3  1  0
  3  4  2  0
  3  5  1  0
  5  6  1  0
  6  7  1  0
  7  8  1  0
  8  9  1  0
  9 10  1  0
 10 11  1  0
 10 12  2  0
  5 13  1  0
 13 14  2  0
 14 15  1  0
 15 16  2  0
 16 17  1  0
 17 18  1  0
 18 19  1  0
 19 20  1  0
 20 21  1  0
 21 22  1  0
 22 23  1  0
 23 24  1  0
 22 25  1  0
 25 26  2  0
 25 27  1  0
 27 28  1  0
 17 29  2  0
 29 13  1  0
 24 19  1  0
M  END
