CVD-0001376|dock_bobby27042020.52|mol2|46|dock2
     RDKit          3D

 42 45  0  0  0  0  0  0  0  0999 V2000
   -1.6128   -6.9129   20.3463 C   0  0  0  0  0  0  0  0  0  0  0  0
   -0.3317   -7.6582   20.6625 C   0  0  0  0  0  0  0  0  0  0  0  0
    0.2812   -8.2461   19.4073 C   0  0  0  0  0  0  0  0  0  0  0  0
   -0.6003   -8.7525   21.6747 C   0  0  0  0  0  0  0  0  0  0  0  0
    0.6348   -6.7161   21.2745 O   0  0  0  0  0  0  0  0  0  0  0  0
    1.8380   -7.0970   21.7403 C   0  0  0  0  0  0  0  0  0  0  0  0
    2.3291   -8.1992   21.6263 O   0  0  0  0  0  0  0  0  0  0  0  0
    2.4035   -6.0099   22.3660 N   0  0  0  0  0  0  0  0  0  0  0  0
    3.6670   -5.9633   22.9985 C   0  0  0  0  0  0  0  0  0  0  0  0
    4.8858   -6.3590   22.5201 C   0  0  0  0  0  0  0  0  0  0  0  0
    6.0546   -6.2375   23.3033 C   0  0  0  0  0  0  0  0  0  0  0  0
    6.0269   -5.7142   24.5688 C   0  0  0  0  0  0  0  0  0  0  0  0
    4.7975   -5.3146   25.0562 N   0  0  0  0  0  0  0  0  0  0  0  0
    3.6007   -5.3980   24.3670 C   0  0  0  0  0  0  0  0  0  0  0  0
    2.5477   -5.0173   24.8762 O   0  0  0  0  0  0  0  0  0  0  0  0
    7.1992   -5.5527   25.4531 C   0  0  0  0  0  0  0  0  0  0  0  0
    7.1637   -6.2430   26.6685 C   0  0  0  0  0  0  0  0  0  0  0  0
    8.2296   -6.2033   27.5500 C   0  0  0  0  0  0  0  0  0  0  0  0
    9.3535   -5.4763   27.2360 C   0  0  0  0  0  0  0  0  0  0  0  0
    9.3984   -4.7667   26.0505 C   0  0  0  0  0  0  0  0  0  0  0  0
    8.3315   -4.7640   25.1547 C   0  0  0  0  0  0  0  0  0  0  0  0
    8.5081   -3.8779   23.9384 C   0  0  0  0  0  0  0  0  0  0  0  0
    9.1417   -2.5249   24.2605 C   0  0  0  0  0  0  0  0  0  0  0  0
    8.8088   -1.4592   23.2439 C   0  0  0  0  0  0  0  0  0  0  0  0
    8.2325   -0.4209   23.5538 O   0  0  0  0  0  0  0  0  0  0  0  0
    9.1864   -1.7229   21.9912 N   0  0  0  0  0  0  0  0  0  0  0  0
    8.9377   -0.7898   20.9045 C   0  0  0  0  0  0  0  0  0  0  0  0
    7.4363   -0.5075   20.7995 C   0  0  0  0  0  0  0  0  0  0  0  0
    6.9257   -0.1080   19.4073 C   0  0  0  0  0  0  0  0  0  0  0  0
    5.7857    0.9300   19.4119 C   0  0  0  0  0  0  0  0  0  0  0  0
    4.8192    0.4780   18.3249 C   0  0  0  0  0  0  0  0  0  0  0  0
    5.1770   -0.9136   18.1256 N   0  0  0  0  0  0  0  0  0  0  0  0
    6.3516   -1.2754   18.6477 C   0  0  0  0  0  0  0  0  0  0  0  0
    6.8567   -2.3910   18.5542 O   0  0  0  0  0  0  0  0  0  0  0  0
    9.7414    0.4790   21.1732 C   0  0  0  0  0  0  0  0  0  0  0  0
    9.4671    1.5410   20.6416 O   0  0  0  0  0  0  0  0  0  0  0  0
   10.9292    0.3718   22.1492 C   0  0  0  0  0  0  0  0  0  0  0  0
   10.9767    1.0375   23.1825 O   0  0  0  0  0  0  0  0  0  0  0  0
   11.8763   -0.4937   21.7693 N   0  0  0  0  0  0  0  0  0  0  0  0
   13.0870   -0.7466   22.5507 C   0  0  0  0  0  0  0  0  0  0  0  0
   13.8681    0.6814   22.3181 C   0  0  0  0  0  0  0  0  0  0  0  0
   13.8115    0.0536   23.6638 C   0  0  0  0  0  0  0  0  0  0  0  0
  1  2  1  0
  2  3  1  0
  2  4  1  0
  2  5  1  0
  5  6  1  0
  6  7  2  0
  6  8  1  0
  8  9  1  0
  9 10  2  0
 10 11  1  0
 11 12  2  0
 12 13  1  0
 13 14  1  0
 14 15  2  0
 12 16  1  0
 16 17  2  0
 17 18  1  0
 18 19  2  0
 19 20  1  0
 20 21  2  0
 21 22  1  0
 22 23  1  0
 23 24  1  0
 24 25  2  0
 24 26  1  0
 26 27  1  0
 27 28  1  0
 29 28  1  0
 29 30  1  0
 30 31  1  0
 31 32  1  0
 32 33  1  0
 33 34  2  0
 27 35  1  0
 35 36  2  0
 35 37  1  0
 37 38  2  0
 37 39  1  0
 39 40  1  0
 40 41  1  0
 41 42  1  0
 14  9  1  0
 21 16  1  0
 33 29  1  0
 42 40  1  0
M  END
