CVD-0001511|dock_bobby27042020.52|mol2|24|dock3
     RDKit          3D

 38 42  0  0  0  0  0  0  0  0999 V2000
    7.4926   -4.2557   27.3097 O   0  0  0  0  0  0  0  0  0  0  0  0
    7.0326   -5.3178   28.0206 C   0  0  0  0  0  0  0  0  0  0  0  0
    7.3408   -5.4621   29.3661 C   0  0  0  0  0  0  0  0  0  0  0  0
    6.8556   -6.5565   30.0607 C   0  0  0  0  0  0  0  0  0  0  0  0
    6.0726   -7.4951   29.4208 C   0  0  0  0  0  0  0  0  0  0  0  0
    5.7555   -7.3657   28.0770 C   0  0  0  0  0  0  0  0  0  0  0  0
    6.2394   -6.2666   27.3675 C   0  0  0  0  0  0  0  0  0  0  0  0
    5.9774   -6.0368   25.9959 N   0  0  0  0  0  0  0  0  0  0  0  0
    5.3609   -5.9548   24.7950 C   0  0  0  0  0  0  0  0  0  0  0  0
    4.1893   -6.2729   24.6088 O   0  0  0  0  0  0  0  0  0  0  0  0
    6.2346   -5.4325   23.6744 C   0  0  0  0  0  0  0  0  0  0  0  0
    6.8550   -4.0919   24.0476 C   0  0  0  0  0  0  0  0  0  0  0  0
    7.6961   -3.5583   22.9063 C   0  0  0  0  0  0  0  0  0  0  0  0
    6.8801   -3.4333   21.7014 N   0  0  0  0  0  0  0  0  0  0  0  0
    6.3073   -4.7052   21.2741 C   0  0  0  0  0  0  0  0  0  0  0  0
    5.4338   -5.2825   22.3829 C   0  0  0  0  0  0  0  0  0  0  0  0
    6.8549   -2.3673   20.8751 C   0  0  0  0  0  0  0  0  0  0  0  0
    6.1267   -2.3374   19.8910 O   0  0  0  0  0  0  0  0  0  0  0  0
    7.7590   -1.2010   21.1998 C   0  0  0  0  0  0  0  0  0  0  0  0
    7.1553   -0.3088   22.2693 C   0  0  0  0  0  0  0  0  0  0  0  0
    7.6025    1.1266   22.1122 C   0  0  0  0  0  0  0  0  0  0  0  0
    6.8490    1.9353   21.5844 O   0  0  0  0  0  0  0  0  0  0  0  0
    8.8266    1.4978   22.5540 N   0  0  0  0  0  0  0  0  0  0  0  0
    9.7985    0.5788   23.1962 C   0  0  0  0  0  0  0  0  0  0  0  0
   11.1458    0.6885   22.5634 C   0  0  0  0  0  0  0  0  0  0  0  0
   12.1153   -0.2755   23.2355 C   0  0  0  0  0  0  0  0  0  0  0  0
   12.5494   -0.0507   24.5344 C   0  0  0  0  0  0  0  0  0  0  0  0
   13.4281   -0.9268   25.1493 C   0  0  0  0  0  0  0  0  0  0  0  0
   13.8832   -2.0388   24.4738 C   0  0  0  0  0  0  0  0  0  0  0  0
   13.4597   -2.2755   23.1837 C   0  0  0  0  0  0  0  0  0  0  0  0
   12.5812   -1.3998   22.5678 C   0  0  0  0  0  0  0  0  0  0  0  0
   11.6344    2.1122   22.6438 C   0  0  0  0  0  0  0  0  0  0  0  0
   12.9874    2.4060   22.8128 C   0  0  0  0  0  0  0  0  0  0  0  0
   13.4447    3.7106   22.8750 C   0  0  0  0  0  0  0  0  0  0  0  0
   12.5493    4.7516   22.7683 C   0  0  0  0  0  0  0  0  0  0  0  0
   11.2031    4.4816   22.6002 C   0  0  0  0  0  0  0  0  0  0  0  0
   10.7351    3.1728   22.5366 C   0  0  0  0  0  0  0  0  0  0  0  0
    9.2362    2.9046   22.3733 C   0  0  0  0  0  0  0  0  0  0  0  0
  1  2  1  0
  2  3  2  0
  3  4  1  0
  4  5  2  0
  5  6  1  0
  6  7  2  0
  7  8  1  0
  8  9  1  0
  9 10  2  0
  9 11  1  0
 11 12  1  0
 12 13  1  0
 13 14  1  0
 14 15  1  0
 15 16  1  0
 14 17  1  0
 17 18  2  0
 17 19  1  0
 19 20  1  0
 20 21  1  0
 21 22  2  0
 21 23  1  0
 23 24  1  0
 24 25  1  0
 25 26  1  0
 26 27  2  0
 27 28  1  0
 28 29  2  0
 29 30  1  0
 30 31  2  0
 25 32  1  0
 32 33  2  0
 33 34  1  0
 34 35  2  0
 35 36  1  0
 36 37  2  0
 37 38  1  0
  7  2  1  0
 16 11  1  0
 38 23  1  0
 31 26  1  0
 37 32  1  0
M  END
