CVD-0002784|dock_bobby27042020.33|mol2|7|dock1
     RDKit          3D

 17 18  0  0  0  0  0  0  0  0999 V2000
   13.6674   -2.0300   21.0590 C   0  0  0  0  0  0  0  0  0  0  0  0
   13.3086   -1.1220   22.2341 C   0  0  0  0  0  0  0  0  0  0  0  0
   13.7651   -1.7829   23.5183 C   0  0  0  0  0  0  0  0  0  0  0  0
   13.4492   -0.8798   24.7229 C   0  0  0  0  0  0  0  0  0  0  0  0
   11.9815   -0.5165   24.7710 C   0  0  0  0  0  0  0  0  0  0  0  0
   11.5204    0.1247   23.4654 C   0  0  0  0  0  0  0  0  0  0  0  0
   11.8333   -0.7449   22.2563 C   0  0  0  0  0  0  0  0  0  0  0  0
   10.9629   -2.0025   22.2858 C   0  0  0  0  0  0  0  0  0  0  0  0
    9.4936   -1.7314   22.0496 C   0  0  0  0  0  0  0  0  0  0  0  0
    8.7034   -1.6726   22.9857 O   0  0  0  0  0  0  0  0  0  0  0  0
    9.1780   -1.5652   20.7423 N   0  0  0  0  0  0  0  0  0  0  0  0
    7.9389   -1.2949   20.1106 C   0  0  0  0  0  0  0  0  0  0  0  0
    6.7627   -1.0127   20.7980 C   0  0  0  0  0  0  0  0  0  0  0  0
    5.6045   -0.7624   20.0823 C   0  0  0  0  0  0  0  0  0  0  0  0
    5.6519   -0.8004   18.7078 C   0  0  0  0  0  0  0  0  0  0  0  0
    6.7633   -1.0679   18.0223 N   0  0  0  0  0  0  0  0  0  0  0  0
    7.8759   -1.3079   18.7220 C   0  0  0  0  0  0  0  0  0  0  0  0
  2  1  1  0
  2  3  1  0
  3  4  1  0
  4  5  1  0
  5  6  1  0
  6  7  1  0
  7  8  1  0
  8  9  1  0
  9 10  2  0
  9 11  1  0
 11 12  1  0
 12 13  2  0
 13 14  1  0
 14 15  2  0
 15 16  1  0
 16 17  2  0
  7  2  1  0
 17 12  1  0
M  END
