CVD-0002167|dock_bobby27042020.21|mol2|18|dock3
     RDKit          3D

 25 27  0  0  0  0  0  0  0  0999 V2000
    8.6924   -0.3761   22.4045 O   0  0  0  0  0  0  0  0  0  0  0  0
    9.1982   -0.8181   21.3777 C   0  0  0  0  0  0  0  0  0  0  0  0
   10.4193   -1.4508   21.3290 N   0  0  0  0  0  0  0  0  0  0  0  0
   11.3483   -1.7414   22.3598 C   0  0  0  0  0  0  0  0  0  0  0  0
   12.7277   -1.7991   22.1836 C   0  0  0  0  0  0  0  0  0  0  0  0
   13.5375   -2.0931   23.2672 C   0  0  0  0  0  0  0  0  0  0  0  0
   12.9527   -2.3204   24.4916 C   0  0  0  0  0  0  0  0  0  0  0  0
   11.6359   -2.2722   24.6914 N   0  0  0  0  0  0  0  0  0  0  0  0
   10.8633   -1.9877   23.6393 C   0  0  0  0  0  0  0  0  0  0  0  0
    8.6254   -0.7408   20.1278 N   0  0  0  0  0  0  0  0  0  0  0  0
    7.3791   -0.1717   19.7461 C   0  0  0  0  0  0  0  0  0  0  0  0
    7.2203    0.5379   18.5535 C   0  0  0  0  0  0  0  0  0  0  0  0
    5.9998    1.1085   18.2404 C   0  0  0  0  0  0  0  0  0  0  0  0
    4.9328    0.9921   19.0994 C   0  0  0  0  0  0  0  0  0  0  0  0
    5.0588    0.2803   20.2778 C   0  0  0  0  0  0  0  0  0  0  0  0
    6.2744   -0.3204   20.6068 C   0  0  0  0  0  0  0  0  0  0  0  0
    6.4186   -1.0894   21.7714 N   0  0  0  0  0  0  0  0  0  0  0  0
    6.6184   -2.4522   21.9445 C   0  0  0  0  0  0  0  0  0  0  0  0
    7.0010   -3.0271   23.1585 C   0  0  0  0  0  0  0  0  0  0  0  0
    7.1578   -4.3999   23.2239 C   0  0  0  0  0  0  0  0  0  0  0  0
    6.9464   -5.1753   22.0903 C   0  0  0  0  0  0  0  0  0  0  0  0
    6.5833   -4.5137   20.9223 C   0  0  0  0  0  0  0  0  0  0  0  0
    6.4263   -3.1877   20.8441 N   0  0  0  0  0  0  0  0  0  0  0  0
    7.0981   -6.6091   22.1236 C   0  0  0  0  0  0  0  0  0  0  0  0
    7.2099   -7.7458   22.1177 N   0  0  0  0  0  0  0  0  0  0  0  0
  1  2  2  0
  2  3  1  0
  3  4  1  0
  4  5  2  0
  5  6  1  0
  6  7  2  0
  7  8  1  0
  8  9  2  0
  2 10  1  0
 10 11  1  0
 11 12  2  0
 12 13  1  0
 13 14  2  0
 14 15  1  0
 15 16  2  0
 16 17  1  0
 17 18  1  0
 18 19  2  0
 19 20  1  0
 20 21  2  0
 21 22  1  0
 22 23  2  0
 21 24  1  0
 24 25  3  0
  9  4  1  0
 16 11  1  0
 23 18  1  0
M  END
