CVD-0000077|dock_bobby27042020.14|mol2|16|dock2
     RDKit          3D

 17 18  0  0  0  0  0  0  0  0999 V2000
   14.2026   -2.6875   24.6565 C   0  0  0  0  0  0  0  0  0  0  0  0
   12.9614   -2.4628   23.8587 C   0  0  0  0  0  0  0  0  0  0  0  0
   11.7984   -2.9055   24.1951 N   0  0  0  0  0  0  0  0  0  0  0  0
   10.7983   -2.5556   23.2889 N   0  0  0  0  0  0  0  0  0  0  0  0
   11.2420   -1.8451   22.2834 C   0  0  0  0  0  0  0  0  0  0  0  0
   10.3208   -1.4462   21.3248 N   0  0  0  0  0  0  0  0  0  0  0  0
    9.1841   -0.6218   21.3628 C   0  0  0  0  0  0  0  0  0  0  0  0
    8.9202   -0.1348   22.4578 O   0  0  0  0  0  0  0  0  0  0  0  0
    8.4378   -0.4027   20.2250 N   0  0  0  0  0  0  0  0  0  0  0  0
    7.2636    0.3872   20.0565 C   0  0  0  0  0  0  0  0  0  0  0  0
    6.9713    1.5464   20.7777 C   0  0  0  0  0  0  0  0  0  0  0  0
    5.8562    2.2672   20.6232 N   0  0  0  0  0  0  0  0  0  0  0  0
    4.9816    1.8646   19.7065 C   0  0  0  0  0  0  0  0  0  0  0  0
    5.1727    0.7452   18.9287 C   0  0  0  0  0  0  0  0  0  0  0  0
    6.3223   -0.0221   19.0907 C   0  0  0  0  0  0  0  0  0  0  0  0
    6.4879   -1.2483   18.2299 C   0  0  0  0  0  0  0  0  0  0  0  0
   12.9481   -1.5532   22.3850 S   0  0  0  0  0  0  0  0  0  0  0  0
  1  2  1  0
  2  3  2  0
  3  4  1  0
  4  5  2  0
  5  6  1  0
  6  7  1  0
  7  8  2  0
  7  9  1  0
  9 10  1  0
 10 11  2  0
 11 12  1  0
 12 13  2  0
 13 14  1  0
 14 15  2  0
 15 16  1  0
  5 17  1  0
 17  2  1  0
 15 10  1  0
M  END
