CVD-0003404|dock_bobby27042020.31|mol2|6|dock3
     RDKit          3D

 17 18  0  0  0  0  0  0  0  0999 V2000
   12.7746   -0.4627   25.6823 N   0  0  0  0  0  0  0  0  0  0  0  0
   12.8002   -0.9090   24.3817 C   0  0  0  0  0  0  0  0  0  0  0  0
   13.9245   -1.5441   23.8658 C   0  0  0  0  0  0  0  0  0  0  0  0
   13.9874   -1.9911   22.6091 N   0  0  0  0  0  0  0  0  0  0  0  0
   12.9200   -1.8152   21.8253 C   0  0  0  0  0  0  0  0  0  0  0  0
   11.7453   -1.1947   22.2358 C   0  0  0  0  0  0  0  0  0  0  0  0
   10.6853   -1.0718   21.3025 N   0  0  0  0  0  0  0  0  0  0  0  0
    9.4510   -0.4755   21.4242 C   0  0  0  0  0  0  0  0  0  0  0  0
    9.0520    0.0836   22.4404 O   0  0  0  0  0  0  0  0  0  0  0  0
    8.7251   -0.5882   20.2602 N   0  0  0  0  0  0  0  0  0  0  0  0
    7.4236   -0.1313   19.9304 C   0  0  0  0  0  0  0  0  0  0  0  0
    7.2036    0.2994   18.6268 C   0  0  0  0  0  0  0  0  0  0  0  0
    5.9570    0.7582   18.2363 C   0  0  0  0  0  0  0  0  0  0  0  0
    4.9167    0.7934   19.1378 C   0  0  0  0  0  0  0  0  0  0  0  0
    5.1216    0.3696   20.4324 C   0  0  0  0  0  0  0  0  0  0  0  0
    6.3642   -0.0915   20.8349 C   0  0  0  0  0  0  0  0  0  0  0  0
   11.6955   -0.7340   23.5493 C   0  0  0  0  0  0  0  0  0  0  0  0
  1  2  1  0
  2  3  2  0
  3  4  1  0
  4  5  2  0
  5  6  1  0
  6  7  1  0
  7  8  1  0
  8  9  2  0
  8 10  1  0
 10 11  1  0
 11 12  2  0
 12 13  1  0
 13 14  2  0
 14 15  1  0
 15 16  2  0
  6 17  2  0
 17  2  1  0
 16 11  1  0
M  END
