CVD-0001984|dock_bobby27042020.93|mol2|22|dock2
     RDKit          3D

 19 21  0  0  0  0  0  0  0  0999 V2000
   13.8257   -2.4152   23.1609 C   0  0  0  0  0  0  0  0  0  0  0  0
   12.8669   -1.8556   22.1121 C   0  0  0  0  0  0  0  0  0  0  0  0
   13.4718   -1.9515   20.7235 C   0  0  0  0  0  0  0  0  0  0  0  0
   14.4578   -1.1155   20.5145 O   0  0  0  0  0  0  0  0  0  0  0  0
   13.0738   -2.7332   19.8880 O   0  0  0  0  0  0  0  0  0  0  0  0
   12.4718   -0.4064   22.3705 C   0  0  0  0  0  0  0  0  0  0  0  0
   11.1400   -0.0152   22.4547 C   0  0  0  0  0  0  0  0  0  0  0  0
   10.7260    1.2396   22.6688 N   0  0  0  0  0  0  0  0  0  0  0  0
   11.6862    2.1620   22.8128 C   0  0  0  0  0  0  0  0  0  0  0  0
   13.0578    1.8731   22.7479 C   0  0  0  0  0  0  0  0  0  0  0  0
   13.4574    0.5616   22.5214 C   0  0  0  0  0  0  0  0  0  0  0  0
   13.7852    3.0335   22.9354 N   0  0  0  0  0  0  0  0  0  0  0  0
   12.9004    4.0813   23.1224 C   0  0  0  0  0  0  0  0  0  0  0  0
   13.1431    5.4319   23.3473 C   0  0  0  0  0  0  0  0  0  0  0  0
   12.0683    6.2916   23.5046 C   0  0  0  0  0  0  0  0  0  0  0  0
   10.7782    5.8046   23.4373 C   0  0  0  0  0  0  0  0  0  0  0  0
    9.4471    6.9092   23.6388 Cl  0  0  0  0  0  0  0  0  0  0  0  0
   10.5080    4.4685   23.2151 C   0  0  0  0  0  0  0  0  0  0  0  0
   11.5805    3.5945   23.0555 C   0  0  0  0  0  0  0  0  0  0  0  0
  2  1  1  0
  2  3  1  0
  3  4  1  0
  3  5  2  0
  2  6  1  0
  6  7  2  0
  7  8  1  0
  8  9  2  0
  9 10  1  0
 10 11  2  0
 10 12  1  0
 12 13  1  0
 13 14  2  0
 14 15  1  0
 15 16  2  0
 16 17  1  0
 16 18  1  0
 18 19  2  0
 11  6  1  0
 19 13  1  0
 19  9  1  0
M  END
