CVD-0001024|dock_bobby27042020.11|mol2|7|dock3
     RDKit          3D

 24 26  0  0  0  0  0  0  0  0999 V2000
   14.3274    7.3908   23.1019 F   0  0  0  0  0  0  0  0  0  0  0  0
   13.5997    6.2580   22.9708 C   0  0  0  0  0  0  0  0  0  0  0  0
   13.7926    5.4607   21.8699 C   0  0  0  0  0  0  0  0  0  0  0  0
   13.0486    4.3011   21.7343 C   0  0  0  0  0  0  0  0  0  0  0  0
   12.1106    3.9363   22.7009 C   0  0  0  0  0  0  0  0  0  0  0  0
   11.3062    2.7672   22.6448 N   0  0  0  0  0  0  0  0  0  0  0  0
   10.8972    1.9123   23.6413 C   0  0  0  0  0  0  0  0  0  0  0  0
   11.1814    2.0956   24.8174 O   0  0  0  0  0  0  0  0  0  0  0  0
   10.1421    0.8121   23.3231 N   0  0  0  0  0  0  0  0  0  0  0  0
   10.0392    0.2012   21.9940 C   0  0  0  0  0  0  0  0  0  0  0  0
   10.3501   -1.2805   22.0585 C   0  0  0  0  0  0  0  0  0  0  0  0
    9.5057   -2.0058   23.1040 C   0  0  0  0  0  0  0  0  0  0  0  0
    9.8863   -3.4840   23.2531 C   0  0  0  0  0  0  0  0  0  0  0  0
    9.4178   -4.1233   24.5377 C   0  0  0  0  0  0  0  0  0  0  0  0
    8.0674   -4.1936   24.8430 C   0  0  0  0  0  0  0  0  0  0  0  0
    7.6370   -4.7828   26.0200 C   0  0  0  0  0  0  0  0  0  0  0  0
    8.5525   -5.3098   26.9053 C   0  0  0  0  0  0  0  0  0  0  0  0
    9.8981   -5.2478   26.6133 C   0  0  0  0  0  0  0  0  0  0  0  0
   10.3279   -4.6584   25.4362 C   0  0  0  0  0  0  0  0  0  0  0  0
    9.5827   -1.2675   24.4342 C   0  0  0  0  0  0  0  0  0  0  0  0
    9.2495    0.2021   24.3019 C   0  0  0  0  0  0  0  0  0  0  0  0
   11.9346    4.7630   23.8066 C   0  0  0  0  0  0  0  0  0  0  0  0
   12.6777    5.9197   23.9394 C   0  0  0  0  0  0  0  0  0  0  0  0
   12.4412    6.9336   25.3252 Cl  0  0  0  0  0  0  0  0  0  0  0  0
  1  2  1  0
  2  3  2  0
  3  4  1  0
  4  5  2  0
  5  6  1  0
  6  7  1  0
  7  8  2  0
  7  9  1  0
  9 10  1  0
 10 11  1  0
 11 12  1  0
 12 13  1  0
 13 14  1  0
 14 15  2  0
 15 16  1  0
 16 17  2  0
 17 18  1  0
 18 19  2  0
 12 20  1  0
 20 21  1  0
  5 22  1  0
 22 23  2  0
 23 24  1  0
 23  2  1  0
 21  9  1  0
 19 14  1  0
M  END
