CVD-0000353|dock_bobby27042020.42|mol2|1|dock1
     RDKit          3D

 29 31  0  0  0  0  0  0  0  0999 V2000
    9.3931    0.8088   23.8145 C   0  0  0  0  0  0  0  0  0  0  0  0
   10.5159    1.2307   22.8886 C   0  0  0  0  0  0  0  0  0  0  0  0
   10.2657    2.5377   22.3770 N   0  0  0  0  0  0  0  0  0  0  0  0
   11.1349    3.5950   22.5430 C   0  0  0  0  0  0  0  0  0  0  0  0
   12.5009    3.4585   22.2990 C   0  0  0  0  0  0  0  0  0  0  0  0
   13.3378    4.5471   22.4796 C   0  0  0  0  0  0  0  0  0  0  0  0
   12.7971    5.7402   22.8966 C   0  0  0  0  0  0  0  0  0  0  0  0
   11.4931    5.9105   23.1399 N   0  0  0  0  0  0  0  0  0  0  0  0
   10.7100    4.8627   22.9623 C   0  0  0  0  0  0  0  0  0  0  0  0
    9.0302    5.1482   23.2925 Cl  0  0  0  0  0  0  0  0  0  0  0  0
   10.6207    0.2909   21.8305 O   0  0  0  0  0  0  0  0  0  0  0  0
   11.0180   -1.0275   22.2084 C   0  0  0  0  0  0  0  0  0  0  0  0
    9.7871   -1.8515   22.4715 C   0  0  0  0  0  0  0  0  0  0  0  0
    9.7632   -2.8238   23.4653 C   0  0  0  0  0  0  0  0  0  0  0  0
    8.6343   -3.5883   23.7195 C   0  0  0  0  0  0  0  0  0  0  0  0
    7.4965   -3.3677   22.9562 C   0  0  0  0  0  0  0  0  0  0  0  0
    7.4873   -2.4070   21.9607 C   0  0  0  0  0  0  0  0  0  0  0  0
    8.6301   -1.6748   21.7445 C   0  0  0  0  0  0  0  0  0  0  0  0
    8.6260   -0.7338   20.7727 F   0  0  0  0  0  0  0  0  0  0  0  0
    8.6484   -4.6311   24.8083 C   0  0  0  0  0  0  0  0  0  0  0  0
    7.9808   -4.1391   26.0631 C   0  0  0  0  0  0  0  0  0  0  0  0
    8.0919   -5.1564   27.1072 N   0  0  0  0  0  0  0  0  0  0  0  0
    9.4613   -5.6231   27.3147 C   0  0  0  0  0  0  0  0  0  0  0  0
   10.0647   -6.0380   26.0058 C   0  0  0  0  0  0  0  0  0  0  0  0
    9.9999   -4.9989   25.0435 O   0  0  0  0  0  0  0  0  0  0  0  0
    6.9965   -5.5742   27.7998 C   0  0  0  0  0  0  0  0  0  0  0  0
    5.8978   -5.0841   27.5434 O   0  0  0  0  0  0  0  0  0  0  0  0
    7.0263   -6.6018   28.8889 C   0  0  0  0  0  0  0  0  0  0  0  0
    6.4177   -6.5372   30.0472 C   0  0  0  0  0  0  0  0  0  0  0  0
  2  1  1  0
  2  3  1  0
  3  4  1  0
  4  5  2  0
  5  6  1  0
  6  7  2  0
  7  8  1  0
  8  9  2  0
  9 10  1  0
  2 11  1  0
 11 12  1  0
 12 13  1  0
 13 14  2  0
 14 15  1  0
 15 16  2  0
 16 17  1  0
 17 18  2  0
 18 19  1  0
 20 15  1  0
 20 21  1  0
 21 22  1  0
 22 23  1  0
 23 24  1  0
 24 25  1  0
 22 26  1  0
 26 27  2  0
 26 28  1  0
 28 29  2  0
  9  4  1  0
 18 13  1  0
 25 20  1  0
M  END
