CVD-0000508|dock_bobby27042020.84|mol2|8|dock3
     RDKit          3D

 38 40  0  0  0  0  0  0  0  0999 V2000
    7.8357    0.0033   18.0914 N   0  0  0  0  0  0  0  0  0  0  0  0
    6.3564   -0.3148   18.3185 S   0  0  0  0  0  0  0  0  0  0  0  0
    6.1571   -1.7554   18.0523 O   0  0  0  0  0  0  0  0  0  0  0  0
    5.5615    0.6080   17.4804 O   0  0  0  0  0  0  0  0  0  0  0  0
    5.9651   -0.0161   19.9576 N   0  0  0  0  0  0  0  0  0  0  0  0
    6.2491    1.3813   20.2999 C   0  0  0  0  0  0  0  0  0  0  0  0
    6.6802    1.6098   21.7522 C   0  0  0  0  0  0  0  0  0  0  0  0
    7.7551    0.6815   22.0938 N   0  0  0  0  0  0  0  0  0  0  0  0
    8.3206    0.6338   23.3038 C   0  0  0  0  0  0  0  0  0  0  0  0
    7.9695    1.3617   24.2285 O   0  0  0  0  0  0  0  0  0  0  0  0
    9.4511   -0.3725   23.5077 C   0  0  0  0  0  0  0  0  0  0  0  0
   10.7854    0.1981   22.9995 C   0  0  0  0  0  0  0  0  0  0  0  0
   12.0065   -0.4575   23.5978 C   0  0  0  0  0  0  0  0  0  0  0  0
   12.7432   -1.3816   22.8735 C   0  0  0  0  0  0  0  0  0  0  0  0
   13.8617   -1.9885   23.4166 C   0  0  0  0  0  0  0  0  0  0  0  0
   14.2595   -1.6743   24.7061 C   0  0  0  0  0  0  0  0  0  0  0  0
   15.3616   -2.2688   25.2478 O   0  0  0  0  0  0  0  0  0  0  0  0
   13.5321   -0.7533   25.4427 C   0  0  0  0  0  0  0  0  0  0  0  0
   12.4157   -0.1540   24.8869 C   0  0  0  0  0  0  0  0  0  0  0  0
    9.1512   -1.6182   22.8211 N   0  0  0  0  0  0  0  0  0  0  0  0
    8.0504   -2.3337   23.1403 C   0  0  0  0  0  0  0  0  0  0  0  0
    7.3114   -1.9861   24.0565 O   0  0  0  0  0  0  0  0  0  0  0  0
    7.9029   -3.4457   22.3457 N   0  0  0  0  0  0  0  0  0  0  0  0
    6.8656   -4.4373   22.4313 C   0  0  0  0  0  0  0  0  0  0  0  0
    7.1790   -5.7518   22.1255 C   0  0  0  0  0  0  0  0  0  0  0  0
    8.4416   -6.0065   21.7122 F   0  0  0  0  0  0  0  0  0  0  0  0
    6.3022   -6.8011   22.2187 C   0  0  0  0  0  0  0  0  0  0  0  0
    5.0331   -6.5008   22.6427 C   0  0  0  0  0  0  0  0  0  0  0  0
    4.1404   -7.5182   22.7787 F   0  0  0  0  0  0  0  0  0  0  0  0
    4.6170   -5.2264   22.9340 C   0  0  0  0  0  0  0  0  0  0  0  0
    5.5385   -4.2205   22.7883 C   0  0  0  0  0  0  0  0  0  0  0  0
    5.0924   -2.9613   22.9929 F   0  0  0  0  0  0  0  0  0  0  0  0
    7.1083    3.0485   21.9643 C   0  0  0  0  0  0  0  0  0  0  0  0
    6.1662    4.0646   22.0426 C   0  0  0  0  0  0  0  0  0  0  0  0
    6.5575    5.3785   22.2387 C   0  0  0  0  0  0  0  0  0  0  0  0
    7.8944    5.6922   22.3597 C   0  0  0  0  0  0  0  0  0  0  0  0
    8.8408    4.6927   22.2850 C   0  0  0  0  0  0  0  0  0  0  0  0
    8.4506    3.3784   22.0888 C   0  0  0  0  0  0  0  0  0  0  0  0
  1  2  1  0
  2  3  2  0
  2  4  2  0
  2  5  1  0
  5  6  1  0
  6  7  1  0
  7  8  1  0
  8  9  1  0
  9 10  2  0
  9 11  1  0
 11 12  1  0
 12 13  1  0
 13 14  2  0
 14 15  1  0
 15 16  2  0
 16 17  1  0
 16 18  1  0
 18 19  2  0
 11 20  1  0
 20 21  1  0
 21 22  2  0
 21 23  1  0
 23 24  1  0
 24 25  2  0
 25 26  1  0
 25 27  1  0
 27 28  2  0
 28 29  1  0
 28 30  1  0
 30 31  2  0
 31 32  1  0
  7 33  1  0
 33 34  2  0
 34 35  1  0
 35 36  2  0
 36 37  1  0
 37 38  2  0
 19 13  1  0
 31 24  1  0
 38 33  1  0
M  END
