CVD-0000756|dock_bobby27042020.40|mol2|30|dock1
     RDKit          3D

 16 17  0  0  0  0  0  0  0  0999 V2000
    4.8884    1.3470   18.4021 C   0  0  0  0  0  0  0  0  0  0  0  0
    5.8647    0.6330   19.2882 C   0  0  0  0  0  0  0  0  0  0  0  0
    5.6703    0.1450   20.5351 C   0  0  0  0  0  0  0  0  0  0  0  0
    6.7886   -0.4703   21.0924 C   0  0  0  0  0  0  0  0  0  0  0  0
    7.8617   -0.4590   20.2685 C   0  0  0  0  0  0  0  0  0  0  0  0
    9.1393   -0.9862   20.5085 N   0  0  0  0  0  0  0  0  0  0  0  0
    9.8213   -1.0708   21.7268 C   0  0  0  0  0  0  0  0  0  0  0  0
    9.3378   -0.6651   22.7791 O   0  0  0  0  0  0  0  0  0  0  0  0
   11.0606   -1.6481   21.5951 N   0  0  0  0  0  0  0  0  0  0  0  0
   12.0581   -1.9185   22.5647 C   0  0  0  0  0  0  0  0  0  0  0  0
   11.7895   -2.2618   23.8860 C   0  0  0  0  0  0  0  0  0  0  0  0
   12.8435   -2.5053   24.7497 C   0  0  0  0  0  0  0  0  0  0  0  0
   14.1301   -2.4002   24.2739 C   0  0  0  0  0  0  0  0  0  0  0  0
   14.4184   -2.0734   23.0142 N   0  0  0  0  0  0  0  0  0  0  0  0
   13.3943   -1.8403   22.1886 C   0  0  0  0  0  0  0  0  0  0  0  0
    7.4802    0.3348   18.7593 S   0  0  0  0  0  0  0  0  0  0  0  0
  1  2  1  0
  2  3  2  0
  3  4  1  0
  4  5  2  0
  5  6  1  0
  6  7  1  0
  7  8  2  0
  7  9  1  0
  9 10  1  0
 10 11  2  0
 11 12  1  0
 12 13  2  0
 13 14  1  0
 14 15  2  0
  5 16  1  0
 16  2  1  0
 15 10  1  0
M  END
