CVD-0001790|dock_bobby27042020.22|mol2|40|dock2
     RDKit          3D

 32 35  0  0  0  0  0  0  0  0999 V2000
    7.1392   -6.7785   22.4658 C   0  0  0  0  0  0  0  0  0  0  0  0
    7.0493   -5.7234   21.4022 C   0  0  0  0  0  0  0  0  0  0  0  0
    7.0786   -6.0377   20.2173 O   0  0  0  0  0  0  0  0  0  0  0  0
    6.9238   -4.4259   21.7895 N   0  0  0  0  0  0  0  0  0  0  0  0
    6.8580   -4.0098   23.1827 C   0  0  0  0  0  0  0  0  0  0  0  0
    8.1922   -3.7157   23.8458 C   0  0  0  0  0  0  0  0  0  0  0  0
    8.9580   -2.6112   23.2023 N   0  0  0  0  0  0  0  0  0  0  0  0
   10.4113   -2.6701   23.4372 C   0  0  0  0  0  0  0  0  0  0  0  0
   11.2159   -1.3909   23.3063 C   0  0  0  0  0  0  0  0  0  0  0  0
   12.3969   -1.3221   22.5677 C   0  0  0  0  0  0  0  0  0  0  0  0
   13.0974   -0.1613   22.4569 C   0  0  0  0  0  0  0  0  0  0  0  0
   12.6612    1.0194   23.1001 C   0  0  0  0  0  0  0  0  0  0  0  0
   13.3859    2.2284   22.9900 C   0  0  0  0  0  0  0  0  0  0  0  0
   12.9498    3.3525   23.6238 C   0  0  0  0  0  0  0  0  0  0  0  0
   11.7976    3.3356   24.3913 C   0  0  0  0  0  0  0  0  0  0  0  0
   11.0752    2.1880   24.5186 C   0  0  0  0  0  0  0  0  0  0  0  0
   11.4649    0.9813   23.8751 C   0  0  0  0  0  0  0  0  0  0  0  0
   10.7439   -0.2466   23.9576 C   0  0  0  0  0  0  0  0  0  0  0  0
    9.4575   -0.3468   24.7441 C   0  0  0  0  0  0  0  0  0  0  0  0
   13.8744    4.8510   23.4727 S   0  0  0  0  0  0  0  0  0  0  0  0
   13.9259    5.2615   21.9261 N   0  0  0  0  0  0  0  0  0  0  0  0
   13.1445    5.8748   24.1584 O   0  0  0  0  0  0  0  0  0  0  0  0
   15.2176    4.5678   23.8806 O   0  0  0  0  0  0  0  0  0  0  0  0
    8.8522   -2.0633   21.8152 C   0  0  0  0  0  0  0  0  0  0  0  0
    7.4218   -2.0502   21.3029 C   0  0  0  0  0  0  0  0  0  0  0  0
    6.8494   -3.3590   20.7948 C   0  0  0  0  0  0  0  0  0  0  0  0
    7.3348   -1.0575   20.1602 C   0  0  0  0  0  0  0  0  0  0  0  0
    6.2127   -0.2596   19.9944 C   0  0  0  0  0  0  0  0  0  0  0  0
    6.1494    0.6388   18.9436 C   0  0  0  0  0  0  0  0  0  0  0  0
    7.2183    0.7146   18.0801 C   0  0  0  0  0  0  0  0  0  0  0  0
    8.3124   -0.0371   18.2076 N   0  0  0  0  0  0  0  0  0  0  0  0
    8.3493   -0.8969   19.2301 C   0  0  0  0  0  0  0  0  0  0  0  0
  1  2  1  0
  2  3  2  0
  2  4  1  0
  4  5  1  0
  5  6  1  0
  6  7  1  0
  7  8  1  0
  8  9  1  0
  9 10  2  0
 10 11  1  0
 11 12  2  0
 12 13  1  0
 13 14  2  0
 14 15  1  0
 15 16  2  0
 16 17  1  0
 17 18  2  0
 18 19  1  0
 14 20  1  0
 20 21  1  0
 20 22  2  0
 20 23  2  0
  7 24  1  0
 24 25  1  0
 25 26  1  0
 25 27  1  0
 27 28  2  0
 28 29  1  0
 29 30  2  0
 30 31  1  0
 31 32  2  0
 26  4  1  0
 32 27  1  0
 18  9  1  0
 17 12  1  0
M  END
