CVD-0002075|dock_bobby27042020.93|mol2|8|dock2
     RDKit          3D

 34 37  0  0  0  0  0  0  0  0999 V2000
    1.9643    0.9299   21.7640 F   0  0  0  0  0  0  0  0  0  0  0  0
    2.7088    1.3919   20.7235 C   0  0  0  0  0  0  0  0  0  0  0  0
    2.3818    2.6078   20.1829 C   0  0  0  0  0  0  0  0  0  0  0  0
    3.1308    3.0900   19.1238 C   0  0  0  0  0  0  0  0  0  0  0  0
    4.1889    2.3264   18.6438 C   0  0  0  0  0  0  0  0  0  0  0  0
    5.0801    2.5580   17.6245 N   0  0  0  0  0  0  0  0  0  0  0  0
    5.9423    1.4988   17.5406 C   0  0  0  0  0  0  0  0  0  0  0  0
    5.6386    0.5665   18.4880 C   0  0  0  0  0  0  0  0  0  0  0  0
    6.3449   -0.7446   18.7311 C   0  0  0  0  0  0  0  0  0  0  0  0
    7.1451   -0.7429   19.9572 N   0  0  0  0  0  0  0  0  0  0  0  0
    8.3025    0.1512   19.8858 C   0  0  0  0  0  0  0  0  0  0  0  0
    9.1552    0.1201   21.1394 C   0  0  0  0  0  0  0  0  0  0  0  0
    8.7821    0.6771   22.1673 O   0  0  0  0  0  0  0  0  0  0  0  0
   10.3116   -0.5304   21.0456 N   0  0  0  0  0  0  0  0  0  0  0  0
   11.2377   -0.6361   22.1634 C   0  0  0  0  0  0  0  0  0  0  0  0
   10.7069   -1.4744   23.3011 C   0  0  0  0  0  0  0  0  0  0  0  0
   10.7592   -2.8584   23.2519 C   0  0  0  0  0  0  0  0  0  0  0  0
   10.2706   -3.6268   24.2935 C   0  0  0  0  0  0  0  0  0  0  0  0
    9.7151   -3.0351   25.4172 C   0  0  0  0  0  0  0  0  0  0  0  0
    9.1749   -3.8732   26.5525 C   0  0  0  0  0  0  0  0  0  0  0  0
    7.7291   -4.1373   26.4816 N   0  0  0  0  0  0  0  0  0  0  0  0
    7.3696   -5.2588   27.3545 C   0  0  0  0  0  0  0  0  0  0  0  0
    5.8721   -5.5003   27.3093 C   0  0  0  0  0  0  0  0  0  0  0  0
    5.4384   -5.7684   25.9364 N   0  0  0  0  0  0  0  0  0  0  0  0
    5.8366   -4.6907   25.0255 C   0  0  0  0  0  0  0  0  0  0  0  0
    7.3334   -4.4537   25.1117 C   0  0  0  0  0  0  0  0  0  0  0  0
    4.7346   -6.8683   25.5924 C   0  0  0  0  0  0  0  0  0  0  0  0
    4.4137   -7.7068   26.4251 O   0  0  0  0  0  0  0  0  0  0  0  0
    4.3471   -7.0260   24.1347 C   0  0  0  0  0  0  0  0  0  0  0  0
    5.7733   -7.2764   23.1196 Cl  0  0  0  0  0  0  0  0  0  0  0  0
    9.6591   -1.6508   25.4642 C   0  0  0  0  0  0  0  0  0  0  0  0
   10.1479   -0.8825   24.4226 C   0  0  0  0  0  0  0  0  0  0  0  0
    4.5106    1.0792   19.2117 C   0  0  0  0  0  0  0  0  0  0  0  0
    3.7462    0.6077   20.2779 C   0  0  0  0  0  0  0  0  0  0  0  0
  1  2  1  0
  2  3  2  0
  3  4  1  0
  4  5  2  0
  5  6  1  0
  6  7  1  0
  7  8  2  0
  8  9  1  0
  9 10  1  0
 10 11  1  0
 11 12  1  0
 12 13  2  0
 12 14  1  0
 14 15  1  0
 15 16  1  0
 16 17  2  0
 17 18  1  0
 18 19  2  0
 19 20  1  0
 20 21  1  0
 21 22  1  0
 22 23  1  0
 23 24  1  0
 24 25  1  0
 25 26  1  0
 24 27  1  0
 27 28  2  0
 27 29  1  0
 29 30  1  0
 19 31  1  0
 31 32  2  0
  8 33  1  0
 33 34  2  0
 34  2  1  0
 33  5  1  0
 32 16  1  0
 26 21  1  0
M  END
