CVD-0001564|dock_bobby27042020.94|mol2|46|dock3
     RDKit          3D

 18 19  0  0  0  0  0  0  0  0999 V2000
    7.8602   -2.6188   26.2506 C   0  0  0  0  0  0  0  0  0  0  0  0
    8.9531   -1.7487   25.9629 O   0  0  0  0  0  0  0  0  0  0  0  0
    9.5830   -1.8029   24.7443 C   0  0  0  0  0  0  0  0  0  0  0  0
    8.9066   -2.1718   23.5882 C   0  0  0  0  0  0  0  0  0  0  0  0
    9.5695   -2.2117   22.3719 C   0  0  0  0  0  0  0  0  0  0  0  0
   10.9191   -1.8788   22.3184 C   0  0  0  0  0  0  0  0  0  0  0  0
   11.7942   -1.8634   21.2358 N   0  0  0  0  0  0  0  0  0  0  0  0
   13.0510   -1.5214   21.6063 C   0  0  0  0  0  0  0  0  0  0  0  0
   14.0236   -1.4284   20.8625 O   0  0  0  0  0  0  0  0  0  0  0  0
   13.0427   -1.2427   23.1088 C   0  0  0  0  0  0  0  0  0  0  0  0
   13.5555    0.1726   23.4204 C   0  0  0  0  0  0  0  0  0  0  0  0
   12.5649    1.2702   23.0669 C   0  0  0  0  0  0  0  0  0  0  0  0
   13.2155    2.5641   22.9184 N   0  0  0  0  0  0  0  0  0  0  0  0
   12.5969    3.6247   22.3958 C   0  0  0  0  0  0  0  0  0  0  0  0
   13.3995    4.8909   22.3290 C   0  0  0  0  0  0  0  0  0  0  0  0
   11.4344    3.5716   22.0068 O   0  0  0  0  0  0  0  0  0  0  0  0
   11.6048   -1.5076   23.4741 C   0  0  0  0  0  0  0  0  0  0  0  0
   10.9279   -1.4716   24.6884 C   0  0  0  0  0  0  0  0  0  0  0  0
  1  2  1  0
  2  3  1  0
  3  4  2  0
  4  5  1  0
  5  6  2  0
  6  7  1  0
  7  8  1  0
  8  9  2  0
  8 10  1  0
 10 11  1  0
 11 12  1  0
 12 13  1  0
 13 14  1  0
 14 15  1  0
 14 16  2  0
 10 17  1  0
 17 18  2  0
 18  3  1  0
 17  6  1  0
M  END
