CVD-0000814|dock_bobby27042020.11|mol2|40|dock2
     RDKit          3D

 15 16  0  0  0  0  0  0  0  0999 V2000
   14.1081    6.4396   22.0347 C   0  0  0  0  0  0  0  0  0  0  0  0
   14.2484    5.0351   21.8307 O   0  0  0  0  0  0  0  0  0  0  0  0
   13.2342    4.1790   22.1817 C   0  0  0  0  0  0  0  0  0  0  0  0
   11.9373    4.6657   22.1253 C   0  0  0  0  0  0  0  0  0  0  0  0
   10.8658    3.8589   22.4648 C   0  0  0  0  0  0  0  0  0  0  0  0
   11.1102    2.5509   22.8640 C   0  0  0  0  0  0  0  0  0  0  0  0
   10.2560    1.5473   23.2493 N   0  0  0  0  0  0  0  0  0  0  0  0
   10.9914    0.4332   23.5492 C   0  0  0  0  0  0  0  0  0  0  0  0
   12.3211    0.6792   23.3701 C   0  0  0  0  0  0  0  0  0  0  0  0
   13.4681   -0.2741   23.5862 C   0  0  0  0  0  0  0  0  0  0  0  0
   13.0744   -1.6873   23.5739 N   0  0  0  0  0  0  0  0  0  0  0  0
   12.6382   -2.0743   22.2372 C   0  0  0  0  0  0  0  0  0  0  0  0
   14.1891   -2.5377   23.9779 C   0  0  0  0  0  0  0  0  0  0  0  0
   12.4196    2.0408   22.9272 C   0  0  0  0  0  0  0  0  0  0  0  0
   13.4853    2.8705   22.5806 C   0  0  0  0  0  0  0  0  0  0  0  0
  1  2  1  0
  2  3  1  0
  3  4  2  0
  4  5  1  0
  5  6  2  0
  6  7  1  0
  7  8  1  0
  8  9  2  0
  9 10  1  0
 10 11  1  0
 11 12  1  0
 11 13  1  0
  9 14  1  0
 14 15  2  0
 15  3  1  0
 14  6  1  0
M  END
