CVD-0002098|dock_bobby27042020.21|mol2|33|dock1
     RDKit          3D

 22 24  0  0  0  0  0  0  0  0999 V2000
    5.6238    2.4782   22.1177 N   0  0  0  0  0  0  0  0  0  0  0  0
    7.0874    2.6445   22.2600 C   0  0  0  0  0  0  0  0  0  0  0  0
    7.8364    1.3191   22.2288 C   0  0  0  0  0  0  0  0  0  0  0  0
    7.8738    0.8132   23.5578 O   0  0  0  0  0  0  0  0  0  0  0  0
    8.3438   -0.5486   23.6389 C   0  0  0  0  0  0  0  0  0  0  0  0
    7.2231   -1.4324   23.0281 C   0  0  0  0  0  0  0  0  0  0  0  0
    7.0130   -0.9845   21.5931 C   0  0  0  0  0  0  0  0  0  0  0  0
    6.5269   -1.8617   20.6119 C   0  0  0  0  0  0  0  0  0  0  0  0
    6.2142   -3.1624   20.8993 O   0  0  0  0  0  0  0  0  0  0  0  0
    6.2189   -1.3934   19.3353 C   0  0  0  0  0  0  0  0  0  0  0  0
    5.6837   -2.2531   18.4295 O   0  0  0  0  0  0  0  0  0  0  0  0
    6.3882   -0.0547   19.0150 C   0  0  0  0  0  0  0  0  0  0  0  0
    6.8668    0.8150   19.9760 C   0  0  0  0  0  0  0  0  0  0  0  0
    7.1811    0.3674   21.2590 C   0  0  0  0  0  0  0  0  0  0  0  0
    9.7069   -0.5621   22.9354 C   0  0  0  0  0  0  0  0  0  0  0  0
   10.3879   -1.9373   22.9662 C   0  0  0  0  0  0  0  0  0  0  0  0
    9.5631   -2.9198   22.3383 O   0  0  0  0  0  0  0  0  0  0  0  0
   11.7137   -1.9179   22.2086 C   0  0  0  0  0  0  0  0  0  0  0  0
   12.6555   -0.8586   22.7718 C   0  0  0  0  0  0  0  0  0  0  0  0
   11.9905    0.5097   22.7758 C   0  0  0  0  0  0  0  0  0  0  0  0
   10.6660    0.4821   23.5155 C   0  0  0  0  0  0  0  0  0  0  0  0
   10.8364    0.1706   24.9002 O   0  0  0  0  0  0  0  0  0  0  0  0
  1  2  1  0
  2  3  1  0
  3  4  1  0
  4  5  1  0
  5  6  1  0
  6  7  1  0
  7  8  2  0
  8  9  1  0
  8 10  1  0
 10 11  1  0
 10 12  2  0
 12 13  1  0
 13 14  2  0
  5 15  1  0
 15 16  1  0
 16 17  1  0
 16 18  1  0
 18 19  1  0
 19 20  1  0
 20 21  1  0
 21 22  1  0
 14  3  1  0
 21 15  1  0
 14  7  1  0
M  END
