CVD-0000958|dock_bobby27042020.68|mol2|35|dock2
     RDKit          3D

 16 18  0  0  0  0  0  0  0  0999 V2000
   13.2068    5.5539   23.1063 C   0  0  0  0  0  0  0  0  0  0  0  0
   11.8218    4.9756   23.0870 C   0  0  0  0  0  0  0  0  0  0  0  0
   10.6863    5.7195   23.1803 C   0  0  0  0  0  0  0  0  0  0  0  0
    9.2556    4.8008   22.9870 S   0  0  0  0  0  0  0  0  0  0  0  0
   10.1785    3.3662   22.7720 C   0  0  0  0  0  0  0  0  0  0  0  0
    9.4258    2.0718   22.5338 C   0  0  0  0  0  0  0  0  0  0  0  0
   10.0103    0.9080   23.2087 N   0  0  0  0  0  0  0  0  0  0  0  0
   11.3052    0.4112   22.7687 C   0  0  0  0  0  0  0  0  0  0  0  0
   11.2933   -0.9875   23.3819 C   0  0  0  0  0  0  0  0  0  0  0  0
   12.6120   -1.7251   23.1437 C   0  0  0  0  0  0  0  0  0  0  0  0
   12.7644   -2.0593   21.7637 O   0  0  0  0  0  0  0  0  0  0  0  0
   13.7993   -0.8613   23.5796 C   0  0  0  0  0  0  0  0  0  0  0  0
   13.6973    0.5484   22.9882 C   0  0  0  0  0  0  0  0  0  0  0  0
   12.4252    1.2469   23.2219 N   0  0  0  0  0  0  0  0  0  0  0  0
   12.5706    2.5603   22.5815 C   0  0  0  0  0  0  0  0  0  0  0  0
   11.5095    3.5849   22.8455 C   0  0  0  0  0  0  0  0  0  0  0  0
  1  2  1  0
  2  3  2  0
  3  4  1  0
  4  5  1  0
  5  6  1  0
  6  7  1  0
  7  8  1  0
  8  9  1  0
  9 10  1  0
 10 11  1  0
 10 12  1  0
 12 13  1  0
 13 14  1  0
 14 15  1  0
 15 16  1  0
 16  2  1  0
 16  5  2  0
 14  8  1  0
M  END
