CVD-0003520|dock_bobby27042020.73|mol2|31|dock3
     RDKit          3D

 29 31  0  0  0  0  0  0  0  0999 V2000
   14.0591    4.8044   21.7203 Cl  0  0  0  0  0  0  0  0  0  0  0  0
   12.8701    3.5826   22.1901 C   0  0  0  0  0  0  0  0  0  0  0  0
   13.5443    2.2669   22.5262 C   0  0  0  0  0  0  0  0  0  0  0  0
   14.7582    2.1295   22.4423 O   0  0  0  0  0  0  0  0  0  0  0  0
   12.7390    1.2618   22.9258 N   0  0  0  0  0  0  0  0  0  0  0  0
   13.2433   -0.0666   23.2811 C   0  0  0  0  0  0  0  0  0  0  0  0
   12.5265   -1.1373   22.4797 C   0  0  0  0  0  0  0  0  0  0  0  0
   11.0814   -1.0647   22.7144 N   0  0  0  0  0  0  0  0  0  0  0  0
   10.3861   -2.1253   21.9715 C   0  0  0  0  0  0  0  0  0  0  0  0
    8.8957   -1.8945   21.8713 C   0  0  0  0  0  0  0  0  0  0  0  0
    8.3629   -1.3768   20.6945 C   0  0  0  0  0  0  0  0  0  0  0  0
    7.0069   -1.1529   20.5789 C   0  0  0  0  0  0  0  0  0  0  0  0
    6.3715   -0.5041   19.0931 Cl  0  0  0  0  0  0  0  0  0  0  0  0
    6.1495   -1.4336   21.6178 C   0  0  0  0  0  0  0  0  0  0  0  0
    6.6729   -1.9489   22.7890 C   0  0  0  0  0  0  0  0  0  0  0  0
    8.0365   -2.1872   22.9392 C   0  0  0  0  0  0  0  0  0  0  0  0
    8.5540   -2.7576   24.2369 C   0  0  0  0  0  0  0  0  0  0  0  0
    8.6982   -4.2165   24.1701 N   0  0  0  0  0  0  0  0  0  0  0  0
    7.6916   -5.1795   24.9696 S   0  0  0  0  0  0  0  0  0  0  0  0
    7.1776   -4.4389   26.0761 O   0  0  0  0  0  0  0  0  0  0  0  0
    8.3632   -6.4208   25.1816 O   0  0  0  0  0  0  0  0  0  0  0  0
    6.4711   -5.4451   23.9405 N   0  0  0  0  0  0  0  0  0  0  0  0
    5.0901   -5.4575   24.4294 C   0  0  0  0  0  0  0  0  0  0  0  0
    4.3149   -6.5508   23.7380 C   0  0  0  0  0  0  0  0  0  0  0  0
    4.3851   -6.4290   22.3219 O   0  0  0  0  0  0  0  0  0  0  0  0
    5.7444   -6.5291   21.9021 C   0  0  0  0  0  0  0  0  0  0  0  0
    6.5606   -5.4006   22.4778 C   0  0  0  0  0  0  0  0  0  0  0  0
   10.5971    0.2502   22.3026 C   0  0  0  0  0  0  0  0  0  0  0  0
   11.2849    1.3484   23.0930 C   0  0  0  0  0  0  0  0  0  0  0  0
  1  2  1  0
  2  3  1  0
  3  4  2  0
  3  5  1  0
  5  6  1  0
  6  7  1  0
  7  8  1  0
  8  9  1  0
  9 10  1  0
 10 11  2  0
 11 12  1  0
 12 13  1  0
 12 14  2  0
 14 15  1  0
 15 16  2  0
 16 17  1  0
 17 18  1  0
 18 19  1  0
 19 20  2  0
 19 21  2  0
 19 22  1  0
 22 23  1  0
 23 24  1  0
 24 25  1  0
 25 26  1  0
 26 27  1  0
  8 28  1  0
 28 29  1  0
 29  5  1  0
 16 10  1  0
 27 22  1  0
M  END
