CVD-0002396|dock_bobby27042020.34|mol2|28|dock3
     RDKit          3D

 26 29  0  0  0  0  0  0  0  0999 V2000
    6.5537   -6.3233   23.0241 F   0  0  0  0  0  0  0  0  0  0  0  0
    7.1858   -5.1725   22.7487 C   0  0  0  0  0  0  0  0  0  0  0  0
    6.5852   -4.3766   21.8999 N   0  0  0  0  0  0  0  0  0  0  0  0
    7.2088   -3.2177   21.6184 C   0  0  0  0  0  0  0  0  0  0  0  0
    8.4281   -2.8465   22.2109 C   0  0  0  0  0  0  0  0  0  0  0  0
    9.0328   -3.7405   23.0895 C   0  0  0  0  0  0  0  0  0  0  0  0
    8.3852   -4.9259   23.3633 C   0  0  0  0  0  0  0  0  0  0  0  0
    9.1016   -6.0561   24.4650 Cl  0  0  0  0  0  0  0  0  0  0  0  0
    8.9815   -1.5860   21.8708 N   0  0  0  0  0  0  0  0  0  0  0  0
   10.2065   -1.1385   22.4951 C   0  0  0  0  0  0  0  0  0  0  0  0
   11.4387   -1.5280   21.9834 C   0  0  0  0  0  0  0  0  0  0  0  0
   12.6110   -1.0999   22.5838 C   0  0  0  0  0  0  0  0  0  0  0  0
   12.5672   -0.2845   23.6938 C   0  0  0  0  0  0  0  0  0  0  0  0
   11.3502    0.1060   24.2084 C   0  0  0  0  0  0  0  0  0  0  0  0
   10.1719   -0.3164   23.6158 C   0  0  0  0  0  0  0  0  0  0  0  0
    8.3999   -0.7195   20.9414 C   0  0  0  0  0  0  0  0  0  0  0  0
    8.9284    0.3467   20.6661 O   0  0  0  0  0  0  0  0  0  0  0  0
    7.1965   -1.1301   20.3510 N   0  0  0  0  0  0  0  0  0  0  0  0
    6.5715   -0.2460   19.3836 C   0  0  0  0  0  0  0  0  0  0  0  0
    5.2769    0.2249   19.5649 C   0  0  0  0  0  0  0  0  0  0  0  0
    4.7143    1.0637   18.6191 C   0  0  0  0  0  0  0  0  0  0  0  0
    5.4624    1.4079   17.5177 C   0  0  0  0  0  0  0  0  0  0  0  0
    6.7063    0.9729   17.3177 N   0  0  0  0  0  0  0  0  0  0  0  0
    7.2397    0.1658   18.2400 C   0  0  0  0  0  0  0  0  0  0  0  0
    6.5463   -2.3444   20.6438 C   0  0  0  0  0  0  0  0  0  0  0  0
    5.4856   -2.6539   20.1280 O   0  0  0  0  0  0  0  0  0  0  0  0
  1  2  1  0
  2  3  2  0
  3  4  1  0
  4  5  2  0
  5  6  1  0
  6  7  2  0
  7  8  1  0
  5  9  1  0
  9 10  1  0
 10 11  2  0
 11 12  1  0
 12 13  2  0
 13 14  1  0
 14 15  2  0
  9 16  1  0
 16 17  2  0
 16 18  1  0
 18 19  1  0
 19 20  2  0
 20 21  1  0
 21 22  2  0
 22 23  1  0
 23 24  2  0
 18 25  1  0
 25 26  2  0
  7  2  1  0
 15 10  1  0
 24 19  1  0
 25  4  1  0
M  END
