CVD-0001825|dock_bobby27042020.8|mol2|20|dock2
     RDKit          3D

 27 30  0  0  0  0  0  0  0  0999 V2000
   13.6085    5.2660   21.8006 C   0  0  0  0  0  0  0  0  0  0  0  0
   12.3563    4.6330   22.3199 C   0  0  0  0  0  0  0  0  0  0  0  0
   12.2644    3.2329   22.4376 C   0  0  0  0  0  0  0  0  0  0  0  0
   11.1254    2.6153   22.9126 C   0  0  0  0  0  0  0  0  0  0  0  0
   10.9845    1.2718   23.0461 N   0  0  0  0  0  0  0  0  0  0  0  0
   11.9350    0.2044   22.7430 C   0  0  0  0  0  0  0  0  0  0  0  0
   13.0195    0.1437   23.8163 C   0  0  0  0  0  0  0  0  0  0  0  0
   14.0406   -0.9406   23.5162 C   0  0  0  0  0  0  0  0  0  0  0  0
   13.3730   -2.2975   23.3700 C   0  0  0  0  0  0  0  0  0  0  0  0
   12.2729   -2.2507   22.3172 C   0  0  0  0  0  0  0  0  0  0  0  0
   11.2508   -1.1634   22.6065 C   0  0  0  0  0  0  0  0  0  0  0  0
   10.2112   -1.1682   21.5833 N   0  0  0  0  0  0  0  0  0  0  0  0
    8.9120   -1.0324   21.8636 C   0  0  0  0  0  0  0  0  0  0  0  0
    8.4927   -0.8919   23.0093 O   0  0  0  0  0  0  0  0  0  0  0  0
    7.9789   -1.0627   20.6720 C   0  0  0  0  0  0  0  0  0  0  0  0
    6.6624   -1.6544   21.0363 C   0  0  0  0  0  0  0  0  0  0  0  0
    5.8329   -0.7895   22.0211 C   0  0  0  0  0  0  0  0  0  0  0  0
    6.1652    0.7044   21.9910 C   0  0  0  0  0  0  0  0  0  0  0  0
    5.5756    1.4984   22.7174 O   0  0  0  0  0  0  0  0  0  0  0  0
    7.1119    1.1378   21.1467 N   0  0  0  0  0  0  0  0  0  0  0  0
    7.7958    0.3609   20.1452 C   0  0  0  0  0  0  0  0  0  0  0  0
   10.1190    3.4987   23.2477 N   0  0  0  0  0  0  0  0  0  0  0  0
    8.8685    3.2151   23.7447 N   0  0  0  0  0  0  0  0  0  0  0  0
    8.3488    4.4150   23.8740 C   0  0  0  0  0  0  0  0  0  0  0  0
    9.1285    5.4633   23.5128 N   0  0  0  0  0  0  0  0  0  0  0  0
   10.2505    4.8667   23.1165 C   0  0  0  0  0  0  0  0  0  0  0  0
   11.3658    5.4512   22.6530 N   0  0  0  0  0  0  0  0  0  0  0  0
  1  2  1  0
  2  3  1  0
  3  4  2  0
  4  5  1  0
  5  6  1  0
  6  7  1  0
  7  8  1  0
  8  9  1  0
  9 10  1  0
 10 11  1  0
 11 12  1  0
 12 13  1  0
 13 14  2  0
 13 15  1  0
 15 16  1  0
 16 17  1  0
 17 18  1  0
 18 19  2  0
 18 20  1  0
 20 21  1  0
  4 22  1  0
 22 23  1  0
 23 24  2  0
 24 25  1  0
 25 26  2  0
 26 27  1  0
 27  2  2  0
 11  6  1  0
 21 15  1  0
 26 22  1  0
M  END
