CVD-0001497|dock_bobby27042020.52|mol2|27|dock2
     RDKit          3D

 23 24  0  0  0  0  0  0  0  0999 V2000
    2.7499    3.4829   18.1807 N   0  0  0  0  0  0  0  0  0  0  0  0
    3.0362    2.8215   19.2910 C   0  0  0  0  0  0  0  0  0  0  0  0
    2.1701    2.2689   19.9751 O   0  0  0  0  0  0  0  0  0  0  0  0
    4.4923    2.7802   19.6855 C   0  0  0  0  0  0  0  0  0  0  0  0
    4.7604    2.1108   21.0267 C   0  0  0  0  0  0  0  0  0  0  0  0
    4.6660    0.5905   20.9882 C   0  0  0  0  0  0  0  0  0  0  0  0
    5.6916   -0.0573   20.0897 C   0  0  0  0  0  0  0  0  0  0  0  0
    5.4023   -0.4237   18.7897 C   0  0  0  0  0  0  0  0  0  0  0  0
    6.2784   -1.0009   17.9639 N   0  0  0  0  0  0  0  0  0  0  0  0
    7.5102   -1.2395   18.4237 C   0  0  0  0  0  0  0  0  0  0  0  0
    7.9198   -0.9167   19.7158 C   0  0  0  0  0  0  0  0  0  0  0  0
    9.2189   -1.1587   20.2303 N   0  0  0  0  0  0  0  0  0  0  0  0
    9.7564   -0.9043   21.4716 C   0  0  0  0  0  0  0  0  0  0  0  0
    9.1417   -0.3868   22.3981 O   0  0  0  0  0  0  0  0  0  0  0  0
   11.0714   -1.3058   21.5380 N   0  0  0  0  0  0  0  0  0  0  0  0
   12.0092   -1.2425   22.6000 C   0  0  0  0  0  0  0  0  0  0  0  0
   11.9374   -0.1473   23.4533 C   0  0  0  0  0  0  0  0  0  0  0  0
   12.8202   -0.0183   24.5120 C   0  0  0  0  0  0  0  0  0  0  0  0
   13.7890   -0.9801   24.7365 C   0  0  0  0  0  0  0  0  0  0  0  0
   13.8676   -2.0743   23.8916 C   0  0  0  0  0  0  0  0  0  0  0  0
   14.8196   -3.0280   24.1049 O   0  0  0  0  0  0  0  0  0  0  0  0
   12.9864   -2.2105   22.8283 C   0  0  0  0  0  0  0  0  0  0  0  0
    6.9773   -0.3170   20.5435 C   0  0  0  0  0  0  0  0  0  0  0  0
  1  2  1  0
  2  3  2  0
  2  4  1  0
  4  5  1  0
  5  6  1  0
  6  7  1  0
  7  8  2  0
  8  9  1  0
  9 10  2  0
 10 11  1  0
 11 12  1  0
 12 13  1  0
 13 14  2  0
 13 15  1  0
 15 16  1  0
 16 17  2  0
 17 18  1  0
 18 19  2  0
 19 20  1  0
 20 21  1  0
 20 22  2  0
 11 23  2  0
 23  7  1  0
 22 16  1  0
M  END
