CVD-0003877|dock_bobby27042020.29|mol2|27|dock2
     RDKit          3D

 25 27  0  0  0  0  0  0  0  0999 V2000
    5.7855   -6.4563   27.7338 C   0  0  0  0  0  0  0  0  0  0  0  0
    7.0949   -6.1367   27.0548 C   0  0  0  0  0  0  0  0  0  0  0  0
    8.2973   -6.2962   27.7248 C   0  0  0  0  0  0  0  0  0  0  0  0
    9.4988   -6.0062   27.1019 C   0  0  0  0  0  0  0  0  0  0  0  0
    9.5131   -5.5523   25.7945 C   0  0  0  0  0  0  0  0  0  0  0  0
    8.3193   -5.3871   25.1036 C   0  0  0  0  0  0  0  0  0  0  0  0
    8.3481   -4.9335   23.7977 N   0  0  0  0  0  0  0  0  0  0  0  0
    7.9232   -3.6002   23.4175 C   0  0  0  0  0  0  0  0  0  0  0  0
    9.0204   -2.7951   22.7470 C   0  0  0  0  0  0  0  0  0  0  0  0
   10.1439   -2.4432   23.7283 C   0  0  0  0  0  0  0  0  0  0  0  0
   11.2237   -1.6489   23.0494 C   0  0  0  0  0  0  0  0  0  0  0  0
   10.6998   -0.4340   22.4179 N   0  0  0  0  0  0  0  0  0  0  0  0
    9.5978   -0.7040   21.4656 C   0  0  0  0  0  0  0  0  0  0  0  0
    8.5068   -1.5221   22.1229 C   0  0  0  0  0  0  0  0  0  0  0  0
   11.3148    0.8046   22.5416 C   0  0  0  0  0  0  0  0  0  0  0  0
   12.7012    0.9115   22.5998 C   0  0  0  0  0  0  0  0  0  0  0  0
   13.3194    2.1432   22.7219 C   0  0  0  0  0  0  0  0  0  0  0  0
   12.5502    3.2909   22.7935 C   0  0  0  0  0  0  0  0  0  0  0  0
   11.1703    3.2095   22.7374 C   0  0  0  0  0  0  0  0  0  0  0  0
   10.5623    1.9731   22.6106 C   0  0  0  0  0  0  0  0  0  0  0  0
   13.3336    4.8676   22.9463 S   0  0  0  0  0  0  0  0  0  0  0  0
   13.3561    5.5647   21.5052 N   0  0  0  0  0  0  0  0  0  0  0  0
   12.5088    5.6747   23.7943 O   0  0  0  0  0  0  0  0  0  0  0  0
   14.6951    4.6338   23.3248 O   0  0  0  0  0  0  0  0  0  0  0  0
    7.1187   -5.6823   25.7444 C   0  0  0  0  0  0  0  0  0  0  0  0
  1  2  1  0
  2  3  2  0
  3  4  1  0
  4  5  2  0
  5  6  1  0
  6  7  1  0
  7  8  1  0
  8  9  1  0
  9 10  1  0
 10 11  1  0
 11 12  1  0
 12 13  1  0
 13 14  1  0
 12 15  1  0
 15 16  2  0
 16 17  1  0
 17 18  2  0
 18 19  1  0
 19 20  2  0
 18 21  1  0
 21 22  1  0
 21 23  2  0
 21 24  2  0
  6 25  2  0
 25  2  1  0
 14  9  1  0
 20 15  1  0
M  END
