CVD-0001549|dock_bobby27042020.9|mol2|22|dock1
     RDKit          3D

 26 29  0  0  0  0  0  0  0  0999 V2000
    8.7924    2.6945   22.8839 C   0  0  0  0  0  0  0  0  0  0  0  0
    8.9192    1.4696   22.0189 C   0  0  0  0  0  0  0  0  0  0  0  0
    9.4897    1.5747   20.9389 O   0  0  0  0  0  0  0  0  0  0  0  0
    8.4028    0.2645   22.3837 N   0  0  0  0  0  0  0  0  0  0  0  0
    7.8295    0.0194   23.7188 C   0  0  0  0  0  0  0  0  0  0  0  0
    7.5610   -1.4404   24.0792 C   0  0  0  0  0  0  0  0  0  0  0  0
    6.7360   -1.7463   25.1565 C   0  0  0  0  0  0  0  0  0  0  0  0
    6.5614   -3.0577   25.5584 C   0  0  0  0  0  0  0  0  0  0  0  0
    7.2142   -4.0648   24.8803 C   0  0  0  0  0  0  0  0  0  0  0  0
    8.0329   -3.7521   23.8099 C   0  0  0  0  0  0  0  0  0  0  0  0
    8.2291   -2.4385   23.3804 C   0  0  0  0  0  0  0  0  0  0  0  0
    9.1101   -2.0686   22.2125 C   0  0  0  0  0  0  0  0  0  0  0  0
    8.5440   -0.9024   21.4776 C   0  0  0  0  0  0  0  0  0  0  0  0
    7.2016   -1.3150   20.8486 C   0  0  0  0  0  0  0  0  0  0  0  0
    6.6669   -0.4068   19.7682 C   0  0  0  0  0  0  0  0  0  0  0  0
    5.5230    0.3483   19.9671 C   0  0  0  0  0  0  0  0  0  0  0  0
    5.0579    1.1749   18.9595 C   0  0  0  0  0  0  0  0  0  0  0  0
    5.7576    1.2210   17.7753 C   0  0  0  0  0  0  0  0  0  0  0  0
    6.8623    0.5077   17.5533 N   0  0  0  0  0  0  0  0  0  0  0  0
    7.2920   -0.2831   18.5415 C   0  0  0  0  0  0  0  0  0  0  0  0
   10.5726   -1.8218   22.5552 C   0  0  0  0  0  0  0  0  0  0  0  0
   11.5464   -1.8376   21.5662 C   0  0  0  0  0  0  0  0  0  0  0  0
   12.8768   -1.6128   21.8783 C   0  0  0  0  0  0  0  0  0  0  0  0
   13.2505   -1.3693   23.1825 C   0  0  0  0  0  0  0  0  0  0  0  0
   12.2943   -1.3505   24.1752 C   0  0  0  0  0  0  0  0  0  0  0  0
   10.9638   -1.5753   23.8638 C   0  0  0  0  0  0  0  0  0  0  0  0
  1  2  1  0
  2  3  2  0
  2  4  1  0
  4  5  1  0
  5  6  1  0
  6  7  2  0
  7  8  1  0
  8  9  2  0
  9 10  1  0
 10 11  2  0
 11 12  1  0
 12 13  1  0
 13 14  1  0
 14 15  1  0
 15 16  2  0
 16 17  1  0
 17 18  2  0
 18 19  1  0
 19 20  2  0
 12 21  1  0
 21 22  2  0
 22 23  1  0
 23 24  2  0
 24 25  1  0
 25 26  2  0
 13  4  1  0
 20 15  1  0
 26 21  1  0
 11  6  1  0
M  END
