CVD-0003458|dock_bobby27042020.59|mol2|40|dock1
     RDKit          3D

 21 23  0  0  0  0  0  0  0  0999 V2000
   13.0968   -1.5992   20.7759 F   0  0  0  0  0  0  0  0  0  0  0  0
   12.7940   -1.2458   22.0342 C   0  0  0  0  0  0  0  0  0  0  0  0
   13.8107   -1.2503   22.8595 N   0  0  0  0  0  0  0  0  0  0  0  0
   13.5778   -0.9011   24.1056 C   0  0  0  0  0  0  0  0  0  0  0  0
   12.2937   -0.5803   24.5926 C   0  0  0  0  0  0  0  0  0  0  0  0
   12.1225   -0.2514   25.9105 N   0  0  0  0  0  0  0  0  0  0  0  0
   10.8835   -0.0095   26.2992 C   0  0  0  0  0  0  0  0  0  0  0  0
    9.7995   -0.0730   25.4440 C   0  0  0  0  0  0  0  0  0  0  0  0
    9.9148   -0.3697   24.1627 N   0  0  0  0  0  0  0  0  0  0  0  0
   11.1801   -0.6062   23.7115 C   0  0  0  0  0  0  0  0  0  0  0  0
   11.4853   -0.9134   22.3445 C   0  0  0  0  0  0  0  0  0  0  0  0
   10.4933   -0.8961   21.3263 N   0  0  0  0  0  0  0  0  0  0  0  0
    9.3062   -0.2030   21.3703 C   0  0  0  0  0  0  0  0  0  0  0  0
    8.9343    0.4785   22.3204 O   0  0  0  0  0  0  0  0  0  0  0  0
    8.6042   -0.3657   20.1989 N   0  0  0  0  0  0  0  0  0  0  0  0
    7.3549    0.1613   19.7844 C   0  0  0  0  0  0  0  0  0  0  0  0
    6.2809    0.3717   20.6470 C   0  0  0  0  0  0  0  0  0  0  0  0
    5.0912    0.8917   20.1638 C   0  0  0  0  0  0  0  0  0  0  0  0
    4.9543    1.2063   18.8298 C   0  0  0  0  0  0  0  0  0  0  0  0
    6.0097    1.0018   17.9691 C   0  0  0  0  0  0  0  0  0  0  0  0
    7.2038    0.4828   18.4400 C   0  0  0  0  0  0  0  0  0  0  0  0
  1  2  1  0
  2  3  2  0
  3  4  1  0
  4  5  2  0
  5  6  1  0
  6  7  2  0
  7  8  1  0
  8  9  2  0
  9 10  1  0
 10 11  2  0
 11 12  1  0
 12 13  1  0
 13 14  2  0
 13 15  1  0
 15 16  1  0
 16 17  2  0
 17 18  1  0
 18 19  2  0
 19 20  1  0
 20 21  2  0
 11  2  1  0
 21 16  1  0
 10  5  1  0
M  END
