CVD-0003361|dock_bobby27042020.45|mol2|31|dock1
     RDKit          3D

 36 40  0  0  0  0  0  0  0  0999 V2000
    5.6933   -1.8776   19.2286 C   0  0  0  0  0  0  0  0  0  0  0  0
    6.1745   -0.8964   18.1844 C   0  0  0  0  0  0  0  0  0  0  0  0
    7.1486    0.1302   18.7123 C   0  0  0  0  0  0  0  0  0  0  0  0
    8.8104   -0.5491   18.9577 S   0  0  0  0  0  0  0  0  0  0  0  0
    9.0565   -0.4598   20.6902 C   0  0  0  0  0  0  0  0  0  0  0  0
    9.1150    0.7686   21.2131 N   0  0  0  0  0  0  0  0  0  0  0  0
    9.2973    0.8959   22.5348 C   0  0  0  0  0  0  0  0  0  0  0  0
    9.3621    2.1266   23.0671 N   0  0  0  0  0  0  0  0  0  0  0  0
   10.1305    3.1986   22.4570 C   0  0  0  0  0  0  0  0  0  0  0  0
   11.3382    2.9445   21.5951 C   0  0  0  0  0  0  0  0  0  0  0  0
   11.5101    3.2620   23.0466 C   0  0  0  0  0  0  0  0  0  0  0  0
   12.0508    4.6236   23.4339 C   0  0  0  0  0  0  0  0  0  0  0  0
   13.1727    5.1518   22.8087 C   0  0  0  0  0  0  0  0  0  0  0  0
   13.6713    6.3941   23.1593 C   0  0  0  0  0  0  0  0  0  0  0  0
   13.0331    7.1056   24.1464 C   0  0  0  0  0  0  0  0  0  0  0  0
   13.5023    8.3223   24.5059 F   0  0  0  0  0  0  0  0  0  0  0  0
   11.9219    6.5911   24.7717 C   0  0  0  0  0  0  0  0  0  0  0  0
   11.3118    7.3114   25.7408 F   0  0  0  0  0  0  0  0  0  0  0  0
   11.4241    5.3608   24.4281 C   0  0  0  0  0  0  0  0  0  0  0  0
    9.4153   -0.2660   23.3251 C   0  0  0  0  0  0  0  0  0  0  0  0
    9.6065   -0.5082   24.6639 N   0  0  0  0  0  0  0  0  0  0  0  0
    9.6490   -1.7989   24.8270 N   0  0  0  0  0  0  0  0  0  0  0  0
    9.4578   -2.4055   23.6225 N   0  0  0  0  0  0  0  0  0  0  0  0
    9.5041   -3.8630   23.4941 C   0  0  0  0  0  0  0  0  0  0  0  0
    8.2520   -4.4623   22.8156 C   0  0  0  0  0  0  0  0  0  0  0  0
    7.6322   -5.4284   23.8124 C   0  0  0  0  0  0  0  0  0  0  0  0
    6.6394   -4.7324   24.5810 O   0  0  0  0  0  0  0  0  0  0  0  0
    5.3334   -4.6402   24.0054 C   0  0  0  0  0  0  0  0  0  0  0  0
    4.5079   -5.8790   24.1948 C   0  0  0  0  0  0  0  0  0  0  0  0
    3.1621   -5.7767   23.7596 O   0  0  0  0  0  0  0  0  0  0  0  0
    8.7547   -5.8087   24.7753 C   0  0  0  0  0  0  0  0  0  0  0  0
    9.5335   -6.8771   24.2456 O   0  0  0  0  0  0  0  0  0  0  0  0
    9.5242   -4.4914   24.9232 C   0  0  0  0  0  0  0  0  0  0  0  0
   10.8286   -4.6537   25.4721 O   0  0  0  0  0  0  0  0  0  0  0  0
    9.3262   -1.4690   22.6484 C   0  0  0  0  0  0  0  0  0  0  0  0
    9.1495   -1.6284   21.3320 N   0  0  0  0  0  0  0  0  0  0  0  0
  1  2  1  0
  2  3  1  0
  3  4  1  0
  4  5  1  0
  5  6  2  0
  6  7  1  0
  7  8  1  0
  9  8  1  0
  9 10  1  0
 10 11  1  0
 11 12  1  0
 12 13  2  0
 13 14  1  0
 14 15  2  0
 15 16  1  0
 15 17  1  0
 17 18  1  0
 17 19  2  0
  7 20  2  0
 20 21  1  0
 21 22  2  0
 22 23  1  0
 24 23  1  0
 24 25  1  0
 25 26  1  0
 26 27  1  0
 27 28  1  0
 28 29  1  0
 29 30  1  0
 26 31  1  0
 31 32  1  0
 31 33  1  0
 33 34  1  0
 23 35  1  0
 35 36  2  0
 36  5  1  0
 11  9  1  0
 19 12  1  0
 35 20  1  0
 33 24  1  0
M  END
