CVD-0001162|dock_bobby27042020.24|mol2|42|dock3
     RDKit          3D

 34 39  0  0  0  0  0  0  0  0999 V2000
   14.3100   -2.5320   25.5128 C   0  0  0  0  0  0  0  0  0  0  0  0
   13.9776   -1.6420   24.4578 O   0  0  0  0  0  0  0  0  0  0  0  0
   13.6473   -2.2905   23.2474 C   0  0  0  0  0  0  0  0  0  0  0  0
   13.3200   -1.2777   22.1809 C   0  0  0  0  0  0  0  0  0  0  0  0
   12.2222   -0.3714   22.5523 N   0  0  0  0  0  0  0  0  0  0  0  0
   10.8893   -0.7604   22.5837 C   0  0  0  0  0  0  0  0  0  0  0  0
   10.5091   -1.9011   22.3893 O   0  0  0  0  0  0  0  0  0  0  0  0
   10.0586    0.4100   23.0679 C   0  0  0  0  0  0  0  0  0  0  0  0
    9.0427    0.9393   22.0103 C   0  0  0  0  0  0  0  0  0  0  0  0
    8.4415   -0.1126   21.0714 C   0  0  0  0  0  0  0  0  0  0  0  0
    7.4435    0.4372   20.0955 C   0  0  0  0  0  0  0  0  0  0  0  0
    7.5873    0.5411   18.7435 C   0  0  0  0  0  0  0  0  0  0  0  0
    6.4673    1.0908   18.1829 N   0  0  0  0  0  0  0  0  0  0  0  0
    5.5609    1.3624   19.1773 C   0  0  0  0  0  0  0  0  0  0  0  0
    4.2866    1.9165   19.1205 C   0  0  0  0  0  0  0  0  0  0  0  0
    3.5847    2.0858   20.3027 C   0  0  0  0  0  0  0  0  0  0  0  0
    4.1399    1.7125   21.5097 C   0  0  0  0  0  0  0  0  0  0  0  0
    5.4087    1.1580   21.5672 C   0  0  0  0  0  0  0  0  0  0  0  0
    6.1438    0.9693   20.3974 C   0  0  0  0  0  0  0  0  0  0  0  0
    9.8422    1.9498   21.2945 N   0  0  0  0  0  0  0  0  0  0  0  0
   10.5263    2.6990   22.3483 C   0  0  0  0  0  0  0  0  0  0  0  0
   11.0668    1.5519   23.2665 C   0  0  0  0  0  0  0  0  0  0  0  0
   12.3865    0.9846   22.7863 C   0  0  0  0  0  0  0  0  0  0  0  0
   13.4526    1.5642   22.6885 O   0  0  0  0  0  0  0  0  0  0  0  0
   11.6679    3.5742   21.7993 C   0  0  0  0  0  0  0  0  0  0  0  0
   12.6054    3.1568   21.1423 O   0  0  0  0  0  0  0  0  0  0  0  0
   11.4722    4.8230   22.2747 N   0  0  0  0  0  0  0  0  0  0  0  0
   10.2996    4.9352   23.0249 C   0  0  0  0  0  0  0  0  0  0  0  0
    9.6996    6.0714   23.5582 C   0  0  0  0  0  0  0  0  0  0  0  0
    8.4547    5.9563   24.1513 C   0  0  0  0  0  0  0  0  0  0  0  0
    7.8348    4.7261   24.2032 C   0  0  0  0  0  0  0  0  0  0  0  0
    6.3454    4.5707   25.0944 Cl  0  0  0  0  0  0  0  0  0  0  0  0
    8.4157    3.5883   23.6790 C   0  0  0  0  0  0  0  0  0  0  0  0
    9.6654    3.6954   23.0820 C   0  0  0  0  0  0  0  0  0  0  0  0
  1  2  1  0
  2  3  1  0
  3  4  1  0
  4  5  1  0
  5  6  1  0
  6  7  2  0
  8  6  1  0
  8  9  1  0
  9 10  1  0
 10 11  1  0
 11 12  2  0
 12 13  1  0
 13 14  1  0
 14 15  2  0
 15 16  1  0
 16 17  2  0
 17 18  1  0
 18 19  2  0
  9 20  1  0
 21 20  1  0
 21 22  1  0
 22 23  1  0
 23 24  2  0
 21 25  1  0
 25 26  2  0
 25 27  1  0
 27 28  1  0
 28 29  2  0
 29 30  1  0
 30 31  2  0
 31 32  1  0
 31 33  1  0
 33 34  2  0
 23  5  1  0
 34 28  1  0
 22  8  1  0
 19 11  1  0
 34 21  1  0
 19 14  1  0
M  END
