CVD-0000552|dock_bobby27042020.55|mol2|34|dock1
     RDKit          3D

 30 32  0  0  0  0  0  0  0  0999 V2000
   12.9318    3.5464   21.5355 C   0  0  0  0  0  0  0  0  0  0  0  0
   12.3235    4.5221   22.5102 C   0  0  0  0  0  0  0  0  0  0  0  0
   13.1401    5.5153   23.0424 C   0  0  0  0  0  0  0  0  0  0  0  0
   12.6181    6.4267   23.9319 C   0  0  0  0  0  0  0  0  0  0  0  0
   11.3470    6.4120   24.3213 N   0  0  0  0  0  0  0  0  0  0  0  0
   10.5530    5.4617   23.8180 C   0  0  0  0  0  0  0  0  0  0  0  0
   10.9721    4.4886   22.9087 C   0  0  0  0  0  0  0  0  0  0  0  0
   10.1358    3.4729   22.3612 N   0  0  0  0  0  0  0  0  0  0  0  0
    8.8197    3.5402   21.9573 C   0  0  0  0  0  0  0  0  0  0  0  0
    8.1275    4.5505   22.0126 O   0  0  0  0  0  0  0  0  0  0  0  0
    8.3785    2.3249   21.4807 N   0  0  0  0  0  0  0  0  0  0  0  0
    7.0987    1.9645   20.9709 C   0  0  0  0  0  0  0  0  0  0  0  0
    5.9173    2.6802   21.1673 C   0  0  0  0  0  0  0  0  0  0  0  0
    4.7343    2.3101   20.6684 N   0  0  0  0  0  0  0  0  0  0  0  0
    4.6766    1.1845   19.9574 C   0  0  0  0  0  0  0  0  0  0  0  0
    5.7887    0.3779   19.6998 C   0  0  0  0  0  0  0  0  0  0  0  0
    5.6521   -0.8380   18.9400 C   0  0  0  0  0  0  0  0  0  0  0  0
    5.5128   -1.7916   18.3267 N   0  0  0  0  0  0  0  0  0  0  0  0
    7.0314    0.7873   20.2065 C   0  0  0  0  0  0  0  0  0  0  0  0
    8.1796    0.0319   19.9568 O   0  0  0  0  0  0  0  0  0  0  0  0
    8.6646   -0.8933   20.8830 C   0  0  0  0  0  0  0  0  0  0  0  0
    7.7659   -1.7734   21.4604 C   0  0  0  0  0  0  0  0  0  0  0  0
    8.2133   -2.7046   22.3823 C   0  0  0  0  0  0  0  0  0  0  0  0
    9.5519   -2.7605   22.7306 C   0  0  0  0  0  0  0  0  0  0  0  0
   10.4387   -1.8709   22.1470 C   0  0  0  0  0  0  0  0  0  0  0  0
   10.0102   -0.9319   21.2208 C   0  0  0  0  0  0  0  0  0  0  0  0
   12.1511   -1.9350   22.5785 S   0  0  0  0  0  0  0  0  0  0  0  0
   13.0119   -2.0008   21.2302 N   0  0  0  0  0  0  0  0  0  0  0  0
   12.3696   -3.1639   23.2807 O   0  0  0  0  0  0  0  0  0  0  0  0
   12.4751   -0.7003   23.2278 O   0  0  0  0  0  0  0  0  0  0  0  0
  1  2  1  0
  2  3  2  0
  3  4  1  0
  4  5  2  0
  5  6  1  0
  6  7  2  0
  7  8  1  0
  8  9  1  0
  9 10  2  0
  9 11  1  0
 11 12  1  0
 12 13  2  0
 13 14  1  0
 14 15  2  0
 15 16  1  0
 16 17  1  0
 17 18  3  0
 16 19  2  0
 19 20  1  0
 20 21  1  0
 21 22  2  0
 22 23  1  0
 23 24  2  0
 24 25  1  0
 25 26  2  0
 25 27  1  0
 27 28  1  0
 27 29  2  0
 27 30  2  0
  7  2  1  0
 19 12  1  0
 26 21  1  0
M  END
