CVD-0001772|dock_bobby27042020.80|mol2|9|dock1
     RDKit          3D

 24 25  0  0  0  0  0  0  0  0999 V2000
    8.6802   -6.0203   24.3549 Br  0  0  0  0  0  0  0  0  0  0  0  0
    7.5570   -5.5683   22.9153 C   0  0  0  0  0  0  0  0  0  0  0  0
    7.0460   -6.5600   22.0521 C   0  0  0  0  0  0  0  0  0  0  0  0
    6.2617   -6.0073   21.0881 C   0  0  0  0  0  0  0  0  0  0  0  0
    6.1524   -4.3086   21.2358 S   0  0  0  0  0  0  0  0  0  0  0  0
    7.1770   -4.2997   22.6222 C   0  0  0  0  0  0  0  0  0  0  0  0
    7.5335   -3.0237   23.3262 C   0  0  0  0  0  0  0  0  0  0  0  0
    8.2132   -2.0816   22.4538 N   0  0  0  0  0  0  0  0  0  0  0  0
    9.6800   -2.1513   22.4069 C   0  0  0  0  0  0  0  0  0  0  0  0
   10.3571   -1.1888   23.3687 C   0  0  0  0  0  0  0  0  0  0  0  0
   11.6314   -0.6678   22.8564 N   0  0  0  0  0  0  0  0  0  0  0  0
   12.0987    0.4687   23.6548 C   0  0  0  0  0  0  0  0  0  0  0  0
   13.3924    0.9736   23.1053 C   0  0  0  0  0  0  0  0  0  0  0  0
   14.3960   -0.0352   23.1157 O   0  0  0  0  0  0  0  0  0  0  0  0
   13.9595   -1.1481   22.3534 C   0  0  0  0  0  0  0  0  0  0  0  0
   12.6641   -1.7028   22.8653 C   0  0  0  0  0  0  0  0  0  0  0  0
    7.5114   -1.1834   21.7303 C   0  0  0  0  0  0  0  0  0  0  0  0
    6.2886   -1.1371   21.7805 O   0  0  0  0  0  0  0  0  0  0  0  0
    8.2820   -0.2233   20.8387 C   0  0  0  0  0  0  0  0  0  0  0  0
    7.4089    0.8007   20.3069 N   0  0  0  0  0  0  0  0  0  0  0  0
    6.5732    0.5389   19.2985 C   0  0  0  0  0  0  0  0  0  0  0  0
    6.5021   -0.5806   18.7718 O   0  0  0  0  0  0  0  0  0  0  0  0
    5.7392    1.6793   18.8558 C   0  0  0  0  0  0  0  0  0  0  0  0
    5.0366    1.6441   17.7547 C   0  0  0  0  0  0  0  0  0  0  0  0
  1  2  1  0
  2  3  1  0
  3  4  2  0
  4  5  1  0
  5  6  1  0
  6  7  1  0
  7  8  1  0
  8  9  1  0
  9 10  1  0
 10 11  1  0
 11 12  1  0
 12 13  1  0
 13 14  1  0
 14 15  1  0
 15 16  1  0
  8 17  1  0
 17 18  2  0
 17 19  1  0
 19 20  1  0
 20 21  1  0
 21 22  2  0
 21 23  1  0
 23 24  2  0
  6  2  2  0
 16 11  1  0
M  END
