CVD-0001095|dock_bobby27042020.39|mol2|21|dock1
     RDKit          3D

 22 23  0  0  0  0  0  0  0  0999 V2000
    6.7301   -1.0995   18.9299 C   0  0  0  0  0  0  0  0  0  0  0  0
    8.0433    0.0562   19.0099 S   0  0  0  0  0  0  0  0  0  0  0  0
    7.5660    1.2249   19.6822 O   0  0  0  0  0  0  0  0  0  0  0  0
    8.5893    0.1993   17.6955 O   0  0  0  0  0  0  0  0  0  0  0  0
    9.1934   -0.5778   19.9296 N   0  0  0  0  0  0  0  0  0  0  0  0
    8.9919   -0.6917   21.3780 C   0  0  0  0  0  0  0  0  0  0  0  0
    9.9783   -1.6525   22.0560 C   0  0  0  0  0  0  0  0  0  0  0  0
    9.4061   -2.0971   23.4036 C   0  0  0  0  0  0  0  0  0  0  0  0
    8.4537   -1.5167   23.9161 O   0  0  0  0  0  0  0  0  0  0  0  0
   10.0589   -3.1628   23.9298 N   0  0  0  0  0  0  0  0  0  0  0  0
    9.8588   -3.8778   25.1370 C   0  0  0  0  0  0  0  0  0  0  0  0
   10.3456   -5.1748   25.2369 C   0  0  0  0  0  0  0  0  0  0  0  0
   10.1597   -5.8883   26.4078 C   0  0  0  0  0  0  0  0  0  0  0  0
    9.4917   -5.2845   27.4474 C   0  0  0  0  0  0  0  0  0  0  0  0
    9.0127   -4.0421   27.3833 N   0  0  0  0  0  0  0  0  0  0  0  0
    9.1969   -3.3605   26.2484 C   0  0  0  0  0  0  0  0  0  0  0  0
   11.3294   -0.9921   22.2802 C   0  0  0  0  0  0  0  0  0  0  0  0
   12.4246   -1.3336   21.4991 C   0  0  0  0  0  0  0  0  0  0  0  0
   13.6543   -0.7297   21.7018 C   0  0  0  0  0  0  0  0  0  0  0  0
   13.8039    0.2232   22.6865 C   0  0  0  0  0  0  0  0  0  0  0  0
   12.7243    0.5731   23.4689 C   0  0  0  0  0  0  0  0  0  0  0  0
   11.4941   -0.0302   23.2670 C   0  0  0  0  0  0  0  0  0  0  0  0
  1  2  1  0
  2  3  2  0
  2  4  2  0
  2  5  1  0
  5  6  1  0
  6  7  1  0
  7  8  1  0
  8  9  2  0
  8 10  1  0
 10 11  1  0
 11 12  2  0
 12 13  1  0
 13 14  2  0
 14 15  1  0
 15 16  2  0
  7 17  1  0
 17 18  2  0
 18 19  1  0
 19 20  2  0
 20 21  1  0
 21 22  2  0
 16 11  1  0
 22 17  1  0
M  END
