CVD-0000905|dock_bobby27042020.25|mol2|39|dock1
     RDKit          3D

 23 23  0  0  0  0  0  0  0  0999 V2000
   12.4045   -1.6815   22.0311 C   0  0  0  0  0  0  0  0  0  0  0  0
   10.9686   -1.2284   21.8576 C   0  0  0  0  0  0  0  0  0  0  0  0
   10.1647   -1.3436   23.1383 C   0  0  0  0  0  0  0  0  0  0  0  0
   10.7825   -0.4937   24.0744 O   0  0  0  0  0  0  0  0  0  0  0  0
    8.7324   -1.0281   22.9940 N   0  0  0  0  0  0  0  0  0  0  0  0
    8.4299    0.3786   22.7806 C   0  0  0  0  0  0  0  0  0  0  0  0
    8.2477    0.7244   21.2777 C   0  0  0  0  0  0  0  0  0  0  0  0
    7.3732   -0.2357   20.6002 N   0  0  0  0  0  0  0  0  0  0  0  0
    7.6003   -1.6422   20.8648 C   0  0  0  0  0  0  0  0  0  0  0  0
    7.8023   -1.9337   22.3555 C   0  0  0  0  0  0  0  0  0  0  0  0
    8.2331   -3.3646   22.6874 C   0  0  0  0  0  0  0  0  0  0  0  0
    7.2291   -4.4639   22.3173 C   0  0  0  0  0  0  0  0  0  0  0  0
    7.1945   -4.8303   20.8491 C   0  0  0  0  0  0  0  0  0  0  0  0
    6.2451   -5.6738   20.4758 N   0  0  0  0  0  0  0  0  0  0  0  0
    8.0166   -4.3582   20.0585 O   0  0  0  0  0  0  0  0  0  0  0  0
    8.4398   -3.4182   24.1305 N   0  0  0  0  0  0  0  0  0  0  0  0
    9.2431   -4.3125   24.7167 C   0  0  0  0  0  0  0  0  0  0  0  0
    9.3449   -4.2265   26.2113 C   0  0  0  0  0  0  0  0  0  0  0  0
    9.8492   -5.1631   24.0726 O   0  0  0  0  0  0  0  0  0  0  0  0
    7.1014    0.0215   19.1806 C   0  0  0  0  0  0  0  0  0  0  0  0
    8.2492    0.4791   18.5084 O   0  0  0  0  0  0  0  0  0  0  0  0
    5.9872    1.0227   18.9575 C   0  0  0  0  0  0  0  0  0  0  0  0
    5.7309    1.3880   17.2272 Cl  0  0  0  0  0  0  0  0  0  0  0  0
  1  2  1  0
  2  3  1  0
  3  4  1  0
  3  5  1  0
  5  6  1  0
  6  7  1  0
  7  8  1  0
  8  9  1  0
  9 10  1  0
 10 11  1  0
 11 12  1  0
 12 13  1  0
 13 14  1  0
 13 15  2  0
 11 16  1  0
 16 17  1  0
 17 18  1  0
 17 19  2  0
  8 20  1  0
 20 21  1  0
 20 22  1  0
 22 23  1  0
 10  5  1  0
M  END
