CVD-0002128|dock_bobby27042020.64|mol2|31|dock2
     RDKit          3D

 22 23  0  0  0  0  0  0  0  0999 V2000
    6.2623    1.2183   18.3904 N   0  0  0  0  0  0  0  0  0  0  0  0
    7.0075   -0.1442   18.7808 S   0  0  0  0  0  0  0  0  0  0  0  0
    8.0508   -0.3572   17.8188 O   0  0  0  0  0  0  0  0  0  0  0  0
    6.0030   -1.1570   18.9374 O   0  0  0  0  0  0  0  0  0  0  0  0
    7.7916    0.0531   20.3574 C   0  0  0  0  0  0  0  0  0  0  0  0
    8.4458   -1.2232   20.8581 C   0  0  0  0  0  0  0  0  0  0  0  0
    9.3763   -0.9514   22.0148 C   0  0  0  0  0  0  0  0  0  0  0  0
    8.9373   -0.6818   23.1281 O   0  0  0  0  0  0  0  0  0  0  0  0
   10.7016   -1.0392   21.6821 N   0  0  0  0  0  0  0  0  0  0  0  0
   11.8025   -0.8377   22.5505 C   0  0  0  0  0  0  0  0  0  0  0  0
   12.7186   -1.7587   22.9560 C   0  0  0  0  0  0  0  0  0  0  0  0
   13.8842   -1.1000   24.0057 S   0  0  0  0  0  0  0  0  0  0  0  0
   13.1677    0.4392   23.9314 C   0  0  0  0  0  0  0  0  0  0  0  0
   12.0740    0.4623   23.1287 C   0  0  0  0  0  0  0  0  0  0  0  0
   11.2871    1.7323   22.9299 C   0  0  0  0  0  0  0  0  0  0  0  0
   12.0834    2.9531   23.0687 N   0  0  0  0  0  0  0  0  0  0  0  0
   13.1557    2.9935   22.0671 C   0  0  0  0  0  0  0  0  0  0  0  0
   14.0279    4.2234   22.2256 C   0  0  0  0  0  0  0  0  0  0  0  0
   13.2313    5.5211   22.1684 C   0  0  0  0  0  0  0  0  0  0  0  0
   14.0090    6.6898   22.4420 O   0  0  0  0  0  0  0  0  0  0  0  0
   12.0648    5.4130   23.1445 C   0  0  0  0  0  0  0  0  0  0  0  0
   11.2481    4.1493   22.9318 C   0  0  0  0  0  0  0  0  0  0  0  0
  1  2  1  0
  2  3  2  0
  2  4  2  0
  2  5  1  0
  5  6  1  0
  6  7  1  0
  7  8  2  0
  7  9  1  0
  9 10  1  0
 10 11  2  0
 11 12  1  0
 12 13  1  0
 13 14  2  0
 14 15  1  0
 15 16  1  0
 16 17  1  0
 17 18  1  0
 18 19  1  0
 19 20  1  0
 19 21  1  0
 21 22  1  0
 14 10  1  0
 22 16  1  0
M  END
