CVD-0000007|dock_bobby27042020.71|mol2|41|dock3
     RDKit          3D

 24 25  0  0  0  0  0  0  0  0999 V2000
    5.9261   -0.6476   18.0871 C   0  0  0  0  0  0  0  0  0  0  0  0
    7.2139    0.3259   18.7657 S   0  0  0  0  0  0  0  0  0  0  0  0
    6.6197    1.3615   19.5533 O   0  0  0  0  0  0  0  0  0  0  0  0
    8.0967    0.6971   17.7033 O   0  0  0  0  0  0  0  0  0  0  0  0
    8.0505   -0.6048   19.7679 N   0  0  0  0  0  0  0  0  0  0  0  0
    7.5016   -0.9238   21.0913 C   0  0  0  0  0  0  0  0  0  0  0  0
    8.1904   -0.1115   22.1535 C   0  0  0  0  0  0  0  0  0  0  0  0
    9.5515   -0.5366   22.2557 O   0  0  0  0  0  0  0  0  0  0  0  0
   10.3833    0.2288   23.1288 C   0  0  0  0  0  0  0  0  0  0  0  0
   10.7816    1.5472   22.4613 C   0  0  0  0  0  0  0  0  0  0  0  0
   10.3120    1.8354   21.3643 O   0  0  0  0  0  0  0  0  0  0  0  0
   11.6522    2.2974   23.1803 N   0  0  0  0  0  0  0  0  0  0  0  0
   12.2411    3.5548   22.8993 C   0  0  0  0  0  0  0  0  0  0  0  0
   12.5271    4.5109   23.8686 C   0  0  0  0  0  0  0  0  0  0  0  0
   13.1043    5.7096   23.4865 C   0  0  0  0  0  0  0  0  0  0  0  0
   13.3786    5.9199   22.1547 C   0  0  0  0  0  0  0  0  0  0  0  0
   13.1159    5.0232   21.2042 N   0  0  0  0  0  0  0  0  0  0  0  0
   12.5589    3.8693   21.5830 C   0  0  0  0  0  0  0  0  0  0  0  0
   11.6245   -0.5709   23.4562 C   0  0  0  0  0  0  0  0  0  0  0  0
   12.3344   -1.2186   22.4551 C   0  0  0  0  0  0  0  0  0  0  0  0
   13.4689   -1.9535   22.7561 C   0  0  0  0  0  0  0  0  0  0  0  0
   13.9058   -2.0499   24.0601 C   0  0  0  0  0  0  0  0  0  0  0  0
   13.2089   -1.4123   25.0643 C   0  0  0  0  0  0  0  0  0  0  0  0
   12.0741   -0.6770   24.7649 C   0  0  0  0  0  0  0  0  0  0  0  0
  1  2  1  0
  2  3  2  0
  2  4  2  0
  2  5  1  0
  5  6  1  0
  6  7  1  0
  7  8  1  0
  8  9  1  0
  9 10  1  0
 10 11  2  0
 10 12  1  0
 12 13  1  0
 13 14  2  0
 14 15  1  0
 15 16  2  0
 16 17  1  0
 17 18  2  0
  9 19  1  0
 19 20  2  0
 20 21  1  0
 21 22  2  0
 22 23  1  0
 23 24  2  0
 18 13  1  0
 24 19  1  0
M  END
