CVD-0000437|dock_bobby27042020.70|mol2|13|dock2
     RDKit          3D

 27 28  0  0  0  0  0  0  0  0999 V2000
    6.6955    0.8930   18.5716 C   0  0  0  0  0  0  0  0  0  0  0  0
    6.7616   -0.3497   19.4029 C   0  0  0  0  0  0  0  0  0  0  0  0
    7.9253   -0.3462   20.2737 N   0  0  0  0  0  0  0  0  0  0  0  0
    8.2115   -1.3377   21.1616 C   0  0  0  0  0  0  0  0  0  0  0  0
    7.3465   -2.4154   21.3466 C   0  0  0  0  0  0  0  0  0  0  0  0
    7.7042   -3.3843   22.2654 C   0  0  0  0  0  0  0  0  0  0  0  0
    8.8892   -3.2278   22.9414 C   0  0  0  0  0  0  0  0  0  0  0  0
    9.2585   -4.1649   23.8444 F   0  0  0  0  0  0  0  0  0  0  0  0
    9.7134   -2.1408   22.7250 C   0  0  0  0  0  0  0  0  0  0  0  0
   11.0224   -1.9463   23.4516 C   0  0  0  0  0  0  0  0  0  0  0  0
   11.7927   -0.6862   23.1025 C   0  0  0  0  0  0  0  0  0  0  0  0
   11.1445    0.5449   23.0950 C   0  0  0  0  0  0  0  0  0  0  0  0
   11.8150    1.7236   22.7835 C   0  0  0  0  0  0  0  0  0  0  0  0
   11.1265    2.9221   22.7887 N   0  0  0  0  0  0  0  0  0  0  0  0
   11.7730    4.2136   22.9195 C   0  0  0  0  0  0  0  0  0  0  0  0
   10.8068    5.2942   23.3637 C   0  0  0  0  0  0  0  0  0  0  0  0
   10.9729    5.8116   24.4639 O   0  0  0  0  0  0  0  0  0  0  0  0
    9.7677    5.6949   22.5619 N   0  0  0  0  0  0  0  0  0  0  0  0
    8.7710    6.6574   22.5655 C   0  0  0  0  0  0  0  0  0  0  0  0
    8.7001    7.4417   23.5224 O   0  0  0  0  0  0  0  0  0  0  0  0
    7.7918    6.7700   21.4557 C   0  0  0  0  0  0  0  0  0  0  0  0
    6.8895    7.7152   21.4450 C   0  0  0  0  0  0  0  0  0  0  0  0
   13.1693    1.6718   22.4724 C   0  0  0  0  0  0  0  0  0  0  0  0
   13.8337    0.4594   22.4748 C   0  0  0  0  0  0  0  0  0  0  0  0
   13.1444   -0.6985   22.7877 C   0  0  0  0  0  0  0  0  0  0  0  0
   14.0096   -2.2003   22.7819 Cl  0  0  0  0  0  0  0  0  0  0  0  0
    9.3632   -1.2046   21.8322 N   0  0  0  0  0  0  0  0  0  0  0  0
  1  2  1  0
  2  3  1  0
  3  4  1  0
  4  5  2  0
  5  6  1  0
  6  7  2  0
  7  8  1  0
  7  9  1  0
  9 10  1  0
 10 11  1  0
 11 12  2  0
 12 13  1  0
 13 14  1  0
 14 15  1  0
 15 16  1  0
 16 17  2  0
 16 18  1  0
 18 19  1  0
 19 20  2  0
 19 21  1  0
 21 22  2  0
 13 23  2  0
 23 24  1  0
 24 25  2  0
 25 26  1  0
  9 27  2  0
 27  4  1  0
 25 11  1  0
M  END
