CVD-0002235|dock_bobby27042020.49|mol2|29|dock3
     RDKit          3D

 43 48  0  0  0  0  0  0  0  0999 V2000
    9.5409    0.7881   20.5043 F   0  0  0  0  0  0  0  0  0  0  0  0
    8.6804   -0.1849   20.1264 C   0  0  0  0  0  0  0  0  0  0  0  0
    7.6698    0.2021   19.2784 C   0  0  0  0  0  0  0  0  0  0  0  0
    6.7445   -0.7397   18.8709 C   0  0  0  0  0  0  0  0  0  0  0  0
    6.8539   -2.0379   19.3124 C   0  0  0  0  0  0  0  0  0  0  0  0
    7.8872   -2.4101   20.1558 C   0  0  0  0  0  0  0  0  0  0  0  0
    8.8393   -1.4859   20.5948 C   0  0  0  0  0  0  0  0  0  0  0  0
    9.9524   -1.8908   21.4969 C   0  0  0  0  0  0  0  0  0  0  0  0
   11.2768   -1.5014   21.3924 C   0  0  0  0  0  0  0  0  0  0  0  0
   12.0421   -2.0842   22.4170 C   0  0  0  0  0  0  0  0  0  0  0  0
   13.5235   -1.8964   22.6129 C   0  0  0  0  0  0  0  0  0  0  0  0
   13.8667   -0.7031   23.3625 N   0  0  0  0  0  0  0  0  0  0  0  0
   12.9410    0.2454   23.7555 C   0  0  0  0  0  0  0  0  0  0  0  0
   12.2901    0.1005   24.9727 C   0  0  0  0  0  0  0  0  0  0  0  0
   11.3418    1.0246   25.3632 C   0  0  0  0  0  0  0  0  0  0  0  0
   11.0202    2.1092   24.5567 C   0  0  0  0  0  0  0  0  0  0  0  0
    9.9688    3.1257   25.0147 C   0  0  0  0  0  0  0  0  0  0  0  0
    9.5279    4.0792   23.9768 N   0  0  0  0  0  0  0  0  0  0  0  0
    9.8802    3.7720   22.5684 C   0  0  0  0  0  0  0  0  0  0  0  0
   11.3278    3.4338   22.4352 C   0  0  0  0  0  0  0  0  0  0  0  0
   12.1626    4.6692   22.7459 C   0  0  0  0  0  0  0  0  0  0  0  0
   12.4831    4.9983   24.0555 C   0  0  0  0  0  0  0  0  0  0  0  0
   13.2429    6.1214   24.3373 C   0  0  0  0  0  0  0  0  0  0  0  0
   13.6915    6.9286   23.3140 C   0  0  0  0  0  0  0  0  0  0  0  0
   13.3809    6.6136   22.0084 C   0  0  0  0  0  0  0  0  0  0  0  0
   12.6212    5.4907   21.7255 C   0  0  0  0  0  0  0  0  0  0  0  0
   11.6658    2.2684   23.3307 C   0  0  0  0  0  0  0  0  0  0  0  0
   12.6239    1.3300   22.9417 C   0  0  0  0  0  0  0  0  0  0  0  0
    8.8436    5.1844   24.3598 C   0  0  0  0  0  0  0  0  0  0  0  0
    8.5742    5.3970   25.5355 O   0  0  0  0  0  0  0  0  0  0  0  0
    8.4149    6.1786   23.2972 C   0  0  0  0  0  0  0  0  0  0  0  0
    7.4762    7.5026   23.9992 Cl  0  0  0  0  0  0  0  0  0  0  0  0
   11.1756   -2.8535   23.1765 C   0  0  0  0  0  0  0  0  0  0  0  0
    9.8998   -2.7445   22.6374 N   0  0  0  0  0  0  0  0  0  0  0  0
    8.6417   -3.5893   23.4019 S   0  0  0  0  0  0  0  0  0  0  0  0
    8.3467   -4.6797   22.5249 O   0  0  0  0  0  0  0  0  0  0  0  0
    7.6108   -2.6451   23.7043 O   0  0  0  0  0  0  0  0  0  0  0  0
    9.2972   -4.2757   24.8839 C   0  0  0  0  0  0  0  0  0  0  0  0
    9.7452   -5.5853   24.9105 C   0  0  0  0  0  0  0  0  0  0  0  0
   10.2485   -6.0863   26.0986 C   0  0  0  0  0  0  0  0  0  0  0  0
   10.2817   -5.2647   27.2027 C   0  0  0  0  0  0  0  0  0  0  0  0
    9.8520   -4.0021   27.1919 N   0  0  0  0  0  0  0  0  0  0  0  0
    9.3672   -3.5247   26.0419 C   0  0  0  0  0  0  0  0  0  0  0  0
  1  2  1  0
  2  3  2  0
  3  4  1  0
  4  5  2  0
  5  6  1  0
  6  7  2  0
  7  8  1  0
  8  9  2  0
  9 10  1  0
 10 11  1  0
 11 12  1  0
 12 13  1  0
 13 14  2  0
 14 15  1  0
 15 16  2  0
 16 17  1  0
 17 18  1  0
 18 19  1  0
 19 20  1  0
 20 21  1  0
 21 22  2  0
 22 23  1  0
 23 24  2  0
 24 25  1  0
 25 26  2  0
 20 27  1  0
 27 28  2  0
 18 29  1  0
 29 30  2  0
 29 31  1  0
 31 32  1  0
 10 33  2  0
 33 34  1  0
 34 35  1  0
 35 36  2  0
 35 37  2  0
 35 38  1  0
 38 39  2  0
 39 40  1  0
 40 41  2  0
 41 42  1  0
 42 43  2  0
  7  2  1  0
 34  8  1  0
 43 38  1  0
 28 13  1  0
 27 16  1  0
 26 21  1  0
M  END
