CVD-0001461|dock_bobby27042020.95|mol2|16|dock3
     RDKit          3D

 27 29  0  0  0  0  0  0  0  0999 V2000
    9.6864   -5.2673   26.4947 C   0  0  0  0  0  0  0  0  0  0  0  0
   10.1156   -5.3703   24.8000 S   0  0  0  0  0  0  0  0  0  0  0  0
   11.4208   -4.8081   24.6378 O   0  0  0  0  0  0  0  0  0  0  0  0
    9.8923   -6.7150   24.3665 O   0  0  0  0  0  0  0  0  0  0  0  0
    9.0980   -4.4385   23.9833 N   0  0  0  0  0  0  0  0  0  0  0  0
    9.3897   -3.0085   23.8265 C   0  0  0  0  0  0  0  0  0  0  0  0
    9.9267   -2.7155   22.4397 C   0  0  0  0  0  0  0  0  0  0  0  0
   10.1961   -1.2571   22.2111 C   0  0  0  0  0  0  0  0  0  0  0  0
    9.3021   -0.2996   21.8300 C   0  0  0  0  0  0  0  0  0  0  0  0
    9.9201    0.9167   21.7242 N   0  0  0  0  0  0  0  0  0  0  0  0
   11.2470    0.7608   22.0413 C   0  0  0  0  0  0  0  0  0  0  0  0
   12.2703    1.7124   22.0755 C   0  0  0  0  0  0  0  0  0  0  0  0
   12.0258    3.1632   21.7339 C   0  0  0  0  0  0  0  0  0  0  0  0
   12.8631    4.0795   22.5202 N   0  0  0  0  0  0  0  0  0  0  0  0
   12.1223    4.5826   23.6809 C   0  0  0  0  0  0  0  0  0  0  0  0
   13.0046    5.4957   24.5117 C   0  0  0  0  0  0  0  0  0  0  0  0
   13.4927    6.6128   23.6999 N   0  0  0  0  0  0  0  0  0  0  0  0
   14.1877    6.1418   22.4978 C   0  0  0  0  0  0  0  0  0  0  0  0
   13.2917    5.2107   21.7016 C   0  0  0  0  0  0  0  0  0  0  0  0
   13.3299    7.9135   24.0616 C   0  0  0  0  0  0  0  0  0  0  0  0
   13.7747    8.7870   23.3186 O   0  0  0  0  0  0  0  0  0  0  0  0
   12.6541    8.3735   25.3162 C   0  0  0  0  0  0  0  0  0  0  0  0
   13.1124    9.2498   26.1753 C   0  0  0  0  0  0  0  0  0  0  0  0
   13.5400    1.2683   22.4347 C   0  0  0  0  0  0  0  0  0  0  0  0
   13.7751   -0.0626   22.7470 C   0  0  0  0  0  0  0  0  0  0  0  0
   12.7484   -0.9942   22.7094 C   0  0  0  0  0  0  0  0  0  0  0  0
   11.4611   -0.5942   22.3535 C   0  0  0  0  0  0  0  0  0  0  0  0
  1  2  1  0
  2  3  2  0
  2  4  2  0
  2  5  1  0
  5  6  1  0
  6  7  1  0
  7  8  1  0
  8  9  2  0
  9 10  1  0
 10 11  1  0
 11 12  2  0
 12 13  1  0
 13 14  1  0
 14 15  1  0
 15 16  1  0
 16 17  1  0
 17 18  1  0
 18 19  1  0
 17 20  1  0
 20 21  2  0
 20 22  1  0
 22 23  2  0
 12 24  1  0
 24 25  2  0
 25 26  1  0
 26 27  2  0
 27  8  1  0
 27 11  1  0
 19 14  1  0
M  END
