CVD-0000874|dock_bobby27042020.68|mol2|47|dock3
     RDKit          3D

 29 32  0  0  0  0  0  0  0  0999 V2000
    5.8703   -1.4293   19.4933 Cl  0  0  0  0  0  0  0  0  0  0  0  0
    7.4912   -1.0008   20.0555 C   0  0  0  0  0  0  0  0  0  0  0  0
    7.5955   -1.0733   21.5671 C   0  0  0  0  0  0  0  0  0  0  0  0
    6.5962   -0.9059   22.2556 O   0  0  0  0  0  0  0  0  0  0  0  0
    8.8056   -1.3127   22.1280 N   0  0  0  0  0  0  0  0  0  0  0  0
   10.0788   -1.4503   21.3997 C   0  0  0  0  0  0  0  0  0  0  0  0
   11.3438   -1.4853   22.2560 C   0  0  0  0  0  0  0  0  0  0  0  0
   12.5389   -1.9338   21.7033 C   0  0  0  0  0  0  0  0  0  0  0  0
   13.7148   -1.8829   22.4287 C   0  0  0  0  0  0  0  0  0  0  0  0
   13.6952   -1.3812   23.7124 C   0  0  0  0  0  0  0  0  0  0  0  0
   12.5027   -0.9375   24.2540 C   0  0  0  0  0  0  0  0  0  0  0  0
   11.3001   -0.9765   23.5464 C   0  0  0  0  0  0  0  0  0  0  0  0
    9.9831   -0.5039   24.1082 C   0  0  0  0  0  0  0  0  0  0  0  0
    8.8614   -1.3490   23.6107 C   0  0  0  0  0  0  0  0  0  0  0  0
    9.0370   -2.7919   24.0996 C   0  0  0  0  0  0  0  0  0  0  0  0
    9.4853   -3.6453   23.3397 O   0  0  0  0  0  0  0  0  0  0  0  0
    8.6527   -2.9928   25.3846 N   0  0  0  0  0  0  0  0  0  0  0  0
    8.6510   -4.1624   26.1850 C   0  0  0  0  0  0  0  0  0  0  0  0
    7.6514   -4.3239   27.1355 C   0  0  0  0  0  0  0  0  0  0  0  0
    7.6340   -5.4599   27.9254 C   0  0  0  0  0  0  0  0  0  0  0  0
    8.6176   -6.4037   27.7425 C   0  0  0  0  0  0  0  0  0  0  0  0
    9.5902   -6.2783   26.8397 N   0  0  0  0  0  0  0  0  0  0  0  0
    9.5993   -5.1776   26.0815 C   0  0  0  0  0  0  0  0  0  0  0  0
    9.7191    0.9759   23.8626 C   0  0  0  0  0  0  0  0  0  0  0  0
    8.7187    1.6412   24.5577 C   0  0  0  0  0  0  0  0  0  0  0  0
    8.4760    2.9867   24.3365 C   0  0  0  0  0  0  0  0  0  0  0  0
    9.2300    3.6845   23.4178 C   0  0  0  0  0  0  0  0  0  0  0  0
   10.2270    3.0375   22.7198 C   0  0  0  0  0  0  0  0  0  0  0  0
   10.4702    1.6921   22.9405 C   0  0  0  0  0  0  0  0  0  0  0  0
  1  2  1  0
  2  3  1  0
  3  4  2  0
  3  5  1  0
  5  6  1  0
  6  7  1  0
  7  8  2  0
  8  9  1  0
  9 10  2  0
 10 11  1  0
 11 12  2  0
 12 13  1  0
 13 14  1  0
 14 15  1  0
 15 16  2  0
 15 17  1  0
 17 18  1  0
 18 19  2  0
 19 20  1  0
 20 21  2  0
 21 22  1  0
 22 23  2  0
 13 24  1  0
 24 25  2  0
 25 26  1  0
 26 27  2  0
 27 28  1  0
 28 29  2  0
 14  5  1  0
 23 18  1  0
 29 24  1  0
 12  7  1  0
M  END
