CVD-0000768|dock_bobby27042020.69|mol2|16|dock3
     RDKit          3D

 23 25  0  0  0  0  0  0  0  0999 V2000
    7.7258   -0.5836   19.4279 C   0  0  0  0  0  0  0  0  0  0  0  0
    8.7579   -1.3734   20.0658 O   0  0  0  0  0  0  0  0  0  0  0  0
    9.5104   -0.8077   21.0420 C   0  0  0  0  0  0  0  0  0  0  0  0
    9.4721    0.4668   21.4435 C   0  0  0  0  0  0  0  0  0  0  0  0
   10.2252    0.9848   22.4448 N   0  0  0  0  0  0  0  0  0  0  0  0
   10.2629    2.4013   22.8122 C   0  0  0  0  0  0  0  0  0  0  0  0
   11.5287    3.0805   22.3170 C   0  0  0  0  0  0  0  0  0  0  0  0
   11.9460    4.2083   23.1468 N   0  0  0  0  0  0  0  0  0  0  0  0
   13.2689    4.6751   22.7480 C   0  0  0  0  0  0  0  0  0  0  0  0
   10.9912    5.3066   23.0495 C   0  0  0  0  0  0  0  0  0  0  0  0
   11.1555    0.1352   23.2188 C   0  0  0  0  0  0  0  0  0  0  0  0
   10.6627   -1.3258   23.1433 C   0  0  0  0  0  0  0  0  0  0  0  0
   10.4693   -1.7743   21.6931 C   0  0  0  0  0  0  0  0  0  0  0  0
    9.4215   -1.5320   23.9890 C   0  0  0  0  0  0  0  0  0  0  0  0
    8.6099   -0.4018   24.5428 C   0  0  0  0  0  0  0  0  0  0  0  0
    9.4671   -1.2218   25.4572 C   0  0  0  0  0  0  0  0  0  0  0  0
    8.6302   -2.7789   23.5904 C   0  0  0  0  0  0  0  0  0  0  0  0
    7.4910   -2.7040   22.7928 C   0  0  0  0  0  0  0  0  0  0  0  0
    6.7763   -3.8372   22.4471 C   0  0  0  0  0  0  0  0  0  0  0  0
    7.2031   -5.0656   22.8978 C   0  0  0  0  0  0  0  0  0  0  0  0
    6.3055   -6.4955   22.4709 Cl  0  0  0  0  0  0  0  0  0  0  0  0
    8.3292   -5.1802   23.6806 C   0  0  0  0  0  0  0  0  0  0  0  0
    9.0358   -4.0395   24.0173 C   0  0  0  0  0  0  0  0  0  0  0  0
  1  2  1  0
  2  3  1  0
  3  4  2  0
  4  5  1  0
  5  6  1  0
  6  7  1  0
  7  8  1  0
  8  9  1  0
  8 10  1  0
  5 11  1  0
 11 12  1  0
 12 13  1  0
 12 14  1  0
 14 15  1  0
 15 16  1  0
 14 17  1  0
 17 18  2  0
 18 19  1  0
 19 20  2  0
 20 21  1  0
 20 22  1  0
 22 23  2  0
 13  3  1  0
 16 14  1  0
 23 17  1  0
M  END
