CVD-0003991|dock_bobby27042020.58|mol2|5|dock1
     RDKit          3D

 26 26  0  0  0  0  0  0  0  0999 V2000
   14.0387    6.5299   22.6518 O   0  0  0  0  0  0  0  0  0  0  0  0
   13.7059    5.1726   23.3926 S   0  0  0  0  0  0  0  0  0  0  0  0
   12.6454    5.4120   24.3038 O   0  0  0  0  0  0  0  0  0  0  0  0
   14.9249    4.5961   23.8329 O   0  0  0  0  0  0  0  0  0  0  0  0
   13.0691    4.1159   22.1413 C   0  0  0  0  0  0  0  0  0  0  0  0
   12.9069    4.5672   21.0307 O   0  0  0  0  0  0  0  0  0  0  0  0
   12.7248    2.6994   22.4874 C   0  0  0  0  0  0  0  0  0  0  0  0
   13.6834    2.0296   23.3684 N   0  0  0  0  0  0  0  0  0  0  0  0
   13.9638    0.6495   22.9677 C   0  0  0  0  0  0  0  0  0  0  0  0
   12.7310   -0.2259   23.0158 C   0  0  0  0  0  0  0  0  0  0  0  0
   11.7863    0.0097   23.7383 O   0  0  0  0  0  0  0  0  0  0  0  0
   12.7197   -1.4233   22.1003 C   0  0  0  0  0  0  0  0  0  0  0  0
   11.4116   -2.0239   21.9985 O   0  0  0  0  0  0  0  0  0  0  0  0
   10.4297   -1.2978   21.4409 C   0  0  0  0  0  0  0  0  0  0  0  0
   10.5535   -0.1477   21.0885 O   0  0  0  0  0  0  0  0  0  0  0  0
    9.1856   -2.0809   21.3186 C   0  0  0  0  0  0  0  0  0  0  0  0
    8.9535   -3.1769   22.0339 C   0  0  0  0  0  0  0  0  0  0  0  0
    7.7328   -4.0043   21.9571 C   0  0  0  0  0  0  0  0  0  0  0  0
    6.9311   -3.8117   21.0517 O   0  0  0  0  0  0  0  0  0  0  0  0
    7.4519   -5.0858   22.9804 C   0  0  0  0  0  0  0  0  0  0  0  0
    8.3577   -5.0395   24.1879 C   0  0  0  0  0  0  0  0  0  0  0  0
    9.3364   -5.9217   24.3735 C   0  0  0  0  0  0  0  0  0  0  0  0
   10.2358   -5.9371   25.5841 C   0  0  0  0  0  0  0  0  0  0  0  0
    9.7091   -5.0580   26.7030 C   0  0  0  0  0  0  0  0  0  0  0  0
    9.2353   -3.7296   26.1578 C   0  0  0  0  0  0  0  0  0  0  0  0
    8.0779   -3.9444   25.1859 C   0  0  0  0  0  0  0  0  0  0  0  0
  1  2  1  0
  2  3  2  0
  2  4  2  0
  2  5  1  0
  5  6  2  0
  5  7  1  0
  7  8  1  0
  8  9  1  0
  9 10  1  0
 10 11  2  0
 10 12  1  0
 12 13  1  0
 13 14  1  0
 14 15  2  0
 14 16  1  0
 16 17  2  0
 17 18  1  0
 18 19  2  0
 18 20  1  0
 20 21  1  0
 21 22  2  0
 22 23  1  0
 23 24  1  0
 24 25  1  0
 25 26  1  0
 26 21  1  0
M  END
