CVD-0002241|dock_bobby27042020.35|mol2|11|dock3
     RDKit          3D

 43 48  0  0  0  0  0  0  0  0999 V2000
    7.0246   -0.5031   20.2795 C   0  0  0  0  0  0  0  0  0  0  0  0
    6.8459   -0.4392   21.6912 N   0  0  0  0  0  0  0  0  0  0  0  0
    6.3674    1.1414   22.1958 Cl  0  0  0  0  0  0  0  0  0  0  0  0
    5.7940   -1.3320   22.0499 C   0  0  0  0  0  0  0  0  0  0  0  0
    5.8148   -1.7667   23.4904 C   0  0  0  0  0  0  0  0  0  0  0  0
    5.7973   -0.9186   24.6120 C   0  0  0  0  0  0  0  0  0  0  0  0
    5.8170   -1.6568   25.7829 C   0  0  0  0  0  0  0  0  0  0  0  0
    5.8149   -1.1149   27.1696 C   0  0  0  0  0  0  0  0  0  0  0  0
    6.8076   -0.2331   27.6060 C   0  0  0  0  0  0  0  0  0  0  0  0
    6.8057    0.2771   28.8935 C   0  0  0  0  0  0  0  0  0  0  0  0
    5.8105   -0.0642   29.7796 C   0  0  0  0  0  0  0  0  0  0  0  0
    4.8082   -0.9290   29.3835 C   0  0  0  0  0  0  0  0  0  0  0  0
    4.8357   -1.4349   28.1054 C   0  0  0  0  0  0  0  0  0  0  0  0
    3.8386   -2.2915   27.7865 F   0  0  0  0  0  0  0  0  0  0  0  0
    5.8359   -3.0195   25.3669 N   0  0  0  0  0  0  0  0  0  0  0  0
    5.8355   -3.0642   23.9784 C   0  0  0  0  0  0  0  0  0  0  0  0
    5.8501   -4.4935   26.2082 S   0  0  0  0  0  0  0  0  0  0  0  0
    4.9640   -5.3862   25.5275 O   0  0  0  0  0  0  0  0  0  0  0  0
    5.5717   -4.1430   27.5664 O   0  0  0  0  0  0  0  0  0  0  0  0
    7.4980   -5.1092   26.1568 C   0  0  0  0  0  0  0  0  0  0  0  0
    8.3076   -5.0372   27.2774 C   0  0  0  0  0  0  0  0  0  0  0  0
    9.5987   -5.5287   27.1911 C   0  0  0  0  0  0  0  0  0  0  0  0
   10.0243   -6.0667   25.9976 C   0  0  0  0  0  0  0  0  0  0  0  0
    9.2559   -6.1408   24.9099 N   0  0  0  0  0  0  0  0  0  0  0  0
    8.0109   -5.6643   24.9998 C   0  0  0  0  0  0  0  0  0  0  0  0
    8.0237   -0.8247   22.4032 C   0  0  0  0  0  0  0  0  0  0  0  0
    8.1141   -1.9676   22.7994 O   0  0  0  0  0  0  0  0  0  0  0  0
    9.0840    0.0025   22.6867 N   0  0  0  0  0  0  0  0  0  0  0  0
   10.2246   -0.6282   23.3958 C   0  0  0  0  0  0  0  0  0  0  0  0
   11.5167   -0.2829   22.7334 C   0  0  0  0  0  0  0  0  0  0  0  0
   12.6661   -1.0117   23.4193 C   0  0  0  0  0  0  0  0  0  0  0  0
   13.2730   -2.1052   22.8175 C   0  0  0  0  0  0  0  0  0  0  0  0
   14.3191   -2.7655   23.4402 C   0  0  0  0  0  0  0  0  0  0  0  0
   14.7711   -2.3408   24.6712 C   0  0  0  0  0  0  0  0  0  0  0  0
   14.1783   -1.2556   25.2801 C   0  0  0  0  0  0  0  0  0  0  0  0
   13.1322   -0.5945   24.6583 C   0  0  0  0  0  0  0  0  0  0  0  0
   11.7054    1.2137   22.7227 C   0  0  0  0  0  0  0  0  0  0  0  0
   12.9553    1.8220   22.8380 C   0  0  0  0  0  0  0  0  0  0  0  0
   13.1111    3.1939   22.7588 C   0  0  0  0  0  0  0  0  0  0  0  0
   12.0060    3.9945   22.5599 C   0  0  0  0  0  0  0  0  0  0  0  0
   10.7560    3.4140   22.4425 C   0  0  0  0  0  0  0  0  0  0  0  0
   10.6033    2.0341   22.5225 C   0  0  0  0  0  0  0  0  0  0  0  0
    9.2462    1.3924   22.2201 C   0  0  0  0  0  0  0  0  0  0  0  0
  1  2  1  0
  2  3  1  0
  2  4  1  0
  4  5  1  0
  5  6  1  0
  6  7  2  0
  7  8  1  0
  8  9  2  0
  9 10  1  0
 10 11  2  0
 11 12  1  0
 12 13  2  0
 13 14  1  0
  7 15  1  0
 15 16  1  0
 15 17  1  0
 17 18  2  0
 17 19  2  0
 17 20  1  0
 20 21  2  0
 21 22  1  0
 22 23  2  0
 23 24  1  0
 24 25  2  0
  2 26  1  0
 26 27  2  0
 26 28  1  0
 28 29  1  0
 29 30  1  0
 30 31  1  0
 31 32  2  0
 32 33  1  0
 33 34  2  0
 34 35  1  0
 35 36  2  0
 30 37  1  0
 37 38  2  0
 38 39  1  0
 39 40  2  0
 40 41  1  0
 41 42  2  0
 42 43  1  0
 16  5  2  0
 25 20  1  0
 43 28  1  0
 13  8  1  0
 36 31  1  0
 42 37  1  0
M  CHG  1   2   1
M  END
