CVD-0001826|dock_bobby27042020.94|mol2|8|dock1
     RDKit          3D

 26 29  0  0  0  0  0  0  0  0999 V2000
   12.1365   -2.0486   21.2674 O   0  0  0  0  0  0  0  0  0  0  0  0
   11.6503   -1.7799   22.3650 C   0  0  0  0  0  0  0  0  0  0  0  0
   10.3400   -1.6420   22.5620 N   0  0  0  0  0  0  0  0  0  0  0  0
    9.3679   -1.7986   21.4896 C   0  0  0  0  0  0  0  0  0  0  0  0
    7.9497   -1.6285   21.9969 C   0  0  0  0  0  0  0  0  0  0  0  0
    6.9534   -2.1496   21.0468 N   0  0  0  0  0  0  0  0  0  0  0  0
    6.3008   -1.4198   20.0928 C   0  0  0  0  0  0  0  0  0  0  0  0
    5.4689   -2.1824   19.4182 N   0  0  0  0  0  0  0  0  0  0  0  0
    5.5554   -3.4714   19.9378 N   0  0  0  0  0  0  0  0  0  0  0  0
    6.4394   -3.4217   20.9085 C   0  0  0  0  0  0  0  0  0  0  0  0
    6.7626   -4.5332   21.6464 N   0  0  0  0  0  0  0  0  0  0  0  0
    7.5936   -4.4938   22.8265 C   0  0  0  0  0  0  0  0  0  0  0  0
    7.6788   -5.9284   23.2395 C   0  0  0  0  0  0  0  0  0  0  0  0
    6.9593   -6.7354   22.3610 C   0  0  0  0  0  0  0  0  0  0  0  0
    6.2985   -5.8667   21.3453 C   0  0  0  0  0  0  0  0  0  0  0  0
    6.4687    0.0493   19.8048 C   0  0  0  0  0  0  0  0  0  0  0  0
    5.9434    0.3928   18.4079 C   0  0  0  0  0  0  0  0  0  0  0  0
    5.0310    1.5933   18.6482 C   0  0  0  0  0  0  0  0  0  0  0  0
    4.7564    1.6247   20.0895 C   0  0  0  0  0  0  0  0  0  0  0  0
    3.8845    2.2120   20.7227 O   0  0  0  0  0  0  0  0  0  0  0  0
    5.6785    0.8773   20.6938 N   0  0  0  0  0  0  0  0  0  0  0  0
   12.5220   -1.5942   23.5398 C   0  0  0  0  0  0  0  0  0  0  0  0
   12.3939   -0.7596   24.6291 C   0  0  0  0  0  0  0  0  0  0  0  0
   13.4787   -0.9147   25.5257 C   0  0  0  0  0  0  0  0  0  0  0  0
   14.3798   -1.8267   25.1236 C   0  0  0  0  0  0  0  0  0  0  0  0
   13.9500   -2.5402   23.6337 S   0  0  0  0  0  0  0  0  0  0  0  0
  1  2  2  0
  2  3  1  0
  3  4  1  0
  4  5  1  0
  5  6  1  0
  6  7  1  0
  7  8  2  0
  8  9  1  0
  9 10  2  0
 10 11  1  0
 11 12  1  0
 12 13  1  0
 13 14  1  0
 14 15  1  0
  7 16  1  0
 16 17  1  0
 17 18  1  0
 18 19  1  0
 19 20  2  0
 19 21  1  0
  2 22  1  0
 22 23  2  0
 23 24  1  0
 24 25  2  0
 25 26  1  0
 10  6  1  0
 15 11  1  0
 21 16  1  0
 26 22  1  0
M  END
