CVD-0003965|dock_bobby27042020.43|mol2|31|dock2
     RDKit          3D

 22 23  0  0  0  0  0  0  0  0999 V2000
    5.7008   -5.1630   27.6397 C   0  0  0  0  0  0  0  0  0  0  0  0
    7.0796   -5.5417   27.1822 C   0  0  0  0  0  0  0  0  0  0  0  0
    7.4047   -6.7230   27.1379 O   0  0  0  0  0  0  0  0  0  0  0  0
    7.9654   -4.5693   26.8326 N   0  0  0  0  0  0  0  0  0  0  0  0
    9.3316   -4.8604   26.3927 C   0  0  0  0  0  0  0  0  0  0  0  0
    9.6063   -4.2095   25.0499 C   0  0  0  0  0  0  0  0  0  0  0  0
    9.4001   -2.7607   25.1367 N   0  0  0  0  0  0  0  0  0  0  0  0
    9.7032   -2.1204   23.8491 C   0  0  0  0  0  0  0  0  0  0  0  0
   10.1207   -0.6651   23.9688 C   0  0  0  0  0  0  0  0  0  0  0  0
   10.3331    0.0093   22.6195 C   0  0  0  0  0  0  0  0  0  0  0  0
   11.1266    1.2909   22.7001 C   0  0  0  0  0  0  0  0  0  0  0  0
   12.5120    1.2723   22.6558 C   0  0  0  0  0  0  0  0  0  0  0  0
   13.2487    2.4411   22.7315 C   0  0  0  0  0  0  0  0  0  0  0  0
   12.5891    3.6527   22.8534 C   0  0  0  0  0  0  0  0  0  0  0  0
   11.2057    3.6951   22.9030 C   0  0  0  0  0  0  0  0  0  0  0  0
   10.4877    2.5149   22.8258 C   0  0  0  0  0  0  0  0  0  0  0  0
   13.5182    5.1524   22.9568 S   0  0  0  0  0  0  0  0  0  0  0  0
   13.6862    5.7479   21.4802 N   0  0  0  0  0  0  0  0  0  0  0  0
   12.7353    6.0899   23.7049 O   0  0  0  0  0  0  0  0  0  0  0  0
   14.8274    4.8129   23.4279 O   0  0  0  0  0  0  0  0  0  0  0  0
    8.0166   -2.4987   25.5251 C   0  0  0  0  0  0  0  0  0  0  0  0
    7.7082   -3.1264   26.8723 C   0  0  0  0  0  0  0  0  0  0  0  0
  1  2  1  0
  2  3  2  0
  2  4  1  0
  4  5  1  0
  5  6  1  0
  6  7  1  0
  7  8  1  0
  8  9  1  0
  9 10  1  0
 10 11  1  0
 11 12  2  0
 12 13  1  0
 13 14  2  0
 14 15  1  0
 15 16  2  0
 14 17  1  0
 17 18  1  0
 17 19  2  0
 17 20  2  0
  7 21  1  0
 21 22  1  0
 22  4  1  0
 16 11  1  0
M  END
