CVD-0000642|dock_bobby27042020.12|mol2|21|dock1
     RDKit          3D

 27 30  0  0  0  0  0  0  0  0999 V2000
    2.3655    1.6521   21.2120 O   0  0  0  0  0  0  0  0  0  0  0  0
    3.2599    2.3978   20.8264 C   0  0  0  0  0  0  0  0  0  0  0  0
    4.6833    2.2421   21.3130 C   0  0  0  0  0  0  0  0  0  0  0  0
    5.4779    1.1492   20.5889 C   0  0  0  0  0  0  0  0  0  0  0  0
    5.1631    1.2002   19.0589 C   0  0  0  0  0  0  0  0  0  0  0  0
    5.8116   -0.0753   18.4191 C   0  0  0  0  0  0  0  0  0  0  0  0
    7.3385   -0.0027   18.5876 C   0  0  0  0  0  0  0  0  0  0  0  0
    7.7101    0.2279   20.0116 C   0  0  0  0  0  0  0  0  0  0  0  0
    8.6580   -0.3691   20.7251 C   0  0  0  0  0  0  0  0  0  0  0  0
    8.8018    0.1911   22.1092 C   0  0  0  0  0  0  0  0  0  0  0  0
   10.1557    0.8204   22.4766 C   0  0  0  0  0  0  0  0  0  0  0  0
   11.3289   -0.0179   22.1997 N   0  0  0  0  0  0  0  0  0  0  0  0
   12.5473    0.6579   22.6156 C   0  0  0  0  0  0  0  0  0  0  0  0
   13.7755   -0.2020   22.3635 C   0  0  0  0  0  0  0  0  0  0  0  0
   13.6212   -1.5326   23.0135 C   0  0  0  0  0  0  0  0  0  0  0  0
   14.4278   -1.9763   23.8025 O   0  0  0  0  0  0  0  0  0  0  0  0
   12.3608   -2.2095   22.6425 C   0  0  0  0  0  0  0  0  0  0  0  0
   11.1884   -1.2862   22.9133 C   0  0  0  0  0  0  0  0  0  0  0  0
    7.6938    1.2609   22.1521 C   0  0  0  0  0  0  0  0  0  0  0  0
    7.0035    1.3025   20.7767 C   0  0  0  0  0  0  0  0  0  0  0  0
    3.0460    3.3823   19.9508 N   0  0  0  0  0  0  0  0  0  0  0  0
    1.7263    3.6552   19.3768 C   0  0  0  0  0  0  0  0  0  0  0  0
    0.8400    4.4154   20.3617 C   0  0  0  0  0  0  0  0  0  0  0  0
   -0.4991    4.7760   19.6948 C   0  0  0  0  0  0  0  0  0  0  0  0
   -0.2880    5.4625   18.3052 C   0  0  0  0  0  0  0  0  0  0  0  0
    0.5768    4.6560   17.4579 N   0  0  0  0  0  0  0  0  0  0  0  0
    1.8804    4.4344   18.0797 C   0  0  0  0  0  0  0  0  0  0  0  0
  1  2  2  0
  2  3  1  0
  3  4  1  0
  4  5  1  0
  5  6  1  0
  6  7  1  0
  7  8  1  0
  8  9  2  0
  9 10  1  0
 10 11  1  0
 11 12  1  0
 12 13  1  0
 13 14  1  0
 14 15  1  0
 15 16  2  0
 15 17  1  0
 17 18  1  0
 10 19  1  0
 19 20  1  0
  2 21  1  0
 21 22  1  0
 22 23  1  0
 23 24  1  0
 24 25  1  0
 25 26  1  0
 26 27  1  0
 20  4  1  0
 27 22  1  0
 20  8  1  0
 18 12  1  0
M  END
