CVD-0000294|dock_bobby27042020.13|mol2|26|dock2
     RDKit          3D

 27 30  0  0  0  0  0  0  0  0999 V2000
   14.6520   -1.9386   25.3593 C   0  0  0  0  0  0  0  0  0  0  0  0
   13.1606   -2.0450   25.6667 C   0  0  0  0  0  0  0  0  0  0  0  0
   12.3746   -0.8004   25.4518 C   0  0  0  0  0  0  0  0  0  0  0  0
   12.2368   -1.9614   24.4950 C   0  0  0  0  0  0  0  0  0  0  0  0
   12.8418   -1.8775   23.1500 N   0  0  0  0  0  0  0  0  0  0  0  0
   13.5938   -2.9123   22.7088 N   0  0  0  0  0  0  0  0  0  0  0  0
   14.0203   -2.5729   21.5326 N   0  0  0  0  0  0  0  0  0  0  0  0
   13.5811   -1.3375   21.1868 N   0  0  0  0  0  0  0  0  0  0  0  0
   12.8500   -0.9110   22.1974 C   0  0  0  0  0  0  0  0  0  0  0  0
   12.1722    0.4054   22.2368 C   0  0  0  0  0  0  0  0  0  0  0  0
   12.9158    1.5484   22.5485 C   0  0  0  0  0  0  0  0  0  0  0  0
   12.2992    2.7776   22.7005 C   0  0  0  0  0  0  0  0  0  0  0  0
   10.9288    2.8884   22.5678 C   0  0  0  0  0  0  0  0  0  0  0  0
   10.1520    1.7878   22.2234 C   0  0  0  0  0  0  0  0  0  0  0  0
    8.6602    1.9408   22.0837 C   0  0  0  0  0  0  0  0  0  0  0  0
   10.7859    0.5616   21.9986 C   0  0  0  0  0  0  0  0  0  0  0  0
    9.9403   -0.4944   21.5158 N   0  0  0  0  0  0  0  0  0  0  0  0
    8.8545   -0.9964   22.1523 C   0  0  0  0  0  0  0  0  0  0  0  0
    8.4434   -0.6098   23.2419 O   0  0  0  0  0  0  0  0  0  0  0  0
    8.1672   -2.1131   21.4050 C   0  0  0  0  0  0  0  0  0  0  0  0
    6.6498   -2.0804   21.5705 C   0  0  0  0  0  0  0  0  0  0  0  0
    6.0070   -0.9416   20.8162 C   0  0  0  0  0  0  0  0  0  0  0  0
    5.8631   -0.9803   19.4393 C   0  0  0  0  0  0  0  0  0  0  0  0
    5.2667    0.0781   18.7769 C   0  0  0  0  0  0  0  0  0  0  0  0
    4.8283    1.1512   19.5187 C   0  0  0  0  0  0  0  0  0  0  0  0
    4.9510    1.2184   20.8450 N   0  0  0  0  0  0  0  0  0  0  0  0
    5.5301    0.1839   21.4619 C   0  0  0  0  0  0  0  0  0  0  0  0
  1  2  1  0
  2  3  1  0
  3  4  1  0
  4  5  1  0
  5  6  1  0
  6  7  2  0
  7  8  1  0
  8  9  2  0
  9 10  1  0
 10 11  2  0
 11 12  1  0
 12 13  2  0
 13 14  1  0
 14 15  1  0
 14 16  2  0
 16 17  1  0
 17 18  1  0
 18 19  2  0
 18 20  1  0
 20 21  1  0
 21 22  1  0
 22 23  2  0
 23 24  1  0
 24 25  2  0
 25 26  1  0
 26 27  2  0
  4  2  1  0
  9  5  1  0
 16 10  1  0
 27 22  1  0
M  END
