CVD-0002060|dock_bobby27042020.36|mol2|8|dock3
     RDKit          3D

 34 37  0  0  0  0  0  0  0  0999 V2000
    6.3897   -6.7415   22.1270 C   0  0  0  0  0  0  0  0  0  0  0  0
    7.1833   -5.5099   22.1409 N   0  0  0  0  0  0  0  0  0  0  0  0
    6.4073   -4.2905   22.3904 C   0  0  0  0  0  0  0  0  0  0  0  0
    7.2542   -3.0529   22.2503 C   0  0  0  0  0  0  0  0  0  0  0  0
    8.6424   -2.9893   22.4596 C   0  0  0  0  0  0  0  0  0  0  0  0
    9.1071   -1.7046   22.2346 C   0  0  0  0  0  0  0  0  0  0  0  0
   10.5175   -1.2424   22.3508 C   0  0  0  0  0  0  0  0  0  0  0  0
   11.5241   -1.7598   21.5303 C   0  0  0  0  0  0  0  0  0  0  0  0
   12.8359   -1.3312   21.6451 C   0  0  0  0  0  0  0  0  0  0  0  0
   13.1804   -0.3839   22.5901 C   0  0  0  0  0  0  0  0  0  0  0  0
   12.2125    0.1515   23.4298 C   0  0  0  0  0  0  0  0  0  0  0  0
   12.5305    1.1870   24.4800 C   0  0  0  0  0  0  0  0  0  0  0  0
   12.8090    2.4979   23.9281 N   0  0  0  0  0  0  0  0  0  0  0  0
   11.8382    3.3845   23.5765 C   0  0  0  0  0  0  0  0  0  0  0  0
   12.0675    4.7569   23.6576 C   0  0  0  0  0  0  0  0  0  0  0  0
   11.0499    5.6179   23.2890 C   0  0  0  0  0  0  0  0  0  0  0  0
    9.8355    5.1021   22.8509 C   0  0  0  0  0  0  0  0  0  0  0  0
    9.7036    3.7174   22.8050 C   0  0  0  0  0  0  0  0  0  0  0  0
   10.6775    2.8706   23.1578 N   0  0  0  0  0  0  0  0  0  0  0  0
    8.7524    5.9697   22.4586 C   0  0  0  0  0  0  0  0  0  0  0  0
    7.8848    6.6340   22.1258 N   0  0  0  0  0  0  0  0  0  0  0  0
   10.9113   -0.2856   23.2816 C   0  0  0  0  0  0  0  0  0  0  0  0
   10.0259    0.2933   24.1132 F   0  0  0  0  0  0  0  0  0  0  0  0
    7.9548   -0.9449   21.8773 N   0  0  0  0  0  0  0  0  0  0  0  0
    6.8447   -1.7803   21.8869 C   0  0  0  0  0  0  0  0  0  0  0  0
    7.7153    0.6864   21.4739 S   0  0  0  0  0  0  0  0  0  0  0  0
    6.9483    1.2810   22.5243 O   0  0  0  0  0  0  0  0  0  0  0  0
    9.0245    1.1921   21.2002 O   0  0  0  0  0  0  0  0  0  0  0  0
    6.8158    0.7245   19.9617 C   0  0  0  0  0  0  0  0  0  0  0  0
    5.6107    1.4009   19.8808 C   0  0  0  0  0  0  0  0  0  0  0  0
    4.9339    1.4009   18.6734 C   0  0  0  0  0  0  0  0  0  0  0  0
    5.4846    0.7293   17.6054 C   0  0  0  0  0  0  0  0  0  0  0  0
    6.6436    0.0722   17.6694 N   0  0  0  0  0  0  0  0  0  0  0  0
    7.2916    0.0758   18.8380 C   0  0  0  0  0  0  0  0  0  0  0  0
  1  2  1  0
  2  3  1  0
  3  4  1  0
  4  5  1  0
  5  6  2  0
  6  7  1  0
  7  8  2  0
  8  9  1  0
  9 10  2  0
 10 11  1  0
 11 12  1  0
 12 13  1  0
 13 14  1  0
 14 15  2  0
 15 16  1  0
 16 17  2  0
 17 18  1  0
 18 19  2  0
 17 20  1  0
 20 21  3  0
 11 22  2  0
 22 23  1  0
  6 24  1  0
 24 25  1  0
 24 26  1  0
 26 27  2  0
 26 28  2  0
 26 29  1  0
 29 30  2  0
 30 31  1  0
 31 32  2  0
 32 33  1  0
 33 34  2  0
 25  4  2  0
 34 29  1  0
 22  7  1  0
 19 14  1  0
M  END
