CVD-0000585|dock_bobby27042020.69|mol2|43|dock1
     RDKit          3D

 21 22  0  0  0  0  0  0  0  0999 V2000
    7.3775   -1.5353   18.2378 O   0  0  0  0  0  0  0  0  0  0  0  0
    6.9569   -0.4142   18.8801 C   0  0  0  0  0  0  0  0  0  0  0  0
    5.9594    0.3256   18.2555 C   0  0  0  0  0  0  0  0  0  0  0  0
    5.4734    1.4859   18.8258 C   0  0  0  0  0  0  0  0  0  0  0  0
    5.9863    1.8945   20.0344 C   0  0  0  0  0  0  0  0  0  0  0  0
    5.3829    3.3554   20.7653 Cl  0  0  0  0  0  0  0  0  0  0  0  0
    6.9670    1.1741   20.6841 C   0  0  0  0  0  0  0  0  0  0  0  0
    7.4902    0.0055   20.1176 C   0  0  0  0  0  0  0  0  0  0  0  0
    8.5770   -0.7479   20.8471 C   0  0  0  0  0  0  0  0  0  0  0  0
    8.4871   -1.9692   20.9151 O   0  0  0  0  0  0  0  0  0  0  0  0
    9.6165   -0.0507   21.3911 N   0  0  0  0  0  0  0  0  0  0  0  0
   10.7559   -0.5123   22.1111 C   0  0  0  0  0  0  0  0  0  0  0  0
   11.2030   -1.8377   22.0830 C   0  0  0  0  0  0  0  0  0  0  0  0
   12.3247   -2.2267   22.7941 C   0  0  0  0  0  0  0  0  0  0  0  0
   13.0190   -1.3101   23.5618 C   0  0  0  0  0  0  0  0  0  0  0  0
   12.5966    0.0047   23.6207 C   0  0  0  0  0  0  0  0  0  0  0  0
   11.4827    0.3918   22.9008 C   0  0  0  0  0  0  0  0  0  0  0  0
   11.0372    2.0640   23.0276 Cl  0  0  0  0  0  0  0  0  0  0  0  0
   14.2065   -1.7316   24.3164 N   0  0  0  0  0  0  0  0  0  0  0  0
   14.7620   -2.7757   23.9807 O   0  0  0  0  0  0  0  0  0  0  0  0
   14.5794   -1.0240   25.2367 O   0  0  0  0  0  0  0  0  0  0  0  0
  1  2  1  0
  2  3  2  0
  3  4  1  0
  4  5  2  0
  5  6  1  0
  5  7  1  0
  7  8  2  0
  8  9  1  0
  9 10  2  0
  9 11  1  0
 11 12  1  0
 12 13  2  0
 13 14  1  0
 14 15  2  0
 15 16  1  0
 16 17  2  0
 17 18  1  0
 15 19  1  0
 19 20  1  0
 19 21  2  0
  8  2  1  0
 17 12  1  0
M  CHG  2  19   1  20  -1
M  END
