CVD-0003232|dock_bobby27042020.2|mol2|38|dock2
     RDKit          3D

 35 39  0  0  0  0  0  0  0  0999 V2000
    9.6556   -5.3000   24.4521 C   0  0  0  0  0  0  0  0  0  0  0  0
    8.5619   -4.9302   23.5523 N   0  0  0  0  0  0  0  0  0  0  0  0
    7.8968   -5.7739   22.7065 C   0  0  0  0  0  0  0  0  0  0  0  0
    6.9670   -5.0408   22.0283 C   0  0  0  0  0  0  0  0  0  0  0  0
    7.0414   -3.6920   22.4452 C   0  0  0  0  0  0  0  0  0  0  0  0
    6.1982   -2.5476   21.9394 C   0  0  0  0  0  0  0  0  0  0  0  0
    6.7779   -1.8479   20.7884 N   0  0  0  0  0  0  0  0  0  0  0  0
    6.2468   -2.1226   19.5556 C   0  0  0  0  0  0  0  0  0  0  0  0
    5.3313   -2.9173   19.3813 O   0  0  0  0  0  0  0  0  0  0  0  0
    6.8072   -1.4012   18.3293 C   0  0  0  0  0  0  0  0  0  0  0  0
    6.1086   -0.1562   18.0748 N   0  0  0  0  0  0  0  0  0  0  0  0
    6.4691    0.6333   17.0292 N   0  0  0  0  0  0  0  0  0  0  0  0
    5.7340    1.7087   17.0368 N   0  0  0  0  0  0  0  0  0  0  0  0
    4.8950    1.6462   18.1271 C   0  0  0  0  0  0  0  0  0  0  0  0
    3.9285    2.5295   18.6058 C   0  0  0  0  0  0  0  0  0  0  0  0
    3.2299    2.1943   19.7555 C   0  0  0  0  0  0  0  0  0  0  0  0
    3.4787    1.0104   20.4219 C   0  0  0  0  0  0  0  0  0  0  0  0
    4.4337    0.1185   19.9601 C   0  0  0  0  0  0  0  0  0  0  0  0
    5.1325    0.4521   18.8062 C   0  0  0  0  0  0  0  0  0  0  0  0
    7.8427   -0.9018   21.0166 C   0  0  0  0  0  0  0  0  0  0  0  0
    9.1778   -1.2778   20.9173 C   0  0  0  0  0  0  0  0  0  0  0  0
   10.2018   -0.3746   21.1428 C   0  0  0  0  0  0  0  0  0  0  0  0
    9.9225    0.9510   21.4630 C   0  0  0  0  0  0  0  0  0  0  0  0
   10.9067    1.9448   21.7034 N   0  0  0  0  0  0  0  0  0  0  0  0
   10.8801    3.0480   22.5029 C   0  0  0  0  0  0  0  0  0  0  0  0
    9.9190    3.3599   23.1980 O   0  0  0  0  0  0  0  0  0  0  0  0
   12.0864    3.9484   22.5514 C   0  0  0  0  0  0  0  0  0  0  0  0
   12.3980    4.5633   23.7613 C   0  0  0  0  0  0  0  0  0  0  0  0
   13.4926    5.4032   23.8776 C   0  0  0  0  0  0  0  0  0  0  0  0
   14.2987    5.6466   22.7883 C   0  0  0  0  0  0  0  0  0  0  0  0
   14.0088    5.0489   21.5821 C   0  0  0  0  0  0  0  0  0  0  0  0
   12.9152    4.2076   21.4590 C   0  0  0  0  0  0  0  0  0  0  0  0
    8.5901    1.3310   21.5545 C   0  0  0  0  0  0  0  0  0  0  0  0
    7.5697    0.4218   21.3416 C   0  0  0  0  0  0  0  0  0  0  0  0
    8.0576   -3.6699   23.3930 C   0  0  0  0  0  0  0  0  0  0  0  0
  1  2  1  0
  2  3  1  0
  3  4  2  0
  4  5  1  0
  5  6  1  0
  6  7  1  0
  7  8  1  0
  8  9  2  0
  8 10  1  0
 10 11  1  0
 11 12  1  0
 12 13  2  0
 13 14  1  0
 14 15  2  0
 15 16  1  0
 16 17  2  0
 17 18  1  0
 18 19  2  0
  7 20  1  0
 20 21  2  0
 21 22  1  0
 22 23  2  0
 23 24  1  0
 24 25  1  0
 25 26  2  0
 25 27  1  0
 27 28  2  0
 28 29  1  0
 29 30  2  0
 30 31  1  0
 31 32  2  0
 23 33  1  0
 33 34  2  0
  5 35  2  0
 35  2  1  0
 19 11  1  0
 34 20  1  0
 19 14  1  0
 32 27  1  0
M  END
