CVD-0002709|dock_bobby27042020.18|mol2|47|dock3
     RDKit          3D

 25 28  0  0  0  0  0  0  0  0999 V2000
    9.5480   -1.5179   24.9322 O   0  0  0  0  0  0  0  0  0  0  0  0
    9.9319   -1.4571   23.7699 C   0  0  0  0  0  0  0  0  0  0  0  0
    9.1874   -1.9804   22.7793 N   0  0  0  0  0  0  0  0  0  0  0  0
    9.5907   -2.1099   21.3863 C   0  0  0  0  0  0  0  0  0  0  0  0
    8.8046   -1.1369   20.5328 C   0  0  0  0  0  0  0  0  0  0  0  0
    7.3563   -1.3531   20.7100 N   0  0  0  0  0  0  0  0  0  0  0  0
    6.9832   -1.1884   22.1281 C   0  0  0  0  0  0  0  0  0  0  0  0
    7.7546   -2.1732   22.9759 C   0  0  0  0  0  0  0  0  0  0  0  0
    6.6316   -0.5318   19.8574 C   0  0  0  0  0  0  0  0  0  0  0  0
    5.9053   -1.0692   18.7990 C   0  0  0  0  0  0  0  0  0  0  0  0
    5.1824   -0.2471   17.9508 C   0  0  0  0  0  0  0  0  0  0  0  0
    5.1695    1.1160   18.1438 C   0  0  0  0  0  0  0  0  0  0  0  0
    5.8840    1.6608   19.1869 C   0  0  0  0  0  0  0  0  0  0  0  0
    6.6133    0.8478   20.0384 C   0  0  0  0  0  0  0  0  0  0  0  0
   11.2511   -0.8055   23.5005 C   0  0  0  0  0  0  0  0  0  0  0  0
   12.3750   -1.5677   23.5513 C   0  0  0  0  0  0  0  0  0  0  0  0
   13.6765   -1.0448   23.2971 C   0  0  0  0  0  0  0  0  0  0  0  0
   14.7225   -1.7082   23.3385 O   0  0  0  0  0  0  0  0  0  0  0  0
   13.7296    0.2852   22.9850 N   0  0  0  0  0  0  0  0  0  0  0  0
   12.6265    1.1325   22.9238 C   0  0  0  0  0  0  0  0  0  0  0  0
   12.7958    2.4755   22.5986 C   0  0  0  0  0  0  0  0  0  0  0  0
   11.6936    3.3138   22.5761 C   0  0  0  0  0  0  0  0  0  0  0  0
   10.4381    2.8296   22.8742 C   0  0  0  0  0  0  0  0  0  0  0  0
   10.2574    1.4932   23.1871 C   0  0  0  0  0  0  0  0  0  0  0  0
   11.3458    0.6209   23.2003 C   0  0  0  0  0  0  0  0  0  0  0  0
  1  2  2  0
  2  3  1  0
  3  4  1  0
  4  5  1  0
  5  6  1  0
  6  7  1  0
  7  8  1  0
  6  9  1  0
  9 10  2  0
 10 11  1  0
 11 12  2  0
 12 13  1  0
 13 14  2  0
  2 15  1  0
 15 16  2  0
 16 17  1  0
 17 18  2  0
 17 19  1  0
 19 20  1  0
 20 21  2  0
 21 22  1  0
 22 23  2  0
 23 24  1  0
 24 25  2  0
  8  3  1  0
 14  9  1  0
 25 15  1  0
 25 20  1  0
M  END
