CVD-0002421|dock_bobby27042020.91|mol2|27|dock2
     RDKit          3D

 19 21  0  0  0  0  0  0  0  0999 V2000
   14.9181   -2.8906   25.5036 O   0  0  0  0  0  0  0  0  0  0  0  0
   14.0870   -1.7533   25.2140 S   0  0  0  0  0  0  0  0  0  0  0  0
   14.0483   -0.6753   26.1649 O   0  0  0  0  0  0  0  0  0  0  0  0
   12.4013   -2.2799   24.6839 C   0  0  0  0  0  0  0  0  0  0  0  0
   12.7495   -1.7303   23.2347 C   0  0  0  0  0  0  0  0  0  0  0  0
   14.1929   -1.2147   23.4656 C   0  0  0  0  0  0  0  0  0  0  0  0
   11.9295   -0.6425   22.7455 O   0  0  0  0  0  0  0  0  0  0  0  0
   10.4961   -0.8343   22.6797 C   0  0  0  0  0  0  0  0  0  0  0  0
    9.7635    0.2549   21.9056 C   0  0  0  0  0  0  0  0  0  0  0  0
    8.2862   -0.0404   21.7358 C   0  0  0  0  0  0  0  0  0  0  0  0
    8.0608   -1.3372   21.0861 N   0  0  0  0  0  0  0  0  0  0  0  0
    6.6310   -1.5772   20.8852 C   0  0  0  0  0  0  0  0  0  0  0  0
    5.9883   -0.6218   19.9120 C   0  0  0  0  0  0  0  0  0  0  0  0
    4.9653    0.3017   20.2401 C   0  0  0  0  0  0  0  0  0  0  0  0
    4.5414    1.0706   19.1988 C   0  0  0  0  0  0  0  0  0  0  0  0
    5.4057    0.6606   17.7956 S   0  0  0  0  0  0  0  0  0  0  0  0
    6.3260   -0.5241   18.5962 C   0  0  0  0  0  0  0  0  0  0  0  0
    8.6673   -2.3965   21.8969 C   0  0  0  0  0  0  0  0  0  0  0  0
   10.1641   -2.1808   22.0462 C   0  0  0  0  0  0  0  0  0  0  0  0
  1  2  2  0
  2  3  2  0
  2  4  1  0
  4  5  1  0
  5  6  1  0
  5  7  1  0
  7  8  1  0
  8  9  1  0
  9 10  1  0
 10 11  1  0
 11 12  1  0
 12 13  1  0
 13 14  1  0
 14 15  2  0
 15 16  1  0
 16 17  1  0
 11 18  1  0
 18 19  1  0
  6  2  1  0
 19  8  1  0
 17 13  2  0
M  END
