CVD-0000682|dock_bobby27042020.40|mol2|41|dock1
     RDKit          3D

 26 28  0  0  0  0  0  0  0  0999 V2000
    5.6844   -1.3230   18.6921 C   0  0  0  0  0  0  0  0  0  0  0  0
    7.0337   -0.2517   19.0057 S   0  0  0  0  0  0  0  0  0  0  0  0
    6.5754    0.8007   19.8592 O   0  0  0  0  0  0  0  0  0  0  0  0
    7.6256    0.0957   17.7507 O   0  0  0  0  0  0  0  0  0  0  0  0
    8.1318   -1.0799   19.8296 N   0  0  0  0  0  0  0  0  0  0  0  0
    7.9624   -1.2860   21.2724 C   0  0  0  0  0  0  0  0  0  0  0  0
    9.2799   -1.2583   22.0610 C   0  0  0  0  0  0  0  0  0  0  0  0
    9.8814    0.1460   21.9781 C   0  0  0  0  0  0  0  0  0  0  0  0
    9.3781    0.9251   21.1914 O   0  0  0  0  0  0  0  0  0  0  0  0
   10.9264    0.6103   22.7353 N   0  0  0  0  0  0  0  0  0  0  0  0
   11.6408   -0.3791   23.5765 C   0  0  0  0  0  0  0  0  0  0  0  0
   13.0611    0.0664   23.9182 C   0  0  0  0  0  0  0  0  0  0  0  0
   13.6629    0.9550   22.8271 C   0  0  0  0  0  0  0  0  0  0  0  0
   12.7823    2.1608   22.6817 C   0  0  0  0  0  0  0  0  0  0  0  0
   13.2675    3.4627   22.6585 C   0  0  0  0  0  0  0  0  0  0  0  0
   12.3676    4.5043   22.6703 C   0  0  0  0  0  0  0  0  0  0  0  0
   11.0493    4.3289   22.7030 N   0  0  0  0  0  0  0  0  0  0  0  0
   10.5753    3.0760   22.7255 C   0  0  0  0  0  0  0  0  0  0  0  0
   11.3940    1.9517   22.7163 C   0  0  0  0  0  0  0  0  0  0  0  0
    9.0281   -1.6296   23.5145 C   0  0  0  0  0  0  0  0  0  0  0  0
    8.4382   -0.7258   24.3870 C   0  0  0  0  0  0  0  0  0  0  0  0
    8.2029   -1.0564   25.7097 C   0  0  0  0  0  0  0  0  0  0  0  0
    8.5667   -2.3031   26.1407 C   0  0  0  0  0  0  0  0  0  0  0  0
    8.3391   -2.6359   27.4399 F   0  0  0  0  0  0  0  0  0  0  0  0
    9.1499   -3.2287   25.3190 C   0  0  0  0  0  0  0  0  0  0  0  0
    9.3781   -2.8821   23.9991 C   0  0  0  0  0  0  0  0  0  0  0  0
  1  2  1  0
  2  3  2  0
  2  4  2  0
  2  5  1  0
  5  6  1  0
  7  6  1  0
  7  8  1  0
  8  9  2  0
  8 10  1  0
 10 11  1  0
 11 12  1  0
 12 13  1  0
 13 14  1  0
 14 15  2  0
 15 16  1  0
 16 17  2  0
 17 18  1  0
 18 19  2  0
  7 20  1  0
 20 21  2  0
 21 22  1  0
 22 23  2  0
 23 24  1  0
 23 25  1  0
 25 26  2  0
 19 10  1  0
 26 20  1  0
 19 14  1  0
M  END
