CVD-0000555|dock_bobby27042020.12|mol2|34|dock3
     RDKit          3D

 23 25  0  0  0  0  0  0  0  0999 V2000
    9.4513   -0.0536   23.0365 O   0  0  0  0  0  0  0  0  0  0  0  0
    9.9942   -0.6107   22.0879 C   0  0  0  0  0  0  0  0  0  0  0  0
   11.4175   -1.1270   22.1664 C   0  0  0  0  0  0  0  0  0  0  0  0
   12.3886   -0.3631   23.1015 C   0  0  0  0  0  0  0  0  0  0  0  0
   13.7848   -0.7748   22.6420 C   0  0  0  0  0  0  0  0  0  0  0  0
   14.0512   -2.2348   22.9498 C   0  0  0  0  0  0  0  0  0  0  0  0
   13.8680   -2.5323   24.4301 C   0  0  0  0  0  0  0  0  0  0  0  0
   12.4838   -2.1153   24.9001 C   0  0  0  0  0  0  0  0  0  0  0  0
   12.2028   -0.6516   24.5845 C   0  0  0  0  0  0  0  0  0  0  0  0
   12.3118    1.0904   22.9111 C   0  0  0  0  0  0  0  0  0  0  0  0
   12.2461    2.2583   22.6948 C   0  0  0  0  0  0  0  0  0  0  0  0
   12.1375    3.6660   22.3681 C   0  0  0  0  0  0  0  0  0  0  0  0
   13.3029    4.4624   22.6827 C   0  0  0  0  0  0  0  0  0  0  0  0
   12.8450    5.5307   23.7232 C   0  0  0  0  0  0  0  0  0  0  0  0
   11.3838    5.2611   23.8776 N   0  0  0  0  0  0  0  0  0  0  0  0
   10.9364    4.1624   23.0561 C   0  0  0  0  0  0  0  0  0  0  0  0
    9.4151   -0.8316   20.8827 N   0  0  0  0  0  0  0  0  0  0  0  0
    8.1228   -0.5150   20.3954 C   0  0  0  0  0  0  0  0  0  0  0  0
    7.0290   -0.2416   21.2108 C   0  0  0  0  0  0  0  0  0  0  0  0
    5.8090    0.0568   20.6287 C   0  0  0  0  0  0  0  0  0  0  0  0
    5.7144    0.0741   19.2562 C   0  0  0  0  0  0  0  0  0  0  0  0
    6.7440   -0.1836   18.4498 N   0  0  0  0  0  0  0  0  0  0  0  0
    7.9171   -0.4704   19.0212 C   0  0  0  0  0  0  0  0  0  0  0  0
  1  2  2  0
  2  3  1  0
  3  4  1  0
  4  5  1  0
  5  6  1  0
  6  7  1  0
  7  8  1  0
  8  9  1  0
  4 10  1  0
 10 11  3  0
 11 12  1  0
 12 13  1  0
 13 14  1  0
 14 15  1  0
 15 16  1  0
  2 17  1  0
 17 18  1  0
 18 19  2  0
 19 20  1  0
 20 21  2  0
 21 22  1  0
 22 23  2  0
  9  4  1  0
 16 12  1  0
 23 18  1  0
M  END
