CVD-0003427|dock_bobby27042020.2|mol2|10|dock2
     RDKit          3D

 20 22  0  0  0  0  0  0  0  0999 V2000
   13.9437   -1.8795   21.8067 Cl  0  0  0  0  0  0  0  0  0  0  0  0
   13.1722   -0.3589   22.0304 C   0  0  0  0  0  0  0  0  0  0  0  0
   14.0850    0.5670   22.4172 N   0  0  0  0  0  0  0  0  0  0  0  0
   13.7081    1.7912   22.6410 C   0  0  0  0  0  0  0  0  0  0  0  0
   12.4016    2.1612   22.4919 N   0  0  0  0  0  0  0  0  0  0  0  0
   11.8808    3.4105   22.6953 N   0  0  0  0  0  0  0  0  0  0  0  0
   10.5822    3.2863   22.4296 C   0  0  0  0  0  0  0  0  0  0  0  0
   10.2191    1.9953   22.0556 C   0  0  0  0  0  0  0  0  0  0  0  0
   11.4417    1.2663   22.1039 C   0  0  0  0  0  0  0  0  0  0  0  0
   11.8392   -0.0862   21.8536 C   0  0  0  0  0  0  0  0  0  0  0  0
   10.7515   -0.9147   21.4585 N   0  0  0  0  0  0  0  0  0  0  0  0
    9.5747   -1.2296   22.0867 C   0  0  0  0  0  0  0  0  0  0  0  0
    9.1984   -0.8375   23.1822 O   0  0  0  0  0  0  0  0  0  0  0  0
    8.6874   -2.1639   21.2934 C   0  0  0  0  0  0  0  0  0  0  0  0
    7.6078   -1.4416   20.4804 C   0  0  0  0  0  0  0  0  0  0  0  0
    6.6121   -2.4440   19.8617 C   0  0  0  0  0  0  0  0  0  0  0  0
    5.5650   -1.7598   18.9849 C   0  0  0  0  0  0  0  0  0  0  0  0
    6.2176   -0.8943   17.9147 C   0  0  0  0  0  0  0  0  0  0  0  0
    7.1752    0.1144   18.5327 C   0  0  0  0  0  0  0  0  0  0  0  0
    8.2408   -0.5802   19.3743 C   0  0  0  0  0  0  0  0  0  0  0  0
  1  2  1  0
  2  3  1  0
  3  4  2  0
  4  5  1  0
  5  6  1  0
  6  7  2  0
  7  8  1  0
  8  9  2  0
  9 10  1  0
 10 11  1  0
 11 12  1  0
 12 13  2  0
 12 14  1  0
 14 15  1  0
 15 16  1  0
 16 17  1  0
 17 18  1  0
 18 19  1  0
 19 20  1  0
 10  2  2  0
 20 15  1  0
  9  5  1  0
M  END
