CVD-0003463|dock_bobby27042020.88|mol2|1|dock2
     RDKit          3D

 29 30  0  0  0  0  0  0  0  0999 V2000
   12.8041    6.2753   24.9810 C   0  0  0  0  0  0  0  0  0  0  0  0
   13.4715    5.5066   23.8787 C   0  0  0  0  0  0  0  0  0  0  0  0
   14.3330    6.0108   23.1650 O   0  0  0  0  0  0  0  0  0  0  0  0
   13.0620    4.2481   23.7088 N   0  0  0  0  0  0  0  0  0  0  0  0
   13.6008    3.3805   22.6712 C   0  0  0  0  0  0  0  0  0  0  0  0
   13.5599    1.9237   23.0874 C   0  0  0  0  0  0  0  0  0  0  0  0
   12.5053    1.1669   22.4002 N   0  0  0  0  0  0  0  0  0  0  0  0
   12.7009   -0.2693   22.6231 C   0  0  0  0  0  0  0  0  0  0  0  0
   11.6357   -1.0836   21.9209 C   0  0  0  0  0  0  0  0  0  0  0  0
   10.2249   -0.6822   22.3240 C   0  0  0  0  0  0  0  0  0  0  0  0
    9.1546   -1.4444   21.5278 C   0  0  0  0  0  0  0  0  0  0  0  0
    9.1802   -1.1415   20.0917 N   0  0  0  0  0  0  0  0  0  0  0  0
    7.8500   -0.5144   19.4533 S   0  0  0  0  0  0  0  0  0  0  0  0
    6.6077   -1.7479   19.4965 C   0  0  0  0  0  0  0  0  0  0  0  0
    8.1396   -0.2238   18.0830 O   0  0  0  0  0  0  0  0  0  0  0  0
    7.4408    0.5578   20.3071 O   0  0  0  0  0  0  0  0  0  0  0  0
   10.0397   -0.9747   23.8318 C   0  0  0  0  0  0  0  0  0  0  0  0
    9.9922   -2.4230   24.2743 C   0  0  0  0  0  0  0  0  0  0  0  0
   10.3724   -3.3283   23.5405 O   0  0  0  0  0  0  0  0  0  0  0  0
    9.4970   -2.5768   25.5274 N   0  0  0  0  0  0  0  0  0  0  0  0
    9.2889   -3.7534   26.3007 C   0  0  0  0  0  0  0  0  0  0  0  0
   10.1660   -4.8381   26.3329 C   0  0  0  0  0  0  0  0  0  0  0  0
    9.9669   -5.9419   27.0599 N   0  0  0  0  0  0  0  0  0  0  0  0
    8.8618   -6.0058   27.7967 C   0  0  0  0  0  0  0  0  0  0  0  0
    7.9285   -4.9945   27.8404 C   0  0  0  0  0  0  0  0  0  0  0  0
    8.1248   -3.8397   27.0889 C   0  0  0  0  0  0  0  0  0  0  0  0
    7.0822   -2.7535   27.1567 C   0  0  0  0  0  0  0  0  0  0  0  0
   10.0767    0.8254   22.1931 C   0  0  0  0  0  0  0  0  0  0  0  0
   11.1903    1.5752   22.9080 C   0  0  0  0  0  0  0  0  0  0  0  0
  1  2  1  0
  2  3  2  0
  2  4  1  0
  4  5  1  0
  5  6  1  0
  6  7  1  0
  7  8  1  0
  8  9  1  0
  9 10  1  0
 10 11  1  0
 11 12  1  0
 12 13  1  0
 13 14  1  0
 13 15  2  0
 13 16  2  0
 10 17  1  0
 17 18  1  0
 18 19  2  0
 18 20  1  0
 20 21  1  0
 21 22  2  0
 22 23  1  0
 23 24  2  0
 24 25  1  0
 25 26  2  0
 26 27  1  0
 10 28  1  0
 28 29  1  0
 29  7  1  0
 26 21  1  0
M  END
