CVD-0000973|dock_bobby27042020.54|mol2|13|dock2
     RDKit          3D

 27 30  0  0  0  0  0  0  0  0999 V2000
   14.5936   -2.1893   25.3814 C   0  0  0  0  0  0  0  0  0  0  0  0
   13.7014   -1.4244   24.5120 N   0  0  0  0  0  0  0  0  0  0  0  0
   12.3975   -1.2549   25.1524 C   0  0  0  0  0  0  0  0  0  0  0  0
   11.5006   -0.3533   24.3226 C   0  0  0  0  0  0  0  0  0  0  0  0
   11.3613   -0.8810   22.9574 N   0  0  0  0  0  0  0  0  0  0  0  0
   12.6342   -1.2248   22.3081 C   0  0  0  0  0  0  0  0  0  0  0  0
   13.4846   -2.0875   23.2251 C   0  0  0  0  0  0  0  0  0  0  0  0
   10.1381   -0.8360   22.2418 C   0  0  0  0  0  0  0  0  0  0  0  0
    9.4612   -2.0312   21.9996 C   0  0  0  0  0  0  0  0  0  0  0  0
    8.3080   -2.0530   21.2374 C   0  0  0  0  0  0  0  0  0  0  0  0
    7.7872   -0.8963   20.6845 C   0  0  0  0  0  0  0  0  0  0  0  0
    8.4211    0.3044   20.9515 C   0  0  0  0  0  0  0  0  0  0  0  0
    9.5529    0.3526   21.7554 C   0  0  0  0  0  0  0  0  0  0  0  0
   10.1317    1.9980   22.0916 S   0  0  0  0  0  0  0  0  0  0  0  0
    9.4994    2.5143   23.4692 N   0  0  0  0  0  0  0  0  0  0  0  0
   11.5429    1.8962   22.3136 O   0  0  0  0  0  0  0  0  0  0  0  0
    9.6876    2.8627   21.0409 O   0  0  0  0  0  0  0  0  0  0  0  0
    6.5410   -0.9411   19.8111 C   0  0  0  0  0  0  0  0  0  0  0  0
    6.8173   -0.6946   18.4027 N   0  0  0  0  0  0  0  0  0  0  0  0
    6.1749    0.3713   17.8881 C   0  0  0  0  0  0  0  0  0  0  0  0
    6.2653    0.7827   16.7363 O   0  0  0  0  0  0  0  0  0  0  0  0
    5.3403    0.9229   18.9780 C   0  0  0  0  0  0  0  0  0  0  0  0
    4.4562    2.0008   18.9965 C   0  0  0  0  0  0  0  0  0  0  0  0
    3.7815    2.3013   20.1707 C   0  0  0  0  0  0  0  0  0  0  0  0
    3.9819    1.5439   21.3074 C   0  0  0  0  0  0  0  0  0  0  0  0
    4.8617    0.4728   21.2862 C   0  0  0  0  0  0  0  0  0  0  0  0
    5.5458    0.1593   20.1144 C   0  0  0  0  0  0  0  0  0  0  0  0
  1  2  1  0
  2  3  1  0
  3  4  1  0
  4  5  1  0
  5  6  1  0
  6  7  1  0
  5  8  1  0
  8  9  2  0
  9 10  1  0
 10 11  2  0
 11 12  1  0
 12 13  2  0
 13 14  1  0
 14 15  1  0
 14 16  2  0
 14 17  2  0
 11 18  1  0
 18 19  1  0
 19 20  1  0
 20 21  2  0
 20 22  1  0
 22 23  2  0
 23 24  1  0
 24 25  2  0
 25 26  1  0
 26 27  2  0
  7  2  1  0
 13  8  1  0
 27 18  1  0
 27 22  1  0
M  END
