CVD-0003799|dock_bobby27042020.44|mol2|15|dock1
     RDKit          3D

 23 25  0  0  0  0  0  0  0  0999 V2000
   13.1163    6.0341   23.3664 N   0  0  0  0  0  0  0  0  0  0  0  0
   13.5622    4.8630   22.3700 S   0  0  0  0  0  0  0  0  0  0  0  0
   13.3883    5.3532   21.0357 O   0  0  0  0  0  0  0  0  0  0  0  0
   14.8626    4.4279   22.7831 O   0  0  0  0  0  0  0  0  0  0  0  0
   12.4581    3.4990   22.5793 C   0  0  0  0  0  0  0  0  0  0  0  0
   11.0917    3.7004   22.5019 C   0  0  0  0  0  0  0  0  0  0  0  0
   10.2317    2.6287   22.6639 C   0  0  0  0  0  0  0  0  0  0  0  0
   10.7166    1.3455   22.8981 C   0  0  0  0  0  0  0  0  0  0  0  0
   12.0950    1.1669   22.9676 C   0  0  0  0  0  0  0  0  0  0  0  0
   12.9636    2.2325   22.8117 C   0  0  0  0  0  0  0  0  0  0  0  0
    9.8495    0.2729   23.0578 N   0  0  0  0  0  0  0  0  0  0  0  0
    8.7323    0.0104   22.1456 C   0  0  0  0  0  0  0  0  0  0  0  0
    8.6493   -1.4386   21.7568 C   0  0  0  0  0  0  0  0  0  0  0  0
    8.5473   -2.3355   22.9955 C   0  0  0  0  0  0  0  0  0  0  0  0
    9.7130   -2.0389   23.9048 C   0  0  0  0  0  0  0  0  0  0  0  0
    9.8180   -0.5742   24.2726 C   0  0  0  0  0  0  0  0  0  0  0  0
    8.4628   -3.7501   22.6323 N   0  0  0  0  0  0  0  0  0  0  0  0
    7.3423   -4.4714   22.6144 C   0  0  0  0  0  0  0  0  0  0  0  0
    7.2768   -5.7767   22.2774 C   0  0  0  0  0  0  0  0  0  0  0  0
    5.9829   -6.2880   22.3422 C   0  0  0  0  0  0  0  0  0  0  0  0
    5.0860   -5.3603   22.7280 C   0  0  0  0  0  0  0  0  0  0  0  0
    3.2436   -5.6044   22.9489 Br  0  0  0  0  0  0  0  0  0  0  0  0
    5.7765   -3.8190   23.0308 S   0  0  0  0  0  0  0  0  0  0  0  0
  1  2  1  0
  2  3  2  0
  2  4  2  0
  2  5  1  0
  5  6  2  0
  6  7  1  0
  7  8  2  0
  8  9  1  0
  9 10  2  0
  8 11  1  0
 11 12  1  0
 12 13  1  0
 13 14  1  0
 14 15  1  0
 15 16  1  0
 14 17  1  0
 17 18  1  0
 18 19  2  0
 19 20  1  0
 20 21  2  0
 21 22  1  0
 21 23  1  0
 10  5  1  0
 16 11  1  0
 23 18  1  0
M  END
