CVD-0003033|dock_bobby27042020.3|mol2|26|dock3
     RDKit          3D

 51 53  0  0  0  0  0  0  0  0999 V2000
    7.4147   -5.3554   27.5842 C   0  0  0  0  0  0  0  0  0  0  0  0
    8.4172   -5.6101   26.4736 C   0  0  0  0  0  0  0  0  0  0  0  0
    9.7794   -5.9230   27.0680 C   0  0  0  0  0  0  0  0  0  0  0  0
    8.5286   -4.4373   25.4997 C   0  0  0  0  0  0  0  0  0  0  0  0
    9.1084   -4.7117   24.1070 C   0  0  0  0  0  0  0  0  0  0  0  0
    8.1725   -5.4827   23.2782 N   0  0  0  0  0  0  0  0  0  0  0  0
    6.7806   -5.1704   23.2905 C   0  0  0  0  0  0  0  0  0  0  0  0
    5.9641   -5.4408   22.0199 C   0  0  0  0  0  0  0  0  0  0  0  0
    4.6863   -5.9868   22.4351 C   0  0  0  0  0  0  0  0  0  0  0  0
    4.7310   -6.1134   23.9691 C   0  0  0  0  0  0  0  0  0  0  0  0
    4.2265   -7.4027   24.5703 C   0  0  0  0  0  0  0  0  0  0  0  0
    4.5701   -7.5329   25.9806 N   0  0  0  0  0  0  0  0  0  0  0  0
    3.6865   -7.9403   26.8919 C   0  0  0  0  0  0  0  0  0  0  0  0
    2.5236   -8.2280   26.6127 O   0  0  0  0  0  0  0  0  0  0  0  0
    4.1785   -8.0333   28.2890 C   0  0  0  0  0  0  0  0  0  0  0  0
    3.4118   -8.0997   29.5119 C   0  0  0  0  0  0  0  0  0  0  0  0
    4.3537   -8.1712   30.4962 C   0  0  0  0  0  0  0  0  0  0  0  0
    5.5613   -8.1588   29.9127 N   0  0  0  0  0  0  0  0  0  0  0  0
    6.8662   -8.1905   30.5618 C   0  0  0  0  0  0  0  0  0  0  0  0
    5.4999   -8.0644   28.5558 N   0  0  0  0  0  0  0  0  0  0  0  0
    6.1101   -5.9306   24.3035 O   0  0  0  0  0  0  0  0  0  0  0  0
    9.4274   -3.4291   23.3396 C   0  0  0  0  0  0  0  0  0  0  0  0
    8.6563   -3.0282   22.4715 O   0  0  0  0  0  0  0  0  0  0  0  0
   10.5716   -2.8083   23.6491 N   0  0  0  0  0  0  0  0  0  0  0  0
   11.0044   -1.5732   23.0082 C   0  0  0  0  0  0  0  0  0  0  0  0
   12.4498   -1.2477   23.4225 C   0  0  0  0  0  0  0  0  0  0  0  0
   13.4627   -2.2214   22.8576 C   0  0  0  0  0  0  0  0  0  0  0  0
   12.7645    0.0743   22.9825 O   0  0  0  0  0  0  0  0  0  0  0  0
   10.0647   -0.4120   23.3254 C   0  0  0  0  0  0  0  0  0  0  0  0
   10.0003    0.0580   24.4569 O   0  0  0  0  0  0  0  0  0  0  0  0
    9.3214    0.0503   22.3156 N   0  0  0  0  0  0  0  0  0  0  0  0
    8.3668    1.1306   22.5030 C   0  0  0  0  0  0  0  0  0  0  0  0
    7.1158    0.8793   21.6450 C   0  0  0  0  0  0  0  0  0  0  0  0
    5.8972    1.6546   22.0844 C   0  0  0  0  0  0  0  0  0  0  0  0
    5.4001    2.6919   21.3106 C   0  0  0  0  0  0  0  0  0  0  0  0
    4.2804    3.4011   21.7119 C   0  0  0  0  0  0  0  0  0  0  0  0
    3.6438    3.0804   22.8916 C   0  0  0  0  0  0  0  0  0  0  0  0
    4.1268    2.0503   23.6695 C   0  0  0  0  0  0  0  0  0  0  0  0
    5.2467    1.3414   23.2679 C   0  0  0  0  0  0  0  0  0  0  0  0
    9.0038    2.4728   22.1495 C   0  0  0  0  0  0  0  0  0  0  0  0
    8.2973    3.3546   21.6688 O   0  0  0  0  0  0  0  0  0  0  0  0
   10.3196    2.5790   22.3913 N   0  0  0  0  0  0  0  0  0  0  0  0
   11.1578    3.7498   22.1446 C   0  0  0  0  0  0  0  0  0  0  0  0
   12.5951    3.5510   22.6481 C   0  0  0  0  0  0  0  0  0  0  0  0
   13.6544    4.4658   22.0402 C   0  0  0  0  0  0  0  0  0  0  0  0
   13.6680    5.8294   22.6853 C   0  0  0  0  0  0  0  0  0  0  0  0
   14.2962    6.7871   22.0217 N   0  0  0  0  0  0  0  0  0  0  0  0
   13.1184    6.0245   23.7733 O   0  0  0  0  0  0  0  0  0  0  0  0
   10.5514    5.0632   22.6309 C   0  0  0  0  0  0  0  0  0  0  0  0
    9.8848    4.9331   23.7508 O   0  0  0  0  0  0  0  0  0  0  0  0
   10.6744    6.1272   22.0654 O   0  0  0  0  0  0  0  0  0  0  0  0
  1  2  1  0
  2  3  1  0
  2  4  1  0
  4  5  1  0
  5  6  1  0
  6  7  1  0
  7  8  1  0
  8  9  1  0
  9 10  1  0
 10 11  1  0
 11 12  1  0
 12 13  1  0
 13 14  2  0
 13 15  1  0
 15 16  1  0
 16 17  2  0
 17 18  1  0
 18 19  1  0
 18 20  1  0
 10 21  1  0
  5 22  1  0
 22 23  2  0
 22 24  1  0
 24 25  1  0
 25 26  1  0
 26 27  1  0
 26 28  1  0
 25 29  1  0
 29 30  2  0
 29 31  1  0
 31 32  1  0
 32 33  1  0
 33 34  1  0
 34 35  2  0
 35 36  1  0
 36 37  2  0
 37 38  1  0
 38 39  2  0
 32 40  1  0
 40 41  2  0
 40 42  1  0
 42 43  1  0
 43 44  1  0
 44 45  1  0
 45 46  1  0
 46 47  1  0
 46 48  2  0
 43 49  1  0
 49 50  1  0
 49 51  2  0
 21  7  1  0
 39 34  1  0
 20 15  2  0
M  END
