CVD-0004015|dock_bobby27042020.14|mol2|39|dock2
     RDKit          3D

 41 43  0  0  0  0  0  0  0  0999 V2000
   13.1841    0.5110   22.2958 C   0  0  0  0  0  0  0  0  0  0  0  0
   12.7160   -0.8632   21.8494 C   0  0  0  0  0  0  0  0  0  0  0  0
   13.7152   -1.9031   22.3286 C   0  0  0  0  0  0  0  0  0  0  0  0
   11.3011   -1.1043   22.3777 C   0  0  0  0  0  0  0  0  0  0  0  0
   10.1909   -0.1399   21.9464 C   0  0  0  0  0  0  0  0  0  0  0  0
   10.1888    1.0071   22.8517 N   0  0  0  0  0  0  0  0  0  0  0  0
    9.3129    2.3324   22.5211 S   0  0  0  0  0  0  0  0  0  0  0  0
    8.4429    2.5277   23.6370 O   0  0  0  0  0  0  0  0  0  0  0  0
    8.7743    2.1419   21.2121 O   0  0  0  0  0  0  0  0  0  0  0  0
   10.2580    3.6354   22.4429 N   0  0  0  0  0  0  0  0  0  0  0  0
   10.9276    4.0899   23.6673 C   0  0  0  0  0  0  0  0  0  0  0  0
   12.0375    5.0691   23.3702 C   0  0  0  0  0  0  0  0  0  0  0  0
   12.1814    6.2264   24.1197 C   0  0  0  0  0  0  0  0  0  0  0  0
   13.2014    7.1233   23.8495 C   0  0  0  0  0  0  0  0  0  0  0  0
   14.0905    6.8728   22.8266 C   0  0  0  0  0  0  0  0  0  0  0  0
   13.9597    5.7252   22.0745 C   0  0  0  0  0  0  0  0  0  0  0  0
   12.9394    4.8287   22.3453 C   0  0  0  0  0  0  0  0  0  0  0  0
    8.8151   -0.8009   21.9601 C   0  0  0  0  0  0  0  0  0  0  0  0
    8.0817   -0.6764   22.9375 O   0  0  0  0  0  0  0  0  0  0  0  0
    8.4800   -1.4971   20.8685 N   0  0  0  0  0  0  0  0  0  0  0  0
    7.2032   -2.1822   20.7375 C   0  0  0  0  0  0  0  0  0  0  0  0
    6.4916   -1.7119   19.4681 C   0  0  0  0  0  0  0  0  0  0  0  0
    6.2040   -0.2057   19.4288 C   0  0  0  0  0  0  0  0  0  0  0  0
    5.1877    0.2845   20.4795 C   0  0  0  0  0  0  0  0  0  0  0  0
    4.3225    1.3115   19.7609 C   0  0  0  0  0  0  0  0  0  0  0  0
    4.5541    1.0132   18.3603 N   0  0  0  0  0  0  0  0  0  0  0  0
    5.6098    0.2327   18.1158 C   0  0  0  0  0  0  0  0  0  0  0  0
    6.0024   -0.1016   17.0012 O   0  0  0  0  0  0  0  0  0  0  0  0
    7.4614   -3.6849   20.6830 C   0  0  0  0  0  0  0  0  0  0  0  0
    8.3908   -4.1177   20.0267 O   0  0  0  0  0  0  0  0  0  0  0  0
    6.4831   -4.5571   21.4878 C   0  0  0  0  0  0  0  0  0  0  0  0
    5.3955   -4.7018   20.9415 O   0  0  0  0  0  0  0  0  0  0  0  0
    6.7457   -5.1283   22.6837 N   0  0  0  0  0  0  0  0  0  0  0  0
    5.8065   -5.9270   23.4691 C   0  0  0  0  0  0  0  0  0  0  0  0
    5.7074   -5.3840   24.8787 C   0  0  0  0  0  0  0  0  0  0  0  0
    7.0364   -5.3028   25.4807 N   0  0  0  0  0  0  0  0  0  0  0  0
    7.9757   -4.5042   24.6952 C   0  0  0  0  0  0  0  0  0  0  0  0
    8.0747   -5.0471   23.2857 C   0  0  0  0  0  0  0  0  0  0  0  0
    7.3010   -5.8783   26.6856 C   0  0  0  0  0  0  0  0  0  0  0  0
    8.6749   -5.7639   27.2802 C   0  0  0  0  0  0  0  0  0  0  0  0
    6.4221   -6.4783   27.2943 O   0  0  0  0  0  0  0  0  0  0  0  0
  1  2  1  0
  2  3  1  0
  2  4  1  0
  5  4  1  0
  5  6  1  0
  6  7  1  0
  7  8  2  0
  7  9  2  0
  7 10  1  0
 10 11  1  0
 11 12  1  0
 12 13  2  0
 13 14  1  0
 14 15  2  0
 15 16  1  0
 16 17  2  0
  5 18  1  0
 18 19  2  0
 18 20  1  0
 20 21  1  0
 21 22  1  0
 23 22  1  0
 23 24  1  0
 24 25  1  0
 25 26  1  0
 26 27  1  0
 27 28  2  0
 21 29  1  0
 29 30  2  0
 29 31  1  0
 31 32  2  0
 31 33  1  0
 33 34  1  0
 34 35  1  0
 35 36  1  0
 36 37  1  0
 37 38  1  0
 36 39  1  0
 39 40  1  0
 39 41  2  0
 17 12  1  0
 27 23  1  0
 38 33  1  0
M  END
