CVD-0001574|dock_bobby27042020.52|mol2|15|dock1
     RDKit          3D

 18 19  0  0  0  0  0  0  0  0999 V2000
    6.2127   -5.3715   20.9785 C   0  0  0  0  0  0  0  0  0  0  0  0
    5.5227   -4.2572   20.4167 O   0  0  0  0  0  0  0  0  0  0  0  0
    6.1559   -3.0448   20.3823 C   0  0  0  0  0  0  0  0  0  0  0  0
    7.1353   -2.6304   21.2722 C   0  0  0  0  0  0  0  0  0  0  0  0
    7.7011   -1.3645   21.1236 C   0  0  0  0  0  0  0  0  0  0  0  0
    8.7078   -0.6409   21.8463 C   0  0  0  0  0  0  0  0  0  0  0  0
    9.4609   -1.1267   23.0499 C   0  0  0  0  0  0  0  0  0  0  0  0
   10.3464   -2.3203   22.7526 C   0  0  0  0  0  0  0  0  0  0  0  0
   11.5602   -1.9338   22.0477 N   0  0  0  0  0  0  0  0  0  0  0  0
   12.6975   -1.6404   22.6809 C   0  0  0  0  0  0  0  0  0  0  0  0
   13.8538   -1.2419   21.8116 C   0  0  0  0  0  0  0  0  0  0  0  0
   12.7880   -1.6794   23.9040 O   0  0  0  0  0  0  0  0  0  0  0  0
    8.8353    0.5629   21.2197 C   0  0  0  0  0  0  0  0  0  0  0  0
    7.9771    0.6373   20.1573 N   0  0  0  0  0  0  0  0  0  0  0  0
    7.2649   -0.5344   20.0722 C   0  0  0  0  0  0  0  0  0  0  0  0
    6.2835   -0.9506   19.1810 C   0  0  0  0  0  0  0  0  0  0  0  0
    5.7309   -2.2105   19.3413 C   0  0  0  0  0  0  0  0  0  0  0  0
    4.7708   -2.6261   18.4750 O   0  0  0  0  0  0  0  0  0  0  0  0
  1  2  1  0
  2  3  1  0
  3  4  2  0
  4  5  1  0
  5  6  1  0
  6  7  1  0
  7  8  1  0
  8  9  1  0
  9 10  1  0
 10 11  1  0
 10 12  2  0
  6 13  2  0
 13 14  1  0
 14 15  1  0
 15 16  1  0
 16 17  2  0
 17 18  1  0
 17  3  1  0
 15  5  2  0
M  END
