CVD-0001541|dock_bobby27042020.23|mol2|32|dock2
     RDKit          3D

 11 11  0  0  0  0  0  0  0  0999 V2000
   11.9166   -1.7524   20.9991 N   0  0  0  0  0  0  0  0  0  0  0  0
   11.4335   -0.8893   21.8823 C   0  0  0  0  0  0  0  0  0  0  0  0
   10.4438   -0.1838   21.6560 O   0  0  0  0  0  0  0  0  0  0  0  0
   12.1734   -0.8169   23.2005 C   0  0  0  0  0  0  0  0  0  0  0  0
   12.8453   -1.9305   23.5405 N   0  0  0  0  0  0  0  0  0  0  0  0
   13.5133   -1.9263   24.6860 C   0  0  0  0  0  0  0  0  0  0  0  0
   14.3655   -3.3895   25.0802 Cl  0  0  0  0  0  0  0  0  0  0  0  0
   13.5519   -0.8446   25.5381 C   0  0  0  0  0  0  0  0  0  0  0  0
   12.8871    0.2647   25.2070 N   0  0  0  0  0  0  0  0  0  0  0  0
   12.1774    0.3242   24.0364 C   0  0  0  0  0  0  0  0  0  0  0  0
   11.5555    1.4205   23.7694 O   0  0  0  0  0  0  0  0  0  0  0  0
  1  2  1  0
  2  3  2  0
  2  4  1  0
  4  5  2  0
  5  6  1  0
  6  7  1  0
  6  8  2  0
  8  9  1  0
  9 10  2  0
 10 11  1  0
 10  4  1  0
M  END
