CVD-0001499|dock_bobby27042020.23|mol2|39|dock2
     RDKit          3D

 23 24  0  0  0  0  0  0  0  0999 V2000
    0.6644    1.4833   20.7300 O   0  0  0  0  0  0  0  0  0  0  0  0
    1.2720    2.4282   21.4059 C   0  0  0  0  0  0  0  0  0  0  0  0
    0.7953    2.9543   22.3875 O   0  0  0  0  0  0  0  0  0  0  0  0
    2.6145    2.7893   20.8395 C   0  0  0  0  0  0  0  0  0  0  0  0
    3.5365    1.6039   20.5917 C   0  0  0  0  0  0  0  0  0  0  0  0
    4.8499    1.9871   19.9221 C   0  0  0  0  0  0  0  0  0  0  0  0
    5.6227    0.8080   19.3825 C   0  0  0  0  0  0  0  0  0  0  0  0
    5.1401    0.0220   18.3543 C   0  0  0  0  0  0  0  0  0  0  0  0
    5.7923   -1.0266   17.8464 N   0  0  0  0  0  0  0  0  0  0  0  0
    6.9853   -1.3336   18.3642 C   0  0  0  0  0  0  0  0  0  0  0  0
    7.5764   -0.6153   19.4015 C   0  0  0  0  0  0  0  0  0  0  0  0
    8.8402   -0.9178   19.9694 N   0  0  0  0  0  0  0  0  0  0  0  0
    9.3476   -0.6604   21.2226 C   0  0  0  0  0  0  0  0  0  0  0  0
    8.7325   -0.0820   22.1121 O   0  0  0  0  0  0  0  0  0  0  0  0
   10.6336   -1.1355   21.3476 N   0  0  0  0  0  0  0  0  0  0  0  0
   11.5359   -1.0970   22.4412 C   0  0  0  0  0  0  0  0  0  0  0  0
   11.4090   -0.2218   23.5180 C   0  0  0  0  0  0  0  0  0  0  0  0
   12.3339   -0.2468   24.5491 C   0  0  0  0  0  0  0  0  0  0  0  0
   13.3934   -1.1368   24.5267 C   0  0  0  0  0  0  0  0  0  0  0  0
   13.5246   -2.0088   23.4595 C   0  0  0  0  0  0  0  0  0  0  0  0
   14.5646   -2.8913   23.4252 O   0  0  0  0  0  0  0  0  0  0  0  0
   12.6027   -1.9898   22.4236 C   0  0  0  0  0  0  0  0  0  0  0  0
    6.8644    0.4690   19.9018 C   0  0  0  0  0  0  0  0  0  0  0  0
  1  2  1  0
  2  3  2  0
  2  4  1  0
  4  5  1  0
  5  6  1  0
  6  7  1  0
  7  8  2  0
  8  9  1  0
  9 10  2  0
 10 11  1  0
 11 12  1  0
 12 13  1  0
 13 14  2  0
 13 15  1  0
 15 16  1  0
 16 17  2  0
 17 18  1  0
 18 19  2  0
 19 20  1  0
 20 21  1  0
 20 22  2  0
 11 23  2  0
 23  7  1  0
 22 16  1  0
M  END
