CVD-0003103|dock_bobby27042020.75|mol2|1|dock3
     RDKit          3D

 24 25  0  0  0  0  0  0  0  0999 V2000
    6.9637   -0.7079   18.7062 C   0  0  0  0  0  0  0  0  0  0  0  0
    6.3326    0.4161   19.4872 C   0  0  0  0  0  0  0  0  0  0  0  0
    5.1003    0.9066   19.0656 C   0  0  0  0  0  0  0  0  0  0  0  0
    4.5007    1.9351   19.7571 C   0  0  0  0  0  0  0  0  0  0  0  0
    5.0439    2.5015   20.8308 N   0  0  0  0  0  0  0  0  0  0  0  0
    6.2279    2.0395   21.2450 C   0  0  0  0  0  0  0  0  0  0  0  0
    6.9249    1.0040   20.6218 C   0  0  0  0  0  0  0  0  0  0  0  0
    8.1860    0.5108   21.0598 N   0  0  0  0  0  0  0  0  0  0  0  0
    8.9255    0.8347   22.1492 C   0  0  0  0  0  0  0  0  0  0  0  0
    8.6243    1.6587   23.0063 O   0  0  0  0  0  0  0  0  0  0  0  0
   10.2265    0.0671   22.2352 C   0  0  0  0  0  0  0  0  0  0  0  0
   11.2217    0.6879   23.2254 C   0  0  0  0  0  0  0  0  0  0  0  0
   11.9403    1.8698   22.5623 C   0  0  0  0  0  0  0  0  0  0  0  0
   12.4801    2.7909   23.5679 N   0  0  0  0  0  0  0  0  0  0  0  0
   12.4466    4.3718   23.3029 S   0  0  0  0  0  0  0  0  0  0  0  0
   13.4145    4.6921   21.8791 C   0  0  0  0  0  0  0  0  0  0  0  0
   11.0911    4.7181   23.0053 O   0  0  0  0  0  0  0  0  0  0  0  0
   13.0816    4.9976   24.4213 O   0  0  0  0  0  0  0  0  0  0  0  0
   12.2419   -0.3300   23.6980 C   0  0  0  0  0  0  0  0  0  0  0  0
   12.8163   -1.2261   22.8072 C   0  0  0  0  0  0  0  0  0  0  0  0
   13.7469   -2.1562   23.2395 C   0  0  0  0  0  0  0  0  0  0  0  0
   14.1144   -2.2025   24.5672 C   0  0  0  0  0  0  0  0  0  0  0  0
   13.5518   -1.3191   25.4632 C   0  0  0  0  0  0  0  0  0  0  0  0
   12.6212   -0.3886   25.0319 C   0  0  0  0  0  0  0  0  0  0  0  0
  1  2  1  0
  2  3  2  0
  3  4  1  0
  4  5  2  0
  5  6  1  0
  6  7  2  0
  7  8  1  0
  8  9  1  0
  9 10  2  0
  9 11  1  0
 11 12  1  0
 12 13  1  0
 13 14  1  0
 14 15  1  0
 15 16  1  0
 15 17  2  0
 15 18  2  0
 12 19  1  0
 19 20  2  0
 20 21  1  0
 21 22  2  0
 22 23  1  0
 23 24  2  0
  7  2  1  0
 24 19  1  0
M  END
