CVD-0002387|dock_bobby27042020.63|mol2|28|dock1
     RDKit          3D

 26 29  0  0  0  0  0  0  0  0999 V2000
   11.3809   -3.6995   24.3167 F   0  0  0  0  0  0  0  0  0  0  0  0
   10.7422   -2.9080   23.4248 C   0  0  0  0  0  0  0  0  0  0  0  0
    9.4891   -3.2670   22.9976 C   0  0  0  0  0  0  0  0  0  0  0  0
    8.8302   -2.4662   22.0648 C   0  0  0  0  0  0  0  0  0  0  0  0
    7.5530   -2.7925   21.5437 N   0  0  0  0  0  0  0  0  0  0  0  0
    6.9021   -4.0294   21.9127 C   0  0  0  0  0  0  0  0  0  0  0  0
    5.6798   -4.0123   22.5745 C   0  0  0  0  0  0  0  0  0  0  0  0
    5.0613   -5.1999   22.9283 C   0  0  0  0  0  0  0  0  0  0  0  0
    5.6515   -6.4084   22.6285 C   0  0  0  0  0  0  0  0  0  0  0  0
    6.8637   -6.4346   21.9737 C   0  0  0  0  0  0  0  0  0  0  0  0
    7.4909   -5.2531   21.6152 C   0  0  0  0  0  0  0  0  0  0  0  0
    6.8659   -1.9703   20.6455 C   0  0  0  0  0  0  0  0  0  0  0  0
    5.7751   -2.3060   20.2104 O   0  0  0  0  0  0  0  0  0  0  0  0
    7.4888   -0.7746   20.2544 N   0  0  0  0  0  0  0  0  0  0  0  0
    6.7805    0.0941   19.3312 C   0  0  0  0  0  0  0  0  0  0  0  0
    5.5210    0.5977   19.6319 C   0  0  0  0  0  0  0  0  0  0  0  0
    4.8795    1.4245   18.7267 C   0  0  0  0  0  0  0  0  0  0  0  0
    5.5162    1.7254   17.5455 C   0  0  0  0  0  0  0  0  0  0  0  0
    6.7232    1.2567   17.2294 N   0  0  0  0  0  0  0  0  0  0  0  0
    7.3310    0.4563   18.1107 C   0  0  0  0  0  0  0  0  0  0  0  0
    8.7641   -0.3650   20.6918 C   0  0  0  0  0  0  0  0  0  0  0  0
    9.2823    0.6818   20.3419 O   0  0  0  0  0  0  0  0  0  0  0  0
    9.4355   -1.2814   21.6202 C   0  0  0  0  0  0  0  0  0  0  0  0
   10.7112   -0.9471   22.0716 C   0  0  0  0  0  0  0  0  0  0  0  0
   11.3657   -1.7640   22.9702 C   0  0  0  0  0  0  0  0  0  0  0  0
   12.9560   -1.3427   23.5156 Cl  0  0  0  0  0  0  0  0  0  0  0  0
  1  2  1  0
  2  3  2  0
  3  4  1  0
  4  5  1  0
  5  6  1  0
  6  7  2  0
  7  8  1  0
  8  9  2  0
  9 10  1  0
 10 11  2  0
  5 12  1  0
 12 13  2  0
 12 14  1  0
 14 15  1  0
 15 16  2  0
 16 17  1  0
 17 18  2  0
 18 19  1  0
 19 20  2  0
 14 21  1  0
 21 22  2  0
 21 23  1  0
 23 24  1  0
 24 25  2  0
 25 26  1  0
 25  2  1  0
 23  4  2  0
 11  6  1  0
 20 15  1  0
M  END
