CVD-0001148|dock_bobby27042020.53|mol2|34|dock3
     RDKit          3D

 26 28  0  0  0  0  0  0  0  0999 V2000
   14.0248    5.8433   21.9838 Cl  0  0  0  0  0  0  0  0  0  0  0  0
   13.0390    5.6608   23.4405 C   0  0  0  0  0  0  0  0  0  0  0  0
   11.7502    4.9210   23.1401 C   0  0  0  0  0  0  0  0  0  0  0  0
   10.6564    5.4464   23.3053 O   0  0  0  0  0  0  0  0  0  0  0  0
   11.8731    3.6600   22.6784 N   0  0  0  0  0  0  0  0  0  0  0  0
   13.1290    2.9363   22.4580 C   0  0  0  0  0  0  0  0  0  0  0  0
   13.0486    1.5449   23.0302 C   0  0  0  0  0  0  0  0  0  0  0  0
   11.9120    0.8071   22.4550 N   0  0  0  0  0  0  0  0  0  0  0  0
   10.6895    1.5416   22.7845 C   0  0  0  0  0  0  0  0  0  0  0  0
   10.7100    2.9264   22.1829 C   0  0  0  0  0  0  0  0  0  0  0  0
   11.8543   -0.5633   22.9706 C   0  0  0  0  0  0  0  0  0  0  0  0
   11.3000   -0.5453   24.3154 O   0  0  0  0  0  0  0  0  0  0  0  0
   10.2539   -1.3997   24.3704 C   0  0  0  0  0  0  0  0  0  0  0  0
    9.6388   -1.5872   25.3946 O   0  0  0  0  0  0  0  0  0  0  0  0
   10.0492   -2.0149   23.0513 C   0  0  0  0  0  0  0  0  0  0  0  0
    8.9713   -2.9654   22.8052 C   0  0  0  0  0  0  0  0  0  0  0  0
    7.9585   -3.2728   23.6112 C   0  0  0  0  0  0  0  0  0  0  0  0
    6.8805   -4.2332   23.3477 C   0  0  0  0  0  0  0  0  0  0  0  0
    6.5734   -4.6398   22.0516 C   0  0  0  0  0  0  0  0  0  0  0  0
    5.5574   -5.5451   21.8015 C   0  0  0  0  0  0  0  0  0  0  0  0
    4.8150   -6.0721   22.8527 C   0  0  0  0  0  0  0  0  0  0  0  0
    5.1099   -5.6755   24.1527 C   0  0  0  0  0  0  0  0  0  0  0  0
    6.1283   -4.7696   24.3895 C   0  0  0  0  0  0  0  0  0  0  0  0
    3.7548   -7.0161   22.5986 C   0  0  0  0  0  0  0  0  0  0  0  0
    2.8935   -7.7426   22.4115 N   0  0  0  0  0  0  0  0  0  0  0  0
   10.9873   -1.5349   22.2468 C   0  0  0  0  0  0  0  0  0  0  0  0
  1  2  1  0
  2  3  1  0
  3  4  2  0
  3  5  1  0
  5  6  1  0
  6  7  1  0
  7  8  1  0
  8  9  1  0
  9 10  1  0
  8 11  1  0
 11 12  1  0
 12 13  1  0
 13 14  2  0
 13 15  1  0
 15 16  1  0
 16 17  2  0
 17 18  1  0
 18 19  2  0
 19 20  1  0
 20 21  2  0
 21 22  1  0
 22 23  2  0
 21 24  1  0
 24 25  3  0
 15 26  2  0
 10  5  1  0
 26 11  1  0
 23 18  1  0
M  END
