CVD-0002564|dock_bobby27042020.19|mol2|23|dock2
     RDKit          3D

 34 38  0  0  0  0  0  0  0  0999 V2000
   12.2455    3.1305   22.3986 O   0  0  0  0  0  0  0  0  0  0  0  0
   11.1249    2.7439   22.7189 C   0  0  0  0  0  0  0  0  0  0  0  0
   10.0493    3.5853   22.8280 N   0  0  0  0  0  0  0  0  0  0  0  0
    9.2283    4.7389   22.8274 C   0  0  0  0  0  0  0  0  0  0  0  0
    9.6768    5.9749   23.2928 C   0  0  0  0  0  0  0  0  0  0  0  0
    8.8292    7.0704   23.2683 C   0  0  0  0  0  0  0  0  0  0  0  0
    7.5433    6.9518   22.7877 C   0  0  0  0  0  0  0  0  0  0  0  0
    7.0941    5.7340   22.3267 C   0  0  0  0  0  0  0  0  0  0  0  0
    7.9294    4.6300   22.3447 C   0  0  0  0  0  0  0  0  0  0  0  0
   10.7735    1.4477   23.0067 N   0  0  0  0  0  0  0  0  0  0  0  0
   11.5853    0.2848   22.9937 C   0  0  0  0  0  0  0  0  0  0  0  0
   12.9561    0.3165   23.2488 C   0  0  0  0  0  0  0  0  0  0  0  0
   13.6532   -0.8747   23.3407 C   0  0  0  0  0  0  0  0  0  0  0  0
   12.9652   -2.0569   23.2131 C   0  0  0  0  0  0  0  0  0  0  0  0
   11.6548   -2.1329   22.9544 N   0  0  0  0  0  0  0  0  0  0  0  0
   11.0082   -0.9792   22.7351 C   0  0  0  0  0  0  0  0  0  0  0  0
    9.7354   -1.1293   22.2188 N   0  0  0  0  0  0  0  0  0  0  0  0
    9.4219   -0.5712   20.8951 C   0  0  0  0  0  0  0  0  0  0  0  0
    7.9175   -0.3848   20.7340 C   0  0  0  0  0  0  0  0  0  0  0  0
    7.1800   -1.5995   21.0454 N   0  0  0  0  0  0  0  0  0  0  0  0
    7.5449   -2.1765   22.3478 C   0  0  0  0  0  0  0  0  0  0  0  0
    9.0292   -2.4222   22.4068 C   0  0  0  0  0  0  0  0  0  0  0  0
    6.2082   -2.1978   20.3274 C   0  0  0  0  0  0  0  0  0  0  0  0
    5.6646   -3.2293   20.7020 O   0  0  0  0  0  0  0  0  0  0  0  0
    5.8136   -1.5459   19.0143 C   0  0  0  0  0  0  0  0  0  0  0  0
    5.3621   -0.1238   19.1613 C   0  0  0  0  0  0  0  0  0  0  0  0
    5.3360    0.8373   18.1937 C   0  0  0  0  0  0  0  0  0  0  0  0
    4.8608    2.0178   18.7003 N   0  0  0  0  0  0  0  0  0  0  0  0
    4.5680    1.8375   20.0202 C   0  0  0  0  0  0  0  0  0  0  0  0
    4.0790    2.7486   20.8784 N   0  0  0  0  0  0  0  0  0  0  0  0
    3.8726    2.3289   22.1343 C   0  0  0  0  0  0  0  0  0  0  0  0
    4.1316    1.0463   22.5682 C   0  0  0  0  0  0  0  0  0  0  0  0
    4.6357    0.1192   21.6697 C   0  0  0  0  0  0  0  0  0  0  0  0
    4.8682    0.5055   20.3513 C   0  0  0  0  0  0  0  0  0  0  0  0
  1  2  2  0
  2  3  1  0
  3  4  1  0
  4  5  2  0
  5  6  1  0
  6  7  2  0
  7  8  1  0
  8  9  2  0
  2 10  1  0
 10 11  1  0
 11 12  2  0
 12 13  1  0
 13 14  2  0
 14 15  1  0
 15 16  2  0
 16 17  1  0
 17 18  1  0
 18 19  1  0
 19 20  1  0
 20 21  1  0
 21 22  1  0
 20 23  1  0
 23 24  2  0
 23 25  1  0
 25 26  1  0
 26 27  2  0
 27 28  1  0
 28 29  1  0
 29 30  2  0
 30 31  1  0
 31 32  2  0
 32 33  1  0
 33 34  2  0
  9  4  1  0
 16 11  1  0
 22 17  1  0
 34 26  1  0
 34 29  1  0
M  END
