CVD-0000902|dock_bobby27042020.68|mol2|43|dock3
     RDKit          3D

 23 23  0  0  0  0  0  0  0  0999 V2000
    7.0427    5.6568   21.9515 C   0  0  0  0  0  0  0  0  0  0  0  0
    8.3725    5.3672   22.6310 C   0  0  0  0  0  0  0  0  0  0  0  0
    8.5202    3.9255   23.0500 C   0  0  0  0  0  0  0  0  0  0  0  0
    8.4529    3.5821   24.2261 O   0  0  0  0  0  0  0  0  0  0  0  0
    8.7276    3.0570   22.0575 N   0  0  0  0  0  0  0  0  0  0  0  0
    8.8921    1.6215   22.2663 C   0  0  0  0  0  0  0  0  0  0  0  0
    7.9905    0.8349   21.3087 C   0  0  0  0  0  0  0  0  0  0  0  0
    6.6026    0.5737   21.8538 C   0  0  0  0  0  0  0  0  0  0  0  0
    5.8146    1.6298   21.9799 N   0  0  0  0  0  0  0  0  0  0  0  0
    6.2403   -0.5668   22.1571 O   0  0  0  0  0  0  0  0  0  0  0  0
   10.3650    1.2229   22.1528 C   0  0  0  0  0  0  0  0  0  0  0  0
   11.1964    2.5336   22.2015 C   0  0  0  0  0  0  0  0  0  0  0  0
   12.6341    2.2641   22.2776 N   0  0  0  0  0  0  0  0  0  0  0  0
   13.0701    1.2467   23.2128 C   0  0  0  0  0  0  0  0  0  0  0  0
   12.2059   -0.0170   23.1503 C   0  0  0  0  0  0  0  0  0  0  0  0
   10.7862    0.2606   23.1590 N   0  0  0  0  0  0  0  0  0  0  0  0
    9.9672   -0.9508   23.2786 C   0  0  0  0  0  0  0  0  0  0  0  0
   10.3358   -1.9721   22.2312 C   0  0  0  0  0  0  0  0  0  0  0  0
   10.1388   -1.5662   24.5276 O   0  0  0  0  0  0  0  0  0  0  0  0
   13.4914    3.4390   22.4620 C   0  0  0  0  0  0  0  0  0  0  0  0
   13.3259    4.0006   23.7408 O   0  0  0  0  0  0  0  0  0  0  0  0
   13.1961    4.5064   21.4320 C   0  0  0  0  0  0  0  0  0  0  0  0
   14.5034    5.7230   21.3791 Cl  0  0  0  0  0  0  0  0  0  0  0  0
  1  2  1  0
  2  3  1  0
  3  4  2  0
  3  5  1  0
  5  6  1  0
  6  7  1  0
  7  8  1  0
  8  9  1  0
  8 10  2  0
  6 11  1  0
 11 12  1  0
 12 13  1  0
 13 14  1  0
 14 15  1  0
 15 16  1  0
 16 17  1  0
 17 18  1  0
 17 19  1  0
 13 20  1  0
 20 21  1  0
 20 22  1  0
 22 23  1  0
 16 11  1  0
M  END
