CVD-0000356|dock_bobby27042020.98|mol2|43|dock3
     RDKit          3D

 28 30  0  0  0  0  0  0  0  0999 V2000
   10.5657   -2.2866   23.6242 C   0  0  0  0  0  0  0  0  0  0  0  0
   10.0136   -2.0732   22.2214 C   0  0  0  0  0  0  0  0  0  0  0  0
    8.6373   -1.4147   22.2189 C   0  0  0  0  0  0  0  0  0  0  0  0
    7.9288   -1.5249   20.8866 C   0  0  0  0  0  0  0  0  0  0  0  0
    8.1611   -0.5064   19.9677 C   0  0  0  0  0  0  0  0  0  0  0  0
    7.5596   -0.5526   18.7366 C   0  0  0  0  0  0  0  0  0  0  0  0
    7.8003    0.4567   17.8569 F   0  0  0  0  0  0  0  0  0  0  0  0
    6.7314   -1.5710   18.3620 C   0  0  0  0  0  0  0  0  0  0  0  0
    6.4950   -2.5839   19.2729 C   0  0  0  0  0  0  0  0  0  0  0  0
    7.0703   -2.5814   20.5479 C   0  0  0  0  0  0  0  0  0  0  0  0
    6.7601   -3.6992   21.5254 C   0  0  0  0  0  0  0  0  0  0  0  0
    5.5796   -3.4109   22.4120 C   0  0  0  0  0  0  0  0  0  0  0  0
    5.3162   -4.5674   23.2668 N   0  0  0  0  0  0  0  0  0  0  0  0
    5.2002   -5.8201   22.5231 C   0  0  0  0  0  0  0  0  0  0  0  0
    6.3894   -5.9952   21.6262 C   0  0  0  0  0  0  0  0  0  0  0  0
    6.5674   -4.8832   20.7650 O   0  0  0  0  0  0  0  0  0  0  0  0
    5.1767   -4.4812   24.6174 C   0  0  0  0  0  0  0  0  0  0  0  0
    5.2816   -3.1445   25.2925 C   0  0  0  0  0  0  0  0  0  0  0  0
    4.9533   -5.4868   25.2823 O   0  0  0  0  0  0  0  0  0  0  0  0
   10.9761   -1.3387   21.3799 N   0  0  0  0  0  0  0  0  0  0  0  0
   11.7738   -0.2947   21.7575 C   0  0  0  0  0  0  0  0  0  0  0  0
   13.0311   -0.4654   22.3407 C   0  0  0  0  0  0  0  0  0  0  0  0
   13.7595    0.6597   22.6833 C   0  0  0  0  0  0  0  0  0  0  0  0
   13.2352    1.9245   22.4465 C   0  0  0  0  0  0  0  0  0  0  0  0
   11.9747    1.9949   21.8634 C   0  0  0  0  0  0  0  0  0  0  0  0
   11.2580    0.9173   21.5261 N   0  0  0  0  0  0  0  0  0  0  0  0
   13.9690    3.1170   22.7918 C   0  0  0  0  0  0  0  0  0  0  0  0
   14.5237    4.0725   23.0821 N   0  0  0  0  0  0  0  0  0  0  0  0
  2  1  1  0
  2  3  1  0
  3  4  1  0
  4  5  2  0
  5  6  1  0
  6  7  1  0
  6  8  2  0
  8  9  1  0
  9 10  2  0
 11 10  1  0
 11 12  1  0
 12 13  1  0
 13 14  1  0
 14 15  1  0
 15 16  1  0
 13 17  1  0
 17 18  1  0
 17 19  2  0
  2 20  1  0
 20 21  1  0
 21 22  2  0
 22 23  1  0
 23 24  2  0
 24 25  1  0
 25 26  2  0
 24 27  1  0
 27 28  3  0
 10  4  1  0
 16 11  1  0
 26 21  1  0
M  END
