CVD-0004036|dock_bobby27042020.0|mol2|7|dock2
     RDKit          3D

 26 30  0  0  0  0  0  0  0  0999 V2000
    4.9190   -0.0216   19.8953 C   0  0  0  0  0  0  0  0  0  0  0  0
    6.3006    0.1699   20.4572 C   0  0  0  0  0  0  0  0  0  0  0  0
    7.1226   -0.9545   20.7227 C   0  0  0  0  0  0  0  0  0  0  0  0
    8.3676   -0.8176   21.2152 C   0  0  0  0  0  0  0  0  0  0  0  0
    8.8757    0.4444   21.4721 N   0  0  0  0  0  0  0  0  0  0  0  0
   10.1033    0.8799   21.9806 C   0  0  0  0  0  0  0  0  0  0  0  0
   10.0040    2.2625   22.0080 C   0  0  0  0  0  0  0  0  0  0  0  0
    8.7652    2.6743   21.5560 N   0  0  0  0  0  0  0  0  0  0  0  0
    8.1034    1.5718   21.2323 C   0  0  0  0  0  0  0  0  0  0  0  0
    6.8003    1.4123   20.7122 C   0  0  0  0  0  0  0  0  0  0  0  0
   10.9426    3.3337   22.4077 C   0  0  0  0  0  0  0  0  0  0  0  0
   10.4305    4.5431   22.8660 C   0  0  0  0  0  0  0  0  0  0  0  0
   11.2654    5.5672   23.2756 C   0  0  0  0  0  0  0  0  0  0  0  0
   12.6167    5.3661   23.2171 C   0  0  0  0  0  0  0  0  0  0  0  0
   13.4437    6.3629   23.6331 F   0  0  0  0  0  0  0  0  0  0  0  0
   13.1704    4.2038   22.7557 C   0  0  0  0  0  0  0  0  0  0  0  0
   12.3253    3.1924   22.3345 C   0  0  0  0  0  0  0  0  0  0  0  0
   11.1891   -0.0513   22.3788 C   0  0  0  0  0  0  0  0  0  0  0  0
   11.5450   -1.1147   21.5524 C   0  0  0  0  0  0  0  0  0  0  0  0
   12.5587   -1.9945   21.8933 C   0  0  0  0  0  0  0  0  0  0  0  0
   13.2425   -1.8150   23.0907 C   0  0  0  0  0  0  0  0  0  0  0  0
   14.2595   -2.4904   23.6891 N   0  0  0  0  0  0  0  0  0  0  0  0
   14.6031   -1.9279   24.8841 N   0  0  0  0  0  0  0  0  0  0  0  0
   13.8021   -0.8927   25.0450 C   0  0  0  0  0  0  0  0  0  0  0  0
   12.9117   -0.7563   23.9499 C   0  0  0  0  0  0  0  0  0  0  0  0
   11.8794    0.1146   23.5761 C   0  0  0  0  0  0  0  0  0  0  0  0
  1  2  1  0
  2  3  1  0
  3  4  2  0
  4  5  1  0
  5  6  1  0
  6  7  2  0
  7  8  1  0
  8  9  2  0
  9 10  1  0
  7 11  1  0
 11 12  2  0
 12 13  1  0
 13 14  2  0
 14 15  1  0
 14 16  1  0
 16 17  2  0
  6 18  1  0
 18 19  2  0
 19 20  1  0
 20 21  2  0
 21 22  1  0
 22 23  1  0
 23 24  2  0
 24 25  1  0
 25 26  2  0
 10  2  2  0
 17 11  1  0
 26 18  1  0
  9  5  1  0
 25 21  1  0
M  END
