CVD-0001540|dock_bobby27042020.37|mol2|47|dock3
     RDKit          3D

 21 24  0  0  0  0  0  0  0  0999 V2000
   12.2475   -0.6023   22.8096 C   0  0  0  0  0  0  0  0  0  0  0  0
   10.7464   -0.8925   22.8908 C   0  0  0  0  0  0  0  0  0  0  0  0
    9.7731   -0.1437   21.9838 C   0  0  0  0  0  0  0  0  0  0  0  0
    9.3354   -1.4291   21.3914 N   0  0  0  0  0  0  0  0  0  0  0  0
    7.8929   -1.7124   21.3977 C   0  0  0  0  0  0  0  0  0  0  0  0
    7.0996   -0.7406   20.5576 C   0  0  0  0  0  0  0  0  0  0  0  0
    7.5083   -0.3935   19.2814 C   0  0  0  0  0  0  0  0  0  0  0  0
    6.8924    0.4361   18.4704 N   0  0  0  0  0  0  0  0  0  0  0  0
    5.7362    1.0143   18.9238 C   0  0  0  0  0  0  0  0  0  0  0  0
    5.0358    1.9149   18.0881 C   0  0  0  0  0  0  0  0  0  0  0  0
    3.8828    2.4994   18.5235 C   0  0  0  0  0  0  0  0  0  0  0  0
    3.3789    2.2265   19.7792 C   0  0  0  0  0  0  0  0  0  0  0  0
    4.0216    1.3646   20.6178 C   0  0  0  0  0  0  0  0  0  0  0  0
    5.2208    0.7342   20.2105 C   0  0  0  0  0  0  0  0  0  0  0  0
    5.9444   -0.1691   21.0197 C   0  0  0  0  0  0  0  0  0  0  0  0
   10.2609   -2.1906   22.2624 C   0  0  0  0  0  0  0  0  0  0  0  0
   13.0278   -0.9770   24.0405 C   0  0  0  0  0  0  0  0  0  0  0  0
   13.8697   -2.1016   24.2180 C   0  0  0  0  0  0  0  0  0  0  0  0
   14.3522   -2.0479   25.4613 C   0  0  0  0  0  0  0  0  0  0  0  0
   13.8708   -0.9500   26.1081 O   0  0  0  0  0  0  0  0  0  0  0  0
   13.0611   -0.3180   25.2103 C   0  0  0  0  0  0  0  0  0  0  0  0
  1  2  1  0
  2  3  1  0
  3  4  1  0
  4  5  1  0
  5  6  1  0
  6  7  2  0
  7  8  1  0
  8  9  2  0
  9 10  1  0
 10 11  2  0
 11 12  1  0
 12 13  2  0
 13 14  1  0
 14 15  2  0
  4 16  1  0
  1 17  1  0
 17 18  1  0
 18 19  2  0
 19 20  1  0
 20 21  1  0
 16  2  1  0
 21 17  2  0
 15  6  1  0
 14  9  1  0
M  END
