CVD-0001447|dock_bobby27042020.9|mol2|38|dock3
     RDKit          3D

 23 25  0  0  0  0  0  0  0  0999 V2000
    6.3277   -1.0623   18.0864 C   0  0  0  0  0  0  0  0  0  0  0  0
    6.0829   -1.9194   19.2933 C   0  0  0  0  0  0  0  0  0  0  0  0
    5.2953   -2.8582   19.2597 O   0  0  0  0  0  0  0  0  0  0  0  0
    6.7525   -1.6182   20.4325 N   0  0  0  0  0  0  0  0  0  0  0  0
    6.5850   -2.3740   21.6757 C   0  0  0  0  0  0  0  0  0  0  0  0
    7.9295   -2.8550   22.1889 C   0  0  0  0  0  0  0  0  0  0  0  0
    8.8269   -1.7164   22.4054 N   0  0  0  0  0  0  0  0  0  0  0  0
   10.1170   -2.1732   22.9403 C   0  0  0  0  0  0  0  0  0  0  0  0
   11.2146   -1.1477   22.7881 C   0  0  0  0  0  0  0  0  0  0  0  0
   12.4510   -1.5043   22.2679 C   0  0  0  0  0  0  0  0  0  0  0  0
   13.4623   -0.5695   22.1289 C   0  0  0  0  0  0  0  0  0  0  0  0
   13.2637    0.7661   22.5119 C   0  0  0  0  0  0  0  0  0  0  0  0
   14.0688    1.9503   22.5039 C   0  0  0  0  0  0  0  0  0  0  0  0
   13.2953    2.9443   23.0135 C   0  0  0  0  0  0  0  0  0  0  0  0
   12.0501    2.4644   23.3396 N   0  0  0  0  0  0  0  0  0  0  0  0
   12.0112    1.1163   23.0375 C   0  0  0  0  0  0  0  0  0  0  0  0
   11.0010    0.1708   23.1737 C   0  0  0  0  0  0  0  0  0  0  0  0
   13.7829    4.6123   23.2270 S   0  0  0  0  0  0  0  0  0  0  0  0
   13.3510    5.3752   21.9087 N   0  0  0  0  0  0  0  0  0  0  0  0
   13.0164    5.1443   24.3059 O   0  0  0  0  0  0  0  0  0  0  0  0
   15.2075    4.6335   23.2926 O   0  0  0  0  0  0  0  0  0  0  0  0
    9.0180   -1.0127   21.1399 C   0  0  0  0  0  0  0  0  0  0  0  0
    7.6927   -0.5057   20.6009 C   0  0  0  0  0  0  0  0  0  0  0  0
  1  2  1  0
  2  3  2  0
  2  4  1  0
  4  5  1  0
  5  6  1  0
  6  7  1  0
  7  8  1  0
  8  9  1  0
  9 10  2  0
 10 11  1  0
 11 12  2  0
 12 13  1  0
 13 14  2  0
 14 15  1  0
 15 16  1  0
 16 17  2  0
 14 18  1  0
 18 19  1  0
 18 20  2  0
 18 21  2  0
  7 22  1  0
 22 23  1  0
 23  4  1  0
 17  9  1  0
 16 12  1  0
M  END
