CVD-0001964|dock_bobby27042020.79|mol2|18|dock2
     RDKit          3D

 29 31  0  0  0  0  0  0  0  0999 V2000
    4.6505    0.8483   19.3746 C   0  0  0  0  0  0  0  0  0  0  0  0
    5.3463    0.7338   20.6589 N   0  0  0  0  0  0  0  0  0  0  0  0
    6.3593   -0.3260   20.7084 C   0  0  0  0  0  0  0  0  0  0  0  0
    7.5749    0.1013   21.4882 C   0  0  0  0  0  0  0  0  0  0  0  0
    8.2064    1.3546   21.4142 C   0  0  0  0  0  0  0  0  0  0  0  0
    9.2854    1.3726   22.2796 C   0  0  0  0  0  0  0  0  0  0  0  0
   10.2098    2.5066   22.5099 C   0  0  0  0  0  0  0  0  0  0  0  0
   11.5772    2.2299   22.5498 C   0  0  0  0  0  0  0  0  0  0  0  0
   12.4953    3.2301   22.8234 C   0  0  0  0  0  0  0  0  0  0  0  0
   12.0722    4.5201   23.0557 C   0  0  0  0  0  0  0  0  0  0  0  0
   10.7262    4.8320   22.9810 C   0  0  0  0  0  0  0  0  0  0  0  0
    9.8333    3.8317   22.6781 C   0  0  0  0  0  0  0  0  0  0  0  0
    8.5390    4.1896   22.5235 F   0  0  0  0  0  0  0  0  0  0  0  0
    9.3612    0.1200   22.8917 N   0  0  0  0  0  0  0  0  0  0  0  0
    8.3139   -0.6311   22.4030 C   0  0  0  0  0  0  0  0  0  0  0  0
   10.3572   -0.3779   23.8674 C   0  0  0  0  0  0  0  0  0  0  0  0
    9.7220   -1.3637   24.8541 C   0  0  0  0  0  0  0  0  0  0  0  0
    8.5268   -0.8176   25.6172 C   0  0  0  0  0  0  0  0  0  0  0  0
    8.8755    0.3512   26.4123 N   0  0  0  0  0  0  0  0  0  0  0  0
    9.3742    0.2416   27.6498 C   0  0  0  0  0  0  0  0  0  0  0  0
    9.5810   -0.8083   28.2203 O   0  0  0  0  0  0  0  0  0  0  0  0
    9.6147    1.4488   28.1752 O   0  0  0  0  0  0  0  0  0  0  0  0
   10.2748    1.4512   29.4631 C   0  0  0  0  0  0  0  0  0  0  0  0
   11.4898   -1.0576   23.1259 C   0  0  0  0  0  0  0  0  0  0  0  0
   12.7133   -1.2904   23.7356 C   0  0  0  0  0  0  0  0  0  0  0  0
   13.7272   -1.9161   23.0316 C   0  0  0  0  0  0  0  0  0  0  0  0
   13.4860   -2.2938   21.7301 C   0  0  0  0  0  0  0  0  0  0  0  0
   12.3215   -2.0863   21.1136 N   0  0  0  0  0  0  0  0  0  0  0  0
   11.3576   -1.4805   21.8134 C   0  0  0  0  0  0  0  0  0  0  0  0
  1  2  1  0
  2  3  1  0
  3  4  1  0
  4  5  1  0
  5  6  2  0
  6  7  1  0
  7  8  2  0
  8  9  1  0
  9 10  2  0
 10 11  1  0
 11 12  2  0
 12 13  1  0
  6 14  1  0
 14 15  1  0
 14 16  1  0
 16 17  1  0
 17 18  1  0
 18 19  1  0
 19 20  1  0
 20 21  2  0
 20 22  1  0
 22 23  1  0
 16 24  1  0
 24 25  2  0
 25 26  1  0
 26 27  2  0
 27 28  1  0
 28 29  2  0
 15  4  2  0
 29 24  1  0
 12  7  1  0
M  END
