CVD-0003508|dock_bobby27042020.45|mol2|10|dock2
     RDKit          3D

 23 26  0  0  0  0  0  0  0  0999 V2000
    4.2693    1.6591   21.1833 C   0  0  0  0  0  0  0  0  0  0  0  0
    5.0971    1.2749   19.9855 C   0  0  0  0  0  0  0  0  0  0  0  0
    4.7548    1.7365   18.7177 C   0  0  0  0  0  0  0  0  0  0  0  0
    5.5294    1.3753   17.6345 C   0  0  0  0  0  0  0  0  0  0  0  0
    6.6065    0.5968   17.7328 N   0  0  0  0  0  0  0  0  0  0  0  0
    6.9251    0.1620   18.9557 C   0  0  0  0  0  0  0  0  0  0  0  0
    6.2257    0.4580   20.1001 C   0  0  0  0  0  0  0  0  0  0  0  0
    6.6656   -0.0785   21.4432 C   0  0  0  0  0  0  0  0  0  0  0  0
    8.0778   -0.6015   21.4229 C   0  0  0  0  0  0  0  0  0  0  0  0
    8.2691   -1.8829   21.1163 N   0  0  0  0  0  0  0  0  0  0  0  0
    9.6039   -2.0666   21.2027 N   0  0  0  0  0  0  0  0  0  0  0  0
   10.2435   -0.9466   21.5401 C   0  0  0  0  0  0  0  0  0  0  0  0
    9.3021    0.0524   21.6937 C   0  0  0  0  0  0  0  0  0  0  0  0
    9.5351    1.4837   22.0487 C   0  0  0  0  0  0  0  0  0  0  0  0
    8.5245    2.2829   21.6654 N   0  0  0  0  0  0  0  0  0  0  0  0
    8.6488    3.6011   21.8533 C   0  0  0  0  0  0  0  0  0  0  0  0
    9.7525    4.1850   22.4345 C   0  0  0  0  0  0  0  0  0  0  0  0
   10.7909    3.3679   22.8706 C   0  0  0  0  0  0  0  0  0  0  0  0
   12.0069    4.0086   23.5139 C   0  0  0  0  0  0  0  0  0  0  0  0
   13.1641    3.9038   22.5843 C   0  0  0  0  0  0  0  0  0  0  0  0
   12.6109    5.2346   22.9080 C   0  0  0  0  0  0  0  0  0  0  0  0
   10.6872    1.9739   22.7078 C   0  0  0  0  0  0  0  0  0  0  0  0
   11.7910    1.0933   23.2498 C   0  0  0  0  0  0  0  0  0  0  0  0
  1  2  1  0
  2  3  2  0
  3  4  1  0
  4  5  2  0
  5  6  1  0
  6  7  2  0
  7  8  1  0
  8  9  1  0
  9 10  2  0
 10 11  1  0
 11 12  1  0
 12 13  2  0
 13 14  1  0
 14 15  2  0
 15 16  1  0
 16 17  2  0
 17 18  1  0
 18 19  1  0
 19 20  1  0
 20 21  1  0
 18 22  2  0
 22 23  1  0
  7  2  1  0
 13  9  1  0
 22 14  1  0
 21 19  1  0
M  END
