CVD-0000015|dock_bobby27042020.57|mol2|31|dock1
     RDKit          3D

 21 23  0  0  0  0  0  0  0  0999 V2000
    7.9436   -3.5390   24.1915 C   0  0  0  0  0  0  0  0  0  0  0  0
    8.3484   -3.4476   22.7863 N   0  0  0  0  0  0  0  0  0  0  0  0
    9.6114   -2.7172   22.6228 C   0  0  0  0  0  0  0  0  0  0  0  0
    9.4788   -1.2506   22.9424 C   0  0  0  0  0  0  0  0  0  0  0  0
    9.7153   -0.7109   24.3226 C   0  0  0  0  0  0  0  0  0  0  0  0
   10.7318   -0.4028   23.2395 C   0  0  0  0  0  0  0  0  0  0  0  0
   10.7499    1.0275   22.6890 C   0  0  0  0  0  0  0  0  0  0  0  0
    9.8200    1.4402   22.0097 O   0  0  0  0  0  0  0  0  0  0  0  0
   11.8533    1.7423   23.0228 N   0  0  0  0  0  0  0  0  0  0  0  0
   12.2228    3.0737   22.7066 C   0  0  0  0  0  0  0  0  0  0  0  0
   11.3190    4.1201   22.5505 C   0  0  0  0  0  0  0  0  0  0  0  0
   11.7928    5.3834   22.2410 C   0  0  0  0  0  0  0  0  0  0  0  0
   13.1486    5.5674   22.0964 C   0  0  0  0  0  0  0  0  0  0  0  0
   14.0380    4.5852   22.2398 N   0  0  0  0  0  0  0  0  0  0  0  0
   13.5706    3.3698   22.5385 C   0  0  0  0  0  0  0  0  0  0  0  0
   12.0565   -1.1518   23.2926 C   0  0  0  0  0  0  0  0  0  0  0  0
   12.5647   -1.7827   22.1636 C   0  0  0  0  0  0  0  0  0  0  0  0
   13.7704   -2.4625   22.2119 C   0  0  0  0  0  0  0  0  0  0  0  0
   14.4856   -2.5210   23.3889 C   0  0  0  0  0  0  0  0  0  0  0  0
   13.9961   -1.8999   24.5180 C   0  0  0  0  0  0  0  0  0  0  0  0
   12.7905   -1.2200   24.4706 C   0  0  0  0  0  0  0  0  0  0  0  0
  1  2  1  0
  2  3  1  0
  3  4  1  0
  4  5  1  0
  5  6  1  0
  6  7  1  0
  7  8  2  0
  7  9  1  0
  9 10  1  0
 10 11  2  0
 11 12  1  0
 12 13  2  0
 13 14  1  0
 14 15  2  0
  6 16  1  0
 16 17  2  0
 17 18  1  0
 18 19  2  0
 19 20  1  0
 20 21  2  0
  6  4  1  0
 15 10  1  0
 21 16  1  0
M  END
