CVD-0001490|dock_bobby27042020.80|mol2|51|dock1
     RDKit          3D

 37 40  0  0  0  0  0  0  0  0999 V2000
    4.8014   -3.7516   29.8611 O   0  0  0  0  0  0  0  0  0  0  0  0
    3.6812   -3.3606   30.4191 C   0  0  0  0  0  0  0  0  0  0  0  0
    2.5872   -3.6525   29.9884 O   0  0  0  0  0  0  0  0  0  0  0  0
    3.8941   -2.5171   31.6425 C   0  0  0  0  0  0  0  0  0  0  0  0
    4.6618   -1.2262   31.3955 C   0  0  0  0  0  0  0  0  0  0  0  0
    3.9202   -0.2418   30.5004 C   0  0  0  0  0  0  0  0  0  0  0  0
    3.5091   -0.8230   29.1693 C   0  0  0  0  0  0  0  0  0  0  0  0
    2.1838   -0.9532   28.8025 C   0  0  0  0  0  0  0  0  0  0  0  0
    1.7779   -1.4639   27.6375 N   0  0  0  0  0  0  0  0  0  0  0  0
    2.7111   -1.8754   26.7743 C   0  0  0  0  0  0  0  0  0  0  0  0
    4.0784   -1.7970   27.0313 C   0  0  0  0  0  0  0  0  0  0  0  0
    5.0908   -2.2256   26.1353 N   0  0  0  0  0  0  0  0  0  0  0  0
    6.3022   -2.8354   26.3715 C   0  0  0  0  0  0  0  0  0  0  0  0
    6.7217   -3.1229   27.4880 O   0  0  0  0  0  0  0  0  0  0  0  0
    6.9739   -3.0849   25.1949 N   0  0  0  0  0  0  0  0  0  0  0  0
    8.2399   -3.7043   24.9957 C   0  0  0  0  0  0  0  0  0  0  0  0
    8.6397   -4.8134   25.7465 C   0  0  0  0  0  0  0  0  0  0  0  0
    9.8892   -5.3788   25.5401 C   0  0  0  0  0  0  0  0  0  0  0  0
   10.2619   -6.4728   26.2654 O   0  0  0  0  0  0  0  0  0  0  0  0
   10.7600   -4.8433   24.6109 C   0  0  0  0  0  0  0  0  0  0  0  0
   10.3698   -3.7474   23.8694 C   0  0  0  0  0  0  0  0  0  0  0  0
    9.1073   -3.1725   24.0199 C   0  0  0  0  0  0  0  0  0  0  0  0
    8.7033   -2.0072   23.1277 C   0  0  0  0  0  0  0  0  0  0  0  0
    8.4923   -2.4689   21.7034 C   0  0  0  0  0  0  0  0  0  0  0  0
    8.1882   -1.3299   20.8412 N   0  0  0  0  0  0  0  0  0  0  0  0
    9.2224   -0.2955   20.8277 C   0  0  0  0  0  0  0  0  0  0  0  0
    9.4262    0.2727   22.2320 C   0  0  0  0  0  0  0  0  0  0  0  0
   10.5543    1.3012   22.2728 C   0  0  0  0  0  0  0  0  0  0  0  0
   10.8216    1.8353   23.6694 C   0  0  0  0  0  0  0  0  0  0  0  0
   11.0841    0.7000   24.6462 C   0  0  0  0  0  0  0  0  0  0  0  0
    9.9462   -0.3153   24.6083 C   0  0  0  0  0  0  0  0  0  0  0  0
    9.7322   -0.8801   23.1983 C   0  0  0  0  0  0  0  0  0  0  0  0
    7.0584   -1.3063   20.0917 C   0  0  0  0  0  0  0  0  0  0  0  0
    6.2582   -2.2334   20.1053 O   0  0  0  0  0  0  0  0  0  0  0  0
    6.7912   -0.1004   19.2110 C   0  0  0  0  0  0  0  0  0  0  0  0
    5.2465   -0.2558   18.3644 Cl  0  0  0  0  0  0  0  0  0  0  0  0
    4.4586   -1.2589   28.2555 C   0  0  0  0  0  0  0  0  0  0  0  0
  1  2  1  0
  2  3  2  0
  2  4  1  0
  4  5  1  0
  5  6  1  0
  6  7  1  0
  7  8  2  0
  8  9  1  0
  9 10  2  0
 10 11  1  0
 11 12  1  0
 12 13  1  0
 13 14  2  0
 13 15  1  0
 15 16  1  0
 16 17  2  0
 17 18  1  0
 18 19  1  0
 18 20  2  0
 20 21  1  0
 21 22  2  0
 22 23  1  0
 23 24  1  0
 24 25  1  0
 25 26  1  0
 26 27  1  0
 27 28  1  0
 28 29  1  0
 29 30  1  0
 30 31  1  0
 31 32  1  0
 25 33  1  0
 33 34  2  0
 33 35  1  0
 35 36  1  0
 11 37  2  0
 37  7  1  0
 22 16  1  0
 32 23  1  0
 32 27  1  0
M  END
