CVD-0000444|dock_bobby27042020.70|mol2|12|dock1
     RDKit          3D

 31 33  0  0  0  0  0  0  0  0999 V2000
   12.4058    7.0628   27.2212 C   0  0  0  0  0  0  0  0  0  0  0  0
   11.7645    6.5427   25.9728 C   0  0  0  0  0  0  0  0  0  0  0  0
   12.6190    6.7403   24.8138 N   0  0  0  0  0  0  0  0  0  0  0  0
   12.5867    5.9523   23.7042 C   0  0  0  0  0  0  0  0  0  0  0  0
   13.5475    6.0746   22.7013 C   0  0  0  0  0  0  0  0  0  0  0  0
   13.4497    5.2401   21.6036 C   0  0  0  0  0  0  0  0  0  0  0  0
   12.4133    4.3400   21.5664 C   0  0  0  0  0  0  0  0  0  0  0  0
   12.2988    3.5145   20.5008 F   0  0  0  0  0  0  0  0  0  0  0  0
   11.4856    4.2545   22.5860 C   0  0  0  0  0  0  0  0  0  0  0  0
   10.3349    3.2773   22.5685 C   0  0  0  0  0  0  0  0  0  0  0  0
   10.7803    1.8566   22.2876 C   0  0  0  0  0  0  0  0  0  0  0  0
   12.0575    1.4370   22.6348 C   0  0  0  0  0  0  0  0  0  0  0  0
   12.4816    0.1384   22.3872 C   0  0  0  0  0  0  0  0  0  0  0  0
   13.8786   -0.3052   22.7755 C   0  0  0  0  0  0  0  0  0  0  0  0
   13.9444   -0.9742   24.1237 C   0  0  0  0  0  0  0  0  0  0  0  0
   11.6003   -0.7482   21.7823 C   0  0  0  0  0  0  0  0  0  0  0  0
   10.3157   -0.3541   21.4251 C   0  0  0  0  0  0  0  0  0  0  0  0
    9.4639   -1.2614   20.8234 N   0  0  0  0  0  0  0  0  0  0  0  0
    8.0199   -1.2067   20.9483 C   0  0  0  0  0  0  0  0  0  0  0  0
    7.4118   -0.1280   20.0732 C   0  0  0  0  0  0  0  0  0  0  0  0
    8.0688    0.3728   19.1668 O   0  0  0  0  0  0  0  0  0  0  0  0
    6.1370    0.1936   20.4012 N   0  0  0  0  0  0  0  0  0  0  0  0
    5.1804    1.0084   19.7463 C   0  0  0  0  0  0  0  0  0  0  0  0
    4.1081    1.5103   20.4726 C   0  0  0  0  0  0  0  0  0  0  0  0
    3.1619    2.3077   19.8550 C   0  0  0  0  0  0  0  0  0  0  0  0
    3.3576    2.5552   18.5194 C   0  0  0  0  0  0  0  0  0  0  0  0
    2.4607    3.3296   17.8688 F   0  0  0  0  0  0  0  0  0  0  0  0
    4.3350    2.1186   17.7829 N   0  0  0  0  0  0  0  0  0  0  0  0
    5.2402    1.3489   18.3975 C   0  0  0  0  0  0  0  0  0  0  0  0
    9.9155    0.9533   21.6840 C   0  0  0  0  0  0  0  0  0  0  0  0
   11.5834    5.0669   23.6475 N   0  0  0  0  0  0  0  0  0  0  0  0
  1  2  1  0
  2  3  1  0
  3  4  1  0
  4  5  2  0
  5  6  1  0
  6  7  2  0
  7  8  1  0
  7  9  1  0
  9 10  1  0
 10 11  1  0
 11 12  2  0
 12 13  1  0
 13 14  1  0
 14 15  1  0
 13 16  2  0
 16 17  1  0
 17 18  1  0
 18 19  1  0
 19 20  1  0
 20 21  2  0
 20 22  1  0
 22 23  1  0
 23 24  2  0
 24 25  1  0
 25 26  2  0
 26 27  1  0
 26 28  1  0
 28 29  2  0
 17 30  2  0
  9 31  2  0
 31  4  1  0
 30 11  1  0
 29 23  1  0
M  END
