CVD-0002878|dock_bobby27042020.47|mol2|8|dock2
     RDKit          3D

 27 29  0  0  0  0  0  0  0  0999 V2000
    1.8001    3.6446   18.9393 C   0  0  0  0  0  0  0  0  0  0  0  0
    2.9961    3.1253   19.6820 C   0  0  0  0  0  0  0  0  0  0  0  0
    3.2402    3.4621   20.8363 O   0  0  0  0  0  0  0  0  0  0  0  0
    3.7880    2.2887   19.0084 N   0  0  0  0  0  0  0  0  0  0  0  0
    4.9949    1.7142   19.5857 C   0  0  0  0  0  0  0  0  0  0  0  0
    5.2834    0.3326   19.0335 C   0  0  0  0  0  0  0  0  0  0  0  0
    6.5280   -0.2797   19.6060 C   0  0  0  0  0  0  0  0  0  0  0  0
    7.7252   -0.4636   18.9780 C   0  0  0  0  0  0  0  0  0  0  0  0
    8.6240   -1.0544   19.8243 N   0  0  0  0  0  0  0  0  0  0  0  0
    8.0098   -1.2648   21.0341 C   0  0  0  0  0  0  0  0  0  0  0  0
    8.5182   -1.8359   22.2041 C   0  0  0  0  0  0  0  0  0  0  0  0
    9.9395   -2.3411   22.2819 C   0  0  0  0  0  0  0  0  0  0  0  0
   10.8435   -1.4016   22.9621 N   0  0  0  0  0  0  0  0  0  0  0  0
   10.5657   -0.0259   22.5393 C   0  0  0  0  0  0  0  0  0  0  0  0
   11.4731    0.9430   23.2745 C   0  0  0  0  0  0  0  0  0  0  0  0
   12.8789    0.6126   23.0303 N   0  0  0  0  0  0  0  0  0  0  0  0
   13.1754   -0.7781   23.3877 C   0  0  0  0  0  0  0  0  0  0  0  0
   12.2360   -1.7215   22.6588 C   0  0  0  0  0  0  0  0  0  0  0  0
   13.7691    1.5088   22.5623 C   0  0  0  0  0  0  0  0  0  0  0  0
   14.9498    1.2379   22.3489 O   0  0  0  0  0  0  0  0  0  0  0  0
   13.2972    2.9065   22.2866 C   0  0  0  0  0  0  0  0  0  0  0  0
   13.0170    3.9714   21.9754 N   0  0  0  0  0  0  0  0  0  0  0  0
    7.6674   -1.9305   23.2999 C   0  0  0  0  0  0  0  0  0  0  0  0
    6.3784   -1.4628   23.1909 C   0  0  0  0  0  0  0  0  0  0  0  0
    5.5685   -1.5672   24.2790 F   0  0  0  0  0  0  0  0  0  0  0  0
    5.8566   -0.8962   22.0513 C   0  0  0  0  0  0  0  0  0  0  0  0
    6.6888   -0.7909   20.9374 C   0  0  0  0  0  0  0  0  0  0  0  0
  1  2  1  0
  2  3  2  0
  2  4  1  0
  4  5  1  0
  5  6  1  0
  6  7  1  0
  7  8  2  0
  8  9  1  0
  9 10  1  0
 10 11  2  0
 11 12  1  0
 12 13  1  0
 13 14  1  0
 14 15  1  0
 15 16  1  0
 16 17  1  0
 17 18  1  0
 16 19  1  0
 19 20  2  0
 19 21  1  0
 21 22  3  0
 11 23  1  0
 23 24  2  0
 24 25  1  0
 24 26  1  0
 26 27  2  0
 27  7  1  0
 27 10  1  0
 18 13  1  0
M  END
