CVD-0001391|dock_bobby27042020.67|mol2|18|dock1
     RDKit          3D

 20 22  0  0  0  0  0  0  0  0999 V2000
   10.5770   -2.4106   20.9677 O   0  0  0  0  0  0  0  0  0  0  0  0
   10.5429   -1.5644   21.8524 C   0  0  0  0  0  0  0  0  0  0  0  0
    9.2300   -0.9005   22.2289 C   0  0  0  0  0  0  0  0  0  0  0  0
    8.0414   -1.4614   21.5071 C   0  0  0  0  0  0  0  0  0  0  0  0
    7.1333   -0.7756   20.7549 C   0  0  0  0  0  0  0  0  0  0  0  0
    6.1846   -1.6256   20.2517 N   0  0  0  0  0  0  0  0  0  0  0  0
    6.4667   -2.8911   20.6754 C   0  0  0  0  0  0  0  0  0  0  0  0
    5.7803   -4.0138   20.4030 N   0  0  0  0  0  0  0  0  0  0  0  0
    6.2585   -5.1454   20.9384 C   0  0  0  0  0  0  0  0  0  0  0  0
    7.3858   -5.2046   21.7296 C   0  0  0  0  0  0  0  0  0  0  0  0
    8.0819   -4.0370   22.0005 C   0  0  0  0  0  0  0  0  0  0  0  0
    7.6259   -2.8332   21.4672 C   0  0  0  0  0  0  0  0  0  0  0  0
   11.6488   -1.1759   22.5214 N   0  0  0  0  0  0  0  0  0  0  0  0
   11.6253   -0.1941   23.6014 C   0  0  0  0  0  0  0  0  0  0  0  0
   12.0820   -0.7929   24.9304 C   0  0  0  0  0  0  0  0  0  0  0  0
   13.7370   -1.3944   24.7761 S   0  0  0  0  0  0  0  0  0  0  0  0
   14.0817   -2.1692   25.9374 O   0  0  0  0  0  0  0  0  0  0  0  0
   14.6047   -0.3078   24.4098 O   0  0  0  0  0  0  0  0  0  0  0  0
   13.5562   -2.4827   23.3896 C   0  0  0  0  0  0  0  0  0  0  0  0
   12.9608   -1.7151   22.1988 C   0  0  0  0  0  0  0  0  0  0  0  0
  1  2  2  0
  2  3  1  0
  3  4  1  0
  4  5  2  0
  5  6  1  0
  6  7  1  0
  7  8  2  0
  8  9  1  0
  9 10  2  0
 10 11  1  0
 11 12  2  0
  2 13  1  0
 13 14  1  0
 14 15  1  0
 15 16  1  0
 16 17  2  0
 16 18  2  0
 16 19  1  0
 19 20  1  0
 12  4  1  0
 20 13  1  0
 12  7  1  0
M  END
