CVD-0001830|dock_bobby27042020.37|mol2|5|dock3
     RDKit          3D

 28 31  0  0  0  0  0  0  0  0999 V2000
   14.5909   -2.4732   24.3185 O   0  0  0  0  0  0  0  0  0  0  0  0
   14.3591   -1.3055   23.5402 C   0  0  0  0  0  0  0  0  0  0  0  0
   12.9355   -0.7960   23.6734 C   0  0  0  0  0  0  0  0  0  0  0  0
   12.7297    0.5148   22.9062 C   0  0  0  0  0  0  0  0  0  0  0  0
   11.3177    1.0077   23.0497 C   0  0  0  0  0  0  0  0  0  0  0  0
   10.3379    0.0061   22.6185 N   0  0  0  0  0  0  0  0  0  0  0  0
   10.4918   -1.2930   23.3136 C   0  0  0  0  0  0  0  0  0  0  0  0
   11.9140   -1.7990   23.1999 C   0  0  0  0  0  0  0  0  0  0  0  0
    9.2651    0.3098   21.8133 C   0  0  0  0  0  0  0  0  0  0  0  0
    9.3559    1.2710   20.9213 N   0  0  0  0  0  0  0  0  0  0  0  0
    8.1241    1.3383   20.2772 N   0  0  0  0  0  0  0  0  0  0  0  0
    7.3455    0.4236   20.8097 C   0  0  0  0  0  0  0  0  0  0  0  0
    5.9227    0.2115   20.3621 C   0  0  0  0  0  0  0  0  0  0  0  0
    5.1084    1.5000   20.5104 C   0  0  0  0  0  0  0  0  0  0  0  0
    4.4287    1.6581   19.1523 C   0  0  0  0  0  0  0  0  0  0  0  0
    5.1441    0.7749   18.2240 C   0  0  0  0  0  0  0  0  0  0  0  0
    5.1583    0.7504   16.9972 O   0  0  0  0  0  0  0  0  0  0  0  0
    5.8319   -0.1045   18.9505 N   0  0  0  0  0  0  0  0  0  0  0  0
    8.0112   -0.2680   21.7828 N   0  0  0  0  0  0  0  0  0  0  0  0
    7.4323   -1.3480   22.5968 C   0  0  0  0  0  0  0  0  0  0  0  0
    7.5426   -2.6909   21.8969 C   0  0  0  0  0  0  0  0  0  0  0  0
    7.9135   -4.0241   23.0645 S   0  0  0  0  0  0  0  0  0  0  0  0
    6.5362   -5.1148   22.9268 C   0  0  0  0  0  0  0  0  0  0  0  0
    5.6837   -5.3076   24.0050 C   0  0  0  0  0  0  0  0  0  0  0  0
    4.6073   -6.1720   23.8950 C   0  0  0  0  0  0  0  0  0  0  0  0
    4.3767   -6.8479   22.7159 C   0  0  0  0  0  0  0  0  0  0  0  0
    5.2217   -6.6635   21.6425 C   0  0  0  0  0  0  0  0  0  0  0  0
    6.3005   -5.8010   21.7436 C   0  0  0  0  0  0  0  0  0  0  0  0
  1  2  1  0
  2  3  1  0
  3  4  1  0
  4  5  1  0
  5  6  1  0
  6  7  1  0
  7  8  1  0
  6  9  1  0
  9 10  2  0
 10 11  1  0
 11 12  2  0
 12 13  1  0
 13 14  1  0
 14 15  1  0
 15 16  1  0
 16 17  2  0
 16 18  1  0
 12 19  1  0
 19 20  1  0
 20 21  1  0
 21 22  1  0
 22 23  1  0
 23 24  2  0
 24 25  1  0
 25 26  2  0
 26 27  1  0
 27 28  2  0
  8  3  1  0
 19  9  1  0
 28 23  1  0
 18 13  1  0
M  END
