CVD-0001453|dock_bobby27042020.9|mol2|37|dock3
     RDKit          3D

 24 25  0  0  0  0  0  0  0  0999 V2000
   11.2847    5.4440   23.2155 C   0  0  0  0  0  0  0  0  0  0  0  0
   12.2970    4.3366   23.2420 C   0  0  0  0  0  0  0  0  0  0  0  0
   13.4306    4.5207   23.6708 O   0  0  0  0  0  0  0  0  0  0  0  0
   11.9195    3.1157   22.7898 N   0  0  0  0  0  0  0  0  0  0  0  0
   12.8176    1.9589   22.7823 C   0  0  0  0  0  0  0  0  0  0  0  0
   12.1810    0.7889   23.5091 C   0  0  0  0  0  0  0  0  0  0  0  0
   10.9009    0.4401   22.8857 N   0  0  0  0  0  0  0  0  0  0  0  0
   10.3095   -0.6980   23.5494 C   0  0  0  0  0  0  0  0  0  0  0  0
   10.1178   -2.0936   22.4935 S   0  0  0  0  0  0  0  0  0  0  0  0
   11.4332   -2.5697   22.1864 O   0  0  0  0  0  0  0  0  0  0  0  0
    9.1741   -2.9461   23.1517 O   0  0  0  0  0  0  0  0  0  0  0  0
    9.4353   -1.5578   21.1145 N   0  0  0  0  0  0  0  0  0  0  0  0
    8.0927   -1.0877   20.9731 C   0  0  0  0  0  0  0  0  0  0  0  0
    7.2351   -1.0562   22.0662 C   0  0  0  0  0  0  0  0  0  0  0  0
    5.9367   -0.5991   21.9156 C   0  0  0  0  0  0  0  0  0  0  0  0
    5.4817   -0.1702   20.6802 C   0  0  0  0  0  0  0  0  0  0  0  0
    6.3427   -0.2027   19.5955 C   0  0  0  0  0  0  0  0  0  0  0  0
    7.6451   -0.6592   19.7283 C   0  0  0  0  0  0  0  0  0  0  0  0
    5.7747    0.3357   18.0110 S   0  0  0  0  0  0  0  0  0  0  0  0
    4.7506    1.5477   18.2241 N   0  0  0  0  0  0  0  0  0  0  0  0
    6.9067    0.8570   17.3053 O   0  0  0  0  0  0  0  0  0  0  0  0
    5.0362   -0.7457   17.4313 O   0  0  0  0  0  0  0  0  0  0  0  0
   10.0075    1.5936   22.9545 C   0  0  0  0  0  0  0  0  0  0  0  0
   10.6074    2.7826   22.2264 C   0  0  0  0  0  0  0  0  0  0  0  0
  1  2  1  0
  2  3  2  0
  2  4  1  0
  4  5  1  0
  5  6  1  0
  6  7  1  0
  7  8  1  0
  8  9  1  0
  9 10  2  0
  9 11  2  0
  9 12  1  0
 12 13  1  0
 13 14  2  0
 14 15  1  0
 15 16  2  0
 16 17  1  0
 17 18  2  0
 17 19  1  0
 19 20  1  0
 19 21  2  0
 19 22  2  0
  7 23  1  0
 23 24  1  0
 24  4  1  0
 18 13  1  0
M  END
