CVD-0002487|dock_bobby27042020.91|mol2|17|dock3
     RDKit          3D

 31 32  0  0  0  0  0  0  0  0999 V2000
    5.7800   -5.2184   22.8565 C   0  0  0  0  0  0  0  0  0  0  0  0
    6.2158   -4.2654   21.7637 C   0  0  0  0  0  0  0  0  0  0  0  0
    7.1020   -4.9283   20.8606 O   0  0  0  0  0  0  0  0  0  0  0  0
    6.9221   -3.0350   22.2880 C   0  0  0  0  0  0  0  0  0  0  0  0
    7.4794   -2.1192   21.1868 C   0  0  0  0  0  0  0  0  0  0  0  0
    6.5706   -0.9789   20.7745 C   0  0  0  0  0  0  0  0  0  0  0  0
    5.8018   -1.0497   19.5994 C   0  0  0  0  0  0  0  0  0  0  0  0
    5.8265   -2.2409   18.6777 C   0  0  0  0  0  0  0  0  0  0  0  0
    4.9829    0.0272   19.2661 C   0  0  0  0  0  0  0  0  0  0  0  0
    4.9126    1.1538   20.0648 C   0  0  0  0  0  0  0  0  0  0  0  0
    5.6708    1.2186   21.2188 C   0  0  0  0  0  0  0  0  0  0  0  0
    6.5032    0.1650   21.5850 C   0  0  0  0  0  0  0  0  0  0  0  0
    7.3207    0.2794   22.8517 C   0  0  0  0  0  0  0  0  0  0  0  0
    8.7473    0.5362   22.6051 N   0  0  0  0  0  0  0  0  0  0  0  0
    9.5484    0.1359   23.7656 C   0  0  0  0  0  0  0  0  0  0  0  0
   11.0230    0.3646   23.4901 C   0  0  0  0  0  0  0  0  0  0  0  0
   11.2704    1.7711   23.1654 N   0  0  0  0  0  0  0  0  0  0  0  0
   10.4385    2.2197   22.0445 C   0  0  0  0  0  0  0  0  0  0  0  0
    8.9728    1.9541   22.3366 C   0  0  0  0  0  0  0  0  0  0  0  0
   12.1799    2.5232   23.8179 C   0  0  0  0  0  0  0  0  0  0  0  0
   12.8649    2.0686   24.7254 O   0  0  0  0  0  0  0  0  0  0  0  0
   12.3164    3.9640   23.3662 C   0  0  0  0  0  0  0  0  0  0  0  0
   12.9381    4.0549   21.7133 Cl  0  0  0  0  0  0  0  0  0  0  0  0
    8.0304   -3.4654   23.1333 N   0  0  0  0  0  0  0  0  0  0  0  0
    8.0051   -3.4113   24.4668 C   0  0  0  0  0  0  0  0  0  0  0  0
    7.0481   -2.9724   25.0968 O   0  0  0  0  0  0  0  0  0  0  0  0
    9.2482   -3.9369   25.1588 C   0  0  0  0  0  0  0  0  0  0  0  0
    9.2260   -5.7270   25.1429 S   0  0  0  0  0  0  0  0  0  0  0  0
   10.5150   -6.2503   25.9361 N   0  0  0  0  0  0  0  0  0  0  0  0
    8.0649   -6.1402   25.8781 O   0  0  0  0  0  0  0  0  0  0  0  0
    9.3568   -6.1397   23.7747 O   0  0  0  0  0  0  0  0  0  0  0  0
  1  2  1  0
  2  3  1  0
  2  4  1  0
  4  5  1  0
  5  6  1  0
  6  7  2  0
  7  8  1  0
  7  9  1  0
  9 10  2  0
 10 11  1  0
 11 12  2  0
 12 13  1  0
 13 14  1  0
 14 15  1  0
 15 16  1  0
 16 17  1  0
 17 18  1  0
 18 19  1  0
 17 20  1  0
 20 21  2  0
 20 22  1  0
 22 23  1  0
  4 24  1  0
 24 25  1  0
 25 26  2  0
 25 27  1  0
 27 28  1  0
 28 29  1  0
 28 30  2  0
 28 31  2  0
 12  6  1  0
 19 14  1  0
M  END
