CVD-0000269|dock_bobby27042020.70|mol2|38|dock1
     RDKit          3D

 26 28  0  0  0  0  0  0  0  0999 V2000
    2.4976    2.0083   21.6605 C   0  0  0  0  0  0  0  0  0  0  0  0
    3.7003    1.1958   21.2468 C   0  0  0  0  0  0  0  0  0  0  0  0
    4.3955    0.4288   22.1677 C   0  0  0  0  0  0  0  0  0  0  0  0
    5.4996   -0.3143   21.7922 C   0  0  0  0  0  0  0  0  0  0  0  0
    5.9287   -0.2986   20.4720 C   0  0  0  0  0  0  0  0  0  0  0  0
    7.0485   -1.0411   20.1025 O   0  0  0  0  0  0  0  0  0  0  0  0
    8.2099   -1.0448   20.8775 C   0  0  0  0  0  0  0  0  0  0  0  0
    8.6549   -2.1987   21.5019 C   0  0  0  0  0  0  0  0  0  0  0  0
    9.8114   -2.1513   22.2606 C   0  0  0  0  0  0  0  0  0  0  0  0
   10.5218   -0.9706   22.3971 C   0  0  0  0  0  0  0  0  0  0  0  0
   10.0769    0.1890   21.7678 C   0  0  0  0  0  0  0  0  0  0  0  0
   10.7522    1.4318   21.8615 N   0  0  0  0  0  0  0  0  0  0  0  0
   11.8654    1.7965   22.5792 C   0  0  0  0  0  0  0  0  0  0  0  0
   12.5196    1.0656   23.3170 O   0  0  0  0  0  0  0  0  0  0  0  0
   12.1974    3.0900   22.3971 N   0  0  0  0  0  0  0  0  0  0  0  0
   13.3438    3.6607   23.0707 C   0  0  0  0  0  0  0  0  0  0  0  0
   13.6991    5.0019   22.5279 C   0  0  0  0  0  0  0  0  0  0  0  0
   14.3037    5.3749   21.3636 C   0  0  0  0  0  0  0  0  0  0  0  0
   14.4029    6.7239   21.3177 N   0  0  0  0  0  0  0  0  0  0  0  0
   13.8748    7.2204   22.4134 N   0  0  0  0  0  0  0  0  0  0  0  0
   13.4573    6.1749   23.1628 N   0  0  0  0  0  0  0  0  0  0  0  0
   12.7995    6.3811   24.4472 C   0  0  0  0  0  0  0  0  0  0  0  0
    8.9139    0.1413   21.0060 C   0  0  0  0  0  0  0  0  0  0  0  0
    5.2424    0.4508   19.5146 C   0  0  0  0  0  0  0  0  0  0  0  0
    5.6509    0.4726   18.0648 C   0  0  0  0  0  0  0  0  0  0  0  0
    4.1382    1.1902   19.9310 C   0  0  0  0  0  0  0  0  0  0  0  0
  1  2  1  0
  2  3  2  0
  3  4  1  0
  4  5  2  0
  5  6  1  0
  6  7  1  0
  7  8  2  0
  8  9  1  0
  9 10  2  0
 10 11  1  0
 11 12  1  0
 12 13  1  0
 13 14  2  0
 13 15  1  0
 15 16  1  0
 16 17  1  0
 17 18  2  0
 18 19  1  0
 19 20  2  0
 20 21  1  0
 21 22  1  0
 11 23  2  0
  5 24  1  0
 24 25  1  0
 24 26  2  0
 26  2  1  0
 23  7  1  0
 21 17  1  0
M  END
