CVD-0000436|dock_bobby27042020.84|mol2|19|dock2
     RDKit          3D

 30 32  0  0  0  0  0  0  0  0999 V2000
    4.9999    2.3098   20.9475 C   0  0  0  0  0  0  0  0  0  0  0  0
    3.9630    1.3930   20.3779 C   0  0  0  0  0  0  0  0  0  0  0  0
    4.4906    0.6205   19.2656 N   0  0  0  0  0  0  0  0  0  0  0  0
    5.2285   -0.5123   19.4200 C   0  0  0  0  0  0  0  0  0  0  0  0
    5.6268   -1.2567   18.3116 C   0  0  0  0  0  0  0  0  0  0  0  0
    6.3753   -2.3979   18.5311 C   0  0  0  0  0  0  0  0  0  0  0  0
    6.6809   -2.7294   19.8283 C   0  0  0  0  0  0  0  0  0  0  0  0
    7.4132   -3.8417   20.0663 F   0  0  0  0  0  0  0  0  0  0  0  0
    6.2619   -1.9594   20.8957 C   0  0  0  0  0  0  0  0  0  0  0  0
    6.5875   -2.2995   22.3302 C   0  0  0  0  0  0  0  0  0  0  0  0
    8.0473   -2.5893   22.6273 C   0  0  0  0  0  0  0  0  0  0  0  0
    9.0429   -1.9954   21.8575 C   0  0  0  0  0  0  0  0  0  0  0  0
   10.3935   -2.2350   22.1001 C   0  0  0  0  0  0  0  0  0  0  0  0
   11.3778   -1.6441   21.3301 N   0  0  0  0  0  0  0  0  0  0  0  0
   12.4380   -0.8206   21.8790 C   0  0  0  0  0  0  0  0  0  0  0  0
   11.9722    0.5937   22.1652 C   0  0  0  0  0  0  0  0  0  0  0  0
   10.7835    0.8805   22.0709 O   0  0  0  0  0  0  0  0  0  0  0  0
   12.9703    1.4400   22.5182 N   0  0  0  0  0  0  0  0  0  0  0  0
   12.9884    2.8456   22.6992 C   0  0  0  0  0  0  0  0  0  0  0  0
   14.1403    3.6153   22.5558 C   0  0  0  0  0  0  0  0  0  0  0  0
   14.0899    4.9863   22.7467 C   0  0  0  0  0  0  0  0  0  0  0  0
   12.8998    5.6081   23.0813 C   0  0  0  0  0  0  0  0  0  0  0  0
   11.7673    4.8385   23.2208 C   0  0  0  0  0  0  0  0  0  0  0  0
   10.2629    5.6081   23.6417 Cl  0  0  0  0  0  0  0  0  0  0  0  0
   11.7924    3.4716   23.0357 C   0  0  0  0  0  0  0  0  0  0  0  0
   10.7546   -3.0850   23.1380 C   0  0  0  0  0  0  0  0  0  0  0  0
    9.7821   -3.6841   23.9167 C   0  0  0  0  0  0  0  0  0  0  0  0
    8.4476   -3.4317   23.6550 C   0  0  0  0  0  0  0  0  0  0  0  0
    7.2529   -4.1982   24.6498 Cl  0  0  0  0  0  0  0  0  0  0  0  0
    5.5375   -0.8529   20.6778 N   0  0  0  0  0  0  0  0  0  0  0  0
  1  2  1  0
  2  3  1  0
  3  4  1  0
  4  5  2  0
  5  6  1  0
  6  7  2  0
  7  8  1  0
  7  9  1  0
  9 10  1  0
 10 11  1  0
 11 12  2  0
 12 13  1  0
 13 14  1  0
 14 15  1  0
 15 16  1  0
 16 17  2  0
 16 18  1  0
 18 19  1  0
 19 20  2  0
 20 21  1  0
 21 22  2  0
 22 23  1  0
 23 24  1  0
 23 25  2  0
 13 26  2  0
 26 27  1  0
 27 28  2  0
 28 29  1  0
  9 30  2  0
 30  4  1  0
 28 11  1  0
 25 19  1  0
M  END
