CVD-0000369|dock_bobby27042020.84|mol2|29|dock2
     RDKit          3D

 24 26  0  0  0  0  0  0  0  0999 V2000
    5.6938   -4.3580   27.2380 C   0  0  0  0  0  0  0  0  0  0  0  0
    7.0004   -5.0833   27.0964 C   0  0  0  0  0  0  0  0  0  0  0  0
    7.0532   -6.2920   27.2946 O   0  0  0  0  0  0  0  0  0  0  0  0
    8.1172   -4.3954   26.7341 N   0  0  0  0  0  0  0  0  0  0  0  0
    9.4229   -5.0357   26.5605 C   0  0  0  0  0  0  0  0  0  0  0  0
    9.9890   -4.7216   25.1881 C   0  0  0  0  0  0  0  0  0  0  0  0
   10.1080   -3.2717   25.0080 N   0  0  0  0  0  0  0  0  0  0  0  0
   10.6931   -2.9630   23.6954 C   0  0  0  0  0  0  0  0  0  0  0  0
   10.9180   -1.4866   23.4736 C   0  0  0  0  0  0  0  0  0  0  0  0
   10.0251   -0.7337   22.7309 C   0  0  0  0  0  0  0  0  0  0  0  0
   10.2242    0.6193   22.5210 C   0  0  0  0  0  0  0  0  0  0  0  0
   11.3348    1.2772   23.0573 C   0  0  0  0  0  0  0  0  0  0  0  0
   12.2058    0.4902   23.8068 C   0  0  0  0  0  0  0  0  0  0  0  0
   13.2981    1.0502   24.3757 F   0  0  0  0  0  0  0  0  0  0  0  0
   12.0253   -0.8527   24.0172 C   0  0  0  0  0  0  0  0  0  0  0  0
   11.4911    2.7360   22.7888 C   0  0  0  0  0  0  0  0  0  0  0  0
   12.7254    3.2927   22.4661 C   0  0  0  0  0  0  0  0  0  0  0  0
   12.7927    4.6573   22.2393 C   0  0  0  0  0  0  0  0  0  0  0  0
   14.0851    5.3290   21.8858 C   0  0  0  0  0  0  0  0  0  0  0  0
   11.7029    5.4285   22.3216 N   0  0  0  0  0  0  0  0  0  0  0  0
   10.5702    4.7998   22.6332 C   0  0  0  0  0  0  0  0  0  0  0  0
   10.3890    3.5012   22.8734 N   0  0  0  0  0  0  0  0  0  0  0  0
    8.7851   -2.6656   25.1337 C   0  0  0  0  0  0  0  0  0  0  0  0
    8.1910   -2.9497   26.5012 C   0  0  0  0  0  0  0  0  0  0  0  0
  1  2  1  0
  2  3  2  0
  2  4  1  0
  4  5  1  0
  5  6  1  0
  6  7  1  0
  7  8  1  0
  8  9  1  0
  9 10  2  0
 10 11  1  0
 11 12  2  0
 12 13  1  0
 13 14  1  0
 13 15  2  0
 12 16  1  0
 16 17  2  0
 17 18  1  0
 18 19  1  0
 18 20  2  0
 20 21  1  0
 21 22  2  0
  7 23  1  0
 23 24  1  0
 24  4  1  0
 15  9  1  0
 22 16  1  0
M  END
