CVD-0001232|dock_bobby27042020.24|mol2|32|dock3
     RDKit          3D

 23 25  0  0  0  0  0  0  0  0999 V2000
   10.2477    2.7735   22.4300 C   0  0  0  0  0  0  0  0  0  0  0  0
   11.7228    3.0783   22.3768 C   0  0  0  0  0  0  0  0  0  0  0  0
   12.1225    4.4067   22.2663 C   0  0  0  0  0  0  0  0  0  0  0  0
   13.4632    4.7152   22.2121 C   0  0  0  0  0  0  0  0  0  0  0  0
   14.4224    3.7952   22.2598 N   0  0  0  0  0  0  0  0  0  0  0  0
   14.0507    2.5155   22.3652 C   0  0  0  0  0  0  0  0  0  0  0  0
   12.7239    2.0890   22.4275 C   0  0  0  0  0  0  0  0  0  0  0  0
   12.3263    0.7273   22.5383 N   0  0  0  0  0  0  0  0  0  0  0  0
   13.0743   -0.4012   22.6112 C   0  0  0  0  0  0  0  0  0  0  0  0
   14.2977   -0.4667   22.5584 O   0  0  0  0  0  0  0  0  0  0  0  0
   12.2550   -1.6682   22.7628 C   0  0  0  0  0  0  0  0  0  0  0  0
   11.0789   -1.6882   21.9202 N   0  0  0  0  0  0  0  0  0  0  0  0
    9.8569   -1.7721   22.4541 C   0  0  0  0  0  0  0  0  0  0  0  0
    9.7015   -1.8327   23.6701 O   0  0  0  0  0  0  0  0  0  0  0  0
    8.6506   -1.7930   21.5593 C   0  0  0  0  0  0  0  0  0  0  0  0
    7.6886   -2.7785   21.7684 C   0  0  0  0  0  0  0  0  0  0  0  0
    6.5512   -2.8603   20.9831 C   0  0  0  0  0  0  0  0  0  0  0  0
    6.3588   -1.9373   19.9574 C   0  0  0  0  0  0  0  0  0  0  0  0
    5.3281   -1.7893   19.0338 N   0  0  0  0  0  0  0  0  0  0  0  0
    5.6842   -0.7471   18.3111 C   0  0  0  0  0  0  0  0  0  0  0  0
    6.8607   -0.2017   18.6847 N   0  0  0  0  0  0  0  0  0  0  0  0
    7.3169   -0.9489   19.7431 C   0  0  0  0  0  0  0  0  0  0  0  0
    8.4576   -0.8691   20.5332 C   0  0  0  0  0  0  0  0  0  0  0  0
  1  2  1  0
  2  3  2  0
  3  4  1  0
  4  5  2  0
  5  6  1  0
  6  7  2  0
  7  8  1  0
  8  9  1  0
  9 10  2  0
  9 11  1  0
 11 12  1  0
 12 13  1  0
 13 14  2  0
 13 15  1  0
 15 16  2  0
 16 17  1  0
 17 18  2  0
 18 19  1  0
 19 20  2  0
 20 21  1  0
 21 22  1  0
 22 23  2  0
  7  2  1  0
 23 15  1  0
 22 18  1  0
M  END
