CVD-0000539|dock_bobby27042020.41|mol2|13|dock3
     RDKit          3D

 28 30  0  0  0  0  0  0  0  0999 V2000
   12.5787    1.6250   22.8240 C   0  0  0  0  0  0  0  0  0  0  0  0
   12.6284    0.1208   22.9064 C   0  0  0  0  0  0  0  0  0  0  0  0
   13.8327   -0.4787   23.2627 C   0  0  0  0  0  0  0  0  0  0  0  0
   13.9143   -1.8497   23.3529 C   0  0  0  0  0  0  0  0  0  0  0  0
   12.8831   -2.6536   23.1127 N   0  0  0  0  0  0  0  0  0  0  0  0
   11.7214   -2.0895   22.7678 C   0  0  0  0  0  0  0  0  0  0  0  0
   11.5217   -0.7128   22.6482 C   0  0  0  0  0  0  0  0  0  0  0  0
   10.2887   -0.0967   22.2860 N   0  0  0  0  0  0  0  0  0  0  0  0
    9.2364   -0.5929   21.5480 C   0  0  0  0  0  0  0  0  0  0  0  0
    9.2120   -1.7157   21.0652 O   0  0  0  0  0  0  0  0  0  0  0  0
    8.2366    0.3204   21.4284 N   0  0  0  0  0  0  0  0  0  0  0  0
    6.9590    0.1798   20.7598 C   0  0  0  0  0  0  0  0  0  0  0  0
    6.3233    1.5677   20.7702 C   0  0  0  0  0  0  0  0  0  0  0  0
    5.0521    1.5908   19.9453 C   0  0  0  0  0  0  0  0  0  0  0  0
    5.3086    1.1329   18.5177 C   0  0  0  0  0  0  0  0  0  0  0  0
    5.9522   -0.2441   18.4968 C   0  0  0  0  0  0  0  0  0  0  0  0
    7.2249   -0.2798   19.3333 C   0  0  0  0  0  0  0  0  0  0  0  0
    6.0596   -0.6417   21.4903 O   0  0  0  0  0  0  0  0  0  0  0  0
    6.3925   -1.8753   22.0895 C   0  0  0  0  0  0  0  0  0  0  0  0
    6.9505   -1.8950   23.3564 C   0  0  0  0  0  0  0  0  0  0  0  0
    7.2847   -3.1075   23.9361 C   0  0  0  0  0  0  0  0  0  0  0  0
    7.0666   -4.2949   23.2577 C   0  0  0  0  0  0  0  0  0  0  0  0
    6.5093   -4.2569   21.9900 C   0  0  0  0  0  0  0  0  0  0  0  0
    6.1701   -3.0525   21.3927 C   0  0  0  0  0  0  0  0  0  0  0  0
    6.2329   -5.7642   21.1099 S   0  0  0  0  0  0  0  0  0  0  0  0
    4.8700   -6.4174   21.6381 N   0  0  0  0  0  0  0  0  0  0  0  0
    6.0339   -5.4251   19.7328 O   0  0  0  0  0  0  0  0  0  0  0  0
    7.2941   -6.6617   21.4549 O   0  0  0  0  0  0  0  0  0  0  0  0
  1  2  1  0
  2  3  2  0
  3  4  1  0
  4  5  2  0
  5  6  1  0
  6  7  2  0
  7  8  1  0
  8  9  1  0
  9 10  2  0
  9 11  1  0
 11 12  1  0
 12 13  1  0
 13 14  1  0
 14 15  1  0
 15 16  1  0
 16 17  1  0
 12 18  1  0
 18 19  1  0
 19 20  2  0
 20 21  1  0
 21 22  2  0
 22 23  1  0
 23 24  2  0
 23 25  1  0
 25 26  1  0
 25 27  2  0
 25 28  2  0
  7  2  1  0
 17 12  1  0
 24 19  1  0
M  END
