CVD-0002651|dock_bobby27042020.19|mol2|10|dock1
     RDKit          3D

 22 23  0  0  0  0  0  0  0  0999 V2000
   13.5318    2.0914   23.5737 C   0  0  0  0  0  0  0  0  0  0  0  0
   12.4016    2.2110   22.6524 N   0  0  0  0  0  0  0  0  0  0  0  0
   11.5474    1.0189   22.6509 C   0  0  0  0  0  0  0  0  0  0  0  0
   12.2725   -0.3171   22.6032 C   0  0  0  0  0  0  0  0  0  0  0  0
   11.3751   -1.5288   22.4476 C   0  0  0  0  0  0  0  0  0  0  0  0
   10.5826   -1.4744   21.2276 N   0  0  0  0  0  0  0  0  0  0  0  0
    9.2936   -1.0810   21.2358 C   0  0  0  0  0  0  0  0  0  0  0  0
    8.7178   -0.7478   22.2682 O   0  0  0  0  0  0  0  0  0  0  0  0
    8.6774   -1.0776   20.0333 N   0  0  0  0  0  0  0  0  0  0  0  0
    7.2581   -0.7615   19.8703 C   0  0  0  0  0  0  0  0  0  0  0  0
    7.0120    0.7586   19.9590 C   0  0  0  0  0  0  0  0  0  0  0  0
    5.5489    1.1273   19.7203 C   0  0  0  0  0  0  0  0  0  0  0  0
    5.0421    0.5597   18.4007 C   0  0  0  0  0  0  0  0  0  0  0  0
    5.2582   -0.9453   18.3312 C   0  0  0  0  0  0  0  0  0  0  0  0
    6.7277   -1.3017   18.5313 C   0  0  0  0  0  0  0  0  0  0  0  0
   11.6493    3.4537   22.8686 C   0  0  0  0  0  0  0  0  0  0  0  0
   12.5107    4.6907   22.7827 C   0  0  0  0  0  0  0  0  0  0  0  0
   12.6741    5.5570   23.8464 C   0  0  0  0  0  0  0  0  0  0  0  0
   13.4279    6.6581   23.7929 N   0  0  0  0  0  0  0  0  0  0  0  0
   14.0281    6.8820   22.6286 C   0  0  0  0  0  0  0  0  0  0  0  0
   13.9546    6.1344   21.5324 N   0  0  0  0  0  0  0  0  0  0  0  0
   13.1898    5.0442   21.6327 C   0  0  0  0  0  0  0  0  0  0  0  0
  1  2  1  0
  2  3  1  0
  3  4  1  0
  4  5  1  0
  5  6  1  0
  6  7  1  0
  7  8  2  0
  7  9  1  0
  9 10  1  0
 10 11  1  0
 11 12  1  0
 12 13  1  0
 13 14  1  0
 14 15  1  0
  2 16  1  0
 16 17  1  0
 17 18  2  0
 18 19  1  0
 19 20  2  0
 20 21  1  0
 21 22  2  0
 15 10  1  0
 22 17  1  0
M  END
