CVD-0002336|dock_bobby27042020.34|mol2|37|dock2
     RDKit          3D

 26 28  0  0  0  0  0  0  0  0999 V2000
   14.1088    5.7119   22.0666 C   0  0  0  0  0  0  0  0  0  0  0  0
   14.0469    4.6625   23.4675 S   0  0  0  0  0  0  0  0  0  0  0  0
   13.2338    5.2838   24.4670 O   0  0  0  0  0  0  0  0  0  0  0  0
   15.3880    4.3001   23.8083 O   0  0  0  0  0  0  0  0  0  0  0  0
   13.2907    3.2963   23.0028 N   0  0  0  0  0  0  0  0  0  0  0  0
   11.8981    3.2015   22.6924 C   0  0  0  0  0  0  0  0  0  0  0  0
   11.0699    4.3154   22.7713 C   0  0  0  0  0  0  0  0  0  0  0  0
    9.7247    4.1965   22.4656 C   0  0  0  0  0  0  0  0  0  0  0  0
    9.2008    2.9739   22.0816 C   0  0  0  0  0  0  0  0  0  0  0  0
   10.0171    1.8520   21.9983 C   0  0  0  0  0  0  0  0  0  0  0  0
   11.3687    1.9748   22.3064 C   0  0  0  0  0  0  0  0  0  0  0  0
    9.4345    0.5381   21.5816 C   0  0  0  0  0  0  0  0  0  0  0  0
   10.0993   -0.4850   21.5570 O   0  0  0  0  0  0  0  0  0  0  0  0
    8.1205    0.6436   21.2417 O   0  0  0  0  0  0  0  0  0  0  0  0
    7.3773   -0.4226   20.6897 C   0  0  0  0  0  0  0  0  0  0  0  0
    6.7962   -0.2351   19.4504 C   0  0  0  0  0  0  0  0  0  0  0  0
    6.0634   -1.2635   18.8888 C   0  0  0  0  0  0  0  0  0  0  0  0
    5.9084   -2.4650   19.5585 C   0  0  0  0  0  0  0  0  0  0  0  0
    6.4867   -2.6612   20.8103 C   0  0  0  0  0  0  0  0  0  0  0  0
    7.2252   -1.6204   21.3732 C   0  0  0  0  0  0  0  0  0  0  0  0
    6.3107   -3.9209   21.4877 N   0  0  0  0  0  0  0  0  0  0  0  0
    6.2792   -4.0043   22.9499 C   0  0  0  0  0  0  0  0  0  0  0  0
    6.0421   -5.4664   23.2379 C   0  0  0  0  0  0  0  0  0  0  0  0
    6.1463   -6.2012   21.9254 C   0  0  0  0  0  0  0  0  0  0  0  0
    6.2611   -5.1458   20.8668 C   0  0  0  0  0  0  0  0  0  0  0  0
    6.3123   -5.2877   19.6524 O   0  0  0  0  0  0  0  0  0  0  0  0
  1  2  1  0
  2  3  2  0
  2  4  2  0
  2  5  1  0
  5  6  1  0
  6  7  2  0
  7  8  1  0
  8  9  2  0
  9 10  1  0
 10 11  2  0
 10 12  1  0
 12 13  2  0
 12 14  1  0
 14 15  1  0
 15 16  2  0
 16 17  1  0
 17 18  2  0
 18 19  1  0
 19 20  2  0
 19 21  1  0
 21 22  1  0
 22 23  1  0
 23 24  1  0
 24 25  1  0
 25 26  2  0
 11  6  1  0
 20 15  1  0
 25 21  1  0
M  END
