CVD-0002915|dock_bobby27042020.18|mol2|17|dock3
     RDKit          3D

 22 24  0  0  0  0  0  0  0  0999 V2000
   13.4366   -1.9604   25.8214 C   0  0  0  0  0  0  0  0  0  0  0  0
   13.1415   -1.3215   24.5391 N   0  0  0  0  0  0  0  0  0  0  0  0
   12.4450   -0.0447   24.7221 C   0  0  0  0  0  0  0  0  0  0  0  0
   12.2309    0.6336   23.3818 C   0  0  0  0  0  0  0  0  0  0  0  0
   11.4665   -0.2356   22.4847 N   0  0  0  0  0  0  0  0  0  0  0  0
   12.1074   -1.5452   22.3281 C   0  0  0  0  0  0  0  0  0  0  0  0
   12.3329   -2.1873   23.6848 C   0  0  0  0  0  0  0  0  0  0  0  0
   13.4553   -1.5823   21.6063 C   0  0  0  0  0  0  0  0  0  0  0  0
   13.4294   -1.8464   20.3096 N   0  0  0  0  0  0  0  0  0  0  0  0
   14.4977   -1.3715   22.2301 O   0  0  0  0  0  0  0  0  0  0  0  0
   10.2580    0.1074   21.9539 C   0  0  0  0  0  0  0  0  0  0  0  0
    9.7328    1.2058   22.0818 O   0  0  0  0  0  0  0  0  0  0  0  0
    9.4925   -0.9233   21.1416 C   0  0  0  0  0  0  0  0  0  0  0  0
    8.2480   -0.3824   20.5036 C   0  0  0  0  0  0  0  0  0  0  0  0
    7.9770   -0.2938   19.1696 C   0  0  0  0  0  0  0  0  0  0  0  0
    6.7388    0.2548   18.9652 N   0  0  0  0  0  0  0  0  0  0  0  0
    6.1815    0.5336   20.1786 C   0  0  0  0  0  0  0  0  0  0  0  0
    4.9763    1.0783   20.4162 N   0  0  0  0  0  0  0  0  0  0  0  0
    4.6496    1.2558   21.7036 C   0  0  0  0  0  0  0  0  0  0  0  0
    5.4691    0.9151   22.7584 C   0  0  0  0  0  0  0  0  0  0  0  0
    6.7091    0.3542   22.4954 C   0  0  0  0  0  0  0  0  0  0  0  0
    7.0966    0.1488   21.1729 C   0  0  0  0  0  0  0  0  0  0  0  0
  1  2  1  0
  2  3  1  0
  3  4  1  0
  4  5  1  0
  5  6  1  0
  6  7  1  0
  6  8  1  0
  8  9  1  0
  8 10  2  0
  5 11  1  0
 11 12  2  0
 11 13  1  0
 13 14  1  0
 14 15  2  0
 15 16  1  0
 16 17  1  0
 17 18  2  0
 18 19  1  0
 19 20  2  0
 20 21  1  0
 21 22  2  0
  7  2  1  0
 22 14  1  0
 22 17  1  0
M  END
