CVD-0003573|dock_bobby27042020.73|mol2|22|dock2
     RDKit          3D

 23 24  0  0  0  0  0  0  0  0999 V2000
    5.6923   -2.2682   18.7530 C   0  0  0  0  0  0  0  0  0  0  0  0
    6.3954   -2.8293   19.9539 C   0  0  0  0  0  0  0  0  0  0  0  0
    5.8639   -3.6848   20.6536 O   0  0  0  0  0  0  0  0  0  0  0  0
    7.6235   -2.2915   20.1730 N   0  0  0  0  0  0  0  0  0  0  0  0
    8.5906   -2.5240   21.1825 C   0  0  0  0  0  0  0  0  0  0  0  0
    9.7760   -1.7979   21.1299 C   0  0  0  0  0  0  0  0  0  0  0  0
   10.7738   -1.9668   22.0806 C   0  0  0  0  0  0  0  0  0  0  0  0
   12.0501   -1.1635   22.0011 C   0  0  0  0  0  0  0  0  0  0  0  0
   12.0112    0.0742   22.7936 N   0  0  0  0  0  0  0  0  0  0  0  0
   10.9964    0.9901   22.2645 C   0  0  0  0  0  0  0  0  0  0  0  0
   10.9319    2.2481   23.1108 C   0  0  0  0  0  0  0  0  0  0  0  0
   12.2391    2.9076   23.1472 N   0  0  0  0  0  0  0  0  0  0  0  0
   13.2887    1.9976   23.6162 C   0  0  0  0  0  0  0  0  0  0  0  0
   13.3119    0.7383   22.7691 C   0  0  0  0  0  0  0  0  0  0  0  0
   12.4146    4.2017   22.8122 C   0  0  0  0  0  0  0  0  0  0  0  0
   11.4819    4.9134   22.4618 O   0  0  0  0  0  0  0  0  0  0  0  0
   13.8336    4.7302   22.8864 C   0  0  0  0  0  0  0  0  0  0  0  0
   13.9041    6.4395   22.4385 Cl  0  0  0  0  0  0  0  0  0  0  0  0
   10.5813   -2.8806   23.1068 C   0  0  0  0  0  0  0  0  0  0  0  0
    9.4016   -3.6166   23.1760 C   0  0  0  0  0  0  0  0  0  0  0  0
    8.4071   -3.4403   22.2164 C   0  0  0  0  0  0  0  0  0  0  0  0
    9.2084   -4.5650   24.2450 C   0  0  0  0  0  0  0  0  0  0  0  0
    9.0643   -5.2929   25.1135 N   0  0  0  0  0  0  0  0  0  0  0  0
  1  2  1  0
  2  3  2  0
  2  4  1  0
  4  5  1  0
  5  6  2  0
  6  7  1  0
  7  8  1  0
  8  9  1  0
  9 10  1  0
 10 11  1  0
 11 12  1  0
 12 13  1  0
 13 14  1  0
 12 15  1  0
 15 16  2  0
 15 17  1  0
 17 18  1  0
  7 19  2  0
 19 20  1  0
 20 21  2  0
 20 22  1  0
 22 23  3  0
 21  5  1  0
 14  9  1  0
M  END
