CVD-0002056|dock_bobby27042020.93|mol2|11|dock1
     RDKit          3D

 34 37  0  0  0  0  0  0  0  0999 V2000
   13.6816    8.7567   28.5221 C   0  0  0  0  0  0  0  0  0  0  0  0
   13.0612    8.2392   27.2997 N   0  0  0  0  0  0  0  0  0  0  0  0
   12.2213    7.0535   27.5003 C   0  0  0  0  0  0  0  0  0  0  0  0
   11.8631    6.3971   26.1930 C   0  0  0  0  0  0  0  0  0  0  0  0
   10.5552    6.1887   25.7204 C   0  0  0  0  0  0  0  0  0  0  0  0
   10.5874    5.5602   24.4884 C   0  0  0  0  0  0  0  0  0  0  0  0
    9.4239    5.1707   23.6477 C   0  0  0  0  0  0  0  0  0  0  0  0
    8.8218    6.0840   22.7760 C   0  0  0  0  0  0  0  0  0  0  0  0
    7.7563    5.7131   21.9725 C   0  0  0  0  0  0  0  0  0  0  0  0
    7.2423    4.4383   22.0354 C   0  0  0  0  0  0  0  0  0  0  0  0
    7.7944    3.5174   22.9057 C   0  0  0  0  0  0  0  0  0  0  0  0
    8.8635    3.8983   23.6814 C   0  0  0  0  0  0  0  0  0  0  0  0
    9.3725    2.9532   24.5047 F   0  0  0  0  0  0  0  0  0  0  0  0
   11.9652    5.3597   24.1979 N   0  0  0  0  0  0  0  0  0  0  0  0
   12.7259    5.8773   25.2399 C   0  0  0  0  0  0  0  0  0  0  0  0
   12.7284    4.6327   22.8691 S   0  0  0  0  0  0  0  0  0  0  0  0
   12.3969    5.4231   21.7244 O   0  0  0  0  0  0  0  0  0  0  0  0
   14.0922    4.4289   23.2480 O   0  0  0  0  0  0  0  0  0  0  0  0
   11.9625    3.0592   22.6858 C   0  0  0  0  0  0  0  0  0  0  0  0
   11.8723    2.1915   23.7609 C   0  0  0  0  0  0  0  0  0  0  0  0
   11.2591    0.9648   23.5802 C   0  0  0  0  0  0  0  0  0  0  0  0
   10.7556    0.6465   22.3294 C   0  0  0  0  0  0  0  0  0  0  0  0
   10.0739   -0.6732   22.0699 C   0  0  0  0  0  0  0  0  0  0  0  0
    9.5157   -0.7728   20.7358 N   0  0  0  0  0  0  0  0  0  0  0  0
    8.2938   -0.2838   20.3863 C   0  0  0  0  0  0  0  0  0  0  0  0
    7.8575   -0.2993   19.0616 C   0  0  0  0  0  0  0  0  0  0  0  0
    6.6053    0.2129   18.7741 C   0  0  0  0  0  0  0  0  0  0  0  0
    5.8176    0.7262   19.7981 C   0  0  0  0  0  0  0  0  0  0  0  0
    6.3409    0.6977   21.0872 C   0  0  0  0  0  0  0  0  0  0  0  0
    7.5494    0.2062   21.3827 N   0  0  0  0  0  0  0  0  0  0  0  0
    4.5074    1.2680   19.5345 C   0  0  0  0  0  0  0  0  0  0  0  0
    3.4741    1.7187   19.3505 N   0  0  0  0  0  0  0  0  0  0  0  0
   10.8355    1.4813   21.2842 N   0  0  0  0  0  0  0  0  0  0  0  0
   11.4310    2.6639   21.4734 C   0  0  0  0  0  0  0  0  0  0  0  0
  1  2  1  0
  2  3  1  0
  3  4  1  0
  4  5  1  0
  5  6  2  0
  6  7  1  0
  7  8  2  0
  8  9  1  0
  9 10  2  0
 10 11  1  0
 11 12  2  0
 12 13  1  0
  6 14  1  0
 14 15  1  0
 14 16  1  0
 16 17  2  0
 16 18  2  0
 16 19  1  0
 19 20  2  0
 20 21  1  0
 21 22  2  0
 22 23  1  0
 23 24  1  0
 24 25  1  0
 25 26  2  0
 26 27  1  0
 27 28  2  0
 28 29  1  0
 29 30  2  0
 28 31  1  0
 31 32  3  0
 22 33  1  0
 33 34  2  0
 15  4  2  0
 34 19  1  0
 12  7  1  0
 30 25  1  0
M  END
