CVD-0001923|dock_bobby27042020.51|mol2|2|dock1
     RDKit          3D

 22 24  0  0  0  0  0  0  0  0999 V2000
   13.6884   -1.8475   21.4728 C   0  0  0  0  0  0  0  0  0  0  0  0
   12.3092   -1.3846   21.3030 N   0  0  0  0  0  0  0  0  0  0  0  0
   11.4119   -1.7567   22.4224 C   0  0  0  0  0  0  0  0  0  0  0  0
   11.8825   -1.1253   23.7424 C   0  0  0  0  0  0  0  0  0  0  0  0
   11.7400    0.3936   23.6954 C   0  0  0  0  0  0  0  0  0  0  0  0
   10.2983    0.7991   23.3984 C   0  0  0  0  0  0  0  0  0  0  0  0
    9.7769    0.1485   22.1289 C   0  0  0  0  0  0  0  0  0  0  0  0
    9.9588   -1.3733   22.1535 C   0  0  0  0  0  0  0  0  0  0  0  0
    8.3475    0.5701   21.7921 C   0  0  0  0  0  0  0  0  0  0  0  0
    7.7393    0.1915   20.4152 C   0  0  0  0  0  0  0  0  0  0  0  0
    6.3425    0.7893   20.3487 C   0  0  0  0  0  0  0  0  0  0  0  0
    5.7342    1.1799   19.1493 C   0  0  0  0  0  0  0  0  0  0  0  0
    6.4875    1.4203   18.0292 O   0  0  0  0  0  0  0  0  0  0  0  0
    4.3777    1.4911   19.1021 C   0  0  0  0  0  0  0  0  0  0  0  0
    3.8403    1.9392   17.9378 O   0  0  0  0  0  0  0  0  0  0  0  0
    3.6012    1.4193   20.2517 C   0  0  0  0  0  0  0  0  0  0  0  0
    4.1914    1.0355   21.4410 C   0  0  0  0  0  0  0  0  0  0  0  0
    5.5502    0.7221   21.4979 C   0  0  0  0  0  0  0  0  0  0  0  0
    6.2076    0.5195   22.8391 C   0  0  0  0  0  0  0  0  0  0  0  0
    6.3319    1.7597   23.7105 C   0  0  0  0  0  0  0  0  0  0  0  0
    5.0940    2.0725   24.4591 N   0  0  0  0  0  0  0  0  0  0  0  0
    7.4961   -0.0685   22.7676 O   0  0  0  0  0  0  0  0  0  0  0  0
  1  2  1  0
  2  3  1  0
  3  4  1  0
  4  5  1  0
  5  6  1  0
  6  7  1  0
  7  8  1  0
  7  9  1  0
  9 10  1  0
 10 11  1  0
 11 12  2  0
 12 13  1  0
 12 14  1  0
 14 15  1  0
 14 16  2  0
 16 17  1  0
 17 18  2  0
 18 19  1  0
 19 20  1  0
 20 21  1  0
 19 22  1  0
  8  3  1  0
 22  9  1  0
 18 11  1  0
M  END
