CVD-0002622|dock_bobby27042020.33|mol2|32|dock3
     RDKit          3D

 21 23  0  0  0  0  0  0  0  0999 V2000
   13.9993   -2.0863   25.7358 C   0  0  0  0  0  0  0  0  0  0  0  0
   13.4253   -1.9540   24.3461 C   0  0  0  0  0  0  0  0  0  0  0  0
   14.1585   -2.3379   23.2362 C   0  0  0  0  0  0  0  0  0  0  0  0
   13.6283   -2.2080   21.9652 C   0  0  0  0  0  0  0  0  0  0  0  0
   12.3564   -1.6914   21.7859 C   0  0  0  0  0  0  0  0  0  0  0  0
   11.5923   -1.3007   22.8843 C   0  0  0  0  0  0  0  0  0  0  0  0
   12.1524   -1.4396   24.1516 C   0  0  0  0  0  0  0  0  0  0  0  0
   10.2211   -0.7456   22.7821 C   0  0  0  0  0  0  0  0  0  0  0  0
    9.0633   -1.4916   22.6763 C   0  0  0  0  0  0  0  0  0  0  0  0
    8.0094   -0.5796   22.5999 C   0  0  0  0  0  0  0  0  0  0  0  0
    6.5401   -0.8350   22.4716 C   0  0  0  0  0  0  0  0  0  0  0  0
    6.0197   -0.5634   21.1291 N   0  0  0  0  0  0  0  0  0  0  0  0
    5.9964    0.8795   20.8603 C   0  0  0  0  0  0  0  0  0  0  0  0
    5.4107    1.1887   19.4966 C   0  0  0  0  0  0  0  0  0  0  0  0
    6.1415    0.4740   18.3665 C   0  0  0  0  0  0  0  0  0  0  0  0
    5.5326    0.6462   17.0839 O   0  0  0  0  0  0  0  0  0  0  0  0
    6.2410   -1.0062   18.7182 C   0  0  0  0  0  0  0  0  0  0  0  0
    6.8232   -1.2337   20.1033 C   0  0  0  0  0  0  0  0  0  0  0  0
    8.4574    0.6688   22.6510 N   0  0  0  0  0  0  0  0  0  0  0  0
    9.8118    0.5604   22.7689 N   0  0  0  0  0  0  0  0  0  0  0  0
   10.5670    1.8058   22.8254 C   0  0  0  0  0  0  0  0  0  0  0  0
  1  2  1  0
  2  3  2  0
  3  4  1  0
  4  5  2  0
  5  6  1  0
  6  7  2  0
  6  8  1  0
  8  9  2  0
  9 10  1  0
 10 11  1  0
 11 12  1  0
 12 13  1  0
 13 14  1  0
 14 15  1  0
 15 16  1  0
 15 17  1  0
 17 18  1  0
 10 19  2  0
 19 20  1  0
 20 21  1  0
  7  2  1  0
 20  8  1  0
 18 12  1  0
M  END
