CVD-0004060|dock_bobby27042020.57|mol2|36|dock1
     RDKit          3D

 23 26  0  0  0  0  0  0  0  0999 V2000
   14.0200   -2.1489   24.0589 C   0  0  0  0  0  0  0  0  0  0  0  0
   12.9609   -1.5969   23.1576 C   0  0  0  0  0  0  0  0  0  0  0  0
   12.1347   -0.4846   23.3548 C   0  0  0  0  0  0  0  0  0  0  0  0
   11.3240   -0.3963   22.2404 C   0  0  0  0  0  0  0  0  0  0  0  0
   11.6969   -1.4220   21.4402 N   0  0  0  0  0  0  0  0  0  0  0  0
   12.6918   -2.1702   21.9865 N   0  0  0  0  0  0  0  0  0  0  0  0
   10.2899    0.5350   21.8685 C   0  0  0  0  0  0  0  0  0  0  0  0
   10.2130    1.9675   21.9212 C   0  0  0  0  0  0  0  0  0  0  0  0
    9.0099    2.3943   21.5283 N   0  0  0  0  0  0  0  0  0  0  0  0
    8.3435    1.2890   21.1705 N   0  0  0  0  0  0  0  0  0  0  0  0
    7.0838    1.3657   20.6881 N   0  0  0  0  0  0  0  0  0  0  0  0
    6.5231    0.2275   20.3733 C   0  0  0  0  0  0  0  0  0  0  0  0
    5.1280    0.3026   19.8379 C   0  0  0  0  0  0  0  0  0  0  0  0
    7.1648   -1.0290   20.5154 C   0  0  0  0  0  0  0  0  0  0  0  0
    8.4249   -1.0664   21.0001 C   0  0  0  0  0  0  0  0  0  0  0  0
    9.0491    0.1497   21.3438 C   0  0  0  0  0  0  0  0  0  0  0  0
   11.1831    3.0194   22.2949 C   0  0  0  0  0  0  0  0  0  0  0  0
   10.7915    4.3062   22.6508 C   0  0  0  0  0  0  0  0  0  0  0  0
   11.7259    5.2746   22.9729 C   0  0  0  0  0  0  0  0  0  0  0  0
   13.0501    4.9327   22.9573 C   0  0  0  0  0  0  0  0  0  0  0  0
   13.9728    5.8815   23.2724 F   0  0  0  0  0  0  0  0  0  0  0  0
   13.4842    3.6756   22.6388 C   0  0  0  0  0  0  0  0  0  0  0  0
   12.5413    2.7187   22.3085 C   0  0  0  0  0  0  0  0  0  0  0  0
  1  2  1  0
  2  3  1  0
  3  4  2  0
  4  5  1  0
  5  6  1  0
  4  7  1  0
  7  8  1  0
  8  9  2  0
  9 10  1  0
 10 11  1  0
 11 12  2  0
 12 13  1  0
 12 14  1  0
 14 15  2  0
 15 16  1  0
  8 17  1  0
 17 18  2  0
 18 19  1  0
 19 20  2  0
 20 21  1  0
 20 22  1  0
 22 23  2  0
  6  2  2  0
 16  7  2  0
 23 17  1  0
 16 10  1  0
M  END
