CVD-0000557|dock_bobby27042020.84|mol2|1|dock1
     RDKit          3D

 24 26  0  0  0  0  0  0  0  0999 V2000
    9.1851    0.3249   22.3182 O   0  0  0  0  0  0  0  0  0  0  0  0
    9.6297   -0.4222   21.4532 C   0  0  0  0  0  0  0  0  0  0  0  0
   10.9004   -1.2246   21.6551 C   0  0  0  0  0  0  0  0  0  0  0  0
   11.9145   -0.7028   22.7051 C   0  0  0  0  0  0  0  0  0  0  0  0
   11.2594   -0.9191   24.0670 C   0  0  0  0  0  0  0  0  0  0  0  0
   12.2254   -0.6055   25.1921 C   0  0  0  0  0  0  0  0  0  0  0  0
   13.4985   -1.4296   25.0763 C   0  0  0  0  0  0  0  0  0  0  0  0
   14.1527   -1.2298   23.7188 C   0  0  0  0  0  0  0  0  0  0  0  0
   13.1853   -1.5316   22.5814 C   0  0  0  0  0  0  0  0  0  0  0  0
   12.1161    0.7480   22.6070 C   0  0  0  0  0  0  0  0  0  0  0  0
   12.2174    1.9309   22.5335 C   0  0  0  0  0  0  0  0  0  0  0  0
   12.2715    3.3772   22.4589 C   0  0  0  0  0  0  0  0  0  0  0  0
   11.0775    3.9986   23.1815 C   0  0  0  0  0  0  0  0  0  0  0  0
   11.1862    5.5334   23.1542 C   0  0  0  0  0  0  0  0  0  0  0  0
   12.5941    6.0229   23.6286 C   0  0  0  0  0  0  0  0  0  0  0  0
   13.6500    5.3589   22.8799 N   0  0  0  0  0  0  0  0  0  0  0  0
   13.5792    3.9069   23.0270 C   0  0  0  0  0  0  0  0  0  0  0  0
    9.0652   -0.6263   20.2379 N   0  0  0  0  0  0  0  0  0  0  0  0
    7.8955   -0.0912   19.6426 C   0  0  0  0  0  0  0  0  0  0  0  0
    6.7981    0.1819   20.4493 C   0  0  0  0  0  0  0  0  0  0  0  0
    5.6471    0.7045   19.8870 C   0  0  0  0  0  0  0  0  0  0  0  0
    5.6249    0.9401   18.5320 C   0  0  0  0  0  0  0  0  0  0  0  0
    6.6603    0.6892   17.7310 N   0  0  0  0  0  0  0  0  0  0  0  0
    7.7681    0.1844   18.2830 C   0  0  0  0  0  0  0  0  0  0  0  0
  1  2  2  0
  2  3  1  0
  3  4  1  0
  4  5  1  0
  5  6  1  0
  6  7  1  0
  7  8  1  0
  8  9  1  0
  4 10  1  0
 10 11  3  0
 11 12  1  0
 12 13  1  0
 13 14  1  0
 14 15  1  0
 15 16  1  0
 16 17  1  0
  2 18  1  0
 18 19  1  0
 19 20  2  0
 20 21  1  0
 21 22  2  0
 22 23  1  0
 23 24  2  0
  9  4  1  0
 17 12  1  0
 24 19  1  0
M  END
