CVD-0002227|dock_bobby27042020.64|mol2|13|dock3
     RDKit          3D

 15 16  0  0  0  0  0  0  0  0999 V2000
   14.1559   -2.0816   23.1654 C   0  0  0  0  0  0  0  0  0  0  0  0
   12.7046   -1.7711   23.3864 C   0  0  0  0  0  0  0  0  0  0  0  0
   11.8448   -2.6396   23.2908 O   0  0  0  0  0  0  0  0  0  0  0  0
   12.3671   -0.4923   23.6828 N   0  0  0  0  0  0  0  0  0  0  0  0
   13.3557    0.5805   23.8107 C   0  0  0  0  0  0  0  0  0  0  0  0
   12.9959    1.7435   22.9049 C   0  0  0  0  0  0  0  0  0  0  0  0
   11.6582    2.2459   23.2315 N   0  0  0  0  0  0  0  0  0  0  0  0
   11.3219    3.3939   22.3867 C   0  0  0  0  0  0  0  0  0  0  0  0
   12.2905    4.5444   22.4986 C   0  0  0  0  0  0  0  0  0  0  0  0
   12.3059    5.4901   23.5533 C   0  0  0  0  0  0  0  0  0  0  0  0
   13.2678    6.4480   23.4407 C   0  0  0  0  0  0  0  0  0  0  0  0
   14.1683    6.1910   22.0240 S   0  0  0  0  0  0  0  0  0  0  0  0
   13.2644    4.8187   21.5870 C   0  0  0  0  0  0  0  0  0  0  0  0
   10.6867    1.1714   23.0446 C   0  0  0  0  0  0  0  0  0  0  0  0
   11.0086   -0.0072   23.9453 C   0  0  0  0  0  0  0  0  0  0  0  0
  1  2  1  0
  2  3  2  0
  2  4  1  0
  4  5  1  0
  5  6  1  0
  6  7  1  0
  7  8  1  0
  8  9  1  0
  9 10  1  0
 10 11  2  0
 11 12  1  0
 12 13  1  0
  7 14  1  0
 14 15  1  0
 15  4  1  0
 13  9  2  0
M  END
