CVD-0003546|dock_bobby27042020.73|mol2|26|dock1
     RDKit          3D

 22 24  0  0  0  0  0  0  0  0999 V2000
    5.6678   -3.1910   20.1276 O   0  0  0  0  0  0  0  0  0  0  0  0
    6.3798   -2.4934   19.4130 C   0  0  0  0  0  0  0  0  0  0  0  0
    5.8677   -1.9861   18.0760 C   0  0  0  0  0  0  0  0  0  0  0  0
    5.6528   -0.5466   18.1015 N   0  0  0  0  0  0  0  0  0  0  0  0
    5.0611    0.1772   19.0678 C   0  0  0  0  0  0  0  0  0  0  0  0
    5.0545    1.4773   18.6512 C   0  0  0  0  0  0  0  0  0  0  0  0
    5.6601    1.4536   17.4018 C   0  0  0  0  0  0  0  0  0  0  0  0
    6.0246    0.2271   17.0491 N   0  0  0  0  0  0  0  0  0  0  0  0
    7.6488   -2.1031   19.6855 N   0  0  0  0  0  0  0  0  0  0  0  0
    8.4908   -2.3574   20.7968 C   0  0  0  0  0  0  0  0  0  0  0  0
    8.2287   -3.3561   21.7311 C   0  0  0  0  0  0  0  0  0  0  0  0
    9.0918   -3.5538   22.7948 C   0  0  0  0  0  0  0  0  0  0  0  0
   10.2179   -2.7640   22.9394 C   0  0  0  0  0  0  0  0  0  0  0  0
   10.4866   -1.7669   22.0141 C   0  0  0  0  0  0  0  0  0  0  0  0
    9.6242   -1.5624   20.9418 C   0  0  0  0  0  0  0  0  0  0  0  0
   11.6651   -0.9467   22.1739 N   0  0  0  0  0  0  0  0  0  0  0  0
   11.6919    0.5109   22.4143 C   0  0  0  0  0  0  0  0  0  0  0  0
   12.8947    0.7150   23.3402 C   0  0  0  0  0  0  0  0  0  0  0  0
   14.0276   -0.1055   22.7411 C   0  0  0  0  0  0  0  0  0  0  0  0
   13.2135   -1.5118   21.9903 S   0  0  0  0  0  0  0  0  0  0  0  0
   13.5298   -1.5815   20.5991 O   0  0  0  0  0  0  0  0  0  0  0  0
   13.4193   -2.6891   22.7724 O   0  0  0  0  0  0  0  0  0  0  0  0
  1  2  2  0
  2  3  1  0
  3  4  1  0
  4  5  1  0
  5  6  2  0
  6  7  1  0
  7  8  2  0
  2  9  1  0
  9 10  1  0
 10 11  2  0
 11 12  1  0
 12 13  2  0
 13 14  1  0
 14 15  2  0
 14 16  1  0
 16 17  1  0
 17 18  1  0
 18 19  1  0
 19 20  1  0
 20 21  2  0
 20 22  2  0
  8  4  1  0
 15 10  1  0
 20 16  1  0
M  END
