CVD-0000724|dock_bobby27042020.97|mol2|36|dock2
     RDKit          3D

 22 24  0  0  0  0  0  0  0  0999 V2000
    6.4169   -6.3141   21.3321 C   0  0  0  0  0  0  0  0  0  0  0  0
    7.0471   -5.6893   22.4887 N   0  0  0  0  0  0  0  0  0  0  0  0
    6.7721   -4.4909   23.0209 C   0  0  0  0  0  0  0  0  0  0  0  0
    7.5971   -4.3283   24.1276 C   0  0  0  0  0  0  0  0  0  0  0  0
    7.6730   -3.1419   25.0488 C   0  0  0  0  0  0  0  0  0  0  0  0
    8.2473   -1.8985   24.4148 C   0  0  0  0  0  0  0  0  0  0  0  0
    9.1790   -1.0837   24.9238 C   0  0  0  0  0  0  0  0  0  0  0  0
    9.5398    0.0192   23.9577 C   0  0  0  0  0  0  0  0  0  0  0  0
    8.6260   -0.2083   22.7753 C   0  0  0  0  0  0  0  0  0  0  0  0
    7.7797   -1.4282   23.0582 C   0  0  0  0  0  0  0  0  0  0  0  0
    9.3515   -0.3525   21.4490 C   0  0  0  0  0  0  0  0  0  0  0  0
   10.1215   -1.4131   21.2534 N   0  0  0  0  0  0  0  0  0  0  0  0
    9.2144    0.5112   20.5798 O   0  0  0  0  0  0  0  0  0  0  0  0
   11.0045    0.0698   23.5508 C   0  0  0  0  0  0  0  0  0  0  0  0
   11.5320    1.2113   22.9635 C   0  0  0  0  0  0  0  0  0  0  0  0
   12.8655    1.2679   22.5951 C   0  0  0  0  0  0  0  0  0  0  0  0
   13.6939    0.1797   22.8104 C   0  0  0  0  0  0  0  0  0  0  0  0
   13.1648   -0.9503   23.3940 C   0  0  0  0  0  0  0  0  0  0  0  0
   14.1948   -2.3267   23.6714 Cl  0  0  0  0  0  0  0  0  0  0  0  0
   11.8373   -1.0192   23.7649 C   0  0  0  0  0  0  0  0  0  0  0  0
    8.3371   -5.5328   24.1581 C   0  0  0  0  0  0  0  0  0  0  0  0
    8.0029   -6.3569   23.1788 N   0  0  0  0  0  0  0  0  0  0  0  0
  1  2  1  0
  2  3  1  0
  3  4  2  0
  4  5  1  0
  5  6  1  0
  6  7  2  0
  7  8  1  0
  8  9  1  0
  9 10  1  0
  9 11  1  0
 11 12  1  0
 11 13  2  0
  8 14  1  0
 14 15  2  0
 15 16  1  0
 16 17  2  0
 17 18  1  0
 18 19  1  0
 18 20  2  0
  4 21  1  0
 21 22  2  0
 22  2  1  0
 10  6  1  0
 20 14  1  0
M  END
