CVD-0001127|dock_bobby27042020.82|mol2|7|dock1
     RDKit          3D

 25 27  0  0  0  0  0  0  0  0999 V2000
    6.2603   -0.3225   19.6734 N   0  0  0  0  0  0  0  0  0  0  0  0
    7.5435   -0.7411   19.5739 C   0  0  0  0  0  0  0  0  0  0  0  0
    8.0406   -0.7916   18.3811 N   0  0  0  0  0  0  0  0  0  0  0  0
    8.2996   -1.1123   20.8160 C   0  0  0  0  0  0  0  0  0  0  0  0
    7.9469   -2.2358   21.5618 C   0  0  0  0  0  0  0  0  0  0  0  0
    8.6441   -2.5803   22.7060 C   0  0  0  0  0  0  0  0  0  0  0  0
    9.7133   -1.8135   23.1290 C   0  0  0  0  0  0  0  0  0  0  0  0
   10.0849   -0.6882   22.4071 C   0  0  0  0  0  0  0  0  0  0  0  0
    9.3764   -0.3432   21.2591 C   0  0  0  0  0  0  0  0  0  0  0  0
   11.2108    0.1063   22.8477 N   0  0  0  0  0  0  0  0  0  0  0  0
   11.2966    1.5148   22.6988 C   0  0  0  0  0  0  0  0  0  0  0  0
   10.3084    2.1369   22.3324 O   0  0  0  0  0  0  0  0  0  0  0  0
   12.4924    2.1416   22.9658 N   0  0  0  0  0  0  0  0  0  0  0  0
   12.8400    3.5175   22.9178 C   0  0  0  0  0  0  0  0  0  0  0  0
   11.8607    4.4466   23.2467 C   0  0  0  0  0  0  0  0  0  0  0  0
   12.1548    5.7983   23.2213 C   0  0  0  0  0  0  0  0  0  0  0  0
   13.4247    6.1886   22.8675 C   0  0  0  0  0  0  0  0  0  0  0  0
   14.3869    5.3257   22.5431 N   0  0  0  0  0  0  0  0  0  0  0  0
   14.0908    4.0222   22.5626 C   0  0  0  0  0  0  0  0  0  0  0  0
   12.2884   -0.6594   23.4417 C   0  0  0  0  0  0  0  0  0  0  0  0
   12.7242   -0.4245   24.7423 C   0  0  0  0  0  0  0  0  0  0  0  0
   13.7618   -1.1662   25.2819 C   0  0  0  0  0  0  0  0  0  0  0  0
   14.3698   -2.1553   24.5415 C   0  0  0  0  0  0  0  0  0  0  0  0
   13.9416   -2.4043   23.2565 C   0  0  0  0  0  0  0  0  0  0  0  0
   12.9098   -1.6632   22.7050 C   0  0  0  0  0  0  0  0  0  0  0  0
  1  2  1  0
  2  3  2  0
  2  4  1  0
  4  5  2  0
  5  6  1  0
  6  7  2  0
  7  8  1  0
  8  9  2  0
  8 10  1  0
 10 11  1  0
 11 12  2  0
 11 13  1  0
 13 14  1  0
 14 15  2  0
 15 16  1  0
 16 17  2  0
 17 18  1  0
 18 19  2  0
 10 20  1  0
 20 21  2  0
 21 22  1  0
 22 23  2  0
 23 24  1  0
 24 25  2  0
  9  4  1  0
 19 14  1  0
 25 20  1  0
M  END
