CVD-0002104|dock_bobby27042020.21|mol2|31|dock1
     RDKit          3D

 31 35  0  0  0  0  0  0  0  0999 V2000
    8.3752    4.7784   22.0023 N   0  0  0  0  0  0  0  0  0  0  0  0
    8.4011    3.5264   22.7934 C   0  0  0  0  0  0  0  0  0  0  0  0
    9.8087    3.0316   23.1061 C   0  0  0  0  0  0  0  0  0  0  0  0
   10.2688    2.3584   21.9454 O   0  0  0  0  0  0  0  0  0  0  0  0
   11.6427    1.9297   22.0591 C   0  0  0  0  0  0  0  0  0  0  0  0
   12.4789    3.2358   22.0310 C   0  0  0  0  0  0  0  0  0  0  0  0
   12.0871    4.0710   23.2396 C   0  0  0  0  0  0  0  0  0  0  0  0
   12.9605    4.9741   23.8584 C   0  0  0  0  0  0  0  0  0  0  0  0
   14.3160    4.8731   23.6743 O   0  0  0  0  0  0  0  0  0  0  0  0
   12.4971    5.8890   24.8002 C   0  0  0  0  0  0  0  0  0  0  0  0
   13.3844    6.7061   25.4252 O   0  0  0  0  0  0  0  0  0  0  0  0
   11.1513    5.9204   25.1443 C   0  0  0  0  0  0  0  0  0  0  0  0
   10.2812    5.0330   24.5399 C   0  0  0  0  0  0  0  0  0  0  0  0
   10.7380    4.1132   23.5954 C   0  0  0  0  0  0  0  0  0  0  0  0
   11.7261    1.0255   23.2885 C   0  0  0  0  0  0  0  0  0  0  0  0
   13.1359    0.4336   23.4459 C   0  0  0  0  0  0  0  0  0  0  0  0
   13.4470   -0.5307   22.3044 C   0  0  0  0  0  0  0  0  0  0  0  0
   12.4082   -1.6477   22.2332 C   0  0  0  0  0  0  0  0  0  0  0  0
   10.9946   -1.1009   22.1346 C   0  0  0  0  0  0  0  0  0  0  0  0
   10.6932   -0.0980   23.2538 C   0  0  0  0  0  0  0  0  0  0  0  0
    9.9872   -2.1537   22.0293 N   0  0  0  0  0  0  0  0  0  0  0  0
    8.9159   -2.1178   21.1861 C   0  0  0  0  0  0  0  0  0  0  0  0
    8.0651   -3.2181   21.0674 C   0  0  0  0  0  0  0  0  0  0  0  0
    7.0085   -3.1368   20.2131 C   0  0  0  0  0  0  0  0  0  0  0  0
    6.7894   -1.9560   19.4678 C   0  0  0  0  0  0  0  0  0  0  0  0
    5.7192   -1.7838   18.5585 C   0  0  0  0  0  0  0  0  0  0  0  0
    5.5746   -0.6127   17.8755 C   0  0  0  0  0  0  0  0  0  0  0  0
    6.4658    0.4249   18.0563 C   0  0  0  0  0  0  0  0  0  0  0  0
    7.5128    0.3055   18.9219 C   0  0  0  0  0  0  0  0  0  0  0  0
    7.7021   -0.8910   19.6519 C   0  0  0  0  0  0  0  0  0  0  0  0
    8.7618   -0.9865   20.5155 N   0  0  0  0  0  0  0  0  0  0  0  0
  1  2  1  0
  2  3  1  0
  3  4  1  0
  4  5  1  0
  5  6  1  0
  6  7  1  0
  7  8  2  0
  8  9  1  0
  8 10  1  0
 10 11  1  0
 10 12  2  0
 12 13  1  0
 13 14  2  0
  5 15  1  0
 15 16  1  0
 16 17  1  0
 17 18  1  0
 18 19  1  0
 19 20  1  0
 19 21  1  0
 21 22  1  0
 22 23  2  0
 23 24  1  0
 24 25  2  0
 25 26  1  0
 26 27  2  0
 27 28  1  0
 28 29  2  0
 29 30  1  0
 30 31  2  0
 14  3  1  0
 20 15  1  0
 31 22  1  0
 14  7  1  0
 30 25  1  0
M  END
