CVD-0000203|dock_bobby27042020.42|mol2|23|dock3
     RDKit          3D

 27 31  0  0  0  0  0  0  0  0999 V2000
   12.7926    4.4048   23.1596 C   0  0  0  0  0  0  0  0  0  0  0  0
   12.0846    3.1246   22.8027 C   0  0  0  0  0  0  0  0  0  0  0  0
   12.8154    1.9457   22.6858 C   0  0  0  0  0  0  0  0  0  0  0  0
   12.1766    0.7519   22.3578 C   0  0  0  0  0  0  0  0  0  0  0  0
   12.6914   -0.5285   22.1851 N   0  0  0  0  0  0  0  0  0  0  0  0
   11.6482   -1.2607   21.8811 C   0  0  0  0  0  0  0  0  0  0  0  0
   10.4588   -0.5722   21.8458 N   0  0  0  0  0  0  0  0  0  0  0  0
    9.1489   -1.0923   21.5321 C   0  0  0  0  0  0  0  0  0  0  0  0
    8.4601   -0.3389   20.6937 N   0  0  0  0  0  0  0  0  0  0  0  0
    7.2901   -0.7992   20.2360 C   0  0  0  0  0  0  0  0  0  0  0  0
    6.7201   -1.9557   20.5530 N   0  0  0  0  0  0  0  0  0  0  0  0
    7.3717   -2.7156   21.4859 C   0  0  0  0  0  0  0  0  0  0  0  0
    6.7770   -3.9354   21.8852 C   0  0  0  0  0  0  0  0  0  0  0  0
    7.3715   -4.7185   22.8281 C   0  0  0  0  0  0  0  0  0  0  0  0
    8.5527   -4.3281   23.4214 C   0  0  0  0  0  0  0  0  0  0  0  0
    9.1583   -3.1586   23.0699 C   0  0  0  0  0  0  0  0  0  0  0  0
    8.6099   -2.3214   22.0598 C   0  0  0  0  0  0  0  0  0  0  0  0
    6.5550    0.0616   19.2804 C   0  0  0  0  0  0  0  0  0  0  0  0
    5.2377    0.4388   19.5114 C   0  0  0  0  0  0  0  0  0  0  0  0
    4.5807    1.2448   18.5983 C   0  0  0  0  0  0  0  0  0  0  0  0
    5.2621    1.6528   17.4742 C   0  0  0  0  0  0  0  0  0  0  0  0
    6.5256    1.3090   17.2206 N   0  0  0  0  0  0  0  0  0  0  0  0
    7.1442    0.5308   18.1140 C   0  0  0  0  0  0  0  0  0  0  0  0
   10.7950    0.7531   22.1511 C   0  0  0  0  0  0  0  0  0  0  0  0
   10.0474    1.9211   22.2679 C   0  0  0  0  0  0  0  0  0  0  0  0
   10.6950    3.1109   22.5926 C   0  0  0  0  0  0  0  0  0  0  0  0
    9.8916    4.3782   22.7201 C   0  0  0  0  0  0  0  0  0  0  0  0
  1  2  1  0
  2  3  2  0
  3  4  1  0
  4  5  1  0
  5  6  2  0
  6  7  1  0
  7  8  1  0
  8  9  2  0
  9 10  1  0
 10 11  2  0
 11 12  1  0
 12 13  2  0
 13 14  1  0
 14 15  2  0
 15 16  1  0
 16 17  2  0
 10 18  1  0
 18 19  2  0
 19 20  1  0
 20 21  2  0
 21 22  1  0
 22 23  2  0
  7 24  1  0
 24 25  1  0
 25 26  2  0
 26 27  1  0
 26  2  1  0
 24  4  2  0
 17  8  1  0
 23 18  1  0
 17 12  1  0
M  END
