CVD-0001546|dock_bobby27042020.52|mol2|19|dock1
     RDKit          3D

 31 34  0  0  0  0  0  0  0  0999 V2000
    7.8254   -5.9744   24.1625 F   0  0  0  0  0  0  0  0  0  0  0  0
    7.2889   -5.7801   22.9277 C   0  0  0  0  0  0  0  0  0  0  0  0
    6.4223   -6.7187   22.4391 C   0  0  0  0  0  0  0  0  0  0  0  0
    5.8815   -6.5138   21.1816 C   0  0  0  0  0  0  0  0  0  0  0  0
    6.2148   -5.3862   20.4499 C   0  0  0  0  0  0  0  0  0  0  0  0
    7.0940   -4.4567   20.9793 C   0  0  0  0  0  0  0  0  0  0  0  0
    7.4102   -3.3417   20.2302 O   0  0  0  0  0  0  0  0  0  0  0  0
    6.5351   -2.1943   20.1689 C   0  0  0  0  0  0  0  0  0  0  0  0
    5.7047   -2.2323   18.8801 C   0  0  0  0  0  0  0  0  0  0  0  0
    5.8038   -1.1137   18.0277 C   0  0  0  0  0  0  0  0  0  0  0  0
    6.7610   -0.1067   18.2366 C   0  0  0  0  0  0  0  0  0  0  0  0
    7.5133   -0.1081   19.5639 C   0  0  0  0  0  0  0  0  0  0  0  0
    7.3975   -1.1661   20.4632 C   0  0  0  0  0  0  0  0  0  0  0  0
    8.1763   -1.2186   21.7303 C   0  0  0  0  0  0  0  0  0  0  0  0
    7.5906   -1.1282   22.8085 O   0  0  0  0  0  0  0  0  0  0  0  0
    9.5033   -1.3633   21.6787 N   0  0  0  0  0  0  0  0  0  0  0  0
   10.3099   -1.3651   22.8903 C   0  0  0  0  0  0  0  0  0  0  0  0
   11.6833   -0.7702   22.6939 C   0  0  0  0  0  0  0  0  0  0  0  0
   12.7969   -1.5850   22.5855 C   0  0  0  0  0  0  0  0  0  0  0  0
   14.0499   -1.0313   22.3979 C   0  0  0  0  0  0  0  0  0  0  0  0
   14.2004    0.3422   22.3125 C   0  0  0  0  0  0  0  0  0  0  0  0
   13.0984    1.1901   22.4242 C   0  0  0  0  0  0  0  0  0  0  0  0
   11.8465    0.6071   22.6147 C   0  0  0  0  0  0  0  0  0  0  0  0
   13.2120    2.6612   22.3464 C   0  0  0  0  0  0  0  0  0  0  0  0
   12.3702    3.4428   21.6001 C   0  0  0  0  0  0  0  0  0  0  0  0
   12.5424    4.8365   21.5772 C   0  0  0  0  0  0  0  0  0  0  0  0
   13.5393    5.4395   22.2875 C   0  0  0  0  0  0  0  0  0  0  0  0
   14.4373    4.6582   23.0789 C   0  0  0  0  0  0  0  0  0  0  0  0
   15.3699    5.1099   23.7586 O   0  0  0  0  0  0  0  0  0  0  0  0
   14.2129    3.2954   23.0585 N   0  0  0  0  0  0  0  0  0  0  0  0
    7.6483   -4.6485   22.2374 C   0  0  0  0  0  0  0  0  0  0  0  0
  1  2  1  0
  2  3  2  0
  3  4  1  0
  4  5  2  0
  5  6  1  0
  6  7  1  0
  7  8  1  0
  8  9  1  0
  9 10  1  0
 10 11  1  0
 11 12  1  0
 12 13  2  0
 13 14  1  0
 14 15  2  0
 14 16  1  0
 16 17  1  0
 17 18  1  0
 18 19  2  0
 19 20  1  0
 20 21  2  0
 21 22  1  0
 22 23  2  0
 22 24  1  0
 24 25  2  0
 25 26  1  0
 26 27  2  0
 27 28  1  0
 28 29  2  0
 28 30  1  0
  6 31  2  0
 31  2  1  0
 13  8  1  0
 23 18  1  0
 30 24  1  0
M  END
