CVD-0002257|dock_bobby27042020.6|mol2|29|dock3
     RDKit          3D

 24 26  0  0  0  0  0  0  0  0999 V2000
    9.8580    3.7840   22.9318 C   0  0  0  0  0  0  0  0  0  0  0  0
   11.3610    3.8391   22.8283 C   0  0  0  0  0  0  0  0  0  0  0  0
   11.9744    5.0882   22.8335 C   0  0  0  0  0  0  0  0  0  0  0  0
   13.3437    5.1788   22.7271 C   0  0  0  0  0  0  0  0  0  0  0  0
   14.1337    4.1149   22.6212 N   0  0  0  0  0  0  0  0  0  0  0  0
   13.5570    2.9091   22.6303 C   0  0  0  0  0  0  0  0  0  0  0  0
   12.1796    2.6970   22.7185 C   0  0  0  0  0  0  0  0  0  0  0  0
   11.5509    1.4181   22.7082 N   0  0  0  0  0  0  0  0  0  0  0  0
   12.1058    0.1665   22.8458 C   0  0  0  0  0  0  0  0  0  0  0  0
   13.2875   -0.0166   23.1075 O   0  0  0  0  0  0  0  0  0  0  0  0
   11.2984   -0.9263   22.6786 N   0  0  0  0  0  0  0  0  0  0  0  0
   11.6934   -2.2186   23.2143 C   0  0  0  0  0  0  0  0  0  0  0  0
   10.5986   -2.7988   24.0533 C   0  0  0  0  0  0  0  0  0  0  0  0
    9.3679   -2.8696   23.2528 N   0  0  0  0  0  0  0  0  0  0  0  0
    8.9416   -1.5411   22.7888 C   0  0  0  0  0  0  0  0  0  0  0  0
   10.0292   -0.9454   21.9446 C   0  0  0  0  0  0  0  0  0  0  0  0
    8.2299   -3.9163   23.7367 S   0  0  0  0  0  0  0  0  0  0  0  0
    7.1442   -3.1511   24.2645 O   0  0  0  0  0  0  0  0  0  0  0  0
    7.9963   -4.8213   22.6555 O   0  0  0  0  0  0  0  0  0  0  0  0
    8.8921   -4.8449   25.0516 C   0  0  0  0  0  0  0  0  0  0  0  0
    9.2989   -6.2201   24.9720 C   0  0  0  0  0  0  0  0  0  0  0  0
    9.7793   -6.7082   26.1559 C   0  0  0  0  0  0  0  0  0  0  0  0
    9.7463   -5.5221   27.3735 S   0  0  0  0  0  0  0  0  0  0  0  0
    9.0914   -4.3908   26.2944 C   0  0  0  0  0  0  0  0  0  0  0  0
  1  2  1  0
  2  3  2  0
  3  4  1  0
  4  5  2  0
  5  6  1  0
  6  7  2  0
  7  8  1  0
  8  9  1  0
  9 10  2  0
  9 11  1  0
 11 12  1  0
 12 13  1  0
 13 14  1  0
 14 15  1  0
 15 16  1  0
 14 17  1  0
 17 18  2  0
 17 19  2  0
 17 20  1  0
 20 21  1  0
 21 22  2  0
 22 23  1  0
 23 24  1  0
  7  2  1  0
 16 11  1  0
 24 20  2  0
M  END
