CVD-0001923|dock_bobby27042020.93|mol2|34|dock1
     RDKit          3D

 22 24  0  0  0  0  0  0  0  0999 V2000
   13.9354   -2.6010   25.0985 C   0  0  0  0  0  0  0  0  0  0  0  0
   12.6321   -2.5179   24.4355 N   0  0  0  0  0  0  0  0  0  0  0  0
   12.6876   -1.9005   23.0894 C   0  0  0  0  0  0  0  0  0  0  0  0
   13.2367   -0.4666   23.1603 C   0  0  0  0  0  0  0  0  0  0  0  0
   12.2658    0.4472   23.9034 C   0  0  0  0  0  0  0  0  0  0  0  0
   10.8902    0.4386   23.2407 C   0  0  0  0  0  0  0  0  0  0  0  0
   10.3379   -0.9693   23.1004 C   0  0  0  0  0  0  0  0  0  0  0  0
   11.3286   -1.9012   22.3939 C   0  0  0  0  0  0  0  0  0  0  0  0
    8.9434   -0.9983   22.4727 C   0  0  0  0  0  0  0  0  0  0  0  0
    8.9662   -0.8121   20.9827 C   0  0  0  0  0  0  0  0  0  0  0  0
    7.6637   -0.3198   20.4060 C   0  0  0  0  0  0  0  0  0  0  0  0
    7.4659   -0.2239   19.0192 C   0  0  0  0  0  0  0  0  0  0  0  0
    8.5050   -0.3031   18.1318 O   0  0  0  0  0  0  0  0  0  0  0  0
    6.2117    0.1155   18.5094 C   0  0  0  0  0  0  0  0  0  0  0  0
    6.0582    0.2526   17.1667 O   0  0  0  0  0  0  0  0  0  0  0  0
    5.1458    0.3622   19.3646 C   0  0  0  0  0  0  0  0  0  0  0  0
    5.3440    0.2669   20.7289 C   0  0  0  0  0  0  0  0  0  0  0  0
    6.5937   -0.0716   21.2488 C   0  0  0  0  0  0  0  0  0  0  0  0
    6.8008   -0.0582   22.7446 C   0  0  0  0  0  0  0  0  0  0  0  0
    6.0575    1.0637   23.4578 C   0  0  0  0  0  0  0  0  0  0  0  0
    6.5980    1.3345   24.8086 N   0  0  0  0  0  0  0  0  0  0  0  0
    8.1828    0.0504   23.0920 O   0  0  0  0  0  0  0  0  0  0  0  0
  1  2  1  0
  2  3  1  0
  3  4  1  0
  4  5  1  0
  5  6  1  0
  6  7  1  0
  7  8  1  0
  7  9  1  0
  9 10  1  0
 10 11  1  0
 11 12  2  0
 12 13  1  0
 12 14  1  0
 14 15  1  0
 14 16  2  0
 16 17  1  0
 17 18  2  0
 18 19  1  0
 19 20  1  0
 20 21  1  0
 19 22  1  0
  8  3  1  0
 22  9  1  0
 18 11  1  0
M  END
