CVD-0002431|dock_bobby27042020.48|mol2|32|dock2
     RDKit          3D

 27 30  0  0  0  0  0  0  0  0999 V2000
    9.8860   -1.7355   22.5714 C   0  0  0  0  0  0  0  0  0  0  0  0
    8.5575   -1.2862   22.3224 O   0  0  0  0  0  0  0  0  0  0  0  0
    8.1926   -1.2674   20.9517 C   0  0  0  0  0  0  0  0  0  0  0  0
    6.6913   -1.5393   20.8223 C   0  0  0  0  0  0  0  0  0  0  0  0
    5.8677   -0.4833   21.6135 C   0  0  0  0  0  0  0  0  0  0  0  0
    5.2397    0.4207   20.6031 C   0  0  0  0  0  0  0  0  0  0  0  0
    5.4955   -0.1265   19.2777 C   0  0  0  0  0  0  0  0  0  0  0  0
    6.2670   -1.3800   19.3450 C   0  0  0  0  0  0  0  0  0  0  0  0
    6.4919   -2.9538   21.2987 C   0  0  0  0  0  0  0  0  0  0  0  0
    6.5607   -3.2884   22.6421 C   0  0  0  0  0  0  0  0  0  0  0  0
    6.3683   -4.6101   23.0059 C   0  0  0  0  0  0  0  0  0  0  0  0
    6.1157   -5.5538   22.0344 C   0  0  0  0  0  0  0  0  0  0  0  0
    6.0651   -5.1343   20.7249 C   0  0  0  0  0  0  0  0  0  0  0  0
    6.2478   -3.8623   20.3470 N   0  0  0  0  0  0  0  0  0  0  0  0
   10.8915   -0.6259   22.3783 C   0  0  0  0  0  0  0  0  0  0  0  0
   10.3246    0.7298   22.6944 C   0  0  0  0  0  0  0  0  0  0  0  0
   11.3160    1.7666   22.4039 N   0  0  0  0  0  0  0  0  0  0  0  0
   10.8548    3.1579   22.5382 C   0  0  0  0  0  0  0  0  0  0  0  0
   11.9643    4.1798   22.4648 C   0  0  0  0  0  0  0  0  0  0  0  0
   12.8919    4.1451   21.4353 C   0  0  0  0  0  0  0  0  0  0  0  0
   13.9110    5.0805   21.3693 C   0  0  0  0  0  0  0  0  0  0  0  0
   14.0143    6.0607   22.3328 C   0  0  0  0  0  0  0  0  0  0  0  0
   13.0989    6.1054   23.3623 C   0  0  0  0  0  0  0  0  0  0  0  0
   12.0799    5.1699   23.4281 C   0  0  0  0  0  0  0  0  0  0  0  0
   12.5252    1.4921   23.1760 C   0  0  0  0  0  0  0  0  0  0  0  0
   13.0459    0.1155   22.8559 C   0  0  0  0  0  0  0  0  0  0  0  0
   12.0750   -0.8838   23.1156 O   0  0  0  0  0  0  0  0  0  0  0  0
  1  2  1  0
  2  3  1  0
  3  4  1  0
  4  5  1  0
  5  6  1  0
  6  7  1  0
  7  8  1  0
  4  9  1  0
  9 10  2  0
 10 11  1  0
 11 12  2  0
 12 13  1  0
 13 14  2  0
  1 15  1  0
 15 16  1  0
 16 17  1  0
 17 18  1  0
 18 19  1  0
 19 20  2  0
 20 21  1  0
 21 22  2  0
 22 23  1  0
 23 24  2  0
 17 25  1  0
 25 26  1  0
 26 27  1  0
  8  4  1  0
 14  9  1  0
 27 15  1  0
 24 19  1  0
M  END
