CVD-0000972|dock_bobby27042020.68|mol2|32|dock1
     RDKit          3D

 30 33  0  0  0  0  0  0  0  0999 V2000
    1.5532   -6.4452   22.1972 C   0  0  0  0  0  0  0  0  0  0  0  0
    1.9767   -6.5834   23.6462 C   0  0  0  0  0  0  0  0  0  0  0  0
    3.4220   -6.9295   23.8216 C   0  0  0  0  0  0  0  0  0  0  0  0
    3.7487   -7.1081   25.2965 C   0  0  0  0  0  0  0  0  0  0  0  0
    4.2747   -5.9162   23.1540 N   0  0  0  0  0  0  0  0  0  0  0  0
    5.5573   -6.4540   22.7330 C   0  0  0  0  0  0  0  0  0  0  0  0
    6.2955   -5.4611   21.8573 C   0  0  0  0  0  0  0  0  0  0  0  0
    6.4395   -4.1634   22.5384 N   0  0  0  0  0  0  0  0  0  0  0  0
    5.1927   -3.6679   23.1172 C   0  0  0  0  0  0  0  0  0  0  0  0
    4.5113   -4.7151   23.9446 C   0  0  0  0  0  0  0  0  0  0  0  0
    7.5865   -3.3421   22.3892 C   0  0  0  0  0  0  0  0  0  0  0  0
    8.6872   -3.5737   23.2146 C   0  0  0  0  0  0  0  0  0  0  0  0
    9.8561   -2.8506   23.0647 C   0  0  0  0  0  0  0  0  0  0  0  0
    9.9814   -1.8759   22.0907 C   0  0  0  0  0  0  0  0  0  0  0  0
    8.8872   -1.6046   21.2886 C   0  0  0  0  0  0  0  0  0  0  0  0
    7.6915   -2.2913   21.4523 C   0  0  0  0  0  0  0  0  0  0  0  0
    6.3875   -1.6985   20.4034 S   0  0  0  0  0  0  0  0  0  0  0  0
    7.0042   -0.9284   19.1436 N   0  0  0  0  0  0  0  0  0  0  0  0
    5.7380   -2.8622   19.8789 O   0  0  0  0  0  0  0  0  0  0  0  0
    5.5935   -0.7733   21.1555 O   0  0  0  0  0  0  0  0  0  0  0  0
   11.2867   -1.1139   21.9112 C   0  0  0  0  0  0  0  0  0  0  0  0
   12.1594   -1.6983   20.9025 N   0  0  0  0  0  0  0  0  0  0  0  0
   13.3660   -2.0790   21.3637 C   0  0  0  0  0  0  0  0  0  0  0  0
   14.2558   -2.6097   20.7077 O   0  0  0  0  0  0  0  0  0  0  0  0
   13.3993   -1.7153   22.7974 C   0  0  0  0  0  0  0  0  0  0  0  0
   14.4057   -1.8532   23.7524 C   0  0  0  0  0  0  0  0  0  0  0  0
   14.1740   -1.4117   25.0469 C   0  0  0  0  0  0  0  0  0  0  0  0
   12.9629   -0.8428   25.3869 C   0  0  0  0  0  0  0  0  0  0  0  0
   11.9640   -0.7071   24.4352 C   0  0  0  0  0  0  0  0  0  0  0  0
   12.1826   -1.1458   23.1317 C   0  0  0  0  0  0  0  0  0  0  0  0
  1  2  1  0
  2  3  1  0
  3  4  1  0
  3  5  1  0
  5  6  1  0
  6  7  1  0
  7  8  1  0
  8  9  1  0
  9 10  1  0
  8 11  1  0
 11 12  2  0
 12 13  1  0
 13 14  2  0
 14 15  1  0
 15 16  2  0
 16 17  1  0
 17 18  1  0
 17 19  2  0
 17 20  2  0
 14 21  1  0
 21 22  1  0
 22 23  1  0
 23 24  2  0
 23 25  1  0
 25 26  2  0
 26 27  1  0
 27 28  2  0
 28 29  1  0
 29 30  2  0
 10  5  1  0
 16 11  1  0
 30 21  1  0
 30 25  1  0
M  END
