CVD-0001616|dock_bobby27042020.23|mol2|21|dock3
     RDKit          3D

 18 19  0  0  0  0  0  0  0  0999 V2000
    6.9018   -5.5282   21.3702 C   0  0  0  0  0  0  0  0  0  0  0  0
    6.6232   -4.0550   21.2934 C   0  0  0  0  0  0  0  0  0  0  0  0
    5.6943   -3.6461   20.6056 O   0  0  0  0  0  0  0  0  0  0  0  0
    7.4127   -3.1816   21.9767 N   0  0  0  0  0  0  0  0  0  0  0  0
    8.5528   -3.5291   22.8305 C   0  0  0  0  0  0  0  0  0  0  0  0
    9.7353   -2.6472   22.5242 C   0  0  0  0  0  0  0  0  0  0  0  0
    9.3821   -1.2262   22.6764 N   0  0  0  0  0  0  0  0  0  0  0  0
    8.2979   -0.9322   21.7380 C   0  0  0  0  0  0  0  0  0  0  0  0
    7.0740   -1.7614   22.0460 C   0  0  0  0  0  0  0  0  0  0  0  0
   10.5421   -0.3606   22.4257 C   0  0  0  0  0  0  0  0  0  0  0  0
   10.7134   -0.1569   21.0992 F   0  0  0  0  0  0  0  0  0  0  0  0
   10.2770    0.8693   22.9258 F   0  0  0  0  0  0  0  0  0  0  0  0
   11.7960   -0.9280   23.0523 C   0  0  0  0  0  0  0  0  0  0  0  0
   12.8193   -1.6170   22.4520 C   0  0  0  0  0  0  0  0  0  0  0  0
   13.8319   -1.9997   23.3285 C   0  0  0  0  0  0  0  0  0  0  0  0
   13.5802   -1.6036   24.5900 C   0  0  0  0  0  0  0  0  0  0  0  0
   14.6508   -1.8898   26.0982 Br  0  0  0  0  0  0  0  0  0  0  0  0
   12.0996   -0.7516   24.7456 S   0  0  0  0  0  0  0  0  0  0  0  0
  1  2  1  0
  2  3  2  0
  2  4  1  0
  4  5  1  0
  5  6  1  0
  6  7  1  0
  7  8  1  0
  8  9  1  0
  7 10  1  0
 10 11  1  0
 10 12  1  0
 10 13  1  0
 13 14  2  0
 14 15  1  0
 15 16  2  0
 16 17  1  0
 16 18  1  0
  9  4  1  0
 18 13  1  0
M  END
