CVD-0003623|dock_bobby27042020.59|mol2|15|dock2
     RDKit          3D

 18 19  0  0  0  0  0  0  0  0999 V2000
   11.9040   -2.3517   22.1196 C   0  0  0  0  0  0  0  0  0  0  0  0
   11.8612   -0.9331   22.6441 C   0  0  0  0  0  0  0  0  0  0  0  0
   12.7914   -0.5295   23.6158 C   0  0  0  0  0  0  0  0  0  0  0  0
   13.7133   -1.3981   24.1572 N   0  0  0  0  0  0  0  0  0  0  0  0
   12.7763    0.7932   24.0421 C   0  0  0  0  0  0  0  0  0  0  0  0
   11.9175    1.7046   23.5910 N   0  0  0  0  0  0  0  0  0  0  0  0
   11.0048    1.3104   22.7003 C   0  0  0  0  0  0  0  0  0  0  0  0
   10.9239    0.0154   22.1889 C   0  0  0  0  0  0  0  0  0  0  0  0
    9.9437   -0.3883   21.2391 N   0  0  0  0  0  0  0  0  0  0  0  0
    8.6314   -0.0614   21.1382 C   0  0  0  0  0  0  0  0  0  0  0  0
    8.0134    0.6854   21.8895 O   0  0  0  0  0  0  0  0  0  0  0  0
    7.9417   -0.7100   19.9545 C   0  0  0  0  0  0  0  0  0  0  0  0
    6.7077    0.0484   19.5209 C   0  0  0  0  0  0  0  0  0  0  0  0
    6.6928    0.7546   18.3282 C   0  0  0  0  0  0  0  0  0  0  0  0
    5.5616    1.4467   17.9292 C   0  0  0  0  0  0  0  0  0  0  0  0
    4.4316    1.4397   18.7184 C   0  0  0  0  0  0  0  0  0  0  0  0
    4.4328    0.7403   19.9061 C   0  0  0  0  0  0  0  0  0  0  0  0
    5.5642    0.0483   20.3047 C   0  0  0  0  0  0  0  0  0  0  0  0
  1  2  1  0
  2  3  2  0
  3  4  1  0
  3  5  1  0
  5  6  2  0
  6  7  1  0
  7  8  2  0
  8  9  1  0
  9 10  1  0
 10 11  2  0
 10 12  1  0
 12 13  1  0
 13 14  2  0
 14 15  1  0
 15 16  2  0
 16 17  1  0
 17 18  2  0
  8  2  1  0
 18 13  1  0
M  END
