CVD-0002786|dock_bobby27042020.4|mol2|27|dock1
     RDKit          3D

 17 18  0  0  0  0  0  0  0  0999 V2000
    6.3430   -2.4590   21.5344 C   0  0  0  0  0  0  0  0  0  0  0  0
    6.6296   -1.4899   20.3759 C   0  0  0  0  0  0  0  0  0  0  0  0
    8.1481   -1.2544   20.1729 C   0  0  0  0  0  0  0  0  0  0  0  0
    8.9628   -0.8036   21.3695 C   0  0  0  0  0  0  0  0  0  0  0  0
    8.4398   -0.4339   22.4146 O   0  0  0  0  0  0  0  0  0  0  0  0
   10.2988   -0.8589   21.1472 N   0  0  0  0  0  0  0  0  0  0  0  0
   11.4039   -0.5384   21.9748 C   0  0  0  0  0  0  0  0  0  0  0  0
   12.6260   -1.1500   21.7269 C   0  0  0  0  0  0  0  0  0  0  0  0
   13.7169   -0.8504   22.5238 C   0  0  0  0  0  0  0  0  0  0  0  0
   13.5554    0.0536   23.5477 C   0  0  0  0  0  0  0  0  0  0  0  0
   12.3967    0.6575   23.8115 N   0  0  0  0  0  0  0  0  0  0  0  0
   11.3485    0.3619   23.0367 C   0  0  0  0  0  0  0  0  0  0  0  0
    6.1674   -2.2016   19.1071 C   0  0  0  0  0  0  0  0  0  0  0  0
    6.2386   -1.2780   17.9075 C   0  0  0  0  0  0  0  0  0  0  0  0
    5.4274   -0.0113   18.1336 C   0  0  0  0  0  0  0  0  0  0  0  0
    5.8727    0.6992   19.4014 C   0  0  0  0  0  0  0  0  0  0  0  0
    5.8154   -0.2253   20.6108 C   0  0  0  0  0  0  0  0  0  0  0  0
  1  2  1  0
  2  3  1  0
  3  4  1  0
  4  5  2  0
  4  6  1  0
  6  7  1  0
  7  8  2  0
  8  9  1  0
  9 10  2  0
 10 11  1  0
 11 12  2  0
  2 13  1  0
 13 14  1  0
 14 15  1  0
 15 16  1  0
 16 17  1  0
 17  2  1  0
 12  7  1  0
M  END
