CVD-0001466|dock_bobby27042020.23|mol2|44|dock1
     RDKit          3D

 21 23  0  0  0  0  0  0  0  0999 V2000
   13.6877    5.4510   22.0286 C   0  0  0  0  0  0  0  0  0  0  0  0
   13.9780    4.1785   21.9650 C   0  0  0  0  0  0  0  0  0  0  0  0
   13.2222    3.1562   22.7236 C   0  0  0  0  0  0  0  0  0  0  0  0
   12.1566    3.4124   23.3021 O   0  0  0  0  0  0  0  0  0  0  0  0
   13.7707    1.9354   22.7408 N   0  0  0  0  0  0  0  0  0  0  0  0
   13.1593    0.8062   23.4419 C   0  0  0  0  0  0  0  0  0  0  0  0
   11.6633    0.5864   23.2317 C   0  0  0  0  0  0  0  0  0  0  0  0
   11.9440   -0.7231   22.5985 N   0  0  0  0  0  0  0  0  0  0  0  0
   11.2044   -1.8906   23.0835 C   0  0  0  0  0  0  0  0  0  0  0  0
    9.7327   -1.6518   23.2602 C   0  0  0  0  0  0  0  0  0  0  0  0
    9.0344   -1.4979   24.4397 C   0  0  0  0  0  0  0  0  0  0  0  0
    7.7610   -1.1686   24.2001 N   0  0  0  0  0  0  0  0  0  0  0  0
    7.6214   -0.7875   22.7980 C   0  0  0  0  0  0  0  0  0  0  0  0
    6.3664   -0.8603   21.9834 C   0  0  0  0  0  0  0  0  0  0  0  0
    6.5071   -0.7967   20.6583 C   0  0  0  0  0  0  0  0  0  0  0  0
    7.8243   -0.7051   20.0712 C   0  0  0  0  0  0  0  0  0  0  0  0
    8.9146   -1.0885   20.7600 C   0  0  0  0  0  0  0  0  0  0  0  0
    8.6996   -1.6383   22.1392 C   0  0  0  0  0  0  0  0  0  0  0  0
    7.9764   -0.2112   18.7303 C   0  0  0  0  0  0  0  0  0  0  0  0
    8.1104    0.1514   17.6533 N   0  0  0  0  0  0  0  0  0  0  0  0
   13.4022   -0.5492   22.7942 C   0  0  0  0  0  0  0  0  0  0  0  0
  1  2  2  0
  2  3  1  0
  3  4  2  0
  3  5  1  0
  5  6  1  0
  6  7  1  0
  7  8  1  0
  8  9  1  0
  9 10  1  0
 10 11  2  0
 11 12  1  0
 12 13  1  0
 13 14  1  0
 14 15  2  0
 15 16  1  0
 16 17  2  0
 17 18  1  0
 16 19  1  0
 19 20  3  0
  8 21  1  0
 21  6  1  0
 18 10  1  0
 18 13  1  0
M  END
