CVD-0002210|dock_bobby27042020.7|mol2|2|dock2
     RDKit          3D

 22 24  0  0  0  0  0  0  0  0999 V2000
    7.3962   -5.8247   21.5214 C   0  0  0  0  0  0  0  0  0  0  0  0
    6.5197   -5.0654   22.4904 C   0  0  0  0  0  0  0  0  0  0  0  0
    7.0103   -3.6502   22.7274 C   0  0  0  0  0  0  0  0  0  0  0  0
    6.7904   -2.6917   21.5862 C   0  0  0  0  0  0  0  0  0  0  0  0
    6.0737   -3.1475   20.5470 N   0  0  0  0  0  0  0  0  0  0  0  0
    5.8561   -2.3238   19.5152 C   0  0  0  0  0  0  0  0  0  0  0  0
    6.3337   -1.0179   19.4640 C   0  0  0  0  0  0  0  0  0  0  0  0
    7.0748   -0.5492   20.5442 C   0  0  0  0  0  0  0  0  0  0  0  0
    7.3158   -1.3820   21.6302 C   0  0  0  0  0  0  0  0  0  0  0  0
    8.1222   -0.9060   22.8246 C   0  0  0  0  0  0  0  0  0  0  0  0
    9.6045   -1.2057   22.7329 C   0  0  0  0  0  0  0  0  0  0  0  0
   10.2020   -1.4782   21.5092 C   0  0  0  0  0  0  0  0  0  0  0  0
   11.5479   -1.7952   21.4253 C   0  0  0  0  0  0  0  0  0  0  0  0
   12.3300   -1.8463   22.5746 C   0  0  0  0  0  0  0  0  0  0  0  0
   13.7981   -2.1551   22.7356 C   0  0  0  0  0  0  0  0  0  0  0  0
   14.0150   -2.2122   24.2501 C   0  0  0  0  0  0  0  0  0  0  0  0
   12.7444   -1.6737   24.8660 C   0  0  0  0  0  0  0  0  0  0  0  0
   12.5485   -1.5015   26.0556 O   0  0  0  0  0  0  0  0  0  0  0  0
   11.7397   -1.5753   23.7998 C   0  0  0  0  0  0  0  0  0  0  0  0
   10.3857   -1.2567   23.8820 C   0  0  0  0  0  0  0  0  0  0  0  0
    6.0713   -0.1707   18.3268 C   0  0  0  0  0  0  0  0  0  0  0  0
    5.8963    0.5038   17.4218 N   0  0  0  0  0  0  0  0  0  0  0  0
  1  2  1  0
  2  3  1  0
  3  4  1  0
  4  5  2  0
  5  6  1  0
  6  7  2  0
  7  8  1  0
  8  9  2  0
  9 10  1  0
 10 11  1  0
 11 12  2  0
 12 13  1  0
 13 14  2  0
 14 15  1  0
 15 16  1  0
 16 17  1  0
 17 18  2  0
 17 19  1  0
 19 20  2  0
  7 21  1  0
 21 22  3  0
  9  4  1  0
 20 11  1  0
 19 14  1  0
M  END
