CVD-0000884|dock_bobby27042020.25|mol2|42|dock1
     RDKit          3D

 15 15  0  0  0  0  0  0  0  0999 V2000
    9.5149   -2.4423   24.0987 O   0  0  0  0  0  0  0  0  0  0  0  0
    9.0044   -2.3836   22.7726 C   0  0  0  0  0  0  0  0  0  0  0  0
    9.3535   -1.0653   22.0891 C   0  0  0  0  0  0  0  0  0  0  0  0
    8.8774   -1.1202   20.7092 N   0  0  0  0  0  0  0  0  0  0  0  0
    7.6300   -0.8073   20.3523 C   0  0  0  0  0  0  0  0  0  0  0  0
    6.7678   -0.4451   21.1467 O   0  0  0  0  0  0  0  0  0  0  0  0
    7.3487   -0.9434   18.8721 C   0  0  0  0  0  0  0  0  0  0  0  0
    5.6321   -1.1746   18.5156 Cl  0  0  0  0  0  0  0  0  0  0  0  0
   10.8475   -0.8137   22.1680 C   0  0  0  0  0  0  0  0  0  0  0  0
   11.3468    0.2394   22.9221 C   0  0  0  0  0  0  0  0  0  0  0  0
   12.7098    0.4704   23.0026 C   0  0  0  0  0  0  0  0  0  0  0  0
   13.5964   -0.3504   22.3270 C   0  0  0  0  0  0  0  0  0  0  0  0
   13.0951   -1.3927   21.5789 C   0  0  0  0  0  0  0  0  0  0  0  0
   14.1982   -2.4331   20.7227 Cl  0  0  0  0  0  0  0  0  0  0  0  0
   11.7392   -1.6336   21.4904 C   0  0  0  0  0  0  0  0  0  0  0  0
  1  2  1  0
  2  3  1  0
  3  4  1  0
  4  5  1  0
  5  6  2  0
  5  7  1  0
  7  8  1  0
  3  9  1  0
  9 10  2  0
 10 11  1  0
 11 12  2  0
 12 13  1  0
 13 14  1  0
 13 15  2  0
 15  9  1  0
M  END
