CVD-0003794|dock_bobby27042020.15|mol2|28|dock2
     RDKit          3D

 27 30  0  0  0  0  0  0  0  0999 V2000
   13.6939    5.5725   21.3290 N   0  0  0  0  0  0  0  0  0  0  0  0
   13.5244    5.1196   22.8552 S   0  0  0  0  0  0  0  0  0  0  0  0
   12.7924    6.1526   23.5246 O   0  0  0  0  0  0  0  0  0  0  0  0
   14.8256    4.7687   23.3397 O   0  0  0  0  0  0  0  0  0  0  0  0
   12.5331    3.6573   22.8985 C   0  0  0  0  0  0  0  0  0  0  0  0
   13.1359    2.4139   22.8334 C   0  0  0  0  0  0  0  0  0  0  0  0
   12.3558    1.2721   22.8750 C   0  0  0  0  0  0  0  0  0  0  0  0
   10.9701    1.3502   22.9781 C   0  0  0  0  0  0  0  0  0  0  0  0
   10.3864    2.6119   23.0414 C   0  0  0  0  0  0  0  0  0  0  0  0
   11.1577    3.7600   23.0055 C   0  0  0  0  0  0  0  0  0  0  0  0
   10.1917    0.2010   23.0168 N   0  0  0  0  0  0  0  0  0  0  0  0
    9.2678   -0.0973   24.1152 C   0  0  0  0  0  0  0  0  0  0  0  0
    9.3841   -1.5213   24.5800 C   0  0  0  0  0  0  0  0  0  0  0  0
    9.1649   -2.4985   23.4197 C   0  0  0  0  0  0  0  0  0  0  0  0
   10.1339   -2.1620   22.3143 C   0  0  0  0  0  0  0  0  0  0  0  0
   10.0411   -0.7192   21.8657 C   0  0  0  0  0  0  0  0  0  0  0  0
    9.2723   -3.8869   23.8569 N   0  0  0  0  0  0  0  0  0  0  0  0
    8.1794   -4.6712   24.1668 C   0  0  0  0  0  0  0  0  0  0  0  0
    7.1455   -4.8350   23.2686 C   0  0  0  0  0  0  0  0  0  0  0  0
    6.0447   -5.6160   23.5750 C   0  0  0  0  0  0  0  0  0  0  0  0
    5.9439   -6.2519   24.7732 C   0  0  0  0  0  0  0  0  0  0  0  0
    6.9688   -6.1304   25.7391 C   0  0  0  0  0  0  0  0  0  0  0  0
    6.8862   -6.7841   26.9920 C   0  0  0  0  0  0  0  0  0  0  0  0
    7.8817   -6.6587   27.9125 C   0  0  0  0  0  0  0  0  0  0  0  0
    8.9920   -5.8907   27.6394 C   0  0  0  0  0  0  0  0  0  0  0  0
    9.1170   -5.2420   26.4471 C   0  0  0  0  0  0  0  0  0  0  0  0
    8.1135   -5.3294   25.4427 C   0  0  0  0  0  0  0  0  0  0  0  0
  1  2  1  0
  2  3  2  0
  2  4  2  0
  2  5  1  0
  5  6  2  0
  6  7  1  0
  7  8  2  0
  8  9  1  0
  9 10  2  0
  8 11  1  0
 11 12  1  0
 12 13  1  0
 13 14  1  0
 14 15  1  0
 15 16  1  0
 14 17  1  0
 17 18  1  0
 18 19  2  0
 19 20  1  0
 20 21  2  0
 21 22  1  0
 22 23  2  0
 23 24  1  0
 24 25  2  0
 25 26  1  0
 26 27  2  0
 10  5  1  0
 16 11  1  0
 27 18  1  0
 27 22  1  0
M  END
