CVD-0002254|dock_bobby27042020.49|mol2|26|dock3
     RDKit          3D

 27 29  0  0  0  0  0  0  0  0999 V2000
   12.5832    4.6950   23.3279 C   0  0  0  0  0  0  0  0  0  0  0  0
   13.0633    3.4322   22.6748 C   0  0  0  0  0  0  0  0  0  0  0  0
   13.8801    3.4687   21.7610 O   0  0  0  0  0  0  0  0  0  0  0  0
   12.5232    2.3032   23.2039 N   0  0  0  0  0  0  0  0  0  0  0  0
   12.7254    0.9320   22.8835 C   0  0  0  0  0  0  0  0  0  0  0  0
   13.9178    0.4186   22.3743 C   0  0  0  0  0  0  0  0  0  0  0  0
   14.1070   -0.8701   22.0740 N   0  0  0  0  0  0  0  0  0  0  0  0
   13.0934   -1.7084   22.2733 C   0  0  0  0  0  0  0  0  0  0  0  0
   11.8719   -1.3118   22.7708 C   0  0  0  0  0  0  0  0  0  0  0  0
   11.6679    0.0268   23.0874 C   0  0  0  0  0  0  0  0  0  0  0  0
   10.3147    0.4324   23.6290 C   0  0  0  0  0  0  0  0  0  0  0  0
    9.3099   -0.7025   23.5857 C   0  0  0  0  0  0  0  0  0  0  0  0
    8.9236   -1.2467   24.6125 O   0  0  0  0  0  0  0  0  0  0  0  0
    8.8713   -1.0823   22.3686 N   0  0  0  0  0  0  0  0  0  0  0  0
    7.9239   -2.1772   22.2395 C   0  0  0  0  0  0  0  0  0  0  0  0
    6.7438   -1.7598   21.4197 C   0  0  0  0  0  0  0  0  0  0  0  0
    7.2153   -1.2625   20.1194 N   0  0  0  0  0  0  0  0  0  0  0  0
    8.1084   -0.1040   20.2696 C   0  0  0  0  0  0  0  0  0  0  0  0
    9.2983   -0.5067   21.0893 C   0  0  0  0  0  0  0  0  0  0  0  0
    6.1507   -1.2589   18.8983 S   0  0  0  0  0  0  0  0  0  0  0  0
    6.8977   -1.1843   17.6821 O   0  0  0  0  0  0  0  0  0  0  0  0
    5.2544   -2.3516   19.1113 O   0  0  0  0  0  0  0  0  0  0  0  0
    5.2162    0.2048   19.0193 C   0  0  0  0  0  0  0  0  0  0  0  0
    5.1462    1.2282   18.0141 C   0  0  0  0  0  0  0  0  0  0  0  0
    4.3422    2.2761   18.3686 C   0  0  0  0  0  0  0  0  0  0  0  0
    3.6644    2.0425   19.9103 S   0  0  0  0  0  0  0  0  0  0  0  0
    4.4605    0.5542   20.0668 C   0  0  0  0  0  0  0  0  0  0  0  0
  1  2  1  0
  2  3  2  0
  2  4  1  0
  4  5  1  0
  5  6  2  0
  6  7  1  0
  7  8  2  0
  8  9  1  0
  9 10  2  0
 10 11  1  0
 11 12  1  0
 12 13  2  0
 12 14  1  0
 14 15  1  0
 15 16  1  0
 16 17  1  0
 17 18  1  0
 18 19  1  0
 17 20  1  0
 20 21  2  0
 20 22  2  0
 20 23  1  0
 23 24  1  0
 24 25  2  0
 25 26  1  0
 26 27  1  0
 10  5  1  0
 19 14  1  0
 27 23  2  0
M  END
