CVD-0003189|dock_bobby27042020.17|mol2|15|dock3
     RDKit          3D

 26 28  0  0  0  0  0  0  0  0999 V2000
   12.6285    6.3955   24.1224 C   0  0  0  0  0  0  0  0  0  0  0  0
   12.5830    5.1292   23.3972 N   0  0  0  0  0  0  0  0  0  0  0  0
   13.6481    4.2780   23.2823 C   0  0  0  0  0  0  0  0  0  0  0  0
   14.7986    4.5385   23.6107 O   0  0  0  0  0  0  0  0  0  0  0  0
   13.1224    2.9815   22.6885 C   0  0  0  0  0  0  0  0  0  0  0  0
   11.6467    3.2162   22.5908 C   0  0  0  0  0  0  0  0  0  0  0  0
   10.6058    2.3967   22.1728 C   0  0  0  0  0  0  0  0  0  0  0  0
    9.2907    2.8649   22.1925 C   0  0  0  0  0  0  0  0  0  0  0  0
    8.1587    2.1059   21.7931 N   0  0  0  0  0  0  0  0  0  0  0  0
    8.0788    0.9208   21.0984 C   0  0  0  0  0  0  0  0  0  0  0  0
    9.0703    0.2946   20.7501 O   0  0  0  0  0  0  0  0  0  0  0  0
    6.8511    0.4036   20.7725 N   0  0  0  0  0  0  0  0  0  0  0  0
    6.6489   -0.9812   20.3345 C   0  0  0  0  0  0  0  0  0  0  0  0
    5.6443   -1.1310   19.2059 C   0  0  0  0  0  0  0  0  0  0  0  0
    6.0025   -0.3867   17.9296 C   0  0  0  0  0  0  0  0  0  0  0  0
    5.9408    1.1282   17.9764 C   0  0  0  0  0  0  0  0  0  0  0  0
    4.6098    1.6161   18.3091 N   0  0  0  0  0  0  0  0  0  0  0  0
    4.2215    2.1265   19.4826 C   0  0  0  0  0  0  0  0  0  0  0  0
    3.0594    2.4834   19.6239 O   0  0  0  0  0  0  0  0  0  0  0  0
    5.1792    2.3025   20.6855 C   0  0  0  0  0  0  0  0  0  0  0  0
    4.5235    2.9958   21.6639 F   0  0  0  0  0  0  0  0  0  0  0  0
    6.2645    3.0745   20.3788 F   0  0  0  0  0  0  0  0  0  0  0  0
    5.6491    1.0205   21.3480 C   0  0  0  0  0  0  0  0  0  0  0  0
    9.0495    4.1621   22.6376 C   0  0  0  0  0  0  0  0  0  0  0  0
   10.0750    4.9941   23.0585 C   0  0  0  0  0  0  0  0  0  0  0  0
   11.3752    4.5072   23.0302 C   0  0  0  0  0  0  0  0  0  0  0  0
  1  2  1  0
  2  3  1  0
  3  4  2  0
  3  5  1  0
  5  6  1  0
  6  7  2  0
  7  8  1  0
  8  9  1  0
  9 10  1  0
 10 11  2  0
 10 12  1  0
 12 13  1  0
 13 14  1  0
 14 15  1  0
 15 16  1  0
 16 17  1  0
 17 18  1  0
 18 19  2  0
 18 20  1  0
 20 21  1  0
 20 22  1  0
 20 23  1  0
  8 24  2  0
 24 25  1  0
 25 26  2  0
 26  2  1  0
 26  6  1  0
 23 12  1  0
M  END
