CVD-0000993|dock_bobby27042020.96|mol2|41|dock1
     RDKit          3D

 20 22  0  0  0  0  0  0  0  0999 V2000
    1.2839    2.7006   20.7321 Br  0  0  0  0  0  0  0  0  0  0  0  0
    2.9154    2.2570   19.9296 C   0  0  0  0  0  0  0  0  0  0  0  0
    3.3437    2.6252   18.7071 C   0  0  0  0  0  0  0  0  0  0  0  0
    4.6097    2.1189   18.4226 C   0  0  0  0  0  0  0  0  0  0  0  0
    5.1402    1.3614   19.4425 C   0  0  0  0  0  0  0  0  0  0  0  0
    4.0411    1.2793   20.7784 S   0  0  0  0  0  0  0  0  0  0  0  0
    6.4158    0.6836   19.5062 C   0  0  0  0  0  0  0  0  0  0  0  0
    7.0451    0.2159   18.4609 N   0  0  0  0  0  0  0  0  0  0  0  0
    8.2527   -0.3916   18.7979 N   0  0  0  0  0  0  0  0  0  0  0  0
    8.4726   -0.3501   20.0860 C   0  0  0  0  0  0  0  0  0  0  0  0
    9.6148   -0.8967   20.6308 N   0  0  0  0  0  0  0  0  0  0  0  0
    9.9802   -0.6985   21.9429 C   0  0  0  0  0  0  0  0  0  0  0  0
    9.2913   -0.0147   22.6941 O   0  0  0  0  0  0  0  0  0  0  0  0
   11.2412   -1.3293   22.4604 C   0  0  0  0  0  0  0  0  0  0  0  0
   12.2760   -1.7538   21.6292 C   0  0  0  0  0  0  0  0  0  0  0  0
   13.4169   -2.3295   22.1638 C   0  0  0  0  0  0  0  0  0  0  0  0
   13.5449   -2.4907   23.5262 C   0  0  0  0  0  0  0  0  0  0  0  0
   12.5303   -2.0760   24.3605 C   0  0  0  0  0  0  0  0  0  0  0  0
   11.3870   -1.4997   23.8332 C   0  0  0  0  0  0  0  0  0  0  0  0
    7.2345    0.4300   21.0121 S   0  0  0  0  0  0  0  0  0  0  0  0
  1  2  1  0
  2  3  2  0
  3  4  1  0
  4  5  2  0
  5  6  1  0
  5  7  1  0
  7  8  2  0
  8  9  1  0
  9 10  2  0
 10 11  1  0
 11 12  1  0
 12 13  2  0
 12 14  1  0
 14 15  2  0
 15 16  1  0
 16 17  2  0
 17 18  1  0
 18 19  2  0
 10 20  1  0
  6  2  1  0
 20  7  1  0
 19 14  1  0
M  END
