CVD-0001604|dock_bobby27042020.94|mol2|40|dock3
     RDKit          3D

 19 20  0  0  0  0  0  0  0  0999 V2000
   14.1798   -1.3734   24.0572 C   0  0  0  0  0  0  0  0  0  0  0  0
   13.1210   -0.3133   23.9650 C   0  0  0  0  0  0  0  0  0  0  0  0
   13.1700    0.6773   24.6855 O   0  0  0  0  0  0  0  0  0  0  0  0
   12.0934   -0.4595   23.0881 N   0  0  0  0  0  0  0  0  0  0  0  0
   11.8939   -1.5818   22.1659 C   0  0  0  0  0  0  0  0  0  0  0  0
   10.4677   -2.0647   22.2164 C   0  0  0  0  0  0  0  0  0  0  0  0
    9.5326   -0.9682   21.9156 N   0  0  0  0  0  0  0  0  0  0  0  0
    9.7300    0.0762   22.9218 C   0  0  0  0  0  0  0  0  0  0  0  0
   11.1365    0.6232   22.8674 C   0  0  0  0  0  0  0  0  0  0  0  0
    8.1890   -1.4249   21.9160 C   0  0  0  0  0  0  0  0  0  0  0  0
    7.7223   -1.6003   23.2072 F   0  0  0  0  0  0  0  0  0  0  0  0
    8.1327   -2.7233   21.4411 F   0  0  0  0  0  0  0  0  0  0  0  0
    7.2645   -0.6559   21.1702 N   0  0  0  0  0  0  0  0  0  0  0  0
    7.4517   -0.7280   19.7051 C   0  0  0  0  0  0  0  0  0  0  0  0
    7.1454    0.5813   18.9930 C   0  0  0  0  0  0  0  0  0  0  0  0
    5.6924    0.7384   18.5081 C   0  0  0  0  0  0  0  0  0  0  0  0
    4.7808    0.1511   19.4426 O   0  0  0  0  0  0  0  0  0  0  0  0
    5.0291    0.4240   20.8177 C   0  0  0  0  0  0  0  0  0  0  0  0
    5.8302   -0.6616   21.4949 C   0  0  0  0  0  0  0  0  0  0  0  0
  1  2  1  0
  2  3  2  0
  2  4  1  0
  4  5  1  0
  5  6  1  0
  6  7  1  0
  7  8  1  0
  8  9  1  0
  7 10  1  0
 10 11  1  0
 10 12  1  0
 10 13  1  0
 13 14  1  0
 14 15  1  0
 15 16  1  0
 16 17  1  0
 17 18  1  0
 18 19  1  0
  9  4  1  0
 19 13  1  0
M  END
