CVD-0003471|dock_bobby27042020.73|mol2|38|dock2
     RDKit          3D

 28 30  0  0  0  0  0  0  0  0999 V2000
    6.8945   -3.7382   20.0823 C   0  0  0  0  0  0  0  0  0  0  0  0
    6.8975   -2.4275   19.4537 N   0  0  0  0  0  0  0  0  0  0  0  0
    5.8190   -2.1837   18.5058 C   0  0  0  0  0  0  0  0  0  0  0  0
    5.5065   -0.7301   18.3418 C   0  0  0  0  0  0  0  0  0  0  0  0
    4.7335    0.0862   19.1739 C   0  0  0  0  0  0  0  0  0  0  0  0
    4.7525    1.2973   18.6054 C   0  0  0  0  0  0  0  0  0  0  0  0
    4.1515    2.6217   18.9453 C   0  0  0  0  0  0  0  0  0  0  0  0
    5.4922    1.2535   17.4808 O   0  0  0  0  0  0  0  0  0  0  0  0
    5.9740   -0.0695   17.3246 N   0  0  0  0  0  0  0  0  0  0  0  0
    7.8276   -1.4848   19.7900 C   0  0  0  0  0  0  0  0  0  0  0  0
    7.8293   -0.4073   19.2072 O   0  0  0  0  0  0  0  0  0  0  0  0
    8.7279   -1.7539   20.7561 N   0  0  0  0  0  0  0  0  0  0  0  0
    9.7436   -0.7759   21.1478 C   0  0  0  0  0  0  0  0  0  0  0  0
    9.1698    0.2616   22.1105 C   0  0  0  0  0  0  0  0  0  0  0  0
   10.2203    1.2142   22.6244 C   0  0  0  0  0  0  0  0  0  0  0  0
   11.3027    0.4562   23.2761 N   0  0  0  0  0  0  0  0  0  0  0  0
   11.9606   -0.4541   22.3161 C   0  0  0  0  0  0  0  0  0  0  0  0
   10.9537   -1.4459   21.7958 C   0  0  0  0  0  0  0  0  0  0  0  0
   12.1406    1.1048   24.5152 S   0  0  0  0  0  0  0  0  0  0  0  0
   13.2953    0.2820   24.7002 O   0  0  0  0  0  0  0  0  0  0  0  0
   11.2113    1.2778   25.5882 O   0  0  0  0  0  0  0  0  0  0  0  0
   12.6824    2.6977   24.0004 C   0  0  0  0  0  0  0  0  0  0  0  0
   13.6708    2.8110   23.0368 C   0  0  0  0  0  0  0  0  0  0  0  0
   14.0916    4.0689   22.6435 C   0  0  0  0  0  0  0  0  0  0  0  0
   13.5466    5.2189   23.1923 C   0  0  0  0  0  0  0  0  0  0  0  0
   14.0168    6.5852   22.7563 C   0  0  0  0  0  0  0  0  0  0  0  0
   12.5614    5.0785   24.1570 C   0  0  0  0  0  0  0  0  0  0  0  0
   12.1239    3.8315   24.5669 C   0  0  0  0  0  0  0  0  0  0  0  0
  1  2  1  0
  2  3  1  0
  3  4  1  0
  4  5  1  0
  5  6  2  0
  6  7  1  0
  6  8  1  0
  8  9  1  0
  2 10  1  0
 10 11  2  0
 10 12  1  0
 12 13  1  0
 13 14  1  0
 14 15  1  0
 15 16  1  0
 16 17  1  0
 17 18  1  0
 16 19  1  0
 19 20  2  0
 19 21  2  0
 19 22  1  0
 22 23  2  0
 23 24  1  0
 24 25  2  0
 25 26  1  0
 25 27  1  0
 27 28  2  0
  9  4  2  0
 18 13  1  0
 28 22  1  0
M  END
