CVD-0002566|dock_bobby27042020.62|mol2|35|dock1
     RDKit          3D

 34 38  0  0  0  0  0  0  0  0999 V2000
    4.4883   -5.8032   22.3001 O   0  0  0  0  0  0  0  0  0  0  0  0
    4.6774   -5.9873   23.4979 C   0  0  0  0  0  0  0  0  0  0  0  0
    5.6241   -5.3271   24.2476 N   0  0  0  0  0  0  0  0  0  0  0  0
    6.5677   -4.3336   23.8823 C   0  0  0  0  0  0  0  0  0  0  0  0
    7.1285   -4.2219   22.6136 C   0  0  0  0  0  0  0  0  0  0  0  0
    8.0450   -3.2239   22.3321 C   0  0  0  0  0  0  0  0  0  0  0  0
    8.4278   -2.3014   23.2994 C   0  0  0  0  0  0  0  0  0  0  0  0
    7.8677   -2.4182   24.5662 C   0  0  0  0  0  0  0  0  0  0  0  0
    6.9545   -3.4172   24.8511 C   0  0  0  0  0  0  0  0  0  0  0  0
    9.3404   -1.2955   23.0143 N   0  0  0  0  0  0  0  0  0  0  0  0
    8.8622   -0.0236   22.4524 C   0  0  0  0  0  0  0  0  0  0  0  0
    9.9980    0.7150   21.7535 C   0  0  0  0  0  0  0  0  0  0  0  0
   11.1658    0.8569   22.6093 N   0  0  0  0  0  0  0  0  0  0  0  0
   11.5983   -0.4145   23.2083 C   0  0  0  0  0  0  0  0  0  0  0  0
   10.4574   -1.0463   23.9610 C   0  0  0  0  0  0  0  0  0  0  0  0
   11.8917    1.9662   22.8617 C   0  0  0  0  0  0  0  0  0  0  0  0
   12.8586    1.9431   23.6126 O   0  0  0  0  0  0  0  0  0  0  0  0
   11.4700    3.2617   22.1907 C   0  0  0  0  0  0  0  0  0  0  0  0
   12.3585    4.4250   22.5152 C   0  0  0  0  0  0  0  0  0  0  0  0
   13.5424    4.7492   21.9200 C   0  0  0  0  0  0  0  0  0  0  0  0
   14.0699    5.8812   22.4823 N   0  0  0  0  0  0  0  0  0  0  0  0
   13.2257    6.3134   23.4626 C   0  0  0  0  0  0  0  0  0  0  0  0
   13.3775    7.3894   24.2530 N   0  0  0  0  0  0  0  0  0  0  0  0
   12.4051    7.6087   25.1487 C   0  0  0  0  0  0  0  0  0  0  0  0
   11.2939    6.8050   25.2887 C   0  0  0  0  0  0  0  0  0  0  0  0
   11.1531    5.6992   24.4652 C   0  0  0  0  0  0  0  0  0  0  0  0
   12.1370    5.4269   23.5168 C   0  0  0  0  0  0  0  0  0  0  0  0
    3.9682   -6.8826   24.2653 N   0  0  0  0  0  0  0  0  0  0  0  0
    2.9142   -7.7638   23.9149 C   0  0  0  0  0  0  0  0  0  0  0  0
    2.3675   -7.8688   22.6393 C   0  0  0  0  0  0  0  0  0  0  0  0
    1.3385   -8.7671   22.4152 C   0  0  0  0  0  0  0  0  0  0  0  0
    0.8843   -9.5327   23.4642 C   0  0  0  0  0  0  0  0  0  0  0  0
    1.3872   -9.4546   24.6959 N   0  0  0  0  0  0  0  0  0  0  0  0
    2.3802   -8.5848   24.9017 C   0  0  0  0  0  0  0  0  0  0  0  0
  1  2  2  0
  2  3  1  0
  3  4  1  0
  4  5  2  0
  5  6  1  0
  6  7  2  0
  7  8  1  0
  8  9  2  0
  7 10  1  0
 10 11  1  0
 11 12  1  0
 12 13  1  0
 13 14  1  0
 14 15  1  0
 13 16  1  0
 16 17  2  0
 16 18  1  0
 18 19  1  0
 19 20  2  0
 20 21  1  0
 21 22  1  0
 22 23  2  0
 23 24  1  0
 24 25  2  0
 25 26  1  0
 26 27  2  0
  2 28  1  0
 28 29  1  0
 29 30  2  0
 30 31  1  0
 31 32  2  0
 32 33  1  0
 33 34  2  0
  9  4  1  0
 15 10  1  0
 27 19  1  0
 34 29  1  0
 27 22  1  0
M  END
