CVD-0002082|dock_bobby27042020.65|mol2|2|dock1
     RDKit          3D

 18 19  0  0  0  0  0  0  0  0999 V2000
   10.9115   -1.4570   22.0930 C   0  0  0  0  0  0  0  0  0  0  0  0
   12.3926   -1.1226   22.0787 C   0  0  0  0  0  0  0  0  0  0  0  0
   13.0606   -1.3829   23.4071 C   0  0  0  0  0  0  0  0  0  0  0  0
   13.7119   -2.5822   23.6511 C   0  0  0  0  0  0  0  0  0  0  0  0
   14.3222   -2.8227   24.8708 C   0  0  0  0  0  0  0  0  0  0  0  0
   14.2879   -1.8663   25.8626 C   0  0  0  0  0  0  0  0  0  0  0  0
   13.6428   -0.6700   25.6343 C   0  0  0  0  0  0  0  0  0  0  0  0
   13.0328   -0.4304   24.4142 C   0  0  0  0  0  0  0  0  0  0  0  0
   10.2289   -0.8969   20.9246 N   0  0  0  0  0  0  0  0  0  0  0  0
    8.7888   -0.8004   21.0842 C   0  0  0  0  0  0  0  0  0  0  0  0
    8.1013   -2.0642   21.3744 C   0  0  0  0  0  0  0  0  0  0  0  0
    7.5449   -3.0819   21.6520 C   0  0  0  0  0  0  0  0  0  0  0  0
    6.8789   -4.2892   22.0546 C   0  0  0  0  0  0  0  0  0  0  0  0
    5.7026   -4.2783   22.7968 C   0  0  0  0  0  0  0  0  0  0  0  0
    5.0719   -5.3918   23.1786 N   0  0  0  0  0  0  0  0  0  0  0  0
    5.6414   -6.5327   22.8025 C   0  0  0  0  0  0  0  0  0  0  0  0
    6.7575   -6.6825   22.0960 N   0  0  0  0  0  0  0  0  0  0  0  0
    7.3651   -5.5512   21.7293 C   0  0  0  0  0  0  0  0  0  0  0  0
  1  2  1  0
  2  3  1  0
  3  4  2  0
  4  5  1  0
  5  6  2  0
  6  7  1  0
  7  8  2  0
  1  9  1  0
  9 10  1  0
 10 11  1  0
 11 12  3  0
 12 13  1  0
 13 14  2  0
 14 15  1  0
 15 16  2  0
 16 17  1  0
 17 18  2  0
  8  3  1  0
 18 13  1  0
M  END
