CVD-0003847|dock_bobby27042020.58|mol2|26|dock3
     RDKit          3D

 21 23  0  0  0  0  0  0  0  0999 V2000
   12.9043    5.1618   21.6553 N   0  0  0  0  0  0  0  0  0  0  0  0
   13.4657    4.0773   22.6906 S   0  0  0  0  0  0  0  0  0  0  0  0
   13.3206    4.6306   24.0036 O   0  0  0  0  0  0  0  0  0  0  0  0
   14.7712    3.6980   22.2402 O   0  0  0  0  0  0  0  0  0  0  0  0
   12.4405    2.6404   22.6072 C   0  0  0  0  0  0  0  0  0  0  0  0
   11.0639    2.7740   22.6042 C   0  0  0  0  0  0  0  0  0  0  0  0
   10.2669    1.6457   22.5267 C   0  0  0  0  0  0  0  0  0  0  0  0
   10.8199    0.3697   22.4641 C   0  0  0  0  0  0  0  0  0  0  0  0
   12.2079    0.2637   22.4737 C   0  0  0  0  0  0  0  0  0  0  0  0
   13.0161    1.3849   22.5368 C   0  0  0  0  0  0  0  0  0  0  0  0
   10.0130   -0.7612   22.3941 N   0  0  0  0  0  0  0  0  0  0  0  0
    9.1186   -0.9216   21.2540 C   0  0  0  0  0  0  0  0  0  0  0  0
    7.9080   -1.7660   21.6085 C   0  0  0  0  0  0  0  0  0  0  0  0
    8.3273   -3.1080   22.1795 C   0  0  0  0  0  0  0  0  0  0  0  0
    9.2258   -2.8726   23.3768 C   0  0  0  0  0  0  0  0  0  0  0  0
   10.4259   -2.0124   23.0075 C   0  0  0  0  0  0  0  0  0  0  0  0
    7.0755   -3.9089   22.5356 C   0  0  0  0  0  0  0  0  0  0  0  0
    7.2928   -5.2653   23.1634 C   0  0  0  0  0  0  0  0  0  0  0  0
    6.5590   -6.1830   22.2806 C   0  0  0  0  0  0  0  0  0  0  0  0
    6.0016   -5.4454   21.1937 C   0  0  0  0  0  0  0  0  0  0  0  0
    6.2863   -4.0834   21.4022 O   0  0  0  0  0  0  0  0  0  0  0  0
  1  2  1  0
  2  3  2  0
  2  4  2  0
  2  5  1  0
  5  6  2  0
  6  7  1  0
  7  8  2  0
  8  9  1  0
  9 10  2  0
  8 11  1  0
 11 12  1  0
 12 13  1  0
 13 14  1  0
 14 15  1  0
 15 16  1  0
 17 14  1  0
 17 18  1  0
 18 19  1  0
 19 20  1  0
 20 21  1  0
 10  5  1  0
 16 11  1  0
 21 17  1  0
M  END
