CVD-0003737|dock_bobby27042020.58|mol2|42|dock2
     RDKit          3D

 28 31  0  0  0  0  0  0  0  0999 V2000
    6.9426   -3.8735   21.7982 C   0  0  0  0  0  0  0  0  0  0  0  0
    7.0845   -3.8893   23.2488 N   0  0  0  0  0  0  0  0  0  0  0  0
    6.6852   -4.9463   24.0328 C   0  0  0  0  0  0  0  0  0  0  0  0
    6.9767   -4.7130   25.3313 C   0  0  0  0  0  0  0  0  0  0  0  0
    7.6191   -3.4385   25.3986 C   0  0  0  0  0  0  0  0  0  0  0  0
    8.1658   -2.6714   26.4375 C   0  0  0  0  0  0  0  0  0  0  0  0
    8.7507   -1.4465   26.1763 C   0  0  0  0  0  0  0  0  0  0  0  0
    8.7900   -0.9446   24.8862 C   0  0  0  0  0  0  0  0  0  0  0  0
    8.2315   -1.6710   23.8356 C   0  0  0  0  0  0  0  0  0  0  0  0
    8.2401   -1.1145   22.5157 N   0  0  0  0  0  0  0  0  0  0  0  0
    9.4482   -1.1932   21.7023 C   0  0  0  0  0  0  0  0  0  0  0  0
   10.7238   -0.9876   22.4652 C   0  0  0  0  0  0  0  0  0  0  0  0
   11.1919    0.1920   22.9987 C   0  0  0  0  0  0  0  0  0  0  0  0
   12.4105    0.0668   23.6608 C   0  0  0  0  0  0  0  0  0  0  0  0
   12.8645   -1.2018   23.6337 C   0  0  0  0  0  0  0  0  0  0  0  0
   14.3198   -1.7880   24.3264 Cl  0  0  0  0  0  0  0  0  0  0  0  0
   11.8225   -2.2791   22.8024 S   0  0  0  0  0  0  0  0  0  0  0  0
    7.0812   -0.4989   21.9603 C   0  0  0  0  0  0  0  0  0  0  0  0
    6.1729    0.1976   22.7554 C   0  0  0  0  0  0  0  0  0  0  0  0
    5.0539    0.7932   22.1978 C   0  0  0  0  0  0  0  0  0  0  0  0
    4.8114    0.7089   20.8393 C   0  0  0  0  0  0  0  0  0  0  0  0
    5.7079    0.0159   20.0466 C   0  0  0  0  0  0  0  0  0  0  0  0
    6.8304   -0.5882   20.5916 C   0  0  0  0  0  0  0  0  0  0  0  0
    5.4178   -0.1147   18.3083 S   0  0  0  0  0  0  0  0  0  0  0  0
    5.4095   -1.6654   17.9105 N   0  0  0  0  0  0  0  0  0  0  0  0
    4.1037    0.3947   18.0545 O   0  0  0  0  0  0  0  0  0  0  0  0
    6.5337    0.4873   17.6421 O   0  0  0  0  0  0  0  0  0  0  0  0
    7.6621   -2.9353   24.0754 C   0  0  0  0  0  0  0  0  0  0  0  0
  1  2  1  0
  2  3  1  0
  3  4  2  0
  4  5  1  0
  5  6  2  0
  6  7  1  0
  7  8  2  0
  8  9  1  0
  9 10  1  0
 10 11  1  0
 11 12  1  0
 12 13  2  0
 13 14  1  0
 14 15  2  0
 15 16  1  0
 15 17  1  0
 10 18  1  0
 18 19  2  0
 19 20  1  0
 20 21  2  0
 21 22  1  0
 22 23  2  0
 22 24  1  0
 24 25  1  0
 24 26  2  0
 24 27  2  0
  9 28  2  0
 28  2  1  0
 28  5  1  0
 17 12  1  0
 23 18  1  0
M  END
