CVD-0001392|dock_bobby27042020.24|mol2|7|dock1
     RDKit          3D

 16 17  0  0  0  0  0  0  0  0999 V2000
   13.0035    5.0190   22.3140 C   0  0  0  0  0  0  0  0  0  0  0  0
   11.6428    4.6780   22.7271 N   0  0  0  0  0  0  0  0  0  0  0  0
   10.6902    5.6349   22.9877 C   0  0  0  0  0  0  0  0  0  0  0  0
    9.5634    4.9765   23.3233 C   0  0  0  0  0  0  0  0  0  0  0  0
    9.7753    3.6219   23.2778 N   0  0  0  0  0  0  0  0  0  0  0  0
   11.0437    3.4608   22.9106 C   0  0  0  0  0  0  0  0  0  0  0  0
   11.6018    2.0997   22.7590 C   0  0  0  0  0  0  0  0  0  0  0  0
   12.9583    1.7937   22.8642 C   0  0  0  0  0  0  0  0  0  0  0  0
   13.4139    0.4966   22.7050 C   0  0  0  0  0  0  0  0  0  0  0  0
   12.5134   -0.5201   22.4393 C   0  0  0  0  0  0  0  0  0  0  0  0
   11.1615   -0.2447   22.3362 C   0  0  0  0  0  0  0  0  0  0  0  0
   10.7189    1.0561   22.4955 C   0  0  0  0  0  0  0  0  0  0  0  0
   13.0913   -2.1783   22.2415 S   0  0  0  0  0  0  0  0  0  0  0  0
   13.3619   -2.4390   20.6853 N   0  0  0  0  0  0  0  0  0  0  0  0
   14.3529   -2.2745   22.9125 O   0  0  0  0  0  0  0  0  0  0  0  0
   12.0283   -3.0520   22.6385 O   0  0  0  0  0  0  0  0  0  0  0  0
  1  2  1  0
  2  3  1  0
  3  4  2  0
  4  5  1  0
  5  6  2  0
  6  7  1  0
  7  8  2  0
  8  9  1  0
  9 10  2  0
 10 11  1  0
 11 12  2  0
 10 13  1  0
 13 14  1  0
 13 15  2  0
 13 16  2  0
  6  2  1  0
 12  7  1  0
M  END
