CVD-0000725|dock_bobby27042020.83|mol2|29|dock3
     RDKit          3D

 27 29  0  0  0  0  0  0  0  0999 V2000
   12.4456    6.3776   23.8357 N   0  0  0  0  0  0  0  0  0  0  0  0
   13.1364    5.7134   22.7299 C   0  0  0  0  0  0  0  0  0  0  0  0
   13.3773    4.2433   23.0127 C   0  0  0  0  0  0  0  0  0  0  0  0
   12.0814    3.4629   23.1505 C   0  0  0  0  0  0  0  0  0  0  0  0
   12.3025    1.9904   23.4337 C   0  0  0  0  0  0  0  0  0  0  0  0
   11.0503    1.2522   23.5167 N   0  0  0  0  0  0  0  0  0  0  0  0
   10.2253    1.1200   22.4776 C   0  0  0  0  0  0  0  0  0  0  0  0
   10.4705    1.6146   21.3805 O   0  0  0  0  0  0  0  0  0  0  0  0
    8.9487    0.3343   22.7170 C   0  0  0  0  0  0  0  0  0  0  0  0
    8.0524    0.6065   21.5306 C   0  0  0  0  0  0  0  0  0  0  0  0
    7.7687   -0.7614   20.9576 C   0  0  0  0  0  0  0  0  0  0  0  0
    6.9340   -0.9588   19.7145 C   0  0  0  0  0  0  0  0  0  0  0  0
    5.8815    0.1090   19.5193 C   0  0  0  0  0  0  0  0  0  0  0  0
    4.8965    0.3330   20.4666 C   0  0  0  0  0  0  0  0  0  0  0  0
    3.9510    1.3214   20.2564 C   0  0  0  0  0  0  0  0  0  0  0  0
    4.0224    2.0598   19.0971 C   0  0  0  0  0  0  0  0  0  0  0  0
    4.9593    1.8686   18.1671 N   0  0  0  0  0  0  0  0  0  0  0  0
    5.8615    0.9088   18.3921 C   0  0  0  0  0  0  0  0  0  0  0  0
    8.3345   -1.7285   21.6894 C   0  0  0  0  0  0  0  0  0  0  0  0
    9.1510   -1.1597   22.8252 C   0  0  0  0  0  0  0  0  0  0  0  0
   10.6183   -1.5577   22.8140 C   0  0  0  0  0  0  0  0  0  0  0  0
   11.3327   -1.6152   21.6257 C   0  0  0  0  0  0  0  0  0  0  0  0
   12.6674   -1.9837   21.6200 C   0  0  0  0  0  0  0  0  0  0  0  0
   13.3079   -2.3001   22.8062 C   0  0  0  0  0  0  0  0  0  0  0  0
   12.5926   -2.2407   23.9820 C   0  0  0  0  0  0  0  0  0  0  0  0
   13.3850   -2.6356   25.4816 Cl  0  0  0  0  0  0  0  0  0  0  0  0
   11.2620   -1.8756   24.0007 C   0  0  0  0  0  0  0  0  0  0  0  0
  1  2  1  0
  2  3  1  0
  3  4  1  0
  4  5  1  0
  5  6  1  0
  6  7  1  0
  7  8  2  0
  9  7  1  0
  9 10  1  0
 10 11  1  0
 11 12  1  0
 12 13  1  0
 13 14  2  0
 14 15  1  0
 15 16  2  0
 16 17  1  0
 17 18  2  0
 11 19  2  0
 19 20  1  0
 20 21  1  0
 21 22  2  0
 22 23  1  0
 23 24  2  0
 24 25  1  0
 25 26  1  0
 25 27  2  0
 20  9  1  0
 27 21  1  0
 18 13  1  0
M  END
