CVD-0003845|dock_bobby27042020.86|mol2|32|dock2
     RDKit          3D

 21 23  0  0  0  0  0  0  0  0999 V2000
    4.2567    1.6863   18.4105 N   0  0  0  0  0  0  0  0  0  0  0  0
    5.5410    0.8459   17.9554 S   0  0  0  0  0  0  0  0  0  0  0  0
    6.1911    1.5929   16.9208 O   0  0  0  0  0  0  0  0  0  0  0  0
    5.0970   -0.4859   17.6723 O   0  0  0  0  0  0  0  0  0  0  0  0
    6.6600    0.7502   19.3199 C   0  0  0  0  0  0  0  0  0  0  0  0
    7.7067   -0.1539   19.2907 C   0  0  0  0  0  0  0  0  0  0  0  0
    8.5756   -0.2298   20.3647 C   0  0  0  0  0  0  0  0  0  0  0  0
    8.4186    0.5912   21.4774 C   0  0  0  0  0  0  0  0  0  0  0  0
    7.3588    1.4931   21.4836 C   0  0  0  0  0  0  0  0  0  0  0  0
    6.4813    1.5739   20.4169 C   0  0  0  0  0  0  0  0  0  0  0  0
    9.2951    0.5124   22.5513 N   0  0  0  0  0  0  0  0  0  0  0  0
   10.4431    1.3969   22.6762 C   0  0  0  0  0  0  0  0  0  0  0  0
   11.6738    0.6041   23.0854 C   0  0  0  0  0  0  0  0  0  0  0  0
   11.4500   -0.2369   24.3028 C   0  0  0  0  0  0  0  0  0  0  0  0
   10.2229   -1.1137   24.1088 C   0  0  0  0  0  0  0  0  0  0  0  0
    9.0005   -0.2775   23.7407 C   0  0  0  0  0  0  0  0  0  0  0  0
   12.6483   -1.0693   24.6363 C   0  0  0  0  0  0  0  0  0  0  0  0
   13.5234   -0.8360   25.7368 C   0  0  0  0  0  0  0  0  0  0  0  0
   14.5477   -1.7291   25.8336 C   0  0  0  0  0  0  0  0  0  0  0  0
   14.4476   -2.8648   24.5745 S   0  0  0  0  0  0  0  0  0  0  0  0
   13.0485   -2.1570   23.9176 C   0  0  0  0  0  0  0  0  0  0  0  0
  1  2  1  0
  2  3  2  0
  2  4  2  0
  2  5  1  0
  5  6  2  0
  6  7  1  0
  7  8  2  0
  8  9  1  0
  9 10  2  0
  8 11  1  0
 11 12  1  0
 12 13  1  0
 13 14  1  0
 14 15  1  0
 15 16  1  0
 14 17  1  0
 17 18  1  0
 18 19  2  0
 19 20  1  0
 20 21  1  0
 10  5  1  0
 16 11  1  0
 21 17  2  0
M  END
