CVD-0003618|dock_bobby27042020.30|mol2|22|dock2
     RDKit          3D

 20 21  0  0  0  0  0  0  0  0999 V2000
   14.1004    6.0934   21.6701 C   0  0  0  0  0  0  0  0  0  0  0  0
   12.9263    5.1799   22.0141 C   0  0  0  0  0  0  0  0  0  0  0  0
   13.4424    3.8318   22.5083 C   0  0  0  0  0  0  0  0  0  0  0  0
   14.5131    3.7631   23.1044 O   0  0  0  0  0  0  0  0  0  0  0  0
   12.6225    2.7893   22.2203 N   0  0  0  0  0  0  0  0  0  0  0  0
   12.7540    1.4013   22.5074 C   0  0  0  0  0  0  0  0  0  0  0  0
   13.9770    0.7312   22.4898 C   0  0  0  0  0  0  0  0  0  0  0  0
   14.1189   -0.5687   22.7574 N   0  0  0  0  0  0  0  0  0  0  0  0
   13.0289   -1.2535   23.0960 C   0  0  0  0  0  0  0  0  0  0  0  0
   11.7567   -0.6974   23.1562 C   0  0  0  0  0  0  0  0  0  0  0  0
   10.6954   -1.4908   23.5328 N   0  0  0  0  0  0  0  0  0  0  0  0
   11.6001    0.6595   22.8293 C   0  0  0  0  0  0  0  0  0  0  0  0
   10.2138    1.2661   22.8252 C   0  0  0  0  0  0  0  0  0  0  0  0
   12.0093    5.7639   23.0814 C   0  0  0  0  0  0  0  0  0  0  0  0
   10.7130    6.1423   22.7612 C   0  0  0  0  0  0  0  0  0  0  0  0
    9.8729    6.6795   23.7219 C   0  0  0  0  0  0  0  0  0  0  0  0
   10.3192    6.8477   25.0215 C   0  0  0  0  0  0  0  0  0  0  0  0
   11.6068    6.4707   25.3335 C   0  0  0  0  0  0  0  0  0  0  0  0
   12.1824    6.6765   26.9641 Cl  0  0  0  0  0  0  0  0  0  0  0  0
   12.4533    5.9332   24.3853 C   0  0  0  0  0  0  0  0  0  0  0  0
  1  2  1  0
  2  3  1  0
  3  4  2  0
  3  5  1  0
  5  6  1  0
  6  7  2  0
  7  8  1  0
  8  9  2  0
  9 10  1  0
 10 11  1  0
 10 12  2  0
 12 13  1  0
  2 14  1  0
 14 15  2  0
 15 16  1  0
 16 17  2  0
 17 18  1  0
 18 19  1  0
 18 20  2  0
 12  6  1  0
 20 14  1  0
M  END
