CVD-0003827|dock_bobby27042020.44|mol2|11|dock3
     RDKit          3D

 25 27  0  0  0  0  0  0  0  0999 V2000
    5.6845   -2.9842   22.3360 C   0  0  0  0  0  0  0  0  0  0  0  0
    6.3340   -1.7544   21.9026 N   0  0  0  0  0  0  0  0  0  0  0  0
    7.6822   -1.4660   22.4313 C   0  0  0  0  0  0  0  0  0  0  0  0
    7.6598   -0.3781   23.4587 C   0  0  0  0  0  0  0  0  0  0  0  0
    9.0457   -0.0039   23.9586 C   0  0  0  0  0  0  0  0  0  0  0  0
    9.9206    0.2945   22.8355 N   0  0  0  0  0  0  0  0  0  0  0  0
   10.0240   -0.7681   21.8427 C   0  0  0  0  0  0  0  0  0  0  0  0
    8.6340   -1.0956   21.3047 C   0  0  0  0  0  0  0  0  0  0  0  0
   10.7661    1.3993   22.8325 C   0  0  0  0  0  0  0  0  0  0  0  0
   12.1491    1.2461   22.7963 C   0  0  0  0  0  0  0  0  0  0  0  0
   12.9958    2.3404   22.7855 C   0  0  0  0  0  0  0  0  0  0  0  0
   12.4648    3.6166   22.8242 C   0  0  0  0  0  0  0  0  0  0  0  0
   11.0944    3.7971   22.8697 C   0  0  0  0  0  0  0  0  0  0  0  0
   10.2581    2.6949   22.8658 C   0  0  0  0  0  0  0  0  0  0  0  0
   13.5396    5.0194   22.8261 S   0  0  0  0  0  0  0  0  0  0  0  0
   13.9414    5.3526   21.3126 N   0  0  0  0  0  0  0  0  0  0  0  0
   12.7876    6.1338   23.3197 O   0  0  0  0  0  0  0  0  0  0  0  0
   14.7395    4.6379   23.5085 O   0  0  0  0  0  0  0  0  0  0  0  0
    5.6844   -0.8891   21.0094 C   0  0  0  0  0  0  0  0  0  0  0  0
    5.8060   -1.0640   19.6342 C   0  0  0  0  0  0  0  0  0  0  0  0
    5.1637   -0.2077   18.7565 C   0  0  0  0  0  0  0  0  0  0  0  0
    4.3888    0.8326   19.2350 C   0  0  0  0  0  0  0  0  0  0  0  0
    4.2485    1.0327   20.5972 C   0  0  0  0  0  0  0  0  0  0  0  0
    3.4005    2.1628   21.1278 C   0  0  0  0  0  0  0  0  0  0  0  0
    4.8995    0.1695   21.4658 C   0  0  0  0  0  0  0  0  0  0  0  0
  1  2  1  0
  2  3  1  0
  3  4  1  0
  4  5  1  0
  5  6  1  0
  6  7  1  0
  7  8  1  0
  6  9  1  0
  9 10  2  0
 10 11  1  0
 11 12  2  0
 12 13  1  0
 13 14  2  0
 12 15  1  0
 15 16  1  0
 15 17  2  0
 15 18  2  0
  2 19  1  0
 19 20  2  0
 20 21  1  0
 21 22  2  0
 22 23  1  0
 23 24  1  0
 23 25  2  0
  8  3  1  0
 14  9  1  0
 25 19  1  0
M  END
