CVD-0001731|dock_bobby27042020.66|mol2|16|dock1
     RDKit          3D

 25 27  0  0  0  0  0  0  0  0999 V2000
    5.4805    1.1404   16.9229 O   0  0  0  0  0  0  0  0  0  0  0  0
    5.8266    1.0447   18.3073 C   0  0  0  0  0  0  0  0  0  0  0  0
    7.0256    0.1452   18.5819 C   0  0  0  0  0  0  0  0  0  0  0  0
    7.2863   -0.0468   20.0630 C   0  0  0  0  0  0  0  0  0  0  0  0
    6.1081   -0.5771   20.7596 N   0  0  0  0  0  0  0  0  0  0  0  0
    6.3956   -0.8010   22.1596 C   0  0  0  0  0  0  0  0  0  0  0  0
    7.6645   -1.4969   22.3476 N   0  0  0  0  0  0  0  0  0  0  0  0
    8.8477   -0.7566   22.4749 C   0  0  0  0  0  0  0  0  0  0  0  0
    8.7659    0.4584   22.5981 O   0  0  0  0  0  0  0  0  0  0  0  0
   10.0598   -1.4033   22.4411 N   0  0  0  0  0  0  0  0  0  0  0  0
   11.3809   -0.8912   22.5310 C   0  0  0  0  0  0  0  0  0  0  0  0
   12.3582   -1.4668   21.7286 C   0  0  0  0  0  0  0  0  0  0  0  0
   13.6580   -0.9948   21.7777 C   0  0  0  0  0  0  0  0  0  0  0  0
   13.9486    0.0443   22.6298 C   0  0  0  0  0  0  0  0  0  0  0  0
   13.0374    0.6175   23.4153 N   0  0  0  0  0  0  0  0  0  0  0  0
   11.7863    0.1490   23.3668 C   0  0  0  0  0  0  0  0  0  0  0  0
    7.5125   -2.9278   22.3826 C   0  0  0  0  0  0  0  0  0  0  0  0
    8.0859   -3.6535   23.4214 C   0  0  0  0  0  0  0  0  0  0  0  0
    7.9730   -5.0335   23.4621 C   0  0  0  0  0  0  0  0  0  0  0  0
    7.2851   -5.7133   22.4728 C   0  0  0  0  0  0  0  0  0  0  0  0
    6.7175   -4.9902   21.4487 C   0  0  0  0  0  0  0  0  0  0  0  0
    5.8457   -5.8289   20.1960 Cl  0  0  0  0  0  0  0  0  0  0  0  0
    6.8222   -3.6159   21.3890 C   0  0  0  0  0  0  0  0  0  0  0  0
    4.9874    0.3517   20.5905 C   0  0  0  0  0  0  0  0  0  0  0  0
    4.6439    0.5315   19.1212 C   0  0  0  0  0  0  0  0  0  0  0  0
  1  2  1  0
  2  3  1  0
  3  4  1  0
  4  5  1  0
  5  6  1  0
  6  7  1  0
  7  8  1  0
  8  9  2  0
  8 10  1  0
 10 11  1  0
 11 12  2  0
 12 13  1  0
 13 14  2  0
 14 15  1  0
 15 16  2  0
  7 17  1  0
 17 18  2  0
 18 19  1  0
 19 20  2  0
 20 21  1  0
 21 22  1  0
 21 23  2  0
  5 24  1  0
 24 25  1  0
 25  2  1  0
 16 11  1  0
 23 17  1  0
M  END
