CVD-0001471|dock_bobby27042020.52|mol2|31|dock2
     RDKit          3D

 36 40  0  0  0  0  0  0  0  0999 V2000
    3.3990    2.2989   18.9093 C   0  0  0  0  0  0  0  0  0  0  0  0
    3.9947    1.2152   19.3316 C   0  0  0  0  0  0  0  0  0  0  0  0
    5.3527    0.8473   18.8408 C   0  0  0  0  0  0  0  0  0  0  0  0
    5.6946    1.1321   17.6941 O   0  0  0  0  0  0  0  0  0  0  0  0
    6.1957    0.1997   19.6726 N   0  0  0  0  0  0  0  0  0  0  0  0
    7.5391   -0.1962   19.2668 C   0  0  0  0  0  0  0  0  0  0  0  0
    8.1663   -0.7966   20.5238 C   0  0  0  0  0  0  0  0  0  0  0  0
    9.1486    0.0638   21.3046 C   0  0  0  0  0  0  0  0  0  0  0  0
    8.3538    0.6965   22.3763 N   0  0  0  0  0  0  0  0  0  0  0  0
    7.4689   -0.3948   22.8114 C   0  0  0  0  0  0  0  0  0  0  0  0
    7.0172   -1.0333   21.5086 C   0  0  0  0  0  0  0  0  0  0  0  0
    5.7822   -0.3637   20.9192 C   0  0  0  0  0  0  0  0  0  0  0  0
    9.1624    1.5265   23.5233 S   0  0  0  0  0  0  0  0  0  0  0  0
    8.5389    1.1959   24.7669 O   0  0  0  0  0  0  0  0  0  0  0  0
    9.2164    2.8838   23.0763 O   0  0  0  0  0  0  0  0  0  0  0  0
   10.8288    0.9025   23.5627 C   0  0  0  0  0  0  0  0  0  0  0  0
   11.7776    1.7583   23.0195 C   0  0  0  0  0  0  0  0  0  0  0  0
   13.1016    1.3599   22.9621 C   0  0  0  0  0  0  0  0  0  0  0  0
   13.4773    0.1257   23.4414 C   0  0  0  0  0  0  0  0  0  0  0  0
   12.5369   -0.7207   24.0016 C   0  0  0  0  0  0  0  0  0  0  0  0
   11.1944   -0.3489   24.0934 C   0  0  0  0  0  0  0  0  0  0  0  0
   10.2909   -1.3387   24.7514 C   0  0  0  0  0  0  0  0  0  0  0  0
   10.0685   -2.5787   24.1634 C   0  0  0  0  0  0  0  0  0  0  0  0
    9.2369   -3.5213   24.7426 C   0  0  0  0  0  0  0  0  0  0  0  0
    8.5925   -3.2494   25.9473 C   0  0  0  0  0  0  0  0  0  0  0  0
    7.7248   -4.1452   26.6085 N   0  0  0  0  0  0  0  0  0  0  0  0
    6.8227   -5.1069   26.1776 C   0  0  0  0  0  0  0  0  0  0  0  0
    6.1237   -5.8381   27.1375 C   0  0  0  0  0  0  0  0  0  0  0  0
    5.2220   -6.7994   26.7179 C   0  0  0  0  0  0  0  0  0  0  0  0
    5.0298   -7.0179   25.3591 C   0  0  0  0  0  0  0  0  0  0  0  0
    5.7715   -6.2406   24.4756 C   0  0  0  0  0  0  0  0  0  0  0  0
    6.6465   -5.3080   24.8683 N   0  0  0  0  0  0  0  0  0  0  0  0
    4.0985   -8.0111   24.8837 C   0  0  0  0  0  0  0  0  0  0  0  0
    3.3866   -8.8164   24.4972 N   0  0  0  0  0  0  0  0  0  0  0  0
    8.8153   -2.0144   26.5440 C   0  0  0  0  0  0  0  0  0  0  0  0
    9.6508   -1.0805   25.9585 C   0  0  0  0  0  0  0  0  0  0  0  0
  1  2  2  0
  2  3  1  0
  3  4  2  0
  3  5  1  0
  5  6  1  0
  7  6  1  0
  7  8  1  0
  8  9  1  0
  9 10  1  0
 11 10  1  0
 11 12  1  0
  9 13  1  0
 13 14  2  0
 13 15  2  0
 13 16  1  0
 16 17  2  0
 17 18  1  0
 18 19  2  0
 19 20  1  0
 20 21  2  0
 21 22  1  0
 22 23  2  0
 23 24  1  0
 24 25  2  0
 25 26  1  0
 26 27  1  0
 27 28  2  0
 28 29  1  0
 29 30  2  0
 30 31  1  0
 31 32  2  0
 30 33  1  0
 33 34  3  0
 25 35  1  0
 35 36  2  0
 12  5  1  0
 21 16  1  0
 36 22  1  0
 11  7  1  0
 32 27  1  0
M  END
