CVD-0001645|dock_bobby27042020.9|mol2|8|dock3
     RDKit          3D

 25 27  0  0  0  0  0  0  0  0999 V2000
   13.3820   -1.3688   22.1270 C   0  0  0  0  0  0  0  0  0  0  0  0
   12.3849   -1.4864   23.2687 C   0  0  0  0  0  0  0  0  0  0  0  0
   12.2722   -0.1705   23.9991 C   0  0  0  0  0  0  0  0  0  0  0  0
   11.6686    0.8559   23.1470 N   0  0  0  0  0  0  0  0  0  0  0  0
   10.4225    0.4265   22.5074 C   0  0  0  0  0  0  0  0  0  0  0  0
   10.6141   -0.8973   21.8163 C   0  0  0  0  0  0  0  0  0  0  0  0
   11.0777   -1.9040   22.7658 N   0  0  0  0  0  0  0  0  0  0  0  0
   10.1109   -2.1131   23.8453 C   0  0  0  0  0  0  0  0  0  0  0  0
   12.2157    2.1239   22.9812 C   0  0  0  0  0  0  0  0  0  0  0  0
   13.5591    2.3160   22.7010 C   0  0  0  0  0  0  0  0  0  0  0  0
   14.1116    3.5154   22.4906 N   0  0  0  0  0  0  0  0  0  0  0  0
   13.3227    4.6039   22.5576 C   0  0  0  0  0  0  0  0  0  0  0  0
   14.0055    5.8282   22.1970 C   0  0  0  0  0  0  0  0  0  0  0  0
   14.5335    6.7873   21.8712 N   0  0  0  0  0  0  0  0  0  0  0  0
   11.9670    4.5377   22.9251 C   0  0  0  0  0  0  0  0  0  0  0  0
   11.4258    3.2629   23.0947 C   0  0  0  0  0  0  0  0  0  0  0  0
   11.0065    5.6743   23.1526 C   0  0  0  0  0  0  0  0  0  0  0  0
   11.3645    6.5821   23.8956 O   0  0  0  0  0  0  0  0  0  0  0  0
    9.8041    5.6466   22.5153 N   0  0  0  0  0  0  0  0  0  0  0  0
    8.7105    6.5496   22.5566 C   0  0  0  0  0  0  0  0  0  0  0  0
    7.8411    6.5506   21.4714 C   0  0  0  0  0  0  0  0  0  0  0  0
    6.7538    7.4072   21.4377 C   0  0  0  0  0  0  0  0  0  0  0  0
    6.5190    8.2718   22.4832 C   0  0  0  0  0  0  0  0  0  0  0  0
    7.3703    8.2790   23.5660 C   0  0  0  0  0  0  0  0  0  0  0  0
    8.4600    7.4250   23.6120 C   0  0  0  0  0  0  0  0  0  0  0  0
  1  2  1  0
  2  3  1  0
  3  4  1  0
  4  5  1  0
  5  6  1  0
  6  7  1  0
  7  8  1  0
  4  9  1  0
  9 10  2  0
 10 11  1  0
 11 12  2  0
 12 13  1  0
 13 14  3  0
 12 15  1  0
 15 16  2  0
 15 17  1  0
 17 18  2  0
 17 19  1  0
 19 20  1  0
 20 21  2  0
 21 22  1  0
 22 23  2  0
 23 24  1  0
 24 25  2  0
  7  2  1  0
 16  9  1  0
 25 20  1  0
M  END
