CVD-0000705|dock_bobby27042020.83|mol2|32|dock2
     RDKit          3D

 17 18  0  0  0  0  0  0  0  0999 V2000
    5.8614    1.2992   17.3364 Cl  0  0  0  0  0  0  0  0  0  0  0  0
    6.1907    0.6990   18.9376 C   0  0  0  0  0  0  0  0  0  0  0  0
    5.2040    0.7617   19.8948 C   0  0  0  0  0  0  0  0  0  0  0  0
    5.4774    0.2818   21.1634 C   0  0  0  0  0  0  0  0  0  0  0  0
    6.7198   -0.2514   21.4643 C   0  0  0  0  0  0  0  0  0  0  0  0
    7.7129   -0.3109   20.4885 C   0  0  0  0  0  0  0  0  0  0  0  0
    9.0084   -0.8411   20.7166 N   0  0  0  0  0  0  0  0  0  0  0  0
    9.7499   -0.9453   21.8717 C   0  0  0  0  0  0  0  0  0  0  0  0
    9.3731   -0.5638   22.9746 O   0  0  0  0  0  0  0  0  0  0  0  0
   10.9706   -1.5337   21.6298 N   0  0  0  0  0  0  0  0  0  0  0  0
   12.0427   -1.8387   22.5064 C   0  0  0  0  0  0  0  0  0  0  0  0
   11.7471   -2.2062   23.8131 C   0  0  0  0  0  0  0  0  0  0  0  0
   12.7729   -2.5093   24.6906 C   0  0  0  0  0  0  0  0  0  0  0  0
   14.0693   -2.4370   24.2375 C   0  0  0  0  0  0  0  0  0  0  0  0
   14.3871   -2.0881   22.9909 N   0  0  0  0  0  0  0  0  0  0  0  0
   13.3894   -1.7970   22.1502 C   0  0  0  0  0  0  0  0  0  0  0  0
    7.4357    0.1725   19.2135 C   0  0  0  0  0  0  0  0  0  0  0  0
  1  2  1  0
  2  3  2  0
  3  4  1  0
  4  5  2  0
  5  6  1  0
  6  7  1  0
  7  8  1  0
  8  9  2  0
  8 10  1  0
 10 11  1  0
 11 12  2  0
 12 13  1  0
 13 14  2  0
 14 15  1  0
 15 16  2  0
  6 17  2  0
 17  2  1  0
 16 11  1  0
M  END
