CVD-0000587|dock_bobby27042020.41|mol2|6|dock1
     RDKit          3D

 17 18  0  0  0  0  0  0  0  0999 V2000
   10.9964   -1.7341   21.4351 O   0  0  0  0  0  0  0  0  0  0  0  0
   11.5072   -0.5153   21.7507 C   0  0  0  0  0  0  0  0  0  0  0  0
   12.8264   -0.4789   22.1878 C   0  0  0  0  0  0  0  0  0  0  0  0
   13.4276    0.7173   22.5303 C   0  0  0  0  0  0  0  0  0  0  0  0
   12.6986    1.8798   22.4325 C   0  0  0  0  0  0  0  0  0  0  0  0
   13.4463    3.3928   22.8616 Cl  0  0  0  0  0  0  0  0  0  0  0  0
   11.3881    1.8760   22.0023 C   0  0  0  0  0  0  0  0  0  0  0  0
   10.7598    0.6775   21.6505 C   0  0  0  0  0  0  0  0  0  0  0  0
    9.3281    0.7977   21.1956 C   0  0  0  0  0  0  0  0  0  0  0  0
    8.5763    1.5470   21.8102 O   0  0  0  0  0  0  0  0  0  0  0  0
    8.9404    0.0632   20.1180 N   0  0  0  0  0  0  0  0  0  0  0  0
    7.6844   -0.0343   19.4663 C   0  0  0  0  0  0  0  0  0  0  0  0
    6.4570    0.2329   20.0663 C   0  0  0  0  0  0  0  0  0  0  0  0
    5.2961    0.1016   19.3235 C   0  0  0  0  0  0  0  0  0  0  0  0
    5.3894   -0.2908   18.0083 C   0  0  0  0  0  0  0  0  0  0  0  0
    6.5487   -0.5536   17.4061 N   0  0  0  0  0  0  0  0  0  0  0  0
    7.6630   -0.4238   18.1318 C   0  0  0  0  0  0  0  0  0  0  0  0
  1  2  1  0
  2  3  2  0
  3  4  1  0
  4  5  2  0
  5  6  1  0
  5  7  1  0
  7  8  2  0
  8  9  1  0
  9 10  2  0
  9 11  1  0
 11 12  1  0
 12 13  2  0
 13 14  1  0
 14 15  2  0
 15 16  1  0
 16 17  2  0
  8  2  1  0
 17 12  1  0
M  END
