CVD-0002389|dock_bobby27042020.34|mol2|29|dock1
     RDKit          3D

 26 29  0  0  0  0  0  0  0  0999 V2000
    6.5628    1.0234   22.8082 F   0  0  0  0  0  0  0  0  0  0  0  0
    7.9121    0.9932   22.9010 C   0  0  0  0  0  0  0  0  0  0  0  0
    8.6232    2.1444   22.6914 C   0  0  0  0  0  0  0  0  0  0  0  0
   10.0149    2.1202   22.7769 C   0  0  0  0  0  0  0  0  0  0  0  0
   10.6756    0.9138   23.0513 C   0  0  0  0  0  0  0  0  0  0  0  0
    9.9268   -0.2374   23.2916 C   0  0  0  0  0  0  0  0  0  0  0  0
    8.5482   -0.1928   23.2060 C   0  0  0  0  0  0  0  0  0  0  0  0
    7.6305   -1.6363   23.4852 Cl  0  0  0  0  0  0  0  0  0  0  0  0
   12.0924    0.9279   23.0813 N   0  0  0  0  0  0  0  0  0  0  0  0
   12.8363   -0.2925   23.2983 C   0  0  0  0  0  0  0  0  0  0  0  0
   13.5104   -0.5051   24.4953 C   0  0  0  0  0  0  0  0  0  0  0  0
   14.2234   -1.6753   24.6961 C   0  0  0  0  0  0  0  0  0  0  0  0
   14.2718   -2.6385   23.7120 C   0  0  0  0  0  0  0  0  0  0  0  0
   13.6073   -2.4356   22.5221 C   0  0  0  0  0  0  0  0  0  0  0  0
   12.8914   -1.2690   22.3106 C   0  0  0  0  0  0  0  0  0  0  0  0
   12.8440    2.0906   22.8872 C   0  0  0  0  0  0  0  0  0  0  0  0
   14.0647    2.0480   22.9048 O   0  0  0  0  0  0  0  0  0  0  0  0
   12.1478    3.2863   22.6503 N   0  0  0  0  0  0  0  0  0  0  0  0
   12.9108    4.5066   22.4574 C   0  0  0  0  0  0  0  0  0  0  0  0
   12.6359    5.7060   23.1378 C   0  0  0  0  0  0  0  0  0  0  0  0
   13.3643    6.8103   22.9498 N   0  0  0  0  0  0  0  0  0  0  0  0
   14.3658    6.7313   22.0759 C   0  0  0  0  0  0  0  0  0  0  0  0
   14.6398    5.5636   21.3967 C   0  0  0  0  0  0  0  0  0  0  0  0
   13.9183    4.4517   21.5813 N   0  0  0  0  0  0  0  0  0  0  0  0
   10.7429    3.3789   22.5809 C   0  0  0  0  0  0  0  0  0  0  0  0
   10.1539    4.4281   22.3853 O   0  0  0  0  0  0  0  0  0  0  0  0
  1  2  1  0
  2  3  2  0
  3  4  1  0
  4  5  2  0
  5  6  1  0
  6  7  2  0
  7  8  1  0
  5  9  1  0
  9 10  1  0
 10 11  2  0
 11 12  1  0
 12 13  2  0
 13 14  1  0
 14 15  2  0
  9 16  1  0
 16 17  2  0
 16 18  1  0
 18 19  1  0
 19 20  2  0
 20 21  1  0
 21 22  2  0
 22 23  1  0
 23 24  2  0
 18 25  1  0
 25 26  2  0
  7  2  1  0
 15 10  1  0
 24 19  1  0
 25  4  1  0
M  END
