CVD-0002139|dock_bobby27042020.21|mol2|24|dock1
     RDKit          3D

 22 24  0  0  0  0  0  0  0  0999 V2000
   11.3302   -1.2915   21.5247 N   0  0  0  0  0  0  0  0  0  0  0  0
   10.1589   -1.3892   22.4245 C   0  0  0  0  0  0  0  0  0  0  0  0
    8.9576   -0.5795   21.9502 C   0  0  0  0  0  0  0  0  0  0  0  0
    7.7938   -1.2531   22.4138 O   0  0  0  0  0  0  0  0  0  0  0  0
    6.5813   -0.4923   22.2328 C   0  0  0  0  0  0  0  0  0  0  0  0
    6.6515    0.6838   23.2437 C   0  0  0  0  0  0  0  0  0  0  0  0
    7.8905    1.4983   22.9186 C   0  0  0  0  0  0  0  0  0  0  0  0
    7.9694    2.8673   23.2167 C   0  0  0  0  0  0  0  0  0  0  0  0
    6.9456    3.5300   23.8381 O   0  0  0  0  0  0  0  0  0  0  0  0
    9.1613    3.5646   23.0260 C   0  0  0  0  0  0  0  0  0  0  0  0
    9.2307    4.8670   23.4055 O   0  0  0  0  0  0  0  0  0  0  0  0
   10.2865    2.9169   22.5387 C   0  0  0  0  0  0  0  0  0  0  0  0
   10.2154    1.5692   22.2430 C   0  0  0  0  0  0  0  0  0  0  0  0
    9.0335    0.8508   22.4256 C   0  0  0  0  0  0  0  0  0  0  0  0
    6.5390   -0.0550   20.7776 C   0  0  0  0  0  0  0  0  0  0  0  0
    5.3125    0.8058   20.4648 C   0  0  0  0  0  0  0  0  0  0  0  0
    5.4723    1.4773   19.0987 C   0  0  0  0  0  0  0  0  0  0  0  0
    5.6832    0.4319   18.0042 C   0  0  0  0  0  0  0  0  0  0  0  0
    6.8001   -0.5300   18.3277 C   0  0  0  0  0  0  0  0  0  0  0  0
    8.0462    0.1666   18.2811 O   0  0  0  0  0  0  0  0  0  0  0  0
    6.6887   -1.1585   19.7123 C   0  0  0  0  0  0  0  0  0  0  0  0
    5.5415   -2.0034   19.7357 O   0  0  0  0  0  0  0  0  0  0  0  0
  1  2  1  0
  2  3  1  0
  3  4  1  0
  4  5  1  0
  5  6  1  0
  6  7  1  0
  7  8  2  0
  8  9  1  0
  8 10  1  0
 10 11  1  0
 10 12  2  0
 12 13  1  0
 13 14  2  0
  5 15  1  0
 15 16  1  0
 16 17  1  0
 17 18  1  0
 18 19  1  0
 19 20  1  0
 19 21  1  0
 21 22  1  0
 14  3  1  0
 21 15  1  0
 14  7  1  0
M  END
