CVD-0000645|dock_bobby27042020.69|mol2|34|dock1
     RDKit          3D

 19 21  0  0  0  0  0  0  0  0999 V2000
    8.7274    0.1416   22.5024 O   0  0  0  0  0  0  0  0  0  0  0  0
    9.2153   -0.4412   21.5399 C   0  0  0  0  0  0  0  0  0  0  0  0
   10.5454   -1.1529   21.6695 C   0  0  0  0  0  0  0  0  0  0  0  0
   11.4393   -0.6114   22.7447 C   0  0  0  0  0  0  0  0  0  0  0  0
   11.7274    0.6987   22.9899 C   0  0  0  0  0  0  0  0  0  0  0  0
   12.5812    0.8068   24.0534 N   0  0  0  0  0  0  0  0  0  0  0  0
   12.8666   -0.4515   24.5245 C   0  0  0  0  0  0  0  0  0  0  0  0
   13.6740   -0.8696   25.5767 C   0  0  0  0  0  0  0  0  0  0  0  0
   13.7798   -2.2274   25.8309 C   0  0  0  0  0  0  0  0  0  0  0  0
   13.0985   -3.1444   25.0563 C   0  0  0  0  0  0  0  0  0  0  0  0
   12.2933   -2.7298   24.0072 C   0  0  0  0  0  0  0  0  0  0  0  0
   12.1638   -1.3712   23.7231 C   0  0  0  0  0  0  0  0  0  0  0  0
    8.6604   -0.5352   20.3069 N   0  0  0  0  0  0  0  0  0  0  0  0
    7.4428   -0.0313   19.7856 C   0  0  0  0  0  0  0  0  0  0  0  0
    7.4422    0.4538   18.4827 C   0  0  0  0  0  0  0  0  0  0  0  0
    6.2819    0.9581   17.9203 C   0  0  0  0  0  0  0  0  0  0  0  0
    5.1126    0.9847   18.6475 C   0  0  0  0  0  0  0  0  0  0  0  0
    5.1010    0.5069   19.9396 C   0  0  0  0  0  0  0  0  0  0  0  0
    6.2554   -0.0001   20.5134 C   0  0  0  0  0  0  0  0  0  0  0  0
  1  2  2  0
  2  3  1  0
  3  4  1  0
  4  5  2  0
  5  6  1  0
  6  7  1  0
  7  8  2  0
  8  9  1  0
  9 10  2  0
 10 11  1  0
 11 12  2  0
  2 13  1  0
 13 14  1  0
 14 15  2  0
 15 16  1  0
 16 17  2  0
 17 18  1  0
 18 19  2  0
 12  4  1  0
 19 14  1  0
 12  7  1  0
M  END
