CVD-0002945|dock_bobby27042020.89|mol2|31|dock3
     RDKit          3D

 20 21  0  0  0  0  0  0  0  0999 V2000
    3.5383    2.2104   19.9701 C   0  0  0  0  0  0  0  0  0  0  0  0
    4.8251    1.8954   20.6745 C   0  0  0  0  0  0  0  0  0  0  0  0
    5.2813    2.6529   21.5242 O   0  0  0  0  0  0  0  0  0  0  0  0
    5.3892    0.7209   20.2906 N   0  0  0  0  0  0  0  0  0  0  0  0
    6.5707    0.0600   20.7092 C   0  0  0  0  0  0  0  0  0  0  0  0
    6.6856   -1.3254   20.7874 C   0  0  0  0  0  0  0  0  0  0  0  0
    7.8704   -1.9058   21.2051 C   0  0  0  0  0  0  0  0  0  0  0  0
    8.9693   -1.1351   21.5551 C   0  0  0  0  0  0  0  0  0  0  0  0
    8.8493    0.2446   21.4746 C   0  0  0  0  0  0  0  0  0  0  0  0
    7.6697    0.8356   21.0591 C   0  0  0  0  0  0  0  0  0  0  0  0
   10.2525   -1.7829   22.0129 C   0  0  0  0  0  0  0  0  0  0  0  0
   10.3091   -1.9431   23.5144 C   0  0  0  0  0  0  0  0  0  0  0  0
   11.6503   -2.5294   23.8970 C   0  0  0  0  0  0  0  0  0  0  0  0
   12.7313   -1.6889   23.3425 N   0  0  0  0  0  0  0  0  0  0  0  0
   12.6284   -1.5113   21.8969 C   0  0  0  0  0  0  0  0  0  0  0  0
   11.3628   -0.9893   21.5586 O   0  0  0  0  0  0  0  0  0  0  0  0
   13.7424   -1.1330   24.0459 C   0  0  0  0  0  0  0  0  0  0  0  0
   14.5945   -0.4473   23.4951 O   0  0  0  0  0  0  0  0  0  0  0  0
   13.7910   -1.3764   25.5422 C   0  0  0  0  0  0  0  0  0  0  0  0
   14.0263   -3.0892   25.9132 Cl  0  0  0  0  0  0  0  0  0  0  0  0
  1  2  1  0
  2  3  2  0
  2  4  1  0
  4  5  1  0
  5  6  2  0
  6  7  1  0
  7  8  2  0
  8  9  1  0
  9 10  2  0
  8 11  1  0
 11 12  1  0
 12 13  1  0
 13 14  1  0
 14 15  1  0
 15 16  1  0
 14 17  1  0
 17 18  2  0
 17 19  1  0
 19 20  1  0
 10  5  1  0
 16 11  1  0
M  END
