CVD-0000942|dock_bobby27042020.97|mol2|4|dock2
     RDKit          3D

 26 29  0  0  0  0  0  0  0  0999 V2000
    6.6108   -1.0964   21.6823 F   0  0  0  0  0  0  0  0  0  0  0  0
    7.9145   -1.4397   21.8645 C   0  0  0  0  0  0  0  0  0  0  0  0
    8.2155   -2.3965   22.7944 C   0  0  0  0  0  0  0  0  0  0  0  0
    9.5417   -2.7450   22.9797 C   0  0  0  0  0  0  0  0  0  0  0  0
   10.5327   -2.1261   22.2335 C   0  0  0  0  0  0  0  0  0  0  0  0
   11.8630   -2.4539   22.3961 O   0  0  0  0  0  0  0  0  0  0  0  0
   12.8372   -1.4637   22.6916 C   0  0  0  0  0  0  0  0  0  0  0  0
   14.0493   -2.2375   23.2014 C   0  0  0  0  0  0  0  0  0  0  0  0
   13.8969   -2.7714   24.5816 C   0  0  0  0  0  0  0  0  0  0  0  0
   14.5784   -3.7082   24.9393 O   0  0  0  0  0  0  0  0  0  0  0  0
   12.8823   -2.1165   25.4627 C   0  0  0  0  0  0  0  0  0  0  0  0
   12.3808   -0.7716   25.0334 C   0  0  0  0  0  0  0  0  0  0  0  0
   11.9873    0.0051   25.8952 O   0  0  0  0  0  0  0  0  0  0  0  0
   12.4127   -0.5200   23.7305 N   0  0  0  0  0  0  0  0  0  0  0  0
   12.0765    0.7563   23.3053 C   0  0  0  0  0  0  0  0  0  0  0  0
   10.8340    1.3311   23.0967 C   0  0  0  0  0  0  0  0  0  0  0  0
   11.0338    2.6389   22.6668 C   0  0  0  0  0  0  0  0  0  0  0  0
   12.4226    2.8568   22.6095 C   0  0  0  0  0  0  0  0  0  0  0  0
   13.0152    1.6845   23.0050 N   0  0  0  0  0  0  0  0  0  0  0  0
   13.1206    4.0291   22.2279 C   0  0  0  0  0  0  0  0  0  0  0  0
   14.5389    4.1717   22.2303 C   0  0  0  0  0  0  0  0  0  0  0  0
   14.8111    5.4421   21.7991 C   0  0  0  0  0  0  0  0  0  0  0  0
   13.6377    6.0727   21.5371 N   0  0  0  0  0  0  0  0  0  0  0  0
   12.5975    5.2291   21.7920 C   0  0  0  0  0  0  0  0  0  0  0  0
   10.1930   -1.1634   21.2982 C   0  0  0  0  0  0  0  0  0  0  0  0
    8.8678   -0.8135   21.1097 C   0  0  0  0  0  0  0  0  0  0  0  0
  1  2  1  0
  2  3  2  0
  3  4  1  0
  4  5  2  0
  5  6  1  0
  7  6  1  0
  7  8  1  0
  8  9  1  0
  9 10  2  0
  9 11  1  0
 11 12  1  0
 12 13  2  0
 12 14  1  0
 14 15  1  0
 15 16  2  0
 16 17  1  0
 17 18  2  0
 18 19  1  0
 18 20  1  0
 20 21  1  0
 21 22  2  0
 22 23  1  0
 23 24  1  0
  5 25  1  0
 25 26  2  0
 26  2  1  0
 14  7  1  0
 19 15  1  0
 24 20  2  0
M  END
