CVD-0002291|dock_bobby27042020.92|mol2|8|dock1
     RDKit          3D

 40 43  0  0  0  0  0  0  0  0999 V2000
   14.0927    6.0556   21.6278 C   0  0  0  0  0  0  0  0  0  0  0  0
   13.1269    4.9539   21.6439 N   0  0  0  0  0  0  0  0  0  0  0  0
   13.4550    3.8726   22.5791 C   0  0  0  0  0  0  0  0  0  0  0  0
   12.4647    2.7411   22.4919 C   0  0  0  0  0  0  0  0  0  0  0  0
   11.0683    2.8860   22.4245 C   0  0  0  0  0  0  0  0  0  0  0  0
   10.4609    1.6452   22.3729 C   0  0  0  0  0  0  0  0  0  0  0  0
    8.9913    1.4444   22.3004 C   0  0  0  0  0  0  0  0  0  0  0  0
    8.2288    2.2858   23.1120 C   0  0  0  0  0  0  0  0  0  0  0  0
    6.8465    2.2159   23.1277 C   0  0  0  0  0  0  0  0  0  0  0  0
    6.1742    1.2937   22.3465 C   0  0  0  0  0  0  0  0  0  0  0  0
    6.9150    0.4245   21.5545 C   0  0  0  0  0  0  0  0  0  0  0  0
    6.2066   -0.5493   20.7704 N   0  0  0  0  0  0  0  0  0  0  0  0
    5.4347   -0.0541   19.6035 C   0  0  0  0  0  0  0  0  0  0  0  0
    5.9366   -0.7361   18.3414 C   0  0  0  0  0  0  0  0  0  0  0  0
    5.5391    1.4566   19.4734 C   0  0  0  0  0  0  0  0  0  0  0  0
    6.3305   -1.8798   21.0769 C   0  0  0  0  0  0  0  0  0  0  0  0
    5.7836   -2.6956   20.3609 O   0  0  0  0  0  0  0  0  0  0  0  0
    7.1154   -2.4057   22.2683 C   0  0  0  0  0  0  0  0  0  0  0  0
    6.5274   -1.8925   23.5770 C   0  0  0  0  0  0  0  0  0  0  0  0
    7.2911   -2.4521   24.7595 C   0  0  0  0  0  0  0  0  0  0  0  0
    7.2711   -3.9119   24.7205 N   0  0  0  0  0  0  0  0  0  0  0  0
    7.8742   -4.4518   23.5067 C   0  0  0  0  0  0  0  0  0  0  0  0
    7.1316   -3.9325   22.2800 C   0  0  0  0  0  0  0  0  0  0  0  0
    7.0098   -4.7232   25.7653 C   0  0  0  0  0  0  0  0  0  0  0  0
    6.9928   -5.9424   25.6527 O   0  0  0  0  0  0  0  0  0  0  0  0
    6.7431   -4.0451   27.0948 C   0  0  0  0  0  0  0  0  0  0  0  0
    6.6136   -5.2271   28.4039 Cl  0  0  0  0  0  0  0  0  0  0  0  0
    8.3007    0.5103   21.5381 C   0  0  0  0  0  0  0  0  0  0  0  0
    8.9525   -0.3700   20.7634 F   0  0  0  0  0  0  0  0  0  0  0  0
   11.5225    0.6951   22.3917 N   0  0  0  0  0  0  0  0  0  0  0  0
   12.7287    1.3805   22.4729 C   0  0  0  0  0  0  0  0  0  0  0  0
   11.5774   -0.9991   22.3211 S   0  0  0  0  0  0  0  0  0  0  0  0
   11.7138   -1.3781   20.9492 O   0  0  0  0  0  0  0  0  0  0  0  0
   10.4176   -1.4274   23.0395 O   0  0  0  0  0  0  0  0  0  0  0  0
   12.9777   -1.5119   23.2557 C   0  0  0  0  0  0  0  0  0  0  0  0
   13.3020   -0.8709   24.4390 C   0  0  0  0  0  0  0  0  0  0  0  0
   14.4341   -1.2807   25.1220 C   0  0  0  0  0  0  0  0  0  0  0  0
   15.1839   -2.3120   24.6032 C   0  0  0  0  0  0  0  0  0  0  0  0
   14.8728   -2.9510   23.4745 N   0  0  0  0  0  0  0  0  0  0  0  0
   13.7823   -2.5464   22.8171 C   0  0  0  0  0  0  0  0  0  0  0  0
  1  2  1  0
  2  3  1  0
  3  4  1  0
  4  5  1  0
  5  6  2  0
  6  7  1  0
  7  8  2  0
  8  9  1  0
  9 10  2  0
 10 11  1  0
 11 12  1  0
 12 13  1  0
 13 14  1  0
 13 15  1  0
 12 16  1  0
 16 17  2  0
 16 18  1  0
 18 19  1  0
 19 20  1  0
 20 21  1  0
 21 22  1  0
 22 23  1  0
 21 24  1  0
 24 25  2  0
 24 26  1  0
 26 27  1  0
 11 28  2  0
 28 29  1  0
  6 30  1  0
 30 31  1  0
 30 32  1  0
 32 33  2  0
 32 34  2  0
 32 35  1  0
 35 36  2  0
 36 37  1  0
 37 38  2  0
 38 39  1  0
 39 40  2  0
 31  4  2  0
 40 35  1  0
 28  7  1  0
 23 18  1  0
M  END
