CVD-0003393|dock_bobby27042020.88|mol2|11|dock1
     RDKit          3D

 19 20  0  0  0  0  0  0  0  0999 V2000
    3.5748    1.9845   20.1499 C   0  0  0  0  0  0  0  0  0  0  0  0
    4.9858    2.0072   20.4981 N   0  0  0  0  0  0  0  0  0  0  0  0
    5.3189    2.7638   21.6934 C   0  0  0  0  0  0  0  0  0  0  0  0
    5.9151    1.2409   19.8345 C   0  0  0  0  0  0  0  0  0  0  0  0
    5.8365    1.0401   18.4632 C   0  0  0  0  0  0  0  0  0  0  0  0
    6.7190    0.3121   17.7759 N   0  0  0  0  0  0  0  0  0  0  0  0
    7.7214   -0.2530   18.4494 C   0  0  0  0  0  0  0  0  0  0  0  0
    7.8947   -0.1254   19.8207 C   0  0  0  0  0  0  0  0  0  0  0  0
    8.9994   -0.7761   20.4242 N   0  0  0  0  0  0  0  0  0  0  0  0
    9.4118   -0.8275   21.7140 C   0  0  0  0  0  0  0  0  0  0  0  0
    8.8600   -0.2780   22.6617 O   0  0  0  0  0  0  0  0  0  0  0  0
   10.6614   -1.6568   21.9135 C   0  0  0  0  0  0  0  0  0  0  0  0
   11.2798   -1.5063   23.3068 C   0  0  0  0  0  0  0  0  0  0  0  0
   11.7897   -0.0690   23.5380 C   0  0  0  0  0  0  0  0  0  0  0  0
   12.4777    0.0948   24.8920 C   0  0  0  0  0  0  0  0  0  0  0  0
   13.5940   -0.9254   25.0739 C   0  0  0  0  0  0  0  0  0  0  0  0
   13.0792   -2.3439   24.8763 C   0  0  0  0  0  0  0  0  0  0  0  0
   12.4291   -2.5091   23.5064 C   0  0  0  0  0  0  0  0  0  0  0  0
    6.9666    0.6391   20.5245 C   0  0  0  0  0  0  0  0  0  0  0  0
  1  2  1  0
  2  3  1  0
  2  4  1  0
  4  5  2  0
  5  6  1  0
  6  7  2  0
  7  8  1  0
  8  9  1  0
  9 10  1  0
 10 11  2  0
 10 12  1  0
 12 13  1  0
 13 14  1  0
 14 15  1  0
 15 16  1  0
 16 17  1  0
 17 18  1  0
  8 19  2  0
 19  4  1  0
 18 13  1  0
M  END
