CVD-0003018|dock_bobby27042020.61|mol2|15|dock2
     RDKit          3D

 19 20  0  0  0  0  0  0  0  0999 V2000
   14.2264    6.3903   21.8891 Br  0  0  0  0  0  0  0  0  0  0  0  0
   13.2787    4.8717   22.0869 C   0  0  0  0  0  0  0  0  0  0  0  0
   12.6252    3.8955   22.2339 C   0  0  0  0  0  0  0  0  0  0  0  0
   11.8810    2.6755   22.3779 C   0  0  0  0  0  0  0  0  0  0  0  0
   10.4998    2.6644   22.2132 C   0  0  0  0  0  0  0  0  0  0  0  0
    9.7888    1.4857   22.3535 C   0  0  0  0  0  0  0  0  0  0  0  0
   10.4285    0.2947   22.6600 C   0  0  0  0  0  0  0  0  0  0  0  0
    9.6487   -0.9892   22.8098 C   0  0  0  0  0  0  0  0  0  0  0  0
    8.2908   -0.9047   22.2924 N   0  0  0  0  0  0  0  0  0  0  0  0
    8.0686   -0.8989   20.9653 C   0  0  0  0  0  0  0  0  0  0  0  0
    8.9934   -1.0122   20.1700 O   0  0  0  0  0  0  0  0  0  0  0  0
    6.7950   -0.7657   20.4991 N   0  0  0  0  0  0  0  0  0  0  0  0
    6.3972   -1.1652   19.1441 C   0  0  0  0  0  0  0  0  0  0  0  0
    5.5551   -0.0759   18.5118 C   0  0  0  0  0  0  0  0  0  0  0  0
    4.4301    0.2486   19.3033 O   0  0  0  0  0  0  0  0  0  0  0  0
    4.8489    0.7031   20.5905 C   0  0  0  0  0  0  0  0  0  0  0  0
    5.6467   -0.3586   21.3146 C   0  0  0  0  0  0  0  0  0  0  0  0
   11.8051    0.3113   22.8220 C   0  0  0  0  0  0  0  0  0  0  0  0
   12.5281    1.4829   22.6845 C   0  0  0  0  0  0  0  0  0  0  0  0
  1  2  1  0
  2  3  3  0
  3  4  1  0
  4  5  2  0
  5  6  1  0
  6  7  2  0
  7  8  1  0
  8  9  1  0
  9 10  1  0
 10 11  2  0
 10 12  1  0
 12 13  1  0
 13 14  1  0
 14 15  1  0
 15 16  1  0
 16 17  1  0
  7 18  1  0
 18 19  2  0
 19  4  1  0
 17 12  1  0
M  END
