CVD-0002281|dock_bobby27042020.35|mol2|5|dock3
     RDKit          3D

 40 43  0  0  0  0  0  0  0  0999 V2000
    9.9675   -6.1798   26.2649 C   0  0  0  0  0  0  0  0  0  0  0  0
    9.1842   -5.7932   25.0884 N   0  0  0  0  0  0  0  0  0  0  0  0
    8.3634   -4.6049   25.2135 C   0  0  0  0  0  0  0  0  0  0  0  0
    6.9256   -4.8710   25.3715 N   0  0  0  0  0  0  0  0  0  0  0  0
    6.1923   -4.3873   26.5812 C   0  0  0  0  0  0  0  0  0  0  0  0
    6.4125   -2.9019   26.8241 C   0  0  0  0  0  0  0  0  0  0  0  0
    6.4804   -5.2027   27.8334 C   0  0  0  0  0  0  0  0  0  0  0  0
    6.3408   -5.5607   24.3489 C   0  0  0  0  0  0  0  0  0  0  0  0
    6.9968   -5.8485   23.3653 O   0  0  0  0  0  0  0  0  0  0  0  0
    4.8891   -6.0167   24.3205 C   0  0  0  0  0  0  0  0  0  0  0  0
    4.7274   -7.2652   23.4621 C   0  0  0  0  0  0  0  0  0  0  0  0
    3.2743   -7.6894   23.4078 C   0  0  0  0  0  0  0  0  0  0  0  0
    2.4546   -6.5966   22.8912 N   0  0  0  0  0  0  0  0  0  0  0  0
    2.5356   -5.3938   23.7130 C   0  0  0  0  0  0  0  0  0  0  0  0
    3.9802   -4.9107   23.7892 C   0  0  0  0  0  0  0  0  0  0  0  0
    1.4937   -6.7094   21.9446 C   0  0  0  0  0  0  0  0  0  0  0  0
    0.8623   -5.7340   21.5576 O   0  0  0  0  0  0  0  0  0  0  0  0
    1.2041   -8.0828   21.3698 C   0  0  0  0  0  0  0  0  0  0  0  0
    2.5040   -8.6239   20.2998 Cl  0  0  0  0  0  0  0  0  0  0  0  0
    8.6217   -3.6312   24.0934 C   0  0  0  0  0  0  0  0  0  0  0  0
    7.6245   -3.1140   23.2177 C   0  0  0  0  0  0  0  0  0  0  0  0
    8.1868   -2.2619   22.2868 C   0  0  0  0  0  0  0  0  0  0  0  0
    7.4430   -1.5474   21.2205 C   0  0  0  0  0  0  0  0  0  0  0  0
    8.1274   -1.3309   20.0229 C   0  0  0  0  0  0  0  0  0  0  0  0
    7.5089   -0.7184   18.9461 C   0  0  0  0  0  0  0  0  0  0  0  0
    6.1995   -0.3034   19.0389 C   0  0  0  0  0  0  0  0  0  0  0  0
    5.5050   -0.4704   20.2234 C   0  0  0  0  0  0  0  0  0  0  0  0
    6.1453   -1.0581   21.2889 C   0  0  0  0  0  0  0  0  0  0  0  0
    5.4518   -1.1296   22.4449 F   0  0  0  0  0  0  0  0  0  0  0  0
    9.5749   -2.2273   22.5935 N   0  0  0  0  0  0  0  0  0  0  0  0
    9.8023   -3.0679   23.6761 C   0  0  0  0  0  0  0  0  0  0  0  0
   10.8874   -1.3873   21.9216 S   0  0  0  0  0  0  0  0  0  0  0  0
   11.3877   -2.2479   20.8950 O   0  0  0  0  0  0  0  0  0  0  0  0
   10.4273   -0.0803   21.5681 O   0  0  0  0  0  0  0  0  0  0  0  0
   12.1269   -1.2847   23.1665 C   0  0  0  0  0  0  0  0  0  0  0  0
   13.1831   -2.1795   23.1783 C   0  0  0  0  0  0  0  0  0  0  0  0
   14.1334   -2.0652   24.1783 C   0  0  0  0  0  0  0  0  0  0  0  0
   13.9893   -1.0699   25.1183 C   0  0  0  0  0  0  0  0  0  0  0  0
   12.9763   -0.2022   25.1201 N   0  0  0  0  0  0  0  0  0  0  0  0
   12.0625   -0.3182   24.1522 C   0  0  0  0  0  0  0  0  0  0  0  0
  1  2  1  0
  2  3  1  0
  3  4  1  0
  4  5  1  0
  5  6  1  0
  5  7  1  0
  4  8  1  0
  8  9  2  0
  8 10  1  0
 10 11  1  0
 11 12  1  0
 12 13  1  0
 13 14  1  0
 14 15  1  0
 13 16  1  0
 16 17  2  0
 16 18  1  0
 18 19  1  0
  3 20  1  0
 20 21  1  0
 21 22  2  0
 22 23  1  0
 23 24  2  0
 24 25  1  0
 25 26  2  0
 26 27  1  0
 27 28  2  0
 28 29  1  0
 22 30  1  0
 30 31  1  0
 30 32  1  0
 32 33  2  0
 32 34  2  0
 32 35  1  0
 35 36  2  0
 36 37  1  0
 37 38  2  0
 38 39  1  0
 39 40  2  0
 15 10  1  0
 31 20  2  0
 40 35  1  0
 28 23  1  0
M  END
