CVD-0003040|dock_bobby27042020.3|mol2|25|dock2
     RDKit          3D

 31 34  0  0  0  0  0  0  0  0999 V2000
    6.7646   -4.8254   20.5212 C   0  0  0  0  0  0  0  0  0  0  0  0
    6.4042   -5.4307   21.8532 C   0  0  0  0  0  0  0  0  0  0  0  0
    5.5260   -6.5094   21.8959 C   0  0  0  0  0  0  0  0  0  0  0  0
    5.1757   -7.0556   23.1112 C   0  0  0  0  0  0  0  0  0  0  0  0
    5.6469   -6.6101   24.2733 N   0  0  0  0  0  0  0  0  0  0  0  0
    6.5163   -5.5954   24.2393 C   0  0  0  0  0  0  0  0  0  0  0  0
    6.9105   -4.9462   23.0717 C   0  0  0  0  0  0  0  0  0  0  0  0
    7.7975   -3.8373   23.0287 N   0  0  0  0  0  0  0  0  0  0  0  0
    9.0420   -3.6450   23.5349 C   0  0  0  0  0  0  0  0  0  0  0  0
    9.7420   -4.5311   24.2073 C   0  0  0  0  0  0  0  0  0  0  0  0
    9.5402   -2.2587   23.2373 C   0  0  0  0  0  0  0  0  0  0  0  0
    9.9201   -2.0035   21.7883 C   0  0  0  0  0  0  0  0  0  0  0  0
   10.2142   -0.5888   21.5305 N   0  0  0  0  0  0  0  0  0  0  0  0
    9.4070    0.3639   20.9678 C   0  0  0  0  0  0  0  0  0  0  0  0
    9.9656    1.5553   20.9063 N   0  0  0  0  0  0  0  0  0  0  0  0
   11.2247    1.3831   21.4744 C   0  0  0  0  0  0  0  0  0  0  0  0
   12.2557    2.2992   21.6777 C   0  0  0  0  0  0  0  0  0  0  0  0
   13.4248    1.8624   22.2824 C   0  0  0  0  0  0  0  0  0  0  0  0
   13.5769    0.5481   22.6802 C   0  0  0  0  0  0  0  0  0  0  0  0
   12.5650   -0.3786   22.4844 C   0  0  0  0  0  0  0  0  0  0  0  0
   11.3957    0.0603   21.8758 C   0  0  0  0  0  0  0  0  0  0  0  0
    8.0311    0.0548   20.4864 C   0  0  0  0  0  0  0  0  0  0  0  0
    8.0515   -0.5537   19.0959 C   0  0  0  0  0  0  0  0  0  0  0  0
    6.6255   -0.8130   18.6269 C   0  0  0  0  0  0  0  0  0  0  0  0
    5.8056    0.4596   18.6878 C   0  0  0  0  0  0  0  0  0  0  0  0
    5.8342    1.0146   20.0480 N   0  0  0  0  0  0  0  0  0  0  0  0
    7.1811    1.3147   20.5432 C   0  0  0  0  0  0  0  0  0  0  0  0
    4.7590    1.4813   20.7156 C   0  0  0  0  0  0  0  0  0  0  0  0
    4.8364    1.9178   21.8571 O   0  0  0  0  0  0  0  0  0  0  0  0
    3.4368    1.4313   19.9755 C   0  0  0  0  0  0  0  0  0  0  0  0
    2.1678    2.2332   20.9102 Cl  0  0  0  0  0  0  0  0  0  0  0  0
  1  2  1  0
  2  3  2  0
  3  4  1  0
  4  5  2  0
  5  6  1  0
  6  7  2  0
  7  8  1  0
  8  9  1  0
  9 10  2  0
  9 11  1  0
 11 12  1  0
 12 13  1  0
 13 14  1  0
 14 15  2  0
 15 16  1  0
 16 17  2  0
 17 18  1  0
 18 19  2  0
 19 20  1  0
 20 21  2  0
 14 22  1  0
 22 23  1  0
 23 24  1  0
 24 25  1  0
 25 26  1  0
 26 27  1  0
 26 28  1  0
 28 29  2  0
 28 30  1  0
 30 31  1  0
  7  2  1  0
 21 13  1  0
 27 22  1  0
 21 16  1  0
M  END
