CVD-0001752|dock_bobby27042020.66|mol2|13|dock1
     RDKit          3D

 27 29  0  0  0  0  0  0  0  0999 V2000
   14.6172   -1.0634   25.9906 O   0  0  0  0  0  0  0  0  0  0  0  0
   13.3886   -1.5222   25.4201 C   0  0  0  0  0  0  0  0  0  0  0  0
   13.5590   -2.2436   24.0886 C   0  0  0  0  0  0  0  0  0  0  0  0
   12.2347   -2.5982   23.4413 C   0  0  0  0  0  0  0  0  0  0  0  0
   11.3870   -1.4151   23.2510 N   0  0  0  0  0  0  0  0  0  0  0  0
   10.1324   -1.7745   22.5749 C   0  0  0  0  0  0  0  0  0  0  0  0
    9.9478   -1.0855   21.2319 C   0  0  0  0  0  0  0  0  0  0  0  0
    9.5338    0.3188   21.4149 N   0  0  0  0  0  0  0  0  0  0  0  0
   10.4724    1.2408   21.9023 C   0  0  0  0  0  0  0  0  0  0  0  0
   11.5982    0.8404   22.1664 O   0  0  0  0  0  0  0  0  0  0  0  0
   10.1160    2.5597   22.0840 N   0  0  0  0  0  0  0  0  0  0  0  0
   10.8794    3.6549   22.5678 C   0  0  0  0  0  0  0  0  0  0  0  0
   12.2547    3.6501   22.7907 C   0  0  0  0  0  0  0  0  0  0  0  0
   12.8702    4.7948   23.2676 C   0  0  0  0  0  0  0  0  0  0  0  0
   12.1041    5.9113   23.5089 C   0  0  0  0  0  0  0  0  0  0  0  0
   10.7880    5.9487   23.3055 N   0  0  0  0  0  0  0  0  0  0  0  0
   10.2042    4.8385   22.8457 C   0  0  0  0  0  0  0  0  0  0  0  0
    8.1631    0.6408   21.1006 C   0  0  0  0  0  0  0  0  0  0  0  0
    7.2674    1.0282   22.0940 C   0  0  0  0  0  0  0  0  0  0  0  0
    5.9537    1.3413   21.7868 C   0  0  0  0  0  0  0  0  0  0  0  0
    5.5023    1.2633   20.4822 C   0  0  0  0  0  0  0  0  0  0  0  0
    6.3793    0.8720   19.4790 C   0  0  0  0  0  0  0  0  0  0  0  0
    7.7031    0.5672   19.7876 C   0  0  0  0  0  0  0  0  0  0  0  0
    5.9244    0.7807   18.1136 C   0  0  0  0  0  0  0  0  0  0  0  0
    5.5949    0.7163   17.0218 N   0  0  0  0  0  0  0  0  0  0  0  0
   11.1285   -0.7908   24.5513 C   0  0  0  0  0  0  0  0  0  0  0  0
   12.4245   -0.3587   25.2170 C   0  0  0  0  0  0  0  0  0  0  0  0
  1  2  1  0
  2  3  1  0
  3  4  1  0
  4  5  1  0
  5  6  1  0
  6  7  1  0
  7  8  1  0
  8  9  1  0
  9 10  2  0
  9 11  1  0
 11 12  1  0
 12 13  2  0
 13 14  1  0
 14 15  2  0
 15 16  1  0
 16 17  2  0
  8 18  1  0
 18 19  2  0
 19 20  1  0
 20 21  2  0
 21 22  1  0
 22 23  2  0
 22 24  1  0
 24 25  3  0
  5 26  1  0
 26 27  1  0
 27  2  1  0
 17 12  1  0
 23 18  1  0
M  END
