CVD-0001258|dock_bobby27042020.95|mol2|48|dock2
     RDKit          3D

 23 24  0  0  0  0  0  0  0  0999 V2000
    5.3239   -6.2598   22.1340 C   0  0  0  0  0  0  0  0  0  0  0  0
    6.4753   -5.6065   21.4357 C   0  0  0  0  0  0  0  0  0  0  0  0
    6.7332   -4.2774   21.9644 N   0  0  0  0  0  0  0  0  0  0  0  0
    6.8529   -3.1922   21.1823 C   0  0  0  0  0  0  0  0  0  0  0  0
    5.8941   -3.0104   20.2525 N   0  0  0  0  0  0  0  0  0  0  0  0
    5.9856   -1.9372   19.4601 C   0  0  0  0  0  0  0  0  0  0  0  0
    7.0136   -1.0070   19.5468 C   0  0  0  0  0  0  0  0  0  0  0  0
    7.9957   -1.2087   20.5097 C   0  0  0  0  0  0  0  0  0  0  0  0
    7.9407   -2.3111   21.3555 C   0  0  0  0  0  0  0  0  0  0  0  0
    9.0336   -2.4912   22.3811 C   0  0  0  0  0  0  0  0  0  0  0  0
   10.3577   -2.1861   21.8266 N   0  0  0  0  0  0  0  0  0  0  0  0
   11.5597   -1.7607   22.8107 S   0  0  0  0  0  0  0  0  0  0  0  0
   12.7425   -2.3983   22.3186 O   0  0  0  0  0  0  0  0  0  0  0  0
   11.1176   -2.0309   24.1445 O   0  0  0  0  0  0  0  0  0  0  0  0
   11.7798   -0.0209   22.6564 C   0  0  0  0  0  0  0  0  0  0  0  0
   10.6707    0.8073   22.5966 C   0  0  0  0  0  0  0  0  0  0  0  0
   10.8452    2.1749   22.4798 C   0  0  0  0  0  0  0  0  0  0  0  0
   12.1199    2.6694   22.4279 C   0  0  0  0  0  0  0  0  0  0  0  0
   12.2901    4.0142   22.3125 F   0  0  0  0  0  0  0  0  0  0  0  0
   13.2317    1.8736   22.4867 C   0  0  0  0  0  0  0  0  0  0  0  0
   13.0603    0.5057   22.6036 C   0  0  0  0  0  0  0  0  0  0  0  0
    7.0655    0.1349   18.6674 C   0  0  0  0  0  0  0  0  0  0  0  0
    7.1050    1.0186   17.9446 N   0  0  0  0  0  0  0  0  0  0  0  0
  1  2  1  0
  2  3  1  0
  3  4  1  0
  4  5  2  0
  5  6  1  0
  6  7  2  0
  7  8  1  0
  8  9  2  0
  9 10  1  0
 10 11  1  0
 11 12  1  0
 12 13  2  0
 12 14  2  0
 12 15  1  0
 15 16  2  0
 16 17  1  0
 17 18  2  0
 18 19  1  0
 18 20  1  0
 20 21  2  0
  7 22  1  0
 22 23  3  0
  9  4  1  0
 21 15  1  0
M  END
