CVD-0003032|dock_bobby27042020.17|mol2|39|dock2
     RDKit          3D

 25 28  0  0  0  0  0  0  0  0999 V2000
    6.3769   -6.1974   22.0818 C   0  0  0  0  0  0  0  0  0  0  0  0
    6.5327   -4.8043   21.6650 N   0  0  0  0  0  0  0  0  0  0  0  0
    7.3221   -3.8826   22.2668 C   0  0  0  0  0  0  0  0  0  0  0  0
    6.9989   -2.7041   21.6470 C   0  0  0  0  0  0  0  0  0  0  0  0
    7.7484   -1.5048   21.5079 N   0  0  0  0  0  0  0  0  0  0  0  0
    8.7807   -1.0553   22.4494 C   0  0  0  0  0  0  0  0  0  0  0  0
    9.9567   -2.0197   22.5320 C   0  0  0  0  0  0  0  0  0  0  0  0
   11.2679   -1.2974   22.7265 C   0  0  0  0  0  0  0  0  0  0  0  0
   11.4538   -0.4408   23.8007 C   0  0  0  0  0  0  0  0  0  0  0  0
   12.6575    0.2200   23.9812 C   0  0  0  0  0  0  0  0  0  0  0  0
   13.6911    0.0314   23.0893 C   0  0  0  0  0  0  0  0  0  0  0  0
   13.5207   -0.8181   22.0177 C   0  0  0  0  0  0  0  0  0  0  0  0
   12.3168   -1.4784   21.8380 C   0  0  0  0  0  0  0  0  0  0  0  0
    7.5484   -0.7708   20.2512 C   0  0  0  0  0  0  0  0  0  0  0  0
    6.5813   -1.2706   19.2663 N   0  0  0  0  0  0  0  0  0  0  0  0
    6.4513   -0.5252   18.0665 C   0  0  0  0  0  0  0  0  0  0  0  0
    5.2836    0.4413   18.0661 C   0  0  0  0  0  0  0  0  0  0  0  0
    5.6754    1.8457   18.5057 C   0  0  0  0  0  0  0  0  0  0  0  0
    4.7300    2.1639   19.5642 C   0  0  0  0  0  0  0  0  0  0  0  0
    4.0404    0.9845   19.9487 C   0  0  0  0  0  0  0  0  0  0  0  0
    4.2829   -0.0121   19.0020 O   0  0  0  0  0  0  0  0  0  0  0  0
    5.6491   -2.2670   19.5282 C   0  0  0  0  0  0  0  0  0  0  0  0
    5.0379   -2.8113   18.6023 O   0  0  0  0  0  0  0  0  0  0  0  0
    5.9995   -3.0378   20.6885 C   0  0  0  0  0  0  0  0  0  0  0  0
    5.7020   -4.3105   20.6784 N   0  0  0  0  0  0  0  0  0  0  0  0
  1  2  1  0
  2  3  1  0
  3  4  2  0
  4  5  1  0
  5  6  1  0
  6  7  1  0
  7  8  1  0
  8  9  2  0
  9 10  1  0
 10 11  2  0
 11 12  1  0
 12 13  2  0
  5 14  1  0
 14 15  1  0
 15 16  1  0
 17 16  1  0
 17 18  1  0
 18 19  1  0
 19 20  1  0
 20 21  1  0
 15 22  1  0
 22 23  2  0
 22 24  1  0
 24 25  2  0
 25  2  1  0
 24  4  1  0
 13  8  1  0
 21 17  1  0
M  END
