CVD-0000970|dock_bobby27042020.25|mol2|29|dock2
     RDKit          3D

 30 33  0  0  0  0  0  0  0  0999 V2000
    8.9228    2.5385   23.1733 N   0  0  0  0  0  0  0  0  0  0  0  0
    9.6981    1.8979   21.9278 S   0  0  0  0  0  0  0  0  0  0  0  0
   11.0724    1.7220   22.2896 O   0  0  0  0  0  0  0  0  0  0  0  0
    9.4069    2.7481   20.8125 O   0  0  0  0  0  0  0  0  0  0  0  0
    8.9944    0.3083   21.5601 C   0  0  0  0  0  0  0  0  0  0  0  0
    7.8387    0.3655   20.7905 C   0  0  0  0  0  0  0  0  0  0  0  0
    7.1050   -0.7756   20.5187 C   0  0  0  0  0  0  0  0  0  0  0  0
    7.5501   -1.9813   21.0305 C   0  0  0  0  0  0  0  0  0  0  0  0
    8.7262   -2.0678   21.7517 C   0  0  0  0  0  0  0  0  0  0  0  0
    9.5059   -0.9354   21.9927 C   0  0  0  0  0  0  0  0  0  0  0  0
   10.7516   -1.1030   22.6509 N   0  0  0  0  0  0  0  0  0  0  0  0
   10.7735   -1.5095   24.0638 C   0  0  0  0  0  0  0  0  0  0  0  0
   12.1070   -1.1450   24.7065 C   0  0  0  0  0  0  0  0  0  0  0  0
   13.2378   -1.6420   23.9380 N   0  0  0  0  0  0  0  0  0  0  0  0
   13.1732   -1.2747   22.5156 C   0  0  0  0  0  0  0  0  0  0  0  0
   11.8732   -1.7447   21.9187 C   0  0  0  0  0  0  0  0  0  0  0  0
   14.3138   -2.3272   24.3763 C   0  0  0  0  0  0  0  0  0  0  0  0
   15.2058   -2.6946   23.6222 O   0  0  0  0  0  0  0  0  0  0  0  0
   14.4348   -2.6516   25.8535 C   0  0  0  0  0  0  0  0  0  0  0  0
   13.3742   -3.4854   26.2841 O   0  0  0  0  0  0  0  0  0  0  0  0
    5.8335   -0.7031   19.6846 C   0  0  0  0  0  0  0  0  0  0  0  0
    6.0867   -0.4652   18.2704 N   0  0  0  0  0  0  0  0  0  0  0  0
    5.5232    0.6576   17.7855 C   0  0  0  0  0  0  0  0  0  0  0  0
    5.6133    1.0728   16.6351 O   0  0  0  0  0  0  0  0  0  0  0  0
    4.7731    1.2664   18.9060 C   0  0  0  0  0  0  0  0  0  0  0  0
    3.9861    2.4160   18.9616 C   0  0  0  0  0  0  0  0  0  0  0  0
    3.3761    2.7600   20.1592 C   0  0  0  0  0  0  0  0  0  0  0  0
    3.5452    1.9753   21.2823 C   0  0  0  0  0  0  0  0  0  0  0  0
    4.3284    0.8329   21.2241 C   0  0  0  0  0  0  0  0  0  0  0  0
    4.9466    0.4752   20.0286 C   0  0  0  0  0  0  0  0  0  0  0  0
  1  2  1  0
  2  3  2  0
  2  4  2  0
  2  5  1  0
  5  6  2  0
  6  7  1  0
  7  8  2  0
  8  9  1  0
  9 10  2  0
 10 11  1  0
 11 12  1  0
 12 13  1  0
 13 14  1  0
 14 15  1  0
 15 16  1  0
 14 17  1  0
 17 18  2  0
 17 19  1  0
 19 20  1  0
  7 21  1  0
 21 22  1  0
 22 23  1  0
 23 24  2  0
 23 25  1  0
 25 26  2  0
 26 27  1  0
 27 28  2  0
 28 29  1  0
 29 30  2  0
 10  5  1  0
 16 11  1  0
 30 21  1  0
 30 25  1  0
M  END
