CVD-0003926|dock_bobby27042020.15|mol2|9|dock1
     RDKit          3D

 29 31  0  0  0  0  0  0  0  0999 V2000
    9.9690    1.5672   23.2018 C   0  0  0  0  0  0  0  0  0  0  0  0
   10.3030    0.2038   22.5951 C   0  0  0  0  0  0  0  0  0  0  0  0
   11.7816   -0.2595   22.7215 C   0  0  0  0  0  0  0  0  0  0  0  0
   12.2784   -0.3755   24.1625 C   0  0  0  0  0  0  0  0  0  0  0  0
   13.7398   -0.8205   24.2127 C   0  0  0  0  0  0  0  0  0  0  0  0
   13.9428   -2.1269   23.4701 C   0  0  0  0  0  0  0  0  0  0  0  0
   13.4446   -2.0375   22.0423 C   0  0  0  0  0  0  0  0  0  0  0  0
   11.9893   -1.5845   21.9840 C   0  0  0  0  0  0  0  0  0  0  0  0
    9.3469   -0.9382   22.9346 C   0  0  0  0  0  0  0  0  0  0  0  0
    9.7717   -1.6732   23.8038 O   0  0  0  0  0  0  0  0  0  0  0  0
    8.0793   -1.2532   22.3899 N   0  0  0  0  0  0  0  0  0  0  0  0
    7.6166   -0.4792   21.1775 C   0  0  0  0  0  0  0  0  0  0  0  0
    8.2004   -1.0566   19.8921 C   0  0  0  0  0  0  0  0  0  0  0  0
    7.7494   -0.2104   18.6988 C   0  0  0  0  0  0  0  0  0  0  0  0
    6.2405   -0.0942   18.6021 C   0  0  0  0  0  0  0  0  0  0  0  0
    5.8393    0.7291   17.5037 O   0  0  0  0  0  0  0  0  0  0  0  0
    5.6723    0.4286   19.9121 C   0  0  0  0  0  0  0  0  0  0  0  0
    6.0984   -0.4216   21.1145 C   0  0  0  0  0  0  0  0  0  0  0  0
    7.0319   -2.3991   23.0470 S   0  0  0  0  0  0  0  0  0  0  0  0
    6.0161   -1.7084   23.7742 O   0  0  0  0  0  0  0  0  0  0  0  0
    6.6615   -3.2815   21.9842 O   0  0  0  0  0  0  0  0  0  0  0  0
    7.8388   -3.4190   24.2696 C   0  0  0  0  0  0  0  0  0  0  0  0
    8.2114   -4.6977   23.8755 C   0  0  0  0  0  0  0  0  0  0  0  0
    8.8592   -5.5395   24.7597 C   0  0  0  0  0  0  0  0  0  0  0  0
    9.1463   -5.1352   26.0516 C   0  0  0  0  0  0  0  0  0  0  0  0
    9.8582   -6.0528   27.0156 C   0  0  0  0  0  0  0  0  0  0  0  0
    8.7538   -3.8629   26.4356 C   0  0  0  0  0  0  0  0  0  0  0  0
    8.0949   -2.9810   25.5814 C   0  0  0  0  0  0  0  0  0  0  0  0
    7.6991   -1.6340   26.1276 C   0  0  0  0  0  0  0  0  0  0  0  0
  1  2  1  0
  2  3  1  0
  3  4  1  0
  4  5  1  0
  5  6  1  0
  6  7  1  0
  7  8  1  0
  2  9  1  0
  9 10  2  0
  9 11  1  0
 11 12  1  0
 12 13  1  0
 13 14  1  0
 14 15  1  0
 15 16  1  0
 15 17  1  0
 17 18  1  0
 11 19  1  0
 19 20  2  0
 19 21  2  0
 19 22  1  0
 22 23  2  0
 23 24  1  0
 24 25  2  0
 25 26  1  0
 25 27  1  0
 27 28  2  0
 28 29  1  0
  8  3  1  0
 18 12  1  0
 28 22  1  0
M  END
