CVD-0003056|dock_bobby27042020.75|mol2|8|dock2
     RDKit          3D

 28 30  0  0  0  0  0  0  0  0999 V2000
    4.9566    0.2464   17.7834 C   0  0  0  0  0  0  0  0  0  0  0  0
    5.7135   -0.8852   18.4052 C   0  0  0  0  0  0  0  0  0  0  0  0
    6.4981   -0.4381   19.5441 N   0  0  0  0  0  0  0  0  0  0  0  0
    5.9652   -0.2399   20.7616 C   0  0  0  0  0  0  0  0  0  0  0  0
    4.8871    0.5676   20.8162 N   0  0  0  0  0  0  0  0  0  0  0  0
    4.3409    0.8144   22.0120 C   0  0  0  0  0  0  0  0  0  0  0  0
    4.8203    0.2811   23.2022 C   0  0  0  0  0  0  0  0  0  0  0  0
    5.9244   -0.5609   23.1409 C   0  0  0  0  0  0  0  0  0  0  0  0
    6.5212   -0.8541   21.9169 C   0  0  0  0  0  0  0  0  0  0  0  0
    7.7144   -1.8020   21.8557 C   0  0  0  0  0  0  0  0  0  0  0  0
    8.8563   -1.2995   22.6400 N   0  0  0  0  0  0  0  0  0  0  0  0
   10.0594   -2.1165   22.4121 C   0  0  0  0  0  0  0  0  0  0  0  0
   11.2081   -1.6256   23.2543 C   0  0  0  0  0  0  0  0  0  0  0  0
   11.4806   -0.2105   22.9841 N   0  0  0  0  0  0  0  0  0  0  0  0
   10.2914    0.6266   23.1315 C   0  0  0  0  0  0  0  0  0  0  0  0
    9.1766    0.0804   22.2717 C   0  0  0  0  0  0  0  0  0  0  0  0
   12.6970    0.3431   22.7675 C   0  0  0  0  0  0  0  0  0  0  0  0
   12.8221    1.5403   22.5417 O   0  0  0  0  0  0  0  0  0  0  0  0
   13.9177   -0.5564   22.8020 C   0  0  0  0  0  0  0  0  0  0  0  0
   13.9549   -1.6495   21.4124 Cl  0  0  0  0  0  0  0  0  0  0  0  0
    7.2952   -3.1936   22.2794 C   0  0  0  0  0  0  0  0  0  0  0  0
    7.4934   -3.8036   23.5109 C   0  0  0  0  0  0  0  0  0  0  0  0
    6.9844   -5.0980   23.5794 C   0  0  0  0  0  0  0  0  0  0  0  0
    6.4066   -5.4734   22.4223 C   0  0  0  0  0  0  0  0  0  0  0  0
    5.5928   -7.1177   22.0524 Br  0  0  0  0  0  0  0  0  0  0  0  0
    6.4624   -4.2623   21.2079 S   0  0  0  0  0  0  0  0  0  0  0  0
    4.1951    0.5882   24.4649 C   0  0  0  0  0  0  0  0  0  0  0  0
    3.6802    0.8050   25.4612 N   0  0  0  0  0  0  0  0  0  0  0  0
  1  2  1  0
  2  3  1  0
  3  4  1  0
  4  5  2  0
  5  6  1  0
  6  7  2  0
  7  8  1  0
  8  9  2  0
  9 10  1  0
 10 11  1  0
 11 12  1  0
 12 13  1  0
 13 14  1  0
 14 15  1  0
 15 16  1  0
 14 17  1  0
 17 18  2  0
 17 19  1  0
 19 20  1  0
 10 21  1  0
 21 22  2  0
 22 23  1  0
 23 24  2  0
 24 25  1  0
 24 26  1  0
  7 27  1  0
 27 28  3  0
  9  4  1  0
 16 11  1  0
 26 21  1  0
M  END
