CVD-0002176|dock_bobby27042020.92|mol2|26|dock1
     RDKit          3D

 25 27  0  0  0  0  0  0  0  0999 V2000
   14.6091   -2.7845   25.4664 O   0  0  0  0  0  0  0  0  0  0  0  0
   13.9405   -1.9379   24.5274 C   0  0  0  0  0  0  0  0  0  0  0  0
   13.1024   -2.6941   23.5038 C   0  0  0  0  0  0  0  0  0  0  0  0
   12.2988   -1.7714   22.6087 C   0  0  0  0  0  0  0  0  0  0  0  0
   11.4317   -0.8774   23.3855 N   0  0  0  0  0  0  0  0  0  0  0  0
   10.6278   -0.0333   22.5003 C   0  0  0  0  0  0  0  0  0  0  0  0
    9.4188   -0.7321   21.9319 C   0  0  0  0  0  0  0  0  0  0  0  0
    8.6099   -0.1923   20.9756 C   0  0  0  0  0  0  0  0  0  0  0  0
    7.3173   -1.2214   20.5179 S   0  0  0  0  0  0  0  0  0  0  0  0
    7.8693   -2.3945   21.6206 C   0  0  0  0  0  0  0  0  0  0  0  0
    8.9834   -2.0197   22.3014 C   0  0  0  0  0  0  0  0  0  0  0  0
    7.0740   -3.9317   21.8346 S   0  0  0  0  0  0  0  0  0  0  0  0
    6.1009   -4.0499   20.7933 O   0  0  0  0  0  0  0  0  0  0  0  0
    8.0990   -4.9195   21.9713 O   0  0  0  0  0  0  0  0  0  0  0  0
    6.2773   -3.8716   23.2303 N   0  0  0  0  0  0  0  0  0  0  0  0
    6.6248   -4.8291   24.2872 C   0  0  0  0  0  0  0  0  0  0  0  0
    5.7597   -4.6090   25.5151 C   0  0  0  0  0  0  0  0  0  0  0  0
    6.2060   -5.4320   26.6993 C   0  0  0  0  0  0  0  0  0  0  0  0
    7.2373   -4.9971   27.5175 C   0  0  0  0  0  0  0  0  0  0  0  0
    7.6492   -5.7531   28.6022 C   0  0  0  0  0  0  0  0  0  0  0  0
    7.0350   -6.9548   28.8817 C   0  0  0  0  0  0  0  0  0  0  0  0
    6.0094   -7.4001   28.0759 C   0  0  0  0  0  0  0  0  0  0  0  0
    5.5981   -6.6433   26.9914 C   0  0  0  0  0  0  0  0  0  0  0  0
   12.2555   -0.0670   24.2866 C   0  0  0  0  0  0  0  0  0  0  0  0
   13.0368   -0.9449   25.2499 C   0  0  0  0  0  0  0  0  0  0  0  0
  1  2  1  0
  2  3  1  0
  3  4  1  0
  4  5  1  0
  5  6  1  0
  6  7  1  0
  7  8  2  0
  8  9  1  0
  9 10  1  0
 10 11  2  0
 10 12  1  0
 12 13  2  0
 12 14  2  0
 12 15  1  0
 15 16  1  0
 16 17  1  0
 17 18  1  0
 18 19  2  0
 19 20  1  0
 20 21  2  0
 21 22  1  0
 22 23  2  0
  5 24  1  0
 24 25  1  0
 25  2  1  0
 11  7  1  0
 23 18  1  0
M  END
