CVD-0002807|dock_bobby27042020.4|mol2|24|dock1
     RDKit          3D

 23 25  0  0  0  0  0  0  0  0999 V2000
   14.2863    5.8852   21.7843 C   0  0  0  0  0  0  0  0  0  0  0  0
   13.5439    4.9963   23.0979 S   0  0  0  0  0  0  0  0  0  0  0  0
   12.8277    5.9268   23.9146 O   0  0  0  0  0  0  0  0  0  0  0  0
   14.5504    4.1845   23.7092 O   0  0  0  0  0  0  0  0  0  0  0  0
   12.4609    4.0008   22.4601 N   0  0  0  0  0  0  0  0  0  0  0  0
   11.6802    3.1248   23.3432 C   0  0  0  0  0  0  0  0  0  0  0  0
   10.7956    2.1667   22.5801 C   0  0  0  0  0  0  0  0  0  0  0  0
   11.1695    0.8365   22.4081 C   0  0  0  0  0  0  0  0  0  0  0  0
   10.3621   -0.0537   21.7257 C   0  0  0  0  0  0  0  0  0  0  0  0
    9.1648    0.4097   21.2114 C   0  0  0  0  0  0  0  0  0  0  0  0
    8.2155   -0.4904   20.4594 C   0  0  0  0  0  0  0  0  0  0  0  0
    7.2499    0.2112   19.5378 C   0  0  0  0  0  0  0  0  0  0  0  0
    7.4792    0.6634   18.2447 C   0  0  0  0  0  0  0  0  0  0  0  0
    6.3739    1.1708   17.6930 N   0  0  0  0  0  0  0  0  0  0  0  0
    5.2412    0.8734   18.5370 C   0  0  0  0  0  0  0  0  0  0  0  0
    4.1374    1.8099   18.6237 N   0  0  0  0  0  0  0  0  0  0  0  0
    3.5181    1.9855   19.7920 C   0  0  0  0  0  0  0  0  0  0  0  0
    3.9776    1.4710   20.9634 C   0  0  0  0  0  0  0  0  0  0  0  0
    5.2393    0.8522   21.0004 C   0  0  0  0  0  0  0  0  0  0  0  0
    5.9063    0.6349   19.8590 C   0  0  0  0  0  0  0  0  0  0  0  0
    8.7650    1.6820   21.3486 N   0  0  0  0  0  0  0  0  0  0  0  0
    9.5485    2.5593   22.0051 C   0  0  0  0  0  0  0  0  0  0  0  0
    9.0820    3.8099   22.0780 N   0  0  0  0  0  0  0  0  0  0  0  0
  1  2  1  0
  2  3  2  0
  2  4  2  0
  2  5  1  0
  5  6  1  0
  6  7  1  0
  7  8  2  0
  8  9  1  0
  9 10  2  0
 10 11  1  0
 11 12  1  0
 12 13  2  0
 13 14  1  0
 14 15  1  0
 15 16  1  0
 16 17  1  0
 17 18  2  0
 18 19  1  0
 19 20  2  0
 10 21  1  0
 21 22  2  0
 22 23  1  0
 22  7  1  0
 20 12  1  0
 20 15  1  0
M  END
