CVD-0000415|dock_bobby27042020.98|mol2|34|dock2
     RDKit          3D

 22 24  0  0  0  0  0  0  0  0999 V2000
   13.6720    5.3189   21.9886 C   0  0  0  0  0  0  0  0  0  0  0  0
   13.8729    3.9186   22.5480 C   0  0  0  0  0  0  0  0  0  0  0  0
   12.5811    3.1543   22.7070 C   0  0  0  0  0  0  0  0  0  0  0  0
   11.3212    3.6785   22.6957 C   0  0  0  0  0  0  0  0  0  0  0  0
   10.3881    2.6926   22.8674 N   0  0  0  0  0  0  0  0  0  0  0  0
   11.0428    1.4928   22.9949 C   0  0  0  0  0  0  0  0  0  0  0  0
   10.5430    0.2018   23.1872 C   0  0  0  0  0  0  0  0  0  0  0  0
    9.1729    0.1240   23.2654 O   0  0  0  0  0  0  0  0  0  0  0  0
    8.3164   -0.4340   22.2342 C   0  0  0  0  0  0  0  0  0  0  0  0
    8.4988    0.2494   20.8806 C   0  0  0  0  0  0  0  0  0  0  0  0
    7.5272   -0.2675   19.8389 C   0  0  0  0  0  0  0  0  0  0  0  0
    6.1477   -0.1860   20.3293 N   0  0  0  0  0  0  0  0  0  0  0  0
    5.9351   -0.9364   21.5617 C   0  0  0  0  0  0  0  0  0  0  0  0
    6.8486   -0.3958   22.6395 C   0  0  0  0  0  0  0  0  0  0  0  0
    5.1130    0.4176   19.6874 C   0  0  0  0  0  0  0  0  0  0  0  0
    5.3319    1.0528   18.3449 C   0  0  0  0  0  0  0  0  0  0  0  0
    4.0012    0.4281   20.2035 O   0  0  0  0  0  0  0  0  0  0  0  0
   11.4283   -0.8611   23.2809 C   0  0  0  0  0  0  0  0  0  0  0  0
   12.7734   -0.5866   23.1862 C   0  0  0  0  0  0  0  0  0  0  0  0
   13.6390   -1.6316   23.2832 F   0  0  0  0  0  0  0  0  0  0  0  0
   13.3058    0.6671   23.0003 C   0  0  0  0  0  0  0  0  0  0  0  0
   12.4237    1.7405   22.8996 C   0  0  0  0  0  0  0  0  0  0  0  0
  1  2  1  0
  2  3  1  0
  3  4  2  0
  4  5  1  0
  5  6  1  0
  6  7  2  0
  7  8  1  0
  8  9  1  0
  9 10  1  0
 10 11  1  0
 11 12  1  0
 12 13  1  0
 13 14  1  0
 12 15  1  0
 15 16  1  0
 15 17  2  0
  7 18  1  0
 18 19  2  0
 19 20  1  0
 19 21  1  0
 21 22  2  0
 22  3  1  0
 22  6  1  0
 14  9  1  0
M  END
