CVD-0002439|dock_bobby27042020.34|mol2|21|dock2
     RDKit          3D

 37 41  0  0  0  0  0  0  0  0999 V2000
    7.4140   -8.4950   29.2677 Cl  0  0  0  0  0  0  0  0  0  0  0  0
    5.8558   -7.7080   28.9855 C   0  0  0  0  0  0  0  0  0  0  0  0
    5.7296   -7.2531   27.5441 C   0  0  0  0  0  0  0  0  0  0  0  0
    4.9689   -7.8276   26.7754 O   0  0  0  0  0  0  0  0  0  0  0  0
    6.4791   -6.2078   27.1268 N   0  0  0  0  0  0  0  0  0  0  0  0
    7.4295   -5.4601   27.9459 C   0  0  0  0  0  0  0  0  0  0  0  0
    8.7246   -5.2628   27.1854 C   0  0  0  0  0  0  0  0  0  0  0  0
    8.4671   -4.5450   25.8663 C   0  0  0  0  0  0  0  0  0  0  0  0
    7.4302   -5.3205   25.0570 C   0  0  0  0  0  0  0  0  0  0  0  0
    6.1599   -5.5313   25.8743 C   0  0  0  0  0  0  0  0  0  0  0  0
    9.7510   -4.3781   25.0820 C   0  0  0  0  0  0  0  0  0  0  0  0
   10.6867   -5.1566   25.2404 O   0  0  0  0  0  0  0  0  0  0  0  0
    9.7326   -3.3187   24.2354 N   0  0  0  0  0  0  0  0  0  0  0  0
   10.7301   -2.8362   23.3444 C   0  0  0  0  0  0  0  0  0  0  0  0
   12.0579   -3.2688   23.3632 C   0  0  0  0  0  0  0  0  0  0  0  0
   12.9614   -2.7718   22.4372 C   0  0  0  0  0  0  0  0  0  0  0  0
   12.5713   -1.8548   21.4865 C   0  0  0  0  0  0  0  0  0  0  0  0
   11.2656   -1.4015   21.4555 C   0  0  0  0  0  0  0  0  0  0  0  0
   10.3533   -1.8740   22.3886 C   0  0  0  0  0  0  0  0  0  0  0  0
    9.0480   -1.3877   22.3803 O   0  0  0  0  0  0  0  0  0  0  0  0
    8.5170   -0.8124   21.2266 C   0  0  0  0  0  0  0  0  0  0  0  0
    8.6860   -1.3707   19.9631 C   0  0  0  0  0  0  0  0  0  0  0  0
    8.1311   -0.7479   18.8572 C   0  0  0  0  0  0  0  0  0  0  0  0
    7.4132    0.4192   19.0034 C   0  0  0  0  0  0  0  0  0  0  0  0
    7.2445    0.9741   20.2599 C   0  0  0  0  0  0  0  0  0  0  0  0
    7.7927    0.3697   21.3871 C   0  0  0  0  0  0  0  0  0  0  0  0
    7.6093    0.9675   22.7602 C   0  0  0  0  0  0  0  0  0  0  0  0
    8.0027    2.3667   22.8373 N   0  0  0  0  0  0  0  0  0  0  0  0
    9.2750    2.7754   22.7750 C   0  0  0  0  0  0  0  0  0  0  0  0
   10.3119    1.9690   22.6379 N   0  0  0  0  0  0  0  0  0  0  0  0
   11.4092    2.8261   22.6224 C   0  0  0  0  0  0  0  0  0  0  0  0
   12.7705    2.5491   22.5016 C   0  0  0  0  0  0  0  0  0  0  0  0
   13.6699    3.6047   22.5155 C   0  0  0  0  0  0  0  0  0  0  0  0
   13.2377    4.9104   22.6461 C   0  0  0  0  0  0  0  0  0  0  0  0
   11.8887    5.2032   22.7672 C   0  0  0  0  0  0  0  0  0  0  0  0
   10.9864    4.1463   22.7534 C   0  0  0  0  0  0  0  0  0  0  0  0
    9.6102    4.0852   22.8496 N   0  0  0  0  0  0  0  0  0  0  0  0
  1  2  1  0
  2  3  1  0
  3  4  2  0
  3  5  1  0
  5  6  1  0
  6  7  1  0
  7  8  1  0
  8  9  1  0
  9 10  1  0
  8 11  1  0
 11 12  2  0
 11 13  1  0
 13 14  1  0
 14 15  2  0
 15 16  1  0
 16 17  2  0
 17 18  1  0
 18 19  2  0
 19 20  1  0
 20 21  1  0
 21 22  2  0
 22 23  1  0
 23 24  2  0
 24 25  1  0
 25 26  2  0
 26 27  1  0
 27 28  1  0
 28 29  1  0
 29 30  2  0
 30 31  1  0
 31 32  2  0
 32 33  1  0
 33 34  2  0
 34 35  1  0
 35 36  2  0
 36 37  1  0
 10  5  1  0
 19 14  1  0
 26 21  1  0
 37 29  1  0
 36 31  1  0
M  END
