CVD-0002248|dock_bobby27042020.35|mol2|10|dock1
     RDKit          3D

 43 48  0  0  0  0  0  0  0  0999 V2000
   12.7216    4.0625   20.3319 F   0  0  0  0  0  0  0  0  0  0  0  0
   12.9358    4.6081   21.5480 C   0  0  0  0  0  0  0  0  0  0  0  0
   14.0781    5.3598   21.6920 C   0  0  0  0  0  0  0  0  0  0  0  0
   14.3819    5.8771   22.9383 C   0  0  0  0  0  0  0  0  0  0  0  0
   13.5485    5.6307   24.0060 C   0  0  0  0  0  0  0  0  0  0  0  0
   12.3899    4.8921   23.8341 C   0  0  0  0  0  0  0  0  0  0  0  0
   12.0359    4.3863   22.5818 C   0  0  0  0  0  0  0  0  0  0  0  0
   10.7463    3.6569   22.5043 C   0  0  0  0  0  0  0  0  0  0  0  0
   10.5825    2.3896   21.9778 C   0  0  0  0  0  0  0  0  0  0  0  0
    9.2325    2.0054   22.0587 C   0  0  0  0  0  0  0  0  0  0  0  0
    8.6683    0.6979   21.5682 C   0  0  0  0  0  0  0  0  0  0  0  0
    7.6739    0.1568   22.4896 N   0  0  0  0  0  0  0  0  0  0  0  0
    7.0962   -1.1131   22.1709 C   0  0  0  0  0  0  0  0  0  0  0  0
    7.9677   -2.2648   22.4730 N   0  0  0  0  0  0  0  0  0  0  0  0
    8.3461   -3.1551   21.3480 C   0  0  0  0  0  0  0  0  0  0  0  0
    7.1507   -3.5439   20.5446 C   0  0  0  0  0  0  0  0  0  0  0  0
    6.2400   -4.4407   21.3706 C   0  0  0  0  0  0  0  0  0  0  0  0
    5.1470   -3.9141   22.0447 C   0  0  0  0  0  0  0  0  0  0  0  0
    4.3202   -4.7301   22.7987 C   0  0  0  0  0  0  0  0  0  0  0  0
    4.5763   -6.0815   22.8887 C   0  0  0  0  0  0  0  0  0  0  0  0
    5.6590   -6.6179   22.2254 C   0  0  0  0  0  0  0  0  0  0  0  0
    6.4864   -5.8028   21.4711 C   0  0  0  0  0  0  0  0  0  0  0  0
    6.4617   -2.3049   20.0216 C   0  0  0  0  0  0  0  0  0  0  0  0
    5.8368   -2.2974   18.7748 C   0  0  0  0  0  0  0  0  0  0  0  0
    5.2052   -1.1646   18.2903 C   0  0  0  0  0  0  0  0  0  0  0  0
    5.1879   -0.0137   19.0486 C   0  0  0  0  0  0  0  0  0  0  0  0
    5.8019    0.0015   20.2890 C   0  0  0  0  0  0  0  0  0  0  0  0
    6.4401   -1.1341   20.7852 C   0  0  0  0  0  0  0  0  0  0  0  0
    8.6221   -2.6167   23.6099 C   0  0  0  0  0  0  0  0  0  0  0  0
    9.3011   -3.6357   23.5987 O   0  0  0  0  0  0  0  0  0  0  0  0
    8.5620   -1.7998   24.8870 C   0  0  0  0  0  0  0  0  0  0  0  0
    9.5689   -0.3531   24.7430 Cl  0  0  0  0  0  0  0  0  0  0  0  0
    8.5490    3.0535   22.6570 C   0  0  0  0  0  0  0  0  0  0  0  0
    9.4561    4.0661   22.9445 N   0  0  0  0  0  0  0  0  0  0  0  0
    8.8901    5.4676   23.7160 S   0  0  0  0  0  0  0  0  0  0  0  0
   10.0481    6.2909   23.8774 O   0  0  0  0  0  0  0  0  0  0  0  0
    8.1638    5.0572   24.8774 O   0  0  0  0  0  0  0  0  0  0  0  0
    7.8215    6.2870   22.5829 C   0  0  0  0  0  0  0  0  0  0  0  0
    6.5234    6.6012   22.9468 C   0  0  0  0  0  0  0  0  0  0  0  0
    5.7161    7.2420   22.0230 C   0  0  0  0  0  0  0  0  0  0  0  0
    6.2350    7.5392   20.7831 C   0  0  0  0  0  0  0  0  0  0  0  0
    7.4829    7.2413   20.4185 N   0  0  0  0  0  0  0  0  0  0  0  0
    8.2570    6.6225   21.3150 C   0  0  0  0  0  0  0  0  0  0  0  0
  1  2  1  0
  2  3  2  0
  3  4  1  0
  4  5  2  0
  5  6  1  0
  6  7  2  0
  7  8  1  0
  8  9  2  0
  9 10  1  0
 10 11  1  0
 11 12  1  0
 12 13  1  0
 13 14  1  0
 14 15  1  0
 15 16  1  0
 16 17  1  0
 17 18  2  0
 18 19  1  0
 19 20  2  0
 20 21  1  0
 21 22  2  0
 16 23  1  0
 23 24  2  0
 24 25  1  0
 25 26  2  0
 26 27  1  0
 27 28  2  0
 14 29  1  0
 29 30  2  0
 29 31  1  0
 31 32  1  0
 10 33  2  0
 33 34  1  0
 34 35  1  0
 35 36  2  0
 35 37  2  0
 35 38  1  0
 38 39  2  0
 39 40  1  0
 40 41  2  0
 41 42  1  0
 42 43  2  0
  7  2  1  0
 34  8  1  0
 43 38  1  0
 28 13  1  0
 22 17  1  0
 28 23  1  0
M  END
