CVD-0001266|dock_bobby27042020.81|mol2|35|dock2
     RDKit          3D

 27 30  0  0  0  0  0  0  0  0999 V2000
    9.5404   -0.1625   20.8887 O   0  0  0  0  0  0  0  0  0  0  0  0
    8.8818   -1.1271   21.2588 C   0  0  0  0  0  0  0  0  0  0  0  0
    7.4654   -1.2983   20.9300 C   0  0  0  0  0  0  0  0  0  0  0  0
    6.8367   -2.4456   21.2904 C   0  0  0  0  0  0  0  0  0  0  0  0
    7.4752   -3.4887   22.0058 C   0  0  0  0  0  0  0  0  0  0  0  0
    8.7841   -3.3079   22.3501 C   0  0  0  0  0  0  0  0  0  0  0  0
    9.4803   -2.1682   22.0081 N   0  0  0  0  0  0  0  0  0  0  0  0
   10.8660   -2.1007   22.4282 C   0  0  0  0  0  0  0  0  0  0  0  0
   11.1899   -2.3546   23.7570 C   0  0  0  0  0  0  0  0  0  0  0  0
   12.5062   -2.3061   24.1847 C   0  0  0  0  0  0  0  0  0  0  0  0
   13.5162   -2.0062   23.2982 C   0  0  0  0  0  0  0  0  0  0  0  0
   13.2094   -1.7436   21.9818 C   0  0  0  0  0  0  0  0  0  0  0  0
   11.8950   -1.7796   21.5468 C   0  0  0  0  0  0  0  0  0  0  0  0
    6.7212   -4.7025   22.3530 C   0  0  0  0  0  0  0  0  0  0  0  0
    7.2102   -5.9717   22.0589 C   0  0  0  0  0  0  0  0  0  0  0  0
    6.4490   -7.0719   22.4150 C   0  0  0  0  0  0  0  0  0  0  0  0
    5.2376   -6.8930   23.0448 C   0  0  0  0  0  0  0  0  0  0  0  0
    4.8278   -5.6050   23.2978 C   0  0  0  0  0  0  0  0  0  0  0  0
    5.5405   -4.5206   22.9663 N   0  0  0  0  0  0  0  0  0  0  0  0
    6.7160   -0.2416   20.1906 C   0  0  0  0  0  0  0  0  0  0  0  0
    5.6939    0.4136   20.8795 C   0  0  0  0  0  0  0  0  0  0  0  0
    4.9029    1.3580   20.2477 C   0  0  0  0  0  0  0  0  0  0  0  0
    5.1173    1.6699   18.9239 C   0  0  0  0  0  0  0  0  0  0  0  0
    6.1514    1.0673   18.2299 C   0  0  0  0  0  0  0  0  0  0  0  0
    6.9850    0.1374   18.8548 C   0  0  0  0  0  0  0  0  0  0  0  0
    8.0991   -0.3730   18.0977 C   0  0  0  0  0  0  0  0  0  0  0  0
    8.9623   -0.8031   17.4856 N   0  0  0  0  0  0  0  0  0  0  0  0
  1  2  2  0
  2  3  1  0
  3  4  2  0
  4  5  1  0
  5  6  2  0
  6  7  1  0
  7  8  1  0
  8  9  2  0
  9 10  1  0
 10 11  2  0
 11 12  1  0
 12 13  2  0
  5 14  1  0
 14 15  2  0
 15 16  1  0
 16 17  2  0
 17 18  1  0
 18 19  2  0
  3 20  1  0
 20 21  2  0
 21 22  1  0
 22 23  2  0
 23 24  1  0
 24 25  2  0
 25 26  1  0
 26 27  3  0
  7  2  1  0
 13  8  1  0
 19 14  1  0
 25 20  1  0
M  END
