CVD-0002289|dock_bobby27042020.20|mol2|33|dock3
     RDKit          3D

 40 43  0  0  0  0  0  0  0  0999 V2000
   14.1720    5.8908   21.8828 C   0  0  0  0  0  0  0  0  0  0  0  0
   13.2742    5.1494   22.7723 N   0  0  0  0  0  0  0  0  0  0  0  0
   12.0200    4.7172   22.1465 C   0  0  0  0  0  0  0  0  0  0  0  0
   11.8012    3.2353   22.3029 C   0  0  0  0  0  0  0  0  0  0  0  0
   12.7696    2.3132   22.7393 C   0  0  0  0  0  0  0  0  0  0  0  0
   12.2296    1.0416   22.7584 C   0  0  0  0  0  0  0  0  0  0  0  0
   12.9363   -0.2037   23.1433 C   0  0  0  0  0  0  0  0  0  0  0  0
   13.5281   -0.2314   24.4073 C   0  0  0  0  0  0  0  0  0  0  0  0
   14.1610   -1.3715   24.8730 C   0  0  0  0  0  0  0  0  0  0  0  0
   14.2226   -2.5027   24.0903 C   0  0  0  0  0  0  0  0  0  0  0  0
   13.6793   -2.4941   22.8181 C   0  0  0  0  0  0  0  0  0  0  0  0
   13.0793   -1.3438   22.3627 C   0  0  0  0  0  0  0  0  0  0  0  0
   12.6371   -1.3567   21.0854 F   0  0  0  0  0  0  0  0  0  0  0  0
   10.8760    1.1805   22.3508 N   0  0  0  0  0  0  0  0  0  0  0  0
   10.6358    2.5200   22.0661 C   0  0  0  0  0  0  0  0  0  0  0  0
    9.6455    0.0232   22.1875 S   0  0  0  0  0  0  0  0  0  0  0  0
    9.3507   -0.0020   20.7886 O   0  0  0  0  0  0  0  0  0  0  0  0
   10.0886   -1.1461   22.8817 O   0  0  0  0  0  0  0  0  0  0  0  0
    8.2419    0.6675   23.0775 C   0  0  0  0  0  0  0  0  0  0  0  0
    8.4905    1.2963   24.2885 C   0  0  0  0  0  0  0  0  0  0  0  0
    7.4332    1.8810   24.9597 C   0  0  0  0  0  0  0  0  0  0  0  0
    6.1836    1.8304   24.3899 C   0  0  0  0  0  0  0  0  0  0  0  0
    5.9060    1.2176   23.2316 N   0  0  0  0  0  0  0  0  0  0  0  0
    6.8984    0.5658   22.6090 C   0  0  0  0  0  0  0  0  0  0  0  0
    6.4925   -0.2133   21.4677 N   0  0  0  0  0  0  0  0  0  0  0  0
    6.5693    0.4011   20.1159 C   0  0  0  0  0  0  0  0  0  0  0  0
    7.0513   -0.5809   19.0564 C   0  0  0  0  0  0  0  0  0  0  0  0
    5.2042    0.9546   19.7423 C   0  0  0  0  0  0  0  0  0  0  0  0
    6.0247   -1.4933   21.6554 C   0  0  0  0  0  0  0  0  0  0  0  0
    5.6630   -2.1661   20.7096 O   0  0  0  0  0  0  0  0  0  0  0  0
    5.9213   -2.1215   23.0342 C   0  0  0  0  0  0  0  0  0  0  0  0
    7.2885   -2.5771   23.5286 C   0  0  0  0  0  0  0  0  0  0  0  0
    7.1707   -3.2374   24.8870 C   0  0  0  0  0  0  0  0  0  0  0  0
    6.2445   -4.3643   24.8151 N   0  0  0  0  0  0  0  0  0  0  0  0
    4.9044   -3.9670   24.3966 C   0  0  0  0  0  0  0  0  0  0  0  0
    4.9611   -3.3089   23.0221 C   0  0  0  0  0  0  0  0  0  0  0  0
    6.4567   -5.5956   25.3365 C   0  0  0  0  0  0  0  0  0  0  0  0
    5.6297   -6.4909   25.2170 O   0  0  0  0  0  0  0  0  0  0  0  0
    7.7494   -5.8501   26.0882 C   0  0  0  0  0  0  0  0  0  0  0  0
    7.9001   -4.7537   27.4675 Cl  0  0  0  0  0  0  0  0  0  0  0  0
  1  2  1  0
  2  3  1  0
  3  4  1  0
  4  5  1  0
  5  6  2  0
  6  7  1  0
  7  8  2  0
  8  9  1  0
  9 10  2  0
 10 11  1  0
 11 12  2  0
 12 13  1  0
  6 14  1  0
 14 15  1  0
 14 16  1  0
 16 17  2  0
 16 18  2  0
 16 19  1  0
 19 20  2  0
 20 21  1  0
 21 22  2  0
 22 23  1  0
 23 24  2  0
 24 25  1  0
 25 26  1  0
 26 27  1  0
 26 28  1  0
 25 29  1  0
 29 30  2  0
 29 31  1  0
 31 32  1  0
 32 33  1  0
 33 34  1  0
 34 35  1  0
 35 36  1  0
 34 37  1  0
 37 38  2  0
 37 39  1  0
 39 40  1  0
 15  4  2  0
 24 19  1  0
 36 31  1  0
 12  7  1  0
M  END
