CVD-0001277|dock_bobby27042020.10|mol2|15|dock2
     RDKit          3D

 20 22  0  0  0  0  0  0  0  0999 V2000
   11.7462   -1.9811   20.9639 O   0  0  0  0  0  0  0  0  0  0  0  0
   11.4093   -1.3538   21.9497 C   0  0  0  0  0  0  0  0  0  0  0  0
    9.9594   -0.9459   22.1215 C   0  0  0  0  0  0  0  0  0  0  0  0
    9.0424   -1.7651   21.2684 C   0  0  0  0  0  0  0  0  0  0  0  0
    7.5915   -1.3211   21.3589 C   0  0  0  0  0  0  0  0  0  0  0  0
    7.4860    0.1057   21.0971 N   0  0  0  0  0  0  0  0  0  0  0  0
    8.3139    0.9467   21.9532 C   0  0  0  0  0  0  0  0  0  0  0  0
    9.7753    0.5310   21.8106 C   0  0  0  0  0  0  0  0  0  0  0  0
    6.5035    0.6322   20.2643 C   0  0  0  0  0  0  0  0  0  0  0  0
    5.2771    1.0611   20.7612 C   0  0  0  0  0  0  0  0  0  0  0  0
    4.3372    1.5820   19.8942 C   0  0  0  0  0  0  0  0  0  0  0  0
    4.5187    1.6964   18.5799 N   0  0  0  0  0  0  0  0  0  0  0  0
    5.6914    1.2793   18.1070 C   0  0  0  0  0  0  0  0  0  0  0  0
    6.6991    0.7561   18.8927 C   0  0  0  0  0  0  0  0  0  0  0  0
   12.3110   -1.0230   22.8946 N   0  0  0  0  0  0  0  0  0  0  0  0
   12.0385   -0.2405   24.1017 C   0  0  0  0  0  0  0  0  0  0  0  0
   12.4329   -1.0189   25.3395 C   0  0  0  0  0  0  0  0  0  0  0  0
   13.8924   -1.4650   25.2616 C   0  0  0  0  0  0  0  0  0  0  0  0
   14.1441   -2.2274   23.9721 C   0  0  0  0  0  0  0  0  0  0  0  0
   13.7172   -1.4228   22.7653 C   0  0  0  0  0  0  0  0  0  0  0  0
  1  2  2  0
  2  3  1  0
  3  4  1  0
  4  5  1  0
  5  6  1  0
  6  7  1  0
  7  8  1  0
  6  9  1  0
  9 10  2  0
 10 11  1  0
 11 12  2  0
 12 13  1  0
 13 14  2  0
  2 15  1  0
 15 16  1  0
 16 17  1  0
 17 18  1  0
 18 19  1  0
 19 20  1  0
  8  3  1  0
 14  9  1  0
 20 15  1  0
M  END
