CVD-0001263|dock_bobby27042020.24|mol2|27|dock1
     RDKit          3D

 30 34  0  0  0  0  0  0  0  0999 V2000
    9.9892   -6.6451   26.2628 N   0  0  0  0  0  0  0  0  0  0  0  0
    9.2030   -5.8411   25.3207 C   0  0  0  0  0  0  0  0  0  0  0  0
    9.9302   -5.0654   24.2426 C   0  0  0  0  0  0  0  0  0  0  0  0
    9.2762   -3.8847   23.5465 C   0  0  0  0  0  0  0  0  0  0  0  0
    8.2402   -4.5271   22.6999 N   0  0  0  0  0  0  0  0  0  0  0  0
    8.0215   -5.9858   23.0230 C   0  0  0  0  0  0  0  0  0  0  0  0
    9.2117   -6.3090   23.9040 C   0  0  0  0  0  0  0  0  0  0  0  0
    7.6034   -3.7987   21.7181 C   0  0  0  0  0  0  0  0  0  0  0  0
    7.9213   -2.4983   21.6712 N   0  0  0  0  0  0  0  0  0  0  0  0
    7.4007   -1.6941   20.7359 C   0  0  0  0  0  0  0  0  0  0  0  0
    7.8016   -0.3391   20.6946 N   0  0  0  0  0  0  0  0  0  0  0  0
    7.2371    0.5138   19.8079 C   0  0  0  0  0  0  0  0  0  0  0  0
    6.2857    0.1714   18.8735 C   0  0  0  0  0  0  0  0  0  0  0  0
    5.7851    1.2651   17.9879 C   0  0  0  0  0  0  0  0  0  0  0  0
    4.8181    2.0414   18.4149 O   0  0  0  0  0  0  0  0  0  0  0  0
    6.2621    1.4423   16.8820 O   0  0  0  0  0  0  0  0  0  0  0  0
    5.8462   -1.2015   18.8088 C   0  0  0  0  0  0  0  0  0  0  0  0
    5.0208   -1.6169   18.0025 O   0  0  0  0  0  0  0  0  0  0  0  0
    6.4560   -2.1184   19.7949 C   0  0  0  0  0  0  0  0  0  0  0  0
    6.0990   -3.4642   19.8281 C   0  0  0  0  0  0  0  0  0  0  0  0
    6.6547   -4.2908   20.7694 C   0  0  0  0  0  0  0  0  0  0  0  0
    6.2635   -5.5856   20.7643 F   0  0  0  0  0  0  0  0  0  0  0  0
    8.7875    0.2202   21.5767 C   0  0  0  0  0  0  0  0  0  0  0  0
    9.9809   -0.4732   21.7646 C   0  0  0  0  0  0  0  0  0  0  0  0
   10.9754    0.0557   22.5693 C   0  0  0  0  0  0  0  0  0  0  0  0
   10.7673    1.2630   23.1786 C   0  0  0  0  0  0  0  0  0  0  0  0
   11.7636    1.7810   23.9465 F   0  0  0  0  0  0  0  0  0  0  0  0
    9.6041    1.9812   23.0591 C   0  0  0  0  0  0  0  0  0  0  0  0
    8.6210    1.4318   22.2781 C   0  0  0  0  0  0  0  0  0  0  0  0
    7.4417    2.0904   22.2032 F   0  0  0  0  0  0  0  0  0  0  0  0
  2  1  1  0
  2  3  1  0
  3  4  1  0
  4  5  1  0
  5  6  1  0
  7  6  1  0
  5  8  1  0
  8  9  2  0
  9 10  1  0
 10 11  1  0
 11 12  1  0
 12 13  2  0
 13 14  1  0
 14 15  1  0
 14 16  2  0
 13 17  1  0
 17 18  2  0
 17 19  1  0
 19 20  1  0
 20 21  2  0
 21 22  1  0
 11 23  1  0
 23 24  2  0
 24 25  1  0
 25 26  2  0
 26 27  1  0
 26 28  1  0
 28 29  2  0
 29 30  1  0
  7  2  1  0
 21  8  1  0
 29 23  1  0
  7  3  1  0
 19 10  2  0
M  END
