CVD-0000308|dock_bobby27042020.13|mol2|24|dock2
     RDKit          3D

 27 29  0  0  0  0  0  0  0  0999 V2000
   14.7756   -2.2170   24.7946 N   0  0  0  0  0  0  0  0  0  0  0  0
   14.1404   -1.8470   23.6941 C   0  0  0  0  0  0  0  0  0  0  0  0
   14.7194   -1.6450   22.6243 O   0  0  0  0  0  0  0  0  0  0  0  0
   12.6357   -1.6793   23.8106 C   0  0  0  0  0  0  0  0  0  0  0  0
   11.9442   -1.6199   22.4508 C   0  0  0  0  0  0  0  0  0  0  0  0
   10.4426   -1.5099   22.6513 C   0  0  0  0  0  0  0  0  0  0  0  0
   10.1060   -0.3104   23.4114 N   0  0  0  0  0  0  0  0  0  0  0  0
    8.6459   -0.1579   23.5221 C   0  0  0  0  0  0  0  0  0  0  0  0
    7.9389   -0.0273   22.2042 C   0  0  0  0  0  0  0  0  0  0  0  0
    7.7280    1.0585   21.4389 C   0  0  0  0  0  0  0  0  0  0  0  0
    8.2221    2.3802   21.9450 C   0  0  0  0  0  0  0  0  0  0  0  0
    7.4321    3.2787   22.2294 O   0  0  0  0  0  0  0  0  0  0  0  0
    9.5726    2.4786   22.0521 N   0  0  0  0  0  0  0  0  0  0  0  0
   10.4074    3.5410   22.4816 C   0  0  0  0  0  0  0  0  0  0  0  0
   11.7731    3.2961   22.5708 C   0  0  0  0  0  0  0  0  0  0  0  0
   12.6419    4.2915   22.9847 C   0  0  0  0  0  0  0  0  0  0  0  0
   12.1616    5.5394   23.3137 C   0  0  0  0  0  0  0  0  0  0  0  0
   10.8105    5.7947   23.2290 C   0  0  0  0  0  0  0  0  0  0  0  0
    9.9313    4.8071   22.8159 C   0  0  0  0  0  0  0  0  0  0  0  0
    7.0254    0.9987   20.1281 C   0  0  0  0  0  0  0  0  0  0  0  0
    5.8774    1.7461   19.8846 C   0  0  0  0  0  0  0  0  0  0  0  0
    5.2398    1.6641   18.6593 C   0  0  0  0  0  0  0  0  0  0  0  0
    5.7647    0.8282   17.7020 C   0  0  0  0  0  0  0  0  0  0  0  0
    6.8606    0.0955   17.8991 N   0  0  0  0  0  0  0  0  0  0  0  0
    7.4694    0.1941   19.0849 C   0  0  0  0  0  0  0  0  0  0  0  0
   10.7204   -0.4064   24.7402 C   0  0  0  0  0  0  0  0  0  0  0  0
   12.2367   -0.4692   24.6422 C   0  0  0  0  0  0  0  0  0  0  0  0
  1  2  1  0
  2  3  2  0
  2  4  1  0
  4  5  1  0
  5  6  1  0
  6  7  1  0
  7  8  1  0
  8  9  1  0
  9 10  2  0
 10 11  1  0
 11 12  2  0
 11 13  1  0
 13 14  1  0
 14 15  2  0
 15 16  1  0
 16 17  2  0
 17 18  1  0
 18 19  2  0
 10 20  1  0
 20 21  2  0
 21 22  1  0
 22 23  2  0
 23 24  1  0
 24 25  2  0
  7 26  1  0
 26 27  1  0
 27  4  1  0
 19 14  1  0
 25 20  1  0
M  END
