CVD-0003020|dock_bobby27042020.32|mol2|20|dock1
     RDKit          3D

 21 22  0  0  0  0  0  0  0  0999 V2000
    2.3085    4.1343   17.3879 N   0  0  0  0  0  0  0  0  0  0  0  0
    1.9853    3.2510   18.3081 C   0  0  0  0  0  0  0  0  0  0  0  0
    0.8462    3.0437   18.7386 O   0  0  0  0  0  0  0  0  0  0  0  0
    3.1048    2.4566   18.8510 C   0  0  0  0  0  0  0  0  0  0  0  0
    4.0309    1.7767   19.1892 C   0  0  0  0  0  0  0  0  0  0  0  0
    5.1771    0.9805   19.5290 C   0  0  0  0  0  0  0  0  0  0  0  0
    6.2580    0.8868   18.6584 C   0  0  0  0  0  0  0  0  0  0  0  0
    7.3591    0.1185   18.9920 C   0  0  0  0  0  0  0  0  0  0  0  0
    7.4142   -0.5717   20.1928 C   0  0  0  0  0  0  0  0  0  0  0  0
    8.6176   -1.4110   20.5486 C   0  0  0  0  0  0  0  0  0  0  0  0
    9.5299   -0.7479   21.4687 N   0  0  0  0  0  0  0  0  0  0  0  0
   10.6337   -1.3863   21.8984 C   0  0  0  0  0  0  0  0  0  0  0  0
   10.8815   -2.5107   21.4799 O   0  0  0  0  0  0  0  0  0  0  0  0
   11.4801   -0.7933   22.7942 N   0  0  0  0  0  0  0  0  0  0  0  0
   11.5038    0.6552   23.0287 C   0  0  0  0  0  0  0  0  0  0  0  0
   12.9350    1.1522   23.0415 C   0  0  0  0  0  0  0  0  0  0  0  0
   13.7244    0.4646   23.9911 O   0  0  0  0  0  0  0  0  0  0  0  0
   13.7429   -0.9324   23.6962 C   0  0  0  0  0  0  0  0  0  0  0  0
   12.3488   -1.5182   23.7267 C   0  0  0  0  0  0  0  0  0  0  0  0
    6.3342   -0.4761   21.0562 C   0  0  0  0  0  0  0  0  0  0  0  0
    5.2269    0.2888   20.7349 C   0  0  0  0  0  0  0  0  0  0  0  0
  1  2  1  0
  2  3  2  0
  2  4  1  0
  4  5  3  0
  5  6  1  0
  6  7  2  0
  7  8  1  0
  8  9  2  0
  9 10  1  0
 10 11  1  0
 11 12  1  0
 12 13  2  0
 12 14  1  0
 14 15  1  0
 15 16  1  0
 16 17  1  0
 17 18  1  0
 18 19  1  0
  9 20  1  0
 20 21  2  0
 21  6  1  0
 19 14  1  0
M  END
