CVD-0000501|dock_bobby27042020.84|mol2|9|dock3
     RDKit          3D

 34 36  0  0  0  0  0  0  0  0999 V2000
   13.8760   -1.6706   20.4174 N   0  0  0  0  0  0  0  0  0  0  0  0
   13.5537   -1.7042   21.9128 S   0  0  0  0  0  0  0  0  0  0  0  0
   13.8864   -0.3789   22.4774 O   0  0  0  0  0  0  0  0  0  0  0  0
   14.2731   -2.8522   22.5048 O   0  0  0  0  0  0  0  0  0  0  0  0
   11.8747   -1.9650   22.1176 N   0  0  0  0  0  0  0  0  0  0  0  0
   11.5483   -2.0702   23.5434 C   0  0  0  0  0  0  0  0  0  0  0  0
   10.3158   -1.2708   23.9780 C   0  0  0  0  0  0  0  0  0  0  0  0
    9.1064   -1.9618   23.5378 N   0  0  0  0  0  0  0  0  0  0  0  0
    7.9964   -2.0343   24.2779 C   0  0  0  0  0  0  0  0  0  0  0  0
    7.9016   -1.5257   25.3917 O   0  0  0  0  0  0  0  0  0  0  0  0
    6.8190   -2.7928   23.6721 C   0  0  0  0  0  0  0  0  0  0  0  0
    6.9788   -4.2969   23.9408 C   0  0  0  0  0  0  0  0  0  0  0  0
    5.8586   -5.1280   23.3640 C   0  0  0  0  0  0  0  0  0  0  0  0
    6.0233   -5.8097   22.1683 C   0  0  0  0  0  0  0  0  0  0  0  0
    4.9999   -6.5708   21.6321 C   0  0  0  0  0  0  0  0  0  0  0  0
    3.7856   -6.6585   22.2938 C   0  0  0  0  0  0  0  0  0  0  0  0
    2.7723   -7.4075   21.7709 O   0  0  0  0  0  0  0  0  0  0  0  0
    3.6060   -5.9814   23.4892 C   0  0  0  0  0  0  0  0  0  0  0  0
    4.6380   -5.2240   24.0139 C   0  0  0  0  0  0  0  0  0  0  0  0
    6.7255   -2.5445   22.2428 N   0  0  0  0  0  0  0  0  0  0  0  0
    6.1332   -1.4238   21.7753 C   0  0  0  0  0  0  0  0  0  0  0  0
    5.5940   -0.6186   22.5288 O   0  0  0  0  0  0  0  0  0  0  0  0
    6.1833   -1.2578   20.3873 N   0  0  0  0  0  0  0  0  0  0  0  0
    5.6591   -0.1994   19.6104 C   0  0  0  0  0  0  0  0  0  0  0  0
    4.5181    0.6003   19.9538 C   0  0  0  0  0  0  0  0  0  0  0  0
    4.2358    1.5515   19.0198 C   0  0  0  0  0  0  0  0  0  0  0  0
    5.3453    1.4739   17.7389 S   0  0  0  0  0  0  0  0  0  0  0  0
    6.1981    0.1765   18.4287 C   0  0  0  0  0  0  0  0  0  0  0  0
   10.3720    0.1416   23.4303 C   0  0  0  0  0  0  0  0  0  0  0  0
    9.3233    0.6535   22.6791 C   0  0  0  0  0  0  0  0  0  0  0  0
    9.3767    1.9428   22.1763 C   0  0  0  0  0  0  0  0  0  0  0  0
   10.4787    2.7350   22.4175 C   0  0  0  0  0  0  0  0  0  0  0  0
   11.5281    2.2389   23.1610 C   0  0  0  0  0  0  0  0  0  0  0  0
   11.4758    0.9498   23.6643 C   0  0  0  0  0  0  0  0  0  0  0  0
  1  2  1  0
  2  3  2  0
  2  4  2  0
  2  5  1  0
  5  6  1  0
  6  7  1  0
  7  8  1  0
  8  9  1  0
  9 10  2  0
  9 11  1  0
 11 12  1  0
 12 13  1  0
 13 14  2  0
 14 15  1  0
 15 16  2  0
 16 17  1  0
 16 18  1  0
 18 19  2  0
 11 20  1  0
 20 21  1  0
 21 22  2  0
 21 23  1  0
 23 24  1  0
 24 25  1  0
 25 26  2  0
 26 27  1  0
 27 28  1  0
  7 29  1  0
 29 30  2  0
 30 31  1  0
 31 32  2  0
 32 33  1  0
 33 34  2  0
 19 13  1  0
 28 24  2  0
 34 29  1  0
M  END
