CVD-0002728|dock_bobby27042020.33|mol2|15|dock3
     RDKit          3D

 25 27  0  0  0  0  0  0  0  0999 V2000
   14.5460   -2.2875   25.5084 C   0  0  0  0  0  0  0  0  0  0  0  0
   13.4546   -1.7244   24.6312 C   0  0  0  0  0  0  0  0  0  0  0  0
   13.3272   -2.1152   23.3076 C   0  0  0  0  0  0  0  0  0  0  0  0
   12.3255   -1.6033   22.5022 C   0  0  0  0  0  0  0  0  0  0  0  0
   11.4150   -0.6818   22.9988 C   0  0  0  0  0  0  0  0  0  0  0  0
   11.5399   -0.2887   24.3235 C   0  0  0  0  0  0  0  0  0  0  0  0
   12.5435   -0.8038   25.1244 C   0  0  0  0  0  0  0  0  0  0  0  0
   10.3131   -0.1134   22.1132 C   0  0  0  0  0  0  0  0  0  0  0  0
    9.0488   -0.8748   22.2663 N   0  0  0  0  0  0  0  0  0  0  0  0
    9.3130   -2.2823   22.6079 C   0  0  0  0  0  0  0  0  0  0  0  0
    8.0241   -3.0358   22.8092 C   0  0  0  0  0  0  0  0  0  0  0  0
    7.1763   -2.9395   21.6168 N   0  0  0  0  0  0  0  0  0  0  0  0
    6.9475   -1.5565   21.2030 C   0  0  0  0  0  0  0  0  0  0  0  0
    8.2725   -0.8541   21.0257 C   0  0  0  0  0  0  0  0  0  0  0  0
    6.5263   -3.9617   21.0124 C   0  0  0  0  0  0  0  0  0  0  0  0
    5.8444   -3.7810   20.0112 O   0  0  0  0  0  0  0  0  0  0  0  0
    6.6648   -5.3539   21.5982 C   0  0  0  0  0  0  0  0  0  0  0  0
    6.0176   -5.4320   23.2421 Cl  0  0  0  0  0  0  0  0  0  0  0  0
   10.1135    1.3644   22.4263 C   0  0  0  0  0  0  0  0  0  0  0  0
    8.8559    1.8589   22.7387 C   0  0  0  0  0  0  0  0  0  0  0  0
    8.6839    3.2034   23.0193 C   0  0  0  0  0  0  0  0  0  0  0  0
    9.7701    4.0620   22.9876 C   0  0  0  0  0  0  0  0  0  0  0  0
   11.0361    3.5913   22.6753 C   0  0  0  0  0  0  0  0  0  0  0  0
   12.2225    4.5238   22.6430 C   0  0  0  0  0  0  0  0  0  0  0  0
   11.1880    2.2407   22.3987 C   0  0  0  0  0  0  0  0  0  0  0  0
  1  2  1  0
  2  3  2  0
  3  4  1  0
  4  5  2  0
  5  6  1  0
  6  7  2  0
  5  8  1  0
  8  9  1  0
  9 10  1  0
 10 11  1  0
 11 12  1  0
 12 13  1  0
 13 14  1  0
 12 15  1  0
 15 16  2  0
 15 17  1  0
 17 18  1  0
  8 19  1  0
 19 20  2  0
 20 21  1  0
 21 22  2  0
 22 23  1  0
 23 24  1  0
 23 25  2  0
  7  2  1  0
 14  9  1  0
 25 19  1  0
M  END
