CVD-0003647|dock_bobby27042020.16|mol2|2|dock3
     RDKit          3D

 31 34  0  0  0  0  0  0  0  0999 V2000
    5.8375   -4.4471   18.9667 O   0  0  0  0  0  0  0  0  0  0  0  0
    5.9613   -3.2288   18.8577 N   0  0  0  0  0  0  0  0  0  0  0  0
    5.3627   -2.5516   18.0392 O   0  0  0  0  0  0  0  0  0  0  0  0
    6.8883   -2.5470   19.7707 C   0  0  0  0  0  0  0  0  0  0  0  0
    7.7808   -3.2910   20.5203 C   0  0  0  0  0  0  0  0  0  0  0  0
    8.6894   -2.6524   21.3424 C   0  0  0  0  0  0  0  0  0  0  0  0
    8.7121   -1.2618   21.4170 C   0  0  0  0  0  0  0  0  0  0  0  0
    7.7267   -0.5110   20.7377 C   0  0  0  0  0  0  0  0  0  0  0  0
    6.8546   -1.1665   19.8730 C   0  0  0  0  0  0  0  0  0  0  0  0
    7.5516    0.9262   20.8959 N   0  0  0  0  0  0  0  0  0  0  0  0
    7.9637    1.4395   21.9342 O   0  0  0  0  0  0  0  0  0  0  0  0
    7.0709    1.5864   19.9920 O   0  0  0  0  0  0  0  0  0  0  0  0
    9.7744   -0.7139   22.2106 N   0  0  0  0  0  0  0  0  0  0  0  0
   10.2786    0.5009   21.7757 N   0  0  0  0  0  0  0  0  0  0  0  0
   11.2635    0.7987   22.6288 C   0  0  0  0  0  0  0  0  0  0  0  0
   11.3846   -0.1886   23.6174 C   0  0  0  0  0  0  0  0  0  0  0  0
   10.4192   -1.1397   23.3518 C   0  0  0  0  0  0  0  0  0  0  0  0
   10.1641   -2.3549   24.1560 C   0  0  0  0  0  0  0  0  0  0  0  0
   11.0494   -3.4280   24.2045 C   0  0  0  0  0  0  0  0  0  0  0  0
   10.7928   -4.5289   25.0025 C   0  0  0  0  0  0  0  0  0  0  0  0
    9.6256   -4.5737   25.7333 C   0  0  0  0  0  0  0  0  0  0  0  0
    9.2693   -6.0819   26.8316 Br  0  0  0  0  0  0  0  0  0  0  0  0
    8.7120   -3.5439   25.6800 C   0  0  0  0  0  0  0  0  0  0  0  0
    8.9859   -2.4415   24.8905 C   0  0  0  0  0  0  0  0  0  0  0  0
   12.0481    2.0315   22.4577 C   0  0  0  0  0  0  0  0  0  0  0  0
   11.9616    2.7698   21.2827 C   0  0  0  0  0  0  0  0  0  0  0  0
   12.6973    3.9296   21.1168 C   0  0  0  0  0  0  0  0  0  0  0  0
   13.5245    4.3513   22.1358 C   0  0  0  0  0  0  0  0  0  0  0  0
   14.5374    5.9428   21.9149 Br  0  0  0  0  0  0  0  0  0  0  0  0
   13.6308    3.6402   23.3119 C   0  0  0  0  0  0  0  0  0  0  0  0
   12.8909    2.4816   23.4678 C   0  0  0  0  0  0  0  0  0  0  0  0
  1  2  1  0
  2  3  2  0
  2  4  1  0
  4  5  2  0
  5  6  1  0
  6  7  2  0
  7  8  1  0
  8  9  2  0
  8 10  1  0
 10 11  1  0
 10 12  2  0
  7 13  1  0
 13 14  1  0
 14 15  2  0
 15 16  1  0
 16 17  2  0
 17 18  1  0
 18 19  2  0
 19 20  1  0
 20 21  2  0
 21 22  1  0
 21 23  1  0
 23 24  2  0
 15 25  1  0
 25 26  2  0
 26 27  1  0
 27 28  2  0
 28 29  1  0
 28 30  1  0
 30 31  2  0
  9  4  1  0
 17 13  1  0
 24 18  1  0
 31 25  1  0
M  CHG  4   1  -1   2   1  10   1  11  -1
M  END
