CVD-0002887|dock_bobby27042020.18|mol2|21|dock2
     RDKit          3D

 20 21  0  0  0  0  0  0  0  0999 V2000
   12.0127   -1.5412   21.6245 O   0  0  0  0  0  0  0  0  0  0  0  0
   10.9698   -0.9964   22.3937 C   0  0  0  0  0  0  0  0  0  0  0  0
    9.6886   -1.7764   22.1647 C   0  0  0  0  0  0  0  0  0  0  0  0
    8.5713   -1.1331   22.8623 N   0  0  0  0  0  0  0  0  0  0  0  0
    7.2986   -1.8199   22.6004 C   0  0  0  0  0  0  0  0  0  0  0  0
    6.7852   -1.5972   21.1951 C   0  0  0  0  0  0  0  0  0  0  0  0
    6.8348   -0.3165   20.6530 C   0  0  0  0  0  0  0  0  0  0  0  0
    6.3645   -0.0528   19.3752 C   0  0  0  0  0  0  0  0  0  0  0  0
    6.4281    1.2144   18.8738 O   0  0  0  0  0  0  0  0  0  0  0  0
    5.8306   -1.0762   18.6109 C   0  0  0  0  0  0  0  0  0  0  0  0
    5.7764   -2.3574   19.1278 C   0  0  0  0  0  0  0  0  0  0  0  0
    6.2523   -2.6268   20.4059 C   0  0  0  0  0  0  0  0  0  0  0  0
    6.1798   -3.9129   20.8479 O   0  0  0  0  0  0  0  0  0  0  0  0
    8.8621   -1.0939   24.2931 C   0  0  0  0  0  0  0  0  0  0  0  0
   10.1336   -0.3100   24.5622 C   0  0  0  0  0  0  0  0  0  0  0  0
   11.2583   -0.8956   23.8260 N   0  0  0  0  0  0  0  0  0  0  0  0
   12.3588   -1.3114   24.5109 C   0  0  0  0  0  0  0  0  0  0  0  0
   12.4147   -1.1228   25.7196 O   0  0  0  0  0  0  0  0  0  0  0  0
   13.5350   -2.0041   23.8450 C   0  0  0  0  0  0  0  0  0  0  0  0
   14.7300   -2.5367   25.0358 Cl  0  0  0  0  0  0  0  0  0  0  0  0
  2  1  1  0
  2  3  1  0
  3  4  1  0
  4  5  1  0
  5  6  1  0
  6  7  2  0
  7  8  1  0
  8  9  1  0
  8 10  2  0
 10 11  1  0
 11 12  2  0
 12 13  1  0
  4 14  1  0
 14 15  1  0
 15 16  1  0
 16 17  1  0
 17 18  2  0
 17 19  1  0
 19 20  1  0
 16  2  1  0
 12  6  1  0
M  END
