CVD-0001170|dock_bobby27042020.10|mol2|31|dock2
     RDKit          3D

 27 30  0  0  0  0  0  0  0  0999 V2000
   13.3927    2.7482   22.8160 C   0  0  0  0  0  0  0  0  0  0  0  0
   11.9951    2.2761   22.4969 C   0  0  0  0  0  0  0  0  0  0  0  0
   11.7467    0.9580   22.1557 C   0  0  0  0  0  0  0  0  0  0  0  0
   10.4657    0.5269   21.8675 C   0  0  0  0  0  0  0  0  0  0  0  0
    9.3992    1.4123   21.9225 C   0  0  0  0  0  0  0  0  0  0  0  0
    9.6142    2.7633   22.2448 C   0  0  0  0  0  0  0  0  0  0  0  0
    8.5349    3.8130   22.2926 C   0  0  0  0  0  0  0  0  0  0  0  0
   10.9214    3.1524   22.5303 C   0  0  0  0  0  0  0  0  0  0  0  0
    7.7898    0.7583   21.5530 S   0  0  0  0  0  0  0  0  0  0  0  0
    6.8417    1.3689   22.4347 O   0  0  0  0  0  0  0  0  0  0  0  0
    7.6324    0.8412   20.1327 O   0  0  0  0  0  0  0  0  0  0  0  0
    7.8049   -0.8394   21.9430 N   0  0  0  0  0  0  0  0  0  0  0  0
    7.0996   -1.8909   21.3105 C   0  0  0  0  0  0  0  0  0  0  0  0
    6.2363   -1.8561   20.2290 C   0  0  0  0  0  0  0  0  0  0  0  0
    5.7375   -3.1071   19.9421 N   0  0  0  0  0  0  0  0  0  0  0  0
    6.2917   -3.9285   20.8208 C   0  0  0  0  0  0  0  0  0  0  0  0
    6.1160   -5.3233   20.9517 C   0  0  0  0  0  0  0  0  0  0  0  0
    6.7868   -5.9903   21.9319 C   0  0  0  0  0  0  0  0  0  0  0  0
    7.6411   -5.2925   22.7983 C   0  0  0  0  0  0  0  0  0  0  0  0
    7.8131   -3.9599   22.6800 C   0  0  0  0  0  0  0  0  0  0  0  0
    7.1435   -3.2485   21.6908 N   0  0  0  0  0  0  0  0  0  0  0  0
    5.7747   -0.7467   19.3631 C   0  0  0  0  0  0  0  0  0  0  0  0
    4.9202    0.2672   19.7856 C   0  0  0  0  0  0  0  0  0  0  0  0
    4.5052    1.2355   18.8880 C   0  0  0  0  0  0  0  0  0  0  0  0
    4.9835    1.1891   17.5993 C   0  0  0  0  0  0  0  0  0  0  0  0
    5.8364    0.2579   17.1731 N   0  0  0  0  0  0  0  0  0  0  0  0
    6.2102   -0.6826   18.0458 C   0  0  0  0  0  0  0  0  0  0  0  0
  1  2  1  0
  2  3  2  0
  3  4  1  0
  4  5  2  0
  5  6  1  0
  6  7  1  0
  6  8  2  0
  5  9  1  0
  9 10  2  0
  9 11  2  0
  9 12  1  0
 12 13  1  0
 13 14  2  0
 14 15  1  0
 15 16  2  0
 16 17  1  0
 17 18  2  0
 18 19  1  0
 19 20  2  0
 20 21  1  0
 14 22  1  0
 22 23  2  0
 23 24  1  0
 24 25  2  0
 25 26  1  0
 26 27  2  0
  8  2  1  0
 21 13  1  0
 27 22  1  0
 21 16  1  0
M  END
