CVD-0001520|dock_bobby27042020.23|mol2|35|dock1
     RDKit          3D

 33 36  0  0  0  0  0  0  0  0999 V2000
    6.1654   -3.2757   18.0400 O   0  0  0  0  0  0  0  0  0  0  0  0
    6.5599   -2.9694   19.1586 C   0  0  0  0  0  0  0  0  0  0  0  0
    6.7529   -4.0317   20.2302 C   0  0  0  0  0  0  0  0  0  0  0  0
    5.7584   -3.8743   21.3724 C   0  0  0  0  0  0  0  0  0  0  0  0
    4.8799   -3.0230   21.3059 O   0  0  0  0  0  0  0  0  0  0  0  0
    5.8602   -4.6634   22.4658 N   0  0  0  0  0  0  0  0  0  0  0  0
    6.8391   -5.7300   22.6587 C   0  0  0  0  0  0  0  0  0  0  0  0
    7.4488   -5.6288   24.0416 C   0  0  0  0  0  0  0  0  0  0  0  0
    6.3648   -5.6912   25.1106 C   0  0  0  0  0  0  0  0  0  0  0  0
    5.3284   -4.6002   24.8509 C   0  0  0  0  0  0  0  0  0  0  0  0
    4.7716   -4.7151   23.4358 C   0  0  0  0  0  0  0  0  0  0  0  0
    6.9628   -5.5514   26.4973 C   0  0  0  0  0  0  0  0  0  0  0  0
    8.0893   -5.1128   26.6312 O   0  0  0  0  0  0  0  0  0  0  0  0
    6.2282   -5.9126   27.5681 N   0  0  0  0  0  0  0  0  0  0  0  0
    4.8540   -6.4166   27.5332 C   0  0  0  0  0  0  0  0  0  0  0  0
    4.7686   -7.7730   28.2014 C   0  0  0  0  0  0  0  0  0  0  0  0
    5.3235   -7.7162   29.6242 C   0  0  0  0  0  0  0  0  0  0  0  0
    6.7290   -7.1403   29.6209 C   0  0  0  0  0  0  0  0  0  0  0  0
    6.7714   -5.7978   28.9267 C   0  0  0  0  0  0  0  0  0  0  0  0
    6.8551   -1.6896   19.4753 N   0  0  0  0  0  0  0  0  0  0  0  0
    7.2913   -1.2154   20.7860 C   0  0  0  0  0  0  0  0  0  0  0  0
    6.5239    0.0342   21.1658 C   0  0  0  0  0  0  0  0  0  0  0  0
    6.7089    1.1177   20.1106 C   0  0  0  0  0  0  0  0  0  0  0  0
    6.2966    0.5751   18.7441 C   0  0  0  0  0  0  0  0  0  0  0  0
    7.0631   -0.7032   18.4210 C   0  0  0  0  0  0  0  0  0  0  0  0
    5.9111    2.3610   20.4641 C   0  0  0  0  0  0  0  0  0  0  0  0
    4.9107    2.6007   19.8155 O   0  0  0  0  0  0  0  0  0  0  0  0
    6.2621    3.2056   21.4591 N   0  0  0  0  0  0  0  0  0  0  0  0
    7.4303    3.0641   22.3303 C   0  0  0  0  0  0  0  0  0  0  0  0
    8.3036    4.2989   22.2523 C   0  0  0  0  0  0  0  0  0  0  0  0
    7.4983    5.5578   22.5716 C   0  0  0  0  0  0  0  0  0  0  0  0
    6.2696    5.6391   21.6822 C   0  0  0  0  0  0  0  0  0  0  0  0
    5.4392    4.3790   21.7753 C   0  0  0  0  0  0  0  0  0  0  0  0
  1  2  2  0
  2  3  1  0
  3  4  1  0
  4  5  2  0
  4  6  1  0
  6  7  1  0
  7  8  1  0
  8  9  1  0
  9 10  1  0
 10 11  1  0
  9 12  1  0
 12 13  2  0
 12 14  1  0
 14 15  1  0
 15 16  1  0
 16 17  1  0
 17 18  1  0
 18 19  1  0
  2 20  1  0
 20 21  1  0
 21 22  1  0
 22 23  1  0
 23 24  1  0
 24 25  1  0
 23 26  1  0
 26 27  2  0
 26 28  1  0
 28 29  1  0
 29 30  1  0
 30 31  1  0
 31 32  1  0
 32 33  1  0
 11  6  1  0
 19 14  1  0
 25 20  1  0
 33 28  1  0
M  END
