CVD-0000331|dock_bobby27042020.56|mol2|23|dock3
     RDKit          3D

 33 36  0  0  0  0  0  0  0  0999 V2000
    6.5581    1.1341   19.5689 C   0  0  0  0  0  0  0  0  0  0  0  0
    7.5551    0.3443   18.7999 C   0  0  0  0  0  0  0  0  0  0  0  0
    8.4039   -0.3427   19.7273 O   0  0  0  0  0  0  0  0  0  0  0  0
    7.9002   -1.3440   20.5223 C   0  0  0  0  0  0  0  0  0  0  0  0
    6.6773   -1.9595   20.3181 C   0  0  0  0  0  0  0  0  0  0  0  0
    6.1847   -2.9142   21.1149 N   0  0  0  0  0  0  0  0  0  0  0  0
    6.9137   -3.2981   22.1757 C   0  0  0  0  0  0  0  0  0  0  0  0
    8.1590   -2.7418   22.4417 C   0  0  0  0  0  0  0  0  0  0  0  0
    8.6870   -1.7574   21.6072 C   0  0  0  0  0  0  0  0  0  0  0  0
   10.0431   -1.2313   21.9505 C   0  0  0  0  0  0  0  0  0  0  0  0
   11.0998   -2.0649   22.3179 C   0  0  0  0  0  0  0  0  0  0  0  0
   12.3280   -1.5151   22.6186 C   0  0  0  0  0  0  0  0  0  0  0  0
   13.6376   -2.5718   23.0669 Cl  0  0  0  0  0  0  0  0  0  0  0  0
   12.5523   -0.1547   22.5761 C   0  0  0  0  0  0  0  0  0  0  0  0
   11.5097    0.6988   22.2204 C   0  0  0  0  0  0  0  0  0  0  0  0
   10.2707    0.1442   21.9139 C   0  0  0  0  0  0  0  0  0  0  0  0
   11.6526    2.1950   22.1496 C   0  0  0  0  0  0  0  0  0  0  0  0
   10.8487    2.8204   21.4641 O   0  0  0  0  0  0  0  0  0  0  0  0
   12.6723    2.8125   22.8503 N   0  0  0  0  0  0  0  0  0  0  0  0
   12.9755    4.1526   22.9200 C   0  0  0  0  0  0  0  0  0  0  0  0
   13.6222    4.9985   22.0401 C   0  0  0  0  0  0  0  0  0  0  0  0
   13.6305    6.2647   22.6705 C   0  0  0  0  0  0  0  0  0  0  0  0
   13.0196    6.1243   23.8384 C   0  0  0  0  0  0  0  0  0  0  0  0
   12.5991    4.8355   24.0328 O   0  0  0  0  0  0  0  0  0  0  0  0
    6.3266   -4.3533   23.0651 C   0  0  0  0  0  0  0  0  0  0  0  0
    5.9181   -5.6053   22.5711 C   0  0  0  0  0  0  0  0  0  0  0  0
    6.0631   -5.9868   21.1209 C   0  0  0  0  0  0  0  0  0  0  0  0
    5.3687   -6.5337   23.4504 C   0  0  0  0  0  0  0  0  0  0  0  0
    5.2818   -6.1503   24.7664 C   0  0  0  0  0  0  0  0  0  0  0  0
    4.7558   -7.0194   25.6582 F   0  0  0  0  0  0  0  0  0  0  0  0
    5.6588   -5.0050   25.2877 N   0  0  0  0  0  0  0  0  0  0  0  0
    6.1553   -4.1488   24.4304 C   0  0  0  0  0  0  0  0  0  0  0  0
    6.5157   -2.9733   24.9677 F   0  0  0  0  0  0  0  0  0  0  0  0
  1  2  1  0
  2  3  1  0
  3  4  1  0
  4  5  2  0
  5  6  1  0
  6  7  2  0
  7  8  1  0
  8  9  2  0
  9 10  1  0
 10 11  2  0
 11 12  1  0
 12 13  1  0
 12 14  2  0
 14 15  1  0
 15 16  2  0
 15 17  1  0
 17 18  2  0
 17 19  1  0
 19 20  1  0
 20 21  2  0
 21 22  1  0
 22 23  2  0
 23 24  1  0
  7 25  1  0
 25 26  2  0
 26 27  1  0
 26 28  1  0
 28 29  2  0
 29 30  1  0
 29 31  1  0
 31 32  2  0
 32 33  1  0
  9  4  1  0
 16 10  1  0
 24 20  1  0
 32 25  1  0
M  END
