CVD-0001138|dock_bobby27042020.10|mol2|36|dock1
     RDKit          3D

 30 35  0  0  0  0  0  0  0  0999 V2000
    8.8961   -3.6206   22.5957 O   0  0  0  0  0  0  0  0  0  0  0  0
    9.2366   -3.4283   23.9701 C   0  0  0  0  0  0  0  0  0  0  0  0
    9.4802   -1.9293   24.1665 C   0  0  0  0  0  0  0  0  0  0  0  0
   10.2503   -1.1308   23.0874 C   0  0  0  0  0  0  0  0  0  0  0  0
    9.4796   -0.5994   21.9068 C   0  0  0  0  0  0  0  0  0  0  0  0
    9.0531   -0.9419   20.6618 C   0  0  0  0  0  0  0  0  0  0  0  0
    8.0843   -0.1994   19.9657 C   0  0  0  0  0  0  0  0  0  0  0  0
    7.5195    0.9570   20.4803 C   0  0  0  0  0  0  0  0  0  0  0  0
    7.7927    1.4238   21.8951 C   0  0  0  0  0  0  0  0  0  0  0  0
    9.2936    1.0947   22.8410 Cu  0  0  0  0  0  6  0  0  0  0  0  0
   10.5521    0.3170   23.3977 C   0  0  0  0  0  0  0  0  0  0  0  0
   11.9570    0.0140   24.2506 Cu  0  0  0  0  0  6  0  0  0  0  0  0
   11.7294   -1.4170   22.9486 C   0  0  0  0  0  0  0  0  0  0  0  0
   12.8165   -2.2625   22.3344 C   0  0  0  0  0  0  0  0  0  0  0  0
   13.9539   -2.4910   23.0737 C   0  0  0  0  0  0  0  0  0  0  0  0
   14.2052   -1.8190   24.2885 C   0  0  0  0  0  0  0  0  0  0  0  0
   13.3606   -0.8706   24.8090 C   0  0  0  0  0  0  0  0  0  0  0  0
   12.6916    1.5931   23.2580 C   0  0  0  0  0  0  0  0  0  0  0  0
   11.8328    2.6251   22.5578 C   0  0  0  0  0  0  0  0  0  0  0  0
   10.4764    2.5256   22.4273 C   0  0  0  0  0  0  0  0  0  0  0  0
    8.1094   -4.0280   24.8309 C   0  0  0  0  0  0  0  0  0  0  0  0
    8.6886   -4.9059   25.9319 C   0  0  0  0  0  0  0  0  0  0  0  0
    9.5689   -4.2861   26.6775 O   0  0  0  0  0  0  0  0  0  0  0  0
    8.3748   -6.0640   26.1011 O   0  0  0  0  0  0  0  0  0  0  0  0
    7.1439   -4.8747   24.0172 C   0  0  0  0  0  0  0  0  0  0  0  0
    7.5839   -6.0002   23.3340 C   0  0  0  0  0  0  0  0  0  0  0  0
    6.7005   -6.7714   22.5972 C   0  0  0  0  0  0  0  0  0  0  0  0
    5.3671   -6.4276   22.5341 C   0  0  0  0  0  0  0  0  0  0  0  0
    4.9161   -5.3129   23.2078 C   0  0  0  0  0  0  0  0  0  0  0  0
    5.7986   -4.5412   23.9452 C   0  0  0  0  0  0  0  0  0  0  0  0
  1  2  1  0
  2  3  1  0
  3  4  1  0
  4  5  1  0
  5  6  2  0
  6  7  1  0
  7  8  2  0
  8  9  1  0
  9 10  2  0
 10 11  2  0
 11 12  1  0
 12 13  2  0
 13 14  1  0
 14 15  2  0
 15 16  1  0
 16 17  2  0
 12 18  2  0
 18 19  1  0
 19 20  2  0
  2 21  1  0
 21 22  1  0
 22 23  1  0
 22 24  2  0
 21 25  1  0
 25 26  2  0
 26 27  1  0
 27 28  2  0
 28 29  1  0
 29 30  2  0
 11  4  1  0
 17 12  1  0
 30 25  1  0
 13  4  1  0
 10  5  1  0
 20 10  1  0
M  END
