CVD-0001930|dock_bobby27042020.36|mol2|28|dock2
     RDKit          3D

 21 23  0  0  0  0  0  0  0  0999 V2000
   12.1018    5.6644   24.6620 N   0  0  0  0  0  0  0  0  0  0  0  0
   12.7958    4.9512   23.5664 C   0  0  0  0  0  0  0  0  0  0  0  0
   11.9920    3.8568   22.8703 C   0  0  0  0  0  0  0  0  0  0  0  0
   12.0656    2.6852   23.6873 O   0  0  0  0  0  0  0  0  0  0  0  0
   11.3184    1.6032   23.1117 C   0  0  0  0  0  0  0  0  0  0  0  0
    9.8458    1.9093   23.1530 C   0  0  0  0  0  0  0  0  0  0  0  0
    9.5255    3.3400   22.8083 C   0  0  0  0  0  0  0  0  0  0  0  0
    8.1961    3.7588   22.6388 C   0  0  0  0  0  0  0  0  0  0  0  0
    7.1357    2.9153   22.8313 O   0  0  0  0  0  0  0  0  0  0  0  0
    7.9109    5.0718   22.2693 C   0  0  0  0  0  0  0  0  0  0  0  0
    6.6154    5.4574   22.1359 O   0  0  0  0  0  0  0  0  0  0  0  0
    8.9407    5.9773   22.0654 C   0  0  0  0  0  0  0  0  0  0  0  0
   10.2488    5.5622   22.2330 C   0  0  0  0  0  0  0  0  0  0  0  0
   10.5546    4.2496   22.6033 C   0  0  0  0  0  0  0  0  0  0  0  0
   11.6860    0.3410   23.8905 C   0  0  0  0  0  0  0  0  0  0  0  0
   13.2087    0.1332   23.9211 C   0  0  0  0  0  0  0  0  0  0  0  0
   13.7398   -0.1742   22.5236 C   0  0  0  0  0  0  0  0  0  0  0  0
   13.0491   -1.4014   21.9332 C   0  0  0  0  0  0  0  0  0  0  0  0
   11.5371   -1.2576   21.9384 C   0  0  0  0  0  0  0  0  0  0  0  0
   10.8543   -2.4128   21.3415 N   0  0  0  0  0  0  0  0  0  0  0  0
   11.0040   -0.9051   23.3315 C   0  0  0  0  0  0  0  0  0  0  0  0
  1  2  1  0
  2  3  1  0
  3  4  1  0
  4  5  1  0
  5  6  1  0
  6  7  1  0
  7  8  2  0
  8  9  1  0
  8 10  1  0
 10 11  1  0
 10 12  2  0
 12 13  1  0
 13 14  2  0
  5 15  1  0
 15 16  1  0
 16 17  1  0
 17 18  1  0
 18 19  1  0
 19 20  1  0
 19 21  1  0
 14  3  1  0
 21 15  1  0
 14  7  1  0
M  END
