CVD-0000858|dock_bobby27042020.11|mol2|33|dock1
     RDKit          3D

 24 26  0  0  0  0  0  0  0  0999 V2000
    7.9008    1.5749   23.9952 C   0  0  0  0  0  0  0  0  0  0  0  0
    8.4082    1.8359   22.5748 C   0  0  0  0  0  0  0  0  0  0  0  0
    9.6714    2.6448   22.6882 C   0  0  0  0  0  0  0  0  0  0  0  0
    9.6939    4.0264   22.7641 C   0  0  0  0  0  0  0  0  0  0  0  0
    8.5329    4.6964   22.7460 F   0  0  0  0  0  0  0  0  0  0  0  0
   10.7698    4.7658   22.8656 N   0  0  0  0  0  0  0  0  0  0  0  0
   11.9372    4.1164   22.8973 C   0  0  0  0  0  0  0  0  0  0  0  0
   12.0828    2.7541   22.8320 C   0  0  0  0  0  0  0  0  0  0  0  0
   10.9191    1.9984   22.7245 C   0  0  0  0  0  0  0  0  0  0  0  0
   10.9942    0.6041   22.6534 N   0  0  0  0  0  0  0  0  0  0  0  0
    9.8526   -0.2505   22.3643 C   0  0  0  0  0  0  0  0  0  0  0  0
    8.6851    0.5412   21.8146 C   0  0  0  0  0  0  0  0  0  0  0  0
    8.9190    0.8378   20.5031 F   0  0  0  0  0  0  0  0  0  0  0  0
    7.5612   -0.2330   21.8224 F   0  0  0  0  0  0  0  0  0  0  0  0
   12.2637   -0.1281   22.8484 C   0  0  0  0  0  0  0  0  0  0  0  0
   12.6770   -0.1027   24.3149 C   0  0  0  0  0  0  0  0  0  0  0  0
   13.9860   -0.8671   24.4717 C   0  0  0  0  0  0  0  0  0  0  0  0
   13.8747   -2.1974   24.0046 O   0  0  0  0  0  0  0  0  0  0  0  0
   13.5541   -2.2321   22.6140 C   0  0  0  0  0  0  0  0  0  0  0  0
   12.2102   -1.5601   22.3330 C   0  0  0  0  0  0  0  0  0  0  0  0
   13.3537    5.1480   23.0506 S   0  0  0  0  0  0  0  0  0  0  0  0
   13.8931    5.4245   21.4028 C   0  0  0  0  0  0  0  0  0  0  0  0
   12.9204    6.4842   23.6065 N   0  0  0  0  0  0  0  0  0  0  0  0
   14.3950    4.3801   23.7094 O   0  0  0  0  0  0  0  0  0  0  0  0
  2  1  1  0
  2  3  1  0
  3  4  2  0
  4  5  1  0
  4  6  1  0
  6  7  2  0
  7  8  1  0
  8  9  2  0
  9 10  1  0
 10 11  1  0
 11 12  1  0
 12 13  1  0
 12 14  1  0
 10 15  1  0
 15 16  1  0
 16 17  1  0
 17 18  1  0
 18 19  1  0
 19 20  1  0
  7 21  1  0
 21 22  1  0
 21 23  2  0
 21 24  2  0
 12  2  1  0
 20 15  1  0
  9  3  1  0
M  END
