CVD-0001114|dock_bobby27042020.25|mol2|6|dock2
     RDKit          3D

 24 25  0  0  0  0  0  0  0  0999 V2000
   14.2172   -1.7065   23.6000 C   0  0  0  0  0  0  0  0  0  0  0  0
   12.6516   -1.8974   22.8307 S   0  0  0  0  0  0  0  0  0  0  0  0
   12.8573   -1.9774   21.4178 O   0  0  0  0  0  0  0  0  0  0  0  0
   11.9634   -2.9675   23.4839 O   0  0  0  0  0  0  0  0  0  0  0  0
   11.7984   -0.5371   23.1138 N   0  0  0  0  0  0  0  0  0  0  0  0
   12.1981    0.7359   22.4791 C   0  0  0  0  0  0  0  0  0  0  0  0
   12.9133    1.7068   23.4101 C   0  0  0  0  0  0  0  0  0  0  0  0
   13.0858    3.0689   22.7826 C   0  0  0  0  0  0  0  0  0  0  0  0
   14.2668    3.4107   22.1420 C   0  0  0  0  0  0  0  0  0  0  0  0
   14.4248    4.6591   21.5637 C   0  0  0  0  0  0  0  0  0  0  0  0
   13.4022    5.5816   21.6184 C   0  0  0  0  0  0  0  0  0  0  0  0
   12.2222    5.2549   22.2510 C   0  0  0  0  0  0  0  0  0  0  0  0
   12.0653    4.0062   22.8289 C   0  0  0  0  0  0  0  0  0  0  0  0
   10.5208   -0.6649   23.8432 C   0  0  0  0  0  0  0  0  0  0  0  0
    9.4223   -1.2538   22.9683 C   0  0  0  0  0  0  0  0  0  0  0  0
    9.2938   -0.5433   21.6226 C   0  0  0  0  0  0  0  0  0  0  0  0
    8.1308   -1.0663   20.8039 C   0  0  0  0  0  0  0  0  0  0  0  0
    6.8886   -1.0274   21.5819 N   0  0  0  0  0  0  0  0  0  0  0  0
    6.9628   -1.8036   22.8143 C   0  0  0  0  0  0  0  0  0  0  0  0
    8.0764   -1.2589   23.6814 C   0  0  0  0  0  0  0  0  0  0  0  0
    5.7358   -0.4431   21.1945 C   0  0  0  0  0  0  0  0  0  0  0  0
    4.7402   -0.4470   21.9073 O   0  0  0  0  0  0  0  0  0  0  0  0
    5.7299    0.2269   19.8342 C   0  0  0  0  0  0  0  0  0  0  0  0
    6.0015   -0.9530   18.5453 Cl  0  0  0  0  0  0  0  0  0  0  0  0
  1  2  1  0
  2  3  2  0
  2  4  2  0
  2  5  1  0
  5  6  1  0
  6  7  1  0
  7  8  1  0
  8  9  2  0
  9 10  1  0
 10 11  2  0
 11 12  1  0
 12 13  2  0
  5 14  1  0
 14 15  1  0
 15 16  1  0
 16 17  1  0
 17 18  1  0
 18 19  1  0
 19 20  1  0
 18 21  1  0
 21 22  2  0
 21 23  1  0
 23 24  1  0
 13  8  1  0
 20 15  1  0
M  END
