CVD-0003517|dock_bobby27042020.16|mol2|22|dock3
     RDKit          3D

 25 27  0  0  0  0  0  0  0  0999 V2000
   13.6617   -1.3340   21.9625 C   0  0  0  0  0  0  0  0  0  0  0  0
   12.5622   -1.1632   22.9603 C   0  0  0  0  0  0  0  0  0  0  0  0
   11.5911   -2.0810   23.1988 C   0  0  0  0  0  0  0  0  0  0  0  0
   10.5863   -1.8104   24.1803 C   0  0  0  0  0  0  0  0  0  0  0  0
   10.6175   -0.6277   24.8631 C   0  0  0  0  0  0  0  0  0  0  0  0
   11.6299    0.3468   24.6265 C   0  0  0  0  0  0  0  0  0  0  0  0
   11.7268    1.4387   25.2044 O   0  0  0  0  0  0  0  0  0  0  0  0
   12.5597    0.0055   23.6654 N   0  0  0  0  0  0  0  0  0  0  0  0
    9.5095   -2.8478   24.4254 C   0  0  0  0  0  0  0  0  0  0  0  0
   10.0708   -4.2900   24.4584 C   0  0  0  0  0  0  0  0  0  0  0  0
    9.8336   -4.3450   25.9880 C   0  0  0  0  0  0  0  0  0  0  0  0
    9.1271   -2.9642   25.9304 C   0  0  0  0  0  0  0  0  0  0  0  0
    8.9809   -5.4775   26.5324 C   0  0  0  0  0  0  0  0  0  0  0  0
    9.4118   -6.7047   26.2883 N   0  0  0  0  0  0  0  0  0  0  0  0
    7.9478   -5.2454   27.1641 O   0  0  0  0  0  0  0  0  0  0  0  0
    8.3344   -2.7096   23.5319 N   0  0  0  0  0  0  0  0  0  0  0  0
    8.7303   -2.7855   22.1160 C   0  0  0  0  0  0  0  0  0  0  0  0
    7.5249   -2.6931   21.2169 C   0  0  0  0  0  0  0  0  0  0  0  0
    6.7740   -1.4622   21.4824 N   0  0  0  0  0  0  0  0  0  0  0  0
    6.4219   -1.3147   22.8933 C   0  0  0  0  0  0  0  0  0  0  0  0
    7.6669   -1.4239   23.7410 C   0  0  0  0  0  0  0  0  0  0  0  0
    6.3011   -0.6019   20.5581 C   0  0  0  0  0  0  0  0  0  0  0  0
    5.6903    0.4127   20.8697 O   0  0  0  0  0  0  0  0  0  0  0  0
    6.5702   -0.9523   19.1079 C   0  0  0  0  0  0  0  0  0  0  0  0
    5.7437    0.1730   18.0226 Cl  0  0  0  0  0  0  0  0  0  0  0  0
  1  2  1  0
  2  3  2  0
  3  4  1  0
  4  5  2  0
  5  6  1  0
  6  7  2  0
  6  8  1  0
  4  9  1  0
  9 10  1  0
 10 11  1  0
 11 12  1  0
 11 13  1  0
 13 14  1  0
 13 15  2  0
  9 16  1  0
 16 17  1  0
 17 18  1  0
 18 19  1  0
 19 20  1  0
 20 21  1  0
 19 22  1  0
 22 23  2  0
 22 24  1  0
 24 25  1  0
  8  2  1  0
 12  9  1  0
 21 16  1  0
M  END
