CVD-0002899|dock_bobby27042020.47|mol2|5|dock2
     RDKit          3D

 21 24  0  0  0  0  0  0  0  0999 V2000
    6.1575   -1.6731   20.6402 C   0  0  0  0  0  0  0  0  0  0  0  0
    7.4483   -2.1002   21.1774 N   0  0  0  0  0  0  0  0  0  0  0  0
    7.3662   -2.2749   22.6305 C   0  0  0  0  0  0  0  0  0  0  0  0
    8.6968   -2.7578   23.1774 C   0  0  0  0  0  0  0  0  0  0  0  0
    9.7621   -1.8108   22.8410 N   0  0  0  0  0  0  0  0  0  0  0  0
    9.8309   -1.5683   21.3965 C   0  0  0  0  0  0  0  0  0  0  0  0
    8.4808   -1.1128   20.8736 C   0  0  0  0  0  0  0  0  0  0  0  0
   10.5809   -1.2694   23.7689 C   0  0  0  0  0  0  0  0  0  0  0  0
   10.4650   -1.5451   24.9479 O   0  0  0  0  0  0  0  0  0  0  0  0
   11.6762   -0.2896   23.3264 C   0  0  0  0  0  0  0  0  0  0  0  0
   12.9019   -0.8334   22.6248 C   0  0  0  0  0  0  0  0  0  0  0  0
   12.9989   -0.4330   24.0635 C   0  0  0  0  0  0  0  0  0  0  0  0
   11.1379    1.1145   23.1208 C   0  0  0  0  0  0  0  0  0  0  0  0
    9.8375    1.5282   23.2010 C   0  0  0  0  0  0  0  0  0  0  0  0
    9.7449    2.8718   22.9522 N   0  0  0  0  0  0  0  0  0  0  0  0
   10.9946    3.3594   22.7038 C   0  0  0  0  0  0  0  0  0  0  0  0
   11.3294    4.6288   22.4167 N   0  0  0  0  0  0  0  0  0  0  0  0
   12.6317    4.8669   22.2100 C   0  0  0  0  0  0  0  0  0  0  0  0
   13.6098    3.8979   22.2771 C   0  0  0  0  0  0  0  0  0  0  0  0
   13.2476    2.5936   22.5743 C   0  0  0  0  0  0  0  0  0  0  0  0
   11.9054    2.2934   22.7979 C   0  0  0  0  0  0  0  0  0  0  0  0
  1  2  1  0
  2  3  1  0
  3  4  1  0
  4  5  1  0
  5  6  1  0
  6  7  1  0
  5  8  1  0
  8  9  2  0
  8 10  1  0
 10 11  1  0
 11 12  1  0
 10 13  1  0
 13 14  2  0
 14 15  1  0
 15 16  1  0
 16 17  2  0
 17 18  1  0
 18 19  2  0
 19 20  1  0
 20 21  2  0
  7  2  1  0
 12 10  1  0
 21 13  1  0
 21 16  1  0
M  END
