CVD-0003548|dock_bobby27042020.30|mol2|32|dock2
     RDKit          3D

 23 24  0  0  0  0  0  0  0  0999 V2000
   13.4038    4.7155   21.9788 C   0  0  0  0  0  0  0  0  0  0  0  0
   12.4878    4.2399   23.3935 S   0  0  0  0  0  0  0  0  0  0  0  0
   11.1107    4.5431   23.1533 O   0  0  0  0  0  0  0  0  0  0  0  0
   13.1214    4.8068   24.5437 O   0  0  0  0  0  0  0  0  0  0  0  0
   12.6005    2.6467   23.5327 N   0  0  0  0  0  0  0  0  0  0  0  0
   12.0540    1.7806   22.4831 C   0  0  0  0  0  0  0  0  0  0  0  0
   11.3693    0.5485   23.0879 C   0  0  0  0  0  0  0  0  0  0  0  0
   10.5847   -0.1946   21.9977 C   0  0  0  0  0  0  0  0  0  0  0  0
    9.3015    0.5089   21.6137 C   0  0  0  0  0  0  0  0  0  0  0  0
    8.8237    1.3879   22.3235 O   0  0  0  0  0  0  0  0  0  0  0  0
    8.7758    0.0714   20.4438 N   0  0  0  0  0  0  0  0  0  0  0  0
    7.6093    0.4643   19.7422 C   0  0  0  0  0  0  0  0  0  0  0  0
    6.5069    1.0633   20.3432 C   0  0  0  0  0  0  0  0  0  0  0  0
    5.4161    1.4086   19.5640 C   0  0  0  0  0  0  0  0  0  0  0  0
    5.4556    1.1480   18.2136 C   0  0  0  0  0  0  0  0  0  0  0  0
    6.4972    0.5755   17.6102 N   0  0  0  0  0  0  0  0  0  0  0  0
    7.5450    0.2460   18.3708 C   0  0  0  0  0  0  0  0  0  0  0  0
   12.4095   -0.3474   23.7323 C   0  0  0  0  0  0  0  0  0  0  0  0
   12.6553   -0.2830   25.0967 C   0  0  0  0  0  0  0  0  0  0  0  0
   13.6073   -1.0994   25.6843 C   0  0  0  0  0  0  0  0  0  0  0  0
   14.3257   -1.9897   24.9153 C   0  0  0  0  0  0  0  0  0  0  0  0
   14.0930   -2.0639   23.5587 C   0  0  0  0  0  0  0  0  0  0  0  0
   13.1411   -1.2478   22.9704 C   0  0  0  0  0  0  0  0  0  0  0  0
  1  2  1  0
  2  3  2  0
  2  4  2  0
  2  5  1  0
  5  6  1  0
  6  7  1  0
  7  8  1  0
  8  9  1  0
  9 10  2  0
  9 11  1  0
 11 12  1  0
 12 13  2  0
 13 14  1  0
 14 15  2  0
 15 16  1  0
 16 17  2  0
  7 18  1  0
 18 19  2  0
 19 20  1  0
 20 21  2  0
 21 22  1  0
 22 23  2  0
 17 12  1  0
 23 18  1  0
M  END
