CVD-0001086|dock_bobby27042020.96|mol2|27|dock1
     RDKit          3D

 22 23  0  0  0  0  0  0  0  0999 V2000
    1.7944    4.3517   18.4971 C   0  0  0  0  0  0  0  0  0  0  0  0
    2.5139    3.2736   19.2221 C   0  0  0  0  0  0  0  0  0  0  0  0
    3.3451    2.5971   18.2731 O   0  0  0  0  0  0  0  0  0  0  0  0
    4.4276    1.8618   18.6897 C   0  0  0  0  0  0  0  0  0  0  0  0
    4.4547    1.2328   19.9258 C   0  0  0  0  0  0  0  0  0  0  0  0
    5.5702    0.5034   20.2983 C   0  0  0  0  0  0  0  0  0  0  0  0
    6.6755    0.3812   19.4618 C   0  0  0  0  0  0  0  0  0  0  0  0
    7.8532   -0.3949   19.8669 C   0  0  0  0  0  0  0  0  0  0  0  0
    8.3261   -0.5426   21.1013 C   0  0  0  0  0  0  0  0  0  0  0  0
    9.5193   -1.3480   21.4266 C   0  0  0  0  0  0  0  0  0  0  0  0
    9.4869   -2.5630   21.2024 O   0  0  0  0  0  0  0  0  0  0  0  0
   10.7804   -0.7947   21.9877 C   0  0  0  0  0  0  0  0  0  0  0  0
   11.7293   -1.6961   22.4728 C   0  0  0  0  0  0  0  0  0  0  0  0
   12.9537   -1.2534   22.9273 C   0  0  0  0  0  0  0  0  0  0  0  0
   14.1132   -2.4117   23.5159 Cl  0  0  0  0  0  0  0  0  0  0  0  0
   13.2808    0.0849   22.9233 C   0  0  0  0  0  0  0  0  0  0  0  0
   12.3294    0.9957   22.4916 C   0  0  0  0  0  0  0  0  0  0  0  0
   12.8095    3.0369   22.4946 I   0  0  0  0  0  0  0  0  0  0  0  0
   11.0621    0.5927   22.0610 C   0  0  0  0  0  0  0  0  0  0  0  0
   10.1580    1.5670   21.7507 O   0  0  0  0  0  0  0  0  0  0  0  0
    6.6240    1.0211   18.2275 C   0  0  0  0  0  0  0  0  0  0  0  0
    5.5158    1.7536   17.8417 C   0  0  0  0  0  0  0  0  0  0  0  0
  1  2  1  0
  2  3  1  0
  3  4  1  0
  4  5  2  0
  5  6  1  0
  6  7  2  0
  7  8  1  0
  8  9  2  0
  9 10  1  0
 10 11  2  0
 10 12  1  0
 12 13  2  0
 13 14  1  0
 14 15  1  0
 14 16  2  0
 16 17  1  0
 17 18  1  0
 17 19  2  0
 19 20  1  0
  7 21  1  0
 21 22  2  0
 22  4  1  0
 19 12  1  0
M  END
