CVD-0001474|dock_bobby27042020.9|mol2|34|dock1
     RDKit          3D

 32 34  0  0  0  0  0  0  0  0999 V2000
    4.4738   -6.2368   21.5783 F   0  0  0  0  0  0  0  0  0  0  0  0
    5.3660   -5.7476   22.4695 C   0  0  0  0  0  0  0  0  0  0  0  0
    5.1869   -6.0803   23.7912 C   0  0  0  0  0  0  0  0  0  0  0  0
    6.0854   -5.5994   24.7296 C   0  0  0  0  0  0  0  0  0  0  0  0
    7.1496   -4.7990   24.3472 C   0  0  0  0  0  0  0  0  0  0  0  0
    7.3263   -4.4684   23.0093 C   0  0  0  0  0  0  0  0  0  0  0  0
    8.3473   -3.6833   22.5325 O   0  0  0  0  0  0  0  0  0  0  0  0
    9.4593   -3.3214   23.3686 C   0  0  0  0  0  0  0  0  0  0  0  0
   10.4948   -2.5386   22.5916 C   0  0  0  0  0  0  0  0  0  0  0  0
   10.4117   -1.0265   22.6774 C   0  0  0  0  0  0  0  0  0  0  0  0
   11.3246   -0.4013   21.7345 N   0  0  0  0  0  0  0  0  0  0  0  0
   11.9358    0.7969   21.9449 C   0  0  0  0  0  0  0  0  0  0  0  0
   11.2291    1.9958   21.8543 C   0  0  0  0  0  0  0  0  0  0  0  0
   11.9081    3.1796   22.0792 C   0  0  0  0  0  0  0  0  0  0  0  0
   13.2633    3.1501   22.3872 C   0  0  0  0  0  0  0  0  0  0  0  0
   13.8802    1.9046   22.4549 C   0  0  0  0  0  0  0  0  0  0  0  0
   13.2387    0.7505   22.2403 N   0  0  0  0  0  0  0  0  0  0  0  0
   14.0025    4.3649   22.6276 C   0  0  0  0  0  0  0  0  0  0  0  0
   14.6014    5.3129   22.8451 N   0  0  0  0  0  0  0  0  0  0  0  0
    6.4191   -4.9392   22.0360 C   0  0  0  0  0  0  0  0  0  0  0  0
    6.6919   -4.4656   20.3255 S   0  0  0  0  0  0  0  0  0  0  0  0
    6.0038   -5.3578   19.4451 O   0  0  0  0  0  0  0  0  0  0  0  0
    8.0880   -4.2139   20.1460 O   0  0  0  0  0  0  0  0  0  0  0  0
    5.9365   -3.0266   20.2045 N   0  0  0  0  0  0  0  0  0  0  0  0
    6.5753   -1.8130   20.7663 C   0  0  0  0  0  0  0  0  0  0  0  0
    6.1480   -1.0906   19.4867 C   0  0  0  0  0  0  0  0  0  0  0  0
    5.7175   -2.4229   18.8689 C   0  0  0  0  0  0  0  0  0  0  0  0
    5.0196   -0.1856   19.7059 N   0  0  0  0  0  0  0  0  0  0  0  0
    4.6905    0.7799   18.8391 C   0  0  0  0  0  0  0  0  0  0  0  0
    5.3214    0.9723   17.7901 O   0  0  0  0  0  0  0  0  0  0  0  0
    3.5199    1.6015   19.2222 C   0  0  0  0  0  0  0  0  0  0  0  0
    3.2321    2.7274   18.6249 C   0  0  0  0  0  0  0  0  0  0  0  0
  1  2  1  0
  2  3  2  0
  3  4  1  0
  4  5  2  0
  5  6  1  0
  6  7  1  0
  7  8  1  0
  8  9  1  0
  9 10  1  0
 10 11  1  0
 11 12  1  0
 12 13  2  0
 13 14  1  0
 14 15  2  0
 15 16  1  0
 16 17  2  0
 15 18  1  0
 18 19  3  0
  6 20  2  0
 20 21  1  0
 21 22  2  0
 21 23  2  0
 21 24  1  0
 24 25  1  0
 25 26  1  0
 26 27  1  0
 26 28  1  0
 28 29  1  0
 29 30  2  0
 29 31  1  0
 31 32  2  0
 20  2  1  0
 27 24  1  0
 17 12  1  0
M  END
