CVD-0001611|dock_bobby27042020.94|mol2|39|dock1
     RDKit          3D

 15 16  0  0  0  0  0  0  0  0999 V2000
   13.9878    6.3007   22.1127 Br  0  0  0  0  0  0  0  0  0  0  0  0
   12.6165    5.0739   22.4559 C   0  0  0  0  0  0  0  0  0  0  0  0
   11.3783    5.3453   22.9089 C   0  0  0  0  0  0  0  0  0  0  0  0
   10.6123    4.1907   23.0519 C   0  0  0  0  0  0  0  0  0  0  0  0
   11.2758    3.0350   22.7048 C   0  0  0  0  0  0  0  0  0  0  0  0
   10.7576    1.6274   22.7357 C   0  0  0  0  0  0  0  0  0  0  0  0
   11.8243    0.6237   22.7295 N   0  0  0  0  0  0  0  0  0  0  0  0
   12.4589    0.5439   24.0383 C   0  0  0  0  0  0  0  0  0  0  0  0
   13.6044   -0.4502   24.0357 C   0  0  0  0  0  0  0  0  0  0  0  0
   13.1391   -1.7592   23.5938 N   0  0  0  0  0  0  0  0  0  0  0  0
   12.4555   -1.6912   22.3030 C   0  0  0  0  0  0  0  0  0  0  0  0
   11.3192   -0.6901   22.3581 C   0  0  0  0  0  0  0  0  0  0  0  0
   14.0071   -2.7578   23.5753 C   0  0  0  0  0  0  0  0  0  0  0  0
   14.7824   -3.6013   23.5308 N   0  0  0  0  0  0  0  0  0  0  0  0
   12.8841    3.4006   22.1903 S   0  0  0  0  0  0  0  0  0  0  0  0
  1  2  1  0
  2  3  2  0
  3  4  1  0
  4  5  2  0
  5  6  1  0
  6  7  1  0
  7  8  1  0
  8  9  1  0
  9 10  1  0
 10 11  1  0
 11 12  1  0
 10 13  1  0
 13 14  3  0
  5 15  1  0
 15  2  1  0
 12  7  1  0
M  END
