CVD-0001720|dock_bobby27042020.23|mol2|6|dock1
     RDKit          3D

 27 29  0  0  0  0  0  0  0  0999 V2000
    2.8573    3.2628   19.3737 C   0  0  0  0  0  0  0  0  0  0  0  0
    3.7575    2.1189   19.7375 C   0  0  0  0  0  0  0  0  0  0  0  0
    3.3719    1.1855   20.4344 O   0  0  0  0  0  0  0  0  0  0  0  0
    4.9970    2.1672   19.2454 N   0  0  0  0  0  0  0  0  0  0  0  0
    5.9818    1.1243   19.4947 C   0  0  0  0  0  0  0  0  0  0  0  0
    5.6574   -0.1594   18.7492 C   0  0  0  0  0  0  0  0  0  0  0  0
    6.6780   -1.2760   18.9889 C   0  0  0  0  0  0  0  0  0  0  0  0
    8.1599   -1.1706   18.6187 C   0  0  0  0  0  0  0  0  0  0  0  0
    8.9561   -1.4712   19.5985 N   0  0  0  0  0  0  0  0  0  0  0  0
    8.1728   -1.7279   20.7411 C   0  0  0  0  0  0  0  0  0  0  0  0
    6.8127   -1.7508   20.4209 C   0  0  0  0  0  0  0  0  0  0  0  0
    5.8904   -2.1416   21.3871 C   0  0  0  0  0  0  0  0  0  0  0  0
    6.3611   -2.4920   22.6289 C   0  0  0  0  0  0  0  0  0  0  0  0
    5.4569   -2.8191   23.5915 F   0  0  0  0  0  0  0  0  0  0  0  0
    7.6930   -2.4770   22.9658 C   0  0  0  0  0  0  0  0  0  0  0  0
    8.6300   -2.0894   22.0137 C   0  0  0  0  0  0  0  0  0  0  0  0
   10.1055   -2.1261   22.3345 C   0  0  0  0  0  0  0  0  0  0  0  0
   10.5773   -0.9102   23.0128 N   0  0  0  0  0  0  0  0  0  0  0  0
   10.1203    0.2854   22.2985 C   0  0  0  0  0  0  0  0  0  0  0  0
   10.5750    1.5373   23.0254 C   0  0  0  0  0  0  0  0  0  0  0  0
   12.0337    1.5522   23.1553 N   0  0  0  0  0  0  0  0  0  0  0  0
   12.5282    0.3390   23.8136 C   0  0  0  0  0  0  0  0  0  0  0  0
   12.0362   -0.8961   23.0813 C   0  0  0  0  0  0  0  0  0  0  0  0
   12.7978    2.5880   22.7351 C   0  0  0  0  0  0  0  0  0  0  0  0
   14.0168    2.5705   22.8518 O   0  0  0  0  0  0  0  0  0  0  0  0
   12.1120    3.7832   22.1010 C   0  0  0  0  0  0  0  0  0  0  0  0
   13.2894    5.0406   21.7018 Cl  0  0  0  0  0  0  0  0  0  0  0  0
  1  2  1  0
  2  3  2  0
  2  4  1  0
  4  5  1  0
  5  6  1  0
  6  7  1  0
  7  8  1  0
  8  9  2  0
  9 10  1  0
 10 11  2  0
 11 12  1  0
 12 13  2  0
 13 14  1  0
 13 15  1  0
 15 16  2  0
 16 17  1  0
 17 18  1  0
 18 19  1  0
 19 20  1  0
 20 21  1  0
 21 22  1  0
 22 23  1  0
 21 24  1  0
 24 25  2  0
 24 26  1  0
 26 27  1  0
 11  7  1  0
 23 18  1  0
 16 10  1  0
M  END
