CVD-0002284|dock_bobby27042020.92|mol2|9|dock2
     RDKit          3D

 40 43  0  0  0  0  0  0  0  0999 V2000
    6.4168   -6.2394   21.6563 C   0  0  0  0  0  0  0  0  0  0  0  0
    6.4921   -5.4370   22.8799 N   0  0  0  0  0  0  0  0  0  0  0  0
    7.8405   -4.9677   23.2163 C   0  0  0  0  0  0  0  0  0  0  0  0
    8.1366   -3.6296   22.5914 C   0  0  0  0  0  0  0  0  0  0  0  0
    7.2739   -2.9246   21.7341 C   0  0  0  0  0  0  0  0  0  0  0  0
    7.8623   -1.7364   21.3442 C   0  0  0  0  0  0  0  0  0  0  0  0
    7.2448   -0.7414   20.4353 C   0  0  0  0  0  0  0  0  0  0  0  0
    7.9900   -0.3277   19.3298 C   0  0  0  0  0  0  0  0  0  0  0  0
    7.4665    0.5728   18.4170 C   0  0  0  0  0  0  0  0  0  0  0  0
    6.1982    1.0822   18.5880 C   0  0  0  0  0  0  0  0  0  0  0  0
    5.4475    0.7142   19.6904 C   0  0  0  0  0  0  0  0  0  0  0  0
    5.9940   -0.1655   20.5942 C   0  0  0  0  0  0  0  0  0  0  0  0
    5.2665   -0.4612   21.6926 F   0  0  0  0  0  0  0  0  0  0  0  0
    9.1271   -1.6917   21.9981 N   0  0  0  0  0  0  0  0  0  0  0  0
    9.2741   -2.8520   22.7488 C   0  0  0  0  0  0  0  0  0  0  0  0
   10.3023   -0.5310   22.0104 S   0  0  0  0  0  0  0  0  0  0  0  0
   10.9928   -0.6686   20.7484 O   0  0  0  0  0  0  0  0  0  0  0  0
    9.7387    0.9964   22.3223 C   0  0  0  0  0  0  0  0  0  0  0  0
   10.2471    2.2107   22.4878 N   0  0  0  0  0  0  0  0  0  0  0  0
   11.7161    2.4982   22.4409 C   0  0  0  0  0  0  0  0  0  0  0  0
   12.0494    3.5360   21.3784 C   0  0  0  0  0  0  0  0  0  0  0  0
   12.3303    2.8482   23.7846 C   0  0  0  0  0  0  0  0  0  0  0  0
    9.3842    3.2770   22.7236 C   0  0  0  0  0  0  0  0  0  0  0  0
    9.8140    4.3958   22.9345 O   0  0  0  0  0  0  0  0  0  0  0  0
    7.8713    3.1411   22.7547 C   0  0  0  0  0  0  0  0  0  0  0  0
    7.1990    4.4917   22.5415 C   0  0  0  0  0  0  0  0  0  0  0  0
    5.6921    4.3535   22.6127 C   0  0  0  0  0  0  0  0  0  0  0  0
    5.3041    3.7796   23.8985 N   0  0  0  0  0  0  0  0  0  0  0  0
    5.8822    2.4593   24.1240 C   0  0  0  0  0  0  0  0  0  0  0  0
    7.4044    2.5419   24.0794 C   0  0  0  0  0  0  0  0  0  0  0  0
    4.3088    4.2302   24.6952 C   0  0  0  0  0  0  0  0  0  0  0  0
    4.0682    3.6895   25.7672 O   0  0  0  0  0  0  0  0  0  0  0  0
    3.4876    5.4175   24.2300 C   0  0  0  0  0  0  0  0  0  0  0  0
    2.6841    5.1220   22.6826 Cl  0  0  0  0  0  0  0  0  0  0  0  0
   11.3893   -1.0322   23.3225 C   0  0  0  0  0  0  0  0  0  0  0  0
   12.4965   -1.8081   23.0233 C   0  0  0  0  0  0  0  0  0  0  0  0
   13.3275   -2.2058   24.0563 C   0  0  0  0  0  0  0  0  0  0  0  0
   13.0201   -1.8180   25.3405 C   0  0  0  0  0  0  0  0  0  0  0  0
   11.9568   -1.0739   25.6465 N   0  0  0  0  0  0  0  0  0  0  0  0
   11.1610   -0.6912   24.6437 C   0  0  0  0  0  0  0  0  0  0  0  0
  1  2  1  0
  2  3  1  0
  3  4  1  0
  4  5  1  0
  5  6  2  0
  6  7  1  0
  7  8  2  0
  8  9  1  0
  9 10  2  0
 10 11  1  0
 11 12  2  0
 12 13  1  0
  6 14  1  0
 14 15  1  0
 14 16  1  0
 16 17  2  0
 16 18  2  0
 18 19  1  0
 19 20  1  0
 20 21  1  0
 20 22  1  0
 19 23  1  0
 23 24  2  0
 23 25  1  0
 25 26  1  0
 26 27  1  0
 27 28  1  0
 28 29  1  0
 29 30  1  0
 28 31  1  0
 31 32  2  0
 31 33  1  0
 33 34  1  0
 16 35  1  0
 35 36  2  0
 36 37  1  0
 37 38  2  0
 38 39  1  0
 39 40  2  0
 15  4  2  0
 30 25  1  0
 40 35  1  0
 12  7  1  0
M  END
