CVD-0000727|dock_bobby27042020.55|mol2|8|dock3
     RDKit          3D

 27 29  0  0  0  0  0  0  0  0999 V2000
   14.2794    4.9069   22.5037 C   0  0  0  0  0  0  0  0  0  0  0  0
   12.8484    5.2753   22.8543 C   0  0  0  0  0  0  0  0  0  0  0  0
   12.8340    6.4832   23.7749 C   0  0  0  0  0  0  0  0  0  0  0  0
   12.1436    4.1005   23.5096 C   0  0  0  0  0  0  0  0  0  0  0  0
   11.9620    2.8909   22.6082 C   0  0  0  0  0  0  0  0  0  0  0  0
   10.8465    2.0555   23.0292 N   0  0  0  0  0  0  0  0  0  0  0  0
    9.9805    1.5258   22.1656 C   0  0  0  0  0  0  0  0  0  0  0  0
   10.0704    1.7106   20.9547 O   0  0  0  0  0  0  0  0  0  0  0  0
    8.8822    0.6789   22.7835 C   0  0  0  0  0  0  0  0  0  0  0  0
    7.7153    0.6005   21.8259 C   0  0  0  0  0  0  0  0  0  0  0  0
    7.4370   -0.8782   21.6998 C   0  0  0  0  0  0  0  0  0  0  0  0
    6.3717   -1.4234   20.7784 C   0  0  0  0  0  0  0  0  0  0  0  0
    6.0202   -0.4882   19.6434 C   0  0  0  0  0  0  0  0  0  0  0  0
    4.9979    0.4385   19.7621 C   0  0  0  0  0  0  0  0  0  0  0  0
    4.7058    1.2810   18.7040 C   0  0  0  0  0  0  0  0  0  0  0  0
    5.4519    1.1692   17.5529 C   0  0  0  0  0  0  0  0  0  0  0  0
    6.4429    0.2881   17.4086 N   0  0  0  0  0  0  0  0  0  0  0  0
    6.7067   -0.5148   18.4440 C   0  0  0  0  0  0  0  0  0  0  0  0
    8.2445   -1.5999   22.4860 C   0  0  0  0  0  0  0  0  0  0  0  0
    9.2434   -0.7265   23.2067 C   0  0  0  0  0  0  0  0  0  0  0  0
   10.6795   -1.1002   22.8727 C   0  0  0  0  0  0  0  0  0  0  0  0
   11.0494   -1.4004   21.5692 C   0  0  0  0  0  0  0  0  0  0  0  0
   12.3574   -1.7379   21.2645 C   0  0  0  0  0  0  0  0  0  0  0  0
   13.3166   -1.7789   22.2622 C   0  0  0  0  0  0  0  0  0  0  0  0
   12.9428   -1.4787   23.5536 C   0  0  0  0  0  0  0  0  0  0  0  0
   14.1385   -1.5257   24.8189 Cl  0  0  0  0  0  0  0  0  0  0  0  0
   11.6427   -1.1410   23.8700 C   0  0  0  0  0  0  0  0  0  0  0  0
  1  2  1  0
  2  3  1  0
  2  4  1  0
  4  5  1  0
  5  6  1  0
  6  7  1  0
  7  8  2  0
  9  7  1  0
  9 10  1  0
 10 11  1  0
 11 12  1  0
 12 13  1  0
 13 14  2  0
 14 15  1  0
 15 16  2  0
 16 17  1  0
 17 18  2  0
 11 19  2  0
 19 20  1  0
 20 21  1  0
 21 22  2  0
 22 23  1  0
 23 24  2  0
 24 25  1  0
 25 26  1  0
 25 27  2  0
 20  9  1  0
 27 21  1  0
 18 13  1  0
M  END
