CVD-0003352|dock_bobby27042020.74|mol2|12|dock2
     RDKit          3D

 23 24  0  0  0  0  0  0  0  0999 V2000
   13.5152    4.5768   21.9661 C   0  0  0  0  0  0  0  0  0  0  0  0
   12.4754    3.5994   22.4574 C   0  0  0  0  0  0  0  0  0  0  0  0
   12.8117    2.2934   22.7729 C   0  0  0  0  0  0  0  0  0  0  0  0
   11.8588    1.3914   23.2115 C   0  0  0  0  0  0  0  0  0  0  0  0
   10.5253    1.7628   23.3466 C   0  0  0  0  0  0  0  0  0  0  0  0
   10.1929    3.0818   23.0491 C   0  0  0  0  0  0  0  0  0  0  0  0
   11.1506    3.9757   22.6041 C   0  0  0  0  0  0  0  0  0  0  0  0
    9.5443    0.7292   23.8254 C   0  0  0  0  0  0  0  0  0  0  0  0
    9.7592    0.2881   24.9414 O   0  0  0  0  0  0  0  0  0  0  0  0
    8.4797    0.2771   23.1169 N   0  0  0  0  0  0  0  0  0  0  0  0
    8.0687    0.7606   21.7981 C   0  0  0  0  0  0  0  0  0  0  0  0
    7.9930   -0.3881   20.8106 C   0  0  0  0  0  0  0  0  0  0  0  0
    7.1256   -1.4544   21.3204 N   0  0  0  0  0  0  0  0  0  0  0  0
    7.5366   -1.9379   22.6393 C   0  0  0  0  0  0  0  0  0  0  0  0
    8.8881   -2.6488   22.5683 C   0  0  0  0  0  0  0  0  0  0  0  0
    9.0538   -3.6850   23.6284 C   0  0  0  0  0  0  0  0  0  0  0  0
    8.4474   -4.7775   23.5097 N   0  0  0  0  0  0  0  0  0  0  0  0
    9.8462   -3.3732   24.6304 N   0  0  0  0  0  0  0  0  0  0  0  0
    7.6123   -0.7891   23.6267 C   0  0  0  0  0  0  0  0  0  0  0  0
    6.0545   -1.9922   20.6852 C   0  0  0  0  0  0  0  0  0  0  0  0
    5.3938   -2.8961   21.1819 O   0  0  0  0  0  0  0  0  0  0  0  0
    5.6718   -1.4430   19.3241 C   0  0  0  0  0  0  0  0  0  0  0  0
    5.0541    0.2093   19.4486 Cl  0  0  0  0  0  0  0  0  0  0  0  0
  1  2  1  0
  2  3  2  0
  3  4  1  0
  4  5  2  0
  5  6  1  0
  6  7  2  0
  5  8  1  0
  8  9  2  0
  8 10  1  0
 10 11  1  0
 11 12  1  0
 12 13  1  0
 13 14  1  0
 14 15  1  0
 15 16  1  0
 16 17  1  0
 16 18  2  0
 14 19  1  0
 13 20  1  0
 20 21  2  0
 20 22  1  0
 22 23  1  0
  7  2  1  0
 19 10  1  0
M  END
