CVD-0000667|dock_bobby27042020.55|mol2|17|dock3
     RDKit          3D

 26 28  0  0  0  0  0  0  0  0999 V2000
    4.9048    0.2650   18.4263 C   0  0  0  0  0  0  0  0  0  0  0  0
    5.8060   -1.2142   18.6845 S   0  0  0  0  0  0  0  0  0  0  0  0
    6.9617   -1.1828   17.8423 O   0  0  0  0  0  0  0  0  0  0  0  0
    4.8996   -2.3137   18.5597 O   0  0  0  0  0  0  0  0  0  0  0  0
    6.3290   -1.2065   20.2001 N   0  0  0  0  0  0  0  0  0  0  0  0
    7.3421   -0.2316   20.6193 C   0  0  0  0  0  0  0  0  0  0  0  0
    8.5808   -0.8701   21.2638 C   0  0  0  0  0  0  0  0  0  0  0  0
    9.6531    0.2068   21.4379 C   0  0  0  0  0  0  0  0  0  0  0  0
    9.4786    1.2660   20.8661 O   0  0  0  0  0  0  0  0  0  0  0  0
   10.7875    0.0845   22.1985 N   0  0  0  0  0  0  0  0  0  0  0  0
   11.0833   -1.2566   22.7563 C   0  0  0  0  0  0  0  0  0  0  0  0
   12.5649   -1.4370   23.0800 C   0  0  0  0  0  0  0  0  0  0  0  0
   13.4603   -0.5972   22.1662 C   0  0  0  0  0  0  0  0  0  0  0  0
   13.0794    0.8421   22.3495 C   0  0  0  0  0  0  0  0  0  0  0  0
   14.0034    1.8568   22.5679 C   0  0  0  0  0  0  0  0  0  0  0  0
   13.5412    3.1191   22.8653 C   0  0  0  0  0  0  0  0  0  0  0  0
   12.2485    3.4210   22.9551 N   0  0  0  0  0  0  0  0  0  0  0  0
   11.3530    2.4469   22.7456 C   0  0  0  0  0  0  0  0  0  0  0  0
   11.7097    1.1382   22.4391 C   0  0  0  0  0  0  0  0  0  0  0  0
    8.2121   -1.4866   22.6047 C   0  0  0  0  0  0  0  0  0  0  0  0
    8.1257   -2.8636   22.7545 C   0  0  0  0  0  0  0  0  0  0  0  0
    7.7938   -3.4319   23.9715 C   0  0  0  0  0  0  0  0  0  0  0  0
    7.5470   -2.6101   25.0492 C   0  0  0  0  0  0  0  0  0  0  0  0
    7.1282   -3.3161   26.5851 Cl  0  0  0  0  0  0  0  0  0  0  0  0
    7.6259   -1.2397   24.9333 C   0  0  0  0  0  0  0  0  0  0  0  0
    7.9588   -0.6862   23.7098 C   0  0  0  0  0  0  0  0  0  0  0  0
  1  2  1  0
  2  3  2  0
  2  4  2  0
  2  5  1  0
  5  6  1  0
  7  6  1  0
  7  8  1  0
  8  9  2  0
  8 10  1  0
 10 11  1  0
 11 12  1  0
 12 13  1  0
 13 14  1  0
 14 15  2  0
 15 16  1  0
 16 17  2  0
 17 18  1  0
 18 19  2  0
  7 20  1  0
 20 21  2  0
 21 22  1  0
 22 23  2  0
 23 24  1  0
 23 25  1  0
 25 26  2  0
 19 10  1  0
 26 20  1  0
 19 14  1  0
M  END
