CVD-0004017|dock_bobby27042020.58|mol2|1|dock3
     RDKit          3D

 45 48  0  0  0  0  0  0  0  0999 V2000
    5.9161    0.5732   18.4060 C   0  0  0  0  0  0  0  0  0  0  0  0
    6.4714   -0.7638   18.8648 C   0  0  0  0  0  0  0  0  0  0  0  0
    6.1013   -1.8519   17.8718 C   0  0  0  0  0  0  0  0  0  0  0  0
    5.9347   -1.1101   20.2502 C   0  0  0  0  0  0  0  0  0  0  0  0
    6.7450   -2.1568   21.0160 C   0  0  0  0  0  0  0  0  0  0  0  0
    5.8490   -3.0632   21.7154 N   0  0  0  0  0  0  0  0  0  0  0  0
    6.0431   -4.3992   21.6652 C   0  0  0  0  0  0  0  0  0  0  0  0
    6.9262   -4.9074   20.9794 O   0  0  0  0  0  0  0  0  0  0  0  0
    5.2036   -5.1379   22.4175 N   0  0  0  0  0  0  0  0  0  0  0  0
    5.2972   -6.5897   22.4597 C   0  0  0  0  0  0  0  0  0  0  0  0
    4.2253   -7.2325   23.3064 C   0  0  0  0  0  0  0  0  0  0  0  0
    4.3889   -7.3657   24.6766 C   0  0  0  0  0  0  0  0  0  0  0  0
    3.4073   -7.9582   25.4531 C   0  0  0  0  0  0  0  0  0  0  0  0
    2.2501   -8.4256   24.8681 C   0  0  0  0  0  0  0  0  0  0  0  0
    2.0752   -8.3008   23.5068 C   0  0  0  0  0  0  0  0  0  0  0  0
    3.0573   -7.7081   22.7307 C   0  0  0  0  0  0  0  0  0  0  0  0
    7.6911   -1.4668   21.9944 C   0  0  0  0  0  0  0  0  0  0  0  0
    7.2598   -0.6517   22.8055 O   0  0  0  0  0  0  0  0  0  0  0  0
    8.9827   -1.7987   21.9122 N   0  0  0  0  0  0  0  0  0  0  0  0
    9.9797   -1.2081   22.7910 C   0  0  0  0  0  0  0  0  0  0  0  0
   10.6695   -2.2877   23.6331 C   0  0  0  0  0  0  0  0  0  0  0  0
    9.7661   -3.2906   24.3687 C   0  0  0  0  0  0  0  0  0  0  0  0
    8.8451   -2.6666   25.4362 C   0  0  0  0  0  0  0  0  0  0  0  0
    8.8575   -3.6428   26.6053 C   0  0  0  0  0  0  0  0  0  0  0  0
   10.0475   -4.4349   26.3589 N   0  0  0  0  0  0  0  0  0  0  0  0
   10.5542   -4.3257   25.1283 C   0  0  0  0  0  0  0  0  0  0  0  0
   11.5279   -4.9414   24.7047 O   0  0  0  0  0  0  0  0  0  0  0  0
   10.9569   -0.3924   21.9519 C   0  0  0  0  0  0  0  0  0  0  0  0
   11.9422   -0.9232   21.4726 O   0  0  0  0  0  0  0  0  0  0  0  0
   10.5971    1.0915   21.7717 C   0  0  0  0  0  0  0  0  0  0  0  0
    9.7353    1.2914   20.9234 O   0  0  0  0  0  0  0  0  0  0  0  0
   11.1473    2.1131   22.4613 N   0  0  0  0  0  0  0  0  0  0  0  0
   12.2519    1.8703   23.3746 C   0  0  0  0  0  0  0  0  0  0  0  0
   13.3960    2.7866   23.0740 C   0  0  0  0  0  0  0  0  0  0  0  0
   12.9206    4.1767   23.1170 N   0  0  0  0  0  0  0  0  0  0  0  0
   11.8593    4.4211   22.1290 C   0  0  0  0  0  0  0  0  0  0  0  0
   10.7032    3.5098   22.4174 C   0  0  0  0  0  0  0  0  0  0  0  0
   14.0318    5.3316   23.3526 S   0  0  0  0  0  0  0  0  0  0  0  0
   14.2026    6.0103   22.1063 O   0  0  0  0  0  0  0  0  0  0  0  0
   15.1598    4.7087   23.9710 O   0  0  0  0  0  0  0  0  0  0  0  0
   13.3967    6.4889   24.4867 C   0  0  0  0  0  0  0  0  0  0  0  0
   13.3259    7.8469   24.2806 C   0  0  0  0  0  0  0  0  0  0  0  0
   12.7518    8.4898   25.4036 C   0  0  0  0  0  0  0  0  0  0  0  0
   12.4126    7.6442   26.3911 C   0  0  0  0  0  0  0  0  0  0  0  0
   12.7753    6.0221   26.0031 S   0  0  0  0  0  0  0  0  0  0  0  0
  1  2  1  0
  2  3  1  0
  2  4  1  0
  5  4  1  0
  5  6  1  0
  6  7  1  0
  7  8  2  0
  7  9  1  0
  9 10  1  0
 10 11  1  0
 11 12  2  0
 12 13  1  0
 13 14  2  0
 14 15  1  0
 15 16  2  0
  5 17  1  0
 17 18  2  0
 17 19  1  0
 19 20  1  0
 20 21  1  0
 22 21  1  0
 22 23  1  0
 23 24  1  0
 24 25  1  0
 25 26  1  0
 26 27  2  0
 20 28  1  0
 28 29  2  0
 28 30  1  0
 30 31  2  0
 30 32  1  0
 32 33  1  0
 33 34  1  0
 34 35  1  0
 35 36  1  0
 36 37  1  0
 35 38  1  0
 38 39  2  0
 38 40  2  0
 38 41  1  0
 41 42  2  0
 42 43  1  0
 43 44  2  0
 44 45  1  0
 16 11  1  0
 26 22  1  0
 37 32  1  0
 45 41  1  0
M  END
