CVD-0003452|dock_bobby27042020.45|mol2|18|dock1
     RDKit          3D

 18 19  0  0  0  0  0  0  0  0999 V2000
    4.5818    1.2347   20.2346 N   0  0  0  0  0  0  0  0  0  0  0  0
    5.7132    0.7791   19.5993 C   0  0  0  0  0  0  0  0  0  0  0  0
    5.8614    0.9051   18.2240 C   0  0  0  0  0  0  0  0  0  0  0  0
    6.9399    0.4787   17.5633 N   0  0  0  0  0  0  0  0  0  0  0  0
    7.8698   -0.0760   18.2946 C   0  0  0  0  0  0  0  0  0  0  0  0
    8.9334   -0.4887   17.5885 F   0  0  0  0  0  0  0  0  0  0  0  0
    7.8831   -0.2786   19.6606 C   0  0  0  0  0  0  0  0  0  0  0  0
    8.9855   -0.9031   20.2990 N   0  0  0  0  0  0  0  0  0  0  0  0
    9.3693   -0.8912   21.5988 C   0  0  0  0  0  0  0  0  0  0  0  0
    8.7955   -0.3018   22.5084 O   0  0  0  0  0  0  0  0  0  0  0  0
   10.6245   -1.6926   21.8634 C   0  0  0  0  0  0  0  0  0  0  0  0
   11.2313   -1.4380   23.2467 C   0  0  0  0  0  0  0  0  0  0  0  0
   11.7976   -0.0071   23.3520 C   0  0  0  0  0  0  0  0  0  0  0  0
   12.4749    0.2542   24.6960 C   0  0  0  0  0  0  0  0  0  0  0  0
   13.5454   -0.7889   24.9897 C   0  0  0  0  0  0  0  0  0  0  0  0
   12.9744   -2.1977   24.9158 C   0  0  0  0  0  0  0  0  0  0  0  0
   12.3351   -2.4635   23.5568 C   0  0  0  0  0  0  0  0  0  0  0  0
    6.7427    0.1773   20.3237 C   0  0  0  0  0  0  0  0  0  0  0  0
  1  2  1  0
  2  3  2  0
  3  4  1  0
  4  5  2  0
  5  6  1  0
  5  7  1  0
  7  8  1  0
  8  9  1  0
  9 10  2  0
  9 11  1  0
 11 12  1  0
 12 13  1  0
 13 14  1  0
 14 15  1  0
 15 16  1  0
 16 17  1  0
  7 18  2  0
 18  2  1  0
 17 12  1  0
M  END
