CVD-0000990|dock_bobby27042020.68|mol2|29|dock3
     RDKit          3D

 38 42  0  0  0  0  0  0  0  0999 V2000
   11.2088    6.9842   26.0282 C   0  0  0  0  0  0  0  0  0  0  0  0
   11.3880    6.1378   24.7892 C   0  0  0  0  0  0  0  0  0  0  0  0
   12.7241    5.4187   24.7503 C   0  0  0  0  0  0  0  0  0  0  0  0
   13.0222    4.7691   23.4051 C   0  0  0  0  0  0  0  0  0  0  0  0
   11.9826    3.7633   22.9733 C   0  0  0  0  0  0  0  0  0  0  0  0
   10.7757    4.1736   22.4291 C   0  0  0  0  0  0  0  0  0  0  0  0
    9.8213    3.2522   22.0359 C   0  0  0  0  0  0  0  0  0  0  0  0
   10.0453    1.8919   22.1752 C   0  0  0  0  0  0  0  0  0  0  0  0
    9.0031    0.8861   21.7490 C   0  0  0  0  0  0  0  0  0  0  0  0
    9.0747   -0.3707   22.5070 N   0  0  0  0  0  0  0  0  0  0  0  0
    8.2976   -1.4150   21.8474 C   0  0  0  0  0  0  0  0  0  0  0  0
    8.4470   -2.7409   22.5732 C   0  0  0  0  0  0  0  0  0  0  0  0
    7.9613   -2.5897   24.0128 C   0  0  0  0  0  0  0  0  0  0  0  0
    8.7140   -1.4550   24.6918 C   0  0  0  0  0  0  0  0  0  0  0  0
    8.5580   -0.1866   23.8676 C   0  0  0  0  0  0  0  0  0  0  0  0
    8.0263   -3.8887   24.7890 C   0  0  0  0  0  0  0  0  0  0  0  0
    8.5925   -4.8748   24.3266 O   0  0  0  0  0  0  0  0  0  0  0  0
    7.4104   -3.8239   25.9955 N   0  0  0  0  0  0  0  0  0  0  0  0
    7.2436   -4.7962   27.0133 C   0  0  0  0  0  0  0  0  0  0  0  0
    6.2710   -4.5587   27.9843 C   0  0  0  0  0  0  0  0  0  0  0  0
    6.0402   -5.4555   29.0158 C   0  0  0  0  0  0  0  0  0  0  0  0
    6.7997   -6.6206   29.0807 C   0  0  0  0  0  0  0  0  0  0  0  0
    6.8024   -7.6870   29.9733 N   0  0  0  0  0  0  0  0  0  0  0  0
    7.7294   -8.4870   29.5298 C   0  0  0  0  0  0  0  0  0  0  0  0
    8.3661   -8.0462   28.3931 O   0  0  0  0  0  0  0  0  0  0  0  0
    7.7524   -6.8413   28.1192 C   0  0  0  0  0  0  0  0  0  0  0  0
    8.0028   -5.9647   27.0812 C   0  0  0  0  0  0  0  0  0  0  0  0
    8.1594   -9.7822   30.1004 C   0  0  0  0  0  0  0  0  0  0  0  0
    7.7296  -10.0897   31.3943 C   0  0  0  0  0  0  0  0  0  0  0  0
    8.0747  -11.2737   32.0203 C   0  0  0  0  0  0  0  0  0  0  0  0
    8.8706  -12.1937   31.3577 C   0  0  0  0  0  0  0  0  0  0  0  0
    9.2406  -13.3827   31.9353 O   0  0  0  0  0  0  0  0  0  0  0  0
    9.2375  -13.5260   33.3544 C   0  0  0  0  0  0  0  0  0  0  0  0
    9.3118  -11.9173   30.0754 C   0  0  0  0  0  0  0  0  0  0  0  0
    8.9601  -10.7298   29.4596 C   0  0  0  0  0  0  0  0  0  0  0  0
    9.6378  -10.4895   27.7044 Br  0  0  0  0  0  0  0  0  0  0  0  0
   11.2505    1.4805   22.7216 C   0  0  0  0  0  0  0  0  0  0  0  0
   12.2043    2.4025   23.1146 C   0  0  0  0  0  0  0  0  0  0  0  0
  1  2  1  0
  2  3  1  0
  3  4  1  0
  4  5  1  0
  5  6  2  0
  6  7  1  0
  7  8  2  0
  8  9  1  0
  9 10  1  0
 10 11  1  0
 11 12  1  0
 12 13  1  0
 13 14  1  0
 14 15  1  0
 13 16  1  0
 16 17  2  0
 16 18  1  0
 18 19  1  0
 19 20  2  0
 20 21  1  0
 21 22  2  0
 22 23  1  0
 23 24  2  0
 24 25  1  0
 25 26  1  0
 26 27  2  0
 24 28  1  0
 28 29  2  0
 29 30  1  0
 30 31  2  0
 31 32  1  0
 32 33  1  0
 31 34  1  0
 34 35  2  0
 35 36  1  0
  8 37  1  0
 37 38  2  0
 38  5  1  0
 15 10  1  0
 27 19  1  0
 35 28  1  0
 26 22  1  0
M  END
