CVD-0000123|dock_bobby27042020.85|mol2|26|dock3
     RDKit          3D

 20 21  0  0  0  0  0  0  0  0999 V2000
    8.7266   -3.7185   25.8868 C   0  0  0  0  0  0  0  0  0  0  0  0
    9.0362   -2.4038   25.2042 C   0  0  0  0  0  0  0  0  0  0  0  0
    9.8721   -2.5286   23.9352 C   0  0  0  0  0  0  0  0  0  0  0  0
   10.3600   -1.2314   23.2346 C   0  0  0  0  0  0  0  0  0  0  0  0
    9.1533   -0.3828   22.8061 C   0  0  0  0  0  0  0  0  0  0  0  0
   11.1969   -1.6041   21.9843 C   0  0  0  0  0  0  0  0  0  0  0  0
   12.5086   -2.3197   22.1672 C   0  0  0  0  0  0  0  0  0  0  0  0
   13.0664   -2.6572   21.0296 O   0  0  0  0  0  0  0  0  0  0  0  0
   13.0104   -2.5706   23.2404 O   0  0  0  0  0  0  0  0  0  0  0  0
   11.2271   -0.3717   24.1872 C   0  0  0  0  0  0  0  0  0  0  0  0
   12.1433    0.6507   23.5717 C   0  0  0  0  0  0  0  0  0  0  0  0
   13.4618    0.4823   23.2642 C   0  0  0  0  0  0  0  0  0  0  0  0
   13.9764    1.6254   22.7155 N   0  0  0  0  0  0  0  0  0  0  0  0
   12.9837    2.5718   22.6542 C   0  0  0  0  0  0  0  0  0  0  0  0
   12.9884    3.8818   22.1888 C   0  0  0  0  0  0  0  0  0  0  0  0
   11.8153    4.6144   22.2484 C   0  0  0  0  0  0  0  0  0  0  0  0
   10.6418    4.0765   22.7582 C   0  0  0  0  0  0  0  0  0  0  0  0
    9.3746    4.8950   22.8069 C   0  0  0  0  0  0  0  0  0  0  0  0
   10.6565    2.7672   23.2178 C   0  0  0  0  0  0  0  0  0  0  0  0
   11.8147    1.9930   23.1806 C   0  0  0  0  0  0  0  0  0  0  0  0
  1  2  1  0
  2  3  1  0
  3  4  1  0
  4  5  1  0
  4  6  1  0
  6  7  1  0
  7  8  1  0
  7  9  2  0
  4 10  1  0
 10 11  1  0
 11 12  2  0
 12 13  1  0
 13 14  1  0
 14 15  2  0
 15 16  1  0
 16 17  2  0
 17 18  1  0
 17 19  1  0
 19 20  2  0
 20 11  1  0
 20 14  1  0
M  END
