CVD-0001739|dock_bobby27042020.51|mol2|29|dock3
     RDKit          3D

 30 32  0  0  0  0  0  0  0  0999 V2000
   13.6773   -1.2995   22.9156 C   0  0  0  0  0  0  0  0  0  0  0  0
   13.0508   -2.5167   22.3109 C   0  0  0  0  0  0  0  0  0  0  0  0
   11.6458   -2.2986   22.0105 N   0  0  0  0  0  0  0  0  0  0  0  0
   10.6850   -2.3491   22.9469 C   0  0  0  0  0  0  0  0  0  0  0  0
   10.8585   -3.2568   23.9291 N   0  0  0  0  0  0  0  0  0  0  0  0
    9.9763   -3.2984   24.9326 C   0  0  0  0  0  0  0  0  0  0  0  0
    8.8658   -2.4694   25.0160 C   0  0  0  0  0  0  0  0  0  0  0  0
    8.6528   -1.5584   23.9888 C   0  0  0  0  0  0  0  0  0  0  0  0
    9.5497   -1.5008   22.9266 C   0  0  0  0  0  0  0  0  0  0  0  0
    9.2717   -0.5663   21.8613 N   0  0  0  0  0  0  0  0  0  0  0  0
    8.4065   -1.0330   20.7651 C   0  0  0  0  0  0  0  0  0  0  0  0
    6.9876   -0.5104   20.9191 C   0  0  0  0  0  0  0  0  0  0  0  0
    6.7068    0.6517   20.0655 N   0  0  0  0  0  0  0  0  0  0  0  0
    6.0012    1.7857   20.7003 C   0  0  0  0  0  0  0  0  0  0  0  0
    4.5393    1.4927   21.0033 C   0  0  0  0  0  0  0  0  0  0  0  0
    3.5496    1.8777   19.8883 C   0  0  0  0  0  0  0  0  0  0  0  0
    4.1211    1.6349   18.5984 O   0  0  0  0  0  0  0  0  0  0  0  0
    4.8133    0.4008   18.4409 C   0  0  0  0  0  0  0  0  0  0  0  0
    6.3016    0.5323   18.6569 C   0  0  0  0  0  0  0  0  0  0  0  0
    9.7148    0.7520   21.7422 C   0  0  0  0  0  0  0  0  0  0  0  0
    9.2129    1.4444   20.8661 O   0  0  0  0  0  0  0  0  0  0  0  0
   10.6907    1.2057   22.5953 N   0  0  0  0  0  0  0  0  0  0  0  0
   11.3136    2.4780   22.6763 C   0  0  0  0  0  0  0  0  0  0  0  0
   10.6622    3.6984   22.5172 C   0  0  0  0  0  0  0  0  0  0  0  0
   11.3879    4.8730   22.6164 C   0  0  0  0  0  0  0  0  0  0  0  0
   12.7372    4.8015   22.8737 C   0  0  0  0  0  0  0  0  0  0  0  0
   13.3884    3.6502   23.0346 N   0  0  0  0  0  0  0  0  0  0  0  0
   12.6790    2.5224   22.9352 C   0  0  0  0  0  0  0  0  0  0  0  0
    7.9560   -2.5484   26.1322 C   0  0  0  0  0  0  0  0  0  0  0  0
    7.2461   -2.5811   27.0265 N   0  0  0  0  0  0  0  0  0  0  0  0
  1  2  1  0
  2  3  1  0
  3  4  1  0
  4  5  2  0
  5  6  1  0
  6  7  2  0
  7  8  1  0
  8  9  2  0
  9 10  1  0
 10 11  1  0
 11 12  1  0
 12 13  1  0
 13 14  1  0
 14 15  1  0
 15 16  1  0
 16 17  1  0
 17 18  1  0
 18 19  1  0
 10 20  1  0
 20 21  2  0
 20 22  1  0
 22 23  1  0
 23 24  2  0
 24 25  1  0
 25 26  2  0
 26 27  1  0
 27 28  2  0
  7 29  1  0
 29 30  3  0
  9  4  1  0
 19 13  1  0
 28 23  1  0
M  END
