CVD-0001433|dock_bobby27042020.9|mol2|40|dock2
     RDKit          3D

 19 20  0  0  0  0  0  0  0  0999 V2000
   14.4698   -3.3563   25.9934 O   0  0  0  0  0  0  0  0  0  0  0  0
   14.2926   -2.1620   25.3550 B   0  0  0  0  0  0  0  0  0  0  0  0
   13.7408   -1.1603   26.1020 O   0  0  0  0  0  0  0  0  0  0  0  0
   13.9985   -2.1862   23.8045 C   0  0  0  0  0  0  0  0  0  0  0  0
   12.6950   -1.5374   23.5158 N   0  0  0  0  0  0  0  0  0  0  0  0
   12.5389   -1.3103   22.0826 C   0  0  0  0  0  0  0  0  0  0  0  0
   11.2512   -0.5595   21.7908 C   0  0  0  0  0  0  0  0  0  0  0  0
   10.0629   -1.3711   22.3009 C   0  0  0  0  0  0  0  0  0  0  0  0
   10.2475   -1.6769   23.7798 C   0  0  0  0  0  0  0  0  0  0  0  0
   11.5841   -2.3730   23.9845 C   0  0  0  0  0  0  0  0  0  0  0  0
    8.7334   -0.7121   21.9959 C   0  0  0  0  0  0  0  0  0  0  0  0
    8.0205   -0.2727   22.8934 O   0  0  0  0  0  0  0  0  0  0  0  0
    8.4487   -0.6722   20.6705 N   0  0  0  0  0  0  0  0  0  0  0  0
    7.3320   -0.1538   19.9683 C   0  0  0  0  0  0  0  0  0  0  0  0
    7.4057    0.3346   18.6656 C   0  0  0  0  0  0  0  0  0  0  0  0
    6.2710    0.8266   18.0416 C   0  0  0  0  0  0  0  0  0  0  0  0
    5.0602    0.8391   18.6985 C   0  0  0  0  0  0  0  0  0  0  0  0
    4.9773    0.3583   19.9864 C   0  0  0  0  0  0  0  0  0  0  0  0
    6.1043   -0.1360   20.6206 C   0  0  0  0  0  0  0  0  0  0  0  0
  1  2  1  0
  2  3  1  0
  2  4  1  0
  4  5  1  0
  5  6  1  0
  6  7  1  0
  7  8  1  0
  8  9  1  0
  9 10  1  0
  8 11  1  0
 11 12  2  0
 11 13  1  0
 13 14  1  0
 14 15  2  0
 15 16  1  0
 16 17  2  0
 17 18  1  0
 18 19  2  0
 10  5  1  0
 19 14  1  0
M  END
