CVD-0001221|dock_bobby27042020.81|mol2|42|dock2
     RDKit          3D

 26 28  0  0  0  0  0  0  0  0999 V2000
   11.1360   -1.6727   21.7042 C   0  0  0  0  0  0  0  0  0  0  0  0
   10.8242   -0.2624   21.8984 N   0  0  0  0  0  0  0  0  0  0  0  0
    9.4440    0.1318   21.6363 C   0  0  0  0  0  0  0  0  0  0  0  0
    8.5232   -0.9362   21.0666 C   0  0  0  0  0  0  0  0  0  0  0  0
    8.1664   -0.8807   19.8948 O   0  0  0  0  0  0  0  0  0  0  0  0
    8.1758   -1.8873   21.9689 N   0  0  0  0  0  0  0  0  0  0  0  0
    7.3428   -3.0319   21.8232 C   0  0  0  0  0  0  0  0  0  0  0  0
    6.3331   -3.1500   20.8677 C   0  0  0  0  0  0  0  0  0  0  0  0
    5.5510   -4.2256   20.7330 N   0  0  0  0  0  0  0  0  0  0  0  0
    5.7520   -5.2438   21.5644 C   0  0  0  0  0  0  0  0  0  0  0  0
    6.7197   -5.2347   22.5437 C   0  0  0  0  0  0  0  0  0  0  0  0
    7.5410   -4.1213   22.6935 C   0  0  0  0  0  0  0  0  0  0  0  0
    8.5882   -4.1416   23.7774 C   0  0  0  0  0  0  0  0  0  0  0  0
   11.7804    0.6424   22.2857 C   0  0  0  0  0  0  0  0  0  0  0  0
   13.1348    0.4350   22.5543 C   0  0  0  0  0  0  0  0  0  0  0  0
   13.7131    1.6246   22.9396 N   0  0  0  0  0  0  0  0  0  0  0  0
   12.7781    2.6331   22.9074 C   0  0  0  0  0  0  0  0  0  0  0  0
   12.9290    3.9858   23.1947 C   0  0  0  0  0  0  0  0  0  0  0  0
   11.8374    4.8263   23.0966 C   0  0  0  0  0  0  0  0  0  0  0  0
   10.6212    4.2997   22.7261 C   0  0  0  0  0  0  0  0  0  0  0  0
    9.2433    5.3579   22.6071 Cl  0  0  0  0  0  0  0  0  0  0  0  0
   10.4574    2.9576   22.4467 C   0  0  0  0  0  0  0  0  0  0  0  0
   11.5447    2.0770   22.5127 C   0  0  0  0  0  0  0  0  0  0  0  0
   14.0519   -0.7269   22.5052 C   0  0  0  0  0  0  0  0  0  0  0  0
   14.4212   -1.2428   23.6717 N   0  0  0  0  0  0  0  0  0  0  0  0
   14.4781   -1.1866   21.4402 O   0  0  0  0  0  0  0  0  0  0  0  0
  1  2  1  0
  2  3  1  0
  3  4  1  0
  4  5  2  0
  4  6  1  0
  6  7  1  0
  7  8  2  0
  8  9  1  0
  9 10  2  0
 10 11  1  0
 11 12  2  0
 12 13  1  0
  2 14  1  0
 14 15  2  0
 15 16  1  0
 16 17  1  0
 17 18  2  0
 18 19  1  0
 19 20  2  0
 20 21  1  0
 20 22  1  0
 22 23  2  0
 15 24  1  0
 24 25  1  0
 24 26  2  0
 12  7  1  0
 23 14  1  0
 23 17  1  0
M  END
