CVD-0000981|dock_bobby27042020.96|mol2|43|dock3
     RDKit          3D

 30 33  0  0  0  0  0  0  0  0999 V2000
   14.3763    6.1519   22.7963 C   0  0  0  0  0  0  0  0  0  0  0  0
   14.5239    4.7635   23.0880 O   0  0  0  0  0  0  0  0  0  0  0  0
   13.5529    3.8703   22.7095 C   0  0  0  0  0  0  0  0  0  0  0  0
   12.2342    4.2515   22.5163 C   0  0  0  0  0  0  0  0  0  0  0  0
   11.2902    3.3138   22.1343 C   0  0  0  0  0  0  0  0  0  0  0  0
   11.6352    1.9789   21.9270 C   0  0  0  0  0  0  0  0  0  0  0  0
   12.9641    1.6200   22.1322 C   0  0  0  0  0  0  0  0  0  0  0  0
   13.9127    2.5494   22.5179 C   0  0  0  0  0  0  0  0  0  0  0  0
   10.6840    0.9262   21.5072 C   0  0  0  0  0  0  0  0  0  0  0  0
    9.7229    1.2282   20.6483 N   0  0  0  0  0  0  0  0  0  0  0  0
    9.0228    0.0453   20.4786 C   0  0  0  0  0  0  0  0  0  0  0  0
    7.9256   -0.3280   19.7306 C   0  0  0  0  0  0  0  0  0  0  0  0
    7.1044    0.8051   18.7053 Cl  0  0  0  0  0  0  0  0  0  0  0  0
    7.4381   -1.5582   19.7492 N   0  0  0  0  0  0  0  0  0  0  0  0
    8.0659   -2.4463   20.5426 C   0  0  0  0  0  0  0  0  0  0  0  0
    7.5341   -3.7274   20.5467 N   0  0  0  0  0  0  0  0  0  0  0  0
    6.5929   -4.3163   19.7718 C   0  0  0  0  0  0  0  0  0  0  0  0
    6.0002   -3.7600   18.8520 O   0  0  0  0  0  0  0  0  0  0  0  0
    6.3051   -5.7586   20.1385 C   0  0  0  0  0  0  0  0  0  0  0  0
    5.7413   -5.8960   21.5346 C   0  0  0  0  0  0  0  0  0  0  0  0
    5.1698   -4.8099   22.1790 C   0  0  0  0  0  0  0  0  0  0  0  0
    4.6487   -4.9283   23.4552 C   0  0  0  0  0  0  0  0  0  0  0  0
    4.7015   -6.1498   24.0895 C   0  0  0  0  0  0  0  0  0  0  0  0
    4.0488   -6.3091   25.6960 Cl  0  0  0  0  0  0  0  0  0  0  0  0
    5.2619   -7.2475   23.4744 C   0  0  0  0  0  0  0  0  0  0  0  0
    5.7786   -7.1127   22.1981 C   0  0  0  0  0  0  0  0  0  0  0  0
    9.1397   -2.2203   21.3196 N   0  0  0  0  0  0  0  0  0  0  0  0
    9.5715   -0.9590   21.2419 C   0  0  0  0  0  0  0  0  0  0  0  0
   10.6411   -0.3993   21.8969 N   0  0  0  0  0  0  0  0  0  0  0  0
   11.4660   -1.1611   22.8301 C   0  0  0  0  0  0  0  0  0  0  0  0
  1  2  1  0
  2  3  1  0
  3  4  2  0
  4  5  1  0
  5  6  2  0
  6  7  1  0
  7  8  2  0
  6  9  1  0
  9 10  2  0
 10 11  1  0
 11 12  2  0
 12 13  1  0
 12 14  1  0
 14 15  2  0
 15 16  1  0
 16 17  1  0
 17 18  2  0
 17 19  1  0
 19 20  1  0
 20 21  2  0
 21 22  1  0
 22 23  2  0
 23 24  1  0
 23 25  1  0
 25 26  2  0
 15 27  1  0
 27 28  2  0
 28 29  1  0
 29 30  1  0
  8  3  1  0
 29  9  1  0
 28 11  1  0
 26 20  1  0
M  END
