CVD-0002250|dock_bobby27042020.6|mol2|30|dock1
     RDKit          3D

 43 48  0  0  0  0  0  0  0  0999 V2000
   10.3693    6.1995   24.1946 F   0  0  0  0  0  0  0  0  0  0  0  0
   11.3114    5.6075   23.4251 C   0  0  0  0  0  0  0  0  0  0  0  0
   12.5806    6.1288   23.5089 C   0  0  0  0  0  0  0  0  0  0  0  0
   13.5809    5.5721   22.7343 C   0  0  0  0  0  0  0  0  0  0  0  0
   13.2960    4.5057   21.9129 C   0  0  0  0  0  0  0  0  0  0  0  0
   12.0151    3.9818   21.8563 C   0  0  0  0  0  0  0  0  0  0  0  0
   10.9717    4.5374   22.6042 C   0  0  0  0  0  0  0  0  0  0  0  0
    9.5895    3.9943   22.5207 C   0  0  0  0  0  0  0  0  0  0  0  0
    9.2023    2.6720   22.6444 C   0  0  0  0  0  0  0  0  0  0  0  0
    7.8084    2.5591   22.4987 C   0  0  0  0  0  0  0  0  0  0  0  0
    7.0289    1.2717   22.5583 C   0  0  0  0  0  0  0  0  0  0  0  0
    7.9099    0.1101   22.6080 N   0  0  0  0  0  0  0  0  0  0  0  0
    8.2953   -0.4633   21.3215 C   0  0  0  0  0  0  0  0  0  0  0  0
    9.2864   -1.5533   21.5621 C   0  0  0  0  0  0  0  0  0  0  0  0
   10.4608   -1.0922   22.4138 C   0  0  0  0  0  0  0  0  0  0  0  0
   11.7458   -1.0540   21.8908 C   0  0  0  0  0  0  0  0  0  0  0  0
   12.8135   -0.6314   22.6651 C   0  0  0  0  0  0  0  0  0  0  0  0
   12.6100   -0.2409   23.9712 C   0  0  0  0  0  0  0  0  0  0  0  0
   11.3389   -0.2723   24.5036 C   0  0  0  0  0  0  0  0  0  0  0  0
   10.2708   -0.6948   23.7300 C   0  0  0  0  0  0  0  0  0  0  0  0
    8.6011   -2.7329   22.2069 C   0  0  0  0  0  0  0  0  0  0  0  0
    9.2423   -3.5421   23.1460 C   0  0  0  0  0  0  0  0  0  0  0  0
    8.6117   -4.6229   23.7373 C   0  0  0  0  0  0  0  0  0  0  0  0
    7.3115   -4.9215   23.3982 C   0  0  0  0  0  0  0  0  0  0  0  0
    6.6528   -4.1360   22.4703 C   0  0  0  0  0  0  0  0  0  0  0  0
    7.2816   -3.0482   21.8727 C   0  0  0  0  0  0  0  0  0  0  0  0
    6.5225   -2.2078   20.8430 C   0  0  0  0  0  0  0  0  0  0  0  0
    7.1734   -0.9349   20.4725 N   0  0  0  0  0  0  0  0  0  0  0  0
    6.8172   -0.1048   19.4571 C   0  0  0  0  0  0  0  0  0  0  0  0
    7.3636    0.9714   19.2494 O   0  0  0  0  0  0  0  0  0  0  0  0
    5.6795   -0.5372   18.5520 C   0  0  0  0  0  0  0  0  0  0  0  0
    5.1985    0.7677   17.4598 Cl  0  0  0  0  0  0  0  0  0  0  0  0
    7.3185    3.8383   22.2832 C   0  0  0  0  0  0  0  0  0  0  0  0
    8.3890    4.7249   22.3020 N   0  0  0  0  0  0  0  0  0  0  0  0
    8.1201    6.3853   22.0834 S   0  0  0  0  0  0  0  0  0  0  0  0
    9.3990    6.9787   21.8452 O   0  0  0  0  0  0  0  0  0  0  0  0
    7.0683    6.5011   21.1213 O   0  0  0  0  0  0  0  0  0  0  0  0
    7.5243    6.9755   23.6303 C   0  0  0  0  0  0  0  0  0  0  0  0
    6.3441    6.4825   24.1601 C   0  0  0  0  0  0  0  0  0  0  0  0
    5.9096    6.9784   25.3771 C   0  0  0  0  0  0  0  0  0  0  0  0
    6.6658    7.9397   26.0089 C   0  0  0  0  0  0  0  0  0  0  0  0
    7.8033    8.4249   25.5094 N   0  0  0  0  0  0  0  0  0  0  0  0
    8.2170    7.9420   24.3341 C   0  0  0  0  0  0  0  0  0  0  0  0
  1  2  1  0
  2  3  2  0
  3  4  1  0
  4  5  2  0
  5  6  1  0
  6  7  2  0
  7  8  1  0
  8  9  2  0
  9 10  1  0
 10 11  1  0
 11 12  1  0
 12 13  1  0
 13 14  1  0
 14 15  1  0
 15 16  2  0
 16 17  1  0
 17 18  2  0
 18 19  1  0
 19 20  2  0
 14 21  1  0
 21 22  2  0
 22 23  1  0
 23 24  2  0
 24 25  1  0
 25 26  2  0
 26 27  1  0
 27 28  1  0
 28 29  1  0
 29 30  2  0
 29 31  1  0
 31 32  1  0
 10 33  2  0
 33 34  1  0
 34 35  1  0
 35 36  2  0
 35 37  2  0
 35 38  1  0
 38 39  2  0
 39 40  1  0
 40 41  2  0
 41 42  1  0
 42 43  2  0
  7  2  1  0
 34  8  1  0
 43 38  1  0
 28 13  1  0
 20 15  1  0
 26 21  1  0
M  END
