CVD-0003177|dock_bobby27042020.88|mol2|42|dock2
     RDKit          3D

 25 27  0  0  0  0  0  0  0  0999 V2000
    5.2726    1.5662   19.0452 F   0  0  0  0  0  0  0  0  0  0  0  0
    5.9902    0.5468   18.5870 C   0  0  0  0  0  0  0  0  0  0  0  0
    5.2377   -0.0444   17.6661 F   0  0  0  0  0  0  0  0  0  0  0  0
    7.0125    1.0855   17.9321 F   0  0  0  0  0  0  0  0  0  0  0  0
    6.4240   -0.3893   19.6692 C   0  0  0  0  0  0  0  0  0  0  0  0
    6.0187   -1.7181   19.6760 C   0  0  0  0  0  0  0  0  0  0  0  0
    6.3839   -2.5519   20.7156 C   0  0  0  0  0  0  0  0  0  0  0  0
    7.1596   -2.0861   21.7716 C   0  0  0  0  0  0  0  0  0  0  0  0
    7.6102   -3.0421   22.8803 C   0  0  0  0  0  0  0  0  0  0  0  0
    8.1392   -2.3992   24.0978 N   0  0  0  0  0  0  0  0  0  0  0  0
    8.0057   -0.9255   24.2098 C   0  0  0  0  0  0  0  0  0  0  0  0
    8.4153   -0.2597   22.9397 C   0  0  0  0  0  0  0  0  0  0  0  0
    9.9235   -0.3478   22.7192 C   0  0  0  0  0  0  0  0  0  0  0  0
   10.4317   -1.2827   21.8172 C   0  0  0  0  0  0  0  0  0  0  0  0
   11.7895   -1.4062   21.5787 C   0  0  0  0  0  0  0  0  0  0  0  0
   12.6803   -0.5920   22.2410 C   0  0  0  0  0  0  0  0  0  0  0  0
   12.2135    0.3471   23.1436 C   0  0  0  0  0  0  0  0  0  0  0  0
   10.8526    0.4629   23.3755 C   0  0  0  0  0  0  0  0  0  0  0  0
   10.3739    1.6701   24.5251 Cl  0  0  0  0  0  0  0  0  0  0  0  0
    7.5789   -0.7620   21.7909 C   0  0  0  0  0  0  0  0  0  0  0  0
    7.1972    0.0589   20.7306 C   0  0  0  0  0  0  0  0  0  0  0  0
    8.8229   -3.0391   25.0849 C   0  0  0  0  0  0  0  0  0  0  0  0
    9.0915   -2.4208   26.1140 O   0  0  0  0  0  0  0  0  0  0  0  0
    9.2973   -4.4575   25.0100 C   0  0  0  0  0  0  0  0  0  0  0  0
    9.8999   -5.1292   25.9598 C   0  0  0  0  0  0  0  0  0  0  0  0
  1  2  1  0
  2  3  1  0
  2  4  1  0
  2  5  1  0
  5  6  2  0
  6  7  1  0
  7  8  2  0
  8  9  1  0
  9 10  1  0
 10 11  1  0
 11 12  1  0
 12 13  1  0
 13 14  2  0
 14 15  1  0
 15 16  2  0
 16 17  1  0
 17 18  2  0
 18 19  1  0
 12 20  1  0
 20 21  2  0
 10 22  1  0
 22 23  2  0
 22 24  1  0
 24 25  2  0
 21  5  1  0
 20  8  1  0
 18 13  1  0
M  END
