CVD-0000288|dock_bobby27042020.99|mol2|10|dock3
     RDKit          3D

 22 24  0  0  0  0  0  0  0  0999 V2000
   10.9644    2.2764   22.2208 O   0  0  0  0  0  0  0  0  0  0  0  0
   12.0671    2.5900   22.6593 C   0  0  0  0  0  0  0  0  0  0  0  0
   12.9458    1.6501   23.0125 N   0  0  0  0  0  0  0  0  0  0  0  0
   12.6334    0.2423   22.8931 C   0  0  0  0  0  0  0  0  0  0  0  0
   13.4438   -0.6067   23.7984 C   0  0  0  0  0  0  0  0  0  0  0  0
   14.1449   -1.7350   23.6257 C   0  0  0  0  0  0  0  0  0  0  0  0
   14.6749   -2.0171   24.8804 C   0  0  0  0  0  0  0  0  0  0  0  0
   14.3442   -1.1505   25.7734 N   0  0  0  0  0  0  0  0  0  0  0  0
   13.5363   -0.2152   25.0868 O   0  0  0  0  0  0  0  0  0  0  0  0
   12.4414    4.0416   22.8041 C   0  0  0  0  0  0  0  0  0  0  0  0
   13.7079    4.3814   22.3170 C   0  0  0  0  0  0  0  0  0  0  0  0
   14.1815    5.6799   22.3845 C   0  0  0  0  0  0  0  0  0  0  0  0
   13.4080    6.6733   22.9371 C   0  0  0  0  0  0  0  0  0  0  0  0
   12.1512    6.3743   23.4282 C   0  0  0  0  0  0  0  0  0  0  0  0
   11.6620    5.0734   23.3690 C   0  0  0  0  0  0  0  0  0  0  0  0
   10.4196    4.7321   23.8433 O   0  0  0  0  0  0  0  0  0  0  0  0
    9.2200    4.8645   23.0401 C   0  0  0  0  0  0  0  0  0  0  0  0
    7.9682    4.4358   23.8330 C   0  0  0  0  0  0  0  0  0  0  0  0
    6.6788    4.6323   23.0379 C   0  0  0  0  0  0  0  0  0  0  0  0
    6.5517    6.0636   22.5323 C   0  0  0  0  0  0  0  0  0  0  0  0
    7.7750    6.4711   21.7238 C   0  0  0  0  0  0  0  0  0  0  0  0
    9.0541    6.3092   22.5385 C   0  0  0  0  0  0  0  0  0  0  0  0
  1  2  2  0
  2  3  1  0
  3  4  1  0
  4  5  1  0
  5  6  2  0
  6  7  1  0
  7  8  2  0
  8  9  1  0
  2 10  1  0
 10 11  2  0
 11 12  1  0
 12 13  2  0
 13 14  1  0
 14 15  2  0
 15 16  1  0
 16 17  1  0
 17 18  1  0
 18 19  1  0
 19 20  1  0
 20 21  1  0
 21 22  1  0
  9  5  1  0
 15 10  1  0
 22 17  1  0
M  END
