CVD-0002050|dock_bobby27042020.79|mol2|5|dock1
     RDKit          3D

 34 37  0  0  0  0  0  0  0  0999 V2000
   14.0451   -1.4307   21.4777 C   0  0  0  0  0  0  0  0  0  0  0  0
   12.6127   -1.1766   21.6527 N   0  0  0  0  0  0  0  0  0  0  0  0
   12.0316   -1.7805   22.8565 C   0  0  0  0  0  0  0  0  0  0  0  0
   10.5368   -1.8756   22.7635 C   0  0  0  0  0  0  0  0  0  0  0  0
    9.8015   -2.9843   23.0536 C   0  0  0  0  0  0  0  0  0  0  0  0
    8.4577   -2.6948   22.8625 N   0  0  0  0  0  0  0  0  0  0  0  0
    8.3424   -1.3630   22.4349 C   0  0  0  0  0  0  0  0  0  0  0  0
    9.6461   -0.8468   22.3776 C   0  0  0  0  0  0  0  0  0  0  0  0
   10.0726    0.5333   21.9668 C   0  0  0  0  0  0  0  0  0  0  0  0
   10.8052    1.2050   23.0229 N   0  0  0  0  0  0  0  0  0  0  0  0
   11.5673    2.3018   22.7640 C   0  0  0  0  0  0  0  0  0  0  0  0
   12.9309    2.1756   22.5045 C   0  0  0  0  0  0  0  0  0  0  0  0
   13.6611    3.3216   22.2470 C   0  0  0  0  0  0  0  0  0  0  0  0
   13.0268    4.5587   22.2525 C   0  0  0  0  0  0  0  0  0  0  0  0
   11.6617    4.5807   22.5223 C   0  0  0  0  0  0  0  0  0  0  0  0
   10.9404    3.4824   22.7734 N   0  0  0  0  0  0  0  0  0  0  0  0
   13.7563    5.7743   21.9883 C   0  0  0  0  0  0  0  0  0  0  0  0
   14.3454    6.7237   21.7506 N   0  0  0  0  0  0  0  0  0  0  0  0
    7.0579   -0.6897   22.1221 C   0  0  0  0  0  0  0  0  0  0  0  0
    6.1509   -0.4004   23.1438 C   0  0  0  0  0  0  0  0  0  0  0  0
    4.9405    0.2139   22.8691 C   0  0  0  0  0  0  0  0  0  0  0  0
    4.6008    0.5408   21.5754 C   0  0  0  0  0  0  0  0  0  0  0  0
    5.4775    0.2674   20.5411 C   0  0  0  0  0  0  0  0  0  0  0  0
    6.6821   -0.3252   20.8372 C   0  0  0  0  0  0  0  0  0  0  0  0
    7.5298   -0.5444   19.8074 F   0  0  0  0  0  0  0  0  0  0  0  0
    7.2726   -3.8728   23.1545 S   0  0  0  0  0  0  0  0  0  0  0  0
    6.0861   -3.1410   23.4730 O   0  0  0  0  0  0  0  0  0  0  0  0
    7.2662   -4.7709   22.0421 O   0  0  0  0  0  0  0  0  0  0  0  0
    7.7773   -4.7274   24.6078 C   0  0  0  0  0  0  0  0  0  0  0  0
    8.5195   -5.8921   24.5129 C   0  0  0  0  0  0  0  0  0  0  0  0
    8.8909   -6.5347   25.6813 C   0  0  0  0  0  0  0  0  0  0  0  0
    8.5071   -5.9917   26.8867 C   0  0  0  0  0  0  0  0  0  0  0  0
    7.7906   -4.8717   26.9929 N   0  0  0  0  0  0  0  0  0  0  0  0
    7.4352   -4.2565   25.8613 C   0  0  0  0  0  0  0  0  0  0  0  0
  1  2  1  0
  2  3  1  0
  3  4  1  0
  4  5  2  0
  5  6  1  0
  6  7  1  0
  7  8  2  0
  8  9  1  0
  9 10  1  0
 10 11  1  0
 11 12  2  0
 12 13  1  0
 13 14  2  0
 14 15  1  0
 15 16  2  0
 14 17  1  0
 17 18  3  0
  7 19  1  0
 19 20  2  0
 20 21  1  0
 21 22  2  0
 22 23  1  0
 23 24  2  0
 24 25  1  0
  6 26  1  0
 26 27  2  0
 26 28  2  0
 26 29  1  0
 29 30  2  0
 30 31  1  0
 31 32  2  0
 32 33  1  0
 33 34  2  0
  8  4  1  0
 16 11  1  0
 24 19  1  0
 34 29  1  0
M  END
