CVD-0001632|dock_bobby27042020.94|mol2|36|dock2
     RDKit          3D

 19 20  0  0  0  0  0  0  0  0999 V2000
    6.7781   -2.0802   21.7800 C   0  0  0  0  0  0  0  0  0  0  0  0
    6.2716   -0.6519   21.9074 C   0  0  0  0  0  0  0  0  0  0  0  0
    7.0529    0.0807   22.9823 C   0  0  0  0  0  0  0  0  0  0  0  0
    8.4585    0.2116   22.5875 N   0  0  0  0  0  0  0  0  0  0  0  0
    9.2422   -1.0056   22.5485 C   0  0  0  0  0  0  0  0  0  0  0  0
   10.6649   -0.7384   22.5289 N   0  0  0  0  0  0  0  0  0  0  0  0
   11.1332    0.0009   23.7210 C   0  0  0  0  0  0  0  0  0  0  0  0
   12.4485    0.7326   23.4986 C   0  0  0  0  0  0  0  0  0  0  0  0
   13.7129   -0.0696   23.8575 C   0  0  0  0  0  0  0  0  0  0  0  0
   13.5470   -1.4517   23.5236 O   0  0  0  0  0  0  0  0  0  0  0  0
   12.9542   -1.7248   22.2582 C   0  0  0  0  0  0  0  0  0  0  0  0
   11.4655   -1.9584   22.3471 C   0  0  0  0  0  0  0  0  0  0  0  0
    8.5346    0.9652   21.3386 C   0  0  0  0  0  0  0  0  0  0  0  0
    7.7724    0.2550   20.2348 C   0  0  0  0  0  0  0  0  0  0  0  0
    6.3743    0.0549   20.6288 N   0  0  0  0  0  0  0  0  0  0  0  0
    5.2336    0.4321   20.0049 C   0  0  0  0  0  0  0  0  0  0  0  0
    4.1329    0.1925   20.4852 O   0  0  0  0  0  0  0  0  0  0  0  0
    5.3615    1.1641   18.6867 C   0  0  0  0  0  0  0  0  0  0  0  0
    4.0893    1.3644   18.1853 F   0  0  0  0  0  0  0  0  0  0  0  0
  1  2  1  0
  2  3  1  0
  3  4  1  0
  4  5  1  0
  5  6  1  0
  6  7  1  0
  7  8  1  0
  8  9  1  0
  9 10  1  0
 10 11  1  0
 11 12  1  0
  4 13  1  0
 13 14  1  0
 14 15  1  0
 15 16  1  0
 16 17  2  0
 16 18  1  0
 18 19  1  0
 15  2  1  0
 12  6  1  0
M  END
