CVD-0002036|dock_bobby27042020.7|mol2|35|dock1
     RDKit          3D

 26 28  0  0  0  0  0  0  0  0999 V2000
    0.9042    2.3849   20.9627 C   0  0  0  0  0  0  0  0  0  0  0  0
    1.5642    2.9509   22.1942 C   0  0  0  0  0  0  0  0  0  0  0  0
    0.7865    3.7077   23.0656 C   0  0  0  0  0  0  0  0  0  0  0  0
    1.3503    4.2335   24.2058 C   0  0  0  0  0  0  0  0  0  0  0  0
    2.6277    4.0577   24.5291 N   0  0  0  0  0  0  0  0  0  0  0  0
    3.3871    3.3403   23.6952 C   0  0  0  0  0  0  0  0  0  0  0  0
    2.9219    2.7523   22.5172 C   0  0  0  0  0  0  0  0  0  0  0  0
    3.7198    1.9746   21.6285 N   0  0  0  0  0  0  0  0  0  0  0  0
    5.0522    2.0476   21.3470 C   0  0  0  0  0  0  0  0  0  0  0  0
    5.8106    2.8607   21.8639 O   0  0  0  0  0  0  0  0  0  0  0  0
    5.6519    1.0862   20.3530 C   0  0  0  0  0  0  0  0  0  0  0  0
    5.0510    0.7342   19.1449 C   0  0  0  0  0  0  0  0  0  0  0  0
    5.6664   -0.1594   18.2857 C   0  0  0  0  0  0  0  0  0  0  0  0
    6.8901   -0.7210   18.6045 C   0  0  0  0  0  0  0  0  0  0  0  0
    7.5127   -0.3854   19.8028 C   0  0  0  0  0  0  0  0  0  0  0  0
    8.7655   -0.9097   20.2113 N   0  0  0  0  0  0  0  0  0  0  0  0
    9.3175   -1.0524   21.4641 C   0  0  0  0  0  0  0  0  0  0  0  0
    8.7662   -0.7207   22.5084 O   0  0  0  0  0  0  0  0  0  0  0  0
   10.5709   -1.6162   21.3961 N   0  0  0  0  0  0  0  0  0  0  0  0
   11.4917   -1.9417   22.4238 C   0  0  0  0  0  0  0  0  0  0  0  0
   12.8753   -1.8608   22.2956 C   0  0  0  0  0  0  0  0  0  0  0  0
   13.6764   -2.2056   23.3706 C   0  0  0  0  0  0  0  0  0  0  0  0
   13.0794   -2.6198   24.5386 C   0  0  0  0  0  0  0  0  0  0  0  0
   11.7583   -2.7076   24.6916 N   0  0  0  0  0  0  0  0  0  0  0  0
   10.9940   -2.3725   23.6483 C   0  0  0  0  0  0  0  0  0  0  0  0
    6.8840    0.5131   20.6588 C   0  0  0  0  0  0  0  0  0  0  0  0
  1  2  1  0
  2  3  2  0
  3  4  1  0
  4  5  2  0
  5  6  1  0
  6  7  2  0
  7  8  1  0
  8  9  1  0
  9 10  2  0
  9 11  1  0
 11 12  2  0
 12 13  1  0
 13 14  2  0
 14 15  1  0
 15 16  1  0
 16 17  1  0
 17 18  2  0
 17 19  1  0
 19 20  1  0
 20 21  2  0
 21 22  1  0
 22 23  2  0
 23 24  1  0
 24 25  2  0
 15 26  2  0
  7  2  1  0
 26 11  1  0
 25 20  1  0
M  END
