CVD-0001582|dock_bobby27042020.23|mol2|26|dock1
     RDKit          3D

 15 17  0  0  0  0  0  0  0  0999 V2000
   13.8104    5.6898   21.9263 C   0  0  0  0  0  0  0  0  0  0  0  0
   12.5406    5.5577   22.5622 O   0  0  0  0  0  0  0  0  0  0  0  0
   11.9269    4.3320   22.6360 C   0  0  0  0  0  0  0  0  0  0  0  0
   10.5418    4.3110   22.6895 C   0  0  0  0  0  0  0  0  0  0  0  0
    9.8557    3.1115   22.7629 C   0  0  0  0  0  0  0  0  0  0  0  0
   10.5768    1.9244   22.7824 C   0  0  0  0  0  0  0  0  0  0  0  0
   10.1702    0.6064   22.8586 N   0  0  0  0  0  0  0  0  0  0  0  0
   11.2856   -0.2030   22.8533 C   0  0  0  0  0  0  0  0  0  0  0  0
   11.2564   -1.6929   22.8609 C   0  0  0  0  0  0  0  0  0  0  0  0
   12.6293   -2.2455   22.8291 N   0  0  0  0  0  0  0  0  0  0  0  0
   13.7216   -1.4669   23.4108 C   0  0  0  0  0  0  0  0  0  0  0  0
   13.7857   -0.0163   22.7574 C   0  0  0  0  0  0  0  0  0  0  0  0
   12.4084    0.5585   22.7755 C   0  0  0  0  0  0  0  0  0  0  0  0
   11.9828    1.9286   22.7287 C   0  0  0  0  0  0  0  0  0  0  0  0
   12.6557    3.1480   22.6550 C   0  0  0  0  0  0  0  0  0  0  0  0
  1  2  1  0
  2  3  1  0
  3  4  2  0
  4  5  1  0
  5  6  2  0
  6  7  1  0
  7  8  1  0
  8  9  1  0
  9 10  1  0
 10 11  1  0
 11 12  1  0
 12 13  1  0
 13 14  1  0
 14 15  2  0
 15  3  1  0
 14  6  1  0
 13  8  2  0
M  END
