CVD-0001861|dock_bobby27042020.94|mol2|3|dock3
     RDKit          3D

 23 25  0  0  0  0  0  0  0  0999 V2000
    8.5278   -6.4613   27.9086 N   0  0  0  0  0  0  0  0  0  0  0  0
    8.9989   -5.4283   27.1326 C   0  0  0  0  0  0  0  0  0  0  0  0
   10.0603   -5.5772   26.2486 C   0  0  0  0  0  0  0  0  0  0  0  0
   10.5320   -4.5849   25.4863 N   0  0  0  0  0  0  0  0  0  0  0  0
    9.9154   -3.4181   25.6225 C   0  0  0  0  0  0  0  0  0  0  0  0
   10.3397   -2.3578   24.8789 O   0  0  0  0  0  0  0  0  0  0  0  0
   11.1560   -2.4334   23.7790 C   0  0  0  0  0  0  0  0  0  0  0  0
   11.4685   -3.4388   23.1870 O   0  0  0  0  0  0  0  0  0  0  0  0
   11.5929   -1.2091   23.4046 N   0  0  0  0  0  0  0  0  0  0  0  0
   12.4792   -0.9310   22.2759 C   0  0  0  0  0  0  0  0  0  0  0  0
   13.6679   -0.1122   22.7318 C   0  0  0  0  0  0  0  0  0  0  0  0
   13.2130    1.0959   23.4167 N   0  0  0  0  0  0  0  0  0  0  0  0
   12.3267    0.8179   24.5454 C   0  0  0  0  0  0  0  0  0  0  0  0
   11.1380   -0.0010   24.0894 C   0  0  0  0  0  0  0  0  0  0  0  0
   13.6488    2.3170   23.0433 C   0  0  0  0  0  0  0  0  0  0  0  0
   14.6692    2.4374   22.3750 O   0  0  0  0  0  0  0  0  0  0  0  0
   12.9638    3.6159   23.3860 C   0  0  0  0  0  0  0  0  0  0  0  0
   11.5800    3.9177   23.6037 C   0  0  0  0  0  0  0  0  0  0  0  0
   11.3203    5.2220   23.9005 C   0  0  0  0  0  0  0  0  0  0  0  0
   12.7607    6.1174   23.9256 S   0  0  0  0  0  0  0  0  0  0  0  0
   13.7089    4.7604   23.5442 C   0  0  0  0  0  0  0  0  0  0  0  0
    8.8965   -3.1354   26.4226 N   0  0  0  0  0  0  0  0  0  0  0  0
    8.4520   -4.1518   27.1694 C   0  0  0  0  0  0  0  0  0  0  0  0
  1  2  1  0
  2  3  2  0
  3  4  1  0
  4  5  2  0
  5  6  1  0
  6  7  1  0
  7  8  2  0
  7  9  1  0
  9 10  1  0
 10 11  1  0
 11 12  1  0
 12 13  1  0
 13 14  1  0
 12 15  1  0
 15 16  2  0
 15 17  1  0
 17 18  1  0
 18 19  2  0
 19 20  1  0
 20 21  1  0
  5 22  1  0
 22 23  2  0
 23  2  1  0
 14  9  1  0
 21 17  2  0
M  END
