CVD-0001397|dock_bobby27042020.81|mol2|14|dock1
     RDKit          3D

 19 21  0  0  0  0  0  0  0  0999 V2000
   12.4022    5.0323   22.0951 Cl  0  0  0  0  0  0  0  0  0  0  0  0
   12.9683    3.4085   22.5083 C   0  0  0  0  0  0  0  0  0  0  0  0
   11.8727    2.3709   22.3504 C   0  0  0  0  0  0  0  0  0  0  0  0
   10.7833    2.6720   21.8792 O   0  0  0  0  0  0  0  0  0  0  0  0
   12.1500    1.1089   22.7422 N   0  0  0  0  0  0  0  0  0  0  0  0
   13.4349    0.6623   23.2978 C   0  0  0  0  0  0  0  0  0  0  0  0
   13.8518   -0.6469   22.6593 C   0  0  0  0  0  0  0  0  0  0  0  0
   12.7668   -1.7004   22.8413 C   0  0  0  0  0  0  0  0  0  0  0  0
   11.4511   -1.1817   22.2900 C   0  0  0  0  0  0  0  0  0  0  0  0
   11.0570    0.1473   22.9156 C   0  0  0  0  0  0  0  0  0  0  0  0
   10.3451   -2.1713   22.4868 C   0  0  0  0  0  0  0  0  0  0  0  0
   10.3165   -3.1677   23.3037 N   0  0  0  0  0  0  0  0  0  0  0  0
    9.0758   -3.7553   23.0779 C   0  0  0  0  0  0  0  0  0  0  0  0
    8.4614   -4.8660   23.6554 C   0  0  0  0  0  0  0  0  0  0  0  0
    7.1928   -5.2242   23.2203 C   0  0  0  0  0  0  0  0  0  0  0  0
    6.5435   -4.5022   22.2363 C   0  0  0  0  0  0  0  0  0  0  0  0
    7.1497   -3.3979   21.6596 C   0  0  0  0  0  0  0  0  0  0  0  0
    8.4159   -3.0485   22.1006 C   0  0  0  0  0  0  0  0  0  0  0  0
    9.2295   -2.0087   21.6984 O   0  0  0  0  0  0  0  0  0  0  0  0
  1  2  1  0
  2  3  1  0
  3  4  2  0
  3  5  1  0
  5  6  1  0
  6  7  1  0
  7  8  1  0
  8  9  1  0
  9 10  1  0
  9 11  1  0
 11 12  2  0
 12 13  1  0
 13 14  2  0
 14 15  1  0
 15 16  2  0
 16 17  1  0
 17 18  2  0
 18 19  1  0
 10  5  1  0
 19 11  1  0
 18 13  1  0
M  END
