CVD-0003082|dock_bobby27042020.75|mol2|4|dock1
     RDKit          3D

 19 20  0  0  0  0  0  0  0  0999 V2000
   14.0432   -2.4375   22.8397 C   0  0  0  0  0  0  0  0  0  0  0  0
   13.6944   -1.3401   23.7957 C   0  0  0  0  0  0  0  0  0  0  0  0
   13.3715   -0.1079   23.0949 N   0  0  0  0  0  0  0  0  0  0  0  0
   12.1001    0.3109   22.8097 C   0  0  0  0  0  0  0  0  0  0  0  0
   11.0935   -0.6097   22.6003 C   0  0  0  0  0  0  0  0  0  0  0  0
    9.7993   -0.2155   22.3169 C   0  0  0  0  0  0  0  0  0  0  0  0
    9.4615    1.1114   22.2295 C   0  0  0  0  0  0  0  0  0  0  0  0
    8.0988    1.4793   21.9332 C   0  0  0  0  0  0  0  0  0  0  0  0
    7.0308    1.7714   21.6522 N   0  0  0  0  0  0  0  0  0  0  0  0
   10.4615    2.1194   22.4320 C   0  0  0  0  0  0  0  0  0  0  0  0
   10.1597    3.5039   22.3502 C   0  0  0  0  0  0  0  0  0  0  0  0
   11.1172    4.4499   22.5428 C   0  0  0  0  0  0  0  0  0  0  0  0
   12.4163    4.0639   22.8229 C   0  0  0  0  0  0  0  0  0  0  0  0
   12.7652    2.7488   22.9161 C   0  0  0  0  0  0  0  0  0  0  0  0
   11.8062    1.7166   22.7260 C   0  0  0  0  0  0  0  0  0  0  0  0
   13.6500    5.3036   23.0762 S   0  0  0  0  0  0  0  0  0  0  0  0
   14.0052    5.9623   21.6610 N   0  0  0  0  0  0  0  0  0  0  0  0
   13.0651    6.3298   23.8860 O   0  0  0  0  0  0  0  0  0  0  0  0
   14.8311    4.6422   23.5439 O   0  0  0  0  0  0  0  0  0  0  0  0
  1  2  1  0
  2  3  1  0
  3  4  1  0
  4  5  2  0
  5  6  1  0
  6  7  2  0
  7  8  1  0
  8  9  3  0
  7 10  1  0
 10 11  2  0
 11 12  1  0
 12 13  2  0
 13 14  1  0
 14 15  2  0
 13 16  1  0
 16 17  1  0
 16 18  2  0
 16 19  2  0
 15  4  1  0
 15 10  1  0
M  END
