CVD-0001314|dock_bobby27042020.81|mol2|28|dock2
     RDKit          3D

 15 15  0  0  0  0  0  0  0  0999 V2000
   14.4705   -2.5723   25.4711 C   0  0  0  0  0  0  0  0  0  0  0  0
   13.2914   -2.5219   24.5113 C   0  0  0  0  0  0  0  0  0  0  0  0
   12.4208   -1.3085   24.7258 C   0  0  0  0  0  0  0  0  0  0  0  0
   12.7582   -0.4282   25.5074 O   0  0  0  0  0  0  0  0  0  0  0  0
   11.2664   -1.2237   24.0322 N   0  0  0  0  0  0  0  0  0  0  0  0
   10.7797   -2.2038   23.0649 C   0  0  0  0  0  0  0  0  0  0  0  0
   10.2898   -1.4994   21.8165 C   0  0  0  0  0  0  0  0  0  0  0  0
    9.1984   -0.4941   22.1622 C   0  0  0  0  0  0  0  0  0  0  0  0
    9.7186    0.4826   23.2144 C   0  0  0  0  0  0  0  0  0  0  0  0
   10.2382   -0.2703   24.4348 C   0  0  0  0  0  0  0  0  0  0  0  0
    8.7314    0.2404   20.9286 C   0  0  0  0  0  0  0  0  0  0  0  0
    9.0913    1.3354   20.5816 O   0  0  0  0  0  0  0  0  0  0  0  0
    7.5650   -0.7078   20.0220 S   0  0  0  0  0  0  0  0  0  0  0  0
    7.1700    0.4311   18.7199 C   0  0  0  0  0  0  0  0  0  0  0  0
    8.2549    0.6980   17.9132 F   0  0  0  0  0  0  0  0  0  0  0  0
  1  2  1  0
  2  3  1  0
  3  4  2  0
  3  5  1  0
  5  6  1  0
  6  7  1  0
  7  8  1  0
  8  9  1  0
  9 10  1  0
  8 11  1  0
 11 12  2  0
 11 13  1  0
 13 14  1  0
 14 15  1  0
 10  5  1  0
M  END
