CVD-0001129|dock_bobby27042020.53|mol2|37|dock3
     RDKit          3D

 25 27  0  0  0  0  0  0  0  0999 V2000
    7.9451   -0.9482   18.7441 O   0  0  0  0  0  0  0  0  0  0  0  0
    7.2252   -1.1122   19.8228 C   0  0  0  0  0  0  0  0  0  0  0  0
    6.0100   -1.0189   19.8399 O   0  0  0  0  0  0  0  0  0  0  0  0
    8.0106   -1.4265   21.0498 C   0  0  0  0  0  0  0  0  0  0  0  0
    7.6444   -2.4870   21.8696 C   0  0  0  0  0  0  0  0  0  0  0  0
    8.3785   -2.7708   23.0075 C   0  0  0  0  0  0  0  0  0  0  0  0
    9.4816   -2.0008   23.3343 C   0  0  0  0  0  0  0  0  0  0  0  0
    9.8616   -0.9385   22.5218 C   0  0  0  0  0  0  0  0  0  0  0  0
    9.1188   -0.6540   21.3796 C   0  0  0  0  0  0  0  0  0  0  0  0
   11.0066   -0.1176   22.8502 N   0  0  0  0  0  0  0  0  0  0  0  0
   11.0218    1.2980   22.7576 C   0  0  0  0  0  0  0  0  0  0  0  0
    9.9783    1.8926   22.5220 O   0  0  0  0  0  0  0  0  0  0  0  0
   12.2129    1.9652   22.9311 N   0  0  0  0  0  0  0  0  0  0  0  0
   12.4928    3.3568   22.9120 C   0  0  0  0  0  0  0  0  0  0  0  0
   11.5556    4.3709   23.0952 C   0  0  0  0  0  0  0  0  0  0  0  0
   11.9655    5.6922   23.0445 C   0  0  0  0  0  0  0  0  0  0  0  0
   13.2939    5.9687   22.8196 C   0  0  0  0  0  0  0  0  0  0  0  0
   14.2157    5.0221   22.6476 N   0  0  0  0  0  0  0  0  0  0  0  0
   13.8087    3.7504   22.6952 C   0  0  0  0  0  0  0  0  0  0  0  0
   12.1797   -0.8617   23.2632 C   0  0  0  0  0  0  0  0  0  0  0  0
   12.7871   -0.5730   24.4814 C   0  0  0  0  0  0  0  0  0  0  0  0
   13.9083   -1.2747   24.8922 C   0  0  0  0  0  0  0  0  0  0  0  0
   14.4357   -2.2712   24.1015 C   0  0  0  0  0  0  0  0  0  0  0  0
   13.8453   -2.5654   22.8926 C   0  0  0  0  0  0  0  0  0  0  0  0
   12.7283   -1.8646   22.4695 C   0  0  0  0  0  0  0  0  0  0  0  0
  1  2  1  0
  2  3  2  0
  2  4  1  0
  4  5  2  0
  5  6  1  0
  6  7  2  0
  7  8  1  0
  8  9  2  0
  8 10  1  0
 10 11  1  0
 11 12  2  0
 11 13  1  0
 13 14  1  0
 14 15  2  0
 15 16  1  0
 16 17  2  0
 17 18  1  0
 18 19  2  0
 10 20  1  0
 20 21  2  0
 21 22  1  0
 22 23  2  0
 23 24  1  0
 24 25  2  0
  9  4  1  0
 19 14  1  0
 25 20  1  0
M  END
