CVD-0001656|dock_bobby27042020.52|mol2|3|dock2
     RDKit          3D

 22 24  0  0  0  0  0  0  0  0999 V2000
    6.0896   -3.6840   20.8444 O   0  0  0  0  0  0  0  0  0  0  0  0
    6.8248   -3.8287   21.8156 C   0  0  0  0  0  0  0  0  0  0  0  0
    6.6290   -4.6842   22.8509 N   0  0  0  0  0  0  0  0  0  0  0  0
    5.5829   -5.6068   23.1026 C   0  0  0  0  0  0  0  0  0  0  0  0
    5.2184   -5.8630   24.4181 C   0  0  0  0  0  0  0  0  0  0  0  0
    4.1995   -6.7604   24.6850 C   0  0  0  0  0  0  0  0  0  0  0  0
    3.5724   -7.3776   23.6280 C   0  0  0  0  0  0  0  0  0  0  0  0
    3.8983   -7.1537   22.3550 N   0  0  0  0  0  0  0  0  0  0  0  0
    4.8837   -6.2852   22.1066 C   0  0  0  0  0  0  0  0  0  0  0  0
    8.0838   -3.0165   21.9442 C   0  0  0  0  0  0  0  0  0  0  0  0
    8.2828   -1.9164   21.1253 C   0  0  0  0  0  0  0  0  0  0  0  0
    9.4483   -1.1885   21.2758 C   0  0  0  0  0  0  0  0  0  0  0  0
   10.3970   -1.5590   22.2230 C   0  0  0  0  0  0  0  0  0  0  0  0
   10.1083   -2.6876   22.9788 C   0  0  0  0  0  0  0  0  0  0  0  0
    8.9797   -3.3982   22.8644 N   0  0  0  0  0  0  0  0  0  0  0  0
   11.5680   -0.8254   22.3886 N   0  0  0  0  0  0  0  0  0  0  0  0
   12.8462   -1.2966   21.8434 C   0  0  0  0  0  0  0  0  0  0  0  0
   13.6719   -2.1171   22.8603 C   0  0  0  0  0  0  0  0  0  0  0  0
   14.2894   -1.1972   23.9367 C   0  0  0  0  0  0  0  0  0  0  0  0
   13.2277   -0.5303   24.6191 O   0  0  0  0  0  0  0  0  0  0  0  0
   12.7645    0.6718   24.0029 C   0  0  0  0  0  0  0  0  0  0  0  0
   11.4969    0.4312   23.1511 C   0  0  0  0  0  0  0  0  0  0  0  0
  1  2  2  0
  2  3  1  0
  3  4  1  0
  4  5  2  0
  5  6  1  0
  6  7  2  0
  7  8  1  0
  8  9  2  0
  2 10  1  0
 10 11  2  0
 11 12  1  0
 12 13  2  0
 13 14  1  0
 14 15  2  0
 13 16  1  0
 16 17  1  0
 17 18  1  0
 18 19  1  0
 19 20  1  0
 20 21  1  0
 21 22  1  0
  9  4  1  0
 15 10  1  0
 22 16  1  0
M  END
