CVD-0000718|dock_bobby27042020.83|mol2|30|dock1
     RDKit          3D

 19 20  0  0  0  0  0  0  0  0999 V2000
   13.1578   -0.5984   25.8619 N   0  0  0  0  0  0  0  0  0  0  0  0
   13.2362   -1.0500   24.5653 C   0  0  0  0  0  0  0  0  0  0  0  0
   14.3987   -1.6364   24.0783 C   0  0  0  0  0  0  0  0  0  0  0  0
   14.5089   -2.0852   22.8255 N   0  0  0  0  0  0  0  0  0  0  0  0
   13.4566   -1.9640   22.0103 C   0  0  0  0  0  0  0  0  0  0  0  0
   12.2445   -1.3929   22.3944 C   0  0  0  0  0  0  0  0  0  0  0  0
   11.1178   -1.2556   21.5444 N   0  0  0  0  0  0  0  0  0  0  0  0
    9.8719   -0.7203   21.7807 C   0  0  0  0  0  0  0  0  0  0  0  0
    9.5168   -0.2405   22.8519 O   0  0  0  0  0  0  0  0  0  0  0  0
    9.0764   -0.7931   20.6598 N   0  0  0  0  0  0  0  0  0  0  0  0
    7.7397   -0.3725   20.4419 C   0  0  0  0  0  0  0  0  0  0  0  0
    6.7111   -0.5035   21.3747 C   0  0  0  0  0  0  0  0  0  0  0  0
    5.4546   -0.1024   21.1556 N   0  0  0  0  0  0  0  0  0  0  0  0
    5.1716    0.4549   19.9761 C   0  0  0  0  0  0  0  0  0  0  0  0
    6.1190    0.6342   18.9749 C   0  0  0  0  0  0  0  0  0  0  0  0
    7.4217    0.2109   19.2200 C   0  0  0  0  0  0  0  0  0  0  0  0
    5.7671    1.2417   17.7152 C   0  0  0  0  0  0  0  0  0  0  0  0
    5.5207    1.7287   16.7117 N   0  0  0  0  0  0  0  0  0  0  0  0
   12.1486   -0.9313   23.7021 C   0  0  0  0  0  0  0  0  0  0  0  0
  1  2  1  0
  2  3  2  0
  3  4  1  0
  4  5  2  0
  5  6  1  0
  6  7  1  0
  7  8  1  0
  8  9  2  0
  8 10  1  0
 10 11  1  0
 11 12  2  0
 12 13  1  0
 13 14  2  0
 14 15  1  0
 15 16  2  0
 15 17  1  0
 17 18  3  0
  6 19  2  0
 19  2  1  0
 16 11  1  0
M  END
