CVD-0002083|dock_bobby27042020.50|mol2|21|dock3
     RDKit          3D

 33 37  0  0  0  0  0  0  0  0999 V2000
    5.4862    4.3206   22.9040 O   0  0  0  0  0  0  0  0  0  0  0  0
    6.1354    3.9138   21.6997 S   0  0  0  0  0  0  0  0  0  0  0  0
    5.7445    4.5277   20.4711 O   0  0  0  0  0  0  0  0  0  0  0  0
    7.7047    4.1868   21.9115 N   0  0  0  0  0  0  0  0  0  0  0  0
    8.1923    5.3790   22.6178 C   0  0  0  0  0  0  0  0  0  0  0  0
    9.2015    5.0159   23.6933 C   0  0  0  0  0  0  0  0  0  0  0  0
   10.5893    4.8038   23.1385 C   0  0  0  0  0  0  0  0  0  0  0  0
   11.5117    5.8386   23.1191 C   0  0  0  0  0  0  0  0  0  0  0  0
   12.7861    5.6436   22.6131 C   0  0  0  0  0  0  0  0  0  0  0  0
   13.1541    4.4100   22.1209 C   0  0  0  0  0  0  0  0  0  0  0  0
   12.2478    3.3719   22.1352 C   0  0  0  0  0  0  0  0  0  0  0  0
   10.9736    3.5680   22.6413 C   0  0  0  0  0  0  0  0  0  0  0  0
    5.9082    2.2934   21.5681 N   0  0  0  0  0  0  0  0  0  0  0  0
    4.5417    1.8747   21.2404 C   0  0  0  0  0  0  0  0  0  0  0  0
    4.5920    0.7381   20.2136 C   0  0  0  0  0  0  0  0  0  0  0  0
    5.5934    0.9970   19.1533 C   0  0  0  0  0  0  0  0  0  0  0  0
    5.4064    1.3417   17.9032 N   0  0  0  0  0  0  0  0  0  0  0  0
    6.6391    1.1965   17.2754 N   0  0  0  0  0  0  0  0  0  0  0  0
    7.5001    0.7768   18.1655 C   0  0  0  0  0  0  0  0  0  0  0  0
    6.8844    0.6328   19.3854 N   0  0  0  0  0  0  0  0  0  0  0  0
    7.4636    0.5861   20.6779 C   0  0  0  0  0  0  0  0  0  0  0  0
    8.4539   -0.3655   20.9044 C   0  0  0  0  0  0  0  0  0  0  0  0
    8.9222   -0.6223   22.1848 C   0  0  0  0  0  0  0  0  0  0  0  0
    9.9153   -1.7333   22.4261 C   0  0  0  0  0  0  0  0  0  0  0  0
   11.3685   -1.2692   22.5869 C   0  0  0  0  0  0  0  0  0  0  0  0
   12.3351   -2.4702   22.6334 C   0  0  0  0  0  0  0  0  0  0  0  0
   13.7836   -2.0442   22.8659 C   0  0  0  0  0  0  0  0  0  0  0  0
   13.9139   -1.1790   24.1128 C   0  0  0  0  0  0  0  0  0  0  0  0
   12.9812    0.0220   24.0477 C   0  0  0  0  0  0  0  0  0  0  0  0
   11.5324   -0.4142   23.8551 C   0  0  0  0  0  0  0  0  0  0  0  0
    8.3832    0.0888   23.2385 C   0  0  0  0  0  0  0  0  0  0  0  0
    7.3966    1.0416   23.0445 C   0  0  0  0  0  0  0  0  0  0  0  0
    6.9163    1.3090   21.7571 C   0  0  0  0  0  0  0  0  0  0  0  0
  1  2  2  0
  2  3  2  0
  2  4  1  0
  4  5  1  0
  5  6  1  0
  6  7  1  0
  7  8  2  0
  8  9  1  0
  9 10  2  0
 10 11  1  0
 11 12  2  0
  2 13  1  0
 13 14  1  0
 14 15  1  0
 15 16  1  0
 16 17  2  0
 17 18  1  0
 18 19  2  0
 19 20  1  0
 20 21  1  0
 21 22  2  0
 22 23  1  0
 23 24  1  0
 24 25  1  0
 25 26  1  0
 26 27  1  0
 27 28  1  0
 28 29  1  0
 29 30  1  0
 23 31  2  0
 31 32  1  0
 32 33  2  0
 12  7  1  0
 33 13  1  0
 20 16  1  0
 33 21  1  0
 30 25  1  0
M  END
