CVD-0001971|dock_bobby27042020.79|mol2|17|dock2
     RDKit          3D

 34 35  0  0  0  0  0  0  0  0999 V2000
    6.4370   -5.5761   20.5187 Cl  0  0  0  0  0  0  0  0  0  0  0  0
    6.6073   -4.7232   22.0273 C   0  0  0  0  0  0  0  0  0  0  0  0
    6.7170   -3.3502   22.0180 C   0  0  0  0  0  0  0  0  0  0  0  0
    6.8500   -2.6739   23.2177 C   0  0  0  0  0  0  0  0  0  0  0  0
    6.8681   -3.3680   24.4213 C   0  0  0  0  0  0  0  0  0  0  0  0
    7.0238   -2.6605   25.6366 N   0  0  0  0  0  0  0  0  0  0  0  0
    7.8300   -1.6591   26.1092 C   0  0  0  0  0  0  0  0  0  0  0  0
    7.3512   -1.1886   27.2577 N   0  0  0  0  0  0  0  0  0  0  0  0
    8.9575   -1.1277   25.6059 N   0  0  0  0  0  0  0  0  0  0  0  0
    9.6736   -1.3763   24.5010 C   0  0  0  0  0  0  0  0  0  0  0  0
    9.4070   -2.2874   23.5678 N   0  0  0  0  0  0  0  0  0  0  0  0
   10.7652   -0.6077   24.3878 N   0  0  0  0  0  0  0  0  0  0  0  0
   11.7472   -0.6291   23.3102 C   0  0  0  0  0  0  0  0  0  0  0  0
   12.7289    0.5221   23.4060 C   0  0  0  0  0  0  0  0  0  0  0  0
   12.2228    1.7950   22.7494 C   0  0  0  0  0  0  0  0  0  0  0  0
   13.2711    2.8892   22.6446 C   0  0  0  0  0  0  0  0  0  0  0  0
   12.7652    4.1621   21.9880 C   0  0  0  0  0  0  0  0  0  0  0  0
   13.5387    5.3956   22.4097 C   0  0  0  0  0  0  0  0  0  0  0  0
   13.3367    5.7147   23.8161 N   0  0  0  0  0  0  0  0  0  0  0  0
   12.1884    6.1685   24.3197 C   0  0  0  0  0  0  0  0  0  0  0  0
   11.2246    6.3067   23.4054 N   0  0  0  0  0  0  0  0  0  0  0  0
   12.2393    6.3890   25.6464 N   0  0  0  0  0  0  0  0  0  0  0  0
   11.3652    6.8304   26.5676 C   0  0  0  0  0  0  0  0  0  0  0  0
   10.1414    7.1417   26.1380 N   0  0  0  0  0  0  0  0  0  0  0  0
   11.6333    6.9679   27.9059 N   0  0  0  0  0  0  0  0  0  0  0  0
   12.7895    6.7873   28.7103 C   0  0  0  0  0  0  0  0  0  0  0  0
   13.8206    7.7099   28.5722 C   0  0  0  0  0  0  0  0  0  0  0  0
   14.9828    7.5983   29.3145 C   0  0  0  0  0  0  0  0  0  0  0  0
   15.1143    6.5584   30.2064 C   0  0  0  0  0  0  0  0  0  0  0  0
   16.5807    6.4050   31.1331 Cl  0  0  0  0  0  0  0  0  0  0  0  0
   14.1051    5.6384   30.3786 C   0  0  0  0  0  0  0  0  0  0  0  0
   12.9417    5.7612   29.6398 C   0  0  0  0  0  0  0  0  0  0  0  0
    6.7633   -4.7549   24.4040 C   0  0  0  0  0  0  0  0  0  0  0  0
    6.6301   -5.4348   23.2064 C   0  0  0  0  0  0  0  0  0  0  0  0
  1  2  1  0
  2  3  2  0
  3  4  1  0
  4  5  2  0
  5  6  1  0
  6  7  1  0
  7  8  2  0
  7  9  1  0
  9 10  1  0
 10 11  2  0
 10 12  1  0
 12 13  1  0
 13 14  1  0
 14 15  1  0
 15 16  1  0
 16 17  1  0
 17 18  1  0
 18 19  1  0
 19 20  1  0
 20 21  2  0
 20 22  1  0
 22 23  1  0
 23 24  2  0
 23 25  1  0
 25 26  1  0
 26 27  2  0
 27 28  1  0
 28 29  2  0
 29 30  1  0
 29 31  1  0
 31 32  2  0
  5 33  1  0
 33 34  2  0
 34  2  1  0
 32 26  1  0
M  END
