CVD-0003637|dock_bobby27042020.59|mol2|13|dock2
     RDKit          3D

 29 32  0  0  0  0  0  0  0  0999 V2000
   14.8231    5.5084   23.2315 O   0  0  0  0  0  0  0  0  0  0  0  0
   13.6097    5.5232   23.4283 N   0  0  0  0  0  0  0  0  0  0  0  0
   13.0094    6.4625   23.9222 O   0  0  0  0  0  0  0  0  0  0  0  0
   12.8360    4.3353   23.0439 C   0  0  0  0  0  0  0  0  0  0  0  0
   13.4985    3.1841   22.6597 C   0  0  0  0  0  0  0  0  0  0  0  0
   12.7774    2.0510   22.3360 C   0  0  0  0  0  0  0  0  0  0  0  0
   11.3852    2.0647   22.3934 C   0  0  0  0  0  0  0  0  0  0  0  0
   10.7077    3.2653   22.7015 C   0  0  0  0  0  0  0  0  0  0  0  0
   11.4522    4.3837   23.0679 C   0  0  0  0  0  0  0  0  0  0  0  0
    9.2589    3.4175   22.6495 N   0  0  0  0  0  0  0  0  0  0  0  0
    8.5738    2.4573   22.9960 O   0  0  0  0  0  0  0  0  0  0  0  0
    8.7598    4.4810   22.3247 O   0  0  0  0  0  0  0  0  0  0  0  0
   10.7264    0.8142   22.1511 N   0  0  0  0  0  0  0  0  0  0  0  0
    9.5221    0.8636   21.4666 N   0  0  0  0  0  0  0  0  0  0  0  0
    9.0881   -0.3999   21.4296 C   0  0  0  0  0  0  0  0  0  0  0  0
    9.9929   -1.2581   22.0712 C   0  0  0  0  0  0  0  0  0  0  0  0
   11.0371   -0.4748   22.5224 C   0  0  0  0  0  0  0  0  0  0  0  0
   12.2256   -0.9687   23.2533 C   0  0  0  0  0  0  0  0  0  0  0  0
   12.7319   -0.3509   24.3940 C   0  0  0  0  0  0  0  0  0  0  0  0
   13.8314   -0.8750   25.0533 C   0  0  0  0  0  0  0  0  0  0  0  0
   14.4576   -2.0050   24.5743 C   0  0  0  0  0  0  0  0  0  0  0  0
   13.9860   -2.6127   23.4315 C   0  0  0  0  0  0  0  0  0  0  0  0
   12.8803   -2.0990   22.7749 C   0  0  0  0  0  0  0  0  0  0  0  0
    7.8134   -0.7296   20.7731 C   0  0  0  0  0  0  0  0  0  0  0  0
    7.0076   -1.7515   21.2625 C   0  0  0  0  0  0  0  0  0  0  0  0
    5.8083   -2.0594   20.6422 C   0  0  0  0  0  0  0  0  0  0  0  0
    5.4007   -1.3536   19.5305 C   0  0  0  0  0  0  0  0  0  0  0  0
    6.1906   -0.3381   19.0355 C   0  0  0  0  0  0  0  0  0  0  0  0
    7.3910   -0.0252   19.6512 C   0  0  0  0  0  0  0  0  0  0  0  0
  1  2  1  0
  2  3  2  0
  2  4  1  0
  4  5  2  0
  5  6  1  0
  6  7  2  0
  7  8  1  0
  8  9  2  0
  8 10  1  0
 10 11  1  0
 10 12  2  0
  7 13  1  0
 13 14  1  0
 14 15  2  0
 15 16  1  0
 16 17  2  0
 17 18  1  0
 18 19  2  0
 19 20  1  0
 20 21  2  0
 21 22  1  0
 22 23  2  0
 15 24  1  0
 24 25  2  0
 25 26  1  0
 26 27  2  0
 27 28  1  0
 28 29  2  0
  9  4  1  0
 17 13  1  0
 23 18  1  0
 29 24  1  0
M  CHG  4   1  -1   2   1  10   1  11  -1
M  END
