CVD-0002844|dock_bobby27042020.32|mol2|46|dock1
     RDKit          3D

 22 24  0  0  0  0  0  0  0  0999 V2000
    8.3107   -0.8304   19.3515 O   0  0  0  0  0  0  0  0  0  0  0  0
    8.3010   -0.5003   20.7297 C   0  0  0  0  0  0  0  0  0  0  0  0
    8.4309   -1.7219   21.6075 C   0  0  0  0  0  0  0  0  0  0  0  0
    7.3175   -2.5360   21.7915 C   0  0  0  0  0  0  0  0  0  0  0  0
    7.4138   -3.6409   22.6118 C   0  0  0  0  0  0  0  0  0  0  0  0
    8.5286   -3.9846   23.2544 N   0  0  0  0  0  0  0  0  0  0  0  0
    9.6000   -3.2094   23.0660 C   0  0  0  0  0  0  0  0  0  0  0  0
    9.6272   -2.0719   22.2593 C   0  0  0  0  0  0  0  0  0  0  0  0
   10.9231   -1.3391   22.1698 C   0  0  0  0  0  0  0  0  0  0  0  0
   11.0673   -0.0547   22.6864 C   0  0  0  0  0  0  0  0  0  0  0  0
   12.2858    0.6041   22.5933 C   0  0  0  0  0  0  0  0  0  0  0  0
   12.4533    1.9989   23.1458 C   0  0  0  0  0  0  0  0  0  0  0  0
   12.1596    3.0809   22.1097 C   0  0  0  0  0  0  0  0  0  0  0  0
   12.4705    4.4635   22.6180 C   0  0  0  0  0  0  0  0  0  0  0  0
   11.7562    5.2019   23.5653 C   0  0  0  0  0  0  0  0  0  0  0  0
   12.3051    6.3918   23.7765 N   0  0  0  0  0  0  0  0  0  0  0  0
   13.3910    6.4273   22.9513 N   0  0  0  0  0  0  0  0  0  0  0  0
   13.5056    5.2965   22.2558 C   0  0  0  0  0  0  0  0  0  0  0  0
   14.7749    5.0518   21.1329 Cl  0  0  0  0  0  0  0  0  0  0  0  0
   13.3336   -0.0562   21.9750 C   0  0  0  0  0  0  0  0  0  0  0  0
   13.1210   -1.3289   21.4866 C   0  0  0  0  0  0  0  0  0  0  0  0
   11.9497   -1.9724   21.5737 N   0  0  0  0  0  0  0  0  0  0  0  0
  1  2  1  0
  2  3  1  0
  3  4  2  0
  4  5  1  0
  5  6  2  0
  6  7  1  0
  7  8  2  0
  8  9  1  0
  9 10  2  0
 10 11  1  0
 11 12  1  0
 12 13  1  0
 13 14  1  0
 14 15  1  0
 15 16  2  0
 16 17  1  0
 17 18  1  0
 18 19  1  0
 11 20  2  0
 20 21  1  0
 21 22  2  0
  8  3  1  0
 22  9  1  0
 18 14  2  0
M  END
