CVD-0003697|dock_bobby27042020.59|mol2|4|dock1
     RDKit          3D

 33 36  0  0  0  0  0  0  0  0999 V2000
   10.7784   -1.9771   21.2240 O   0  0  0  0  0  0  0  0  0  0  0  0
   10.6082   -1.8156   22.6346 C   0  0  0  0  0  0  0  0  0  0  0  0
   11.7314   -0.9636   23.2162 C   0  0  0  0  0  0  0  0  0  0  0  0
   11.7221    0.5327   22.9128 C   0  0  0  0  0  0  0  0  0  0  0  0
   13.0504    1.2633   23.0659 C   0  0  0  0  0  0  0  0  0  0  0  0
   12.9542    2.7861   22.9335 C   0  0  0  0  0  0  0  0  0  0  0  0
   14.2017    3.4445   22.5818 N   0  0  0  0  0  0  0  0  0  0  0  0
   14.0633    4.2990   21.5570 C   0  0  0  0  0  0  0  0  0  0  0  0
   14.9234    5.0482   21.1018 O   0  0  0  0  0  0  0  0  0  0  0  0
   12.7647    4.1963   21.0985 N   0  0  0  0  0  0  0  0  0  0  0  0
   12.0453    3.2871   21.8161 C   0  0  0  0  0  0  0  0  0  0  0  0
   10.8679    2.9926   21.6293 O   0  0  0  0  0  0  0  0  0  0  0  0
    9.2202   -1.2019   22.8466 C   0  0  0  0  0  0  0  0  0  0  0  0
    8.9146   -1.0777   24.3756 C   0  0  0  0  0  0  0  0  0  0  0  0
    8.6266   -2.3823   24.9514 N   0  0  0  0  0  0  0  0  0  0  0  0
    7.4894   -3.0198   24.2914 C   0  0  0  0  0  0  0  0  0  0  0  0
    7.0861   -4.3021   25.0298 C   0  0  0  0  0  0  0  0  0  0  0  0
    5.9909   -5.0862   24.3486 C   0  0  0  0  0  0  0  0  0  0  0  0
    4.6697   -4.9477   24.7540 C   0  0  0  0  0  0  0  0  0  0  0  0
    3.6642   -5.6712   24.1294 C   0  0  0  0  0  0  0  0  0  0  0  0
    2.3705   -5.5247   24.5373 O   0  0  0  0  0  0  0  0  0  0  0  0
    3.9653   -6.5426   23.0930 C   0  0  0  0  0  0  0  0  0  0  0  0
    5.2847   -6.6825   22.6883 C   0  0  0  0  0  0  0  0  0  0  0  0
    5.5943   -7.5366   21.6704 O   0  0  0  0  0  0  0  0  0  0  0  0
    6.2915   -5.9599   23.3117 C   0  0  0  0  0  0  0  0  0  0  0  0
    7.7985   -3.2728   22.8239 C   0  0  0  0  0  0  0  0  0  0  0  0
    8.1077   -1.9619   22.1030 C   0  0  0  0  0  0  0  0  0  0  0  0
    6.8239   -1.1405   21.9232 C   0  0  0  0  0  0  0  0  0  0  0  0
    6.8434   -0.0210   20.8806 C   0  0  0  0  0  0  0  0  0  0  0  0
    7.0245   -0.4094   19.4994 C   0  0  0  0  0  0  0  0  0  0  0  0
    5.8101    0.1706   18.7104 C   0  0  0  0  0  0  0  0  0  0  0  0
    4.9881    0.8266   19.7713 N   0  0  0  0  0  0  0  0  0  0  0  0
    5.5790    0.7023   21.0818 C   0  0  0  0  0  0  0  0  0  0  0  0
  1  2  1  0
  2  3  1  0
  3  4  1  0
  4  5  1  0
  5  6  1  0
  6  7  1  0
  7  8  1  0
  8  9  2  0
  8 10  1  0
 10 11  1  0
 11 12  2  0
  2 13  1  0
 13 14  1  0
 14 15  1  0
 15 16  1  0
 16 17  1  0
 17 18  1  0
 18 19  2  0
 19 20  1  0
 20 21  1  0
 20 22  2  0
 22 23  1  0
 23 24  1  0
 23 25  2  0
 16 26  1  0
 26 27  1  0
 27 28  1  0
 28 29  1  0
 29 30  1  0
 30 31  1  0
 31 32  1  0
 32 33  1  0
 11  6  1  0
 27 13  1  0
 33 29  1  0
 25 18  1  0
M  END
