CVD-0002949|dock_bobby27042020.32|mol2|31|dock3
     RDKit          3D

 36 40  0  0  0  0  0  0  0  0999 V2000
   14.2276   -2.7035   23.5254 Br  0  0  0  0  0  0  0  0  0  0  0  0
   12.8207   -1.4422   23.3319 C   0  0  0  0  0  0  0  0  0  0  0  0
   13.0172   -0.1505   23.7664 C   0  0  0  0  0  0  0  0  0  0  0  0
   11.9838    0.7559   23.6176 C   0  0  0  0  0  0  0  0  0  0  0  0
   10.7900    0.3671   23.0339 C   0  0  0  0  0  0  0  0  0  0  0  0
   10.5917   -0.9387   22.5895 C   0  0  0  0  0  0  0  0  0  0  0  0
   11.6331   -1.8506   22.7617 C   0  0  0  0  0  0  0  0  0  0  0  0
    9.2936   -1.3166   21.9594 C   0  0  0  0  0  0  0  0  0  0  0  0
    8.7515   -2.5381   22.2259 C   0  0  0  0  0  0  0  0  0  0  0  0
    7.5720   -2.9773   21.6894 N   0  0  0  0  0  0  0  0  0  0  0  0
    7.0717   -4.3159   22.0233 C   0  0  0  0  0  0  0  0  0  0  0  0
    7.2182   -4.6481   23.4889 C   0  0  0  0  0  0  0  0  0  0  0  0
    7.9948   -5.7177   23.9028 C   0  0  0  0  0  0  0  0  0  0  0  0
    8.1234   -6.0278   25.2449 C   0  0  0  0  0  0  0  0  0  0  0  0
    7.4757   -5.2797   26.2223 C   0  0  0  0  0  0  0  0  0  0  0  0
    6.7187   -4.1892   25.8024 C   0  0  0  0  0  0  0  0  0  0  0  0
    6.5853   -3.8881   24.4584 C   0  0  0  0  0  0  0  0  0  0  0  0
    7.6541   -5.6830   27.6592 C   0  0  0  0  0  0  0  0  0  0  0  0
    8.7783   -5.5432   28.1092 O   0  0  0  0  0  0  0  0  0  0  0  0
    6.6737   -6.1769   28.4535 N   0  0  0  0  0  0  0  0  0  0  0  0
    6.8815   -6.4937   29.8713 C   0  0  0  0  0  0  0  0  0  0  0  0
    6.2889   -7.8514   30.1886 C   0  0  0  0  0  0  0  0  0  0  0  0
    4.9210   -7.9251   29.8404 O   0  0  0  0  0  0  0  0  0  0  0  0
    4.7557   -7.6849   28.4426 C   0  0  0  0  0  0  0  0  0  0  0  0
    5.2692   -6.3156   28.0565 C   0  0  0  0  0  0  0  0  0  0  0  0
    6.8438   -2.2137   20.8078 C   0  0  0  0  0  0  0  0  0  0  0  0
    5.8135   -2.6603   20.3279 O   0  0  0  0  0  0  0  0  0  0  0  0
    7.3537   -0.9440   20.5063 N   0  0  0  0  0  0  0  0  0  0  0  0
    6.6006   -0.1088   19.5880 C   0  0  0  0  0  0  0  0  0  0  0  0
    5.3025    0.2923   19.8784 C   0  0  0  0  0  0  0  0  0  0  0  0
    4.6147    1.0895   18.9807 C   0  0  0  0  0  0  0  0  0  0  0  0
    5.2447    1.4638   17.8170 C   0  0  0  0  0  0  0  0  0  0  0  0
    6.4879    1.0934   17.5107 N   0  0  0  0  0  0  0  0  0  0  0  0
    7.1407    0.3207   18.3846 C   0  0  0  0  0  0  0  0  0  0  0  0
    8.5612   -0.4217   21.0588 C   0  0  0  0  0  0  0  0  0  0  0  0
    8.9055    0.7215   20.7826 O   0  0  0  0  0  0  0  0  0  0  0  0
  1  2  1  0
  2  3  2  0
  3  4  1  0
  4  5  2  0
  5  6  1  0
  6  7  2  0
  6  8  1  0
  8  9  2  0
  9 10  1  0
 10 11  1  0
 11 12  1  0
 12 13  2  0
 13 14  1  0
 14 15  2  0
 15 16  1  0
 16 17  2  0
 15 18  1  0
 18 19  2  0
 18 20  1  0
 20 21  1  0
 21 22  1  0
 22 23  1  0
 23 24  1  0
 24 25  1  0
 10 26  1  0
 26 27  2  0
 26 28  1  0
 28 29  1  0
 29 30  2  0
 30 31  1  0
 31 32  2  0
 32 33  1  0
 33 34  2  0
 28 35  1  0
 35 36  2  0
  7  2  1  0
 35  8  1  0
 17 12  1  0
 25 20  1  0
 34 29  1  0
M  END
