CVD-0000856|dock_bobby27042020.40|mol2|15|dock3
     RDKit          3D

 21 23  0  0  0  0  0  0  0  0999 V2000
    5.2254    1.1937   21.6194 C   0  0  0  0  0  0  0  0  0  0  0  0
    5.9395    0.2904   20.7314 N   0  0  0  0  0  0  0  0  0  0  0  0
    6.9954   -0.5707   21.2983 C   0  0  0  0  0  0  0  0  0  0  0  0
    8.3530   -0.3574   20.6866 C   0  0  0  0  0  0  0  0  0  0  0  0
    8.5467   -1.0863   19.4688 O   0  0  0  0  0  0  0  0  0  0  0  0
    7.8318   -0.5571   18.3533 C   0  0  0  0  0  0  0  0  0  0  0  0
    6.3124   -0.7275   18.4956 C   0  0  0  0  0  0  0  0  0  0  0  0
    5.6422    0.2947   19.4342 C   0  0  0  0  0  0  0  0  0  0  0  0
    4.8449    1.1018   18.9731 O   0  0  0  0  0  0  0  0  0  0  0  0
    9.4708   -0.6800   21.6524 C   0  0  0  0  0  0  0  0  0  0  0  0
    9.7190   -1.9921   22.0408 C   0  0  0  0  0  0  0  0  0  0  0  0
   10.7271   -2.2952   22.9377 C   0  0  0  0  0  0  0  0  0  0  0  0
   11.4975   -1.2676   23.4525 C   0  0  0  0  0  0  0  0  0  0  0  0
   11.2820    0.0483   23.0913 C   0  0  0  0  0  0  0  0  0  0  0  0
   10.2604    0.3329   22.1854 C   0  0  0  0  0  0  0  0  0  0  0  0
   12.2292    0.9684   23.8050 C   0  0  0  0  0  0  0  0  0  0  0  0
   12.2351    2.1915   23.6600 O   0  0  0  0  0  0  0  0  0  0  0  0
   13.0970    0.3088   24.6499 N   0  0  0  0  0  0  0  0  0  0  0  0
   12.8592   -1.2523   24.5752 S   0  0  0  0  0  0  0  0  0  0  0  0
   14.2475   -1.9960   23.7938 C   0  0  0  0  0  0  0  0  0  0  0  0
   12.6010   -1.9264   25.8300 O   0  0  0  0  0  0  0  0  0  0  0  0
  1  2  1  0
  2  3  1  0
  3  4  1  0
  4  5  1  0
  5  6  1  0
  6  7  1  0
  7  8  1  0
  8  9  2  0
  4 10  1  0
 10 11  2  0
 11 12  1  0
 12 13  2  0
 13 14  1  0
 14 15  2  0
 14 16  1  0
 16 17  2  0
 16 18  1  0
 18 19  2  0
 19 20  1  0
 19 21  2  0
  8  2  1  0
 15 10  1  0
 19 13  1  0
M  END
