CVD-0002162|dock_bobby27042020.50|mol2|4|dock3
     RDKit          3D

 26 28  0  0  0  0  0  0  0  0999 V2000
    8.3859    2.7859   21.3362 O   0  0  0  0  0  0  0  0  0  0  0  0
    9.2080    1.9399   21.6713 C   0  0  0  0  0  0  0  0  0  0  0  0
   10.3950    2.2319   22.3056 N   0  0  0  0  0  0  0  0  0  0  0  0
   10.9494    3.4725   22.7119 C   0  0  0  0  0  0  0  0  0  0  0  0
   12.3291    3.5698   22.8409 C   0  0  0  0  0  0  0  0  0  0  0  0
   12.9003    4.7667   23.2357 C   0  0  0  0  0  0  0  0  0  0  0  0
   12.0752    5.8367   23.4914 C   0  0  0  0  0  0  0  0  0  0  0  0
   10.7485    5.7771   23.3773 N   0  0  0  0  0  0  0  0  0  0  0  0
   10.2058    4.6168   22.9953 C   0  0  0  0  0  0  0  0  0  0  0  0
    9.0684    0.5833   21.4708 N   0  0  0  0  0  0  0  0  0  0  0  0
    8.0037   -0.1424   20.8616 C   0  0  0  0  0  0  0  0  0  0  0  0
    7.0579    0.4615   20.0260 C   0  0  0  0  0  0  0  0  0  0  0  0
    6.0347   -0.2843   19.4650 C   0  0  0  0  0  0  0  0  0  0  0  0
    5.9378   -1.6338   19.7070 C   0  0  0  0  0  0  0  0  0  0  0  0
    6.8693   -2.2475   20.5209 C   0  0  0  0  0  0  0  0  0  0  0  0
    7.9042   -1.5261   21.1104 C   0  0  0  0  0  0  0  0  0  0  0  0
    8.8793   -2.2564   22.0044 C   0  0  0  0  0  0  0  0  0  0  0  0
   10.2470   -2.2373   21.5237 N   0  0  0  0  0  0  0  0  0  0  0  0
   11.3337   -2.1945   22.3426 C   0  0  0  0  0  0  0  0  0  0  0  0
   12.5847   -1.8400   21.8405 C   0  0  0  0  0  0  0  0  0  0  0  0
   13.6597   -1.8096   22.7101 C   0  0  0  0  0  0  0  0  0  0  0  0
   13.4717   -2.1292   24.0499 C   0  0  0  0  0  0  0  0  0  0  0  0
   12.1849   -2.4703   24.4553 C   0  0  0  0  0  0  0  0  0  0  0  0
   11.1345   -2.5045   23.6276 N   0  0  0  0  0  0  0  0  0  0  0  0
   14.5694   -2.1082   24.9849 C   0  0  0  0  0  0  0  0  0  0  0  0
   15.4321   -2.0596   25.7321 N   0  0  0  0  0  0  0  0  0  0  0  0
  1  2  2  0
  2  3  1  0
  3  4  1  0
  4  5  2  0
  5  6  1  0
  6  7  2  0
  7  8  1  0
  8  9  2  0
  2 10  1  0
 10 11  1  0
 11 12  2  0
 12 13  1  0
 13 14  2  0
 14 15  1  0
 15 16  2  0
 16 17  1  0
 17 18  1  0
 18 19  1  0
 19 20  2  0
 20 21  1  0
 21 22  2  0
 22 23  1  0
 23 24  2  0
 22 25  1  0
 25 26  3  0
  9  4  1  0
 16 11  1  0
 24 19  1  0
M  END
