CVD-0002938|dock_bobby27042020.89|mol2|32|dock2
     RDKit          3D

 20 21  0  0  0  0  0  0  0  0999 V2000
   14.2767   -1.9974   25.3714 C   0  0  0  0  0  0  0  0  0  0  0  0
   13.6735   -0.7105   24.8880 C   0  0  0  0  0  0  0  0  0  0  0  0
   13.1020    0.0717   25.5986 O   0  0  0  0  0  0  0  0  0  0  0  0
   13.8809   -0.4844   23.1361 S   0  0  0  0  0  0  0  0  0  0  0  0
   12.2235   -0.6307   22.5180 C   0  0  0  0  0  0  0  0  0  0  0  0
   11.7712   -1.8346   21.9976 C   0  0  0  0  0  0  0  0  0  0  0  0
   10.4782   -1.9432   21.5176 C   0  0  0  0  0  0  0  0  0  0  0  0
    9.6090   -0.8615   21.5449 C   0  0  0  0  0  0  0  0  0  0  0  0
   10.0711    0.3384   22.0690 C   0  0  0  0  0  0  0  0  0  0  0  0
   11.3628    0.4569   22.5507 C   0  0  0  0  0  0  0  0  0  0  0  0
    8.2025   -0.9904   21.0144 C   0  0  0  0  0  0  0  0  0  0  0  0
    8.0542   -0.3930   19.6343 C   0  0  0  0  0  0  0  0  0  0  0  0
    6.6069   -0.4962   19.2058 C   0  0  0  0  0  0  0  0  0  0  0  0
    5.7449    0.1329   20.2274 N   0  0  0  0  0  0  0  0  0  0  0  0
    5.9397   -0.4299   21.5604 C   0  0  0  0  0  0  0  0  0  0  0  0
    7.2982   -0.3485   21.9303 O   0  0  0  0  0  0  0  0  0  0  0  0
    4.8425    1.1143   20.0064 C   0  0  0  0  0  0  0  0  0  0  0  0
    4.1727    1.5762   20.9214 O   0  0  0  0  0  0  0  0  0  0  0  0
    4.6746    1.6245   18.5880 C   0  0  0  0  0  0  0  0  0  0  0  0
    3.3797    2.8254   18.5001 Cl  0  0  0  0  0  0  0  0  0  0  0  0
  1  2  1  0
  2  3  2  0
  2  4  1  0
  4  5  1  0
  5  6  2  0
  6  7  1  0
  7  8  2  0
  8  9  1  0
  9 10  2  0
  8 11  1  0
 11 12  1  0
 12 13  1  0
 13 14  1  0
 14 15  1  0
 15 16  1  0
 14 17  1  0
 17 18  2  0
 17 19  1  0
 19 20  1  0
 10  5  1  0
 16 11  1  0
M  END
