CVD-0001979|dock_bobby27042020.65|mol2|18|dock2
     RDKit          3D

 11 12  0  0  0  0  0  0  0  0999 V2000
   13.2488   -2.4819   23.0213 C   0  0  0  0  0  0  0  0  0  0  0  0
   12.7779   -1.0429   22.8389 C   0  0  0  0  0  0  0  0  0  0  0  0
   11.5811   -0.7558   23.7338 C   0  0  0  0  0  0  0  0  0  0  0  0
   10.9180    0.5508   23.2986 C   0  0  0  0  0  0  0  0  0  0  0  0
   11.9718    1.5755   22.9897 C   0  0  0  0  0  0  0  0  0  0  0  0
   11.7549    2.9635   22.7239 C   0  0  0  0  0  0  0  0  0  0  0  0
   10.4543    3.7114   22.7096 C   0  0  0  0  0  0  0  0  0  0  0  0
   12.9922    3.4599   22.5509 C   0  0  0  0  0  0  0  0  0  0  0  0
   13.9623    2.5000   22.6862 O   0  0  0  0  0  0  0  0  0  0  0  0
   13.2986    1.3341   22.9596 C   0  0  0  0  0  0  0  0  0  0  0  0
   13.8972   -0.0307   23.0900 C   0  0  0  0  0  0  0  0  0  0  0  0
  1  2  1  0
  2  3  1  0
  3  4  1  0
  4  5  1  0
  5  6  1  0
  6  7  1  0
  6  8  2  0
  8  9  1  0
  9 10  1  0
 10 11  1  0
 11  2  1  0
 10  5  2  0
M  END
