CVD-0003883|dock_bobby27042020.44|mol2|3|dock1
     RDKit          3D

 22 24  0  0  0  0  0  0  0  0999 V2000
   10.4025   -5.6440   26.6181 N   0  0  0  0  0  0  0  0  0  0  0  0
    9.1865   -4.6795   26.2254 S   0  0  0  0  0  0  0  0  0  0  0  0
    8.3322   -5.4138   25.3410 O   0  0  0  0  0  0  0  0  0  0  0  0
    8.6414   -4.1665   27.4463 O   0  0  0  0  0  0  0  0  0  0  0  0
    9.8312   -3.3071   25.3176 C   0  0  0  0  0  0  0  0  0  0  0  0
    9.4121   -2.0235   25.6167 C   0  0  0  0  0  0  0  0  0  0  0  0
    9.9218   -0.9529   24.9036 C   0  0  0  0  0  0  0  0  0  0  0  0
   10.8408   -1.1385   23.8744 C   0  0  0  0  0  0  0  0  0  0  0  0
   11.2390   -2.4413   23.5892 C   0  0  0  0  0  0  0  0  0  0  0  0
   10.7476   -3.5193   24.3038 C   0  0  0  0  0  0  0  0  0  0  0  0
   11.3464   -0.0618   23.1525 N   0  0  0  0  0  0  0  0  0  0  0  0
   10.4827    0.8409   22.4077 C   0  0  0  0  0  0  0  0  0  0  0  0
   10.8949    2.2831   22.6534 C   0  0  0  0  0  0  0  0  0  0  0  0
   12.3497    2.5269   22.4012 C   0  0  0  0  0  0  0  0  0  0  0  0
   13.1865    1.5330   23.1911 C   0  0  0  0  0  0  0  0  0  0  0  0
   12.7708    0.0967   22.8855 C   0  0  0  0  0  0  0  0  0  0  0  0
   12.7500    3.9425   22.7316 C   0  0  0  0  0  0  0  0  0  0  0  0
   12.5962    4.5500   23.9710 C   0  0  0  0  0  0  0  0  0  0  0  0
   13.0474    5.8665   24.0154 C   0  0  0  0  0  0  0  0  0  0  0  0
   13.5413    6.2645   22.8267 C   0  0  0  0  0  0  0  0  0  0  0  0
   14.1964    7.8042   22.4502 Cl  0  0  0  0  0  0  0  0  0  0  0  0
   13.4725    5.0508   21.6186 S   0  0  0  0  0  0  0  0  0  0  0  0
  1  2  1  0
  2  3  2  0
  2  4  2  0
  2  5  1  0
  5  6  2  0
  6  7  1  0
  7  8  2  0
  8  9  1  0
  9 10  2  0
  8 11  1  0
 11 12  1  0
 12 13  1  0
 13 14  1  0
 14 15  1  0
 15 16  1  0
 14 17  1  0
 17 18  2  0
 18 19  1  0
 19 20  2  0
 20 21  1  0
 20 22  1  0
 10  5  1  0
 16 11  1  0
 22 17  1  0
M  END
