CVD-0001488|dock_bobby27042020.9|mol2|32|dock2
     RDKit          3D

 22 23  0  0  0  0  0  0  0  0999 V2000
    8.1019   -0.2940   18.4374 C   0  0  0  0  0  0  0  0  0  0  0  0
    7.8914   -1.2763   19.5467 C   0  0  0  0  0  0  0  0  0  0  0  0
    9.1527   -1.6822   20.1448 N   0  0  0  0  0  0  0  0  0  0  0  0
    9.2585   -2.2687   21.3871 C   0  0  0  0  0  0  0  0  0  0  0  0
    8.2221   -3.0599   21.8851 C   0  0  0  0  0  0  0  0  0  0  0  0
    8.3343   -3.6654   23.1237 C   0  0  0  0  0  0  0  0  0  0  0  0
    9.4788   -3.4935   23.8909 C   0  0  0  0  0  0  0  0  0  0  0  0
   10.5099   -2.6978   23.4025 C   0  0  0  0  0  0  0  0  0  0  0  0
   10.4156   -2.0743   22.1626 C   0  0  0  0  0  0  0  0  0  0  0  0
   11.5661   -1.2071   21.7019 C   0  0  0  0  0  0  0  0  0  0  0  0
   11.9759   -0.2102   22.7028 N   0  0  0  0  0  0  0  0  0  0  0  0
   10.8668    0.6999   23.0039 C   0  0  0  0  0  0  0  0  0  0  0  0
   11.2820    1.7002   24.0666 C   0  0  0  0  0  0  0  0  0  0  0  0
   12.4538    2.4594   23.6247 N   0  0  0  0  0  0  0  0  0  0  0  0
   13.5630    1.5734   23.2583 C   0  0  0  0  0  0  0  0  0  0  0  0
   13.1117    0.5678   22.2147 C   0  0  0  0  0  0  0  0  0  0  0  0
   12.4847    3.8198   23.5983 C   0  0  0  0  0  0  0  0  0  0  0  0
   13.7181    4.5268   23.1158 C   0  0  0  0  0  0  0  0  0  0  0  0
   11.5077    4.4699   23.9533 O   0  0  0  0  0  0  0  0  0  0  0  0
    9.6019   -4.1266   25.1743 C   0  0  0  0  0  0  0  0  0  0  0  0
    9.7033   -4.6812   26.2230 C   0  0  0  0  0  0  0  0  0  0  0  0
    9.7919   -5.3704   27.5112 C   0  0  0  0  0  0  0  0  0  0  0  0
  1  2  1  0
  2  3  1  0
  3  4  1  0
  4  5  2  0
  5  6  1  0
  6  7  2  0
  7  8  1  0
  8  9  2  0
  9 10  1  0
 10 11  1  0
 11 12  1  0
 12 13  1  0
 13 14  1  0
 14 15  1  0
 15 16  1  0
 14 17  1  0
 17 18  1  0
 17 19  2  0
  7 20  1  0
 20 21  3  0
 21 22  1  0
  9  4  1  0
 16 11  1  0
M  END
