CVD-0001692|dock_bobby27042020.23|mol2|10|dock1
     RDKit          3D

 22 23  0  0  0  0  0  0  0  0999 V2000
    9.8920   -1.8731   23.8133 C   0  0  0  0  0  0  0  0  0  0  0  0
    8.5480   -2.4827   24.2118 C   0  0  0  0  0  0  0  0  0  0  0  0
    8.7864   -3.6013   25.2093 C   0  0  0  0  0  0  0  0  0  0  0  0
    9.7811   -4.5186   25.1854 C   0  0  0  0  0  0  0  0  0  0  0  0
   10.7468   -4.7165   24.2967 O   0  0  0  0  0  0  0  0  0  0  0  0
    9.6351   -5.4041   26.4063 C   0  0  0  0  0  0  0  0  0  0  0  0
    8.4326   -4.8775   27.1188 C   0  0  0  0  0  0  0  0  0  0  0  0
    7.9753   -5.3756   28.2585 O   0  0  0  0  0  0  0  0  0  0  0  0
    7.9670   -3.8409   26.4159 C   0  0  0  0  0  0  0  0  0  0  0  0
    7.5839   -2.7661   23.0161 C   0  0  0  0  0  0  0  0  0  0  0  0
    8.0689   -4.0712   22.3647 C   0  0  0  0  0  0  0  0  0  0  0  0
    7.2182   -4.3181   21.1522 C   0  0  0  0  0  0  0  0  0  0  0  0
    6.4559   -3.4422   20.5363 C   0  0  0  0  0  0  0  0  0  0  0  0
    5.7316   -3.7430   19.4682 O   0  0  0  0  0  0  0  0  0  0  0  0
    6.3084   -2.0106   20.9678 C   0  0  0  0  0  0  0  0  0  0  0  0
    7.4385   -1.6830   21.9620 C   0  0  0  0  0  0  0  0  0  0  0  0
    8.6660   -1.3089   21.1726 C   0  0  0  0  0  0  0  0  0  0  0  0
    9.1812   -2.2857   20.4682 O   0  0  0  0  0  0  0  0  0  0  0  0
    9.1538   -0.2008   21.2079 O   0  0  0  0  0  0  0  0  0  0  0  0
    6.2164   -3.0792   23.6220 C   0  0  0  0  0  0  0  0  0  0  0  0
    5.6707   -2.1320   24.3419 O   0  0  0  0  0  0  0  0  0  0  0  0
    5.6475   -4.1396   23.4635 O   0  0  0  0  0  0  0  0  0  0  0  0
  2  1  1  0
  2  3  1  0
  3  4  2  0
  4  5  1  0
  4  6  1  0
  6  7  1  0
  7  8  1  0
  7  9  2  0
  2 10  1  0
 10 11  1  0
 11 12  1  0
 12 13  2  0
 13 14  1  0
 13 15  1  0
 15 16  1  0
 16 17  1  0
 17 18  1  0
 17 19  2  0
 10 20  1  0
 20 21  1  0
 20 22  2  0
  9  3  1  0
 16 10  1  0
M  END
