CVD-0001019|dock_bobby27042020.82|mol2|24|dock3
     RDKit          3D

 23 25  0  0  0  0  0  0  0  0999 V2000
   11.4642   -2.7966   22.5486 O   0  0  0  0  0  0  0  0  0  0  0  0
   11.1261   -1.7201   22.1202 C   0  0  0  0  0  0  0  0  0  0  0  0
   11.9613   -0.8371   21.5547 O   0  0  0  0  0  0  0  0  0  0  0  0
   13.3741   -1.1528   21.6699 C   0  0  0  0  0  0  0  0  0  0  0  0
   13.7060   -1.4132   23.1102 C   0  0  0  0  0  0  0  0  0  0  0  0
   14.1684   -2.6552   23.5165 C   0  0  0  0  0  0  0  0  0  0  0  0
   14.4716   -2.8965   24.8461 C   0  0  0  0  0  0  0  0  0  0  0  0
   14.3148   -1.8987   25.7839 C   0  0  0  0  0  0  0  0  0  0  0  0
   13.8545   -0.6598   25.3928 C   0  0  0  0  0  0  0  0  0  0  0  0
   13.5513   -0.4185   24.0632 C   0  0  0  0  0  0  0  0  0  0  0  0
    9.8553   -1.2640   22.1538 N   0  0  0  0  0  0  0  0  0  0  0  0
    9.3979    0.0311   21.6403 C   0  0  0  0  0  0  0  0  0  0  0  0
    8.2419   -0.1511   20.6775 C   0  0  0  0  0  0  0  0  0  0  0  0
    7.1075   -0.9758   21.2819 C   0  0  0  0  0  0  0  0  0  0  0  0
    5.9795   -1.2569   20.2812 C   0  0  0  0  0  0  0  0  0  0  0  0
    5.3346   -0.0231   19.6975 C   0  0  0  0  0  0  0  0  0  0  0  0
    5.6578    0.4090   18.4206 C   0  0  0  0  0  0  0  0  0  0  0  0
    5.0642    1.5393   17.8839 C   0  0  0  0  0  0  0  0  0  0  0  0
    4.1394    2.2503   18.6182 C   0  0  0  0  0  0  0  0  0  0  0  0
    3.8082    1.8308   19.8886 C   0  0  0  0  0  0  0  0  0  0  0  0
    4.4022    0.7005   20.4247 C   0  0  0  0  0  0  0  0  0  0  0  0
    7.6641   -2.2618   21.8791 C   0  0  0  0  0  0  0  0  0  0  0  0
    8.8053   -2.0088   22.8393 C   0  0  0  0  0  0  0  0  0  0  0  0
  1  2  2  0
  2  3  1  0
  3  4  1  0
  4  5  1  0
  5  6  2  0
  6  7  1  0
  7  8  2  0
  8  9  1  0
  9 10  2  0
  2 11  1  0
 11 12  1  0
 12 13  1  0
 13 14  1  0
 14 15  1  0
 15 16  1  0
 16 17  2  0
 17 18  1  0
 18 19  2  0
 19 20  1  0
 20 21  2  0
 14 22  1  0
 22 23  1  0
 10  5  1  0
 23 11  1  0
 21 16  1  0
M  END
