CVD-0003292|dock_bobby27042020.45|mol2|41|dock1
     RDKit          3D

 16 17  0  0  0  0  0  0  0  0999 V2000
    9.1390   -0.9570   21.2495 C   0  0  0  0  0  0  0  0  0  0  0  0
   10.1840   -0.0599   21.7384 N   0  0  0  0  0  0  0  0  0  0  0  0
   10.1435    1.3216   21.7475 C   0  0  0  0  0  0  0  0  0  0  0  0
    9.1151    1.9834   21.2666 O   0  0  0  0  0  0  0  0  0  0  0  0
   11.3125    1.8257   22.3195 C   0  0  0  0  0  0  0  0  0  0  0  0
   11.7098    3.2058   22.5331 C   0  0  0  0  0  0  0  0  0  0  0  0
   12.9053    3.7296   22.2752 C   0  0  0  0  0  0  0  0  0  0  0  0
   13.3029    5.1459   22.4979 C   0  0  0  0  0  0  0  0  0  0  0  0
   14.3226    5.6450   21.8018 N   0  0  0  0  0  0  0  0  0  0  0  0
   12.6933    5.8475   23.3180 O   0  0  0  0  0  0  0  0  0  0  0  0
   12.0998    0.6595   22.6840 C   0  0  0  0  0  0  0  0  0  0  0  0
   13.3459    0.4833   23.2831 C   0  0  0  0  0  0  0  0  0  0  0  0
   13.8309   -0.7949   23.5093 C   0  0  0  0  0  0  0  0  0  0  0  0
   13.0944   -1.9047   23.1484 C   0  0  0  0  0  0  0  0  0  0  0  0
   11.8532   -1.7677   22.5480 C   0  0  0  0  0  0  0  0  0  0  0  0
   11.3709   -0.4838   22.3194 C   0  0  0  0  0  0  0  0  0  0  0  0
  1  2  1  0
  2  3  1  0
  3  4  1  0
  3  5  2  0
  5  6  1  0
  6  7  2  0
  7  8  1  0
  8  9  1  0
  8 10  2  0
  5 11  1  0
 11 12  2  0
 12 13  1  0
 13 14  2  0
 14 15  1  0
 15 16  2  0
 16  2  1  0
 16 11  1  0
M  END
