CVD-0000969|dock_bobby27042020.54|mol2|14|dock2
     RDKit          3D

 29 32  0  0  0  0  0  0  0  0999 V2000
   12.3273   -1.8061   21.1228 N   0  0  0  0  0  0  0  0  0  0  0  0
   11.4377   -1.6819   22.4481 S   0  0  0  0  0  0  0  0  0  0  0  0
   12.2356   -0.9731   23.4003 O   0  0  0  0  0  0  0  0  0  0  0  0
   10.9739   -3.0031   22.7503 O   0  0  0  0  0  0  0  0  0  0  0  0
   10.0246   -0.6776   22.0694 C   0  0  0  0  0  0  0  0  0  0  0  0
    8.8985   -1.4186   21.7341 C   0  0  0  0  0  0  0  0  0  0  0  0
    7.7337   -0.8005   21.3166 C   0  0  0  0  0  0  0  0  0  0  0  0
    7.7168    0.5802   21.2400 C   0  0  0  0  0  0  0  0  0  0  0  0
    8.8131    1.3357   21.6121 C   0  0  0  0  0  0  0  0  0  0  0  0
    9.9842    0.7351   22.0783 C   0  0  0  0  0  0  0  0  0  0  0  0
   11.0332    1.5864   22.5218 N   0  0  0  0  0  0  0  0  0  0  0  0
   10.8091    2.2940   23.7775 C   0  0  0  0  0  0  0  0  0  0  0  0
   11.9770    3.1478   24.1819 C   0  0  0  0  0  0  0  0  0  0  0  0
   12.3715    4.0652   23.1381 N   0  0  0  0  0  0  0  0  0  0  0  0
   13.4563    4.9332   23.6057 C   0  0  0  0  0  0  0  0  0  0  0  0
   13.8714    6.0223   22.7045 C   0  0  0  0  0  0  0  0  0  0  0  0
   14.1886    6.8857   22.0378 N   0  0  0  0  0  0  0  0  0  0  0  0
   12.7766    3.2621   22.0008 C   0  0  0  0  0  0  0  0  0  0  0  0
   11.6275    2.4371   21.4998 C   0  0  0  0  0  0  0  0  0  0  0  0
    6.5065   -1.6202   20.9426 C   0  0  0  0  0  0  0  0  0  0  0  0
    6.3187   -1.7498   19.5043 N   0  0  0  0  0  0  0  0  0  0  0  0
    6.3237   -3.0193   19.0548 C   0  0  0  0  0  0  0  0  0  0  0  0
    6.2029   -3.3727   17.8867 O   0  0  0  0  0  0  0  0  0  0  0  0
    6.4867   -3.8835   20.2445 C   0  0  0  0  0  0  0  0  0  0  0  0
    6.5311   -5.2716   20.3670 C   0  0  0  0  0  0  0  0  0  0  0  0
    6.6849   -5.8343   21.6256 C   0  0  0  0  0  0  0  0  0  0  0  0
    6.7929   -5.0315   22.7436 C   0  0  0  0  0  0  0  0  0  0  0  0
    6.7485   -3.6516   22.6187 C   0  0  0  0  0  0  0  0  0  0  0  0
    6.5944   -3.0728   21.3615 C   0  0  0  0  0  0  0  0  0  0  0  0
  1  2  1  0
  2  3  2  0
  2  4  2  0
  2  5  1  0
  5  6  2  0
  6  7  1  0
  7  8  2  0
  8  9  1  0
  9 10  2  0
 10 11  1  0
 11 12  1  0
 12 13  1  0
 13 14  1  0
 14 15  1  0
 15 16  1  0
 16 17  3  0
 14 18  1  0
 18 19  1  0
  7 20  1  0
 20 21  1  0
 21 22  1  0
 22 23  2  0
 22 24  1  0
 24 25  2  0
 25 26  1  0
 26 27  2  0
 27 28  1  0
 28 29  2  0
 10  5  1  0
 19 11  1  0
 29 20  1  0
 29 24  1  0
M  END
