CVD-0001668|dock_bobby27042020.66|mol2|25|dock1
     RDKit          3D

 52 57  0  0  0  0  0  0  0  0999 V2000
   12.8795    7.1548   23.9843 N   0  0  0  0  0  0  0  0  0  0  0  0
   13.4269    6.2500   23.1684 C   0  0  0  0  0  0  0  0  0  0  0  0
   14.7307    6.3143   22.9385 N   0  0  0  0  0  0  0  0  0  0  0  0
   12.6328    5.3295   22.6283 N   0  0  0  0  0  0  0  0  0  0  0  0
   13.0390    4.2652   21.7196 C   0  0  0  0  0  0  0  0  0  0  0  0
   12.9425    2.8962   22.3634 C   0  0  0  0  0  0  0  0  0  0  0  0
   11.6794    2.1582   21.9409 C   0  0  0  0  0  0  0  0  0  0  0  0
   11.4401    0.8520   22.7033 C   0  0  0  0  0  0  0  0  0  0  0  0
   10.5513   -0.0846   22.0069 N   0  0  0  0  0  0  0  0  0  0  0  0
    9.6500    0.3537   21.1259 C   0  0  0  0  0  0  0  0  0  0  0  0
    9.5598    1.5559   20.8910 O   0  0  0  0  0  0  0  0  0  0  0  0
    8.7806   -0.7022   20.4290 C   0  0  0  0  0  0  0  0  0  0  0  0
    8.1894   -1.6188   21.3914 N   0  0  0  0  0  0  0  0  0  0  0  0
    7.4284   -1.1125   22.3693 C   0  0  0  0  0  0  0  0  0  0  0  0
    7.2777    0.1036   22.4425 O   0  0  0  0  0  0  0  0  0  0  0  0
    6.8114   -2.0956   23.3403 C   0  0  0  0  0  0  0  0  0  0  0  0
    6.6876   -1.4165   24.6280 N   0  0  0  0  0  0  0  0  0  0  0  0
    6.7508   -2.0991   25.7807 C   0  0  0  0  0  0  0  0  0  0  0  0
    6.6635   -3.3242   25.7449 O   0  0  0  0  0  0  0  0  0  0  0  0
    6.9316   -1.2231   27.0457 C   0  0  0  0  0  0  0  0  0  0  0  0
    8.0223   -0.2712   26.8445 N   0  0  0  0  0  0  0  0  0  0  0  0
    9.2346   -0.7175   26.4726 C   0  0  0  0  0  0  0  0  0  0  0  0
    9.3639   -1.9205   26.2677 O   0  0  0  0  0  0  0  0  0  0  0  0
   10.3441    0.3120   26.3285 C   0  0  0  0  0  0  0  0  0  0  0  0
   10.8736    0.1995   24.9766 N   0  0  0  0  0  0  0  0  0  0  0  0
   10.8690    1.1838   24.0770 C   0  0  0  0  0  0  0  0  0  0  0  0
   10.4149    2.2874   24.3675 O   0  0  0  0  0  0  0  0  0  0  0  0
    5.5883   -0.5091   27.3450 C   0  0  0  0  0  0  0  0  0  0  0  0
    5.5122    0.1864   28.7286 C   0  0  0  0  0  0  0  0  0  0  0  0
    4.5582    1.3799   28.7756 C   0  0  0  0  0  0  0  0  0  0  0  0
    4.5428    2.0252   30.1611 C   0  0  0  0  0  0  0  0  0  0  0  0
    4.1885    1.0147   31.2346 C   0  0  0  0  0  0  0  0  0  0  0  0
    5.1146   -0.1835   31.1971 C   0  0  0  0  0  0  0  0  0  0  0  0
    5.1425   -0.8270   29.8144 C   0  0  0  0  0  0  0  0  0  0  0  0
    4.4307   -1.4551   27.1100 C   0  0  0  0  0  0  0  0  0  0  0  0
    3.2776   -1.0088   26.4790 C   0  0  0  0  0  0  0  0  0  0  0  0
    2.2112   -1.8643   26.2578 C   0  0  0  0  0  0  0  0  0  0  0  0
    2.2825   -3.1791   26.6647 C   0  0  0  0  0  0  0  0  0  0  0  0
    3.4202   -3.6380   27.2926 C   0  0  0  0  0  0  0  0  0  0  0  0
    4.4863   -2.7821   27.5134 C   0  0  0  0  0  0  0  0  0  0  0  0
    7.5141   -3.4552   23.3935 C   0  0  0  0  0  0  0  0  0  0  0  0
    8.8212   -3.5363   23.8425 C   0  0  0  0  0  0  0  0  0  0  0  0
    9.5384   -4.6615   23.9142 N   0  0  0  0  0  0  0  0  0  0  0  0
    8.9617   -5.8052   23.5386 C   0  0  0  0  0  0  0  0  0  0  0  0
    7.6497   -5.8652   23.0934 C   0  0  0  0  0  0  0  0  0  0  0  0
    6.8333   -6.8876   22.6722 N   0  0  0  0  0  0  0  0  0  0  0  0
    5.5992   -6.3771   22.3529 C   0  0  0  0  0  0  0  0  0  0  0  0
    5.5865   -5.0377   22.5499 C   0  0  0  0  0  0  0  0  0  0  0  0
    6.8958   -4.6757   23.0193 C   0  0  0  0  0  0  0  0  0  0  0  0
    7.7795    0.0046   19.5022 C   0  0  0  0  0  0  0  0  0  0  0  0
    8.0300    0.2194   18.0590 C   0  0  0  0  0  0  0  0  0  0  0  0
    6.9271   -0.6709   18.4820 C   0  0  0  0  0  0  0  0  0  0  0  0
  1  2  1  0
  2  3  2  0
  2  4  1  0
  4  5  1  0
  5  6  1  0
  6  7  1  0
  8  7  1  0
  8  9  1  0
  9 10  1  0
 10 11  2  0
 10 12  1  0
 12 13  1  0
 13 14  1  0
 14 15  2  0
 14 16  1  0
 16 17  1  0
 17 18  1  0
 18 19  2  0
 18 20  1  0
 20 21  1  0
 21 22  1  0
 22 23  2  0
 22 24  1  0
 24 25  1  0
 25 26  1  0
 26 27  2  0
 20 28  1  0
 28 29  1  0
 29 30  1  0
 30 31  1  0
 31 32  1  0
 32 33  1  0
 33 34  1  0
 28 35  1  0
 35 36  2  0
 36 37  1  0
 37 38  2  0
 38 39  1  0
 39 40  2  0
 16 41  1  0
 41 42  2  0
 42 43  1  0
 43 44  2  0
 44 45  1  0
 45 46  1  0
 46 47  1  0
 47 48  2  0
 48 49  1  0
 12 50  1  0
 50 51  1  0
 51 52  1  0
 26  8  1  0
 34 29  1  0
 40 35  1  0
 49 41  1  0
 52 50  1  0
 49 45  2  0
M  END
