CVD-0002646|dock_bobby27042020.90|mol2|35|dock1
     RDKit          3D

 26 29  0  0  0  0  0  0  0  0999 V2000
    6.8424   -4.8975   21.1273 C   0  0  0  0  0  0  0  0  0  0  0  0
    6.4552   -4.0179   19.9751 C   0  0  0  0  0  0  0  0  0  0  0  0
    6.1124   -4.5028   18.9022 O   0  0  0  0  0  0  0  0  0  0  0  0
    6.5124   -2.6901   20.2575 N   0  0  0  0  0  0  0  0  0  0  0  0
    6.2163   -1.5505   19.4595 C   0  0  0  0  0  0  0  0  0  0  0  0
    5.2905   -1.5518   18.4166 C   0  0  0  0  0  0  0  0  0  0  0  0
    5.0107   -0.4821   17.6655 N   0  0  0  0  0  0  0  0  0  0  0  0
    5.6565    0.6493   17.9345 C   0  0  0  0  0  0  0  0  0  0  0  0
    6.5906    0.7650   18.9399 C   0  0  0  0  0  0  0  0  0  0  0  0
    6.8884   -0.3432   19.7257 C   0  0  0  0  0  0  0  0  0  0  0  0
    7.9283   -0.1580   20.8111 C   0  0  0  0  0  0  0  0  0  0  0  0
    9.2081   -0.9412   20.5230 C   0  0  0  0  0  0  0  0  0  0  0  0
   10.1792   -0.9868   21.7050 C   0  0  0  0  0  0  0  0  0  0  0  0
   11.2580   -1.9415   21.4526 N   0  0  0  0  0  0  0  0  0  0  0  0
   12.5532   -1.4423   22.0608 C   0  0  0  0  0  0  0  0  0  0  0  0
   12.3097    0.0355   22.1028 C   0  0  0  0  0  0  0  0  0  0  0  0
   12.8625    1.2639   22.2962 C   0  0  0  0  0  0  0  0  0  0  0  0
   11.8565    2.1573   22.2844 N   0  0  0  0  0  0  0  0  0  0  0  0
   10.6346    1.5815   22.0895 N   0  0  0  0  0  0  0  0  0  0  0  0
   10.9066    0.3042   21.9799 C   0  0  0  0  0  0  0  0  0  0  0  0
   11.9361    3.6190   22.4511 C   0  0  0  0  0  0  0  0  0  0  0  0
   12.0734    3.9777   23.9124 C   0  0  0  0  0  0  0  0  0  0  0  0
   12.2485    5.4820   24.0933 C   0  0  0  0  0  0  0  0  0  0  0  0
   13.4183    5.9993   23.2972 C   0  0  0  0  0  0  0  0  0  0  0  0
   13.2977    5.6261   21.8386 C   0  0  0  0  0  0  0  0  0  0  0  0
   13.1180    4.1256   21.6516 C   0  0  0  0  0  0  0  0  0  0  0  0
  1  2  1  0
  2  3  2  0
  2  4  1  0
  4  5  1  0
  5  6  2  0
  6  7  1  0
  7  8  2  0
  8  9  1  0
  9 10  2  0
 10 11  1  0
 11 12  1  0
 12 13  1  0
 13 14  1  0
 14 15  1  0
 15 16  1  0
 16 17  2  0
 17 18  1  0
 18 19  1  0
 19 20  2  0
 18 21  1  0
 21 22  1  0
 22 23  1  0
 23 24  1  0
 24 25  1  0
 25 26  1  0
 10  5  1  0
 20 13  1  0
 26 21  1  0
 20 16  1  0
M  END
