CVD-0000128|dock_bobby27042020.14|mol2|8|dock3
     RDKit          3D

 23 24  0  0  0  0  0  0  0  0999 V2000
    4.7442   -5.7442   22.6724 C   0  0  0  0  0  0  0  0  0  0  0  0
    6.2968   -5.8725   21.8724 S   0  0  0  0  0  0  0  0  0  0  0  0
    6.7428   -7.2269   21.9835 O   0  0  0  0  0  0  0  0  0  0  0  0
    6.1726   -5.2991   20.5679 O   0  0  0  0  0  0  0  0  0  0  0  0
    7.3393   -4.9664   22.6864 N   0  0  0  0  0  0  0  0  0  0  0  0
    7.8855   -3.7532   22.0665 C   0  0  0  0  0  0  0  0  0  0  0  0
    8.9096   -3.1183   22.9951 C   0  0  0  0  0  0  0  0  0  0  0  0
    9.7416   -2.0408   22.2734 C   0  0  0  0  0  0  0  0  0  0  0  0
    8.9240   -0.8170   21.8655 C   0  0  0  0  0  0  0  0  0  0  0  0
    9.4194    0.4772   22.0946 O   0  0  0  0  0  0  0  0  0  0  0  0
    8.6345   -0.6541   20.3957 N   0  0  0  0  0  0  0  0  0  0  0  0
    7.5279   -0.0197   19.9122 C   0  0  0  0  0  0  0  0  0  0  0  0
    7.4258    0.3197   18.5633 C   0  0  0  0  0  0  0  0  0  0  0  0
    6.2736    0.9626   18.1435 C   0  0  0  0  0  0  0  0  0  0  0  0
    5.2752    1.2457   19.0496 C   0  0  0  0  0  0  0  0  0  0  0  0
    5.4652    0.8718   20.3598 C   0  0  0  0  0  0  0  0  0  0  0  0
    6.5659    0.2492   20.8004 N   0  0  0  0  0  0  0  0  0  0  0  0
   10.8956   -1.6176   23.1599 C   0  0  0  0  0  0  0  0  0  0  0  0
   10.6639   -1.0086   24.3854 C   0  0  0  0  0  0  0  0  0  0  0  0
   11.7186   -0.6248   25.1966 C   0  0  0  0  0  0  0  0  0  0  0  0
   13.0181   -0.8456   24.7936 C   0  0  0  0  0  0  0  0  0  0  0  0
   13.2636   -1.4506   23.5796 C   0  0  0  0  0  0  0  0  0  0  0  0
   12.2092   -1.8347   22.7678 C   0  0  0  0  0  0  0  0  0  0  0  0
  1  2  1  0
  2  3  2  0
  2  4  2  0
  2  5  1  0
  5  6  1  0
  6  7  1  0
  7  8  1  0
  8  9  1  0
  9 10  1  0
  9 11  1  0
 11 12  1  0
 12 13  2  0
 13 14  1  0
 14 15  2  0
 15 16  1  0
 16 17  2  0
  8 18  1  0
 18 19  2  0
 19 20  1  0
 20 21  2  0
 21 22  1  0
 22 23  2  0
 17 12  1  0
 23 18  1  0
M  END
