CVD-0002965|dock_bobby27042020.61|mol2|23|dock2
     RDKit          3D

 25 27  0  0  0  0  0  0  0  0999 V2000
    7.7087   -3.9250   22.4113 C   0  0  0  0  0  0  0  0  0  0  0  0
    7.6590   -2.5330   22.8042 O   0  0  0  0  0  0  0  0  0  0  0  0
    8.5592   -1.7360   22.2340 C   0  0  0  0  0  0  0  0  0  0  0  0
    9.3843   -2.1247   21.4487 O   0  0  0  0  0  0  0  0  0  0  0  0
    8.3970   -0.2924   22.6844 C   0  0  0  0  0  0  0  0  0  0  0  0
    8.3474    0.6937   21.5285 C   0  0  0  0  0  0  0  0  0  0  0  0
    9.6491    0.8633   20.9407 O   0  0  0  0  0  0  0  0  0  0  0  0
   10.6095    1.3964   21.8252 C   0  0  0  0  0  0  0  0  0  0  0  0
   10.2009    2.7916   22.2739 C   0  0  0  0  0  0  0  0  0  0  0  0
   11.3650    3.7094   22.5582 C   0  0  0  0  0  0  0  0  0  0  0  0
   12.3007    3.9942   21.5760 C   0  0  0  0  0  0  0  0  0  0  0  0
   13.3667    4.8388   21.8370 C   0  0  0  0  0  0  0  0  0  0  0  0
   13.5116    5.4134   23.0886 C   0  0  0  0  0  0  0  0  0  0  0  0
   12.5782    5.1281   24.0607 C   0  0  0  0  0  0  0  0  0  0  0  0
   12.7457    5.8431   25.6397 Cl  0  0  0  0  0  0  0  0  0  0  0  0
   11.5121    4.2881   23.8123 C   0  0  0  0  0  0  0  0  0  0  0  0
   10.8179    0.4632   23.0350 C   0  0  0  0  0  0  0  0  0  0  0  0
    9.4731    0.1219   23.6488 C   0  0  0  0  0  0  0  0  0  0  0  0
    9.2727    0.1769   24.8428 O   0  0  0  0  0  0  0  0  0  0  0  0
    7.4104    0.3576   20.3864 C   0  0  0  0  0  0  0  0  0  0  0  0
    6.0520    0.5923   20.5442 C   0  0  0  0  0  0  0  0  0  0  0  0
    5.1655    0.3036   19.5217 C   0  0  0  0  0  0  0  0  0  0  0  0
    5.6639   -0.2183   18.3511 C   0  0  0  0  0  0  0  0  0  0  0  0
    6.9605   -0.4595   18.1593 N   0  0  0  0  0  0  0  0  0  0  0  0
    7.7963   -0.1762   19.1632 C   0  0  0  0  0  0  0  0  0  0  0  0
  1  2  1  0
  2  3  1  0
  3  4  2  0
  3  5  1  0
  5  6  1  0
  6  7  1  0
  7  8  1  0
  8  9  1  0
  9 10  1  0
 10 11  2  0
 11 12  1  0
 12 13  2  0
 13 14  1  0
 14 15  1  0
 14 16  2  0
  8 17  1  0
 17 18  1  0
 18 19  2  0
  6 20  1  0
 20 21  2  0
 21 22  1  0
 22 23  2  0
 23 24  1  0
 24 25  2  0
 18  5  1  0
 25 20  1  0
 16 10  1  0
M  END
