CVD-0003885|dock_bobby27042020.15|mol2|15|dock3
     RDKit          3D

 25 28  0  0  0  0  0  0  0  0999 V2000
   10.4208   -5.7831   26.4885 N   0  0  0  0  0  0  0  0  0  0  0  0
    9.2017   -4.8395   26.0564 S   0  0  0  0  0  0  0  0  0  0  0  0
    8.5882   -4.3627   27.2595 O   0  0  0  0  0  0  0  0  0  0  0  0
    8.4073   -5.5764   25.1200 O   0  0  0  0  0  0  0  0  0  0  0  0
    9.8548   -3.4356   25.2048 C   0  0  0  0  0  0  0  0  0  0  0  0
   10.7960   -3.6116   24.2063 C   0  0  0  0  0  0  0  0  0  0  0  0
   11.3023   -2.5091   23.5410 C   0  0  0  0  0  0  0  0  0  0  0  0
   10.8769   -1.2215   23.8537 C   0  0  0  0  0  0  0  0  0  0  0  0
    9.9263   -1.0698   24.8586 C   0  0  0  0  0  0  0  0  0  0  0  0
    9.4170   -2.1650   25.5334 C   0  0  0  0  0  0  0  0  0  0  0  0
   11.3868   -0.1187   23.1817 N   0  0  0  0  0  0  0  0  0  0  0  0
   10.5427    0.7556   22.3825 C   0  0  0  0  0  0  0  0  0  0  0  0
   10.8739    2.2108   22.6702 C   0  0  0  0  0  0  0  0  0  0  0  0
   12.3316    2.5183   22.5286 C   0  0  0  0  0  0  0  0  0  0  0  0
   13.1496    1.5512   23.3699 C   0  0  0  0  0  0  0  0  0  0  0  0
   12.8191    0.1024   23.0222 C   0  0  0  0  0  0  0  0  0  0  0  0
   12.6443    3.9389   22.8979 C   0  0  0  0  0  0  0  0  0  0  0  0
   12.4113    4.4263   24.0757 N   0  0  0  0  0  0  0  0  0  0  0  0
   12.7935    5.7636   24.1480 C   0  0  0  0  0  0  0  0  0  0  0  0
   12.6946    6.6126   25.2521 C   0  0  0  0  0  0  0  0  0  0  0  0
   13.1256    7.9266   25.1518 C   0  0  0  0  0  0  0  0  0  0  0  0
   13.6536    8.4137   23.9745 C   0  0  0  0  0  0  0  0  0  0  0  0
   13.7622    7.5920   22.8663 C   0  0  0  0  0  0  0  0  0  0  0  0
   13.3313    6.2721   22.9602 C   0  0  0  0  0  0  0  0  0  0  0  0
   13.3523    5.0376   21.7357 S   0  0  0  0  0  0  0  0  0  0  0  0
  1  2  1  0
  2  3  2  0
  2  4  2  0
  2  5  1  0
  5  6  2  0
  6  7  1  0
  7  8  2  0
  8  9  1  0
  9 10  2  0
  8 11  1  0
 11 12  1  0
 12 13  1  0
 13 14  1  0
 14 15  1  0
 15 16  1  0
 14 17  1  0
 17 18  2  0
 18 19  1  0
 19 20  2  0
 20 21  1  0
 21 22  2  0
 22 23  1  0
 23 24  2  0
 24 25  1  0
 10  5  1  0
 16 11  1  0
 25 17  1  0
 24 19  1  0
M  END
