CVD-0000999|dock_bobby27042020.82|mol2|27|dock3
     RDKit          3D

 21 23  0  0  0  0  0  0  0  0999 V2000
    6.5403   -7.4531   21.9792 F   0  0  0  0  0  0  0  0  0  0  0  0
    6.9227   -6.1496   21.9063 C   0  0  0  0  0  0  0  0  0  0  0  0
    7.8408   -5.6836   22.8061 C   0  0  0  0  0  0  0  0  0  0  0  0
    8.2287   -4.3574   22.7307 C   0  0  0  0  0  0  0  0  0  0  0  0
    7.6985   -3.5083   21.7599 C   0  0  0  0  0  0  0  0  0  0  0  0
    6.7677   -4.0337   20.8691 C   0  0  0  0  0  0  0  0  0  0  0  0
    6.3736   -5.3579   20.9365 C   0  0  0  0  0  0  0  0  0  0  0  0
    8.0766   -2.0597   21.6235 C   0  0  0  0  0  0  0  0  0  0  0  0
    7.2263   -1.2755   21.2118 O   0  0  0  0  0  0  0  0  0  0  0  0
    9.3565   -1.6648   21.9632 N   0  0  0  0  0  0  0  0  0  0  0  0
    9.8545   -0.3761   21.8937 C   0  0  0  0  0  0  0  0  0  0  0  0
    9.6279    0.4263   20.8849 N   0  0  0  0  0  0  0  0  0  0  0  0
   10.2374    1.6677   21.0514 N   0  0  0  0  0  0  0  0  0  0  0  0
   10.8962    1.7481   22.1762 C   0  0  0  0  0  0  0  0  0  0  0  0
   10.8364    0.3127   23.1440 S   0  0  0  0  0  0  0  0  0  0  0  0
   11.6231    2.9222   22.6042 C   0  0  0  0  0  0  0  0  0  0  0  0
   11.8792    3.3669   23.8817 C   0  0  0  0  0  0  0  0  0  0  0  0
   12.6169    4.5477   23.9217 C   0  0  0  0  0  0  0  0  0  0  0  0
   12.9187    4.9967   22.6886 C   0  0  0  0  0  0  0  0  0  0  0  0
   13.8898    6.5376   22.2573 Br  0  0  0  0  0  0  0  0  0  0  0  0
   12.3142    3.9953   21.4336 S   0  0  0  0  0  0  0  0  0  0  0  0
  1  2  1  0
  2  3  2  0
  3  4  1  0
  4  5  2  0
  5  6  1  0
  6  7  2  0
  5  8  1  0
  8  9  2  0
  8 10  1  0
 10 11  1  0
 11 12  2  0
 12 13  1  0
 13 14  2  0
 14 15  1  0
 14 16  1  0
 16 17  2  0
 17 18  1  0
 18 19  2  0
 19 20  1  0
 19 21  1  0
  7  2  1  0
 15 11  1  0
 21 16  1  0
M  END
