CVD-0000423|dock_bobby27042020.84|mol2|21|dock3
     RDKit          3D

 27 30  0  0  0  0  0  0  0  0999 V2000
   14.1530    5.5453   21.6496 C   0  0  0  0  0  0  0  0  0  0  0  0
   12.8645    4.8514   22.0263 C   0  0  0  0  0  0  0  0  0  0  0  0
   13.0819    3.3908   22.3775 C   0  0  0  0  0  0  0  0  0  0  0  0
   11.8407    2.5658   22.5556 C   0  0  0  0  0  0  0  0  0  0  0  0
   10.5592    3.0355   22.5743 C   0  0  0  0  0  0  0  0  0  0  0  0
    9.6700    2.0107   22.7466 N   0  0  0  0  0  0  0  0  0  0  0  0
   10.3776    0.8393   22.8421 C   0  0  0  0  0  0  0  0  0  0  0  0
    9.9328   -0.4759   23.0121 C   0  0  0  0  0  0  0  0  0  0  0  0
    8.5480   -0.6303   23.0872 O   0  0  0  0  0  0  0  0  0  0  0  0
    7.7961   -1.1601   22.0751 C   0  0  0  0  0  0  0  0  0  0  0  0
    7.7558   -0.4178   20.9075 C   0  0  0  0  0  0  0  0  0  0  0  0
    7.0088   -0.8892   19.8369 C   0  0  0  0  0  0  0  0  0  0  0  0
    6.9332   -0.1117   18.5423 C   0  0  0  0  0  0  0  0  0  0  0  0
    5.7619    0.8335   18.4763 C   0  0  0  0  0  0  0  0  0  0  0  0
    5.4209    1.7709   17.5565 C   0  0  0  0  0  0  0  0  0  0  0  0
    4.2536    2.3916   17.9280 N   0  0  0  0  0  0  0  0  0  0  0  0
    3.8997    1.8254   19.0666 C   0  0  0  0  0  0  0  0  0  0  0  0
    4.7800    0.8791   19.4368 N   0  0  0  0  0  0  0  0  0  0  0  0
    6.3340   -2.0869   19.9967 C   0  0  0  0  0  0  0  0  0  0  0  0
    6.4367   -2.7504   21.2021 C   0  0  0  0  0  0  0  0  0  0  0  0
    7.1558   -2.3046   22.2407 N   0  0  0  0  0  0  0  0  0  0  0  0
   10.8542   -1.5075   23.0842 C   0  0  0  0  0  0  0  0  0  0  0  0
   12.1869   -1.1977   22.9979 C   0  0  0  0  0  0  0  0  0  0  0  0
   13.0912   -2.2007   23.0752 F   0  0  0  0  0  0  0  0  0  0  0  0
   12.6472    0.0968   22.8355 C   0  0  0  0  0  0  0  0  0  0  0  0
   14.3441    0.3911   22.7568 Cl  0  0  0  0  0  0  0  0  0  0  0  0
   11.7457    1.1509   22.7396 C   0  0  0  0  0  0  0  0  0  0  0  0
  1  2  1  0
  2  3  1  0
  3  4  1  0
  4  5  2  0
  5  6  1  0
  6  7  1  0
  7  8  2  0
  8  9  1  0
  9 10  1  0
 10 11  2  0
 11 12  1  0
 12 13  1  0
 13 14  1  0
 14 15  2  0
 15 16  1  0
 16 17  2  0
 17 18  1  0
 12 19  2  0
 19 20  1  0
 20 21  2  0
  8 22  1  0
 22 23  2  0
 23 24  1  0
 23 25  1  0
 25 26  1  0
 25 27  2  0
 27  4  1  0
 27  7  1  0
 21 10  1  0
 18 14  1  0
M  END
