CVD-0000037|dock_bobby27042020.14|mol2|23|dock2
     RDKit          3D

 19 20  0  0  0  0  0  0  0  0999 V2000
    5.8366    2.0704   16.9286 O   0  0  0  0  0  0  0  0  0  0  0  0
    5.8698    1.4614   18.1491 C   0  0  0  0  0  0  0  0  0  0  0  0
    4.8280    1.6534   19.0445 C   0  0  0  0  0  0  0  0  0  0  0  0
    4.8834    1.0280   20.2730 C   0  0  0  0  0  0  0  0  0  0  0  0
    3.5819    1.2614   21.4063 Cl  0  0  0  0  0  0  0  0  0  0  0  0
    5.9467    0.2217   20.6239 C   0  0  0  0  0  0  0  0  0  0  0  0
    6.9897    0.0278   19.7274 C   0  0  0  0  0  0  0  0  0  0  0  0
    8.1577   -0.8456   20.0969 C   0  0  0  0  0  0  0  0  0  0  0  0
    9.0839   -0.2003   21.4754 S   0  0  0  0  0  0  0  0  0  0  0  0
    8.4556   -0.6502   22.6810 O   0  0  0  0  0  0  0  0  0  0  0  0
    9.2689    1.2061   21.2785 O   0  0  0  0  0  0  0  0  0  0  0  0
   10.5577   -0.8932   21.4244 N   0  0  0  0  0  0  0  0  0  0  0  0
   11.5644   -0.8040   22.4361 C   0  0  0  0  0  0  0  0  0  0  0  0
   12.7906   -1.4369   22.2888 C   0  0  0  0  0  0  0  0  0  0  0  0
   13.7314   -1.3201   23.2970 C   0  0  0  0  0  0  0  0  0  0  0  0
   13.4145   -0.5777   24.4124 C   0  0  0  0  0  0  0  0  0  0  0  0
   12.2431    0.0397   24.5767 N   0  0  0  0  0  0  0  0  0  0  0  0
   11.3391   -0.0771   23.5994 C   0  0  0  0  0  0  0  0  0  0  0  0
    6.9453    0.6536   18.4882 C   0  0  0  0  0  0  0  0  0  0  0  0
  1  2  1  0
  2  3  2  0
  3  4  1  0
  4  5  1  0
  4  6  2  0
  6  7  1  0
  7  8  1  0
  8  9  1  0
  9 10  2  0
  9 11  2  0
  9 12  1  0
 12 13  1  0
 13 14  2  0
 14 15  1  0
 15 16  2  0
 16 17  1  0
 17 18  2  0
  7 19  2  0
 19  2  1  0
 18 13  1  0
M  END
