CVD-0001801|dock_bobby27042020.66|mol2|6|dock3
     RDKit          3D

 23 25  0  0  0  0  0  0  0  0999 V2000
   14.0249    4.5146   22.8945 N   0  0  0  0  0  0  0  0  0  0  0  0
   12.9026    3.9395   23.2969 C   0  0  0  0  0  0  0  0  0  0  0  0
   12.2849    4.3141   24.2978 O   0  0  0  0  0  0  0  0  0  0  0  0
   12.4046    2.7859   22.4619 C   0  0  0  0  0  0  0  0  0  0  0  0
   11.1665    2.1373   23.0571 C   0  0  0  0  0  0  0  0  0  0  0  0
   10.6551    1.0248   22.2475 N   0  0  0  0  0  0  0  0  0  0  0  0
   11.2594   -0.2583   22.4409 C   0  0  0  0  0  0  0  0  0  0  0  0
   10.2149   -1.3688   22.5338 C   0  0  0  0  0  0  0  0  0  0  0  0
    9.1180   -1.2045   21.4646 C   0  0  0  0  0  0  0  0  0  0  0  0
    8.5431   -2.1840   21.0065 O   0  0  0  0  0  0  0  0  0  0  0  0
    8.8559    0.0843   21.0359 N   0  0  0  0  0  0  0  0  0  0  0  0
    9.5741    1.2098   21.4230 C   0  0  0  0  0  0  0  0  0  0  0  0
    9.2498    2.3294   21.0599 O   0  0  0  0  0  0  0  0  0  0  0  0
    7.7895    0.2724   20.0765 C   0  0  0  0  0  0  0  0  0  0  0  0
    7.8912   -0.3264   18.8302 C   0  0  0  0  0  0  0  0  0  0  0  0
    6.9104   -0.2846   17.9266 N   0  0  0  0  0  0  0  0  0  0  0  0
    5.7943    0.3667   18.2594 C   0  0  0  0  0  0  0  0  0  0  0  0
    5.5810    0.9958   19.4605 C   0  0  0  0  0  0  0  0  0  0  0  0
    4.3250    1.8054   19.7005 C   0  0  0  0  0  0  0  0  0  0  0  0
    4.1766    2.3395   21.0676 N   0  0  0  0  0  0  0  0  0  0  0  0
    4.9045    1.5816   22.0848 C   0  0  0  0  0  0  0  0  0  0  0  0
    6.3839    1.5680   21.7656 C   0  0  0  0  0  0  0  0  0  0  0  0
    6.6076    0.9532   20.4093 C   0  0  0  0  0  0  0  0  0  0  0  0
  1  2  1  0
  2  3  2  0
  2  4  1  0
  4  5  1  0
  5  6  1  0
  6  7  1  0
  7  8  1  0
  8  9  1  0
  9 10  2  0
  9 11  1  0
 11 12  1  0
 12 13  2  0
 11 14  1  0
 14 15  2  0
 15 16  1  0
 16 17  2  0
 17 18  1  0
 18 19  1  0
 19 20  1  0
 20 21  1  0
 21 22  1  0
 22 23  1  0
 12  6  1  0
 23 14  1  0
 23 18  2  0
M  END
