CVD-0003982|dock_bobby27042020.86|mol2|12|dock3
     RDKit          3D

 29 29  0  0  0  0  0  0  0  0999 V2000
   14.1083    5.9340   22.6892 C   0  0  0  0  0  0  0  0  0  0  0  0
   14.0603    5.0359   21.4949 C   0  0  0  0  0  0  0  0  0  0  0  0
   15.0297    4.8654   20.7907 O   0  0  0  0  0  0  0  0  0  0  0  0
   12.7564    4.3913   21.1910 C   0  0  0  0  0  0  0  0  0  0  0  0
   12.5671    3.0676   21.8796 C   0  0  0  0  0  0  0  0  0  0  0  0
   13.5022    2.5204   22.6705 C   0  0  0  0  0  0  0  0  0  0  0  0
   13.1901    1.2034   23.3861 C   0  0  0  0  0  0  0  0  0  0  0  0
   12.3851    0.3415   22.4093 C   0  0  0  0  0  0  0  0  0  0  0  0
   11.2282    1.0829   21.8434 C   0  0  0  0  0  0  0  0  0  0  0  0
   11.3019    2.3819   21.6205 C   0  0  0  0  0  0  0  0  0  0  0  0
   10.0216    0.2521   21.5604 C   0  0  0  0  0  0  0  0  0  0  0  0
    8.9517    0.8276   21.3863 O   0  0  0  0  0  0  0  0  0  0  0  0
   10.0449   -1.2903   21.4633 C   0  0  0  0  0  0  0  0  0  0  0  0
   11.0922   -1.8601   21.1754 O   0  0  0  0  0  0  0  0  0  0  0  0
    8.7851   -2.1508   21.7041 C   0  0  0  0  0  0  0  0  0  0  0  0
    8.7195   -2.8122   22.7359 O   0  0  0  0  0  0  0  0  0  0  0  0
    7.6159   -2.2073   20.6946 C   0  0  0  0  0  0  0  0  0  0  0  0
    6.6361   -2.9090   20.9273 O   0  0  0  0  0  0  0  0  0  0  0  0
    7.6491   -1.4239   19.4334 C   0  0  0  0  0  0  0  0  0  0  0  0
    8.6094   -0.7226   19.1390 O   0  0  0  0  0  0  0  0  0  0  0  0
    6.4575   -1.5005   18.4902 C   0  0  0  0  0  0  0  0  0  0  0  0
    5.8665   -0.1211   18.2357 C   0  0  0  0  0  0  0  0  0  0  0  0
    6.1950    0.4769   17.2181 O   0  0  0  0  0  0  0  0  0  0  0  0
    4.9270    0.4631   19.2070 C   0  0  0  0  0  0  0  0  0  0  0  0
    4.6422   -0.2225   20.2535 N   0  0  0  0  0  0  0  0  0  0  0  0
    4.3368    1.7937   18.9707 C   0  0  0  0  0  0  0  0  0  0  0  0
    4.7929    2.5533   18.1244 O   0  0  0  0  0  0  0  0  0  0  0  0
    3.1458    2.2790   19.7647 C   0  0  0  0  0  0  0  0  0  0  0  0
    2.6000    3.4333   19.1522 O   0  0  0  0  0  0  0  0  0  0  0  0
  1  2  1  0
  2  3  2  0
  2  4  1  0
  4  5  1  0
  5  6  2  0
  6  7  1  0
  7  8  1  0
  8  9  1  0
  9 10  2  0
  9 11  1  0
 11 12  2  0
 11 13  1  0
 13 14  2  0
 13 15  1  0
 15 16  2  0
 15 17  1  0
 17 18  2  0
 17 19  1  0
 19 20  2  0
 19 21  1  0
 21 22  1  0
 22 23  2  0
 22 24  1  0
 24 25  2  0
 24 26  1  0
 26 27  2  0
 26 28  1  0
 28 29  1  0
 10  5  1  0
M  END
