CVD-0002323|dock_bobby27042020.20|mol2|28|dock3
     RDKit          3D

 30 33  0  0  0  0  0  0  0  0999 V2000
    6.4600   -6.7940   22.1111 C   0  0  0  0  0  0  0  0  0  0  0  0
    7.4183   -5.8084   22.7124 C   0  0  0  0  0  0  0  0  0  0  0  0
    8.3148   -6.1700   23.4663 O   0  0  0  0  0  0  0  0  0  0  0  0
    7.2725   -4.5003   22.3887 N   0  0  0  0  0  0  0  0  0  0  0  0
    6.2511   -3.9358   21.5011 C   0  0  0  0  0  0  0  0  0  0  0  0
    6.8701   -2.9711   20.5234 C   0  0  0  0  0  0  0  0  0  0  0  0
    7.5968   -1.9035   21.2300 N   0  0  0  0  0  0  0  0  0  0  0  0
    8.6501   -2.5325   22.0283 C   0  0  0  0  0  0  0  0  0  0  0  0
    8.0645   -3.4698   23.0573 C   0  0  0  0  0  0  0  0  0  0  0  0
    8.1605   -0.9373   20.2910 C   0  0  0  0  0  0  0  0  0  0  0  0
    9.1657   -0.0193   21.0242 C   0  0  0  0  0  0  0  0  0  0  0  0
    8.7608    0.9996   21.5762 O   0  0  0  0  0  0  0  0  0  0  0  0
   10.4492   -0.4539   20.9739 N   0  0  0  0  0  0  0  0  0  0  0  0
   11.6430    0.0942   21.5062 C   0  0  0  0  0  0  0  0  0  0  0  0
   12.7646   -0.6760   21.7916 C   0  0  0  0  0  0  0  0  0  0  0  0
   13.8942   -0.0727   22.3111 C   0  0  0  0  0  0  0  0  0  0  0  0
   13.9190    1.2889   22.5529 C   0  0  0  0  0  0  0  0  0  0  0  0
   12.8064    2.0770   22.2730 C   0  0  0  0  0  0  0  0  0  0  0  0
   11.6697    1.4653   21.7443 C   0  0  0  0  0  0  0  0  0  0  0  0
   12.8543    3.4935   22.5327 N   0  0  0  0  0  0  0  0  0  0  0  0
   13.7021    4.3875   21.7401 C   0  0  0  0  0  0  0  0  0  0  0  0
   13.4300    5.7608   22.3032 C   0  0  0  0  0  0  0  0  0  0  0  0
   12.5822    5.5763   23.5362 C   0  0  0  0  0  0  0  0  0  0  0  0
   12.2187    4.1223   23.5763 C   0  0  0  0  0  0  0  0  0  0  0  0
   11.4959    3.5397   24.3737 O   0  0  0  0  0  0  0  0  0  0  0  0
    7.1264   -0.1327   19.5359 C   0  0  0  0  0  0  0  0  0  0  0  0
    5.8103    0.0925   19.9231 C   0  0  0  0  0  0  0  0  0  0  0  0
    5.1269    0.8879   18.9719 C   0  0  0  0  0  0  0  0  0  0  0  0
    5.8875    1.2417   17.9225 C   0  0  0  0  0  0  0  0  0  0  0  0
    7.4728    0.6220   18.0441 S   0  0  0  0  0  0  0  0  0  0  0  0
  1  2  1  0
  2  3  2  0
  2  4  1  0
  4  5  1  0
  5  6  1  0
  6  7  1  0
  7  8  1  0
  8  9  1  0
  7 10  1  0
 10 11  1  0
 11 12  2  0
 11 13  1  0
 13 14  1  0
 14 15  2  0
 15 16  1  0
 16 17  2  0
 17 18  1  0
 18 19  2  0
 18 20  1  0
 20 21  1  0
 21 22  1  0
 22 23  1  0
 23 24  1  0
 24 25  2  0
 10 26  1  0
 26 27  2  0
 27 28  1  0
 28 29  2  0
 29 30  1  0
  9  4  1  0
 19 14  1  0
 24 20  1  0
 30 26  1  0
M  END
