CVD-0003017|dock_bobby27042020.75|mol2|14|dock2
     RDKit          3D

 18 19  0  0  0  0  0  0  0  0999 V2000
    7.5540    0.8518   21.9211 O   0  0  0  0  0  0  0  0  0  0  0  0
    8.0425    0.1867   21.0155 C   0  0  0  0  0  0  0  0  0  0  0  0
    9.2424   -0.4033   21.1642 N   0  0  0  0  0  0  0  0  0  0  0  0
    9.9640   -0.2915   22.4233 C   0  0  0  0  0  0  0  0  0  0  0  0
   10.8604    0.9211   22.4917 C   0  0  0  0  0  0  0  0  0  0  0  0
   12.2339    0.7834   22.6170 C   0  0  0  0  0  0  0  0  0  0  0  0
   13.0615    1.8905   22.6771 C   0  0  0  0  0  0  0  0  0  0  0  0
   12.5250    3.1722   22.6110 C   0  0  0  0  0  0  0  0  0  0  0  0
   11.1473    3.3162   22.4837 C   0  0  0  0  0  0  0  0  0  0  0  0
   10.3312    2.2005   22.4249 C   0  0  0  0  0  0  0  0  0  0  0  0
   13.3809    4.3296   22.6732 C   0  0  0  0  0  0  0  0  0  0  0  0
   14.0767    5.2797   22.6821 C   0  0  0  0  0  0  0  0  0  0  0  0
    7.3689    0.0373   19.8393 N   0  0  0  0  0  0  0  0  0  0  0  0
    6.3003    0.9482   19.4124 C   0  0  0  0  0  0  0  0  0  0  0  0
    5.1153    0.1516   18.9057 C   0  0  0  0  0  0  0  0  0  0  0  0
    5.4802   -0.7353   17.8675 O   0  0  0  0  0  0  0  0  0  0  0  0
    6.4676   -1.6563   18.3318 C   0  0  0  0  0  0  0  0  0  0  0  0
    7.7131   -0.9365   18.7988 C   0  0  0  0  0  0  0  0  0  0  0  0
  1  2  2  0
  2  3  1  0
  3  4  1  0
  4  5  1  0
  5  6  2  0
  6  7  1  0
  7  8  2  0
  8  9  1  0
  9 10  2  0
  8 11  1  0
 11 12  3  0
  2 13  1  0
 13 14  1  0
 14 15  1  0
 15 16  1  0
 16 17  1  0
 17 18  1  0
 10  5  1  0
 18 13  1  0
M  END
