CVD-0003665|dock_bobby27042020.44|mol2|35|dock3
     RDKit          3D

 16 16  0  0  0  0  0  0  0  0999 V2000
    7.4239   -0.0741   18.7495 C   0  0  0  0  0  0  0  0  0  0  0  0
    7.4766   -0.1571   20.2605 C   0  0  0  0  0  0  0  0  0  0  0  0
    6.5197   -1.2064   20.7862 C   0  0  0  0  0  0  0  0  0  0  0  0
    8.8407   -0.4880   20.6822 N   0  0  0  0  0  0  0  0  0  0  0  0
    9.3862   -0.0331   21.8140 C   0  0  0  0  0  0  0  0  0  0  0  0
    8.7802    0.7010   22.5898 O   0  0  0  0  0  0  0  0  0  0  0  0
   10.8069   -0.4787   22.0893 C   0  0  0  0  0  0  0  0  0  0  0  0
   10.8288   -1.8569   22.7387 C   0  0  0  0  0  0  0  0  0  0  0  0
   12.2511   -2.2781   23.0462 C   0  0  0  0  0  0  0  0  0  0  0  0
   12.8884   -1.2884   23.9108 N   0  0  0  0  0  0  0  0  0  0  0  0
   12.9390    0.0387   23.3069 C   0  0  0  0  0  0  0  0  0  0  0  0
   11.5275    0.5217   22.9904 C   0  0  0  0  0  0  0  0  0  0  0  0
   13.6179   -1.5595   25.0123 C   0  0  0  0  0  0  0  0  0  0  0  0
   14.1076   -0.6718   25.6991 O   0  0  0  0  0  0  0  0  0  0  0  0
   13.8081   -3.0199   25.3568 C   0  0  0  0  0  0  0  0  0  0  0  0
   14.6746   -3.1062   26.4301 F   0  0  0  0  0  0  0  0  0  0  0  0
  1  2  1  0
  2  3  1  0
  2  4  1  0
  4  5  1  0
  5  6  2  0
  5  7  1  0
  7  8  1  0
  8  9  1  0
  9 10  1  0
 10 11  1  0
 11 12  1  0
 10 13  1  0
 13 14  2  0
 13 15  1  0
 15 16  1  0
 12  7  1  0
M  END
