CVD-0001443|dock_bobby27042020.67|mol2|9|dock3
     RDKit          3D

  3  2  0  0  0  0  0  0  0  0999 V2000
   10.2723   -4.9605   25.0252 C   0  0  0  0  0  0  0  0  0  0  0  0
    9.8859   -5.8415   26.1384 C   0  0  0  0  0  0  0  0  0  0  0  0
    9.9057   -7.2104   25.7705 O   0  0  0  0  0  0  0  0  0  0  0  0
  1  2  1  0
  2  3  1  0
M  END
