CVD-0002532|dock_bobby27042020.48|mol2|17|dock3
     RDKit          3D

 28 30  0  0  0  0  0  0  0  0999 V2000
   13.5166    1.1018   22.1868 O   0  0  0  0  0  0  0  0  0  0  0  0
   12.6987    1.3932   23.0533 C   0  0  0  0  0  0  0  0  0  0  0  0
   11.9210    0.3204   23.7833 C   0  0  0  0  0  0  0  0  0  0  0  0
   11.4561   -0.8194   22.8706 C   0  0  0  0  0  0  0  0  0  0  0  0
   10.7561   -1.9244   23.6778 C   0  0  0  0  0  0  0  0  0  0  0  0
    9.4429   -1.4146   24.2651 C   0  0  0  0  0  0  0  0  0  0  0  0
    8.5182   -0.8934   23.1675 C   0  0  0  0  0  0  0  0  0  0  0  0
    9.1952    0.1618   22.3102 C   0  0  0  0  0  0  0  0  0  0  0  0
   10.5359   -0.3310   21.7547 C   0  0  0  0  0  0  0  0  0  0  0  0
    8.1386    0.8077   21.0679 S   0  0  0  0  0  0  0  0  0  0  0  0
    6.8968    1.1570   21.6962 O   0  0  0  0  0  0  0  0  0  0  0  0
    8.8683    1.8293   20.3732 O   0  0  0  0  0  0  0  0  0  0  0  0
    7.8204   -0.3576   19.9982 N   0  0  0  0  0  0  0  0  0  0  0  0
    6.6547   -1.2301   20.1843 C   0  0  0  0  0  0  0  0  0  0  0  0
    5.7080   -1.1187   19.0028 C   0  0  0  0  0  0  0  0  0  0  0  0
    5.0212    0.2236   18.9293 C   0  0  0  0  0  0  0  0  0  0  0  0
    4.2349    0.6769   19.9773 C   0  0  0  0  0  0  0  0  0  0  0  0
    3.6023    1.9070   19.9092 C   0  0  0  0  0  0  0  0  0  0  0  0
    3.7477    2.6991   18.7908 C   0  0  0  0  0  0  0  0  0  0  0  0
    4.5254    2.2606   17.7409 C   0  0  0  0  0  0  0  0  0  0  0  0
    5.1576    1.0304   17.8100 C   0  0  0  0  0  0  0  0  0  0  0  0
   12.3914    2.6507   23.4537 N   0  0  0  0  0  0  0  0  0  0  0  0
   12.8818    3.9096   23.0273 C   0  0  0  0  0  0  0  0  0  0  0  0
   12.9143    5.0432   23.8330 C   0  0  0  0  0  0  0  0  0  0  0  0
   13.4150    6.2261   23.3167 C   0  0  0  0  0  0  0  0  0  0  0  0
   13.8668    6.2447   22.0173 C   0  0  0  0  0  0  0  0  0  0  0  0
   13.8482    5.1752   21.2219 N   0  0  0  0  0  0  0  0  0  0  0  0
   13.3632    4.0385   21.7296 C   0  0  0  0  0  0  0  0  0  0  0  0
  1  2  2  0
  2  3  1  0
  3  4  1  0
  4  5  1  0
  5  6  1  0
  6  7  1  0
  7  8  1  0
  8  9  1  0
  8 10  1  0
 10 11  2  0
 10 12  2  0
 10 13  1  0
 13 14  1  0
 14 15  1  0
 15 16  1  0
 16 17  2  0
 17 18  1  0
 18 19  2  0
 19 20  1  0
 20 21  2  0
  2 22  1  0
 22 23  1  0
 23 24  2  0
 24 25  1  0
 25 26  2  0
 26 27  1  0
 27 28  2  0
  9  4  1  0
 21 16  1  0
 28 23  1  0
M  END
