CVD-0003105|dock_bobby27042020.32|mol2|7|dock3
     RDKit          3D

 34 37  0  0  0  0  0  0  0  0999 V2000
   11.1979   -0.9832   22.0356 N   0  0  0  0  0  0  0  0  0  0  0  0
   12.4561   -0.1986   22.6392 S   0  0  0  0  0  0  0  0  0  0  0  0
   12.6215   -0.6399   23.9915 O   0  0  0  0  0  0  0  0  0  0  0  0
   13.5409   -0.3665   21.7192 O   0  0  0  0  0  0  0  0  0  0  0  0
   12.0694    1.5251   22.6900 C   0  0  0  0  0  0  0  0  0  0  0  0
   13.0945    2.4559   22.6770 C   0  0  0  0  0  0  0  0  0  0  0  0
   12.7809    3.7980   22.7626 C   0  0  0  0  0  0  0  0  0  0  0  0
   11.4624    4.2275   22.8610 C   0  0  0  0  0  0  0  0  0  0  0  0
   11.1218    5.6980   22.8690 C   0  0  0  0  0  0  0  0  0  0  0  0
    9.7843    5.9422   23.5361 C   0  0  0  0  0  0  0  0  0  0  0  0
    8.7200    5.0640   22.9023 C   0  0  0  0  0  0  0  0  0  0  0  0
    9.0884    3.6604   23.0337 N   0  0  0  0  0  0  0  0  0  0  0  0
    8.0114    2.6706   22.9965 C   0  0  0  0  0  0  0  0  0  0  0  0
    7.7222    2.1752   21.5881 C   0  0  0  0  0  0  0  0  0  0  0  0
    6.5625    1.1741   21.4983 C   0  0  0  0  0  0  0  0  0  0  0  0
    6.6415    0.1744   22.6589 C   0  0  0  0  0  0  0  0  0  0  0  0
    5.6866   -0.9171   22.5149 N   0  0  0  0  0  0  0  0  0  0  0  0
    5.8537   -2.0955   23.1473 C   0  0  0  0  0  0  0  0  0  0  0  0
    6.8161   -2.3154   23.8778 O   0  0  0  0  0  0  0  0  0  0  0  0
    4.8925   -3.0184   22.9244 N   0  0  0  0  0  0  0  0  0  0  0  0
    4.9586   -4.3777   23.4613 C   0  0  0  0  0  0  0  0  0  0  0  0
    3.5484   -4.9336   23.7463 C   0  0  0  0  0  0  0  0  0  0  0  0
    3.5802   -6.3789   24.2400 C   0  0  0  0  0  0  0  0  0  0  0  0
    4.3460   -7.2771   23.2772 C   0  0  0  0  0  0  0  0  0  0  0  0
    5.7480   -6.7415   23.0240 C   0  0  0  0  0  0  0  0  0  0  0  0
    5.7054   -5.3120   22.4940 C   0  0  0  0  0  0  0  0  0  0  0  0
    6.5831    0.4339   20.1752 C   0  0  0  0  0  0  0  0  0  0  0  0
    7.6672   -0.3483   19.8059 C   0  0  0  0  0  0  0  0  0  0  0  0
    7.6390   -1.0062   18.5921 C   0  0  0  0  0  0  0  0  0  0  0  0
    6.6185   -0.9378   17.7365 N   0  0  0  0  0  0  0  0  0  0  0  0
    5.5797   -0.1848   18.1002 C   0  0  0  0  0  0  0  0  0  0  0  0
    5.5164    0.5096   19.2921 C   0  0  0  0  0  0  0  0  0  0  0  0
   10.4244    3.2721   22.8735 C   0  0  0  0  0  0  0  0  0  0  0  0
   10.7429    1.9182   22.7869 C   0  0  0  0  0  0  0  0  0  0  0  0
  1  2  1  0
  2  3  2  0
  2  4  2  0
  2  5  1  0
  5  6  2  0
  6  7  1  0
  7  8  2  0
  8  9  1  0
  9 10  1  0
 10 11  1  0
 11 12  1  0
 12 13  1  0
 13 14  1  0
 14 15  1  0
 15 16  1  0
 16 17  1  0
 17 18  1  0
 18 19  2  0
 18 20  1  0
 20 21  1  0
 21 22  1  0
 22 23  1  0
 23 24  1  0
 24 25  1  0
 25 26  1  0
 15 27  1  0
 27 28  2  0
 28 29  1  0
 29 30  2  0
 30 31  1  0
 31 32  2  0
 12 33  1  0
 33 34  2  0
 34  5  1  0
 33  8  1  0
 26 21  1  0
 32 27  1  0
M  END
