CVD-0000847|dock_bobby27042020.69|mol2|4|dock2
     RDKit          3D

 19 21  0  0  0  0  0  0  0  0999 V2000
    7.1008   -2.4749   21.7323 O   0  0  0  0  0  0  0  0  0  0  0  0
    7.9562   -1.6542   22.0397 C   0  0  0  0  0  0  0  0  0  0  0  0
    8.9416   -2.0397   23.1460 C   0  0  0  0  0  0  0  0  0  0  0  0
    9.9927   -0.9497   23.4816 C   0  0  0  0  0  0  0  0  0  0  0  0
    9.5578    0.4341   23.1466 C   0  0  0  0  0  0  0  0  0  0  0  0
    9.1184    0.5154   21.6845 C   0  0  0  0  0  0  0  0  0  0  0  0
    8.0714   -0.4490   21.4643 N   0  0  0  0  0  0  0  0  0  0  0  0
    7.0402    0.0063   20.5650 C   0  0  0  0  0  0  0  0  0  0  0  0
    5.7116    0.0154   20.9846 C   0  0  0  0  0  0  0  0  0  0  0  0
    4.7082    0.4534   20.1362 C   0  0  0  0  0  0  0  0  0  0  0  0
    5.0050    0.8769   18.8607 C   0  0  0  0  0  0  0  0  0  0  0  0
    6.3131    0.8742   18.4327 C   0  0  0  0  0  0  0  0  0  0  0  0
    7.3266    0.4540   19.2775 C   0  0  0  0  0  0  0  0  0  0  0  0
   11.3058   -1.1944   22.7642 C   0  0  0  0  0  0  0  0  0  0  0  0
   12.5138   -0.8571   23.3562 C   0  0  0  0  0  0  0  0  0  0  0  0
   13.7029   -1.0902   22.6877 C   0  0  0  0  0  0  0  0  0  0  0  0
   13.6510   -1.6592   21.4357 C   0  0  0  0  0  0  0  0  0  0  0  0
   12.5088   -1.9972   20.8361 N   0  0  0  0  0  0  0  0  0  0  0  0
   11.3742   -1.7623   21.5021 C   0  0  0  0  0  0  0  0  0  0  0  0
  1  2  2  0
  2  3  1  0
  3  4  1  0
  4  5  1  0
  5  6  1  0
  6  7  1  0
  7  8  1  0
  8  9  2  0
  9 10  1  0
 10 11  2  0
 11 12  1  0
 12 13  2  0
  4 14  1  0
 14 15  2  0
 15 16  1  0
 16 17  2  0
 17 18  1  0
 18 19  2  0
  7  2  1  0
 13  8  1  0
 19 14  1  0
M  END
