CVD-0001420|dock_bobby27042020.95|mol2|22|dock3
     RDKit          3D

 21 22  0  0  0  0  0  0  0  0999 V2000
   13.7262    4.9975   23.2345 C   0  0  0  0  0  0  0  0  0  0  0  0
   12.5162    4.3838   22.5937 C   0  0  0  0  0  0  0  0  0  0  0  0
   11.8039    5.0261   21.8302 O   0  0  0  0  0  0  0  0  0  0  0  0
   12.2371    3.0878   22.8752 N   0  0  0  0  0  0  0  0  0  0  0  0
   11.0912    2.3793   22.3009 C   0  0  0  0  0  0  0  0  0  0  0  0
   11.5449    1.1002   21.6222 C   0  0  0  0  0  0  0  0  0  0  0  0
   12.2451    0.2387   22.5795 N   0  0  0  0  0  0  0  0  0  0  0  0
   12.6514   -1.0183   21.9375 C   0  0  0  0  0  0  0  0  0  0  0  0
   11.5146   -1.8366   21.5948 N   0  0  0  0  0  0  0  0  0  0  0  0
   10.7104   -2.4438   22.4791 C   0  0  0  0  0  0  0  0  0  0  0  0
    9.7074   -3.1606   21.9741 N   0  0  0  0  0  0  0  0  0  0  0  0
   10.7759   -2.4175   23.8492 N   0  0  0  0  0  0  0  0  0  0  0  0
   10.1191   -3.0942   24.9080 C   0  0  0  0  0  0  0  0  0  0  0  0
   10.4425   -4.4245   25.1482 C   0  0  0  0  0  0  0  0  0  0  0  0
    9.8269   -5.1319   26.1656 C   0  0  0  0  0  0  0  0  0  0  0  0
    8.8954   -4.4901   26.9342 C   0  0  0  0  0  0  0  0  0  0  0  0
    8.2795   -5.1852   27.9283 F   0  0  0  0  0  0  0  0  0  0  0  0
    8.5583   -3.1781   26.7456 C   0  0  0  0  0  0  0  0  0  0  0  0
    9.1854   -2.4750   25.7324 C   0  0  0  0  0  0  0  0  0  0  0  0
   13.4116    0.9498   23.0961 C   0  0  0  0  0  0  0  0  0  0  0  0
   12.9946    2.2318   23.7936 C   0  0  0  0  0  0  0  0  0  0  0  0
  1  2  1  0
  2  3  2  0
  2  4  1  0
  4  5  1  0
  5  6  1  0
  6  7  1  0
  7  8  1  0
  8  9  1  0
  9 10  1  0
 10 11  2  0
 10 12  1  0
 12 13  1  0
 13 14  2  0
 14 15  1  0
 15 16  2  0
 16 17  1  0
 16 18  1  0
 18 19  2  0
  7 20  1  0
 20 21  1  0
 21  4  1  0
 19 13  1  0
M  END
