CVD-0002924|dock_bobby27042020.89|mol2|34|dock2
     RDKit          3D

 21 23  0  0  0  0  0  0  0  0999 V2000
   14.5178   -1.7451   24.1647 Cl  0  0  0  0  0  0  0  0  0  0  0  0
   13.1721   -1.5187   23.0398 C   0  0  0  0  0  0  0  0  0  0  0  0
   12.1975   -0.4564   23.5099 C   0  0  0  0  0  0  0  0  0  0  0  0
   11.3324   -0.7387   24.3180 O   0  0  0  0  0  0  0  0  0  0  0  0
   12.3505    0.9270   22.9763 C   0  0  0  0  0  0  0  0  0  0  0  0
   13.6445    1.4240   22.7774 C   0  0  0  0  0  0  0  0  0  0  0  0
   13.8808    2.7534   22.4748 C   0  0  0  0  0  0  0  0  0  0  0  0
   12.8221    3.6349   22.3768 C   0  0  0  0  0  0  0  0  0  0  0  0
   13.1702    5.4749   22.0831 Br  0  0  0  0  0  0  0  0  0  0  0  0
   11.5211    3.1638   22.4905 C   0  0  0  0  0  0  0  0  0  0  0  0
   10.3146    3.8204   22.4572 N   0  0  0  0  0  0  0  0  0  0  0  0
    9.3109    2.8990   22.4415 C   0  0  0  0  0  0  0  0  0  0  0  0
    8.1141    3.1488   22.3577 O   0  0  0  0  0  0  0  0  0  0  0  0
    9.8866    1.6524   22.5044 N   0  0  0  0  0  0  0  0  0  0  0  0
    9.1390    0.4258   22.3493 C   0  0  0  0  0  0  0  0  0  0  0  0
    9.6750   -0.6650   21.6785 C   0  0  0  0  0  0  0  0  0  0  0  0
    8.9302   -1.8258   21.5658 C   0  0  0  0  0  0  0  0  0  0  0  0
    7.6743   -1.8587   22.1260 C   0  0  0  0  0  0  0  0  0  0  0  0
    7.1373   -0.8253   22.7750 N   0  0  0  0  0  0  0  0  0  0  0  0
    7.8666    0.2899   22.8798 C   0  0  0  0  0  0  0  0  0  0  0  0
   11.2739    1.7922   22.6779 C   0  0  0  0  0  0  0  0  0  0  0  0
  1  2  1  0
  2  3  1  0
  3  4  2  0
  3  5  1  0
  5  6  2  0
  6  7  1  0
  7  8  2  0
  8  9  1  0
  8 10  1  0
 10 11  1  0
 11 12  1  0
 12 13  2  0
 12 14  1  0
 14 15  1  0
 15 16  2  0
 16 17  1  0
 17 18  2  0
 18 19  1  0
 19 20  2  0
 14 21  1  0
 21  5  1  0
 21 10  2  0
 20 15  1  0
M  END
