CVD-0002091|dock_bobby27042020.36|mol2|3|dock1
     RDKit          3D

 14 14  0  0  0  0  0  0  0  0999 V2000
    4.5328    0.6075   19.3691 C   0  0  0  0  0  0  0  0  0  0  0  0
    5.5683    1.1259   18.3982 C   0  0  0  0  0  0  0  0  0  0  0  0
    6.9758    0.8084   18.8397 C   0  0  0  0  0  0  0  0  0  0  0  0
    7.4141   -0.9403   19.0264 S   0  0  0  0  0  0  0  0  0  0  0  0
    8.3364   -0.9799   20.5921 C   0  0  0  0  0  0  0  0  0  0  0  0
    9.2126   -2.1079   20.7449 N   0  0  0  0  0  0  0  0  0  0  0  0
   10.0877   -2.0768   21.9183 C   0  0  0  0  0  0  0  0  0  0  0  0
   11.4168   -1.4227   21.5854 C   0  0  0  0  0  0  0  0  0  0  0  0
   12.3839   -1.4452   22.7443 C   0  0  0  0  0  0  0  0  0  0  0  0
   13.2926   -2.4821   22.8903 C   0  0  0  0  0  0  0  0  0  0  0  0
   14.1779   -2.5049   23.9550 C   0  0  0  0  0  0  0  0  0  0  0  0
   14.1647   -1.4908   24.8881 C   0  0  0  0  0  0  0  0  0  0  0  0
   13.2658   -0.4544   24.7562 C   0  0  0  0  0  0  0  0  0  0  0  0
   12.3810   -0.4325   23.6910 C   0  0  0  0  0  0  0  0  0  0  0  0
  1  2  1  0
  2  3  1  0
  3  4  1  0
  4  5  1  0
  5  6  1  0
  6  7  1  0
  7  8  1  0
  8  9  1  0
  9 10  2  0
 10 11  1  0
 11 12  2  0
 12 13  1  0
 13 14  2  0
 14  9  1  0
M  END
