CVD-0002747|dock_bobby27042020.62|mol2|7|dock1
     RDKit          3D

 25 27  0  0  0  0  0  0  0  0999 V2000
    4.6077    1.1487   21.0268 Cl  0  0  0  0  0  0  0  0  0  0  0  0
    5.1014   -0.0090   19.7844 C   0  0  0  0  0  0  0  0  0  0  0  0
    6.0440   -1.0459   20.3639 C   0  0  0  0  0  0  0  0  0  0  0  0
    5.6771   -2.1955   20.5726 O   0  0  0  0  0  0  0  0  0  0  0  0
    7.2997   -0.6397   20.6426 N   0  0  0  0  0  0  0  0  0  0  0  0
    7.8384    0.7094   20.4441 C   0  0  0  0  0  0  0  0  0  0  0  0
    8.6009    1.1624   21.6619 C   0  0  0  0  0  0  0  0  0  0  0  0
    9.6771    0.2126   21.9891 N   0  0  0  0  0  0  0  0  0  0  0  0
    9.0599   -1.0877   22.2555 C   0  0  0  0  0  0  0  0  0  0  0  0
    8.3279   -1.6003   21.0382 C   0  0  0  0  0  0  0  0  0  0  0  0
   10.4621    0.6742   23.1562 C   0  0  0  0  0  0  0  0  0  0  0  0
   10.7876    2.1588   23.0482 C   0  0  0  0  0  0  0  0  0  0  0  0
    9.8866    3.1142   23.4963 C   0  0  0  0  0  0  0  0  0  0  0  0
   10.1821    4.4637   23.4019 C   0  0  0  0  0  0  0  0  0  0  0  0
   11.3865    4.8765   22.8574 C   0  0  0  0  0  0  0  0  0  0  0  0
   12.2767    3.9221   22.4159 C   0  0  0  0  0  0  0  0  0  0  0  0
   13.7955    4.4268   21.7294 Cl  0  0  0  0  0  0  0  0  0  0  0  0
   11.9939    2.5743   22.5044 C   0  0  0  0  0  0  0  0  0  0  0  0
   11.7394   -0.1457   23.2848 C   0  0  0  0  0  0  0  0  0  0  0  0
   12.4235   -0.2035   24.4907 C   0  0  0  0  0  0  0  0  0  0  0  0
   13.5840   -0.9495   24.6099 C   0  0  0  0  0  0  0  0  0  0  0  0
   14.0767   -1.6496   23.5217 C   0  0  0  0  0  0  0  0  0  0  0  0
   13.3918   -1.5879   22.3279 C   0  0  0  0  0  0  0  0  0  0  0  0
   13.9997   -2.4638   20.9510 Cl  0  0  0  0  0  0  0  0  0  0  0  0
   12.2343   -0.8483   22.1963 C   0  0  0  0  0  0  0  0  0  0  0  0
  1  2  1  0
  2  3  1  0
  3  4  2  0
  3  5  1  0
  5  6  1  0
  6  7  1  0
  7  8  1  0
  8  9  1  0
  9 10  1  0
  8 11  1  0
 11 12  1  0
 12 13  2  0
 13 14  1  0
 14 15  2  0
 15 16  1  0
 16 17  1  0
 16 18  2  0
 11 19  1  0
 19 20  2  0
 20 21  1  0
 21 22  2  0
 22 23  1  0
 23 24  1  0
 23 25  2  0
 10  5  1  0
 18 12  1  0
 25 19  1  0
M  END
