CVD-0003170|dock_bobby27042020.88|mol2|43|dock3
     RDKit          3D

 26 28  0  0  0  0  0  0  0  0999 V2000
    2.3918    2.8924   19.3986 C   0  0  0  0  0  0  0  0  0  0  0  0
    3.7745    2.3522   19.5754 C   0  0  0  0  0  0  0  0  0  0  0  0
    4.3124    2.3259   20.6592 O   0  0  0  0  0  0  0  0  0  0  0  0
    4.4534    1.8249   18.3423 C   0  0  0  0  0  0  0  0  0  0  0  0
    5.8078    1.1736   18.5820 C   0  0  0  0  0  0  0  0  0  0  0  0
    5.7083   -0.1660   19.3001 C   0  0  0  0  0  0  0  0  0  0  0  0
    6.9864   -0.6546   19.9183 C   0  0  0  0  0  0  0  0  0  0  0  0
    8.1873   -0.8234   19.2934 C   0  0  0  0  0  0  0  0  0  0  0  0
    9.1265   -1.2837   20.1754 N   0  0  0  0  0  0  0  0  0  0  0  0
    8.5361   -1.4239   21.4068 C   0  0  0  0  0  0  0  0  0  0  0  0
    9.0941   -1.8591   22.6125 C   0  0  0  0  0  0  0  0  0  0  0  0
   10.5484   -2.2554   22.7275 C   0  0  0  0  0  0  0  0  0  0  0  0
   11.5029   -1.1738   22.2619 C   0  0  0  0  0  0  0  0  0  0  0  0
   12.4078   -1.4340   21.4764 O   0  0  0  0  0  0  0  0  0  0  0  0
   11.2424    0.0414   22.8042 N   0  0  0  0  0  0  0  0  0  0  0  0
   11.9035    1.2895   22.6297 C   0  0  0  0  0  0  0  0  0  0  0  0
   13.2873    1.4376   22.5310 C   0  0  0  0  0  0  0  0  0  0  0  0
   13.9057    2.6112   22.3671 N   0  0  0  0  0  0  0  0  0  0  0  0
   13.1499    3.7029   22.2929 C   0  0  0  0  0  0  0  0  0  0  0  0
   11.7761    3.6729   22.3779 C   0  0  0  0  0  0  0  0  0  0  0  0
   11.1205    2.4576   22.5501 C   0  0  0  0  0  0  0  0  0  0  0  0
    9.6157    2.4589   22.6362 C   0  0  0  0  0  0  0  0  0  0  0  0
    8.2522   -1.9103   23.7199 C   0  0  0  0  0  0  0  0  0  0  0  0
    6.9170   -1.5470   23.6258 C   0  0  0  0  0  0  0  0  0  0  0  0
    6.3802   -1.1164   22.4219 C   0  0  0  0  0  0  0  0  0  0  0  0
    7.1868   -1.0431   21.2865 C   0  0  0  0  0  0  0  0  0  0  0  0
  1  2  1  0
  2  3  2  0
  2  4  1  0
  4  5  1  0
  5  6  1  0
  6  7  1  0
  7  8  2  0
  8  9  1  0
  9 10  1  0
 10 11  2  0
 11 12  1  0
 12 13  1  0
 13 14  2  0
 13 15  1  0
 15 16  1  0
 16 17  2  0
 17 18  1  0
 18 19  2  0
 19 20  1  0
 20 21  2  0
 21 22  1  0
 11 23  1  0
 23 24  2  0
 24 25  1  0
 25 26  2  0
 26  7  1  0
 26 10  1  0
 21 16  1  0
M  END
