CVD-0001276|dock_bobby27042020.24|mol2|25|dock2
     RDKit          3D

 24 26  0  0  0  0  0  0  0  0999 V2000
   10.5513   -6.1633   26.0795 Cl  0  0  0  0  0  0  0  0  0  0  0  0
    8.9754   -6.0300   26.8709 C   0  0  0  0  0  0  0  0  0  0  0  0
    8.4717   -4.6005   26.8238 C   0  0  0  0  0  0  0  0  0  0  0  0
    8.4372   -3.9027   27.8296 O   0  0  0  0  0  0  0  0  0  0  0  0
    8.0600   -4.1422   25.6240 N   0  0  0  0  0  0  0  0  0  0  0  0
    8.0708   -4.8873   24.3613 C   0  0  0  0  0  0  0  0  0  0  0  0
    8.6449   -4.0453   23.2516 C   0  0  0  0  0  0  0  0  0  0  0  0
    7.8963   -2.7859   23.1091 N   0  0  0  0  0  0  0  0  0  0  0  0
    7.9983   -2.0594   24.3757 C   0  0  0  0  0  0  0  0  0  0  0  0
    7.3851   -2.8510   25.5061 C   0  0  0  0  0  0  0  0  0  0  0  0
    8.4268   -1.9685   21.9828 C   0  0  0  0  0  0  0  0  0  0  0  0
    7.4650   -0.8444   21.5299 C   0  0  0  0  0  0  0  0  0  0  0  0
    8.0755   -0.0377   20.4378 C   0  0  0  0  0  0  0  0  0  0  0  0
    8.0678   -0.8237   19.1264 C   0  0  0  0  0  0  0  0  0  0  0  0
    6.7112   -1.2030   18.8252 N   0  0  0  0  0  0  0  0  0  0  0  0
    5.7555   -1.5319   19.7056 C   0  0  0  0  0  0  0  0  0  0  0  0
    4.6706   -1.9515   19.3149 O   0  0  0  0  0  0  0  0  0  0  0  0
    6.0472   -1.3807   21.2007 C   0  0  0  0  0  0  0  0  0  0  0  0
    9.7939   -1.3716   22.2574 C   0  0  0  0  0  0  0  0  0  0  0  0
    9.9492   -0.2364   23.0425 C   0  0  0  0  0  0  0  0  0  0  0  0
   11.2047    0.3026   23.2695 C   0  0  0  0  0  0  0  0  0  0  0  0
   12.3225   -0.2904   22.7234 C   0  0  0  0  0  0  0  0  0  0  0  0
   12.1856   -1.4231   21.9504 C   0  0  0  0  0  0  0  0  0  0  0  0
   10.9301   -1.9599   21.7191 C   0  0  0  0  0  0  0  0  0  0  0  0
  1  2  1  0
  2  3  1  0
  3  4  2  0
  3  5  1  0
  5  6  1  0
  6  7  1  0
  7  8  1  0
  8  9  1  0
  9 10  1  0
  8 11  1  0
 11 12  1  0
 12 13  1  0
 13 14  1  0
 14 15  1  0
 15 16  1  0
 16 17  2  0
 16 18  1  0
 11 19  1  0
 19 20  2  0
 20 21  1  0
 21 22  2  0
 22 23  1  0
 23 24  2  0
 10  5  1  0
 18 12  1  0
 24 19  1  0
M  END
