CVD-0001947|dock_bobby27042020.22|mol2|14|dock1
     RDKit          3D

 20 21  0  0  0  0  0  0  0  0999 V2000
    9.4463   -3.0693   24.5063 C   0  0  0  0  0  0  0  0  0  0  0  0
   10.5598   -2.5553   23.6360 C   0  0  0  0  0  0  0  0  0  0  0  0
   10.0650   -1.9420   22.3599 C   0  0  0  0  0  0  0  0  0  0  0  0
    9.7743   -0.6787   22.1162 C   0  0  0  0  0  0  0  0  0  0  0  0
    9.8744    0.4569   23.0837 C   0  0  0  0  0  0  0  0  0  0  0  0
   11.0114    1.3395   22.7726 N   0  0  0  0  0  0  0  0  0  0  0  0
   10.8044    2.6432   22.4306 C   0  0  0  0  0  0  0  0  0  0  0  0
   12.0281    3.2664   22.2362 C   0  0  0  0  0  0  0  0  0  0  0  0
   12.2950    4.6936   21.8362 C   0  0  0  0  0  0  0  0  0  0  0  0
   13.3935    5.2782   22.6129 N   0  0  0  0  0  0  0  0  0  0  0  0
   14.3383    6.0730   21.8238 C   0  0  0  0  0  0  0  0  0  0  0  0
   13.0040    2.2845   22.4821 C   0  0  0  0  0  0  0  0  0  0  0  0
   12.3757    1.0977   22.8098 C   0  0  0  0  0  0  0  0  0  0  0  0
   13.0550   -0.1780   23.1475 C   0  0  0  0  0  0  0  0  0  0  0  0
   13.5626   -0.2761   24.4447 C   0  0  0  0  0  0  0  0  0  0  0  0
   14.1634   -1.4397   24.8940 C   0  0  0  0  0  0  0  0  0  0  0  0
   14.2770   -2.5295   24.0611 C   0  0  0  0  0  0  0  0  0  0  0  0
   13.8195   -2.4527   22.7583 C   0  0  0  0  0  0  0  0  0  0  0  0
   13.2512   -1.2794   22.3206 C   0  0  0  0  0  0  0  0  0  0  0  0
   12.9031   -1.2438   21.0156 F   0  0  0  0  0  0  0  0  0  0  0  0
  1  2  1  0
  2  3  1  0
  3  4  2  0
  4  5  1  0
  5  6  1  0
  6  7  1  0
  7  8  2  0
  8  9  1  0
  9 10  1  0
 10 11  1  0
  8 12  1  0
 12 13  2  0
 13 14  1  0
 14 15  2  0
 15 16  1  0
 16 17  2  0
 17 18  1  0
 18 19  2  0
 19 20  1  0
 13  6  1  0
 19 14  1  0
M  END
