CVD-0002034|dock_bobby27042020.65|mol2|10|dock2
     RDKit          3D

 26 28  0  0  0  0  0  0  0  0999 V2000
    8.5028   -1.4070   25.4398 C   0  0  0  0  0  0  0  0  0  0  0  0
    9.5780   -0.4177   25.0979 C   0  0  0  0  0  0  0  0  0  0  0  0
   10.7132   -0.5454   25.5434 O   0  0  0  0  0  0  0  0  0  0  0  0
    9.1640    0.5732   24.2653 N   0  0  0  0  0  0  0  0  0  0  0  0
    9.8603    1.6770   23.6997 C   0  0  0  0  0  0  0  0  0  0  0  0
    9.3017    2.9456   23.5513 C   0  0  0  0  0  0  0  0  0  0  0  0
    9.9532    3.9906   23.0351 N   0  0  0  0  0  0  0  0  0  0  0  0
   11.2087    3.8000   22.6418 C   0  0  0  0  0  0  0  0  0  0  0  0
   11.8620    2.5904   22.7313 C   0  0  0  0  0  0  0  0  0  0  0  0
   11.1894    1.4896   23.2644 C   0  0  0  0  0  0  0  0  0  0  0  0
   11.9299    0.1922   23.3276 C   0  0  0  0  0  0  0  0  0  0  0  0
   13.0774    0.2528   24.0249 N   0  0  0  0  0  0  0  0  0  0  0  0
   13.7992   -0.8643   24.1668 C   0  0  0  0  0  0  0  0  0  0  0  0
   13.4399   -2.0772   23.6312 C   0  0  0  0  0  0  0  0  0  0  0  0
   12.2719   -2.1630   22.8947 C   0  0  0  0  0  0  0  0  0  0  0  0
   11.4928   -1.0165   22.7207 C   0  0  0  0  0  0  0  0  0  0  0  0
   10.2954   -1.0204   21.9628 N   0  0  0  0  0  0  0  0  0  0  0  0
    9.0968   -1.3965   21.4163 C   0  0  0  0  0  0  0  0  0  0  0  0
    8.5515   -2.4643   21.6792 O   0  0  0  0  0  0  0  0  0  0  0  0
    8.6182   -0.4325   20.5628 N   0  0  0  0  0  0  0  0  0  0  0  0
    7.4329   -0.3910   19.7866 C   0  0  0  0  0  0  0  0  0  0  0  0
    7.3077    0.6233   18.8441 C   0  0  0  0  0  0  0  0  0  0  0  0
    6.1731    0.7159   18.0561 C   0  0  0  0  0  0  0  0  0  0  0  0
    5.1531   -0.1986   18.1979 C   0  0  0  0  0  0  0  0  0  0  0  0
    5.2658   -1.2082   19.1284 C   0  0  0  0  0  0  0  0  0  0  0  0
    6.3961   -1.3114   19.9226 C   0  0  0  0  0  0  0  0  0  0  0  0
  1  2  1  0
  2  3  2  0
  2  4  1  0
  4  5  1  0
  5  6  2  0
  6  7  1  0
  7  8  2  0
  8  9  1  0
  9 10  2  0
 10 11  1  0
 11 12  2  0
 12 13  1  0
 13 14  2  0
 14 15  1  0
 15 16  2  0
 16 17  1  0
 17 18  1  0
 18 19  2  0
 18 20  1  0
 20 21  1  0
 21 22  2  0
 22 23  1  0
 23 24  2  0
 24 25  1  0
 25 26  2  0
 10  5  1  0
 16 11  1  0
 26 21  1  0
M  END
