CVD-0001027|dock_bobby27042020.54|mol2|4|dock3
     RDKit          3D

 32 35  0  0  0  0  0  0  0  0999 V2000
    9.3649    5.1679   25.5153 C   0  0  0  0  0  0  0  0  0  0  0  0
   10.7605    5.4166   25.1977 N   0  0  0  0  0  0  0  0  0  0  0  0
   11.4560    6.3850   26.0286 C   0  0  0  0  0  0  0  0  0  0  0  0
   11.3559    4.8803   24.0941 C   0  0  0  0  0  0  0  0  0  0  0  0
   10.8388    3.6995   23.7179 N   0  0  0  0  0  0  0  0  0  0  0  0
   11.3746    3.0993   22.6394 C   0  0  0  0  0  0  0  0  0  0  0  0
   10.8073    1.8806   22.2930 N   0  0  0  0  0  0  0  0  0  0  0  0
    9.5831    1.3691   22.5734 C   0  0  0  0  0  0  0  0  0  0  0  0
    8.7202    1.9492   23.2273 O   0  0  0  0  0  0  0  0  0  0  0  0
    9.3454   -0.0115   21.9931 C   0  0  0  0  0  0  0  0  0  0  0  0
    7.8820   -0.4141   22.1282 C   0  0  0  0  0  0  0  0  0  0  0  0
    7.6611   -1.8094   21.5816 C   0  0  0  0  0  0  0  0  0  0  0  0
    8.5254   -2.7598   22.2763 N   0  0  0  0  0  0  0  0  0  0  0  0
    9.9423   -2.4447   22.1297 C   0  0  0  0  0  0  0  0  0  0  0  0
   10.2265   -1.0516   22.6812 C   0  0  0  0  0  0  0  0  0  0  0  0
    8.1433   -3.9643   22.7659 C   0  0  0  0  0  0  0  0  0  0  0  0
    8.9706   -4.6852   23.2967 O   0  0  0  0  0  0  0  0  0  0  0  0
    6.7443   -4.5131   22.7164 C   0  0  0  0  0  0  0  0  0  0  0  0
    6.4714   -5.5091   21.7835 C   0  0  0  0  0  0  0  0  0  0  0  0
    5.2127   -6.0739   21.6798 C   0  0  0  0  0  0  0  0  0  0  0  0
    4.1958   -5.6429   22.5143 C   0  0  0  0  0  0  0  0  0  0  0  0
    4.4387   -4.6417   23.4392 C   0  0  0  0  0  0  0  0  0  0  0  0
    5.6988   -4.0769   23.5281 C   0  0  0  0  0  0  0  0  0  0  0  0
    2.8601   -6.2463   22.4179 N   0  0  0  0  0  0  0  0  0  0  0  0
    1.9282   -5.6765   22.9819 O   0  0  0  0  0  0  0  0  0  0  0  0
    2.7454   -7.2811   21.7834 O   0  0  0  0  0  0  0  0  0  0  0  0
   12.3837    3.5598   21.8847 N   0  0  0  0  0  0  0  0  0  0  0  0
   12.8722    4.7379   22.2807 C   0  0  0  0  0  0  0  0  0  0  0  0
   13.8848    5.4657   21.7297 N   0  0  0  0  0  0  0  0  0  0  0  0
   14.0027    6.5777   22.4845 C   0  0  0  0  0  0  0  0  0  0  0  0
   13.1496    6.6377   23.4866 N   0  0  0  0  0  0  0  0  0  0  0  0
   12.4203    5.4637   23.3674 C   0  0  0  0  0  0  0  0  0  0  0  0
  1  2  1  0
  2  3  1  0
  2  4  1  0
  4  5  2  0
  5  6  1  0
  6  7  1  0
  7  8  1  0
  8  9  2  0
  8 10  1  0
 10 11  1  0
 11 12  1  0
 12 13  1  0
 13 14  1  0
 14 15  1  0
 13 16  1  0
 16 17  2  0
 16 18  1  0
 18 19  2  0
 19 20  1  0
 20 21  2  0
 21 22  1  0
 22 23  2  0
 21 24  1  0
 24 25  1  0
 24 26  2  0
  6 27  2  0
 27 28  1  0
 28 29  1  0
 29 30  1  0
 30 31  2  0
 31 32  1  0
 32  4  1  0
 15 10  1  0
 23 18  1  0
 32 28  2  0
M  CHG  2  24   1  25  -1
M  END
