CVD-0000659|dock_bobby27042020.69|mol2|32|dock1
     RDKit          3D

 15 15  0  0  0  0  0  0  0  0999 V2000
   11.8630    3.4779   22.4855 C   0  0  0  0  0  0  0  0  0  0  0  0
   12.5423    2.1568   22.7081 C   0  0  0  0  0  0  0  0  0  0  0  0
   13.7644    2.1307   22.8046 O   0  0  0  0  0  0  0  0  0  0  0  0
   11.8179    0.9409   22.8222 N   0  0  0  0  0  0  0  0  0  0  0  0
   10.4042    0.8474   22.7187 C   0  0  0  0  0  0  0  0  0  0  0  0
    9.7083    1.7942   22.3748 O   0  0  0  0  0  0  0  0  0  0  0  0
    9.7053   -0.4657   23.0282 C   0  0  0  0  0  0  0  0  0  0  0  0
   10.2327   -1.1835   24.5569 Cl  0  0  0  0  0  0  0  0  0  0  0  0
   12.6028   -0.2528   23.0534 C   0  0  0  0  0  0  0  0  0  0  0  0
   12.6423   -1.2621   22.1056 C   0  0  0  0  0  0  0  0  0  0  0  0
   13.3515   -2.3839   22.2625 N   0  0  0  0  0  0  0  0  0  0  0  0
   14.0565   -2.5365   23.3879 C   0  0  0  0  0  0  0  0  0  0  0  0
   14.0833   -1.5803   24.3982 C   0  0  0  0  0  0  0  0  0  0  0  0
   14.8225   -1.7751   25.5415 N   0  0  0  0  0  0  0  0  0  0  0  0
   13.3385   -0.4159   24.2202 C   0  0  0  0  0  0  0  0  0  0  0  0
  1  2  1  0
  2  3  2  0
  2  4  1  0
  4  5  1  0
  5  6  2  0
  5  7  1  0
  7  8  1  0
  4  9  1  0
  9 10  2  0
 10 11  1  0
 11 12  2  0
 12 13  1  0
 13 14  1  0
 13 15  2  0
 15  9  1  0
M  END
