CVD-0000992|dock_bobby27042020.39|mol2|37|dock1
     RDKit          3D

 28 31  0  0  0  0  0  0  0  0999 V2000
   14.2089    6.3645   21.8247 Br  0  0  0  0  0  0  0  0  0  0  0  0
   13.0862    4.9099   22.1799 C   0  0  0  0  0  0  0  0  0  0  0  0
   11.7399    4.8998   22.1530 C   0  0  0  0  0  0  0  0  0  0  0  0
   11.2203    3.6467   22.4688 C   0  0  0  0  0  0  0  0  0  0  0  0
   12.1863    2.7031   22.7363 C   0  0  0  0  0  0  0  0  0  0  0  0
   13.7692    3.3908   22.5914 S   0  0  0  0  0  0  0  0  0  0  0  0
   12.0270    1.3118   23.0961 C   0  0  0  0  0  0  0  0  0  0  0  0
   13.0213    0.5129   23.3779 N   0  0  0  0  0  0  0  0  0  0  0  0
   12.5915   -0.7745   23.6912 N   0  0  0  0  0  0  0  0  0  0  0  0
   11.2895   -0.8871   23.6310 C   0  0  0  0  0  0  0  0  0  0  0  0
   10.6309   -2.0718   23.9010 N   0  0  0  0  0  0  0  0  0  0  0  0
    9.8925   -2.3664   25.0092 C   0  0  0  0  0  0  0  0  0  0  0  0
    9.7064   -1.5950   25.9470 O   0  0  0  0  0  0  0  0  0  0  0  0
    9.3003   -3.7596   24.9967 C   0  0  0  0  0  0  0  0  0  0  0  0
    8.7911   -4.1469   26.3795 C   0  0  0  0  0  0  0  0  0  0  0  0
    8.1655   -5.5263   26.3495 C   0  0  0  0  0  0  0  0  0  0  0  0
    7.0822   -5.5612   25.3706 N   0  0  0  0  0  0  0  0  0  0  0  0
    7.5333   -5.2487   24.0188 C   0  0  0  0  0  0  0  0  0  0  0  0
    8.1595   -3.8586   23.9865 C   0  0  0  0  0  0  0  0  0  0  0  0
    5.8534   -6.0928   25.5713 C   0  0  0  0  0  0  0  0  0  0  0  0
    5.5863   -6.5692   26.6612 O   0  0  0  0  0  0  0  0  0  0  0  0
    4.7509   -6.1406   24.5470 C   0  0  0  0  0  0  0  0  0  0  0  0
    4.3192   -5.0592   23.7780 C   0  0  0  0  0  0  0  0  0  0  0  0
    3.2700   -5.1963   22.8840 C   0  0  0  0  0  0  0  0  0  0  0  0
    2.6514   -6.4148   22.7141 C   0  0  0  0  0  0  0  0  0  0  0  0
    3.0847   -7.5020   23.4391 C   0  0  0  0  0  0  0  0  0  0  0  0
    4.1236   -7.3669   24.3444 C   0  0  0  0  0  0  0  0  0  0  0  0
   10.4643    0.5695   23.1855 S   0  0  0  0  0  0  0  0  0  0  0  0
  1  2  1  0
  2  3  2  0
  3  4  1  0
  4  5  2  0
  5  6  1  0
  5  7  1  0
  7  8  2  0
  8  9  1  0
  9 10  2  0
 10 11  1  0
 11 12  1  0
 12 13  2  0
 12 14  1  0
 14 15  1  0
 15 16  1  0
 16 17  1  0
 17 18  1  0
 18 19  1  0
 17 20  1  0
 20 21  2  0
 20 22  1  0
 22 23  2  0
 23 24  1  0
 24 25  2  0
 25 26  1  0
 26 27  2  0
 10 28  1  0
  6  2  1  0
 28  7  1  0
 19 14  1  0
 27 22  1  0
M  END
