CVD-0001560|dock_bobby27042020.52|mol2|17|dock2
     RDKit          3D

 38 39  0  0  0  0  0  0  0  0999 V2000
    7.0587    3.7711   23.8554 C   0  0  0  0  0  0  0  0  0  0  0  0
    8.5017    3.7146   23.3848 C   0  0  0  0  0  0  0  0  0  0  0  0
    8.9840    5.1126   23.0385 C   0  0  0  0  0  0  0  0  0  0  0  0
    8.6281    2.7428   22.2112 C   0  0  0  0  0  0  0  0  0  0  0  0
    8.3063    1.2702   22.4837 C   0  0  0  0  0  0  0  0  0  0  0  0
    9.0327    0.8408   23.6674 N   0  0  0  0  0  0  0  0  0  0  0  0
   10.2571    0.3120   23.5852 C   0  0  0  0  0  0  0  0  0  0  0  0
   10.8367    0.1466   22.5151 O   0  0  0  0  0  0  0  0  0  0  0  0
   10.9231   -0.0981   24.8954 C   0  0  0  0  0  0  0  0  0  0  0  0
    9.8987   -0.4674   25.8595 N   0  0  0  0  0  0  0  0  0  0  0  0
    9.9488   -0.0402   27.1279 C   0  0  0  0  0  0  0  0  0  0  0  0
   10.8536    0.6778   27.5509 O   0  0  0  0  0  0  0  0  0  0  0  0
    8.8449   -0.4782   28.0188 C   0  0  0  0  0  0  0  0  0  0  0  0
    7.5925   -0.9937   27.6477 C   0  0  0  0  0  0  0  0  0  0  0  0
    6.9560   -1.2376   28.7992 C   0  0  0  0  0  0  0  0  0  0  0  0
    5.6104   -1.7814   29.1520 C   0  0  0  0  0  0  0  0  0  0  0  0
    7.7463   -0.9014   29.8375 O   0  0  0  0  0  0  0  0  0  0  0  0
    8.9727   -0.4084   29.3272 N   0  0  0  0  0  0  0  0  0  0  0  0
   11.9170   -1.2591   24.7001 C   0  0  0  0  0  0  0  0  0  0  0  0
   13.2362   -0.7757   24.1081 C   0  0  0  0  0  0  0  0  0  0  0  0
   11.3096   -2.3310   23.8025 C   0  0  0  0  0  0  0  0  0  0  0  0
    8.6655    0.3732   21.3117 C   0  0  0  0  0  0  0  0  0  0  0  0
    9.2869    0.7874   20.3573 O   0  0  0  0  0  0  0  0  0  0  0  0
    8.2049   -1.0646   21.4039 C   0  0  0  0  0  0  0  0  0  0  0  0
    6.7161   -1.2873   21.0919 C   0  0  0  0  0  0  0  0  0  0  0  0
    6.3412   -0.6246   19.7499 C   0  0  0  0  0  0  0  0  0  0  0  0
    5.8376    0.8272   19.7760 C   0  0  0  0  0  0  0  0  0  0  0  0
    4.6070    1.0670   20.6733 C   0  0  0  0  0  0  0  0  0  0  0  0
    3.7195    2.0319   19.8978 C   0  0  0  0  0  0  0  0  0  0  0  0
    4.2099    1.9083   18.5383 N   0  0  0  0  0  0  0  0  0  0  0  0
    5.3968    1.3079   18.4180 C   0  0  0  0  0  0  0  0  0  0  0  0
    6.0048    1.1427   17.3646 O   0  0  0  0  0  0  0  0  0  0  0  0
    6.4525   -2.7626   21.0964 C   0  0  0  0  0  0  0  0  0  0  0  0
    6.3796   -3.5227   22.1666 C   0  0  0  0  0  0  0  0  0  0  0  0
    6.0721   -5.2446   22.0376 S   0  0  0  0  0  0  0  0  0  0  0  0
    7.6316   -5.9968   22.3163 C   0  0  0  0  0  0  0  0  0  0  0  0
    5.6616   -5.5308   20.6906 O   0  0  0  0  0  0  0  0  0  0  0  0
    5.1847   -5.6263   23.1012 O   0  0  0  0  0  0  0  0  0  0  0  0
  1  2  1  0
  2  3  1  0
  2  4  1  0
  5  4  1  0
  5  6  1  0
  6  7  1  0
  7  8  2  0
  7  9  1  0
  9 10  1  0
 10 11  1  0
 11 12  2  0
 11 13  1  0
 13 14  1  0
 14 15  2  0
 15 16  1  0
 15 17  1  0
 17 18  1  0
  9 19  1  0
 19 20  1  0
 19 21  1  0
  5 22  1  0
 22 23  2  0
 22 24  1  0
 25 24  1  0
 25 26  1  0
 27 26  1  0
 27 28  1  0
 28 29  1  0
 29 30  1  0
 30 31  1  0
 31 32  2  0
 25 33  1  0
 33 34  2  0
 34 35  1  0
 35 36  1  0
 35 37  2  0
 35 38  2  0
 18 13  2  0
 31 27  1  0
M  END
