CVD-0003084|dock_bobby27042020.46|mol2|24|dock2
     RDKit          3D

 21 22  0  0  0  0  0  0  0  0999 V2000
    7.7539   -1.7630   18.0231 N   0  0  0  0  0  0  0  0  0  0  0  0
    6.9804   -0.8706   18.4482 C   0  0  0  0  0  0  0  0  0  0  0  0
    5.7025   -0.8089   18.1439 N   0  0  0  0  0  0  0  0  0  0  0  0
    7.4738    0.2138   19.3427 C   0  0  0  0  0  0  0  0  0  0  0  0
    8.0414   -0.3094   20.6545 C   0  0  0  0  0  0  0  0  0  0  0  0
    8.3255    0.7983   21.6543 C   0  0  0  0  0  0  0  0  0  0  0  0
    8.8915    0.2704   22.9608 C   0  0  0  0  0  0  0  0  0  0  0  0
   10.2498   -0.2525   22.8378 N   0  0  0  0  0  0  0  0  0  0  0  0
   10.4432   -1.6808   23.0520 C   0  0  0  0  0  0  0  0  0  0  0  0
   11.7004   -2.1477   22.3403 C   0  0  0  0  0  0  0  0  0  0  0  0
   12.9020   -1.3838   22.8570 C   0  0  0  0  0  0  0  0  0  0  0  0
   12.6694    0.1058   22.7787 C   0  0  0  0  0  0  0  0  0  0  0  0
   13.7353    0.9957   22.7129 C   0  0  0  0  0  0  0  0  0  0  0  0
   13.5317    2.3616   22.7146 C   0  0  0  0  0  0  0  0  0  0  0  0
   12.2368    2.8473   22.7833 C   0  0  0  0  0  0  0  0  0  0  0  0
   11.1500    1.9885   22.8500 C   0  0  0  0  0  0  0  0  0  0  0  0
   11.3534    0.6097   22.8483 C   0  0  0  0  0  0  0  0  0  0  0  0
   11.9548    4.5914   22.7430 S   0  0  0  0  0  0  0  0  0  0  0  0
   12.5896    5.1768   21.3948 N   0  0  0  0  0  0  0  0  0  0  0  0
   12.6785    5.1671   23.8366 O   0  0  0  0  0  0  0  0  0  0  0  0
   10.5390    4.7941   22.6672 O   0  0  0  0  0  0  0  0  0  0  0  0
  1  2  1  0
  2  3  2  0
  2  4  1  0
  4  5  1  0
  5  6  1  0
  6  7  1  0
  7  8  1  0
  8  9  1  0
  9 10  1  0
 10 11  1  0
 11 12  1  0
 12 13  2  0
 13 14  1  0
 14 15  2  0
 15 16  1  0
 16 17  2  0
 15 18  1  0
 18 19  1  0
 18 20  2  0
 18 21  2  0
 17  8  1  0
 17 12  1  0
M  END
