CVD-0003037|dock_bobby27042020.46|mol2|31|dock2
     RDKit          3D

 19 20  0  0  0  0  0  0  0  0999 V2000
   14.8939   -1.8187   24.8736 Cl  0  0  0  0  0  0  0  0  0  0  0  0
   14.1663   -2.1505   23.2963 C   0  0  0  0  0  0  0  0  0  0  0  0
   12.6523   -2.0755   23.3362 C   0  0  0  0  0  0  0  0  0  0  0  0
   11.9580   -3.0561   23.0990 O   0  0  0  0  0  0  0  0  0  0  0  0
   12.1114   -0.8807   23.6499 N   0  0  0  0  0  0  0  0  0  0  0  0
   12.9197    0.3086   23.9281 C   0  0  0  0  0  0  0  0  0  0  0  0
   12.4883    1.4620   23.0416 C   0  0  0  0  0  0  0  0  0  0  0  0
   11.0671    1.7562   23.2474 N   0  0  0  0  0  0  0  0  0  0  0  0
   10.6536    2.8982   22.4205 C   0  0  0  0  0  0  0  0  0  0  0  0
   11.3239    4.1900   22.8220 C   0  0  0  0  0  0  0  0  0  0  0  0
   10.7617    5.0005   23.7991 C   0  0  0  0  0  0  0  0  0  0  0  0
   11.3842    6.1799   24.1534 C   0  0  0  0  0  0  0  0  0  0  0  0
   10.6637    7.1819   25.3819 Cl  0  0  0  0  0  0  0  0  0  0  0  0
   12.5621    6.5872   23.5607 C   0  0  0  0  0  0  0  0  0  0  0  0
   13.1075    5.7715   22.5904 C   0  0  0  0  0  0  0  0  0  0  0  0
   14.5930    6.2507   21.8181 Cl  0  0  0  0  0  0  0  0  0  0  0  0
   12.5082    4.5866   22.2152 C   0  0  0  0  0  0  0  0  0  0  0  0
   10.2817    0.5712   22.9123 C   0  0  0  0  0  0  0  0  0  0  0  0
   10.6785   -0.6026   23.7891 C   0  0  0  0  0  0  0  0  0  0  0  0
  1  2  1  0
  2  3  1  0
  3  4  2  0
  3  5  1  0
  5  6  1  0
  6  7  1  0
  7  8  1  0
  8  9  1  0
  9 10  1  0
 10 11  2  0
 11 12  1  0
 12 13  1  0
 12 14  2  0
 14 15  1  0
 15 16  1  0
 15 17  2  0
  8 18  1  0
 18 19  1  0
 19  5  1  0
 17 10  1  0
M  END
