CVD-0004019|dock_bobby27042020.29|mol2|6|dock3
     RDKit          3D

 47 50  0  0  0  0  0  0  0  0999 V2000
    5.3694    0.2214   18.4045 C   0  0  0  0  0  0  0  0  0  0  0  0
    6.6652   -0.0938   19.1312 C   0  0  0  0  0  0  0  0  0  0  0  0
    7.8455    0.1008   18.1951 C   0  0  0  0  0  0  0  0  0  0  0  0
    6.6365   -1.5271   19.6539 C   0  0  0  0  0  0  0  0  0  0  0  0
    7.9526   -2.0663   20.2199 C   0  0  0  0  0  0  0  0  0  0  0  0
    7.7630   -3.4524   20.6419 N   0  0  0  0  0  0  0  0  0  0  0  0
    6.4287   -3.9075   21.4453 S   0  0  0  0  0  0  0  0  0  0  0  0
    5.3923   -4.0241   20.4695 O   0  0  0  0  0  0  0  0  0  0  0  0
    6.2895   -3.0002   22.5396 O   0  0  0  0  0  0  0  0  0  0  0  0
    6.6217   -5.3734   22.0867 N   0  0  0  0  0  0  0  0  0  0  0  0
    5.4545   -6.2586   22.1755 C   0  0  0  0  0  0  0  0  0  0  0  0
    4.3447   -5.6443   22.9940 C   0  0  0  0  0  0  0  0  0  0  0  0
    4.6311   -4.8227   24.0733 C   0  0  0  0  0  0  0  0  0  0  0  0
    3.6132   -4.2565   24.8224 C   0  0  0  0  0  0  0  0  0  0  0  0
    2.2963   -4.5047   24.5003 C   0  0  0  0  0  0  0  0  0  0  0  0
    1.9976   -5.3187   23.4289 C   0  0  0  0  0  0  0  0  0  0  0  0
    3.0159   -5.8846   22.6802 C   0  0  0  0  0  0  0  0  0  0  0  0
    8.4354   -1.2181   21.3942 C   0  0  0  0  0  0  0  0  0  0  0  0
    7.6544   -0.9007   22.2873 O   0  0  0  0  0  0  0  0  0  0  0  0
    9.7216   -0.8562   21.3990 N   0  0  0  0  0  0  0  0  0  0  0  0
   10.2838   -0.0547   22.4738 C   0  0  0  0  0  0  0  0  0  0  0  0
   11.4164   -0.7929   23.1921 C   0  0  0  0  0  0  0  0  0  0  0  0
   10.9752   -1.8830   24.1793 C   0  0  0  0  0  0  0  0  0  0  0  0
   10.3835   -3.1463   23.5229 C   0  0  0  0  0  0  0  0  0  0  0  0
    9.2067   -3.5488   24.4022 C   0  0  0  0  0  0  0  0  0  0  0  0
    8.9242   -2.3366   25.1472 N   0  0  0  0  0  0  0  0  0  0  0  0
    9.8870   -1.4121   25.1083 C   0  0  0  0  0  0  0  0  0  0  0  0
    9.8643   -0.3380   25.7035 O   0  0  0  0  0  0  0  0  0  0  0  0
   10.7984    1.2550   21.8850 C   0  0  0  0  0  0  0  0  0  0  0  0
   11.7588    1.2429   21.1349 O   0  0  0  0  0  0  0  0  0  0  0  0
   10.0109    2.5122   22.2987 C   0  0  0  0  0  0  0  0  0  0  0  0
    8.8152    2.2871   22.4506 O   0  0  0  0  0  0  0  0  0  0  0  0
   10.5435    3.7563   22.4735 N   0  0  0  0  0  0  0  0  0  0  0  0
   12.0259    3.9755   22.3692 C   0  0  0  0  0  0  0  0  0  0  0  0
   12.6679    3.6091   23.7089 C   0  0  0  0  0  0  0  0  0  0  0  0
   13.7708    4.9938   24.1282 S   0  0  0  0  0  0  0  0  0  0  0  0
   15.1537    4.6184   24.0161 O   0  0  0  0  0  0  0  0  0  0  0  0
   13.3630    5.6397   25.3453 O   0  0  0  0  0  0  0  0  0  0  0  0
   13.3030    5.9949   22.7646 C   0  0  0  0  0  0  0  0  0  0  0  0
   12.4440    5.3490   21.9668 C   0  0  0  0  0  0  0  0  0  0  0  0
    9.6709    4.8538   22.7825 C   0  0  0  0  0  0  0  0  0  0  0  0
    8.5042    5.0511   22.0530 C   0  0  0  0  0  0  0  0  0  0  0  0
    7.6601    6.1091   22.3405 C   0  0  0  0  0  0  0  0  0  0  0  0
    7.9457    7.0041   23.3580 C   0  0  0  0  0  0  0  0  0  0  0  0
    7.0222    8.1579   23.6647 C   0  0  0  0  0  0  0  0  0  0  0  0
    9.1107    6.8074   24.0806 C   0  0  0  0  0  0  0  0  0  0  0  0
    9.9622    5.7531   23.8022 C   0  0  0  0  0  0  0  0  0  0  0  0
  1  2  1  0
  2  3  1  0
  2  4  1  0
  5  4  1  0
  5  6  1  0
  6  7  1  0
  7  8  2  0
  7  9  2  0
  7 10  1  0
 10 11  1  0
 11 12  1  0
 12 13  2  0
 13 14  1  0
 14 15  2  0
 15 16  1  0
 16 17  2  0
  5 18  1  0
 18 19  2  0
 18 20  1  0
 20 21  1  0
 21 22  1  0
 23 22  1  0
 23 24  1  0
 24 25  1  0
 25 26  1  0
 26 27  1  0
 27 28  2  0
 21 29  1  0
 29 30  2  0
 29 31  1  0
 31 32  2  0
 31 33  1  0
 33 34  1  0
 34 35  1  0
 35 36  1  0
 36 37  2  0
 36 38  2  0
 36 39  1  0
 39 40  2  0
 33 41  1  0
 41 42  2  0
 42 43  1  0
 43 44  2  0
 44 45  1  0
 44 46  1  0
 46 47  2  0
 17 12  1  0
 27 23  1  0
 40 34  1  0
 47 41  1  0
M  END
