CVD-0003015|dock_bobby27042020.18|mol2|2|dock1
     RDKit          3D

 22 24  0  0  0  0  0  0  0  0999 V2000
    4.7931   -2.4537   18.3795 O   0  0  0  0  0  0  0  0  0  0  0  0
    5.7623   -1.7667   19.0504 C   0  0  0  0  0  0  0  0  0  0  0  0
    6.2584   -0.5805   18.5372 C   0  0  0  0  0  0  0  0  0  0  0  0
    7.2508    0.1068   19.2132 C   0  0  0  0  0  0  0  0  0  0  0  0
    7.7700   -0.3672   20.4167 C   0  0  0  0  0  0  0  0  0  0  0  0
    7.2376   -1.5489   20.9279 C   0  0  0  0  0  0  0  0  0  0  0  0
    6.2564   -2.2499   20.2498 C   0  0  0  0  0  0  0  0  0  0  0  0
    8.8355    0.3889   21.1044 C   0  0  0  0  0  0  0  0  0  0  0  0
    9.9223   -0.4366   21.2561 O   0  0  0  0  0  0  0  0  0  0  0  0
   11.1005   -0.0319   21.8464 C   0  0  0  0  0  0  0  0  0  0  0  0
   12.1313   -0.9658   21.9448 C   0  0  0  0  0  0  0  0  0  0  0  0
   12.0124   -2.2485   21.4884 O   0  0  0  0  0  0  0  0  0  0  0  0
   13.3307   -0.5717   22.5333 C   0  0  0  0  0  0  0  0  0  0  0  0
   14.3365   -1.4795   22.6303 O   0  0  0  0  0  0  0  0  0  0  0  0
   13.5039    0.7148   23.0117 C   0  0  0  0  0  0  0  0  0  0  0  0
   12.4767    1.6383   22.9138 C   0  0  0  0  0  0  0  0  0  0  0  0
   12.7071    2.8853   23.4018 O   0  0  0  0  0  0  0  0  0  0  0  0
   11.2413    1.2780   22.3247 C   0  0  0  0  0  0  0  0  0  0  0  0
   10.1113    2.1943   22.1907 C   0  0  0  0  0  0  0  0  0  0  0  0
   10.1316    3.3596   22.5720 O   0  0  0  0  0  0  0  0  0  0  0  0
    8.9029    1.6755   21.5702 C   0  0  0  0  0  0  0  0  0  0  0  0
    7.8980    2.5561   21.5168 O   0  0  0  0  0  0  0  0  0  0  0  0
  1  2  1  0
  2  3  2  0
  3  4  1  0
  4  5  2  0
  5  6  1  0
  6  7  2  0
  5  8  1  0
  8  9  1  0
  9 10  1  0
 10 11  2  0
 11 12  1  0
 11 13  1  0
 13 14  1  0
 13 15  2  0
 15 16  1  0
 16 17  1  0
 16 18  2  0
 18 19  1  0
 19 20  2  0
 19 21  1  0
 21 22  1  0
  7  2  1  0
 21  8  2  0
 18 10  1  0
M  END
