CVD-0001780|dock_bobby27042020.66|mol2|9|dock2
     RDKit          3D

  9 10  0  0  0  0  0  0  0  0999 V2000
   10.5214   -0.1094   21.9600 C   0  0  0  0  0  0  0  0  0  0  0  0
   10.9199    0.3172   23.1830 C   0  0  0  0  0  0  0  0  0  0  0  0
   12.0742   -0.4496   23.5372 C   0  0  0  0  0  0  0  0  0  0  0  0
   12.9410   -0.4997   24.6403 C   0  0  0  0  0  0  0  0  0  0  0  0
   13.9995   -1.3928   24.6627 C   0  0  0  0  0  0  0  0  0  0  0  0
   14.2169   -2.2463   23.6003 C   0  0  0  0  0  0  0  0  0  0  0  0
   13.3827   -2.2266   22.4933 C   0  0  0  0  0  0  0  0  0  0  0  0
   12.3188   -1.3299   22.4694 C   0  0  0  0  0  0  0  0  0  0  0  0
   11.3568   -1.1049   21.5150 N   0  0  0  0  0  0  0  0  0  0  0  0
  1  2  2  0
  2  3  1  0
  3  4  2  0
  4  5  1  0
  5  6  2  0
  6  7  1  0
  7  8  2  0
  8  9  1  0
  9  1  1  0
  8  3  1  0
M  END
