CVD-0003862|dock_bobby27042020.44|mol2|6|dock2
     RDKit          3D

 29 32  0  0  0  0  0  0  0  0999 V2000
   13.7906    5.6599   21.5400 N   0  0  0  0  0  0  0  0  0  0  0  0
   13.5330    5.0157   22.9828 S   0  0  0  0  0  0  0  0  0  0  0  0
   12.8766    6.0091   23.7789 O   0  0  0  0  0  0  0  0  0  0  0  0
   14.7811    4.4797   23.4363 O   0  0  0  0  0  0  0  0  0  0  0  0
   12.4124    3.6615   22.7994 C   0  0  0  0  0  0  0  0  0  0  0  0
   11.0881    3.8997   22.4799 C   0  0  0  0  0  0  0  0  0  0  0  0
   10.2159    2.8353   22.3359 C   0  0  0  0  0  0  0  0  0  0  0  0
   10.6380    1.5217   22.5218 C   0  0  0  0  0  0  0  0  0  0  0  0
   11.9740    1.3114   22.8506 C   0  0  0  0  0  0  0  0  0  0  0  0
   12.8595    2.3659   22.9838 C   0  0  0  0  0  0  0  0  0  0  0  0
    9.7598    0.4511   22.3858 N   0  0  0  0  0  0  0  0  0  0  0  0
    8.3499    0.5236   22.7809 C   0  0  0  0  0  0  0  0  0  0  0  0
    7.9192   -0.6860   23.5613 C   0  0  0  0  0  0  0  0  0  0  0  0
    8.1856   -1.9729   22.7727 C   0  0  0  0  0  0  0  0  0  0  0  0
    7.7510   -3.2097   23.5506 C   0  0  0  0  0  0  0  0  0  0  0  0
    6.3359   -3.2298   23.9433 N   0  0  0  0  0  0  0  0  0  0  0  0
    5.4581   -3.6438   22.8596 C   0  0  0  0  0  0  0  0  0  0  0  0
    5.6775   -5.1534   22.5142 C   0  0  0  0  0  0  0  0  0  0  0  0
    5.5640   -6.0460   23.7627 C   0  0  0  0  0  0  0  0  0  0  0  0
    6.4402   -5.4903   24.8839 C   0  0  0  0  0  0  0  0  0  0  0  0
    6.1139   -4.0281   25.1469 C   0  0  0  0  0  0  0  0  0  0  0  0
    6.2661   -6.2797   26.1506 C   0  0  0  0  0  0  0  0  0  0  0  0
    5.2870   -7.2236   26.4269 C   0  0  0  0  0  0  0  0  0  0  0  0
    5.3997   -7.7802   27.6983 C   0  0  0  0  0  0  0  0  0  0  0  0
    6.4467   -7.2686   28.3775 C   0  0  0  0  0  0  0  0  0  0  0  0
    6.9347   -7.6810   29.9691 Cl  0  0  0  0  0  0  0  0  0  0  0  0
    7.3318   -6.0933   27.4969 S   0  0  0  0  0  0  0  0  0  0  0  0
    9.6433   -2.0120   22.3887 C   0  0  0  0  0  0  0  0  0  0  0  0
   10.0879   -0.7799   21.6300 C   0  0  0  0  0  0  0  0  0  0  0  0
  1  2  1  0
  2  3  2  0
  2  4  2  0
  2  5  1  0
  5  6  2  0
  6  7  1  0
  7  8  2  0
  8  9  1  0
  9 10  2  0
  8 11  1  0
 11 12  1  0
 12 13  1  0
 13 14  1  0
 14 15  1  0
 15 16  1  0
 16 17  1  0
 17 18  1  0
 18 19  1  0
 19 20  1  0
 20 21  1  0
 20 22  1  0
 22 23  2  0
 23 24  1  0
 24 25  2  0
 25 26  1  0
 25 27  1  0
 14 28  1  0
 28 29  1  0
 10  5  1  0
 29 11  1  0
 21 16  1  0
 27 22  1  0
M  END
