CVD-0003270|dock_bobby27042020.60|mol2|20|dock1
     RDKit          3D

 39 40  0  0  0  0  0  0  0  0999 V2000
    4.2946   -7.1537   23.1310 C   0  0  0  0  0  0  0  0  0  0  0  0
    5.0928   -5.9903   23.6419 C   0  0  0  0  0  0  0  0  0  0  0  0
    4.5896   -5.1130   24.3367 O   0  0  0  0  0  0  0  0  0  0  0  0
    6.3880   -5.9755   23.3089 N   0  0  0  0  0  0  0  0  0  0  0  0
    7.2793   -4.9159   23.7517 C   0  0  0  0  0  0  0  0  0  0  0  0
    8.6005   -5.5076   24.2367 C   0  0  0  0  0  0  0  0  0  0  0  0
    9.0408   -6.5510   23.3764 O   0  0  0  0  0  0  0  0  0  0  0  0
    7.5493   -3.9253   22.6229 C   0  0  0  0  0  0  0  0  0  0  0  0
    7.5503   -4.3007   21.4535 O   0  0  0  0  0  0  0  0  0  0  0  0
    7.7781   -2.6584   22.9803 N   0  0  0  0  0  0  0  0  0  0  0  0
    8.0478   -1.6240   21.9950 C   0  0  0  0  0  0  0  0  0  0  0  0
    9.3984   -1.8924   21.3173 C   0  0  0  0  0  0  0  0  0  0  0  0
   10.5973   -1.5453   22.1473 C   0  0  0  0  0  0  0  0  0  0  0  0
   11.3897   -2.4102   22.8428 C   0  0  0  0  0  0  0  0  0  0  0  0
   12.3909   -1.7308   23.4813 N   0  0  0  0  0  0  0  0  0  0  0  0
   12.2625   -0.3909   23.2092 C   0  0  0  0  0  0  0  0  0  0  0  0
   13.0255    0.6984   23.6157 C   0  0  0  0  0  0  0  0  0  0  0  0
   12.6523    1.9632   23.1912 C   0  0  0  0  0  0  0  0  0  0  0  0
   11.5471    2.1373   22.3831 C   0  0  0  0  0  0  0  0  0  0  0  0
   10.7871    1.0526   21.9746 C   0  0  0  0  0  0  0  0  0  0  0  0
   11.1372   -0.2354   22.3775 C   0  0  0  0  0  0  0  0  0  0  0  0
    6.9084   -1.5519   20.9813 C   0  0  0  0  0  0  0  0  0  0  0  0
    6.0050   -2.3834   21.0162 O   0  0  0  0  0  0  0  0  0  0  0  0
    6.9503   -0.5600   20.0910 N   0  0  0  0  0  0  0  0  0  0  0  0
    5.9210   -0.3863   19.0859 C   0  0  0  0  0  0  0  0  0  0  0  0
    5.1730    0.9336   19.1478 C   0  0  0  0  0  0  0  0  0  0  0  0
    5.0290    1.6423   18.1564 O   0  0  0  0  0  0  0  0  0  0  0  0
    4.6867    1.2654   20.3458 N   0  0  0  0  0  0  0  0  0  0  0  0
    3.9388    2.4941   20.5558 C   0  0  0  0  0  0  0  0  0  0  0  0
    2.4474    2.1627   20.6831 C   0  0  0  0  0  0  0  0  0  0  0  0
    1.5189    3.3516   20.9126 C   0  0  0  0  0  0  0  0  0  0  0  0
    0.0540    2.9898   21.0634 C   0  0  0  0  0  0  0  0  0  0  0  0
   -0.1715    2.0411   22.1448 N   0  0  0  0  0  0  0  0  0  0  0  0
   -0.1846    0.7108   21.9543 C   0  0  0  0  0  0  0  0  0  0  0  0
   -0.4028   -0.0385   23.0345 N   0  0  0  0  0  0  0  0  0  0  0  0
   -0.0022    0.2252   20.8296 O   0  0  0  0  0  0  0  0  0  0  0  0
    4.4992    3.1838   21.7978 C   0  0  0  0  0  0  0  0  0  0  0  0
    5.0906    4.3516   21.6036 N   0  0  0  0  0  0  0  0  0  0  0  0
    4.3992    2.6617   22.9097 O   0  0  0  0  0  0  0  0  0  0  0  0
  1  2  1  0
  2  3  2  0
  2  4  1  0
  4  5  1  0
  5  6  1  0
  6  7  1  0
  5  8  1  0
  8  9  2  0
  8 10  1  0
 10 11  1  0
 11 12  1  0
 12 13  1  0
 13 14  2  0
 14 15  1  0
 15 16  1  0
 16 17  2  0
 17 18  1  0
 18 19  2  0
 19 20  1  0
 20 21  2  0
 11 22  1  0
 22 23  2  0
 22 24  1  0
 24 25  1  0
 25 26  1  0
 26 27  2  0
 26 28  1  0
 28 29  1  0
 29 30  1  0
 30 31  1  0
 31 32  1  0
 32 33  1  0
 33 34  1  0
 34 35  1  0
 34 36  2  0
 29 37  1  0
 37 38  1  0
 37 39  2  0
 21 13  1  0
 21 16  1  0
M  END
