CVD-0003727|dock_bobby27042020.1|mol2|11|dock1
     RDKit          3D

 28 30  0  0  0  0  0  0  0  0999 V2000
    5.2761    1.9569   17.5235 N   0  0  0  0  0  0  0  0  0  0  0  0
    5.7789    0.8195   17.9862 C   0  0  0  0  0  0  0  0  0  0  0  0
    6.4524    0.0628   17.2802 O   0  0  0  0  0  0  0  0  0  0  0  0
    5.4150    0.6003   19.4718 C   0  0  0  0  0  0  0  0  0  0  0  0
    4.2132    0.5416   19.7055 O   0  0  0  0  0  0  0  0  0  0  0  0
    6.3182    0.4805   20.4702 N   0  0  0  0  0  0  0  0  0  0  0  0
    6.0081    0.2109   21.8717 C   0  0  0  0  0  0  0  0  0  0  0  0
    6.9273   -0.8678   22.4066 C   0  0  0  0  0  0  0  0  0  0  0  0
    8.3856   -0.4569   22.2458 C   0  0  0  0  0  0  0  0  0  0  0  0
    8.6650   -0.1290   20.7808 C   0  0  0  0  0  0  0  0  0  0  0  0
    7.6920    0.9300   20.2731 C   0  0  0  0  0  0  0  0  0  0  0  0
    9.2914   -1.5213   22.7312 N   0  0  0  0  0  0  0  0  0  0  0  0
    8.7404   -2.4545   23.7345 C   0  0  0  0  0  0  0  0  0  0  0  0
    7.7197   -3.4458   23.2171 C   0  0  0  0  0  0  0  0  0  0  0  0
    7.9418   -4.0630   21.9883 C   0  0  0  0  0  0  0  0  0  0  0  0
    7.0449   -4.9792   21.4649 C   0  0  0  0  0  0  0  0  0  0  0  0
    5.9003   -5.3011   22.1606 C   0  0  0  0  0  0  0  0  0  0  0  0
    5.6470   -4.7063   23.3842 C   0  0  0  0  0  0  0  0  0  0  0  0
    6.5456   -3.7808   23.9189 C   0  0  0  0  0  0  0  0  0  0  0  0
    6.2400   -3.1852   25.1937 C   0  0  0  0  0  0  0  0  0  0  0  0
    6.0144   -2.6742   26.1900 N   0  0  0  0  0  0  0  0  0  0  0  0
   10.6951   -1.0955   22.9402 C   0  0  0  0  0  0  0  0  0  0  0  0
   10.9342   -0.6651   24.3805 C   0  0  0  0  0  0  0  0  0  0  0  0
   12.3798   -0.1829   24.5331 C   0  0  0  0  0  0  0  0  0  0  0  0
   13.4016   -1.2409   24.1120 C   0  0  0  0  0  0  0  0  0  0  0  0
   13.4612   -2.3358   25.0301 O   0  0  0  0  0  0  0  0  0  0  0  0
   13.1112   -1.7038   22.6895 C   0  0  0  0  0  0  0  0  0  0  0  0
   11.6719   -2.1844   22.5062 C   0  0  0  0  0  0  0  0  0  0  0  0
  1  2  1  0
  2  3  2  0
  2  4  1  0
  4  5  2  0
  4  6  1  0
  6  7  1  0
  7  8  1  0
  8  9  1  0
  9 10  1  0
 10 11  1  0
  9 12  1  0
 12 13  1  0
 13 14  1  0
 14 15  2  0
 15 16  1  0
 16 17  2  0
 17 18  1  0
 18 19  2  0
 19 20  1  0
 20 21  3  0
 12 22  1  0
 22 23  1  0
 23 24  1  0
 24 25  1  0
 25 26  1  0
 25 27  1  0
 27 28  1  0
 11  6  1  0
 19 14  1  0
 28 22  1  0
M  END
