CVD-0001778|dock_bobby27042020.94|mol2|15|dock3
     RDKit          3D

 50 53  0  0  0  0  0  0  0  0999 V2000
    4.6531   11.9335   14.9792 C   0  0  0  0  0  0  0  0  0  0  0  0
    4.2896   13.1396   15.8141 C   0  0  0  0  0  0  0  0  0  0  0  0
    4.7660   13.0214   17.2521 C   0  0  0  0  0  0  0  0  0  0  0  0
    4.1869   11.8687   18.0593 C   0  0  0  0  0  0  0  0  0  0  0  0
    4.3046   11.9512   19.5748 C   0  0  0  0  0  0  0  0  0  0  0  0
    3.8823   10.7213   20.3603 C   0  0  0  0  0  0  0  0  0  0  0  0
    4.9252    9.6172   20.3893 C   0  0  0  0  0  0  0  0  0  0  0  0
    4.4732    8.3662   21.1228 C   0  0  0  0  0  0  0  0  0  0  0  0
    5.4695    7.2217   21.0544 C   0  0  0  0  0  0  0  0  0  0  0  0
    6.7142    7.4413   21.8969 C   0  0  0  0  0  0  0  0  0  0  0  0
    7.7396    6.3269   21.7779 C   0  0  0  0  0  0  0  0  0  0  0  0
    8.8675    6.4209   22.7910 C   0  0  0  0  0  0  0  0  0  0  0  0
   10.0805    5.5777   22.4379 C   0  0  0  0  0  0  0  0  0  0  0  0
   11.1428    5.5483   23.5239 C   0  0  0  0  0  0  0  0  0  0  0  0
   12.4266    4.8558   23.0872 C   0  0  0  0  0  0  0  0  0  0  0  0
   12.2191    3.4785   22.5213 C   0  0  0  0  0  0  0  0  0  0  0  0
   12.1573    3.2103   21.3358 O   0  0  0  0  0  0  0  0  0  0  0  0
   12.1120    2.5535   23.5130 O   0  0  0  0  0  0  0  0  0  0  0  0
   11.7588    1.2368   23.1617 C   0  0  0  0  0  0  0  0  0  0  0  0
   12.6271    0.1666   23.3985 C   0  0  0  0  0  0  0  0  0  0  0  0
   13.8664    0.3549   23.9248 O   0  0  0  0  0  0  0  0  0  0  0  0
   12.2229   -1.1223   23.0849 C   0  0  0  0  0  0  0  0  0  0  0  0
   10.9808   -1.3441   22.5233 C   0  0  0  0  0  0  0  0  0  0  0  0
   10.0962   -0.2946   22.2652 C   0  0  0  0  0  0  0  0  0  0  0  0
    8.7242   -0.5420   21.6681 C   0  0  0  0  0  0  0  0  0  0  0  0
    8.7450    0.0628   20.3509 O   0  0  0  0  0  0  0  0  0  0  0  0
    7.5985   -0.1131   19.6123 C   0  0  0  0  0  0  0  0  0  0  0  0
    7.4176    0.7770   18.5662 C   0  0  0  0  0  0  0  0  0  0  0  0
    6.2770    0.6717   17.7810 C   0  0  0  0  0  0  0  0  0  0  0  0
    6.0751    1.5509   16.7575 O   0  0  0  0  0  0  0  0  0  0  0  0
    5.3331   -0.3113   18.0417 C   0  0  0  0  0  0  0  0  0  0  0  0
    5.5409   -1.1871   19.0942 C   0  0  0  0  0  0  0  0  0  0  0  0
    4.6354   -2.1685   19.3472 O   0  0  0  0  0  0  0  0  0  0  0  0
    6.6756   -1.1117   19.9052 C   0  0  0  0  0  0  0  0  0  0  0  0
    6.8979   -2.0801   21.0417 C   0  0  0  0  0  0  0  0  0  0  0  0
    8.3300   -2.0128   21.5229 C   0  0  0  0  0  0  0  0  0  0  0  0
    8.3878   -2.7068   22.8030 O   0  0  0  0  0  0  0  0  0  0  0  0
    8.0631   -4.0111   22.8512 C   0  0  0  0  0  0  0  0  0  0  0  0
    7.7200   -4.6743   21.8867 O   0  0  0  0  0  0  0  0  0  0  0  0
    8.1704   -4.5841   24.2290 C   0  0  0  0  0  0  0  0  0  0  0  0
    7.6714   -3.8641   25.3100 C   0  0  0  0  0  0  0  0  0  0  0  0
    7.7641   -4.3827   26.5909 C   0  0  0  0  0  0  0  0  0  0  0  0
    7.2805   -3.6887   27.6537 O   0  0  0  0  0  0  0  0  0  0  0  0
    8.3550   -5.6246   26.8106 C   0  0  0  0  0  0  0  0  0  0  0  0
    8.4452   -6.1336   28.0726 O   0  0  0  0  0  0  0  0  0  0  0  0
    8.8523   -6.3399   25.7237 C   0  0  0  0  0  0  0  0  0  0  0  0
    9.4275   -7.5506   25.9438 O   0  0  0  0  0  0  0  0  0  0  0  0
    8.7627   -5.8267   24.4402 C   0  0  0  0  0  0  0  0  0  0  0  0
   10.5159    1.0068   22.5661 C   0  0  0  0  0  0  0  0  0  0  0  0
    9.6833    2.0471   22.2617 O   0  0  0  0  0  0  0  0  0  0  0  0
  1  2  1  0
  2  3  1  0
  3  4  1  0
  4  5  1  0
  5  6  1  0
  6  7  1  0
  7  8  1  0
  8  9  1  0
  9 10  1  0
 10 11  1  0
 11 12  1  0
 12 13  1  0
 13 14  1  0
 14 15  1  0
 15 16  1  0
 16 17  2  0
 16 18  1  0
 18 19  1  0
 19 20  2  0
 20 21  1  0
 20 22  1  0
 22 23  2  0
 23 24  1  0
 24 25  1  0
 25 26  1  0
 26 27  1  0
 27 28  2  0
 28 29  1  0
 29 30  1  0
 29 31  2  0
 31 32  1  0
 32 33  1  0
 32 34  2  0
 34 35  1  0
 35 36  1  0
 36 37  1  0
 37 38  1  0
 38 39  2  0
 38 40  1  0
 40 41  2  0
 41 42  1  0
 42 43  1  0
 42 44  2  0
 44 45  1  0
 44 46  1  0
 46 47  1  0
 46 48  2  0
 24 49  2  0
 49 50  1  0
 49 19  1  0
 36 25  1  0
 48 40  1  0
 34 27  1  0
M  END
