CVD-0001243|dock_bobby27042020.67|mol2|41|dock1
     RDKit          3D

 22 24  0  0  0  0  0  0  0  0999 V2000
   13.5792   -1.7109   22.7842 C   0  0  0  0  0  0  0  0  0  0  0  0
   12.1895   -1.2333   22.4996 C   0  0  0  0  0  0  0  0  0  0  0  0
   11.8552   -0.0669   23.2997 N   0  0  0  0  0  0  0  0  0  0  0  0
   12.2367    1.1783   22.9710 C   0  0  0  0  0  0  0  0  0  0  0  0
   13.5588    1.3811   22.8034 N   0  0  0  0  0  0  0  0  0  0  0  0
   13.9671    2.6116   22.4762 C   0  0  0  0  0  0  0  0  0  0  0  0
   13.1021    3.6847   22.3022 C   0  0  0  0  0  0  0  0  0  0  0  0
   11.7416    3.4601   22.4789 C   0  0  0  0  0  0  0  0  0  0  0  0
   11.2723    2.1960   22.8183 C   0  0  0  0  0  0  0  0  0  0  0  0
    9.7868    2.0036   23.0034 C   0  0  0  0  0  0  0  0  0  0  0  0
    9.0110    2.3245   21.8144 N   0  0  0  0  0  0  0  0  0  0  0  0
    8.2531    1.4216   21.1992 C   0  0  0  0  0  0  0  0  0  0  0  0
    8.0545    0.1717   21.4931 N   0  0  0  0  0  0  0  0  0  0  0  0
    7.1760   -0.2621   20.5046 C   0  0  0  0  0  0  0  0  0  0  0  0
    6.5907   -1.5070   20.2754 C   0  0  0  0  0  0  0  0  0  0  0  0
    5.7372   -1.6509   19.1903 C   0  0  0  0  0  0  0  0  0  0  0  0
    5.4658   -0.5889   18.3479 C   0  0  0  0  0  0  0  0  0  0  0  0
    6.0444    0.6500   18.5709 C   0  0  0  0  0  0  0  0  0  0  0  0
    6.8950    0.7837   19.6565 C   0  0  0  0  0  0  0  0  0  0  0  0
    7.5895    1.8933   20.0935 O   0  0  0  0  0  0  0  0  0  0  0  0
   13.5947    4.9933   21.9491 C   0  0  0  0  0  0  0  0  0  0  0  0
   14.0107    6.0250   21.6901 N   0  0  0  0  0  0  0  0  0  0  0  0
  1  2  1  0
  2  3  1  0
  3  4  1  0
  4  5  2  0
  5  6  1  0
  6  7  2  0
  7  8  1  0
  8  9  2  0
  9 10  1  0
 10 11  1  0
 11 12  1  0
 12 13  2  0
 13 14  1  0
 14 15  2  0
 15 16  1  0
 16 17  2  0
 17 18  1  0
 18 19  2  0
 19 20  1  0
  7 21  1  0
 21 22  3  0
  9  4  1  0
 20 12  1  0
 19 14  1  0
M  END
