CVD-0002673|dock_bobby27042020.4|mol2|45|dock3
     RDKit          3D

 18 19  0  0  0  0  0  0  0  0999 V2000
   13.5133    5.4780   21.4700 C   0  0  0  0  0  0  0  0  0  0  0  0
   13.3563    5.1100   22.9002 C   0  0  0  0  0  0  0  0  0  0  0  0
   12.7601    3.7815   22.9613 O   0  0  0  0  0  0  0  0  0  0  0  0
   11.4733    3.6879   22.6175 C   0  0  0  0  0  0  0  0  0  0  0  0
   10.7309    4.6384   22.5269 O   0  0  0  0  0  0  0  0  0  0  0  0
   11.0569    2.2874   22.3590 C   0  0  0  0  0  0  0  0  0  0  0  0
   11.9594    1.3664   22.8160 N   0  0  0  0  0  0  0  0  0  0  0  0
   11.6371    0.0914   22.6115 C   0  0  0  0  0  0  0  0  0  0  0  0
   12.5431   -0.8090   23.0718 N   0  0  0  0  0  0  0  0  0  0  0  0
   12.3737   -2.2542   22.9445 C   0  0  0  0  0  0  0  0  0  0  0  0
   13.7299   -0.3690   23.8006 C   0  0  0  0  0  0  0  0  0  0  0  0
   10.4053   -0.2707   21.9439 C   0  0  0  0  0  0  0  0  0  0  0  0
    9.7290   -1.4638   21.5500 C   0  0  0  0  0  0  0  0  0  0  0  0
    8.5454   -1.0699   20.9286 C   0  0  0  0  0  0  0  0  0  0  0  0
    8.5022    0.2598   20.9417 C   0  0  0  0  0  0  0  0  0  0  0  0
    7.5642    1.0895   20.4631 F   0  0  0  0  0  0  0  0  0  0  0  0
    9.6071    0.7793   21.5459 N   0  0  0  0  0  0  0  0  0  0  0  0
    9.8963    2.1087   21.7357 N   0  0  0  0  0  0  0  0  0  0  0  0
  1  2  1  0
  2  3  1  0
  3  4  1  0
  4  5  2  0
  4  6  1  0
  6  7  1  0
  7  8  2  0
  8  9  1  0
  9 10  1  0
  9 11  1  0
  8 12  1  0
 12 13  2  0
 13 14  1  0
 14 15  2  0
 15 16  1  0
 15 17  1  0
 17 18  1  0
 18  6  2  0
 17 12  1  0
M  END
