CVD-0003212|dock_bobby27042020.88|mol2|37|dock1
     RDKit          3D

 33 36  0  0  0  0  0  0  0  0999 V2000
    7.4510   -1.7305   25.6466 C   0  0  0  0  0  0  0  0  0  0  0  0
    7.5511   -3.2303   25.7374 C   0  0  0  0  0  0  0  0  0  0  0  0
    7.1516   -3.8922   26.8949 C   0  0  0  0  0  0  0  0  0  0  0  0
    7.2497   -5.2672   26.9557 C   0  0  0  0  0  0  0  0  0  0  0  0
    7.7130   -6.0124   25.9527 N   0  0  0  0  0  0  0  0  0  0  0  0
    8.0917   -5.3646   24.8469 C   0  0  0  0  0  0  0  0  0  0  0  0
    8.0360   -4.0027   24.6780 C   0  0  0  0  0  0  0  0  0  0  0  0
    8.4904   -3.3577   23.3884 C   0  0  0  0  0  0  0  0  0  0  0  0
    7.3405   -3.1029   22.4314 C   0  0  0  0  0  0  0  0  0  0  0  0
    6.4859   -3.9688   22.2896 O   0  0  0  0  0  0  0  0  0  0  0  0
    7.2570   -1.9335   21.7284 N   0  0  0  0  0  0  0  0  0  0  0  0
    6.1132   -1.8537   20.8196 C   0  0  0  0  0  0  0  0  0  0  0  0
    6.2645   -0.7939   19.7572 C   0  0  0  0  0  0  0  0  0  0  0  0
    5.2461    0.0296   19.3694 C   0  0  0  0  0  0  0  0  0  0  0  0
    5.6929    1.1458   18.1481 S   0  0  0  0  0  0  0  0  0  0  0  0
    7.2892    0.4666   18.1874 C   0  0  0  0  0  0  0  0  0  0  0  0
    8.2049    0.9871   17.3540 F   0  0  0  0  0  0  0  0  0  0  0  0
    7.4619   -0.5295   19.0593 C   0  0  0  0  0  0  0  0  0  0  0  0
    8.1557   -0.8095   21.8117 C   0  0  0  0  0  0  0  0  0  0  0  0
    9.5168   -0.9897   21.6023 C   0  0  0  0  0  0  0  0  0  0  0  0
   10.3995    0.0717   21.6857 C   0  0  0  0  0  0  0  0  0  0  0  0
    9.9552    1.3531   21.9845 C   0  0  0  0  0  0  0  0  0  0  0  0
   10.9280    2.3834   22.0619 N   0  0  0  0  0  0  0  0  0  0  0  0
   10.7996    3.7079   22.3555 C   0  0  0  0  0  0  0  0  0  0  0  0
    9.7302    4.2423   22.6291 O   0  0  0  0  0  0  0  0  0  0  0  0
   12.0252    4.5830   22.3497 C   0  0  0  0  0  0  0  0  0  0  0  0
   12.1374    5.5619   23.3337 C   0  0  0  0  0  0  0  0  0  0  0  0
   13.2372    6.4013   23.3877 C   0  0  0  0  0  0  0  0  0  0  0  0
   14.2479    6.2807   22.4606 C   0  0  0  0  0  0  0  0  0  0  0  0
   14.1575    5.3193   21.4789 C   0  0  0  0  0  0  0  0  0  0  0  0
   13.0599    4.4764   21.4192 C   0  0  0  0  0  0  0  0  0  0  0  0
    8.5903    1.5403   22.1867 C   0  0  0  0  0  0  0  0  0  0  0  0
    7.7090    0.4773   22.0906 C   0  0  0  0  0  0  0  0  0  0  0  0
  1  2  1  0
  2  3  2  0
  3  4  1  0
  4  5  2  0
  5  6  1  0
  6  7  2  0
  7  8  1  0
  8  9  1  0
  9 10  2  0
  9 11  1  0
 11 12  1  0
 12 13  1  0
 13 14  2  0
 14 15  1  0
 15 16  1  0
 16 17  1  0
 16 18  2  0
 11 19  1  0
 19 20  2  0
 20 21  1  0
 21 22  2  0
 22 23  1  0
 23 24  1  0
 24 25  2  0
 24 26  1  0
 26 27  2  0
 27 28  1  0
 28 29  2  0
 29 30  1  0
 30 31  2  0
 22 32  1  0
 32 33  2  0
  7  2  1  0
 18 13  1  0
 33 19  1  0
 31 26  1  0
M  END
