CVD-0000085|dock_bobby27042020.57|mol2|19|dock2
     RDKit          3D

 46 49  0  0  0  0  0  0  0  0999 V2000
    5.9312   -3.0495   29.2117 C   0  0  0  0  0  0  0  0  0  0  0  0
    6.8511   -3.0769   27.9966 C   0  0  0  0  0  0  0  0  0  0  0  0
    7.0982   -1.6511   27.5158 C   0  0  0  0  0  0  0  0  0  0  0  0
    6.2194   -3.9464   26.8886 C   0  0  0  0  0  0  0  0  0  0  0  0
    5.7276   -5.2492   27.3656 N   0  0  0  0  0  0  0  0  0  0  0  0
    4.3155   -5.5282   27.2289 C   0  0  0  0  0  0  0  0  0  0  0  0
    4.0215   -6.9758   27.2735 C   0  0  0  0  0  0  0  0  0  0  0  0
    4.8109   -7.7970   28.2142 C   0  0  0  0  0  0  0  0  0  0  0  0
    6.1694   -7.2890   28.3845 N   0  0  0  0  0  0  0  0  0  0  0  0
    6.6201   -6.0885   27.9591 C   0  0  0  0  0  0  0  0  0  0  0  0
    7.7931   -5.7732   28.1208 O   0  0  0  0  0  0  0  0  0  0  0  0
    7.1922   -4.1988   25.7305 C   0  0  0  0  0  0  0  0  0  0  0  0
    7.7993   -5.2616   25.6282 O   0  0  0  0  0  0  0  0  0  0  0  0
    7.3250   -3.2035   24.8489 N   0  0  0  0  0  0  0  0  0  0  0  0
    8.2034   -3.2807   23.6815 C   0  0  0  0  0  0  0  0  0  0  0  0
    9.0606   -2.0114   23.6269 C   0  0  0  0  0  0  0  0  0  0  0  0
    9.4573   -1.4966   22.2454 C   0  0  0  0  0  0  0  0  0  0  0  0
   10.6308   -2.2184   21.8681 O   0  0  0  0  0  0  0  0  0  0  0  0
    9.7468    0.0116   22.1843 C   0  0  0  0  0  0  0  0  0  0  0  0
   10.7279    0.4792   23.2700 C   0  0  0  0  0  0  0  0  0  0  0  0
   11.3011    1.8607   23.0621 C   0  0  0  0  0  0  0  0  0  0  0  0
   10.4944    2.9841   23.1560 C   0  0  0  0  0  0  0  0  0  0  0  0
   11.0204    4.2515   22.9681 C   0  0  0  0  0  0  0  0  0  0  0  0
   12.3600    4.4100   22.6848 C   0  0  0  0  0  0  0  0  0  0  0  0
   13.1733    3.3013   22.5899 C   0  0  0  0  0  0  0  0  0  0  0  0
   12.6468    2.0342   22.7778 C   0  0  0  0  0  0  0  0  0  0  0  0
    8.4964    0.7530   22.3066 N   0  0  0  0  0  0  0  0  0  0  0  0
    8.0618    1.6237   21.3929 C   0  0  0  0  0  0  0  0  0  0  0  0
    8.6764    1.8810   20.3623 O   0  0  0  0  0  0  0  0  0  0  0  0
    6.7438    2.3020   21.6707 C   0  0  0  0  0  0  0  0  0  0  0  0
    5.6668    1.3755   21.5650 O   0  0  0  0  0  0  0  0  0  0  0  0
    4.4270    1.9248   21.2784 C   0  0  0  0  0  0  0  0  0  0  0  0
    3.9861    1.9952   19.9520 C   0  0  0  0  0  0  0  0  0  0  0  0
    4.8403    1.5186   18.8068 C   0  0  0  0  0  0  0  0  0  0  0  0
    2.7242    2.5335   19.7103 C   0  0  0  0  0  0  0  0  0  0  0  0
    1.9333    2.9982   20.7470 C   0  0  0  0  0  0  0  0  0  0  0  0
    2.3970    2.9337   22.0497 C   0  0  0  0  0  0  0  0  0  0  0  0
    3.6500    2.3994   22.3394 C   0  0  0  0  0  0  0  0  0  0  0  0
    4.1482    2.3319   23.7587 C   0  0  0  0  0  0  0  0  0  0  0  0
    7.3456   -3.5276   22.4348 C   0  0  0  0  0  0  0  0  0  0  0  0
    6.3841   -4.6823   22.5787 C   0  0  0  0  0  0  0  0  0  0  0  0
    5.0477   -4.4594   22.8722 C   0  0  0  0  0  0  0  0  0  0  0  0
    4.1660   -5.5188   23.0073 C   0  0  0  0  0  0  0  0  0  0  0  0
    4.6110   -6.8139   22.8514 C   0  0  0  0  0  0  0  0  0  0  0  0
    5.9375   -7.0495   22.5607 C   0  0  0  0  0  0  0  0  0  0  0  0
    6.8188   -5.9897   22.4257 C   0  0  0  0  0  0  0  0  0  0  0  0
  1  2  1  0
  2  3  1  0
  4  2  1  0
  4  5  1  0
  5  6  1  0
  6  7  1  0
  7  8  1  0
  8  9  1  0
  9 10  1  0
 10 11  2  0
  4 12  1  0
 12 13  2  0
 12 14  1  0
 14 15  1  0
 15 16  1  0
 16 17  1  0
 17 18  1  0
 17 19  1  0
 19 20  1  0
 20 21  1  0
 21 22  2  0
 22 23  1  0
 23 24  2  0
 24 25  1  0
 25 26  2  0
 19 27  1  0
 27 28  1  0
 28 29  2  0
 28 30  1  0
 30 31  1  0
 31 32  1  0
 32 33  2  0
 33 34  1  0
 33 35  1  0
 35 36  2  0
 36 37  1  0
 37 38  2  0
 38 39  1  0
 15 40  1  0
 40 41  1  0
 41 42  2  0
 42 43  1  0
 43 44  2  0
 44 45  1  0
 45 46  2  0
 10  5  1  0
 26 21  1  0
 38 32  1  0
 46 41  1  0
M  END
