CVD-0002243|dock_bobby27042020.6|mol2|31|dock3
     RDKit          3D

 43 48  0  0  0  0  0  0  0  0999 V2000
    4.4248    1.9694   21.5586 F   0  0  0  0  0  0  0  0  0  0  0  0
    5.0955    1.1030   20.7652 C   0  0  0  0  0  0  0  0  0  0  0  0
    4.5048    0.8120   19.5583 C   0  0  0  0  0  0  0  0  0  0  0  0
    5.1286   -0.0825   18.7097 C   0  0  0  0  0  0  0  0  0  0  0  0
    6.3221   -0.6559   19.0818 C   0  0  0  0  0  0  0  0  0  0  0  0
    6.9073   -0.3392   20.2964 C   0  0  0  0  0  0  0  0  0  0  0  0
    6.3048    0.5563   21.1845 C   0  0  0  0  0  0  0  0  0  0  0  0
    6.9395    0.8991   22.4870 C   0  0  0  0  0  0  0  0  0  0  0  0
    6.2916    1.0526   23.7009 C   0  0  0  0  0  0  0  0  0  0  0  0
    7.2125    1.3801   24.7106 C   0  0  0  0  0  0  0  0  0  0  0  0
    6.8688    1.6333   26.1551 C   0  0  0  0  0  0  0  0  0  0  0  0
    7.0667    0.4356   26.9675 N   0  0  0  0  0  0  0  0  0  0  0  0
    6.6248   -0.8057   26.4347 C   0  0  0  0  0  0  0  0  0  0  0  0
    6.1972   -1.9248   27.7618 Cl  0  0  0  0  0  0  0  0  0  0  0  0
    7.6404   -1.4466   25.5004 C   0  0  0  0  0  0  0  0  0  0  0  0
    8.8159   -1.1535   25.6070 O   0  0  0  0  0  0  0  0  0  0  0  0
    7.2078   -2.3283   24.5708 N   0  0  0  0  0  0  0  0  0  0  0  0
    8.1953   -2.9577   23.6593 C   0  0  0  0  0  0  0  0  0  0  0  0
    8.0299   -4.4405   23.6259 C   0  0  0  0  0  0  0  0  0  0  0  0
    8.3823   -5.0259   24.9875 C   0  0  0  0  0  0  0  0  0  0  0  0
    7.4028   -5.5914   25.7920 C   0  0  0  0  0  0  0  0  0  0  0  0
    7.7234   -6.1209   27.0309 C   0  0  0  0  0  0  0  0  0  0  0  0
    9.0260   -6.0910   27.4807 C   0  0  0  0  0  0  0  0  0  0  0  0
   10.0088   -5.5314   26.6927 C   0  0  0  0  0  0  0  0  0  0  0  0
    9.6893   -5.0017   25.4536 C   0  0  0  0  0  0  0  0  0  0  0  0
    6.6260   -4.7921   23.2047 C   0  0  0  0  0  0  0  0  0  0  0  0
    6.3569   -5.9257   22.4359 C   0  0  0  0  0  0  0  0  0  0  0  0
    5.0700   -6.2489   22.0430 C   0  0  0  0  0  0  0  0  0  0  0  0
    4.0207   -5.4387   22.4142 C   0  0  0  0  0  0  0  0  0  0  0  0
    4.2649   -4.3104   23.1761 C   0  0  0  0  0  0  0  0  0  0  0  0
    5.5557   -3.9784   23.5753 C   0  0  0  0  0  0  0  0  0  0  0  0
    5.7935   -2.7269   24.4255 C   0  0  0  0  0  0  0  0  0  0  0  0
    8.4614    1.4317   24.1132 C   0  0  0  0  0  0  0  0  0  0  0  0
    8.3179    1.1364   22.7633 N   0  0  0  0  0  0  0  0  0  0  0  0
    9.7172    1.1197   21.8026 S   0  0  0  0  0  0  0  0  0  0  0  0
    9.2522    1.3700   20.4737 O   0  0  0  0  0  0  0  0  0  0  0  0
   10.4118   -0.1004   22.0753 O   0  0  0  0  0  0  0  0  0  0  0  0
   10.6963    2.5017   22.2807 C   0  0  0  0  0  0  0  0  0  0  0  0
   12.0399    2.3405   22.5724 C   0  0  0  0  0  0  0  0  0  0  0  0
   12.7737    3.4552   22.9393 C   0  0  0  0  0  0  0  0  0  0  0  0
   12.1397    4.6758   22.9978 C   0  0  0  0  0  0  0  0  0  0  0  0
   10.8468    4.8461   22.7176 N   0  0  0  0  0  0  0  0  0  0  0  0
   10.1444    3.7659   22.3639 C   0  0  0  0  0  0  0  0  0  0  0  0
  1  2  1  0
  2  3  2  0
  3  4  1  0
  4  5  2  0
  5  6  1  0
  6  7  2  0
  7  8  1  0
  8  9  2  0
  9 10  1  0
 10 11  1  0
 11 12  1  0
 12 13  1  0
 13 14  1  0
 13 15  1  0
 15 16  2  0
 15 17  1  0
 17 18  1  0
 18 19  1  0
 19 20  1  0
 20 21  2  0
 21 22  1  0
 22 23  2  0
 23 24  1  0
 24 25  2  0
 19 26  1  0
 26 27  2  0
 27 28  1  0
 28 29  2  0
 29 30  1  0
 30 31  2  0
 31 32  1  0
 10 33  2  0
 33 34  1  0
 34 35  1  0
 35 36  2  0
 35 37  2  0
 35 38  1  0
 38 39  2  0
 39 40  1  0
 40 41  2  0
 41 42  1  0
 42 43  2  0
  7  2  1  0
 34  8  1  0
 43 38  1  0
 32 17  1  0
 25 20  1  0
 31 26  1  0
M  END
