CVD-0003012|dock_bobby27042020.61|mol2|16|dock2
     RDKit          3D

 25 27  0  0  0  0  0  0  0  0999 V2000
    5.5125   -2.2129   18.8634 N   0  0  0  0  0  0  0  0  0  0  0  0
    5.6251   -3.1905   19.7619 C   0  0  0  0  0  0  0  0  0  0  0  0
    5.7471   -4.3811   19.4426 O   0  0  0  0  0  0  0  0  0  0  0  0
    5.5999   -2.8189   21.0531 N   0  0  0  0  0  0  0  0  0  0  0  0
    5.7119   -3.7705   22.1493 C   0  0  0  0  0  0  0  0  0  0  0  0
    7.0948   -4.3862   22.2243 C   0  0  0  0  0  0  0  0  0  0  0  0
    8.1964   -3.4206   21.8354 C   0  0  0  0  0  0  0  0  0  0  0  0
    8.6249   -3.1177   20.6097 C   0  0  0  0  0  0  0  0  0  0  0  0
    9.7107   -2.2188   20.7365 N   0  0  0  0  0  0  0  0  0  0  0  0
    9.8960   -1.8025   22.1692 C   0  0  0  0  0  0  0  0  0  0  0  0
    8.8624   -2.5613   22.8937 C   0  0  0  0  0  0  0  0  0  0  0  0
    9.2628   -3.2829   24.0482 C   0  0  0  0  0  0  0  0  0  0  0  0
   10.5793   -3.5620   24.1870 C   0  0  0  0  0  0  0  0  0  0  0  0
   10.9805   -4.3775   25.1921 F   0  0  0  0  0  0  0  0  0  0  0  0
   11.5274   -2.9695   23.4080 C   0  0  0  0  0  0  0  0  0  0  0  0
   11.2375   -1.9273   22.6130 C   0  0  0  0  0  0  0  0  0  0  0  0
   12.2776   -1.2500   21.7549 C   0  0  0  0  0  0  0  0  0  0  0  0
   13.2389   -0.3928   22.5606 C   0  0  0  0  0  0  0  0  0  0  0  0
   12.5985    0.7091   23.2948 N   0  0  0  0  0  0  0  0  0  0  0  0
   12.0706    0.4183   24.6451 C   0  0  0  0  0  0  0  0  0  0  0  0
   10.6738    0.9740   24.8791 C   0  0  0  0  0  0  0  0  0  0  0  0
   10.6250    2.3904   25.4813 C   0  0  0  0  0  0  0  0  0  0  0  0
   11.6863    3.1982   24.9612 O   0  0  0  0  0  0  0  0  0  0  0  0
   11.9149    3.1071   23.5589 C   0  0  0  0  0  0  0  0  0  0  0  0
   13.0015    2.1205   23.2056 C   0  0  0  0  0  0  0  0  0  0  0  0
  1  2  1  0
  2  3  2  0
  2  4  1  0
  4  5  1  0
  5  6  1  0
  6  7  1  0
  7  8  2  0
  8  9  1  0
  9 10  1  0
 10 11  1  0
 11 12  1  0
 12 13  2  0
 13 14  1  0
 13 15  1  0
 15 16  2  0
 16 17  1  0
 17 18  1  0
 18 19  1  0
 19 20  1  0
 20 21  1  0
 21 22  1  0
 22 23  1  0
 23 24  1  0
 24 25  1  0
 11  7  1  0
 25 19  1  0
 16 10  1  0
M  END
