CVD-0000819|dock_bobby27042020.40|mol2|21|dock1
     RDKit          3D

 30 33  0  0  0  0  0  0  0  0999 V2000
   13.7210   -2.0936   22.8948 C   0  0  0  0  0  0  0  0  0  0  0  0
   13.5326   -0.9901   23.9030 C   0  0  0  0  0  0  0  0  0  0  0  0
   12.4771    0.0222   23.5025 C   0  0  0  0  0  0  0  0  0  0  0  0
   11.1348   -0.3229   23.4637 C   0  0  0  0  0  0  0  0  0  0  0  0
   10.1495    0.5983   23.1127 C   0  0  0  0  0  0  0  0  0  0  0  0
    8.8614    0.1895   22.8350 N   0  0  0  0  0  0  0  0  0  0  0  0
    8.1391    0.2939   21.5678 C   0  0  0  0  0  0  0  0  0  0  0  0
    8.5027   -0.8688   20.6217 C   0  0  0  0  0  0  0  0  0  0  0  0
    7.7096   -0.8283   19.3168 C   0  0  0  0  0  0  0  0  0  0  0  0
    6.2103   -0.7762   19.5804 C   0  0  0  0  0  0  0  0  0  0  0  0
    5.8527    0.3916   20.4886 C   0  0  0  0  0  0  0  0  0  0  0  0
    6.6196    0.3218   21.8052 C   0  0  0  0  0  0  0  0  0  0  0  0
   10.4817    1.9641   23.0112 C   0  0  0  0  0  0  0  0  0  0  0  0
    9.7931    3.1935   22.9733 N   0  0  0  0  0  0  0  0  0  0  0  0
   10.6892    4.1365   22.5026 C   0  0  0  0  0  0  0  0  0  0  0  0
   11.9411    3.6267   22.4226 C   0  0  0  0  0  0  0  0  0  0  0  0
   13.1970    4.3257   21.9699 C   0  0  0  0  0  0  0  0  0  0  0  0
   13.1590    5.7824   22.1411 N   0  0  0  0  0  0  0  0  0  0  0  0
   14.4330    6.3675   21.7394 C   0  0  0  0  0  0  0  0  0  0  0  0
   12.8895    6.1324   23.5318 C   0  0  0  0  0  0  0  0  0  0  0  0
   11.8511    2.2694   22.8731 C   0  0  0  0  0  0  0  0  0  0  0  0
   12.8257    1.3146   23.1499 C   0  0  0  0  0  0  0  0  0  0  0  0
    8.4848    3.5795   23.3090 C   0  0  0  0  0  0  0  0  0  0  0  0
    7.7832    2.7803   23.9046 O   0  0  0  0  0  0  0  0  0  0  0  0
    7.8783    4.9026   22.9488 C   0  0  0  0  0  0  0  0  0  0  0  0
    6.8418    4.9519   22.0230 C   0  0  0  0  0  0  0  0  0  0  0  0
    6.2747    6.1627   21.6621 C   0  0  0  0  0  0  0  0  0  0  0  0
    6.7363    7.3376   22.2154 C   0  0  0  0  0  0  0  0  0  0  0  0
    7.7677    7.3047   23.1289 C   0  0  0  0  0  0  0  0  0  0  0  0
    8.3385    6.0967   23.4932 C   0  0  0  0  0  0  0  0  0  0  0  0
  1  2  1  0
  2  3  1  0
  3  4  2  0
  4  5  1  0
  5  6  1  0
  6  7  1  0
  7  8  1  0
  8  9  1  0
  9 10  1  0
 10 11  1  0
 11 12  1  0
  5 13  2  0
 13 14  1  0
 14 15  1  0
 15 16  2  0
 16 17  1  0
 17 18  1  0
 18 19  1  0
 18 20  1  0
 16 21  1  0
 21 22  2  0
 14 23  1  0
 23 24  2  0
 23 25  1  0
 25 26  2  0
 26 27  1  0
 27 28  2  0
 28 29  1  0
 29 30  2  0
 22  3  1  0
 30 25  1  0
 12  7  1  0
 21 13  1  0
M  END
