CVD-0001972|dock_bobby27042020.65|mol2|19|dock2
     RDKit          3D

 19 20  0  0  0  0  0  0  0  0999 V2000
   14.7036   -2.1763   25.8153 Cl  0  0  0  0  0  0  0  0  0  0  0  0
   13.5396   -1.8815   24.5540 C   0  0  0  0  0  0  0  0  0  0  0  0
   12.2303   -1.6221   24.8889 C   0  0  0  0  0  0  0  0  0  0  0  0
   11.3101   -1.3887   23.8829 C   0  0  0  0  0  0  0  0  0  0  0  0
   11.6884   -1.4126   22.5452 C   0  0  0  0  0  0  0  0  0  0  0  0
   10.6854   -1.1634   21.5740 N   0  0  0  0  0  0  0  0  0  0  0  0
    9.5160   -0.4411   21.6512 C   0  0  0  0  0  0  0  0  0  0  0  0
    9.1305    0.1466   22.6562 O   0  0  0  0  0  0  0  0  0  0  0  0
    8.8355   -0.4640   20.4548 N   0  0  0  0  0  0  0  0  0  0  0  0
    7.6056    0.1310   20.0744 C   0  0  0  0  0  0  0  0  0  0  0  0
    6.6262    0.2583   21.0532 C   0  0  0  0  0  0  0  0  0  0  0  0
    5.4000    0.8277   20.7620 C   0  0  0  0  0  0  0  0  0  0  0  0
    5.1383    1.2786   19.4815 C   0  0  0  0  0  0  0  0  0  0  0  0
    3.5935    1.9883   19.1431 Cl  0  0  0  0  0  0  0  0  0  0  0  0
    6.1058    1.1573   18.4978 C   0  0  0  0  0  0  0  0  0  0  0  0
    5.8047    1.7140   16.8843 Cl  0  0  0  0  0  0  0  0  0  0  0  0
    7.3329    0.5886   18.7853 C   0  0  0  0  0  0  0  0  0  0  0  0
   13.0208   -1.6778   22.2351 C   0  0  0  0  0  0  0  0  0  0  0  0
   13.9445   -1.9119   23.2388 C   0  0  0  0  0  0  0  0  0  0  0  0
  1  2  1  0
  2  3  2  0
  3  4  1  0
  4  5  2  0
  5  6  1  0
  6  7  1  0
  7  8  2  0
  7  9  1  0
  9 10  1  0
 10 11  2  0
 11 12  1  0
 12 13  2  0
 13 14  1  0
 13 15  1  0
 15 16  1  0
 15 17  2  0
  5 18  1  0
 18 19  2  0
 19  2  1  0
 17 10  1  0
M  END
