CVD-0002196|dock_bobby27042020.49|mol2|35|dock2
     RDKit          3D

 22 24  0  0  0  0  0  0  0  0999 V2000
   13.2755   -1.8341   22.7546 C   0  0  0  0  0  0  0  0  0  0  0  0
   11.8486   -1.3973   22.8693 C   0  0  0  0  0  0  0  0  0  0  0  0
   11.0023   -2.0970   21.9168 N   0  0  0  0  0  0  0  0  0  0  0  0
    9.9047   -2.7820   22.2808 C   0  0  0  0  0  0  0  0  0  0  0  0
   10.1051   -3.7099   23.2365 N   0  0  0  0  0  0  0  0  0  0  0  0
    9.0417   -4.3814   23.6872 C   0  0  0  0  0  0  0  0  0  0  0  0
    7.7529   -4.1944   23.2046 C   0  0  0  0  0  0  0  0  0  0  0  0
    7.5478   -3.2659   22.1893 C   0  0  0  0  0  0  0  0  0  0  0  0
    8.6359   -2.5413   21.7062 C   0  0  0  0  0  0  0  0  0  0  0  0
    8.5012   -1.6047   20.6704 N   0  0  0  0  0  0  0  0  0  0  0  0
    7.4562   -0.7126   20.3480 C   0  0  0  0  0  0  0  0  0  0  0  0
    6.4431   -0.3678   21.2431 C   0  0  0  0  0  0  0  0  0  0  0  0
    5.4312    0.5016   20.8676 C   0  0  0  0  0  0  0  0  0  0  0  0
    5.4161    1.0415   19.5871 C   0  0  0  0  0  0  0  0  0  0  0  0
    4.4458    1.9852   18.9385 C   0  0  0  0  0  0  0  0  0  0  0  0
    5.0297    2.1380   17.6236 N   0  0  0  0  0  0  0  0  0  0  0  0
    6.1533    1.4245   17.4256 C   0  0  0  0  0  0  0  0  0  0  0  0
    6.8071    1.4111   16.3875 O   0  0  0  0  0  0  0  0  0  0  0  0
    6.4154    0.7064   18.6920 C   0  0  0  0  0  0  0  0  0  0  0  0
    7.4347   -0.1674   19.0657 C   0  0  0  0  0  0  0  0  0  0  0  0
    6.6456   -4.9471   23.7403 C   0  0  0  0  0  0  0  0  0  0  0  0
    5.7624   -5.5183   24.1859 N   0  0  0  0  0  0  0  0  0  0  0  0
  1  2  1  0
  2  3  1  0
  3  4  1  0
  4  5  2  0
  5  6  1  0
  6  7  2  0
  7  8  1  0
  8  9  2  0
  9 10  1  0
 10 11  1  0
 11 12  2  0
 12 13  1  0
 13 14  2  0
 14 15  1  0
 15 16  1  0
 16 17  1  0
 17 18  2  0
 17 19  1  0
 19 20  2  0
  7 21  1  0
 21 22  3  0
  9  4  1  0
 20 11  1  0
 19 14  1  0
M  END
