CVD-0000276|dock_bobby27042020.70|mol2|37|dock2
     RDKit          3D

 26 28  0  0  0  0  0  0  0  0999 V2000
   11.7808    3.2099   21.9122 O   0  0  0  0  0  0  0  0  0  0  0  0
   12.8196    2.9482   22.5114 C   0  0  0  0  0  0  0  0  0  0  0  0
   13.6855    3.9159   22.8722 N   0  0  0  0  0  0  0  0  0  0  0  0
   13.4302    5.3167   22.5702 C   0  0  0  0  0  0  0  0  0  0  0  0
   12.5618    5.9908   23.6023 C   0  0  0  0  0  0  0  0  0  0  0  0
   11.1806    5.9647   23.5203 C   0  0  0  0  0  0  0  0  0  0  0  0
   10.4655    6.6073   24.5145 C   0  0  0  0  0  0  0  0  0  0  0  0
   11.1798    7.2259   25.5139 C   0  0  0  0  0  0  0  0  0  0  0  0
   12.4999    7.2303   25.5618 N   0  0  0  0  0  0  0  0  0  0  0  0
   13.1969    6.6053   24.5964 N   0  0  0  0  0  0  0  0  0  0  0  0
   13.2408    1.6961   22.8884 N   0  0  0  0  0  0  0  0  0  0  0  0
   12.6412    0.4242   22.7090 C   0  0  0  0  0  0  0  0  0  0  0  0
   13.3503   -0.7713   22.7881 C   0  0  0  0  0  0  0  0  0  0  0  0
   12.6980   -1.9778   22.5986 C   0  0  0  0  0  0  0  0  0  0  0  0
   11.3408   -2.0149   22.3305 C   0  0  0  0  0  0  0  0  0  0  0  0
   10.6314   -0.8272   22.2572 C   0  0  0  0  0  0  0  0  0  0  0  0
    9.2834   -0.8251   21.9956 O   0  0  0  0  0  0  0  0  0  0  0  0
    8.5698   -2.0553   21.7973 C   0  0  0  0  0  0  0  0  0  0  0  0
    7.1926   -1.7261   21.2765 C   0  0  0  0  0  0  0  0  0  0  0  0
    7.1650   -1.3695   19.8510 N   0  0  0  0  0  0  0  0  0  0  0  0
    5.8044   -1.4445   19.3121 C   0  0  0  0  0  0  0  0  0  0  0  0
    5.8140   -1.0790   17.8642 C   0  0  0  0  0  0  0  0  0  0  0  0
    6.3145    0.2372   17.6587 O   0  0  0  0  0  0  0  0  0  0  0  0
    7.6295    0.3327   18.1804 C   0  0  0  0  0  0  0  0  0  0  0  0
    7.6797   -0.0178   19.6372 C   0  0  0  0  0  0  0  0  0  0  0  0
   11.2767    0.3850   22.4414 C   0  0  0  0  0  0  0  0  0  0  0  0
  1  2  2  0
  2  3  1  0
  3  4  1  0
  4  5  1  0
  5  6  2  0
  6  7  1  0
  7  8  2  0
  8  9  1  0
  9 10  2  0
  2 11  1  0
 11 12  1  0
 12 13  2  0
 13 14  1  0
 14 15  2  0
 15 16  1  0
 16 17  1  0
 17 18  1  0
 18 19  1  0
 19 20  1  0
 20 21  1  0
 21 22  1  0
 22 23  1  0
 23 24  1  0
 24 25  1  0
 16 26  2  0
 10  5  1  0
 26 12  1  0
 25 20  1  0
M  END
