CVD-0000407|dock_bobby27042020.13|mol2|9|dock3
     RDKit          3D

 21 23  0  0  0  0  0  0  0  0999 V2000
   13.6603   -2.7434   25.4749 C   0  0  0  0  0  0  0  0  0  0  0  0
   14.1097   -1.7809   24.3861 C   0  0  0  0  0  0  0  0  0  0  0  0
   13.0452   -1.5395   23.3377 C   0  0  0  0  0  0  0  0  0  0  0  0
   13.0462   -1.9146   22.0194 C   0  0  0  0  0  0  0  0  0  0  0  0
   13.9563   -2.5793   21.3031 F   0  0  0  0  0  0  0  0  0  0  0  0
   11.9006   -1.5030   21.4258 N   0  0  0  0  0  0  0  0  0  0  0  0
   11.1230   -0.8453   22.3549 C   0  0  0  0  0  0  0  0  0  0  0  0
    9.8675   -0.2428   22.2400 C   0  0  0  0  0  0  0  0  0  0  0  0
    9.2924   -0.3078   20.9703 O   0  0  0  0  0  0  0  0  0  0  0  0
    7.9689   -0.0587   20.7319 C   0  0  0  0  0  0  0  0  0  0  0  0
    7.6548    0.2914   19.4294 C   0  0  0  0  0  0  0  0  0  0  0  0
    6.3307    0.5527   19.1114 C   0  0  0  0  0  0  0  0  0  0  0  0
    5.9296    0.9432   17.7098 C   0  0  0  0  0  0  0  0  0  0  0  0
    5.3912    0.4489   20.1223 C   0  0  0  0  0  0  0  0  0  0  0  0
    5.8071    0.0911   21.3876 C   0  0  0  0  0  0  0  0  0  0  0  0
    7.0818   -0.1655   21.7055 N   0  0  0  0  0  0  0  0  0  0  0  0
    9.2921    0.3676   23.3444 C   0  0  0  0  0  0  0  0  0  0  0  0
    9.9980    0.3448   24.5255 C   0  0  0  0  0  0  0  0  0  0  0  0
    9.4337    0.9408   25.6104 F   0  0  0  0  0  0  0  0  0  0  0  0
   11.2334   -0.2373   24.6869 C   0  0  0  0  0  0  0  0  0  0  0  0
   11.8141   -0.8475   23.5772 C   0  0  0  0  0  0  0  0  0  0  0  0
  1  2  1  0
  2  3  1  0
  3  4  2  0
  4  5  1  0
  4  6  1  0
  6  7  1  0
  7  8  2  0
  8  9  1  0
  9 10  1  0
 10 11  2  0
 11 12  1  0
 12 13  1  0
 12 14  2  0
 14 15  1  0
 15 16  2  0
  8 17  1  0
 17 18  2  0
 18 19  1  0
 18 20  1  0
 20 21  2  0
 21  3  1  0
 21  7  1  0
 16 10  1  0
M  END
