CVD-0002008|dock_bobby27042020.36|mol2|16|dock3
     RDKit          3D

 19 21  0  0  0  0  0  0  0  0999 V2000
    5.1192    0.7134   20.5509 C   0  0  0  0  0  0  0  0  0  0  0  0
    6.3162    0.9152   19.6248 C   0  0  0  0  0  0  0  0  0  0  0  0
    6.0910    0.1797   18.3169 C   0  0  0  0  0  0  0  0  0  0  0  0
    5.5829   -1.0175   18.4694 O   0  0  0  0  0  0  0  0  0  0  0  0
    6.3586    0.6597   17.2375 O   0  0  0  0  0  0  0  0  0  0  0  0
    7.6125    0.4743   20.2737 C   0  0  0  0  0  0  0  0  0  0  0  0
    7.9172   -0.8310   20.2102 N   0  0  0  0  0  0  0  0  0  0  0  0
    9.0507   -1.2799   20.7630 N   0  0  0  0  0  0  0  0  0  0  0  0
    9.8404   -0.3902   21.3615 C   0  0  0  0  0  0  0  0  0  0  0  0
    9.4764    0.9908   21.4037 C   0  0  0  0  0  0  0  0  0  0  0  0
    8.3437    1.4367   20.8513 N   0  0  0  0  0  0  0  0  0  0  0  0
   10.4475    1.6889   22.0692 N   0  0  0  0  0  0  0  0  0  0  0  0
   11.4402    0.8041   22.4657 C   0  0  0  0  0  0  0  0  0  0  0  0
   12.6183    1.0428   23.1651 C   0  0  0  0  0  0  0  0  0  0  0  0
   13.4629   -0.0186   23.4478 C   0  0  0  0  0  0  0  0  0  0  0  0
   13.1328   -1.2949   23.0372 C   0  0  0  0  0  0  0  0  0  0  0  0
   14.2151   -2.6078   23.4076 Cl  0  0  0  0  0  0  0  0  0  0  0  0
   11.9708   -1.5644   22.3413 C   0  0  0  0  0  0  0  0  0  0  0  0
   11.1153   -0.5046   22.0522 C   0  0  0  0  0  0  0  0  0  0  0  0
  2  1  1  0
  2  3  1  0
  3  4  1  0
  3  5  2  0
  2  6  1  0
  6  7  2  0
  7  8  1  0
  8  9  2  0
  9 10  1  0
 10 11  2  0
 10 12  1  0
 12 13  1  0
 13 14  2  0
 14 15  1  0
 15 16  2  0
 16 17  1  0
 16 18  1  0
 18 19  2  0
 11  6  1  0
 19 13  1  0
 19  9  1  0
M  END
