CVD-0000597|dock_bobby27042020.83|mol2|48|dock1
     RDKit          3D

 17 18  0  0  0  0  0  0  0  0999 V2000
    5.2937    2.1963   19.2529 Cl  0  0  0  0  0  0  0  0  0  0  0  0
    6.4316    0.8881   19.4152 C   0  0  0  0  0  0  0  0  0  0  0  0
    6.4082   -0.1394   18.5005 C   0  0  0  0  0  0  0  0  0  0  0  0
    7.3180   -1.1715   18.6423 C   0  0  0  0  0  0  0  0  0  0  0  0
    8.2310   -1.1671   19.6837 C   0  0  0  0  0  0  0  0  0  0  0  0
    8.2541   -0.1243   20.6113 C   0  0  0  0  0  0  0  0  0  0  0  0
    7.3335    0.9099   20.4591 C   0  0  0  0  0  0  0  0  0  0  0  0
    9.2137   -0.0453   21.7703 C   0  0  0  0  0  0  0  0  0  0  0  0
    8.8349    0.5595   22.7675 O   0  0  0  0  0  0  0  0  0  0  0  0
   10.4382   -0.6358   21.6675 N   0  0  0  0  0  0  0  0  0  0  0  0
   11.5075   -0.7019   22.6060 C   0  0  0  0  0  0  0  0  0  0  0  0
   11.5045   -0.1265   23.8781 C   0  0  0  0  0  0  0  0  0  0  0  0
   12.5221   -0.2023   24.7428 N   0  0  0  0  0  0  0  0  0  0  0  0
   13.6127   -0.8686   24.3733 C   0  0  0  0  0  0  0  0  0  0  0  0
   13.7393   -1.4800   23.1467 C   0  0  0  0  0  0  0  0  0  0  0  0
   12.6788   -1.3926   22.2640 C   0  0  0  0  0  0  0  0  0  0  0  0
   12.8857   -2.1790   20.7312 Cl  0  0  0  0  0  0  0  0  0  0  0  0
  1  2  1  0
  2  3  2  0
  3  4  1  0
  4  5  2  0
  5  6  1  0
  6  7  2  0
  6  8  1  0
  8  9  2  0
  8 10  1  0
 10 11  1  0
 11 12  2  0
 12 13  1  0
 13 14  2  0
 14 15  1  0
 15 16  2  0
 16 17  1  0
  7  2  1  0
 16 11  1  0
M  END
