CVD-0001785|dock_bobby27042020.94|mol2|14|dock1
     RDKit          3D

 29 32  0  0  0  0  0  0  0  0999 V2000
   12.8248    6.1308   25.7872 C   0  0  0  0  0  0  0  0  0  0  0  0
   11.5699    5.3546   25.4700 C   0  0  0  0  0  0  0  0  0  0  0  0
   10.3411    5.7593   25.9666 C   0  0  0  0  0  0  0  0  0  0  0  0
    9.1933    5.0427   25.6763 C   0  0  0  0  0  0  0  0  0  0  0  0
    9.2665    3.9120   24.8818 C   0  0  0  0  0  0  0  0  0  0  0  0
   10.4830    3.4837   24.3700 C   0  0  0  0  0  0  0  0  0  0  0  0
   11.6232    4.2159   24.6793 C   0  0  0  0  0  0  0  0  0  0  0  0
   10.5300    2.2463   23.4913 C   0  0  0  0  0  0  0  0  0  0  0  0
   11.3322    2.4430   22.2136 C   0  0  0  0  0  0  0  0  0  0  0  0
   12.7483    2.5534   22.5125 N   0  0  0  0  0  0  0  0  0  0  0  0
   13.2591    1.3738   23.2098 C   0  0  0  0  0  0  0  0  0  0  0  0
   12.5286    1.1694   24.4993 C   0  0  0  0  0  0  0  0  0  0  0  0
   11.0993    1.0924   24.2221 N   0  0  0  0  0  0  0  0  0  0  0  0
   10.2623    0.3984   25.1275 C   0  0  0  0  0  0  0  0  0  0  0  0
    9.9752    0.9627   26.3697 C   0  0  0  0  0  0  0  0  0  0  0  0
    9.2596    0.2416   27.3078 C   0  0  0  0  0  0  0  0  0  0  0  0
    8.8353   -1.0363   27.0304 C   0  0  0  0  0  0  0  0  0  0  0  0
    9.0672   -1.6006   25.7891 C   0  0  0  0  0  0  0  0  0  0  0  0
    9.7334   -0.8725   24.8044 C   0  0  0  0  0  0  0  0  0  0  0  0
    9.8550   -1.4198   23.5013 N   0  0  0  0  0  0  0  0  0  0  0  0
   11.0972   -1.9900   22.9760 C   0  0  0  0  0  0  0  0  0  0  0  0
   11.2670   -1.6317   21.5199 C   0  0  0  0  0  0  0  0  0  0  0  0
   10.1337   -2.0004   20.7574 O   0  0  0  0  0  0  0  0  0  0  0  0
    8.9852   -1.3042   21.2276 C   0  0  0  0  0  0  0  0  0  0  0  0
    8.6947   -1.6965   22.6635 C   0  0  0  0  0  0  0  0  0  0  0  0
   13.5226    3.6421   22.3056 C   0  0  0  0  0  0  0  0  0  0  0  0
   14.7134    3.6251   22.5903 O   0  0  0  0  0  0  0  0  0  0  0  0
   12.9145    4.8938   21.7081 C   0  0  0  0  0  0  0  0  0  0  0  0
   14.0546    6.2978   21.7155 S   0  0  0  0  0  0  0  0  0  0  0  0
  1  2  1  0
  2  3  2  0
  3  4  1  0
  4  5  2  0
  5  6  1  0
  6  7  2  0
  6  8  1  0
  8  9  1  0
  9 10  1  0
 10 11  1  0
 11 12  1  0
 12 13  1  0
 13 14  1  0
 14 15  2  0
 15 16  1  0
 16 17  2  0
 17 18  1  0
 18 19  2  0
 19 20  1  0
 20 21  1  0
 21 22  1  0
 22 23  1  0
 23 24  1  0
 24 25  1  0
 10 26  1  0
 26 27  2  0
 26 28  1  0
 28 29  1  0
  7  2  1  0
 13  8  1  0
 19 14  1  0
 25 20  1  0
M  END
