CVD-0003502|dock_bobby27042020.30|mol2|40|dock3
     RDKit          3D

 23 24  0  0  0  0  0  0  0  0999 V2000
    4.5117    2.0391   23.1126 C   0  0  0  0  0  0  0  0  0  0  0  0
    5.3945    1.5991   22.0479 N   0  0  0  0  0  0  0  0  0  0  0  0
    6.6929    1.3910   22.2417 C   0  0  0  0  0  0  0  0  0  0  0  0
    7.2361    1.5551   23.3297 O   0  0  0  0  0  0  0  0  0  0  0  0
    7.4633    0.9243   21.0225 C   0  0  0  0  0  0  0  0  0  0  0  0
    6.9033   -0.3491   20.4165 C   0  0  0  0  0  0  0  0  0  0  0  0
    6.3619   -0.3481   19.1192 C   0  0  0  0  0  0  0  0  0  0  0  0
    6.3219    0.8864   18.2565 C   0  0  0  0  0  0  0  0  0  0  0  0
    5.8473   -1.5354   18.6035 C   0  0  0  0  0  0  0  0  0  0  0  0
    5.8647   -2.7063   19.3385 C   0  0  0  0  0  0  0  0  0  0  0  0
    6.4050   -2.7036   20.6109 C   0  0  0  0  0  0  0  0  0  0  0  0
    6.9283   -1.5383   21.1636 C   0  0  0  0  0  0  0  0  0  0  0  0
    7.5097   -1.5944   22.5587 C   0  0  0  0  0  0  0  0  0  0  0  0
    8.8964   -1.1087   22.6236 N   0  0  0  0  0  0  0  0  0  0  0  0
    9.7763   -1.9607   21.8183 C   0  0  0  0  0  0  0  0  0  0  0  0
   11.1979   -1.4314   21.8554 C   0  0  0  0  0  0  0  0  0  0  0  0
   11.6830   -1.3646   23.2356 N   0  0  0  0  0  0  0  0  0  0  0  0
   10.7904   -0.5672   24.0823 C   0  0  0  0  0  0  0  0  0  0  0  0
    9.3723   -1.1027   24.0045 C   0  0  0  0  0  0  0  0  0  0  0  0
   12.8336   -1.9539   23.6389 C   0  0  0  0  0  0  0  0  0  0  0  0
   13.5408   -2.5764   22.8564 O   0  0  0  0  0  0  0  0  0  0  0  0
   13.2353   -1.8372   25.0970 C   0  0  0  0  0  0  0  0  0  0  0  0
   14.7711   -2.6550   25.4118 Cl  0  0  0  0  0  0  0  0  0  0  0  0
  1  2  1  0
  2  3  1  0
  3  4  2  0
  3  5  1  0
  5  6  1  0
  6  7  2  0
  7  8  1  0
  7  9  1  0
  9 10  2  0
 10 11  1  0
 11 12  2  0
 12 13  1  0
 13 14  1  0
 14 15  1  0
 15 16  1  0
 16 17  1  0
 17 18  1  0
 18 19  1  0
 17 20  1  0
 20 21  2  0
 20 22  1  0
 22 23  1  0
 12  6  1  0
 19 14  1  0
M  END
