CVD-0003946|dock_bobby27042020.29|mol2|17|dock1
     RDKit          3D

 18 19  0  0  0  0  0  0  0  0999 V2000
    5.8653    1.4090   17.1270 Cl  0  0  0  0  0  0  0  0  0  0  0  0
    6.1974    0.9728   18.7798 C   0  0  0  0  0  0  0  0  0  0  0  0
    5.2572    1.2542   19.7476 C   0  0  0  0  0  0  0  0  0  0  0  0
    5.5511    0.8958   21.0461 C   0  0  0  0  0  0  0  0  0  0  0  0
    4.3871    1.2357   22.2959 Cl  0  0  0  0  0  0  0  0  0  0  0  0
    6.7360    0.2770   21.3898 C   0  0  0  0  0  0  0  0  0  0  0  0
    7.6750    0.0004   20.3968 C   0  0  0  0  0  0  0  0  0  0  0  0
    8.9195   -0.6311   20.6489 N   0  0  0  0  0  0  0  0  0  0  0  0
    9.6474   -0.7568   21.8104 C   0  0  0  0  0  0  0  0  0  0  0  0
    9.3046   -0.3048   22.8979 O   0  0  0  0  0  0  0  0  0  0  0  0
   10.8128   -1.4565   21.5959 N   0  0  0  0  0  0  0  0  0  0  0  0
   11.8493   -1.8172   22.4935 C   0  0  0  0  0  0  0  0  0  0  0  0
   11.6670   -2.0512   23.8532 C   0  0  0  0  0  0  0  0  0  0  0  0
   12.7569   -2.3984   24.6329 C   0  0  0  0  0  0  0  0  0  0  0  0
   13.9932   -2.5022   24.0386 C   0  0  0  0  0  0  0  0  0  0  0  0
   14.1991   -2.2844   22.7400 N   0  0  0  0  0  0  0  0  0  0  0  0
   13.1408   -1.9500   21.9963 C   0  0  0  0  0  0  0  0  0  0  0  0
    7.3937    0.3557   19.0815 C   0  0  0  0  0  0  0  0  0  0  0  0
  1  2  1  0
  2  3  2  0
  3  4  1  0
  4  5  1  0
  4  6  2  0
  6  7  1  0
  7  8  1  0
  8  9  1  0
  9 10  2  0
  9 11  1  0
 11 12  1  0
 12 13  2  0
 13 14  1  0
 14 15  2  0
 15 16  1  0
 16 17  2  0
  7 18  2  0
 18  2  1  0
 17 12  1  0
M  END
