CVD-0001160|dock_bobby27042020.53|mol2|32|dock1
     RDKit          3D

 30 32  0  0  0  0  0  0  0  0999 V2000
    4.0423    0.8925   19.0394 O   0  0  0  0  0  0  0  0  0  0  0  0
    5.3959    1.1333   19.4265 C   0  0  0  0  0  0  0  0  0  0  0  0
    5.7398    0.3435   20.6833 C   0  0  0  0  0  0  0  0  0  0  0  0
    7.2883    0.2569   20.7078 C   0  0  0  0  0  0  0  0  0  0  0  0
    7.6846   -1.1552   21.1627 C   0  0  0  0  0  0  0  0  0  0  0  0
    9.1086   -1.4371   21.0918 N   0  0  0  0  0  0  0  0  0  0  0  0
    9.8718   -1.5146   22.1999 C   0  0  0  0  0  0  0  0  0  0  0  0
    9.3945   -1.3538   23.3192 O   0  0  0  0  0  0  0  0  0  0  0  0
   11.1886   -1.7843   21.9169 N   0  0  0  0  0  0  0  0  0  0  0  0
   12.3041   -1.9446   22.7764 C   0  0  0  0  0  0  0  0  0  0  0  0
   12.1239   -2.5850   23.9957 C   0  0  0  0  0  0  0  0  0  0  0  0
   13.2008   -2.7509   24.8486 C   0  0  0  0  0  0  0  0  0  0  0  0
   14.4294   -2.2715   24.4582 C   0  0  0  0  0  0  0  0  0  0  0  0
   14.6351   -1.6529   23.2955 N   0  0  0  0  0  0  0  0  0  0  0  0
   13.5891   -1.4971   22.4780 C   0  0  0  0  0  0  0  0  0  0  0  0
    7.9250    1.3327   21.5847 C   0  0  0  0  0  0  0  0  0  0  0  0
    9.3451    1.1838   21.5111 O   0  0  0  0  0  0  0  0  0  0  0  0
   10.0852    2.1792   22.0563 C   0  0  0  0  0  0  0  0  0  0  0  0
   11.3729    1.8364   22.4633 C   0  0  0  0  0  0  0  0  0  0  0  0
   12.1408    2.8411   23.0211 C   0  0  0  0  0  0  0  0  0  0  0  0
   11.6191    4.1207   23.1528 C   0  0  0  0  0  0  0  0  0  0  0  0
   10.3276    4.3388   22.7134 C   0  0  0  0  0  0  0  0  0  0  0  0
    9.5611    3.3856   22.1692 N   0  0  0  0  0  0  0  0  0  0  0  0
   12.4326    5.2201   23.7571 C   0  0  0  0  0  0  0  0  0  0  0  0
   12.9717    4.8807   24.9225 F   0  0  0  0  0  0  0  0  0  0  0  0
   13.4440    5.5971   22.9832 F   0  0  0  0  0  0  0  0  0  0  0  0
   11.7222    6.3179   23.9897 F   0  0  0  0  0  0  0  0  0  0  0  0
    7.7059    0.4733   19.2067 C   0  0  0  0  0  0  0  0  0  0  0  0
    6.4214    0.6333   18.3920 C   0  0  0  0  0  0  0  0  0  0  0  0
    6.0485   -0.6471   17.8807 O   0  0  0  0  0  0  0  0  0  0  0  0
  2  1  1  0
  2  3  1  0
  3  4  1  0
  4  5  1  0
  5  6  1  0
  6  7  1  0
  7  8  2  0
  7  9  1  0
  9 10  1  0
 10 11  2  0
 11 12  1  0
 12 13  2  0
 13 14  1  0
 14 15  2  0
  4 16  1  0
 16 17  1  0
 17 18  1  0
 18 19  2  0
 19 20  1  0
 20 21  2  0
 21 22  1  0
 22 23  2  0
 21 24  1  0
 24 25  1  0
 24 26  1  0
 24 27  1  0
  4 28  1  0
 28 29  1  0
 29 30  1  0
 29  2  1  0
 15 10  1  0
 23 18  1  0
M  END
