CVD-0001448|dock_bobby27042020.95|mol2|18|dock1
     RDKit          3D

 23 25  0  0  0  0  0  0  0  0999 V2000
    5.5706   -1.6599   18.6140 C   0  0  0  0  0  0  0  0  0  0  0  0
    5.6775   -2.1015   20.0441 C   0  0  0  0  0  0  0  0  0  0  0  0
    5.1360   -3.1289   20.4365 O   0  0  0  0  0  0  0  0  0  0  0  0
    6.3822   -1.3206   20.8987 N   0  0  0  0  0  0  0  0  0  0  0  0
    6.5411   -1.6402   22.3191 C   0  0  0  0  0  0  0  0  0  0  0  0
    8.0107   -1.6631   22.6962 C   0  0  0  0  0  0  0  0  0  0  0  0
    8.6319   -0.3699   22.3954 N   0  0  0  0  0  0  0  0  0  0  0  0
   10.0468   -0.3734   22.7958 C   0  0  0  0  0  0  0  0  0  0  0  0
   10.6726    1.0008   22.8179 C   0  0  0  0  0  0  0  0  0  0  0  0
   12.0512    1.1522   22.7680 C   0  0  0  0  0  0  0  0  0  0  0  0
   12.6366    2.4066   22.7903 C   0  0  0  0  0  0  0  0  0  0  0  0
   11.8445    3.5502   22.8649 C   0  0  0  0  0  0  0  0  0  0  0  0
   12.0990    4.9544   22.9048 C   0  0  0  0  0  0  0  0  0  0  0  0
   10.8877    5.5931   22.9829 C   0  0  0  0  0  0  0  0  0  0  0  0
    9.8894    4.6570   22.9898 N   0  0  0  0  0  0  0  0  0  0  0  0
   10.4450    3.4004   22.9183 C   0  0  0  0  0  0  0  0  0  0  0  0
    9.8718    2.1343   22.8944 C   0  0  0  0  0  0  0  0  0  0  0  0
   13.6484    5.7879   22.8768 S   0  0  0  0  0  0  0  0  0  0  0  0
   14.0774    6.0230   21.3711 N   0  0  0  0  0  0  0  0  0  0  0  0
   13.4343    7.0699   23.4640 O   0  0  0  0  0  0  0  0  0  0  0  0
   14.6015    4.8999   23.4576 O   0  0  0  0  0  0  0  0  0  0  0  0
    8.5057   -0.1015   20.9653 C   0  0  0  0  0  0  0  0  0  0  0  0
    7.0455   -0.0596   20.5528 C   0  0  0  0  0  0  0  0  0  0  0  0
  1  2  1  0
  2  3  2  0
  2  4  1  0
  4  5  1  0
  5  6  1  0
  6  7  1  0
  7  8  1  0
  8  9  1  0
  9 10  2  0
 10 11  1  0
 11 12  2  0
 12 13  1  0
 13 14  2  0
 14 15  1  0
 15 16  1  0
 16 17  2  0
 13 18  1  0
 18 19  1  0
 18 20  2  0
 18 21  2  0
  7 22  1  0
 22 23  1  0
 23  4  1  0
 17  9  1  0
 16 12  1  0
M  END
