CVD-0004001|dock_bobby27042020.14|mol2|41|dock2
     RDKit          3D

 30 30  0  0  0  0  0  0  0  0999 V2000
    1.9530   -6.8254   22.3113 C   0  0  0  0  0  0  0  0  0  0  0  0
    3.0936   -6.1396   22.9996 C   0  0  0  0  0  0  0  0  0  0  0  0
    2.9132   -5.4775   24.0129 O   0  0  0  0  0  0  0  0  0  0  0  0
    4.5050   -6.2937   22.3915 C   0  0  0  0  0  0  0  0  0  0  0  0
    4.6767   -7.0180   21.4187 O   0  0  0  0  0  0  0  0  0  0  0  0
    5.6385   -5.5330   23.0299 C   0  0  0  0  0  0  0  0  0  0  0  0
    6.9172   -5.5821   22.2133 C   0  0  0  0  0  0  0  0  0  0  0  0
    8.0476   -4.8236   22.8650 C   0  0  0  0  0  0  0  0  0  0  0  0
    8.9792   -5.3837   23.4345 O   0  0  0  0  0  0  0  0  0  0  0  0
    7.9457   -3.4447   22.7666 N   0  0  0  0  0  0  0  0  0  0  0  0
    9.0507   -2.3956   23.3954 S   0  0  0  0  0  0  0  0  0  0  0  0
   10.0937   -3.1835   23.9801 O   0  0  0  0  0  0  0  0  0  0  0  0
    8.3300   -1.4450   24.1877 O   0  0  0  0  0  0  0  0  0  0  0  0
    9.6675   -1.5881   21.9422 C   0  0  0  0  0  0  0  0  0  0  0  0
   10.7429   -0.5431   22.2012 C   0  0  0  0  0  0  0  0  0  0  0  0
   10.2266    0.6866   22.9352 C   0  0  0  0  0  0  0  0  0  0  0  0
   11.1788    1.8545   22.9029 C   0  0  0  0  0  0  0  0  0  0  0  0
   12.0830    2.0421   23.8838 C   0  0  0  0  0  0  0  0  0  0  0  0
   12.9586    3.0633   23.9216 O   0  0  0  0  0  0  0  0  0  0  0  0
   12.8701    4.0157   22.9056 C   0  0  0  0  0  0  0  0  0  0  0  0
   12.0107    3.9321   21.9075 C   0  0  0  0  0  0  0  0  0  0  0  0
   11.0506    2.7885   21.7094 C   0  0  0  0  0  0  0  0  0  0  0  0
   13.9271    5.4098   22.9266 S   0  0  0  0  0  0  0  0  0  0  0  0
   15.0802    5.0677   23.7089 O   0  0  0  0  0  0  0  0  0  0  0  0
   14.0767    5.8606   21.5726 O   0  0  0  0  0  0  0  0  0  0  0  0
   13.0427    6.6417   23.7991 C   0  0  0  0  0  0  0  0  0  0  0  0
   13.3288    7.7993   23.5963 O   0  0  0  0  0  0  0  0  0  0  0  0
   11.9943    6.1846   24.7331 C   0  0  0  0  0  0  0  0  0  0  0  0
   11.8409    6.8469   26.0679 C   0  0  0  0  0  0  0  0  0  0  0  0
   11.2642    5.2634   24.3928 O   0  0  0  0  0  0  0  0  0  0  0  0
  1  2  1  0
  2  3  2  0
  2  4  1  0
  4  5  2  0
  4  6  1  0
  6  7  1  0
  7  8  1  0
  8  9  2  0
  8 10  1  0
 10 11  1  0
 11 12  2  0
 11 13  2  0
 11 14  1  0
 14 15  1  0
 15 16  1  0
 16 17  1  0
 17 18  2  0
 18 19  1  0
 19 20  1  0
 20 21  2  0
 21 22  1  0
 20 23  1  0
 23 24  2  0
 23 25  2  0
 23 26  1  0
 26 27  2  0
 26 28  1  0
 28 29  1  0
 28 30  2  0
 22 17  1  0
M  END
