CVD-0003789|dock_bobby27042020.86|mol2|40|dock2
     RDKit          3D

 20 21  0  0  0  0  0  0  0  0999 V2000
    5.3595   -4.6948   23.5426 C   0  0  0  0  0  0  0  0  0  0  0  0
    6.7307   -4.5744   22.9122 C   0  0  0  0  0  0  0  0  0  0  0  0
    7.3791   -5.9333   22.7468 C   0  0  0  0  0  0  0  0  0  0  0  0
    7.6069   -3.6989   23.7282 N   0  0  0  0  0  0  0  0  0  0  0  0
    8.7228   -2.9923   23.0592 C   0  0  0  0  0  0  0  0  0  0  0  0
    9.8271   -2.6113   24.0514 C   0  0  0  0  0  0  0  0  0  0  0  0
   10.9529   -1.8981   23.3577 C   0  0  0  0  0  0  0  0  0  0  0  0
   10.4893   -0.7118   22.6317 N   0  0  0  0  0  0  0  0  0  0  0  0
    9.4083   -1.0097   21.6636 C   0  0  0  0  0  0  0  0  0  0  0  0
    8.2712   -1.7480   22.3369 C   0  0  0  0  0  0  0  0  0  0  0  0
   11.1427    0.5150   22.6944 C   0  0  0  0  0  0  0  0  0  0  0  0
   12.5327    0.5859   22.7199 C   0  0  0  0  0  0  0  0  0  0  0  0
   13.1926    1.7999   22.7888 C   0  0  0  0  0  0  0  0  0  0  0  0
   12.4628    2.9741   22.8208 C   0  0  0  0  0  0  0  0  0  0  0  0
   11.0808    2.9333   22.7878 C   0  0  0  0  0  0  0  0  0  0  0  0
   10.4328    1.7121   22.7333 C   0  0  0  0  0  0  0  0  0  0  0  0
   13.2978    4.5300   22.8932 S   0  0  0  0  0  0  0  0  0  0  0  0
   12.9297    5.3651   21.5780 N   0  0  0  0  0  0  0  0  0  0  0  0
   12.7676    5.2482   24.0131 O   0  0  0  0  0  0  0  0  0  0  0  0
   14.7041    4.2632   22.8456 O   0  0  0  0  0  0  0  0  0  0  0  0
  1  2  1  0
  2  3  1  0
  2  4  1  0
  4  5  1  0
  5  6  1  0
  6  7  1  0
  7  8  1  0
  8  9  1  0
  9 10  1  0
  8 11  1  0
 11 12  2  0
 12 13  1  0
 13 14  2  0
 14 15  1  0
 15 16  2  0
 14 17  1  0
 17 18  1  0
 17 19  2  0
 17 20  2  0
 10  5  1  0
 16 11  1  0
M  END
