CVD-0000600|dock_bobby27042020.41|mol2|4|dock2
     RDKit          3D

 18 19  0  0  0  0  0  0  0  0999 V2000
   10.9285   -0.7098   21.1475 O   0  0  0  0  0  0  0  0  0  0  0  0
   11.8473   -0.9672   22.1150 C   0  0  0  0  0  0  0  0  0  0  0  0
   12.6930   -2.0494   21.9002 C   0  0  0  0  0  0  0  0  0  0  0  0
   13.6528   -2.3959   22.8310 C   0  0  0  0  0  0  0  0  0  0  0  0
   13.7676   -1.6422   23.9753 C   0  0  0  0  0  0  0  0  0  0  0  0
   14.9736   -2.0675   25.1575 Cl  0  0  0  0  0  0  0  0  0  0  0  0
   12.9516   -0.5550   24.2098 C   0  0  0  0  0  0  0  0  0  0  0  0
   11.9580   -0.1951   23.2914 C   0  0  0  0  0  0  0  0  0  0  0  0
   11.0693    0.9891   23.5890 C   0  0  0  0  0  0  0  0  0  0  0  0
   10.1444    0.8326   24.3792 O   0  0  0  0  0  0  0  0  0  0  0  0
   11.3301    2.1831   22.9815 N   0  0  0  0  0  0  0  0  0  0  0  0
   10.6623    3.4366   23.0926 C   0  0  0  0  0  0  0  0  0  0  0  0
    9.2754    3.5650   23.2221 C   0  0  0  0  0  0  0  0  0  0  0  0
    8.6898    4.8155   23.3377 C   0  0  0  0  0  0  0  0  0  0  0  0
    9.4527    5.9599   23.3135 C   0  0  0  0  0  0  0  0  0  0  0  0
   10.8236    5.8660   23.1748 C   0  0  0  0  0  0  0  0  0  0  0  0
   11.4156    4.6196   23.0694 C   0  0  0  0  0  0  0  0  0  0  0  0
   13.1435    4.6109   22.9111 Cl  0  0  0  0  0  0  0  0  0  0  0  0
  1  2  1  0
  2  3  2  0
  3  4  1  0
  4  5  2  0
  5  6  1  0
  5  7  1  0
  7  8  2  0
  8  9  1  0
  9 10  2  0
  9 11  1  0
 11 12  1  0
 12 13  2  0
 13 14  1  0
 14 15  2  0
 15 16  1  0
 16 17  2  0
 17 18  1  0
  8  2  1  0
 17 12  1  0
M  END
