CVD-0002716|dock_bobby27042020.18|mol2|46|dock3
     RDKit          3D

 21 23  0  0  0  0  0  0  0  0999 V2000
   10.3715   -5.5230   26.9974 Cl  0  0  0  0  0  0  0  0  0  0  0  0
    8.7848   -5.9872   26.3697 C   0  0  0  0  0  0  0  0  0  0  0  0
    8.6236   -5.6137   24.9092 C   0  0  0  0  0  0  0  0  0  0  0  0
    8.6205   -6.4618   24.0260 O   0  0  0  0  0  0  0  0  0  0  0  0
    8.4897   -4.2997   24.6386 N   0  0  0  0  0  0  0  0  0  0  0  0
    8.4927   -3.2083   25.6178 C   0  0  0  0  0  0  0  0  0  0  0  0
    9.3862   -2.0851   25.1597 C   0  0  0  0  0  0  0  0  0  0  0  0
    8.9751   -1.5965   23.8334 N   0  0  0  0  0  0  0  0  0  0  0  0
    9.0762   -2.7145   22.8940 C   0  0  0  0  0  0  0  0  0  0  0  0
    8.1540   -3.8422   23.2916 C   0  0  0  0  0  0  0  0  0  0  0  0
    9.7942   -0.4927   23.4086 C   0  0  0  0  0  0  0  0  0  0  0  0
    9.3071    0.3450   22.2072 C   0  0  0  0  0  0  0  0  0  0  0  0
    9.2207    1.4982   23.2089 C   0  0  0  0  0  0  0  0  0  0  0  0
    9.6960    0.6440   24.2962 O   0  0  0  0  0  0  0  0  0  0  0  0
   11.2637   -0.8947   23.3269 C   0  0  0  0  0  0  0  0  0  0  0  0
   12.0931   -0.7591   24.4338 C   0  0  0  0  0  0  0  0  0  0  0  0
   13.4293   -1.1173   24.3738 C   0  0  0  0  0  0  0  0  0  0  0  0
   13.9637   -1.6195   23.1997 C   0  0  0  0  0  0  0  0  0  0  0  0
   13.1412   -1.7524   22.1029 C   0  0  0  0  0  0  0  0  0  0  0  0
   13.7978   -2.3822   20.6179 Cl  0  0  0  0  0  0  0  0  0  0  0  0
   11.8082   -1.3986   22.1513 C   0  0  0  0  0  0  0  0  0  0  0  0
  1  2  1  0
  2  3  1  0
  3  4  2  0
  3  5  1  0
  5  6  1  0
  6  7  1  0
  7  8  1  0
  8  9  1  0
  9 10  1  0
  8 11  1  0
 11 12  1  0
 12 13  1  0
 13 14  1  0
 11 15  1  0
 15 16  2  0
 16 17  1  0
 17 18  2  0
 18 19  1  0
 19 20  1  0
 19 21  2  0
 10  5  1  0
 14 11  1  0
 21 15  1  0
M  END
