CVD-0001741|dock_bobby27042020.23|mol2|3|dock3
     RDKit          3D

 28 30  0  0  0  0  0  0  0  0999 V2000
   13.7348   -1.2420   22.7431 C   0  0  0  0  0  0  0  0  0  0  0  0
   13.1436   -2.4072   22.0130 C   0  0  0  0  0  0  0  0  0  0  0  0
   11.7367   -2.1924   21.7191 N   0  0  0  0  0  0  0  0  0  0  0  0
   10.7720   -2.3246   22.6436 C   0  0  0  0  0  0  0  0  0  0  0  0
   10.9824   -3.2615   23.5905 N   0  0  0  0  0  0  0  0  0  0  0  0
   10.0904   -3.3946   24.5773 C   0  0  0  0  0  0  0  0  0  0  0  0
    8.9360   -2.6303   24.6783 C   0  0  0  0  0  0  0  0  0  0  0  0
    8.6902   -1.6857   23.6896 C   0  0  0  0  0  0  0  0  0  0  0  0
    9.5968   -1.5316   22.6453 C   0  0  0  0  0  0  0  0  0  0  0  0
    9.2911   -0.5590   21.6203 N   0  0  0  0  0  0  0  0  0  0  0  0
    8.4391   -1.0318   20.5309 C   0  0  0  0  0  0  0  0  0  0  0  0
    7.4854   -0.0400   20.0770 N   0  0  0  0  0  0  0  0  0  0  0  0
    6.7875   -0.5194   18.8818 C   0  0  0  0  0  0  0  0  0  0  0  0
    5.7431    0.4738   18.4241 C   0  0  0  0  0  0  0  0  0  0  0  0
    4.7670    0.7587   19.4863 N   0  0  0  0  0  0  0  0  0  0  0  0
    5.4631    1.2023   20.7051 C   0  0  0  0  0  0  0  0  0  0  0  0
    6.5078    0.2058   21.1339 C   0  0  0  0  0  0  0  0  0  0  0  0
    9.7198    0.7733   21.5950 C   0  0  0  0  0  0  0  0  0  0  0  0
    9.1881    1.5399   20.8024 O   0  0  0  0  0  0  0  0  0  0  0  0
   10.7227    1.1717   22.4466 N   0  0  0  0  0  0  0  0  0  0  0  0
   11.3342    2.4421   22.6088 C   0  0  0  0  0  0  0  0  0  0  0  0
   12.6932    2.6588   22.8228 C   0  0  0  0  0  0  0  0  0  0  0  0
   13.1596    3.9538   22.9700 C   0  0  0  0  0  0  0  0  0  0  0  0
   12.2646    4.9956   22.8966 C   0  0  0  0  0  0  0  0  0  0  0  0
   10.9601    4.8220   22.6883 N   0  0  0  0  0  0  0  0  0  0  0  0
   10.5203    3.5681   22.5499 C   0  0  0  0  0  0  0  0  0  0  0  0
    8.0153   -2.8083   25.7739 C   0  0  0  0  0  0  0  0  0  0  0  0
    7.2904   -2.9173   26.6500 N   0  0  0  0  0  0  0  0  0  0  0  0
  1  2  1  0
  2  3  1  0
  3  4  1  0
  4  5  2  0
  5  6  1  0
  6  7  2  0
  7  8  1  0
  8  9  2  0
  9 10  1  0
 10 11  1  0
 11 12  1  0
 12 13  1  0
 13 14  1  0
 14 15  1  0
 15 16  1  0
 16 17  1  0
 10 18  1  0
 18 19  2  0
 18 20  1  0
 20 21  1  0
 21 22  2  0
 22 23  1  0
 23 24  2  0
 24 25  1  0
 25 26  2  0
  7 27  1  0
 27 28  3  0
  9  4  1  0
 17 12  1  0
 26 21  1  0
M  END
