CVD-0000857|dock_bobby27042020.26|mol2|4|dock2
     RDKit          3D

 23 25  0  0  0  0  0  0  0  0999 V2000
   13.0428   -1.8533   21.5488 C   0  0  0  0  0  0  0  0  0  0  0  0
   12.6247   -1.2929   22.9101 C   0  0  0  0  0  0  0  0  0  0  0  0
   12.5691    0.2124   22.8726 C   0  0  0  0  0  0  0  0  0  0  0  0
   13.6698    1.0216   23.0911 C   0  0  0  0  0  0  0  0  0  0  0  0
   13.6529    2.3576   23.0528 N   0  0  0  0  0  0  0  0  0  0  0  0
   12.4850    2.9274   22.7839 C   0  0  0  0  0  0  0  0  0  0  0  0
   11.3168    2.2481   22.5473 C   0  0  0  0  0  0  0  0  0  0  0  0
   11.3516    0.8565   22.5910 C   0  0  0  0  0  0  0  0  0  0  0  0
   10.1890    0.1153   22.3569 N   0  0  0  0  0  0  0  0  0  0  0  0
   10.1054   -1.3254   22.5450 C   0  0  0  0  0  0  0  0  0  0  0  0
   11.2747   -1.8545   23.3480 C   0  0  0  0  0  0  0  0  0  0  0  0
   11.3077   -3.2158   23.2543 F   0  0  0  0  0  0  0  0  0  0  0  0
   11.0776   -1.5837   24.6709 F   0  0  0  0  0  0  0  0  0  0  0  0
    8.9169    0.7425   21.9335 C   0  0  0  0  0  0  0  0  0  0  0  0
    8.1259   -0.2026   21.0374 C   0  0  0  0  0  0  0  0  0  0  0  0
    6.8267    0.4796   20.6260 C   0  0  0  0  0  0  0  0  0  0  0  0
    6.0594    0.8656   21.7495 O   0  0  0  0  0  0  0  0  0  0  0  0
    6.7661    1.8042   22.5605 C   0  0  0  0  0  0  0  0  0  0  0  0
    8.0632    1.2071   23.1060 C   0  0  0  0  0  0  0  0  0  0  0  0
   12.5074    4.6857   22.7454 S   0  0  0  0  0  0  0  0  0  0  0  0
   13.5165    5.0959   21.3683 C   0  0  0  0  0  0  0  0  0  0  0  0
   11.1133    5.1800   22.4377 N   0  0  0  0  0  0  0  0  0  0  0  0
   13.2070    5.1484   23.9305 O   0  0  0  0  0  0  0  0  0  0  0  0
  2  1  1  0
  2  3  1  0
  3  4  2  0
  4  5  1  0
  5  6  2  0
  6  7  1  0
  7  8  2  0
  8  9  1  0
  9 10  1  0
 10 11  1  0
 11 12  1  0
 11 13  1  0
  9 14  1  0
 14 15  1  0
 15 16  1  0
 16 17  1  0
 17 18  1  0
 18 19  1  0
  6 20  1  0
 20 21  1  0
 20 22  2  0
 20 23  2  0
 11  2  1  0
 19 14  1  0
  8  3  1  0
M  END
