CVD-0003540|dock_bobby27042020.45|mol2|5|dock3
     RDKit          3D

 21 22  0  0  0  0  0  0  0  0999 V2000
    7.3420   -0.6952   18.1840 O   0  0  0  0  0  0  0  0  0  0  0  0
    6.5006    0.2095   18.7486 C   0  0  0  0  0  0  0  0  0  0  0  0
    5.2905    0.5309   18.1493 C   0  0  0  0  0  0  0  0  0  0  0  0
    4.4575    1.4574   18.7527 C   0  0  0  0  0  0  0  0  0  0  0  0
    4.8263    2.0566   19.9397 C   0  0  0  0  0  0  0  0  0  0  0  0
    6.0318    1.7459   20.5503 C   0  0  0  0  0  0  0  0  0  0  0  0
    6.8769    0.8152   19.9514 C   0  0  0  0  0  0  0  0  0  0  0  0
    8.1272    0.4551   20.5302 N   0  0  0  0  0  0  0  0  0  0  0  0
    8.6928    1.0666   21.9075 S   0  0  0  0  0  0  0  0  0  0  0  0
    7.7155    0.8359   22.9218 O   0  0  0  0  0  0  0  0  0  0  0  0
    9.1393    2.3962   21.6442 O   0  0  0  0  0  0  0  0  0  0  0  0
    9.9980    0.1898   22.2912 N   0  0  0  0  0  0  0  0  0  0  0  0
    9.7845   -1.2304   22.6040 C   0  0  0  0  0  0  0  0  0  0  0  0
   11.0718   -1.9700   22.4169 C   0  0  0  0  0  0  0  0  0  0  0  0
   12.1271   -1.3723   23.2182 N   0  0  0  0  0  0  0  0  0  0  0  0
   12.3099    0.0646   22.9912 C   0  0  0  0  0  0  0  0  0  0  0  0
   11.0118    0.7951   23.1677 C   0  0  0  0  0  0  0  0  0  0  0  0
   12.8636   -2.1353   24.0506 C   0  0  0  0  0  0  0  0  0  0  0  0
   12.6689   -3.3383   24.1715 O   0  0  0  0  0  0  0  0  0  0  0  0
   13.9460   -1.4223   24.8370 C   0  0  0  0  0  0  0  0  0  0  0  0
   14.8315   -2.5532   25.8686 Cl  0  0  0  0  0  0  0  0  0  0  0  0
  1  2  1  0
  2  3  2  0
  3  4  1  0
  4  5  2  0
  5  6  1  0
  6  7  2  0
  7  8  1  0
  8  9  1  0
  9 10  2  0
  9 11  2  0
  9 12  1  0
 12 13  1  0
 13 14  1  0
 14 15  1  0
 15 16  1  0
 16 17  1  0
 15 18  1  0
 18 19  2  0
 18 20  1  0
 20 21  1  0
  7  2  1  0
 17 12  1  0
M  END
