CVD-0000571|dock_bobby27042020.69|mol2|45|dock3
     RDKit          3D

 22 24  0  0  0  0  0  0  0  0999 V2000
    7.1435   -1.1438   18.2900 C   0  0  0  0  0  0  0  0  0  0  0  0
    6.8939    0.0811   19.1321 C   0  0  0  0  0  0  0  0  0  0  0  0
    5.7053    0.7797   18.9429 C   0  0  0  0  0  0  0  0  0  0  0  0
    5.4431    1.9008   19.6972 C   0  0  0  0  0  0  0  0  0  0  0  0
    6.2809    2.3658   20.6189 N   0  0  0  0  0  0  0  0  0  0  0  0
    7.4260    1.7031   20.8099 C   0  0  0  0  0  0  0  0  0  0  0  0
    7.7958    0.5562   20.1051 C   0  0  0  0  0  0  0  0  0  0  0  0
    9.0117   -0.1602   20.3001 N   0  0  0  0  0  0  0  0  0  0  0  0
    9.7692   -0.3162   21.4393 C   0  0  0  0  0  0  0  0  0  0  0  0
    9.4933    0.1707   22.5316 O   0  0  0  0  0  0  0  0  0  0  0  0
   10.8705   -1.0801   21.2142 N   0  0  0  0  0  0  0  0  0  0  0  0
   11.9091   -1.4702   22.1598 C   0  0  0  0  0  0  0  0  0  0  0  0
   12.9844   -0.4440   22.5045 C   0  0  0  0  0  0  0  0  0  0  0  0
   13.3351   -1.6152   21.6388 C   0  0  0  0  0  0  0  0  0  0  0  0
   11.4573   -2.3854   23.2274 C   0  0  0  0  0  0  0  0  0  0  0  0
   11.0028   -3.0693   24.0940 C   0  0  0  0  0  0  0  0  0  0  0  0
   10.3925   -3.8474   25.1356 C   0  0  0  0  0  0  0  0  0  0  0  0
   10.6521   -5.2067   25.2687 C   0  0  0  0  0  0  0  0  0  0  0  0
   10.0424   -5.9187   26.2870 C   0  0  0  0  0  0  0  0  0  0  0  0
    9.1926   -5.2530   27.1412 C   0  0  0  0  0  0  0  0  0  0  0  0
    8.9233   -3.9506   27.0401 N   0  0  0  0  0  0  0  0  0  0  0  0
    9.5173   -3.2731   26.0533 C   0  0  0  0  0  0  0  0  0  0  0  0
  1  2  1  0
  2  3  2  0
  3  4  1  0
  4  5  2  0
  5  6  1  0
  6  7  2  0
  7  8  1  0
  8  9  1  0
  9 10  2  0
  9 11  1  0
 11 12  1  0
 12 13  1  0
 13 14  1  0
 12 15  1  0
 15 16  3  0
 16 17  1  0
 17 18  2  0
 18 19  1  0
 19 20  2  0
 20 21  1  0
 21 22  2  0
  7  2  1  0
 14 12  1  0
 22 17  1  0
M  END
