CVD-0001663|dock_bobby27042020.37|mol2|29|dock1
     RDKit          3D

 23 25  0  0  0  0  0  0  0  0999 V2000
   14.1310    6.2558   22.2085 C   0  0  0  0  0  0  0  0  0  0  0  0
   14.3350    4.9371   22.7124 O   0  0  0  0  0  0  0  0  0  0  0  0
   13.2930    4.0445   22.7578 C   0  0  0  0  0  0  0  0  0  0  0  0
   13.5862    2.6933   22.6833 C   0  0  0  0  0  0  0  0  0  0  0  0
   12.5686    1.7573   22.7252 C   0  0  0  0  0  0  0  0  0  0  0  0
   11.2493    2.1669   22.8419 C   0  0  0  0  0  0  0  0  0  0  0  0
   10.9584    3.5206   22.9162 C   0  0  0  0  0  0  0  0  0  0  0  0
   11.9737    4.4601   22.8747 C   0  0  0  0  0  0  0  0  0  0  0  0
   10.1969    1.2011   22.8852 N   0  0  0  0  0  0  0  0  0  0  0  0
   10.0679    0.0490   22.1935 C   0  0  0  0  0  0  0  0  0  0  0  0
    8.8867   -0.4883   22.6109 C   0  0  0  0  0  0  0  0  0  0  0  0
    8.2077   -1.7578   22.2030 C   0  0  0  0  0  0  0  0  0  0  0  0
    7.3268   -1.5900   21.0448 N   0  0  0  0  0  0  0  0  0  0  0  0
    8.0206   -0.8697   19.9731 C   0  0  0  0  0  0  0  0  0  0  0  0
    7.1178   -0.7349   18.7609 C   0  0  0  0  0  0  0  0  0  0  0  0
    5.8802   -0.0388   19.1197 N   0  0  0  0  0  0  0  0  0  0  0  0
    5.1918   -0.7024   20.2313 C   0  0  0  0  0  0  0  0  0  0  0  0
    6.1262   -0.8472   21.4187 C   0  0  0  0  0  0  0  0  0  0  0  0
    5.4402    1.0629   18.4644 C   0  0  0  0  0  0  0  0  0  0  0  0
    4.1647    1.6980   18.9347 C   0  0  0  0  0  0  0  0  0  0  0  0
    6.0762    1.5286   17.5255 O   0  0  0  0  0  0  0  0  0  0  0  0
    8.3407    0.3456   23.5337 N   0  0  0  0  0  0  0  0  0  0  0  0
    9.1346    1.3789   23.7065 N   0  0  0  0  0  0  0  0  0  0  0  0
  1  2  1  0
  2  3  1  0
  3  4  2  0
  4  5  1  0
  5  6  2  0
  6  7  1  0
  7  8  2  0
  6  9  1  0
  9 10  1  0
 10 11  2  0
 11 12  1  0
 12 13  1  0
 13 14  1  0
 14 15  1  0
 15 16  1  0
 16 17  1  0
 17 18  1  0
 16 19  1  0
 19 20  1  0
 19 21  2  0
 11 22  1  0
 22 23  2  0
  8  3  1  0
 23  9  1  0
 18 13  1  0
M  END
