CVD-0002674|dock_bobby27042020.90|mol2|31|dock1
     RDKit          3D

 19 20  0  0  0  0  0  0  0  0999 V2000
    6.1173   -1.2509   17.8573 C   0  0  0  0  0  0  0  0  0  0  0  0
    5.6099   -1.9680   19.0564 C   0  0  0  0  0  0  0  0  0  0  0  0
    6.7388   -2.3886   19.8801 O   0  0  0  0  0  0  0  0  0  0  0  0
    6.5087   -3.2002   20.9175 C   0  0  0  0  0  0  0  0  0  0  0  0
    5.4498   -3.7369   21.1491 O   0  0  0  0  0  0  0  0  0  0  0  0
    7.7158   -3.3781   21.7618 C   0  0  0  0  0  0  0  0  0  0  0  0
    8.7554   -2.5663   21.4019 N   0  0  0  0  0  0  0  0  0  0  0  0
    9.8734   -2.6598   22.1035 C   0  0  0  0  0  0  0  0  0  0  0  0
   10.9714   -1.8689   21.7983 N   0  0  0  0  0  0  0  0  0  0  0  0
   11.7365   -1.1320   22.6657 C   0  0  0  0  0  0  0  0  0  0  0  0
   12.8722   -0.3946   22.0194 C   0  0  0  0  0  0  0  0  0  0  0  0
   11.5429   -1.0725   23.8764 O   0  0  0  0  0  0  0  0  0  0  0  0
    9.9512   -3.5940   23.1970 C   0  0  0  0  0  0  0  0  0  0  0  0
   10.9273   -3.9859   24.1588 C   0  0  0  0  0  0  0  0  0  0  0  0
   10.3361   -4.9690   24.9506 C   0  0  0  0  0  0  0  0  0  0  0  0
    9.0967   -5.1608   24.5056 C   0  0  0  0  0  0  0  0  0  0  0  0
    8.1505   -6.0014   24.9475 F   0  0  0  0  0  0  0  0  0  0  0  0
    8.8252   -4.3485   23.4460 N   0  0  0  0  0  0  0  0  0  0  0  0
    7.6493   -4.2770   22.7385 N   0  0  0  0  0  0  0  0  0  0  0  0
  1  2  1  0
  2  3  1  0
  3  4  1  0
  4  5  2  0
  4  6  1  0
  6  7  1  0
  7  8  2  0
  8  9  1  0
  9 10  1  0
 10 11  1  0
 10 12  2  0
  8 13  1  0
 13 14  2  0
 14 15  1  0
 15 16  2  0
 16 17  1  0
 16 18  1  0
 18 19  1  0
 19  6  2  0
 18 13  1  0
M  END
