CVD-0000842|dock_bobby27042020.54|mol2|33|dock2
     RDKit          3D

 20 22  0  0  0  0  0  0  0  0999 V2000
   10.9879    0.5137   25.2488 O   0  0  0  0  0  0  0  0  0  0  0  0
   11.5469   -0.2862   24.5093 C   0  0  0  0  0  0  0  0  0  0  0  0
   13.0457   -0.2694   24.3250 C   0  0  0  0  0  0  0  0  0  0  0  0
   13.3896    0.2431   22.9975 N   0  0  0  0  0  0  0  0  0  0  0  0
   13.5141   -0.8305   22.0114 C   0  0  0  0  0  0  0  0  0  0  0  0
   12.2152   -1.5588   21.7270 C   0  0  0  0  0  0  0  0  0  0  0  0
   11.5431   -2.1684   22.9435 C   0  0  0  0  0  0  0  0  0  0  0  0
   10.8386   -1.2202   23.8150 N   0  0  0  0  0  0  0  0  0  0  0  0
    9.4038   -1.3607   23.8662 C   0  0  0  0  0  0  0  0  0  0  0  0
    8.6146   -1.4833   22.7273 C   0  0  0  0  0  0  0  0  0  0  0  0
    7.2455   -1.6373   22.8554 C   0  0  0  0  0  0  0  0  0  0  0  0
    6.6979   -1.6454   24.1162 C   0  0  0  0  0  0  0  0  0  0  0  0
    7.4250   -1.5085   25.2242 N   0  0  0  0  0  0  0  0  0  0  0  0
    8.7477   -1.3739   25.0883 C   0  0  0  0  0  0  0  0  0  0  0  0
   13.0785    1.5813   22.6430 C   0  0  0  0  0  0  0  0  0  0  0  0
   11.7515    1.9979   22.5581 C   0  0  0  0  0  0  0  0  0  0  0  0
   11.4356    3.3065   22.2332 C   0  0  0  0  0  0  0  0  0  0  0  0
   12.4297    4.2225   21.9782 C   0  0  0  0  0  0  0  0  0  0  0  0
   13.7452    3.8252   22.0418 C   0  0  0  0  0  0  0  0  0  0  0  0
   14.0715    2.5184   22.3641 C   0  0  0  0  0  0  0  0  0  0  0  0
  1  2  2  0
  2  3  1  0
  3  4  1  0
  4  5  1  0
  5  6  1  0
  6  7  1  0
  7  8  1  0
  8  9  1  0
  9 10  2  0
 10 11  1  0
 11 12  2  0
 12 13  1  0
 13 14  2  0
  4 15  1  0
 15 16  2  0
 16 17  1  0
 17 18  2  0
 18 19  1  0
 19 20  2  0
  8  2  1  0
 14  9  1  0
 20 15  1  0
M  END
