CVD-0003455|dock_bobby27042020.2|mol2|6|dock1
     RDKit          3D

 21 23  0  0  0  0  0  0  0  0999 V2000
   11.2281   -2.7170   22.4580 F   0  0  0  0  0  0  0  0  0  0  0  0
   11.7671   -1.5198   22.7343 C   0  0  0  0  0  0  0  0  0  0  0  0
   12.7626   -1.5523   23.5814 N   0  0  0  0  0  0  0  0  0  0  0  0
   13.3388   -0.4083   23.8760 C   0  0  0  0  0  0  0  0  0  0  0  0
   12.9110    0.8441   23.3848 C   0  0  0  0  0  0  0  0  0  0  0  0
   13.5723    1.9755   23.7849 N   0  0  0  0  0  0  0  0  0  0  0  0
   13.1115    3.1348   23.3517 C   0  0  0  0  0  0  0  0  0  0  0  0
   12.0194    3.2816   22.5258 C   0  0  0  0  0  0  0  0  0  0  0  0
   11.3617    2.1666   22.1005 C   0  0  0  0  0  0  0  0  0  0  0  0
   11.8037    0.8780   22.4979 C   0  0  0  0  0  0  0  0  0  0  0  0
   11.2535   -0.3897   22.1227 C   0  0  0  0  0  0  0  0  0  0  0  0
   10.2094   -0.5240   21.1688 N   0  0  0  0  0  0  0  0  0  0  0  0
    9.0033    0.1337   21.2169 C   0  0  0  0  0  0  0  0  0  0  0  0
    8.6693    0.9006   22.1148 O   0  0  0  0  0  0  0  0  0  0  0  0
    8.2377   -0.1732   20.1168 N   0  0  0  0  0  0  0  0  0  0  0  0
    6.9472    0.2702   19.7315 C   0  0  0  0  0  0  0  0  0  0  0  0
    6.2389    1.2621   20.4068 C   0  0  0  0  0  0  0  0  0  0  0  0
    4.9811    1.6412   19.9674 C   0  0  0  0  0  0  0  0  0  0  0  0
    4.4158    1.0448   18.8618 C   0  0  0  0  0  0  0  0  0  0  0  0
    5.1076    0.0634   18.1876 C   0  0  0  0  0  0  0  0  0  0  0  0
    6.3655   -0.3240   18.6171 C   0  0  0  0  0  0  0  0  0  0  0  0
  1  2  1  0
  2  3  2  0
  3  4  1  0
  4  5  2  0
  5  6  1  0
  6  7  2  0
  7  8  1  0
  8  9  2  0
  9 10  1  0
 10 11  2  0
 11 12  1  0
 12 13  1  0
 13 14  2  0
 13 15  1  0
 15 16  1  0
 16 17  2  0
 17 18  1  0
 18 19  2  0
 19 20  1  0
 20 21  2  0
 11  2  1  0
 21 16  1  0
 10  5  1  0
M  END
