CVD-0003833|dock_bobby27042020.58|mol2|28|dock1
     RDKit          3D

 27 29  0  0  0  0  0  0  0  0999 V2000
    7.6479   -5.8991   22.9164 C   0  0  0  0  0  0  0  0  0  0  0  0
    8.0824   -5.1369   24.1650 C   0  0  0  0  0  0  0  0  0  0  0  0
    7.9517   -3.6706   24.0055 N   0  0  0  0  0  0  0  0  0  0  0  0
    7.6615   -3.0435   25.3027 C   0  0  0  0  0  0  0  0  0  0  0  0
    9.0181   -2.9821   23.2309 C   0  0  0  0  0  0  0  0  0  0  0  0
   10.2013   -2.6460   24.0836 C   0  0  0  0  0  0  0  0  0  0  0  0
   11.2710   -1.8674   23.3354 C   0  0  0  0  0  0  0  0  0  0  0  0
   10.6858   -0.7013   22.6926 N   0  0  0  0  0  0  0  0  0  0  0  0
    9.5708   -0.9915   21.7991 C   0  0  0  0  0  0  0  0  0  0  0  0
    8.4776   -1.7216   22.5743 C   0  0  0  0  0  0  0  0  0  0  0  0
   11.2907    0.5504   22.7438 C   0  0  0  0  0  0  0  0  0  0  0  0
   10.5325    1.7129   22.8497 C   0  0  0  0  0  0  0  0  0  0  0  0
   11.1290    2.9599   22.9079 C   0  0  0  0  0  0  0  0  0  0  0  0
   12.5067    3.0631   22.8447 C   0  0  0  0  0  0  0  0  0  0  0  0
   13.2836    1.9243   22.7344 C   0  0  0  0  0  0  0  0  0  0  0  0
   12.6756    0.6823   22.6913 C   0  0  0  0  0  0  0  0  0  0  0  0
   13.2764    4.6523   22.9157 S   0  0  0  0  0  0  0  0  0  0  0  0
   12.9220    5.4479   21.5724 N   0  0  0  0  0  0  0  0  0  0  0  0
   14.6929    4.4416   22.9219 O   0  0  0  0  0  0  0  0  0  0  0  0
   12.6788    5.3687   24.0023 O   0  0  0  0  0  0  0  0  0  0  0  0
    7.3405   -5.6337   25.4038 C   0  0  0  0  0  0  0  0  0  0  0  0
    5.9488   -5.7152   25.3740 C   0  0  0  0  0  0  0  0  0  0  0  0
    5.2298   -6.1620   26.4684 C   0  0  0  0  0  0  0  0  0  0  0  0
    5.8964   -6.5361   27.6134 C   0  0  0  0  0  0  0  0  0  0  0  0
    7.2777   -6.4609   27.6605 C   0  0  0  0  0  0  0  0  0  0  0  0
    8.0260   -6.0124   26.5729 C   0  0  0  0  0  0  0  0  0  0  0  0
    9.5261   -5.9604   26.7059 C   0  0  0  0  0  0  0  0  0  0  0  0
  1  2  1  0
  2  3  1  0
  3  4  1  0
  3  5  1  0
  5  6  1  0
  6  7  1  0
  7  8  1  0
  8  9  1  0
  9 10  1  0
  8 11  1  0
 11 12  2  0
 12 13  1  0
 13 14  2  0
 14 15  1  0
 15 16  2  0
 14 17  1  0
 17 18  1  0
 17 19  2  0
 17 20  2  0
  2 21  1  0
 21 22  2  0
 22 23  1  0
 23 24  2  0
 24 25  1  0
 25 26  2  0
 26 27  1  0
 10  5  1  0
 16 11  1  0
 26 21  1  0
M  END
