CVD-0000124|dock_bobby27042020.71|mol2|22|dock1
     RDKit          3D

 22 23  0  0  0  0  0  0  0  0999 V2000
    7.4919   -1.4856   22.1140 C   0  0  0  0  0  0  0  0  0  0  0  0
    8.1531   -0.6035   21.0486 C   0  0  0  0  0  0  0  0  0  0  0  0
    7.1441    0.1467   20.1819 C   0  0  0  0  0  0  0  0  0  0  0  0
    7.3681    0.4369   18.8402 C   0  0  0  0  0  0  0  0  0  0  0  0
    6.4171    1.1218   18.1031 C   0  0  0  0  0  0  0  0  0  0  0  0
    5.2327    1.5239   18.6955 C   0  0  0  0  0  0  0  0  0  0  0  0
    4.9839    1.2481   20.0300 C   0  0  0  0  0  0  0  0  0  0  0  0
    3.6931    1.6794   20.6826 C   0  0  0  0  0  0  0  0  0  0  0  0
    5.9483    0.5605   20.7512 C   0  0  0  0  0  0  0  0  0  0  0  0
    9.1847    0.3487   21.6494 C   0  0  0  0  0  0  0  0  0  0  0  0
    8.8189    1.6604   21.9431 C   0  0  0  0  0  0  0  0  0  0  0  0
    9.6984    2.5836   22.4969 C   0  0  0  0  0  0  0  0  0  0  0  0
    9.2347    4.0021   22.7825 C   0  0  0  0  0  0  0  0  0  0  0  0
   10.1573    5.0854   22.5206 N   0  0  0  0  0  0  0  0  0  0  0  0
   11.0112    2.1890   22.7789 C   0  0  0  0  0  0  0  0  0  0  0  0
   12.0246    3.1298   23.3956 C   0  0  0  0  0  0  0  0  0  0  0  0
   12.7670    3.9605   22.3824 C   0  0  0  0  0  0  0  0  0  0  0  0
   13.6734    4.7423   22.9173 O   0  0  0  0  0  0  0  0  0  0  0  0
   12.5437    3.9178   21.1925 O   0  0  0  0  0  0  0  0  0  0  0  0
   11.3789    0.8819   22.4784 C   0  0  0  0  0  0  0  0  0  0  0  0
   10.5061   -0.0493   21.9225 C   0  0  0  0  0  0  0  0  0  0  0  0
   11.0400   -1.4322   21.6511 C   0  0  0  0  0  0  0  0  0  0  0  0
  2  1  1  0
  2  3  1  0
  3  4  2  0
  4  5  1  0
  5  6  2  0
  6  7  1  0
  7  8  1  0
  7  9  2  0
  2 10  1  0
 10 11  2  0
 11 12  1  0
 12 13  1  0
 13 14  1  0
 12 15  2  0
 15 16  1  0
 16 17  1  0
 17 18  1  0
 17 19  2  0
 15 20  1  0
 20 21  2  0
 21 22  1  0
  9  3  1  0
 21 10  1  0
M  END
