CVD-0000075|dock_bobby27042020.57|mol2|21|dock2
     RDKit          3D

 16 17  0  0  0  0  0  0  0  0999 V2000
   13.3483   -1.8677   25.1872 C   0  0  0  0  0  0  0  0  0  0  0  0
   12.9594   -1.2413   23.9249 N   0  0  0  0  0  0  0  0  0  0  0  0
   12.2997    0.0441   24.1724 C   0  0  0  0  0  0  0  0  0  0  0  0
   11.9352    0.7090   22.8579 C   0  0  0  0  0  0  0  0  0  0  0  0
   11.0635   -0.1634   22.0678 N   0  0  0  0  0  0  0  0  0  0  0  0
   11.6709   -1.4806   21.8535 C   0  0  0  0  0  0  0  0  0  0  0  0
   12.0491   -2.1092   23.1823 C   0  0  0  0  0  0  0  0  0  0  0  0
    9.8521    0.2432   21.5807 C   0  0  0  0  0  0  0  0  0  0  0  0
    9.3117    1.2113   22.0991 O   0  0  0  0  0  0  0  0  0  0  0  0
    9.3028   -0.4569   20.5327 N   0  0  0  0  0  0  0  0  0  0  0  0
    8.1194   -0.2161   19.7867 C   0  0  0  0  0  0  0  0  0  0  0  0
    7.0049    0.2595   20.4662 C   0  0  0  0  0  0  0  0  0  0  0  0
    5.8307    0.5073   19.7774 C   0  0  0  0  0  0  0  0  0  0  0  0
    5.8007    0.2725   18.4230 C   0  0  0  0  0  0  0  0  0  0  0  0
    6.8505   -0.1830   17.7401 N   0  0  0  0  0  0  0  0  0  0  0  0
    7.9805   -0.4191   18.4140 C   0  0  0  0  0  0  0  0  0  0  0  0
  1  2  1  0
  2  3  1  0
  3  4  1  0
  4  5  1  0
  5  6  1  0
  6  7  1  0
  5  8  1  0
  8  9  2  0
  8 10  1  0
 10 11  1  0
 11 12  2  0
 12 13  1  0
 13 14  2  0
 14 15  1  0
 15 16  2  0
  7  2  1  0
 16 11  1  0
M  END
