CVD-0000878|dock_bobby27042020.11|mol2|30|dock2
     RDKit          3D

 27 28  0  0  0  0  0  0  0  0999 V2000
   13.7641   -1.5672   24.9516 C   0  0  0  0  0  0  0  0  0  0  0  0
   12.6047   -0.6304   24.7796 C   0  0  0  0  0  0  0  0  0  0  0  0
   12.1787    0.0521   25.7061 O   0  0  0  0  0  0  0  0  0  0  0  0
   12.0744   -0.5713   23.5533 N   0  0  0  0  0  0  0  0  0  0  0  0
   10.9549    0.3118   23.2379 C   0  0  0  0  0  0  0  0  0  0  0  0
   10.1954   -0.2737   22.0728 C   0  0  0  0  0  0  0  0  0  0  0  0
    8.9198   -0.6191   22.0806 C   0  0  0  0  0  0  0  0  0  0  0  0
    8.1764   -1.2039   20.9058 C   0  0  0  0  0  0  0  0  0  0  0  0
    7.6985   -2.5506   21.2100 N   0  0  0  0  0  0  0  0  0  0  0  0
    8.4224   -3.4204   21.9188 C   0  0  0  0  0  0  0  0  0  0  0  0
    9.5357   -3.1726   22.3716 O   0  0  0  0  0  0  0  0  0  0  0  0
    7.7521   -4.7592   22.1359 C   0  0  0  0  0  0  0  0  0  0  0  0
    6.1460   -4.6151   22.8617 Cl  0  0  0  0  0  0  0  0  0  0  0  0
    7.0233   -0.3013   20.4874 C   0  0  0  0  0  0  0  0  0  0  0  0
    6.0519    0.0728   21.4051 C   0  0  0  0  0  0  0  0  0  0  0  0
    5.0034    0.8959   21.0301 C   0  0  0  0  0  0  0  0  0  0  0  0
    4.9122    1.3581   19.7281 C   0  0  0  0  0  0  0  0  0  0  0  0
    5.8806    0.9839   18.8226 C   0  0  0  0  0  0  0  0  0  0  0  0
    5.7794    1.5581   17.1817 Cl  0  0  0  0  0  0  0  0  0  0  0  0
    6.9302    0.1643   19.1843 C   0  0  0  0  0  0  0  0  0  0  0  0
   11.4393    1.7367   23.0018 C   0  0  0  0  0  0  0  0  0  0  0  0
   10.5434    2.7958   22.9670 C   0  0  0  0  0  0  0  0  0  0  0  0
   10.9768    4.0918   22.7505 C   0  0  0  0  0  0  0  0  0  0  0  0
   12.3262    4.3460   22.5639 C   0  0  0  0  0  0  0  0  0  0  0  0
   12.7600    5.6218   22.3503 O   0  0  0  0  0  0  0  0  0  0  0  0
   13.2332    3.2986   22.5949 C   0  0  0  0  0  0  0  0  0  0  0  0
   12.7871    2.0071   22.8122 C   0  0  0  0  0  0  0  0  0  0  0  0
  1  2  1  0
  2  3  2  0
  2  4  1  0
  4  5  1  0
  5  6  1  0
  6  7  2  0
  7  8  1  0
  8  9  1  0
  9 10  1  0
 10 11  2  0
 10 12  1  0
 12 13  1  0
  8 14  1  0
 14 15  2  0
 15 16  1  0
 16 17  2  0
 17 18  1  0
 18 19  1  0
 18 20  2  0
  5 21  1  0
 21 22  2  0
 22 23  1  0
 23 24  2  0
 24 25  1  0
 24 26  1  0
 26 27  2  0
 20 14  1  0
 27 21  1  0
M  END
