CVD-0000804|dock_bobby27042020.54|mol2|39|dock2
     RDKit          3D

 22 24  0  0  0  0  0  0  0  0999 V2000
   11.1993    4.5912   22.7449 C   0  0  0  0  0  0  0  0  0  0  0  0
    9.8795    3.8814   22.8995 C   0  0  0  0  0  0  0  0  0  0  0  0
    9.9320    2.4153   22.5158 C   0  0  0  0  0  0  0  0  0  0  0  0
    8.7992    1.7801   22.0200 C   0  0  0  0  0  0  0  0  0  0  0  0
    8.8009    0.4336   21.6592 C   0  0  0  0  0  0  0  0  0  0  0  0
    7.6128   -0.1913   21.1998 N   0  0  0  0  0  0  0  0  0  0  0  0
    6.3582   -0.1269   21.9517 C   0  0  0  0  0  0  0  0  0  0  0  0
    5.3573    0.7492   21.3842 C   0  0  0  0  0  0  0  0  0  0  0  0
    5.5493    1.5252   20.1646 C   0  0  0  0  0  0  0  0  0  0  0  0
    5.8960    0.8654   18.9080 C   0  0  0  0  0  0  0  0  0  0  0  0
    7.2298    0.2381   18.8071 C   0  0  0  0  0  0  0  0  0  0  0  0
    7.5367   -0.7547   19.8557 C   0  0  0  0  0  0  0  0  0  0  0  0
   10.0202   -0.2860   21.7582 C   0  0  0  0  0  0  0  0  0  0  0  0
   10.4336   -1.6215   21.4248 C   0  0  0  0  0  0  0  0  0  0  0  0
   11.7371   -1.7329   21.7651 C   0  0  0  0  0  0  0  0  0  0  0  0
   12.2001   -0.5499   22.3008 N   0  0  0  0  0  0  0  0  0  0  0  0
   13.5600   -0.2972   22.7505 C   0  0  0  0  0  0  0  0  0  0  0  0
   13.7814   -0.7281   24.1266 N   0  0  0  0  0  0  0  0  0  0  0  0
   12.8221   -0.0922   25.0224 C   0  0  0  0  0  0  0  0  0  0  0  0
   13.6691   -2.1783   24.2332 C   0  0  0  0  0  0  0  0  0  0  0  0
   11.1579    0.3649   22.2747 C   0  0  0  0  0  0  0  0  0  0  0  0
   11.1123    1.6990   22.6530 C   0  0  0  0  0  0  0  0  0  0  0  0
  1  2  1  0
  2  3  1  0
  3  4  2  0
  4  5  1  0
  5  6  1  0
  6  7  1  0
  7  8  1  0
  8  9  1  0
  9 10  1  0
 10 11  1  0
 11 12  1  0
  5 13  2  0
 13 14  1  0
 14 15  2  0
 15 16  1  0
 16 17  1  0
 17 18  1  0
 18 19  1  0
 18 20  1  0
 16 21  1  0
 21 22  2  0
 22  3  1  0
 12  6  1  0
 21 13  1  0
M  END
