CVD-0002020|dock_bobby27042020.65|mol2|12|dock2
     RDKit          3D

 34 38  0  0  0  0  0  0  0  0999 V2000
   12.0288    6.4472   26.1498 C   0  0  0  0  0  0  0  0  0  0  0  0
   12.5521    6.5346   24.7462 C   0  0  0  0  0  0  0  0  0  0  0  0
   13.0051    7.5779   24.2859 O   0  0  0  0  0  0  0  0  0  0  0  0
   12.5116    5.4075   24.0330 N   0  0  0  0  0  0  0  0  0  0  0  0
   12.9980    5.3276   22.6631 C   0  0  0  0  0  0  0  0  0  0  0  0
   13.5177    3.9439   22.3275 C   0  0  0  0  0  0  0  0  0  0  0  0
   12.4650    2.8799   22.4358 C   0  0  0  0  0  0  0  0  0  0  0  0
   11.1168    3.0398   22.3615 C   0  0  0  0  0  0  0  0  0  0  0  0
   10.4866    1.8358   22.5092 N   0  0  0  0  0  0  0  0  0  0  0  0
   11.4280    0.8443   22.6980 C   0  0  0  0  0  0  0  0  0  0  0  0
   11.3278   -0.5475   22.9133 C   0  0  0  0  0  0  0  0  0  0  0  0
   12.5115   -1.2784   23.0206 C   0  0  0  0  0  0  0  0  0  0  0  0
   13.7177   -0.6277   22.9443 C   0  0  0  0  0  0  0  0  0  0  0  0
   14.8512   -1.3718   23.0547 F   0  0  0  0  0  0  0  0  0  0  0  0
   13.8521    0.7238   22.7652 C   0  0  0  0  0  0  0  0  0  0  0  0
   12.6899    1.4781   22.6367 C   0  0  0  0  0  0  0  0  0  0  0  0
   10.0788   -1.2150   23.0249 N   0  0  0  0  0  0  0  0  0  0  0  0
    9.8985   -2.5237   22.3794 C   0  0  0  0  0  0  0  0  0  0  0  0
    8.4174   -2.8213   22.1741 C   0  0  0  0  0  0  0  0  0  0  0  0
    7.6535   -2.6656   23.4024 N   0  0  0  0  0  0  0  0  0  0  0  0
    7.8872   -1.3741   24.0658 C   0  0  0  0  0  0  0  0  0  0  0  0
    9.3585   -1.1838   24.3233 C   0  0  0  0  0  0  0  0  0  0  0  0
    6.7580   -3.5153   23.9473 C   0  0  0  0  0  0  0  0  0  0  0  0
    6.1848   -3.2561   24.9979 O   0  0  0  0  0  0  0  0  0  0  0  0
    6.4824   -4.8224   23.2246 C   0  0  0  0  0  0  0  0  0  0  0  0
    5.4480   -5.6752   23.8961 C   0  0  0  0  0  0  0  0  0  0  0  0
    4.2969   -6.1613   23.3486 C   0  0  0  0  0  0  0  0  0  0  0  0
    3.6016   -6.9014   24.2676 N   0  0  0  0  0  0  0  0  0  0  0  0
    4.2997   -6.9064   25.4394 C   0  0  0  0  0  0  0  0  0  0  0  0
    3.9611   -7.5170   26.5874 N   0  0  0  0  0  0  0  0  0  0  0  0
    4.8167   -7.3751   27.6090 C   0  0  0  0  0  0  0  0  0  0  0  0
    5.9891   -6.6539   27.5347 C   0  0  0  0  0  0  0  0  0  0  0  0
    6.3232   -6.0304   26.3428 C   0  0  0  0  0  0  0  0  0  0  0  0
    5.4669   -6.1474   25.2499 C   0  0  0  0  0  0  0  0  0  0  0  0
  1  2  1  0
  2  3  2  0
  2  4  1  0
  4  5  1  0
  5  6  1  0
  6  7  1  0
  7  8  2  0
  8  9  1  0
  9 10  1  0
 10 11  2  0
 11 12  1  0
 12 13  2  0
 13 14  1  0
 13 15  1  0
 15 16  2  0
 11 17  1  0
 17 18  1  0
 18 19  1  0
 19 20  1  0
 20 21  1  0
 21 22  1  0
 20 23  1  0
 23 24  2  0
 23 25  1  0
 25 26  1  0
 26 27  2  0
 27 28  1  0
 28 29  1  0
 29 30  2  0
 30 31  1  0
 31 32  2  0
 32 33  1  0
 33 34  2  0
 16  7  1  0
 22 17  1  0
 34 26  1  0
 16 10  1  0
 34 29  1  0
M  END
