CVD-0003634|dock_bobby27042020.1|mol2|25|dock3
     RDKit          3D

 19 20  0  0  0  0  0  0  0  0999 V2000
   12.0218    0.1286   24.4709 C   0  0  0  0  0  0  0  0  0  0  0  0
   12.6496   -0.9559   23.6232 C   0  0  0  0  0  0  0  0  0  0  0  0
   13.7720   -1.6460   24.1088 C   0  0  0  0  0  0  0  0  0  0  0  0
   14.3612   -1.3343   25.3144 N   0  0  0  0  0  0  0  0  0  0  0  0
   14.3012   -2.6774   23.3423 C   0  0  0  0  0  0  0  0  0  0  0  0
   13.8120   -3.0436   22.1598 N   0  0  0  0  0  0  0  0  0  0  0  0
   12.7738   -2.3570   21.6774 C   0  0  0  0  0  0  0  0  0  0  0  0
   12.1450   -1.3140   22.3576 C   0  0  0  0  0  0  0  0  0  0  0  0
   11.0305   -0.5938   21.8410 N   0  0  0  0  0  0  0  0  0  0  0  0
    9.9546   -1.0560   21.1154 C   0  0  0  0  0  0  0  0  0  0  0  0
    9.7861   -2.2265   20.7895 O   0  0  0  0  0  0  0  0  0  0  0  0
    9.0847   -0.0346   20.8054 N   0  0  0  0  0  0  0  0  0  0  0  0
    7.8607   -0.0422   20.0886 C   0  0  0  0  0  0  0  0  0  0  0  0
    7.6938   -1.0268   19.1212 C   0  0  0  0  0  0  0  0  0  0  0  0
    6.5267   -1.0988   18.3802 C   0  0  0  0  0  0  0  0  0  0  0  0
    5.5070   -0.1887   18.5931 C   0  0  0  0  0  0  0  0  0  0  0  0
    5.6784    0.7836   19.5523 C   0  0  0  0  0  0  0  0  0  0  0  0
    4.4005    1.9342   19.8281 Cl  0  0  0  0  0  0  0  0  0  0  0  0
    6.8328    0.8754   20.3035 C   0  0  0  0  0  0  0  0  0  0  0  0
  1  2  1  0
  2  3  2  0
  3  4  1  0
  3  5  1  0
  5  6  2  0
  6  7  1  0
  7  8  2  0
  8  9  1  0
  9 10  1  0
 10 11  2  0
 10 12  1  0
 12 13  1  0
 13 14  2  0
 14 15  1  0
 15 16  2  0
 16 17  1  0
 17 18  1  0
 17 19  2  0
  8  2  1  0
 19 13  1  0
M  END
