CVD-0000156|dock_bobby27042020.57|mol2|8|dock3
     RDKit          3D

 12 12  0  0  0  0  0  0  0  0999 V2000
    7.9177   -0.1883   19.6531 C   0  0  0  0  0  0  0  0  0  0  0  0
    8.7823   -0.1221   21.1746 S   0  0  0  0  0  0  0  0  0  0  0  0
    7.8753   -0.4920   22.2170 O   0  0  0  0  0  0  0  0  0  0  0  0
    9.4377    1.1465   21.2579 O   0  0  0  0  0  0  0  0  0  0  0  0
    9.9294   -1.2414   21.1308 N   0  0  0  0  0  0  0  0  0  0  0  0
   10.6782   -1.5615   22.3520 C   0  0  0  0  0  0  0  0  0  0  0  0
   12.1370   -1.1759   22.2080 C   0  0  0  0  0  0  0  0  0  0  0  0
   12.9305   -1.5284   23.4261 C   0  0  0  0  0  0  0  0  0  0  0  0
   13.3913   -0.6549   24.3505 C   0  0  0  0  0  0  0  0  0  0  0  0
   14.2466   -1.4694   25.5760 S   0  0  0  0  0  0  0  0  0  0  0  0
   13.9378   -2.9437   24.7777 C   0  0  0  0  0  0  0  0  0  0  0  0
   13.2500   -2.8484   23.6794 N   0  0  0  0  0  0  0  0  0  0  0  0
  1  2  1  0
  2  3  2  0
  2  4  2  0
  2  5  1  0
  5  6  1  0
  6  7  1  0
  7  8  1  0
  8  9  2  0
  9 10  1  0
 10 11  1  0
 11 12  2  0
 12  8  1  0
M  END
