CVD-0001515|dock_bobby27042020.95|mol2|7|dock2
     RDKit          3D

 29 33  0  0  0  0  0  0  0  0999 V2000
   10.0539   -0.6554   23.7801 C   0  0  0  0  0  0  0  0  0  0  0  0
   11.3027   -0.3865   22.9144 C   0  0  0  0  0  0  0  0  0  0  0  0
   12.5205   -1.0545   23.5401 C   0  0  0  0  0  0  0  0  0  0  0  0
   13.0424   -0.5962   24.7416 C   0  0  0  0  0  0  0  0  0  0  0  0
   14.1480   -1.2055   25.3112 C   0  0  0  0  0  0  0  0  0  0  0  0
   14.7445   -2.2802   24.6872 C   0  0  0  0  0  0  0  0  0  0  0  0
   14.2360   -2.7465   23.4939 C   0  0  0  0  0  0  0  0  0  0  0  0
   13.1305   -2.1380   22.9235 C   0  0  0  0  0  0  0  0  0  0  0  0
   11.4964    1.1001   22.7225 C   0  0  0  0  0  0  0  0  0  0  0  0
   12.7541    1.7013   22.6602 C   0  0  0  0  0  0  0  0  0  0  0  0
   12.8950    3.0674   22.4898 C   0  0  0  0  0  0  0  0  0  0  0  0
   11.7732    3.8603   22.3782 C   0  0  0  0  0  0  0  0  0  0  0  0
   10.5181    3.2793   22.4379 C   0  0  0  0  0  0  0  0  0  0  0  0
   10.3707    1.9049   22.6091 C   0  0  0  0  0  0  0  0  0  0  0  0
    8.9881    1.3155   22.5471 C   0  0  0  0  0  0  0  0  0  0  0  0
    8.9176   -0.0516   23.0611 N   0  0  0  0  0  0  0  0  0  0  0  0
    7.8131   -0.8571   22.8095 C   0  0  0  0  0  0  0  0  0  0  0  0
    7.1434   -1.5108   23.8403 C   0  0  0  0  0  0  0  0  0  0  0  0
    6.0465   -2.3142   23.5841 C   0  0  0  0  0  0  0  0  0  0  0  0
    5.5943   -2.4801   22.2888 C   0  0  0  0  0  0  0  0  0  0  0  0
    4.4807   -3.2919   22.0638 O   0  0  0  0  0  0  0  0  0  0  0  0
    4.3819   -4.5571   22.5226 C   0  0  0  0  0  0  0  0  0  0  0  0
    5.5103   -5.2257   22.7198 N   0  0  0  0  0  0  0  0  0  0  0  0
    5.3543   -6.4724   23.1822 C   0  0  0  0  0  0  0  0  0  0  0  0
    4.1254   -7.0325   23.4407 C   0  0  0  0  0  0  0  0  0  0  0  0
    3.0383   -6.2271   23.1946 C   0  0  0  0  0  0  0  0  0  0  0  0
    3.1419   -4.9747   22.7325 N   0  0  0  0  0  0  0  0  0  0  0  0
    6.2440   -1.8342   21.2520 C   0  0  0  0  0  0  0  0  0  0  0  0
    7.3418   -1.0333   21.5117 C   0  0  0  0  0  0  0  0  0  0  0  0
  1  2  1  0
  2  3  1  0
  3  4  2  0
  4  5  1  0
  5  6  2  0
  6  7  1  0
  7  8  2  0
  2  9  1  0
  9 10  2  0
 10 11  1  0
 11 12  2  0
 12 13  1  0
 13 14  2  0
 14 15  1  0
 15 16  1  0
 16 17  1  0
 17 18  2  0
 18 19  1  0
 19 20  2  0
 20 21  1  0
 21 22  1  0
 22 23  2  0
 23 24  1  0
 24 25  2  0
 25 26  1  0
 26 27  2  0
 20 28  1  0
 28 29  2  0
 16  1  1  0
 29 17  1  0
  8  3  1  0
 14  9  1  0
 27 22  1  0
M  END
