CVD-0000628|dock_bobby27042020.26|mol2|38|dock1
     RDKit          3D

 26 28  0  0  0  0  0  0  0  0999 V2000
    7.6775   -1.2755   18.1855 C   0  0  0  0  0  0  0  0  0  0  0  0
    7.2094   -0.0816   18.9775 C   0  0  0  0  0  0  0  0  0  0  0  0
    6.1365    0.6581   18.4890 C   0  0  0  0  0  0  0  0  0  0  0  0
    5.6878    1.7558   19.1883 C   0  0  0  0  0  0  0  0  0  0  0  0
    6.2336    2.1608   20.3313 N   0  0  0  0  0  0  0  0  0  0  0  0
    7.2657    1.4590   20.8100 C   0  0  0  0  0  0  0  0  0  0  0  0
    7.8023    0.3321   20.1863 C   0  0  0  0  0  0  0  0  0  0  0  0
    8.9014   -0.4178   20.6921 N   0  0  0  0  0  0  0  0  0  0  0  0
    9.3642   -0.5575   21.9593 C   0  0  0  0  0  0  0  0  0  0  0  0
    8.8850   -0.0253   22.9546 O   0  0  0  0  0  0  0  0  0  0  0  0
   10.5732   -1.4682   22.0440 C   0  0  0  0  0  0  0  0  0  0  0  0
   11.3626   -1.4906   23.3798 C   0  0  0  0  0  0  0  0  0  0  0  0
   12.6317   -2.3816   23.2573 C   0  0  0  0  0  0  0  0  0  0  0  0
   13.8051   -1.4579   23.2074 C   0  0  0  0  0  0  0  0  0  0  0  0
   13.3327   -0.1037   23.4611 C   0  0  0  0  0  0  0  0  0  0  0  0
   11.8783   -0.0683   23.6943 C   0  0  0  0  0  0  0  0  0  0  0  0
   10.3645   -1.9690   24.4427 C   0  0  0  0  0  0  0  0  0  0  0  0
    9.6251   -1.1034   25.2472 C   0  0  0  0  0  0  0  0  0  0  0  0
    8.7380   -1.5841   26.1953 C   0  0  0  0  0  0  0  0  0  0  0  0
    8.5652   -2.9456   26.3649 C   0  0  0  0  0  0  0  0  0  0  0  0
    9.2937   -3.8121   25.5693 C   0  0  0  0  0  0  0  0  0  0  0  0
   10.1857   -3.3379   24.6192 C   0  0  0  0  0  0  0  0  0  0  0  0
    9.0964   -5.5568   25.7698 S   0  0  0  0  0  0  0  0  0  0  0  0
   10.4589   -6.1571   26.3581 N   0  0  0  0  0  0  0  0  0  0  0  0
    8.9144   -6.1193   24.4653 O   0  0  0  0  0  0  0  0  0  0  0  0
    8.0814   -5.7615   26.7592 O   0  0  0  0  0  0  0  0  0  0  0  0
  1  2  1  0
  2  3  2  0
  3  4  1  0
  4  5  2  0
  5  6  1  0
  6  7  2  0
  7  8  1  0
  8  9  1  0
  9 10  2  0
  9 11  1  0
 11 12  1  0
 12 13  1  0
 13 14  1  0
 14 15  1  0
 15 16  1  0
 12 17  1  0
 17 18  2  0
 18 19  1  0
 19 20  2  0
 20 21  1  0
 21 22  2  0
 21 23  1  0
 23 24  1  0
 23 25  2  0
 23 26  2  0
  7  2  1  0
 16 12  1  0
 22 17  1  0
M  END
