CVD-0002947|dock_bobby27042020.61|mol2|26|dock3
     RDKit          3D

 20 21  0  0  0  0  0  0  0  0999 V2000
    4.5628    1.4678   18.5742 C   0  0  0  0  0  0  0  0  0  0  0  0
    5.9656    1.0269   18.8272 C   0  0  0  0  0  0  0  0  0  0  0  0
    6.7228    0.6320   17.9832 O   0  0  0  0  0  0  0  0  0  0  0  0
    6.2656    1.1649   20.1512 O   0  0  0  0  0  0  0  0  0  0  0  0
    7.5439    0.9101   20.6950 C   0  0  0  0  0  0  0  0  0  0  0  0
    8.1492    1.9064   21.4409 C   0  0  0  0  0  0  0  0  0  0  0  0
    9.4013    1.6933   21.9892 C   0  0  0  0  0  0  0  0  0  0  0  0
   10.0709    0.4917   21.8082 C   0  0  0  0  0  0  0  0  0  0  0  0
    9.4480   -0.4989   21.0617 C   0  0  0  0  0  0  0  0  0  0  0  0
    8.1944   -0.2998   20.5110 C   0  0  0  0  0  0  0  0  0  0  0  0
   11.4359    0.2717   22.4121 C   0  0  0  0  0  0  0  0  0  0  0  0
   11.3588   -0.1890   23.8491 C   0  0  0  0  0  0  0  0  0  0  0  0
   12.7588   -0.4561   24.3566 C   0  0  0  0  0  0  0  0  0  0  0  0
   13.4351   -1.4120   23.4560 N   0  0  0  0  0  0  0  0  0  0  0  0
   13.4560   -0.9658   22.0659 C   0  0  0  0  0  0  0  0  0  0  0  0
   12.1453   -0.6970   21.6202 O   0  0  0  0  0  0  0  0  0  0  0  0
   14.0064   -2.5795   23.8257 C   0  0  0  0  0  0  0  0  0  0  0  0
   14.5442   -3.3098   23.0029 O   0  0  0  0  0  0  0  0  0  0  0  0
   13.9717   -2.9585   25.2938 C   0  0  0  0  0  0  0  0  0  0  0  0
   14.8506   -1.7782   26.2745 Cl  0  0  0  0  0  0  0  0  0  0  0  0
  1  2  1  0
  2  3  2  0
  2  4  1  0
  4  5  1  0
  5  6  2  0
  6  7  1  0
  7  8  2  0
  8  9  1  0
  9 10  2  0
  8 11  1  0
 11 12  1  0
 12 13  1  0
 13 14  1  0
 14 15  1  0
 15 16  1  0
 14 17  1  0
 17 18  2  0
 17 19  1  0
 19 20  1  0
 10  5  1  0
 16 11  1  0
M  END
