CVD-0000926|dock_bobby27042020.25|mol2|36|dock3
     RDKit          3D

 41 44  0  0  0  0  0  0  0  0999 V2000
    2.6868   -5.6059   24.0094 C   0  0  0  0  0  0  0  0  0  0  0  0
    4.1677   -5.7710   23.7481 C   0  0  0  0  0  0  0  0  0  0  0  0
    4.5396   -7.0693   23.9889 N   0  0  0  0  0  0  0  0  0  0  0  0
    4.9593   -4.8922   24.5887 N   0  0  0  0  0  0  0  0  0  0  0  0
    6.4161   -4.8611   24.3950 C   0  0  0  0  0  0  0  0  0  0  0  0
    7.1237   -5.7198   25.4501 C   0  0  0  0  0  0  0  0  0  0  0  0
    8.5490   -6.0523   25.0635 C   0  0  0  0  0  0  0  0  0  0  0  0
    9.1038   -7.0773   25.6908 N   0  0  0  0  0  0  0  0  0  0  0  0
    9.1458   -5.3918   24.2081 O   0  0  0  0  0  0  0  0  0  0  0  0
    6.9457   -3.4282   24.4375 C   0  0  0  0  0  0  0  0  0  0  0  0
    6.7435   -2.7031   25.4083 O   0  0  0  0  0  0  0  0  0  0  0  0
    7.6296   -3.0158   23.3663 N   0  0  0  0  0  0  0  0  0  0  0  0
    8.1858   -1.6706   23.2689 C   0  0  0  0  0  0  0  0  0  0  0  0
    9.5041   -1.5180   24.0358 C   0  0  0  0  0  0  0  0  0  0  0  0
   10.7128   -2.0805   23.3247 C   0  0  0  0  0  0  0  0  0  0  0  0
   10.8798   -1.2559   22.0656 C   0  0  0  0  0  0  0  0  0  0  0  0
    9.7108   -1.3583   21.0754 C   0  0  0  0  0  0  0  0  0  0  0  0
    8.3667   -1.2891   21.8071 N   0  0  0  0  0  0  0  0  0  0  0  0
    7.1949   -0.9193   21.2413 C   0  0  0  0  0  0  0  0  0  0  0  0
    6.1376   -0.9249   21.8597 O   0  0  0  0  0  0  0  0  0  0  0  0
    7.2388   -0.4826   19.7896 C   0  0  0  0  0  0  0  0  0  0  0  0
    5.6111   -0.4084   19.1021 Cl  0  0  0  0  0  0  0  0  0  0  0  0
   11.0589    0.2048   22.3585 C   0  0  0  0  0  0  0  0  0  0  0  0
   10.0641    1.0271   22.4746 N   0  0  0  0  0  0  0  0  0  0  0  0
   10.5085    2.3200   22.7410 C   0  0  0  0  0  0  0  0  0  0  0  0
    9.7355    3.4655   22.9325 C   0  0  0  0  0  0  0  0  0  0  0  0
   10.3219    4.7076   23.1895 C   0  0  0  0  0  0  0  0  0  0  0  0
   11.7113    4.7833   23.2563 C   0  0  0  0  0  0  0  0  0  0  0  0
   12.5030    3.6642   23.0761 C   0  0  0  0  0  0  0  0  0  0  0  0
   11.9004    2.4377   22.8177 C   0  0  0  0  0  0  0  0  0  0  0  0
   12.6546    0.8939   22.5511 S   0  0  0  0  0  0  0  0  0  0  0  0
    9.4802    5.9189   23.3869 C   0  0  0  0  0  0  0  0  0  0  0  0
    9.6880    6.7704   24.4690 C   0  0  0  0  0  0  0  0  0  0  0  0
    8.9073    7.8994   24.6530 C   0  0  0  0  0  0  0  0  0  0  0  0
    7.8932    8.2043   23.7621 C   0  0  0  0  0  0  0  0  0  0  0  0
    7.6749    7.3627   22.6849 C   0  0  0  0  0  0  0  0  0  0  0  0
    8.4575    6.2348   22.4907 C   0  0  0  0  0  0  0  0  0  0  0  0
    6.3888    7.7315   21.5304 S   0  0  0  0  0  0  0  0  0  0  0  0
    5.3721    6.4955   21.4918 N   0  0  0  0  0  0  0  0  0  0  0  0
    6.9912    7.8250   20.2345 O   0  0  0  0  0  0  0  0  0  0  0  0
    5.6665    8.8582   22.0404 O   0  0  0  0  0  0  0  0  0  0  0  0
  1  2  1  0
  2  3  1  0
  2  4  1  0
  4  5  1  0
  5  6  1  0
  6  7  1  0
  7  8  1  0
  7  9  2  0
  5 10  1  0
 10 11  2  0
 10 12  1  0
 12 13  1  0
 13 14  1  0
 14 15  1  0
 15 16  1  0
 16 17  1  0
 17 18  1  0
 18 19  1  0
 19 20  2  0
 19 21  1  0
 21 22  1  0
 16 23  1  0
 23 24  2  0
 24 25  1  0
 25 26  2  0
 26 27  1  0
 27 28  2  0
 28 29  1  0
 29 30  2  0
 30 31  1  0
 27 32  1  0
 32 33  2  0
 33 34  1  0
 34 35  2  0
 35 36  1  0
 36 37  2  0
 36 38  1  0
 38 39  1  0
 38 40  2  0
 38 41  2  0
 18 13  1  0
 31 23  1  0
 37 32  1  0
 30 25  1  0
M  END
