CVD-0000224|dock_bobby27042020.42|mol2|20|dock2
     RDKit          3D

 24 25  0  0  0  0  0  0  0  0999 V2000
    6.1376    7.2829   21.4070 C   0  0  0  0  0  0  0  0  0  0  0  0
    5.9804    5.7796   21.4795 C   0  0  0  0  0  0  0  0  0  0  0  0
    4.5418    5.3042   21.6461 C   0  0  0  0  0  0  0  0  0  0  0  0
    4.2908    3.8531   22.0806 C   0  0  0  0  0  0  0  0  0  0  0  0
    2.8223    3.5289   22.3123 C   0  0  0  0  0  0  0  0  0  0  0  0
    4.9862    3.6648   23.3275 O   0  0  0  0  0  0  0  0  0  0  0  0
    4.8813    2.8702   21.0616 C   0  0  0  0  0  0  0  0  0  0  0  0
    4.7909    1.3768   21.4013 C   0  0  0  0  0  0  0  0  0  0  0  0
    5.6764    0.4961   20.5524 C   0  0  0  0  0  0  0  0  0  0  0  0
    5.2186   -0.0248   19.3536 C   0  0  0  0  0  0  0  0  0  0  0  0
    6.0345   -0.8334   18.5825 C   0  0  0  0  0  0  0  0  0  0  0  0
    7.3192   -1.1302   19.0042 C   0  0  0  0  0  0  0  0  0  0  0  0
    7.8013   -0.6204   20.2042 C   0  0  0  0  0  0  0  0  0  0  0  0
    9.1259   -0.9641   20.5766 N   0  0  0  0  0  0  0  0  0  0  0  0
    9.7974   -0.8063   21.7676 C   0  0  0  0  0  0  0  0  0  0  0  0
    9.3146   -0.3019   22.7762 O   0  0  0  0  0  0  0  0  0  0  0  0
   11.0837   -1.2879   21.6834 N   0  0  0  0  0  0  0  0  0  0  0  0
   12.1168   -1.3308   22.6533 C   0  0  0  0  0  0  0  0  0  0  0  0
   12.1484   -0.5497   23.8047 C   0  0  0  0  0  0  0  0  0  0  0  0
   13.2116   -0.6784   24.6817 C   0  0  0  0  0  0  0  0  0  0  0  0
   14.2100   -1.5782   24.3883 C   0  0  0  0  0  0  0  0  0  0  0  0
   14.2077   -2.3396   23.2944 N   0  0  0  0  0  0  0  0  0  0  0  0
   13.1771   -2.2078   22.4545 C   0  0  0  0  0  0  0  0  0  0  0  0
    6.9664    0.1928   20.9698 C   0  0  0  0  0  0  0  0  0  0  0  0
  1  2  1  0
  2  3  1  0
  3  4  1  0
  4  5  1  0
  4  6  1  0
  4  7  1  0
  7  8  1  0
  8  9  1  0
  9 10  2  0
 10 11  1  0
 11 12  2  0
 12 13  1  0
 13 14  1  0
 14 15  1  0
 15 16  2  0
 15 17  1  0
 17 18  1  0
 18 19  2  0
 19 20  1  0
 20 21  2  0
 21 22  1  0
 22 23  2  0
 13 24  2  0
 24  9  1  0
 23 18  1  0
M  END
