CVD-0003358|dock_bobby27042020.88|mol2|16|dock1
     RDKit          3D

 25 27  0  0  0  0  0  0  0  0999 V2000
   13.7831    5.8087   21.5895 N   0  0  0  0  0  0  0  0  0  0  0  0
   13.5045    5.1938   23.0412 S   0  0  0  0  0  0  0  0  0  0  0  0
   14.7582    4.7243   23.5499 O   0  0  0  0  0  0  0  0  0  0  0  0
   12.7809    6.1796   23.7867 O   0  0  0  0  0  0  0  0  0  0  0  0
   12.4484    3.7885   22.8607 C   0  0  0  0  0  0  0  0  0  0  0  0
   11.0766    3.9741   22.7832 C   0  0  0  0  0  0  0  0  0  0  0  0
   10.2491    2.9019   22.6392 C   0  0  0  0  0  0  0  0  0  0  0  0
   10.7686    1.5878   22.5649 C   0  0  0  0  0  0  0  0  0  0  0  0
    9.9447    0.4485   22.4157 C   0  0  0  0  0  0  0  0  0  0  0  0
   10.4749   -0.8130   22.3452 C   0  0  0  0  0  0  0  0  0  0  0  0
    9.5769   -2.0166   22.1892 C   0  0  0  0  0  0  0  0  0  0  0  0
    8.8553   -2.3578   23.4229 N   0  0  0  0  0  0  0  0  0  0  0  0
    9.7676   -2.9568   24.4015 C   0  0  0  0  0  0  0  0  0  0  0  0
    9.0262   -3.2693   25.6881 C   0  0  0  0  0  0  0  0  0  0  0  0
    7.9030   -4.1717   25.4250 N   0  0  0  0  0  0  0  0  0  0  0  0
    7.0021   -3.6270   24.4044 C   0  0  0  0  0  0  0  0  0  0  0  0
    7.7750   -3.2993   23.1398 C   0  0  0  0  0  0  0  0  0  0  0  0
    7.7331   -5.3379   26.0801 C   0  0  0  0  0  0  0  0  0  0  0  0
    6.7911   -6.0832   25.8416 O   0  0  0  0  0  0  0  0  0  0  0  0
    8.7734   -5.6848   27.1269 C   0  0  0  0  0  0  0  0  0  0  0  0
   10.3373   -6.0313   26.3776 Cl  0  0  0  0  0  0  0  0  0  0  0  0
   11.8504   -0.9760   22.4241 C   0  0  0  0  0  0  0  0  0  0  0  0
   12.6854    0.0904   22.5681 C   0  0  0  0  0  0  0  0  0  0  0  0
   12.1720    1.4066   22.6431 C   0  0  0  0  0  0  0  0  0  0  0  0
   13.0000    2.5427   22.7924 C   0  0  0  0  0  0  0  0  0  0  0  0
  1  2  1  0
  2  3  2  0
  2  4  2  0
  2  5  1  0
  5  6  2  0
  6  7  1  0
  7  8  2  0
  8  9  1  0
  9 10  2  0
 10 11  1  0
 11 12  1  0
 12 13  1  0
 13 14  1  0
 14 15  1  0
 15 16  1  0
 16 17  1  0
 15 18  1  0
 18 19  2  0
 18 20  1  0
 20 21  1  0
 10 22  1  0
 22 23  2  0
 23 24  1  0
 24 25  2  0
 25  5  1  0
 24  8  1  0
 17 12  1  0
M  END
