CVD-0002403|dock_bobby27042020.49|mol2|3|dock2
     RDKit          3D

 27 30  0  0  0  0  0  0  0  0999 V2000
    4.7767    0.2964   21.3665 C   0  0  0  0  0  0  0  0  0  0  0  0
    5.3813    0.4003   19.9901 C   0  0  0  0  0  0  0  0  0  0  0  0
    4.7975    1.2409   19.0465 C   0  0  0  0  0  0  0  0  0  0  0  0
    5.3739    1.3750   17.8008 C   0  0  0  0  0  0  0  0  0  0  0  0
    6.4865    0.7411   17.4340 N   0  0  0  0  0  0  0  0  0  0  0  0
    7.0437   -0.0830   18.3263 C   0  0  0  0  0  0  0  0  0  0  0  0
    6.5243   -0.2973   19.5957 C   0  0  0  0  0  0  0  0  0  0  0  0
    7.1729   -1.2332   20.4920 N   0  0  0  0  0  0  0  0  0  0  0  0
    8.3659   -0.8318   21.1026 C   0  0  0  0  0  0  0  0  0  0  0  0
    8.8454    0.2699   20.8829 O   0  0  0  0  0  0  0  0  0  0  0  0
    8.9787   -1.7457   21.9652 N   0  0  0  0  0  0  0  0  0  0  0  0
   10.2302   -1.3325   22.5596 C   0  0  0  0  0  0  0  0  0  0  0  0
   11.4401   -1.6869   21.9741 C   0  0  0  0  0  0  0  0  0  0  0  0
   12.6362   -1.2913   22.5494 C   0  0  0  0  0  0  0  0  0  0  0  0
   12.6383   -0.5439   23.7070 C   0  0  0  0  0  0  0  0  0  0  0  0
   11.4436   -0.1893   24.2949 C   0  0  0  0  0  0  0  0  0  0  0  0
   10.2417   -0.5797   23.7280 C   0  0  0  0  0  0  0  0  0  0  0  0
    8.4214   -3.0191   22.2532 C   0  0  0  0  0  0  0  0  0  0  0  0
    9.0014   -3.9065   23.1591 C   0  0  0  0  0  0  0  0  0  0  0  0
    8.4308   -5.1471   23.3722 C   0  0  0  0  0  0  0  0  0  0  0  0
    9.1773   -6.2474   24.4841 Cl  0  0  0  0  0  0  0  0  0  0  0  0
    7.2767   -5.5029   22.7046 C   0  0  0  0  0  0  0  0  0  0  0  0
    6.7320   -6.7231   22.9146 F   0  0  0  0  0  0  0  0  0  0  0  0
    6.6698   -4.6401   21.8318 C   0  0  0  0  0  0  0  0  0  0  0  0
    7.2306   -3.3840   21.6035 C   0  0  0  0  0  0  0  0  0  0  0  0
    6.5434   -2.4731   20.6811 C   0  0  0  0  0  0  0  0  0  0  0  0
    5.5054   -2.7612   20.1101 O   0  0  0  0  0  0  0  0  0  0  0  0
  1  2  1  0
  2  3  2  0
  3  4  1  0
  4  5  2  0
  5  6  1  0
  6  7  2  0
  7  8  1  0
  8  9  1  0
  9 10  2  0
  9 11  1  0
 11 12  1  0
 12 13  2  0
 13 14  1  0
 14 15  2  0
 15 16  1  0
 16 17  2  0
 11 18  1  0
 18 19  2  0
 19 20  1  0
 20 21  1  0
 20 22  2  0
 22 23  1  0
 22 24  1  0
 24 25  2  0
 25 26  1  0
 26 27  2  0
  7  2  1  0
 26  8  1  0
 17 12  1  0
 25 18  1  0
M  END
