CVD-0003805|dock_bobby27042020.58|mol2|32|dock1
     RDKit          3D

 32 36  0  0  0  0  0  0  0  0999 V2000
   13.8790    4.8214   23.4166 N   0  0  0  0  0  0  0  0  0  0  0  0
   12.5587    4.7622   22.5129 S   0  0  0  0  0  0  0  0  0  0  0  0
   12.9778    4.8385   21.1457 O   0  0  0  0  0  0  0  0  0  0  0  0
   11.6564    5.7540   23.0162 O   0  0  0  0  0  0  0  0  0  0  0  0
   11.7927    3.1865   22.7431 C   0  0  0  0  0  0  0  0  0  0  0  0
   11.8812    2.5495   23.9681 C   0  0  0  0  0  0  0  0  0  0  0  0
   11.2763    1.3177   24.1442 C   0  0  0  0  0  0  0  0  0  0  0  0
   10.5703    0.7082   23.1114 C   0  0  0  0  0  0  0  0  0  0  0  0
   10.4947    1.3681   21.8885 C   0  0  0  0  0  0  0  0  0  0  0  0
   11.0999    2.5980   21.7003 C   0  0  0  0  0  0  0  0  0  0  0  0
    9.9579   -0.5246   23.2923 N   0  0  0  0  0  0  0  0  0  0  0  0
   10.0409   -1.6064   22.3065 C   0  0  0  0  0  0  0  0  0  0  0  0
    8.7051   -2.2477   22.0579 C   0  0  0  0  0  0  0  0  0  0  0  0
    8.0910   -2.7636   23.3640 C   0  0  0  0  0  0  0  0  0  0  0  0
    8.0194   -1.6235   24.3483 C   0  0  0  0  0  0  0  0  0  0  0  0
    9.3582   -0.9548   24.5767 C   0  0  0  0  0  0  0  0  0  0  0  0
    6.7763   -3.4004   23.1349 N   0  0  0  0  0  0  0  0  0  0  0  0
    6.5464   -4.8242   23.4387 C   0  0  0  0  0  0  0  0  0  0  0  0
    7.1190   -5.6962   22.2825 C   0  0  0  0  0  0  0  0  0  0  0  0
    6.0000   -5.7734   21.2498 C   0  0  0  0  0  0  0  0  0  0  0  0
    4.8161   -6.0730   22.2152 C   0  0  0  0  0  0  0  0  0  0  0  0
    5.0035   -5.0891   23.3550 C   0  0  0  0  0  0  0  0  0  0  0  0
    7.2046   -5.2069   24.7824 C   0  0  0  0  0  0  0  0  0  0  0  0
    8.3321   -5.9954   24.8316 C   0  0  0  0  0  0  0  0  0  0  0  0
    8.9327   -6.3168   26.0372 C   0  0  0  0  0  0  0  0  0  0  0  0
    8.4297   -5.8766   27.2216 C   0  0  0  0  0  0  0  0  0  0  0  0
    7.2653   -5.0774   27.2497 C   0  0  0  0  0  0  0  0  0  0  0  0
    6.7132   -4.6092   28.4662 C   0  0  0  0  0  0  0  0  0  0  0  0
    5.5870   -3.8435   28.4737 C   0  0  0  0  0  0  0  0  0  0  0  0
    4.9619   -3.5116   27.2920 C   0  0  0  0  0  0  0  0  0  0  0  0
    5.4587   -3.9399   26.0972 C   0  0  0  0  0  0  0  0  0  0  0  0
    6.6330   -4.7362   26.0163 C   0  0  0  0  0  0  0  0  0  0  0  0
  1  2  1  0
  2  3  2  0
  2  4  2  0
  2  5  1  0
  5  6  2  0
  6  7  1  0
  7  8  2  0
  8  9  1  0
  9 10  2  0
  8 11  1  0
 11 12  1  0
 12 13  1  0
 13 14  1  0
 14 15  1  0
 15 16  1  0
 14 17  1  0
 17 18  1  0
 18 19  1  0
 19 20  1  0
 20 21  1  0
 21 22  1  0
 18 23  1  0
 23 24  2  0
 24 25  1  0
 25 26  2  0
 26 27  1  0
 27 28  2  0
 28 29  1  0
 29 30  2  0
 30 31  1  0
 31 32  2  0
 10  5  1  0
 16 11  1  0
 22 18  1  0
 32 23  1  0
 32 27  1  0
M  END
