CVD-0000163|dock_bobby27042020.42|mol2|29|dock3
     RDKit          3D

 20 20  0  0  0  0  0  0  0  0999 V2000
   12.3704    6.6933   25.4755 C   0  0  0  0  0  0  0  0  0  0  0  0
   12.6374    6.4538   24.0345 C   0  0  0  0  0  0  0  0  0  0  0  0
   12.9299    5.0368   23.8593 O   0  0  0  0  0  0  0  0  0  0  0  0
   13.3060    4.6511   22.6377 C   0  0  0  0  0  0  0  0  0  0  0  0
   13.6265    5.4112   21.7532 O   0  0  0  0  0  0  0  0  0  0  0  0
   13.2850    3.1219   22.4830 C   0  0  0  0  0  0  0  0  0  0  0  0
   14.3209    2.4784   22.3276 O   0  0  0  0  0  0  0  0  0  0  0  0
   12.0218    2.6316   22.5421 N   0  0  0  0  0  0  0  0  0  0  0  0
   11.5272    1.3068   22.4492 C   0  0  0  0  0  0  0  0  0  0  0  0
   10.2952    1.0001   21.8721 C   0  0  0  0  0  0  0  0  0  0  0  0
    9.8627   -0.3161   21.8091 C   0  0  0  0  0  0  0  0  0  0  0  0
    8.6649   -0.7239   21.2866 O   0  0  0  0  0  0  0  0  0  0  0  0
    7.7647    0.2530   20.7680 C   0  0  0  0  0  0  0  0  0  0  0  0
   10.6722   -1.3499   22.3088 C   0  0  0  0  0  0  0  0  0  0  0  0
   10.2773   -2.6705   22.2346 O   0  0  0  0  0  0  0  0  0  0  0  0
    9.1657   -3.0275   23.0552 C   0  0  0  0  0  0  0  0  0  0  0  0
   11.9048   -1.0304   22.8969 C   0  0  0  0  0  0  0  0  0  0  0  0
   12.6053   -2.1072   23.3680 O   0  0  0  0  0  0  0  0  0  0  0  0
   14.0176   -1.9897   23.5249 C   0  0  0  0  0  0  0  0  0  0  0  0
   12.3232    0.2880   22.9634 C   0  0  0  0  0  0  0  0  0  0  0  0
  1  2  1  0
  2  3  1  0
  3  4  1  0
  4  5  2  0
  4  6  1  0
  6  7  2  0
  6  8  1  0
  8  9  1  0
  9 10  2  0
 10 11  1  0
 11 12  1  0
 12 13  1  0
 11 14  2  0
 14 15  1  0
 15 16  1  0
 14 17  1  0
 17 18  1  0
 18 19  1  0
 17 20  2  0
 20  9  1  0
M  END
