CVD-0000802|dock_bobby27042020.83|mol2|18|dock1
     RDKit          3D

 22 24  0  0  0  0  0  0  0  0999 V2000
    4.6631   -6.1588   22.5236 C   0  0  0  0  0  0  0  0  0  0  0  0
    5.8693   -6.3719   21.6463 C   0  0  0  0  0  0  0  0  0  0  0  0
    6.9120   -5.2785   21.7749 C   0  0  0  0  0  0  0  0  0  0  0  0
    7.0087   -4.2818   20.8096 C   0  0  0  0  0  0  0  0  0  0  0  0
    7.9571   -3.2661   20.8974 C   0  0  0  0  0  0  0  0  0  0  0  0
    8.0570   -2.2773   19.9466 N   0  0  0  0  0  0  0  0  0  0  0  0
    6.9300   -1.5110   19.4216 C   0  0  0  0  0  0  0  0  0  0  0  0
    7.4141   -0.3296   18.5561 C   0  0  0  0  0  0  0  0  0  0  0  0
    6.2602    0.5347   18.0514 C   0  0  0  0  0  0  0  0  0  0  0  0
    5.3816    1.0127   19.2002 C   0  0  0  0  0  0  0  0  0  0  0  0
    4.8804   -0.1589   20.0324 C   0  0  0  0  0  0  0  0  0  0  0  0
    6.0404   -0.9938   20.5650 C   0  0  0  0  0  0  0  0  0  0  0  0
    8.8264   -3.2704   21.9963 C   0  0  0  0  0  0  0  0  0  0  0  0
    9.8424   -2.4145   22.3445 N   0  0  0  0  0  0  0  0  0  0  0  0
   10.3985   -2.8492   23.5167 C   0  0  0  0  0  0  0  0  0  0  0  0
    9.7702   -3.9787   23.9530 C   0  0  0  0  0  0  0  0  0  0  0  0
   10.0706   -4.7736   25.1975 C   0  0  0  0  0  0  0  0  0  0  0  0
    8.9704   -4.7933   26.1680 N   0  0  0  0  0  0  0  0  0  0  0  0
    9.3389   -5.5982   27.3269 C   0  0  0  0  0  0  0  0  0  0  0  0
    8.6463   -3.4407   26.6089 C   0  0  0  0  0  0  0  0  0  0  0  0
    8.7502   -4.2681   22.9857 C   0  0  0  0  0  0  0  0  0  0  0  0
    7.7852   -5.2639   22.8554 C   0  0  0  0  0  0  0  0  0  0  0  0
  1  2  1  0
  2  3  1  0
  3  4  2  0
  4  5  1  0
  5  6  1  0
  6  7  1  0
  7  8  1  0
  8  9  1  0
  9 10  1  0
 10 11  1  0
 11 12  1  0
  5 13  2  0
 13 14  1  0
 14 15  1  0
 15 16  2  0
 16 17  1  0
 17 18  1  0
 18 19  1  0
 18 20  1  0
 16 21  1  0
 21 22  2  0
 22  3  1  0
 12  7  1  0
 21 13  1  0
M  END
