CVD-0002927|dock_bobby27042020.47|mol2|1|dock3
     RDKit          3D

 26 29  0  0  0  0  0  0  0  0999 V2000
   13.1056    4.7851   21.2404 Cl  0  0  0  0  0  0  0  0  0  0  0  0
   13.5435    3.9494   22.7360 C   0  0  0  0  0  0  0  0  0  0  0  0
   12.9406    2.5603   22.8154 C   0  0  0  0  0  0  0  0  0  0  0  0
   13.6574    1.5971   23.0140 O   0  0  0  0  0  0  0  0  0  0  0  0
   11.4708    2.4163   22.6109 C   0  0  0  0  0  0  0  0  0  0  0  0
   10.6874    3.5741   22.6409 C   0  0  0  0  0  0  0  0  0  0  0  0
    9.3656    3.5552   22.2324 C   0  0  0  0  0  0  0  0  0  0  0  0
    8.7756    2.3928   21.7721 C   0  0  0  0  0  0  0  0  0  0  0  0
    9.4944    1.2035   21.8517 C   0  0  0  0  0  0  0  0  0  0  0  0
    9.1555   -0.1084   21.4829 N   0  0  0  0  0  0  0  0  0  0  0  0
    7.9383   -0.5480   20.8387 C   0  0  0  0  0  0  0  0  0  0  0  0
    7.4730    0.0690   19.6837 C   0  0  0  0  0  0  0  0  0  0  0  0
    6.3272   -0.3929   19.0575 C   0  0  0  0  0  0  0  0  0  0  0  0
    5.6180   -1.4468   19.5900 C   0  0  0  0  0  0  0  0  0  0  0  0
    6.0534   -2.0438   20.7525 C   0  0  0  0  0  0  0  0  0  0  0  0
    7.2079   -1.6014   21.3761 C   0  0  0  0  0  0  0  0  0  0  0  0
   10.1932   -0.9643   21.8834 C   0  0  0  0  0  0  0  0  0  0  0  0
   10.2199   -2.1791   21.7603 O   0  0  0  0  0  0  0  0  0  0  0  0
   11.1721   -0.1603   22.4932 N   0  0  0  0  0  0  0  0  0  0  0  0
   12.3108   -0.7158   23.1878 C   0  0  0  0  0  0  0  0  0  0  0  0
   13.0509   -1.7537   22.6383 C   0  0  0  0  0  0  0  0  0  0  0  0
   14.1256   -2.2683   23.3418 C   0  0  0  0  0  0  0  0  0  0  0  0
   14.4260   -1.7288   24.5711 C   0  0  0  0  0  0  0  0  0  0  0  0
   13.7310   -0.7328   25.1208 N   0  0  0  0  0  0  0  0  0  0  0  0
   12.6937   -0.2451   24.4332 C   0  0  0  0  0  0  0  0  0  0  0  0
   10.8128    1.1912   22.3609 C   0  0  0  0  0  0  0  0  0  0  0  0
  1  2  1  0
  2  3  1  0
  3  4  2  0
  3  5  1  0
  5  6  2  0
  6  7  1  0
  7  8  2  0
  8  9  1  0
  9 10  1  0
 10 11  1  0
 11 12  2  0
 12 13  1  0
 13 14  2  0
 14 15  1  0
 15 16  2  0
 10 17  1  0
 17 18  2  0
 17 19  1  0
 19 20  1  0
 20 21  2  0
 21 22  1  0
 22 23  2  0
 23 24  1  0
 24 25  2  0
 19 26  1  0
 26  5  1  0
 26  9  2  0
 16 11  1  0
 25 20  1  0
M  END
