CVD-0002364|dock_bobby27042020.91|mol2|36|dock2
     RDKit          3D

 38 42  0  0  0  0  0  0  0  0999 V2000
    6.7104   -4.9797   23.3739 C   0  0  0  0  0  0  0  0  0  0  0  0
    5.8741   -4.8702   22.1758 N   0  0  0  0  0  0  0  0  0  0  0  0
    6.5923   -4.4403   20.9713 C   0  0  0  0  0  0  0  0  0  0  0  0
    6.6198   -2.9398   20.8450 C   0  0  0  0  0  0  0  0  0  0  0  0
    5.8014   -2.1804   19.9911 C   0  0  0  0  0  0  0  0  0  0  0  0
    6.0824   -0.8314   20.1257 C   0  0  0  0  0  0  0  0  0  0  0  0
    5.4319    0.2861   19.3869 C   0  0  0  0  0  0  0  0  0  0  0  0
    4.2131    0.8276   19.8076 C   0  0  0  0  0  0  0  0  0  0  0  0
    3.6100    1.8683   19.1212 C   0  0  0  0  0  0  0  0  0  0  0  0
    4.2068    2.4107   18.0069 C   0  0  0  0  0  0  0  0  0  0  0  0
    5.4153    1.9080   17.5646 C   0  0  0  0  0  0  0  0  0  0  0  0
    5.9909    0.8653   18.2515 C   0  0  0  0  0  0  0  0  0  0  0  0
    7.1627    0.4058   17.7558 F   0  0  0  0  0  0  0  0  0  0  0  0
    7.1089   -0.7581   21.1118 N   0  0  0  0  0  0  0  0  0  0  0  0
    7.4226   -2.0442   21.5330 C   0  0  0  0  0  0  0  0  0  0  0  0
    7.9494    0.5394   21.8116 S   0  0  0  0  0  0  0  0  0  0  0  0
    9.0851    0.8218   20.9901 O   0  0  0  0  0  0  0  0  0  0  0  0
    6.9635    1.5553   22.0137 O   0  0  0  0  0  0  0  0  0  0  0  0
    8.4441   -0.0194   23.4308 C   0  0  0  0  0  0  0  0  0  0  0  0
    7.4462   -0.2078   24.3770 C   0  0  0  0  0  0  0  0  0  0  0  0
    7.8045   -0.6087   25.6502 C   0  0  0  0  0  0  0  0  0  0  0  0
    9.1357   -0.8011   25.9304 C   0  0  0  0  0  0  0  0  0  0  0  0
   10.1250   -0.6328   25.0439 N   0  0  0  0  0  0  0  0  0  0  0  0
    9.8023   -0.2616   23.7945 C   0  0  0  0  0  0  0  0  0  0  0  0
   10.8589   -0.1409   22.9136 N   0  0  0  0  0  0  0  0  0  0  0  0
   11.2670   -1.2746   22.0504 C   0  0  0  0  0  0  0  0  0  0  0  0
   12.5657   -1.7084   22.3191 C   0  0  0  0  0  0  0  0  0  0  0  0
   13.5898   -0.8190   22.8173 C   0  0  0  0  0  0  0  0  0  0  0  0
   13.1558    0.6162   22.8678 C   0  0  0  0  0  0  0  0  0  0  0  0
   14.0857    1.6469   22.7694 C   0  0  0  0  0  0  0  0  0  0  0  0
   13.6989    2.9709   22.7230 C   0  0  0  0  0  0  0  0  0  0  0  0
   12.3493    3.2692   22.7764 C   0  0  0  0  0  0  0  0  0  0  0  0
   11.3953    2.2663   22.8746 C   0  0  0  0  0  0  0  0  0  0  0  0
   11.7987    0.9314   22.9208 C   0  0  0  0  0  0  0  0  0  0  0  0
   11.8257    4.9569   22.7774 S   0  0  0  0  0  0  0  0  0  0  0  0
   12.3517    5.6504   24.1211 N   0  0  0  0  0  0  0  0  0  0  0  0
   12.4784    5.6078   21.6813 O   0  0  0  0  0  0  0  0  0  0  0  0
   10.3946    4.9606   22.8313 O   0  0  0  0  0  0  0  0  0  0  0  0
  1  2  1  0
  2  3  1  0
  3  4  1  0
  4  5  1  0
  5  6  2  0
  6  7  1  0
  7  8  2  0
  8  9  1  0
  9 10  2  0
 10 11  1  0
 11 12  2  0
 12 13  1  0
  6 14  1  0
 14 15  1  0
 14 16  1  0
 16 17  2  0
 16 18  2  0
 16 19  1  0
 19 20  2  0
 20 21  1  0
 21 22  2  0
 22 23  1  0
 23 24  2  0
 24 25  1  0
 25 26  1  0
 26 27  1  0
 27 28  1  0
 28 29  1  0
 29 30  2  0
 30 31  1  0
 31 32  2  0
 32 33  1  0
 33 34  2  0
 32 35  1  0
 35 36  1  0
 35 37  2  0
 35 38  2  0
 15  4  2  0
 24 19  1  0
 34 25  1  0
 12  7  1  0
 34 29  1  0
M  END
