CVD-0003413|dock_bobby27042020.2|mol2|12|dock3
     RDKit          3D

 17 18  0  0  0  0  0  0  0  0999 V2000
    8.7914   -1.9134   17.8751 F   0  0  0  0  0  0  0  0  0  0  0  0
    7.7604   -1.2975   18.4740 C   0  0  0  0  0  0  0  0  0  0  0  0
    6.7128   -1.1953   17.7000 N   0  0  0  0  0  0  0  0  0  0  0  0
    5.6529   -0.5899   18.2422 C   0  0  0  0  0  0  0  0  0  0  0  0
    5.6477   -0.1017   19.5262 C   0  0  0  0  0  0  0  0  0  0  0  0
    6.7855   -0.2359   20.3051 C   0  0  0  0  0  0  0  0  0  0  0  0
    7.9190   -0.8635   19.7778 C   0  0  0  0  0  0  0  0  0  0  0  0
    9.1456   -1.0633   20.4722 N   0  0  0  0  0  0  0  0  0  0  0  0
    9.4218   -0.8821   21.8224 C   0  0  0  0  0  0  0  0  0  0  0  0
    8.5857   -0.5019   22.6361 O   0  0  0  0  0  0  0  0  0  0  0  0
   10.7001   -1.1409   22.2789 N   0  0  0  0  0  0  0  0  0  0  0  0
   11.8609   -1.3039   23.0739 C   0  0  0  0  0  0  0  0  0  0  0  0
   12.6832   -2.3972   22.8271 C   0  0  0  0  0  0  0  0  0  0  0  0
   13.8283   -2.5969   23.5790 C   0  0  0  0  0  0  0  0  0  0  0  0
   14.1640   -1.7128   24.5805 C   0  0  0  0  0  0  0  0  0  0  0  0
   13.3558   -0.6259   24.8335 C   0  0  0  0  0  0  0  0  0  0  0  0
   12.2067   -0.4122   24.0898 C   0  0  0  0  0  0  0  0  0  0  0  0
  1  2  1  0
  2  3  2  0
  3  4  1  0
  4  5  2  0
  5  6  1  0
  6  7  2  0
  7  8  1  0
  8  9  1  0
  9 10  2  0
  9 11  1  0
 11 12  1  0
 12 13  2  0
 13 14  1  0
 14 15  2  0
 15 16  1  0
 16 17  2  0
  7  2  1  0
 17 12  1  0
M  END
