CVD-0003962|dock_bobby27042020.86|mol2|15|dock1
     RDKit          3D

 22 23  0  0  0  0  0  0  0  0999 V2000
    3.4559    2.3257   20.5210 C   0  0  0  0  0  0  0  0  0  0  0  0
    4.2423    1.8979   19.3169 C   0  0  0  0  0  0  0  0  0  0  0  0
    4.1180    2.4678   18.2387 O   0  0  0  0  0  0  0  0  0  0  0  0
    5.1101    0.8665   19.4583 N   0  0  0  0  0  0  0  0  0  0  0  0
    5.9412    0.3714   18.3587 C   0  0  0  0  0  0  0  0  0  0  0  0
    7.4036    0.3581   18.7641 C   0  0  0  0  0  0  0  0  0  0  0  0
    7.5920   -0.4744   19.9558 N   0  0  0  0  0  0  0  0  0  0  0  0
    9.0124   -0.5229   20.3292 C   0  0  0  0  0  0  0  0  0  0  0  0
    9.3052   -1.5439   21.4022 C   0  0  0  0  0  0  0  0  0  0  0  0
    8.5136   -2.6720   21.5470 C   0  0  0  0  0  0  0  0  0  0  0  0
    8.7807   -3.6060   22.5323 C   0  0  0  0  0  0  0  0  0  0  0  0
    9.8469   -3.4410   23.4023 C   0  0  0  0  0  0  0  0  0  0  0  0
   10.1360   -4.4588   24.4790 C   0  0  0  0  0  0  0  0  0  0  0  0
    9.2902   -4.2016   25.7253 C   0  0  0  0  0  0  0  0  0  0  0  0
    9.5905   -5.3161   27.0695 S   0  0  0  0  0  0  0  0  0  0  0  0
    9.5767   -6.8196   26.5186 N   0  0  0  0  0  0  0  0  0  0  0  0
   10.9150   -5.0439   27.5503 O   0  0  0  0  0  0  0  0  0  0  0  0
    8.4898   -5.1791   27.9800 O   0  0  0  0  0  0  0  0  0  0  0  0
   10.6363   -2.3110   23.2581 C   0  0  0  0  0  0  0  0  0  0  0  0
   10.3699   -1.3764   22.2732 C   0  0  0  0  0  0  0  0  0  0  0  0
    6.7938    0.0723   21.0501 C   0  0  0  0  0  0  0  0  0  0  0  0
    5.3209    0.0905   20.6844 C   0  0  0  0  0  0  0  0  0  0  0  0
  1  2  1  0
  2  3  2  0
  2  4  1  0
  4  5  1  0
  5  6  1  0
  6  7  1  0
  7  8  1  0
  8  9  1  0
  9 10  2  0
 10 11  1  0
 11 12  2  0
 12 13  1  0
 13 14  1  0
 14 15  1  0
 15 16  1  0
 15 17  2  0
 15 18  2  0
 12 19  1  0
 19 20  2  0
  7 21  1  0
 21 22  1  0
 22  4  1  0
 20  9  1  0
M  END
