CVD-0000867|dock_bobby27042020.69|mol2|1|dock2
     RDKit          3D

 24 25  0  0  0  0  0  0  0  0999 V2000
   13.7455    0.2541   22.7966 C   0  0  0  0  0  0  0  0  0  0  0  0
   12.6478    1.1360   23.3793 C   0  0  0  0  0  0  0  0  0  0  0  0
   12.4967    2.3141   22.5193 N   0  0  0  0  0  0  0  0  0  0  0  0
   13.1502    3.4580   22.7337 C   0  0  0  0  0  0  0  0  0  0  0  0
   13.9324    3.6281   23.6637 O   0  0  0  0  0  0  0  0  0  0  0  0
   12.8586    4.5453   21.7231 C   0  0  0  0  0  0  0  0  0  0  0  0
   14.0743    5.8291   21.7557 Cl  0  0  0  0  0  0  0  0  0  0  0  0
   11.3386    0.3798   23.4993 C   0  0  0  0  0  0  0  0  0  0  0  0
   10.7750    0.1368   24.7433 C   0  0  0  0  0  0  0  0  0  0  0  0
    9.5848   -0.5554   24.8319 C   0  0  0  0  0  0  0  0  0  0  0  0
    8.8872   -0.8524   26.3996 Cl  0  0  0  0  0  0  0  0  0  0  0  0
    8.9354   -1.0174   23.7063 C   0  0  0  0  0  0  0  0  0  0  0  0
    9.4884   -0.7842   22.4545 C   0  0  0  0  0  0  0  0  0  0  0  0
    8.7959   -1.2767   21.2071 C   0  0  0  0  0  0  0  0  0  0  0  0
    7.3911   -0.6720   20.9853 C   0  0  0  0  0  0  0  0  0  0  0  0
    7.3334    0.8176   21.3117 C   0  0  0  0  0  0  0  0  0  0  0  0
    6.7365    1.4658   20.2734 C   0  0  0  0  0  0  0  0  0  0  0  0
    6.3441    0.4639   19.2297 C   0  0  0  0  0  0  0  0  0  0  0  0
    6.9214   -0.7339   19.5404 C   0  0  0  0  0  0  0  0  0  0  0  0
    5.3024    0.8509   17.8375 S   0  0  0  0  0  0  0  0  0  0  0  0
    4.3858    2.0875   18.2078 N   0  0  0  0  0  0  0  0  0  0  0  0
    4.4471   -0.2745   17.6468 O   0  0  0  0  0  0  0  0  0  0  0  0
    6.1713    1.2619   16.7838 O   0  0  0  0  0  0  0  0  0  0  0  0
   10.6859   -0.0862   22.3673 C   0  0  0  0  0  0  0  0  0  0  0  0
  1  2  1  0
  2  3  1  0
  3  4  1  0
  4  5  2  0
  4  6  1  0
  6  7  1  0
  2  8  1  0
  8  9  2  0
  9 10  1  0
 10 11  1  0
 10 12  2  0
 12 13  1  0
 13 14  1  0
 14 15  1  0
 15 16  1  0
 16 17  2  0
 17 18  1  0
 18 19  2  0
 18 20  1  0
 20 21  1  0
 20 22  2  0
 20 23  2  0
 13 24  2  0
 24  8  1  0
 19 15  1  0
M  END
