CVD-0002017|dock_bobby27042020.7|mol2|38|dock3
     RDKit          3D

 34 38  0  0  0  0  0  0  0  0999 V2000
   14.0831   -2.4103   23.3478 C   0  0  0  0  0  0  0  0  0  0  0  0
   13.3081   -1.5189   24.2733 C   0  0  0  0  0  0  0  0  0  0  0  0
   13.8217   -1.0072   25.2632 O   0  0  0  0  0  0  0  0  0  0  0  0
   12.0323   -1.3014   23.9479 N   0  0  0  0  0  0  0  0  0  0  0  0
   11.1547   -0.4457   24.7366 C   0  0  0  0  0  0  0  0  0  0  0  0
   10.1839    0.3515   23.8440 C   0  0  0  0  0  0  0  0  0  0  0  0
    9.6093   -0.4646   22.7572 N   0  0  0  0  0  0  0  0  0  0  0  0
    8.7471    0.3461   21.8816 C   0  0  0  0  0  0  0  0  0  0  0  0
    8.2040   -0.4837   20.7474 C   0  0  0  0  0  0  0  0  0  0  0  0
    7.4767   -1.6489   21.2604 N   0  0  0  0  0  0  0  0  0  0  0  0
    8.2769   -2.4431   22.1906 C   0  0  0  0  0  0  0  0  0  0  0  0
    8.7977   -1.5567   23.2967 C   0  0  0  0  0  0  0  0  0  0  0  0
    6.2638   -2.0789   20.8475 C   0  0  0  0  0  0  0  0  0  0  0  0
    5.7397   -3.0646   21.3507 O   0  0  0  0  0  0  0  0  0  0  0  0
    5.5548   -1.3267   19.7341 C   0  0  0  0  0  0  0  0  0  0  0  0
    5.1005    0.0486   20.1230 C   0  0  0  0  0  0  0  0  0  0  0  0
    4.6883    1.0458   19.2884 C   0  0  0  0  0  0  0  0  0  0  0  0
    4.3482    2.1632   20.0037 N   0  0  0  0  0  0  0  0  0  0  0  0
    4.5370    1.9043   21.3296 C   0  0  0  0  0  0  0  0  0  0  0  0
    4.3203    2.7371   22.3616 N   0  0  0  0  0  0  0  0  0  0  0  0
    4.5816    2.2491   23.5819 C   0  0  0  0  0  0  0  0  0  0  0  0
    5.0472    0.9728   23.8154 C   0  0  0  0  0  0  0  0  0  0  0  0
    5.2654    0.1268   22.7394 C   0  0  0  0  0  0  0  0  0  0  0  0
    5.0090    0.5864   21.4492 C   0  0  0  0  0  0  0  0  0  0  0  0
   10.8970    1.5382   23.2657 C   0  0  0  0  0  0  0  0  0  0  0  0
   12.1433    1.5563   22.7131 C   0  0  0  0  0  0  0  0  0  0  0  0
   12.4591    2.8195   22.2923 N   0  0  0  0  0  0  0  0  0  0  0  0
   11.4065    3.6574   22.5686 C   0  0  0  0  0  0  0  0  0  0  0  0
   11.2374    5.0183   22.3395 C   0  0  0  0  0  0  0  0  0  0  0  0
   10.0534    5.6215   22.7258 C   0  0  0  0  0  0  0  0  0  0  0  0
    9.0862    4.8557   23.3222 C   0  0  0  0  0  0  0  0  0  0  0  0
    7.9271    5.4613   23.6970 F   0  0  0  0  0  0  0  0  0  0  0  0
    9.2152    3.5089   23.5659 C   0  0  0  0  0  0  0  0  0  0  0  0
   10.4020    2.8860   23.1827 C   0  0  0  0  0  0  0  0  0  0  0  0
  1  2  1  0
  2  3  2  0
  2  4  1  0
  4  5  1  0
  5  6  1  0
  6  7  1  0
  7  8  1  0
  8  9  1  0
  9 10  1  0
 10 11  1  0
 11 12  1  0
 10 13  1  0
 13 14  2  0
 13 15  1  0
 15 16  1  0
 16 17  2  0
 17 18  1  0
 18 19  1  0
 19 20  2  0
 20 21  1  0
 21 22  2  0
 22 23  1  0
 23 24  2  0
  6 25  1  0
 25 26  2  0
 26 27  1  0
 27 28  1  0
 28 29  2  0
 29 30  1  0
 30 31  2  0
 31 32  1  0
 31 33  1  0
 33 34  2  0
 12  7  1  0
 24 16  1  0
 34 25  1  0
 24 19  1  0
 34 28  1  0
M  END
