CVD-0000046|dock_bobby27042020.43|mol2|6|dock3
     RDKit          3D

 20 20  0  0  0  0  0  0  0  0999 V2000
   13.6323    5.1973   21.8916 C   0  0  0  0  0  0  0  0  0  0  0  0
   12.6384    4.6320   22.8963 C   0  0  0  0  0  0  0  0  0  0  0  0
   11.4484    5.5666   23.0612 C   0  0  0  0  0  0  0  0  0  0  0  0
   12.1548    3.2763   22.4213 C   0  0  0  0  0  0  0  0  0  0  0  0
   11.0488    3.1587   21.9022 O   0  0  0  0  0  0  0  0  0  0  0  0
   13.0421    2.2849   22.6314 N   0  0  0  0  0  0  0  0  0  0  0  0
   12.9137    0.9237   22.3148 C   0  0  0  0  0  0  0  0  0  0  0  0
   13.9038    0.0364   22.1150 C   0  0  0  0  0  0  0  0  0  0  0  0
   13.5408   -1.6366   21.7179 S   0  0  0  0  0  0  0  0  0  0  0  0
   14.0405   -2.4277   22.8033 O   0  0  0  0  0  0  0  0  0  0  0  0
   14.0164   -1.8472   20.3829 O   0  0  0  0  0  0  0  0  0  0  0  0
   11.9207   -1.7631   21.7105 N   0  0  0  0  0  0  0  0  0  0  0  0
   10.9815   -1.6152   22.7994 C   0  0  0  0  0  0  0  0  0  0  0  0
    9.5825   -1.7398   22.7168 C   0  0  0  0  0  0  0  0  0  0  0  0
    8.7741   -2.0277   21.4783 C   0  0  0  0  0  0  0  0  0  0  0  0
    8.8724   -1.5773   23.9048 C   0  0  0  0  0  0  0  0  0  0  0  0
    9.5293   -1.2937   25.0841 C   0  0  0  0  0  0  0  0  0  0  0  0
   10.8550   -1.1536   25.1832 N   0  0  0  0  0  0  0  0  0  0  0  0
   11.5298   -1.3143   24.0762 C   0  0  0  0  0  0  0  0  0  0  0  0
   12.8565   -1.1718   24.2187 F   0  0  0  0  0  0  0  0  0  0  0  0
  1  2  1  0
  2  3  1  0
  2  4  1  0
  4  5  2  0
  4  6  1  0
  6  7  1  0
  7  8  2  0
  8  9  1  0
  9 10  2  0
  9 11  2  0
  9 12  1  0
 12 13  1  0
 13 14  2  0
 14 15  1  0
 14 16  1  0
 16 17  2  0
 17 18  1  0
 18 19  2  0
 19 20  1  0
 19 13  1  0
M  END
