CVD-0003005|dock_bobby27042020.61|mol2|17|dock2
     RDKit          3D

 19 21  0  0  0  0  0  0  0  0999 V2000
    4.0544    1.4882   20.1331 Cl  0  0  0  0  0  0  0  0  0  0  0  0
    5.5563    0.9460   19.4382 C   0  0  0  0  0  0  0  0  0  0  0  0
    5.6835    0.8219   18.0723 C   0  0  0  0  0  0  0  0  0  0  0  0
    6.8201    0.4119   17.5028 N   0  0  0  0  0  0  0  0  0  0  0  0
    7.8518    0.1119   18.2971 C   0  0  0  0  0  0  0  0  0  0  0  0
    7.7947    0.2061   19.6712 C   0  0  0  0  0  0  0  0  0  0  0  0
    8.9318   -0.1324   20.4372 O   0  0  0  0  0  0  0  0  0  0  0  0
    9.3000    0.5304   21.5666 C   0  0  0  0  0  0  0  0  0  0  0  0
    8.7718    1.5084   22.0447 O   0  0  0  0  0  0  0  0  0  0  0  0
   10.4822   -0.1252   22.1813 C   0  0  0  0  0  0  0  0  0  0  0  0
   11.3118   -1.0958   21.7507 C   0  0  0  0  0  0  0  0  0  0  0  0
   12.2703   -1.3050   22.7932 C   0  0  0  0  0  0  0  0  0  0  0  0
   13.3783   -2.1447   22.9890 C   0  0  0  0  0  0  0  0  0  0  0  0
   14.1070   -2.0757   24.1663 C   0  0  0  0  0  0  0  0  0  0  0  0
   13.7521   -1.1822   25.1580 C   0  0  0  0  0  0  0  0  0  0  0  0
   12.6623   -0.3426   24.9884 C   0  0  0  0  0  0  0  0  0  0  0  0
   11.9395   -0.4193   23.8067 C   0  0  0  0  0  0  0  0  0  0  0  0
   10.8314    0.3221   23.4449 O   0  0  0  0  0  0  0  0  0  0  0  0
    6.6190    0.6417   20.2630 C   0  0  0  0  0  0  0  0  0  0  0  0
  1  2  1  0
  2  3  2  0
  3  4  1  0
  4  5  2  0
  5  6  1  0
  6  7  1  0
  7  8  1  0
  8  9  2  0
  8 10  1  0
 10 11  2  0
 11 12  1  0
 12 13  2  0
 13 14  1  0
 14 15  2  0
 15 16  1  0
 16 17  2  0
 17 18  1  0
  6 19  2  0
 19  2  1  0
 18 10  1  0
 17 12  1  0
M  END
