CVD-0003123|dock_bobby27042020.74|mol2|45|dock1
     RDKit          3D

 17 18  0  0  0  0  0  0  0  0999 V2000
   12.9860    6.1522   24.3806 C   0  0  0  0  0  0  0  0  0  0  0  0
   11.6590    5.7945   23.8810 N   0  0  0  0  0  0  0  0  0  0  0  0
   10.4770    6.2465   24.3445 C   0  0  0  0  0  0  0  0  0  0  0  0
    9.4527    5.7296   23.7039 N   0  0  0  0  0  0  0  0  0  0  0  0
   10.0118    4.8849   22.7766 C   0  0  0  0  0  0  0  0  0  0  0  0
   11.3727    4.9047   22.8707 C   0  0  0  0  0  0  0  0  0  0  0  0
   12.4245    4.1748   22.1087 C   0  0  0  0  0  0  0  0  0  0  0  0
   12.6846    2.8643   22.6641 N   0  0  0  0  0  0  0  0  0  0  0  0
   11.7387    1.9078   22.6285 C   0  0  0  0  0  0  0  0  0  0  0  0
   10.6557    2.1516   22.1102 O   0  0  0  0  0  0  0  0  0  0  0  0
   11.9749    0.6706   23.1622 N   0  0  0  0  0  0  0  0  0  0  0  0
   13.0064    0.3251   24.1331 C   0  0  0  0  0  0  0  0  0  0  0  0
   13.9929   -0.6422   23.5180 C   0  0  0  0  0  0  0  0  0  0  0  0
   13.2937   -1.8906   22.9796 C   0  0  0  0  0  0  0  0  0  0  0  0
   12.1616   -1.4995   22.0364 C   0  0  0  0  0  0  0  0  0  0  0  0
   11.4223   -2.6162   21.5999 F   0  0  0  0  0  0  0  0  0  0  0  0
   11.2236   -0.4878   22.6874 C   0  0  0  0  0  0  0  0  0  0  0  0
  1  2  1  0
  2  3  1  0
  3  4  2  0
  4  5  1  0
  5  6  2  0
  6  7  1  0
  7  8  1  0
  8  9  1  0
  9 10  2  0
  9 11  1  0
 11 12  1  0
 12 13  1  0
 13 14  1  0
 14 15  1  0
 15 16  1  0
 15 17  1  0
  6  2  1  0
 17 11  1  0
M  END
