CVD-0002234|dock_bobby27042020.64|mol2|12|dock3
     RDKit          3D

 43 48  0  0  0  0  0  0  0  0999 V2000
   11.2328   -5.1726   24.4621 F   0  0  0  0  0  0  0  0  0  0  0  0
   10.0428   -5.0819   25.0988 C   0  0  0  0  0  0  0  0  0  0  0  0
    9.8502   -5.9574   26.1413 C   0  0  0  0  0  0  0  0  0  0  0  0
    8.6634   -5.9027   26.8468 C   0  0  0  0  0  0  0  0  0  0  0  0
    7.7016   -4.9854   26.4924 C   0  0  0  0  0  0  0  0  0  0  0  0
    7.9099   -4.1212   25.4305 C   0  0  0  0  0  0  0  0  0  0  0  0
    9.0990   -4.1415   24.6962 C   0  0  0  0  0  0  0  0  0  0  0  0
    9.3174   -3.2150   23.5514 C   0  0  0  0  0  0  0  0  0  0  0  0
   10.3695   -2.3274   23.4026 C   0  0  0  0  0  0  0  0  0  0  0  0
   10.2475   -1.6196   22.1946 C   0  0  0  0  0  0  0  0  0  0  0  0
   11.2137   -0.5791   21.6926 C   0  0  0  0  0  0  0  0  0  0  0  0
   11.0322    0.7031   22.3758 N   0  0  0  0  0  0  0  0  0  0  0  0
   12.2943    1.3167   22.7931 C   0  0  0  0  0  0  0  0  0  0  0  0
   12.0883    2.5848   23.5979 C   0  0  0  0  0  0  0  0  0  0  0  0
   11.0180    3.4660   22.9960 C   0  0  0  0  0  0  0  0  0  0  0  0
   10.6082    3.2630   21.8598 O   0  0  0  0  0  0  0  0  0  0  0  0
   10.5380    4.4747   23.7539 N   0  0  0  0  0  0  0  0  0  0  0  0
   11.0097    4.7717   25.1288 C   0  0  0  0  0  0  0  0  0  0  0  0
   11.2451    6.2345   25.3113 C   0  0  0  0  0  0  0  0  0  0  0  0
   11.7656    6.4917   26.7196 C   0  0  0  0  0  0  0  0  0  0  0  0
   13.0803    6.8836   26.9298 C   0  0  0  0  0  0  0  0  0  0  0  0
   13.5522    7.1199   28.2101 C   0  0  0  0  0  0  0  0  0  0  0  0
   12.7160    6.9681   29.2953 C   0  0  0  0  0  0  0  0  0  0  0  0
   11.4075    6.5805   29.1013 C   0  0  0  0  0  0  0  0  0  0  0  0
   10.9346    6.3439   27.8213 C   0  0  0  0  0  0  0  0  0  0  0  0
    9.9727    6.9935   25.0285 C   0  0  0  0  0  0  0  0  0  0  0  0
    9.6362    8.1588   25.7202 C   0  0  0  0  0  0  0  0  0  0  0  0
    8.4914    8.8776   25.4249 C   0  0  0  0  0  0  0  0  0  0  0  0
    7.6529    8.4416   24.4234 C   0  0  0  0  0  0  0  0  0  0  0  0
    7.9664    7.2900   23.7250 C   0  0  0  0  0  0  0  0  0  0  0  0
    9.1159    6.5631   24.0172 C   0  0  0  0  0  0  0  0  0  0  0  0
    9.4425    5.3022   23.2122 C   0  0  0  0  0  0  0  0  0  0  0  0
    9.0942   -2.0760   21.5773 C   0  0  0  0  0  0  0  0  0  0  0  0
    8.5111   -3.0414   22.3885 N   0  0  0  0  0  0  0  0  0  0  0  0
    7.0643   -3.7533   21.8585 S   0  0  0  0  0  0  0  0  0  0  0  0
    6.1701   -3.7923   22.9740 O   0  0  0  0  0  0  0  0  0  0  0  0
    7.4634   -4.9829   21.2471 O   0  0  0  0  0  0  0  0  0  0  0  0
    6.4119   -2.7271   20.5862 C   0  0  0  0  0  0  0  0  0  0  0  0
    6.1198   -1.3979   20.8397 C   0  0  0  0  0  0  0  0  0  0  0  0
    5.6035   -0.6284   19.8114 C   0  0  0  0  0  0  0  0  0  0  0  0
    5.4009   -1.2146   18.5826 C   0  0  0  0  0  0  0  0  0  0  0  0
    5.6759   -2.4941   18.3249 N   0  0  0  0  0  0  0  0  0  0  0  0
    6.1739   -3.2314   19.3218 C   0  0  0  0  0  0  0  0  0  0  0  0
  1  2  1  0
  2  3  2  0
  3  4  1  0
  4  5  2  0
  5  6  1  0
  6  7  2  0
  7  8  1  0
  8  9  2  0
  9 10  1  0
 10 11  1  0
 11 12  1  0
 12 13  1  0
 13 14  1  0
 14 15  1  0
 15 16  2  0
 15 17  1  0
 17 18  1  0
 18 19  1  0
 19 20  1  0
 20 21  2  0
 21 22  1  0
 22 23  2  0
 23 24  1  0
 24 25  2  0
 19 26  1  0
 26 27  2  0
 27 28  1  0
 28 29  2  0
 29 30  1  0
 30 31  2  0
 31 32  1  0
 10 33  2  0
 33 34  1  0
 34 35  1  0
 35 36  2  0
 35 37  2  0
 35 38  1  0
 38 39  2  0
 39 40  1  0
 40 41  2  0
 41 42  1  0
 42 43  2  0
  7  2  1  0
 34  8  1  0
 43 38  1  0
 32 17  1  0
 25 20  1  0
 31 26  1  0
M  END
