CVD-0000607|dock_bobby27042020.41|mol2|3|dock1
     RDKit          3D

 25 27  0  0  0  0  0  0  0  0999 V2000
   13.5378    5.7907   21.6830 N   0  0  0  0  0  0  0  0  0  0  0  0
   13.4252    4.9058   23.0124 S   0  0  0  0  0  0  0  0  0  0  0  0
   14.5770    4.0556   23.0540 O   0  0  0  0  0  0  0  0  0  0  0  0
   13.1899    5.8057   24.1014 O   0  0  0  0  0  0  0  0  0  0  0  0
   12.0048    3.8635   22.8727 C   0  0  0  0  0  0  0  0  0  0  0  0
   10.7522    4.3656   23.1859 C   0  0  0  0  0  0  0  0  0  0  0  0
    9.6461    3.5393   23.0779 C   0  0  0  0  0  0  0  0  0  0  0  0
    9.7883    2.2255   22.6639 C   0  0  0  0  0  0  0  0  0  0  0  0
   11.0476    1.7405   22.3575 C   0  0  0  0  0  0  0  0  0  0  0  0
   11.1789    0.3997   21.9430 O   0  0  0  0  0  0  0  0  0  0  0  0
   11.4064   -0.7495   22.8137 C   0  0  0  0  0  0  0  0  0  0  0  0
   10.5465   -1.9482   22.3677 C   0  0  0  0  0  0  0  0  0  0  0  0
    9.1068   -1.6837   21.9705 C   0  0  0  0  0  0  0  0  0  0  0  0
    8.1882   -1.6772   22.7813 O   0  0  0  0  0  0  0  0  0  0  0  0
    8.9653   -1.4624   20.6407 N   0  0  0  0  0  0  0  0  0  0  0  0
    7.8232   -1.1829   19.8490 C   0  0  0  0  0  0  0  0  0  0  0  0
    6.6629   -0.7495   20.4774 C   0  0  0  0  0  0  0  0  0  0  0  0
    5.5372   -0.4714   19.7225 C   0  0  0  0  0  0  0  0  0  0  0  0
    5.6026   -0.6343   18.3585 C   0  0  0  0  0  0  0  0  0  0  0  0
    6.7002   -1.0483   17.7253 N   0  0  0  0  0  0  0  0  0  0  0  0
    7.7828   -1.3147   18.4626 C   0  0  0  0  0  0  0  0  0  0  0  0
   11.2467   -0.3824   24.3061 C   0  0  0  0  0  0  0  0  0  0  0  0
   12.7507   -0.4633   24.4927 C   0  0  0  0  0  0  0  0  0  0  0  0
   12.8960   -1.0333   23.0796 C   0  0  0  0  0  0  0  0  0  0  0  0
   12.1673    2.5507   22.4575 C   0  0  0  0  0  0  0  0  0  0  0  0
  1  2  1  0
  2  3  2  0
  2  4  2  0
  2  5  1  0
  5  6  2  0
  6  7  1  0
  7  8  2  0
  8  9  1  0
  9 10  1  0
 10 11  1  0
 11 12  1  0
 12 13  1  0
 13 14  2  0
 13 15  1  0
 15 16  1  0
 16 17  2  0
 17 18  1  0
 18 19  2  0
 19 20  1  0
 20 21  2  0
 11 22  1  0
 22 23  1  0
 23 24  1  0
  9 25  2  0
 25  5  1  0
 24 11  1  0
 21 16  1  0
M  END
