CVD-0003860|dock_bobby27042020.72|mol2|29|dock3
     RDKit          3D

 15 16  0  0  0  0  0  0  0  0999 V2000
   10.8127   -1.9487   21.6468 N   0  0  0  0  0  0  0  0  0  0  0  0
   12.0051   -1.6750   22.6795 S   0  0  0  0  0  0  0  0  0  0  0  0
   11.5159   -1.9975   23.9864 O   0  0  0  0  0  0  0  0  0  0  0  0
   13.1601   -2.3619   22.1843 O   0  0  0  0  0  0  0  0  0  0  0  0
   12.3724    0.0535   22.6652 C   0  0  0  0  0  0  0  0  0  0  0  0
   11.3464    0.9751   22.7933 C   0  0  0  0  0  0  0  0  0  0  0  0
   11.6401    2.3270   22.7764 C   0  0  0  0  0  0  0  0  0  0  0  0
   12.9489    2.7734   22.6314 C   0  0  0  0  0  0  0  0  0  0  0  0
   13.9632    1.8312   22.5024 C   0  0  0  0  0  0  0  0  0  0  0  0
   13.6831    0.4764   22.5177 C   0  0  0  0  0  0  0  0  0  0  0  0
   13.2560    4.2214   22.6149 C   0  0  0  0  0  0  0  0  0  0  0  0
   12.7394    5.1676   23.5390 C   0  0  0  0  0  0  0  0  0  0  0  0
   13.1615    6.4460   23.3274 C   0  0  0  0  0  0  0  0  0  0  0  0
   14.2019    6.4999   21.9853 S   0  0  0  0  0  0  0  0  0  0  0  0
   14.0805    4.8283   21.7008 C   0  0  0  0  0  0  0  0  0  0  0  0
  1  2  1  0
  2  3  2  0
  2  4  2  0
  2  5  1  0
  5  6  2  0
  6  7  1  0
  7  8  2  0
  8  9  1  0
  9 10  2  0
  8 11  1  0
 11 12  1  0
 12 13  2  0
 13 14  1  0
 14 15  1  0
 10  5  1  0
 15 11  2  0
M  END
