CVD-0002360|dock_bobby27042020.49|mol2|10|dock2
     RDKit          3D

 38 42  0  0  0  0  0  0  0  0999 V2000
   11.0691    5.9415   23.3593 C   0  0  0  0  0  0  0  0  0  0  0  0
   12.5116    5.7823   23.1571 N   0  0  0  0  0  0  0  0  0  0  0  0
   12.8747    4.9342   22.0168 C   0  0  0  0  0  0  0  0  0  0  0  0
   12.4331    3.5087   22.2198 C   0  0  0  0  0  0  0  0  0  0  0  0
   13.2673    2.4504   22.6252 C   0  0  0  0  0  0  0  0  0  0  0  0
   12.5298    1.2866   22.7306 C   0  0  0  0  0  0  0  0  0  0  0  0
   13.0411   -0.0442   23.1379 C   0  0  0  0  0  0  0  0  0  0  0  0
   13.4698   -0.1768   24.4598 C   0  0  0  0  0  0  0  0  0  0  0  0
   14.0212   -1.3625   24.9152 C   0  0  0  0  0  0  0  0  0  0  0  0
   14.1522   -2.4399   24.0680 C   0  0  0  0  0  0  0  0  0  0  0  0
   13.6988   -2.3530   22.7639 C   0  0  0  0  0  0  0  0  0  0  0  0
   13.1265   -1.1775   22.3384 C   0  0  0  0  0  0  0  0  0  0  0  0
   12.6189   -1.1739   21.0860 F   0  0  0  0  0  0  0  0  0  0  0  0
   11.2032    1.6287   22.3585 N   0  0  0  0  0  0  0  0  0  0  0  0
   11.1572    2.9854   22.0625 C   0  0  0  0  0  0  0  0  0  0  0  0
    9.8033    0.6813   22.2359 S   0  0  0  0  0  0  0  0  0  0  0  0
   10.2445   -0.6716   22.0952 O   0  0  0  0  0  0  0  0  0  0  0  0
    8.9549    1.2763   21.2505 O   0  0  0  0  0  0  0  0  0  0  0  0
    9.0000    0.8311   23.8170 C   0  0  0  0  0  0  0  0  0  0  0  0
    8.8522    2.1155   24.3226 C   0  0  0  0  0  0  0  0  0  0  0  0
    8.3240    2.3929   25.5160 N   0  0  0  0  0  0  0  0  0  0  0  0
    7.9341    1.3552   26.2538 C   0  0  0  0  0  0  0  0  0  0  0  0
    8.0046    0.0404   25.8385 C   0  0  0  0  0  0  0  0  0  0  0  0
    8.5199   -0.2500   24.5766 C   0  0  0  0  0  0  0  0  0  0  0  0
    8.5440   -1.5989   24.0891 N   0  0  0  0  0  0  0  0  0  0  0  0
    9.5254   -2.5799   24.6113 C   0  0  0  0  0  0  0  0  0  0  0  0
    8.9135   -3.6563   25.2543 C   0  0  0  0  0  0  0  0  0  0  0  0
    7.5900   -4.1162   24.9020 C   0  0  0  0  0  0  0  0  0  0  0  0
    7.0308   -3.4393   23.6856 C   0  0  0  0  0  0  0  0  0  0  0  0
    6.0697   -4.0622   22.8955 C   0  0  0  0  0  0  0  0  0  0  0  0
    5.5964   -3.4781   21.7373 C   0  0  0  0  0  0  0  0  0  0  0  0
    6.0966   -2.2433   21.3627 C   0  0  0  0  0  0  0  0  0  0  0  0
    7.0554   -1.5948   22.1277 C   0  0  0  0  0  0  0  0  0  0  0  0
    7.5236   -2.1962   23.2940 C   0  0  0  0  0  0  0  0  0  0  0  0
    5.4834   -1.4591   19.9029 S   0  0  0  0  0  0  0  0  0  0  0  0
    6.7206   -0.8228   19.1108 N   0  0  0  0  0  0  0  0  0  0  0  0
    4.9278   -2.4823   19.0689 O   0  0  0  0  0  0  0  0  0  0  0  0
    4.6449   -0.3754   20.3196 O   0  0  0  0  0  0  0  0  0  0  0  0
  1  2  1  0
  2  3  1  0
  3  4  1  0
  4  5  1  0
  5  6  2  0
  6  7  1  0
  7  8  2  0
  8  9  1  0
  9 10  2  0
 10 11  1  0
 11 12  2  0
 12 13  1  0
  6 14  1  0
 14 15  1  0
 14 16  1  0
 16 17  2  0
 16 18  2  0
 16 19  1  0
 19 20  2  0
 20 21  1  0
 21 22  2  0
 22 23  1  0
 23 24  2  0
 24 25  1  0
 25 26  1  0
 26 27  1  0
 27 28  1  0
 28 29  1  0
 29 30  2  0
 30 31  1  0
 31 32  2  0
 32 33  1  0
 33 34  2  0
 32 35  1  0
 35 36  1  0
 35 37  2  0
 35 38  2  0
 15  4  2  0
 24 19  1  0
 34 25  1  0
 12  7  1  0
 34 29  1  0
M  END
