CVD-0002080|dock_bobby27042020.93|mol2|7|dock1
     RDKit          3D

 29 31  0  0  0  0  0  0  0  0999 V2000
    6.4722   -4.6876   21.4349 O   0  0  0  0  0  0  0  0  0  0  0  0
    7.0590   -3.7863   22.1780 C   0  0  0  0  0  0  0  0  0  0  0  0
    7.2451   -3.9676   23.3691 O   0  0  0  0  0  0  0  0  0  0  0  0
    7.4732   -2.5401   21.4550 C   0  0  0  0  0  0  0  0  0  0  0  0
    6.5319   -1.9156   20.6314 C   0  0  0  0  0  0  0  0  0  0  0  0
    6.8304   -0.7586   19.9267 C   0  0  0  0  0  0  0  0  0  0  0  0
    5.7910   -0.1123   19.0434 C   0  0  0  0  0  0  0  0  0  0  0  0
    4.7073    0.6639   19.8019 C   0  0  0  0  0  0  0  0  0  0  0  0
    5.2546    1.2355   21.1259 C   0  0  0  0  0  0  0  0  0  0  0  0
    4.2187    2.0756   21.8705 C   0  0  0  0  0  0  0  0  0  0  0  0
    3.6554    3.1772   20.9819 C   0  0  0  0  0  0  0  0  0  0  0  0
    3.0879    2.6049   19.6909 C   0  0  0  0  0  0  0  0  0  0  0  0
    4.1400    1.8005   18.9344 C   0  0  0  0  0  0  0  0  0  0  0  0
    8.0974   -0.2160   20.0464 C   0  0  0  0  0  0  0  0  0  0  0  0
    9.0564   -0.8031   20.8506 C   0  0  0  0  0  0  0  0  0  0  0  0
    8.7613   -1.9659   21.5623 C   0  0  0  0  0  0  0  0  0  0  0  0
    9.7542   -2.5685   22.3914 N   0  0  0  0  0  0  0  0  0  0  0  0
   11.2633   -1.9909   22.5850 S   0  0  0  0  0  0  0  0  0  0  0  0
   11.7970   -1.7743   21.2781 O   0  0  0  0  0  0  0  0  0  0  0  0
   11.9268   -2.8589   23.5050 O   0  0  0  0  0  0  0  0  0  0  0  0
   11.1741   -0.5463   23.2941 N   0  0  0  0  0  0  0  0  0  0  0  0
   12.4009    0.0600   23.8250 C   0  0  0  0  0  0  0  0  0  0  0  0
   13.2143    0.6888   22.7080 C   0  0  0  0  0  0  0  0  0  0  0  0
   12.9968    2.1784   22.5943 C   0  0  0  0  0  0  0  0  0  0  0  0
   14.0605    3.0345   22.3536 C   0  0  0  0  0  0  0  0  0  0  0  0
   13.8611    4.4008   22.2464 C   0  0  0  0  0  0  0  0  0  0  0  0
   12.5945    4.9279   22.3778 C   0  0  0  0  0  0  0  0  0  0  0  0
   11.5278    4.0884   22.6159 C   0  0  0  0  0  0  0  0  0  0  0  0
   11.7282    2.7223   22.7230 C   0  0  0  0  0  0  0  0  0  0  0  0
  1  2  1  0
  2  3  2  0
  2  4  1  0
  4  5  2  0
  5  6  1  0
  6  7  1  0
  7  8  1  0
  8  9  1  0
  9 10  1  0
 10 11  1  0
 11 12  1  0
 12 13  1  0
  6 14  2  0
 14 15  1  0
 15 16  2  0
 16 17  1  0
 17 18  1  0
 18 19  2  0
 18 20  2  0
 18 21  1  0
 21 22  1  0
 22 23  1  0
 23 24  1  0
 24 25  2  0
 25 26  1  0
 26 27  2  0
 27 28  1  0
 28 29  2  0
 16  4  1  0
 29 24  1  0
 13  8  1  0
M  END
