CVD-0003175|dock_bobby27042020.17|mol2|17|dock3
     RDKit          3D

 39 43  0  0  0  0  0  0  0  0999 V2000
    5.3676   -0.1119   19.9529 C   0  0  0  0  0  0  0  0  0  0  0  0
    6.6574   -0.8244   19.5557 C   0  0  0  0  0  0  0  0  0  0  0  0
    6.8233   -0.7160   18.0427 C   0  0  0  0  0  0  0  0  0  0  0  0
    7.7630   -0.0485   20.0638 O   0  0  0  0  0  0  0  0  0  0  0  0
    6.6830   -2.2891   20.0650 C   0  0  0  0  0  0  0  0  0  0  0  0
    6.0690   -3.2699   19.2821 C   0  0  0  0  0  0  0  0  0  0  0  0
    6.0866   -4.6047   19.6480 C   0  0  0  0  0  0  0  0  0  0  0  0
    6.6998   -4.9968   20.8122 C   0  0  0  0  0  0  0  0  0  0  0  0
    7.2880   -4.0422   21.6162 C   0  0  0  0  0  0  0  0  0  0  0  0
    7.2868   -2.6922   21.2744 C   0  0  0  0  0  0  0  0  0  0  0  0
    7.9558   -1.7973   22.2954 C   0  0  0  0  0  0  0  0  0  0  0  0
    9.4703   -1.7452   22.1001 C   0  0  0  0  0  0  0  0  0  0  0  0
   10.2054   -1.4996   23.4264 C   0  0  0  0  0  0  0  0  0  0  0  0
   11.9812   -1.1059   23.1249 S   0  0  0  0  0  0  0  0  0  0  0  0
   12.1635    0.7195   23.1856 C   0  0  0  0  0  0  0  0  0  0  0  0
   11.2999    1.4878   22.1589 C   0  0  0  0  0  0  0  0  0  0  0  0
   11.5647    2.9638   22.0428 C   0  0  0  0  0  0  0  0  0  0  0  0
   12.3620    3.2821   21.0520 O   0  0  0  0  0  0  0  0  0  0  0  0
   11.0846    3.7838   22.7941 O   0  0  0  0  0  0  0  0  0  0  0  0
   13.5344    1.2900   23.5367 C   0  0  0  0  0  0  0  0  0  0  0  0
   12.4250    1.3692   24.5404 C   0  0  0  0  0  0  0  0  0  0  0  0
   10.0682   -2.6629   24.3876 C   0  0  0  0  0  0  0  0  0  0  0  0
   10.9546   -3.7322   24.3972 C   0  0  0  0  0  0  0  0  0  0  0  0
   10.7806   -4.7766   25.2883 C   0  0  0  0  0  0  0  0  0  0  0  0
    9.7228   -4.7639   26.1815 C   0  0  0  0  0  0  0  0  0  0  0  0
    8.8257   -3.7025   26.1910 C   0  0  0  0  0  0  0  0  0  0  0  0
    7.7621   -3.7390   27.1268 N   0  0  0  0  0  0  0  0  0  0  0  0
    7.1098   -4.8002   27.6690 C   0  0  0  0  0  0  0  0  0  0  0  0
    7.2989   -5.9802   27.4661 O   0  0  0  0  0  0  0  0  0  0  0  0
    6.1691   -4.3214   28.5086 O   0  0  0  0  0  0  0  0  0  0  0  0
    5.2477   -5.2698   29.1202 C   0  0  0  0  0  0  0  0  0  0  0  0
    6.0426   -5.9295   30.2433 C   0  0  0  0  0  0  0  0  0  0  0  0
    5.8445   -5.0546   31.3686 O   0  0  0  0  0  0  0  0  0  0  0  0
    4.4929   -4.6047   31.3255 C   0  0  0  0  0  0  0  0  0  0  0  0
    4.4030   -3.2923   31.8281 O   0  0  0  0  0  0  0  0  0  0  0  0
    4.6259   -2.4210   30.7329 C   0  0  0  0  0  0  0  0  0  0  0  0
    3.8994   -3.0748   29.5744 C   0  0  0  0  0  0  0  0  0  0  0  0
    4.0968   -4.5768   29.8389 C   0  0  0  0  0  0  0  0  0  0  0  0
    9.0120   -2.6588   25.2867 C   0  0  0  0  0  0  0  0  0  0  0  0
  1  2  1  0
  2  3  1  0
  2  4  1  0
  2  5  1  0
  5  6  2  0
  6  7  1  0
  7  8  2  0
  8  9  1  0
  9 10  2  0
 10 11  1  0
 11 12  1  0
 13 12  1  0
 13 14  1  0
 14 15  1  0
 15 16  1  0
 16 17  1  0
 17 18  1  0
 17 19  2  0
 15 20  1  0
 20 21  1  0
 13 22  1  0
 22 23  2  0
 23 24  1  0
 24 25  2  0
 25 26  1  0
 26 27  1  0
 27 28  1  0
 28 29  2  0
 28 30  1  0
 30 31  1  0
 31 32  1  0
 32 33  1  0
 34 33  1  0
 34 35  1  0
 35 36  1  0
 36 37  1  0
 38 37  1  0
 26 39  2  0
 10  5  1  0
 21 15  1  0
 39 22  1  0
 38 31  1  0
 38 34  1  0
M  END
