CVD-0000402|dock_bobby27042020.84|mol2|24|dock3
     RDKit          3D

 23 25  0  0  0  0  0  0  0  0999 V2000
   14.3158    6.0895   21.7218 C   0  0  0  0  0  0  0  0  0  0  0  0
   13.0492    5.4366   22.1793 C   0  0  0  0  0  0  0  0  0  0  0  0
   13.2187    3.9984   22.3527 N   0  0  0  0  0  0  0  0  0  0  0  0
   12.2366    3.1034   22.5016 C   0  0  0  0  0  0  0  0  0  0  0  0
   10.8932    3.2864   22.5292 C   0  0  0  0  0  0  0  0  0  0  0  0
   10.2896    2.0641   22.7048 N   0  0  0  0  0  0  0  0  0  0  0  0
   11.2393    1.0746   22.7928 C   0  0  0  0  0  0  0  0  0  0  0  0
   11.1118   -0.2979   22.9708 C   0  0  0  0  0  0  0  0  0  0  0  0
    9.8246   -0.8222   23.1001 O   0  0  0  0  0  0  0  0  0  0  0  0
    8.9840   -0.8265   22.0244 C   0  0  0  0  0  0  0  0  0  0  0  0
    7.7215   -0.2963   22.2254 C   0  0  0  0  0  0  0  0  0  0  0  0
    6.8236   -0.2784   21.1619 C   0  0  0  0  0  0  0  0  0  0  0  0
    5.4436    0.2952   21.3470 C   0  0  0  0  0  0  0  0  0  0  0  0
    7.2708   -0.8007   19.9593 C   0  0  0  0  0  0  0  0  0  0  0  0
    6.1390   -0.8275   18.4391 Br  0  0  0  0  0  0  0  0  0  0  0  0
    8.5511   -1.3103   19.8522 C   0  0  0  0  0  0  0  0  0  0  0  0
    9.4083   -1.3263   20.8784 N   0  0  0  0  0  0  0  0  0  0  0  0
   12.2652   -1.0718   23.0054 C   0  0  0  0  0  0  0  0  0  0  0  0
   12.1683   -2.7848   23.1836 Cl  0  0  0  0  0  0  0  0  0  0  0  0
   13.5042   -0.4619   22.8908 C   0  0  0  0  0  0  0  0  0  0  0  0
   14.6142   -1.2332   22.9430 F   0  0  0  0  0  0  0  0  0  0  0  0
   13.6503    0.8924   22.7250 C   0  0  0  0  0  0  0  0  0  0  0  0
   12.4995    1.6745   22.6702 C   0  0  0  0  0  0  0  0  0  0  0  0
  1  2  1  0
  2  3  1  0
  3  4  1  0
  4  5  2  0
  5  6  1  0
  6  7  1  0
  7  8  2  0
  8  9  1  0
  9 10  1  0
 10 11  2  0
 11 12  1  0
 12 13  1  0
 12 14  2  0
 14 15  1  0
 14 16  1  0
 16 17  2  0
  8 18  1  0
 18 19  1  0
 18 20  2  0
 20 21  1  0
 20 22  1  0
 22 23  2  0
 23  4  1  0
 23  7  1  0
 17 10  1  0
M  END
