CVD-0003139|dock_bobby27042020.32|mol2|1|dock3
     RDKit          3D

 18 19  0  0  0  0  0  0  0  0999 V2000
    8.7591    0.8592   22.0081 C   0  0  0  0  0  0  0  0  0  0  0  0
    8.4159   -0.3008   21.0829 C   0  0  0  0  0  0  0  0  0  0  0  0
    6.9697   -0.5629   21.0088 N   0  0  0  0  0  0  0  0  0  0  0  0
    6.4985   -1.3006   19.8137 C   0  0  0  0  0  0  0  0  0  0  0  0
    5.5406   -0.1581   19.4853 C   0  0  0  0  0  0  0  0  0  0  0  0
    5.6479    0.5789   18.1545 C   0  0  0  0  0  0  0  0  0  0  0  0
    6.0461    0.5609   20.7276 C   0  0  0  0  0  0  0  0  0  0  0  0
    9.1339   -1.5702   21.5451 C   0  0  0  0  0  0  0  0  0  0  0  0
   10.1750   -1.9252   21.0004 O   0  0  0  0  0  0  0  0  0  0  0  0
    8.4972   -2.1941   22.5683 N   0  0  0  0  0  0  0  0  0  0  0  0
    8.8222   -3.3822   23.2818 C   0  0  0  0  0  0  0  0  0  0  0  0
   10.1361   -3.7156   23.6224 C   0  0  0  0  0  0  0  0  0  0  0  0
   10.4110   -4.8805   24.3165 C   0  0  0  0  0  0  0  0  0  0  0  0
    9.3861   -5.7333   24.6830 C   0  0  0  0  0  0  0  0  0  0  0  0
    9.6589   -6.8818   25.3672 O   0  0  0  0  0  0  0  0  0  0  0  0
    8.0801   -5.4158   24.3522 C   0  0  0  0  0  0  0  0  0  0  0  0
    7.7769   -4.2496   23.6555 C   0  0  0  0  0  0  0  0  0  0  0  0
    6.3276   -3.9869   23.3353 C   0  0  0  0  0  0  0  0  0  0  0  0
  2  1  1  0
  2  3  1  0
  3  4  1  0
  4  5  1  0
  5  6  1  0
  5  7  1  0
  2  8  1  0
  8  9  2  0
  8 10  1  0
 10 11  1  0
 11 12  2  0
 12 13  1  0
 13 14  2  0
 14 15  1  0
 14 16  1  0
 16 17  2  0
 17 18  1  0
  7  3  1  0
 17 11  1  0
M  END
