CVD-0002826|dock_bobby27042020.4|mol2|21|dock1
     RDKit          3D

 30 34  0  0  0  0  0  0  0  0999 V2000
   13.1436   -2.0166   23.8221 Cl  0  0  0  0  0  0  0  0  0  0  0  0
   13.1290   -1.7353   22.0763 C   0  0  0  0  0  0  0  0  0  0  0  0
   11.7807   -1.2016   21.6303 C   0  0  0  0  0  0  0  0  0  0  0  0
   11.2026   -1.7904   20.7260 O   0  0  0  0  0  0  0  0  0  0  0  0
   11.2781   -0.1006   22.2630 N   0  0  0  0  0  0  0  0  0  0  0  0
   12.0526    0.6852   23.2432 C   0  0  0  0  0  0  0  0  0  0  0  0
   11.8307    2.1577   23.0268 C   0  0  0  0  0  0  0  0  0  0  0  0
   12.8804    3.0723   23.0487 C   0  0  0  0  0  0  0  0  0  0  0  0
   12.6629    4.4117   22.7731 C   0  0  0  0  0  0  0  0  0  0  0  0
   11.3933    4.8511   22.4729 C   0  0  0  0  0  0  0  0  0  0  0  0
   10.3372    3.9529   22.4469 C   0  0  0  0  0  0  0  0  0  0  0  0
   10.5402    2.6012   22.7222 C   0  0  0  0  0  0  0  0  0  0  0  0
    9.4550    1.5582   22.7018 C   0  0  0  0  0  0  0  0  0  0  0  0
    9.9168    0.3411   21.9224 C   0  0  0  0  0  0  0  0  0  0  0  0
    8.8082   -0.7168   21.9748 C   0  0  0  0  0  0  0  0  0  0  0  0
    7.9791   -0.7797   20.7215 C   0  0  0  0  0  0  0  0  0  0  0  0
    8.2438   -1.4866   19.5762 C   0  0  0  0  0  0  0  0  0  0  0  0
    7.2724   -1.3169   18.6168 N   0  0  0  0  0  0  0  0  0  0  0  0
    6.3587   -0.4941   19.1230 C   0  0  0  0  0  0  0  0  0  0  0  0
    5.1967   -0.0072   18.5778 N   0  0  0  0  0  0  0  0  0  0  0  0
    4.4001    0.8357   19.2845 C   0  0  0  0  0  0  0  0  0  0  0  0
    4.7328    1.2175   20.5472 C   0  0  0  0  0  0  0  0  0  0  0  0
    5.9168    0.7429   21.1492 C   0  0  0  0  0  0  0  0  0  0  0  0
    6.7471   -0.1125   20.4619 C   0  0  0  0  0  0  0  0  0  0  0  0
    9.1213    1.1415   24.1320 C   0  0  0  0  0  0  0  0  0  0  0  0
    9.5090   -0.0989   24.6193 C   0  0  0  0  0  0  0  0  0  0  0  0
    9.2087   -0.4754   25.9179 C   0  0  0  0  0  0  0  0  0  0  0  0
    8.5180    0.3835   26.7456 C   0  0  0  0  0  0  0  0  0  0  0  0
    8.1277    1.6192   26.2758 C   0  0  0  0  0  0  0  0  0  0  0  0
    8.4277    1.9963   24.9774 C   0  0  0  0  0  0  0  0  0  0  0  0
  1  2  1  0
  2  3  1  0
  3  4  2  0
  3  5  1  0
  5  6  1  0
  6  7  1  0
  7  8  2  0
  8  9  1  0
  9 10  2  0
 10 11  1  0
 11 12  2  0
 12 13  1  0
 13 14  1  0
 14 15  1  0
 15 16  1  0
 16 17  2  0
 17 18  1  0
 18 19  2  0
 19 20  1  0
 20 21  1  0
 21 22  2  0
 22 23  1  0
 23 24  2  0
 13 25  1  0
 25 26  2  0
 26 27  1  0
 27 28  2  0
 28 29  1  0
 29 30  2  0
 14  5  1  0
 24 16  1  0
 30 25  1  0
 12  7  1  0
 19 24  1  0
M  END
