CVD-0000923|dock_bobby27042020.68|mol2|40|dock1
     RDKit          3D

 41 44  0  0  0  0  0  0  0  0999 V2000
    9.8098   -5.3826   27.3806 C   0  0  0  0  0  0  0  0  0  0  0  0
    9.6060   -5.5903   25.8971 C   0  0  0  0  0  0  0  0  0  0  0  0
    9.9420   -6.8703   25.5357 N   0  0  0  0  0  0  0  0  0  0  0  0
    8.2247   -5.3322   25.5450 N   0  0  0  0  0  0  0  0  0  0  0  0
    7.9184   -5.1997   24.1161 C   0  0  0  0  0  0  0  0  0  0  0  0
    6.3977   -5.2062   23.9089 C   0  0  0  0  0  0  0  0  0  0  0  0
    5.8476   -6.5925   23.6494 C   0  0  0  0  0  0  0  0  0  0  0  0
    6.0960   -7.1099   22.4566 N   0  0  0  0  0  0  0  0  0  0  0  0
    5.2042   -7.1916   24.5159 O   0  0  0  0  0  0  0  0  0  0  0  0
    8.5366   -3.9048   23.5932 C   0  0  0  0  0  0  0  0  0  0  0  0
    9.4325   -3.9256   22.7532 O   0  0  0  0  0  0  0  0  0  0  0  0
    8.0472   -2.7686   24.0975 N   0  0  0  0  0  0  0  0  0  0  0  0
    8.5423   -1.4592   23.6902 C   0  0  0  0  0  0  0  0  0  0  0  0
    9.7423   -1.0481   24.5508 C   0  0  0  0  0  0  0  0  0  0  0  0
   11.0710   -1.5858   24.0731 C   0  0  0  0  0  0  0  0  0  0  0  0
   11.3135   -0.9590   22.7161 C   0  0  0  0  0  0  0  0  0  0  0  0
   10.2834   -1.3406   21.6433 C   0  0  0  0  0  0  0  0  0  0  0  0
    8.8612   -1.2982   22.2111 N   0  0  0  0  0  0  0  0  0  0  0  0
    7.7457   -1.1883   21.4438 C   0  0  0  0  0  0  0  0  0  0  0  0
    6.6424   -1.2454   21.9722 O   0  0  0  0  0  0  0  0  0  0  0  0
    7.8313   -0.9912   19.9421 C   0  0  0  0  0  0  0  0  0  0  0  0
    6.2533   -1.2427   19.1846 Cl  0  0  0  0  0  0  0  0  0  0  0  0
   11.3456    0.5390   22.7977 C   0  0  0  0  0  0  0  0  0  0  0  0
   10.2735    1.2668   22.8097 N   0  0  0  0  0  0  0  0  0  0  0  0
   10.5865    2.6219   22.8854 C   0  0  0  0  0  0  0  0  0  0  0  0
    9.7028    3.7010   22.9203 C   0  0  0  0  0  0  0  0  0  0  0  0
   10.1618    5.0183   23.0024 C   0  0  0  0  0  0  0  0  0  0  0  0
   11.5363    5.2395   23.0458 C   0  0  0  0  0  0  0  0  0  0  0  0
   12.4363    4.1906   23.0072 C   0  0  0  0  0  0  0  0  0  0  0  0
   11.9594    2.8864   22.9286 C   0  0  0  0  0  0  0  0  0  0  0  0
   12.8643    1.4027   22.8700 S   0  0  0  0  0  0  0  0  0  0  0  0
    9.2021    6.1552   23.0422 C   0  0  0  0  0  0  0  0  0  0  0  0
    9.3176    7.1621   23.9974 C   0  0  0  0  0  0  0  0  0  0  0  0
    8.4299    8.2223   24.0440 C   0  0  0  0  0  0  0  0  0  0  0  0
    7.4041    8.2930   23.1174 C   0  0  0  0  0  0  0  0  0  0  0  0
    7.2634    7.3075   22.1556 C   0  0  0  0  0  0  0  0  0  0  0  0
    8.1567    6.2514   22.1269 C   0  0  0  0  0  0  0  0  0  0  0  0
    6.2630    9.6414   23.1690 S   0  0  0  0  0  0  0  0  0  0  0  0
    6.9999   10.9049   23.8198 N   0  0  0  0  0  0  0  0  0  0  0  0
    5.9470    9.9863   21.8153 O   0  0  0  0  0  0  0  0  0  0  0  0
    5.2004    9.2687   24.0540 O   0  0  0  0  0  0  0  0  0  0  0  0
  1  2  1  0
  2  3  1  0
  2  4  1  0
  4  5  1  0
  5  6  1  0
  6  7  1  0
  7  8  1  0
  7  9  2  0
  5 10  1  0
 10 11  2  0
 10 12  1  0
 12 13  1  0
 13 14  1  0
 14 15  1  0
 15 16  1  0
 16 17  1  0
 17 18  1  0
 18 19  1  0
 19 20  2  0
 19 21  1  0
 21 22  1  0
 16 23  1  0
 23 24  2  0
 24 25  1  0
 25 26  2  0
 26 27  1  0
 27 28  2  0
 28 29  1  0
 29 30  2  0
 30 31  1  0
 27 32  1  0
 32 33  2  0
 33 34  1  0
 34 35  2  0
 35 36  1  0
 36 37  2  0
 35 38  1  0
 38 39  1  0
 38 40  2  0
 38 41  2  0
 18 13  1  0
 31 23  1  0
 37 32  1  0
 30 25  1  0
M  END
