CVD-0003617|dock_bobby27042020.44|mol2|42|dock3
     RDKit          3D

 19 20  0  0  0  0  0  0  0  0999 V2000
    9.7470   -2.9300   23.6486 C   0  0  0  0  0  0  0  0  0  0  0  0
   10.0621   -2.2304   22.3285 C   0  0  0  0  0  0  0  0  0  0  0  0
    8.8742   -1.3765   21.8957 C   0  0  0  0  0  0  0  0  0  0  0  0
    8.0500   -1.0016   22.7243 O   0  0  0  0  0  0  0  0  0  0  0  0
    8.8472   -1.1066   20.5659 N   0  0  0  0  0  0  0  0  0  0  0  0
    7.9168   -0.3574   19.7920 C   0  0  0  0  0  0  0  0  0  0  0  0
    7.4948   -0.7453   18.5205 C   0  0  0  0  0  0  0  0  0  0  0  0
    6.6227   -0.0560   17.7818 N   0  0  0  0  0  0  0  0  0  0  0  0
    6.1001    1.0481   18.3105 C   0  0  0  0  0  0  0  0  0  0  0  0
    6.4348    1.5333   19.5691 C   0  0  0  0  0  0  0  0  0  0  0  0
    5.8243    2.6788   20.0300 N   0  0  0  0  0  0  0  0  0  0  0  0
    7.3874    0.8336   20.3278 C   0  0  0  0  0  0  0  0  0  0  0  0
    7.8131    1.3822   21.6722 C   0  0  0  0  0  0  0  0  0  0  0  0
   11.2923   -1.3354   22.4087 C   0  0  0  0  0  0  0  0  0  0  0  0
   12.4451   -1.6295   21.6924 C   0  0  0  0  0  0  0  0  0  0  0  0
   13.5554   -0.8051   21.7678 C   0  0  0  0  0  0  0  0  0  0  0  0
   13.5290    0.3225   22.5599 C   0  0  0  0  0  0  0  0  0  0  0  0
   12.3920    0.6271   23.2770 C   0  0  0  0  0  0  0  0  0  0  0  0
   11.2808   -0.1962   23.2016 C   0  0  0  0  0  0  0  0  0  0  0  0
  1  2  1  0
  2  3  1  0
  3  4  2  0
  3  5  1  0
  5  6  1  0
  6  7  2  0
  7  8  1  0
  8  9  2  0
  9 10  1  0
 10 11  1  0
 10 12  2  0
 12 13  1  0
  2 14  1  0
 14 15  2  0
 15 16  1  0
 16 17  2  0
 17 18  1  0
 18 19  2  0
 12  6  1  0
 19 14  1  0
M  END
