CVD-0003693|dock_bobby27042020.15|mol2|43|dock2
     RDKit          3D

 20 21  0  0  0  0  0  0  0  0999 V2000
   12.5960    0.0655   24.9288 O   0  0  0  0  0  0  0  0  0  0  0  0
   12.1585   -1.0951   24.2201 C   0  0  0  0  0  0  0  0  0  0  0  0
   13.2475   -2.1486   24.2986 C   0  0  0  0  0  0  0  0  0  0  0  0
   14.2175   -1.9905   25.7907 Cl  0  0  0  0  0  0  0  0  0  0  0  0
   11.8182   -0.7206   22.7729 C   0  0  0  0  0  0  0  0  0  0  0  0
   10.8003    0.3949   22.7239 C   0  0  0  0  0  0  0  0  0  0  0  0
    9.5080   -0.0862   23.1036 O   0  0  0  0  0  0  0  0  0  0  0  0
    9.0240   -1.2153   22.3551 C   0  0  0  0  0  0  0  0  0  0  0  0
    8.7710   -0.8934   20.9894 N   0  0  0  0  0  0  0  0  0  0  0  0
    7.6578   -0.2343   20.4616 C   0  0  0  0  0  0  0  0  0  0  0  0
    6.6558    0.3299   21.2487 C   0  0  0  0  0  0  0  0  0  0  0  0
    5.5710    0.9600   20.6560 C   0  0  0  0  0  0  0  0  0  0  0  0
    4.5938    1.5009   21.4395 O   0  0  0  0  0  0  0  0  0  0  0  0
    5.4700    1.0465   19.2762 C   0  0  0  0  0  0  0  0  0  0  0  0
    6.4703    0.4942   18.4918 C   0  0  0  0  0  0  0  0  0  0  0  0
    6.3865    0.5754   17.1324 O   0  0  0  0  0  0  0  0  0  0  0  0
    7.5557   -0.1409   19.0772 C   0  0  0  0  0  0  0  0  0  0  0  0
    9.9994   -2.3645   22.5020 C   0  0  0  0  0  0  0  0  0  0  0  0
    9.5505   -3.5008   21.8084 F   0  0  0  0  0  0  0  0  0  0  0  0
   11.3906   -1.9865   22.0593 C   0  0  0  0  0  0  0  0  0  0  0  0
  1  2  1  0
  2  3  1  0
  3  4  1  0
  2  5  1  0
  5  6  1  0
  6  7  1  0
  7  8  1  0
  8  9  1  0
  9 10  1  0
 10 11  2  0
 11 12  1  0
 12 13  1  0
 12 14  2  0
 14 15  1  0
 15 16  1  0
 15 17  2  0
  8 18  1  0
 18 19  1  0
 18 20  1  0
 20  5  1  0
 17 10  1  0
M  END
