CVD-0002832|dock_bobby27042020.18|mol2|29|dock1
     RDKit          3D

 25 27  0  0  0  0  0  0  0  0999 V2000
   12.7154    4.6684   22.2786 C   0  0  0  0  0  0  0  0  0  0  0  0
   11.5797    3.7234   22.5868 C   0  0  0  0  0  0  0  0  0  0  0  0
   10.4026    4.1893   23.1499 C   0  0  0  0  0  0  0  0  0  0  0  0
    9.3654    3.3185   23.4334 C   0  0  0  0  0  0  0  0  0  0  0  0
    9.5000    1.9694   23.1560 C   0  0  0  0  0  0  0  0  0  0  0  0
   10.6680    1.4736   22.5941 C   0  0  0  0  0  0  0  0  0  0  0  0
   11.6948    2.3675   22.3169 C   0  0  0  0  0  0  0  0  0  0  0  0
   10.7726   -0.0201   22.3084 C   0  0  0  0  0  0  0  0  0  0  0  0
    9.5708   -0.8177   22.5886 N   0  0  0  0  0  0  0  0  0  0  0  0
    9.8970   -2.2484   22.7063 C   0  0  0  0  0  0  0  0  0  0  0  0
    8.6677   -3.0524   23.0416 C   0  0  0  0  0  0  0  0  0  0  0  0
    7.6194   -2.8379   22.0392 N   0  0  0  0  0  0  0  0  0  0  0  0
    7.3152   -1.4220   21.8416 C   0  0  0  0  0  0  0  0  0  0  0  0
    8.5844   -0.6707   21.5173 C   0  0  0  0  0  0  0  0  0  0  0  0
    6.8781   -3.7940   21.4441 C   0  0  0  0  0  0  0  0  0  0  0  0
    6.0267   -3.5288   20.6048 O   0  0  0  0  0  0  0  0  0  0  0  0
    7.1509   -5.2217   21.8748 C   0  0  0  0  0  0  0  0  0  0  0  0
    5.9700   -6.3355   21.1732 Cl  0  0  0  0  0  0  0  0  0  0  0  0
   11.9276   -0.6318   22.9772 N   0  0  0  0  0  0  0  0  0  0  0  0
   12.4120   -0.0060   24.2264 C   0  0  0  0  0  0  0  0  0  0  0  0
   12.6059   -0.9991   25.3627 C   0  0  0  0  0  0  0  0  0  0  0  0
   14.0153   -1.6108   25.4644 C   0  0  0  0  0  0  0  0  0  0  0  0
   14.5668   -1.8304   24.1616 O   0  0  0  0  0  0  0  0  0  0  0  0
   13.6895   -2.4022   23.1971 C   0  0  0  0  0  0  0  0  0  0  0  0
   13.0222   -1.3662   22.3252 C   0  0  0  0  0  0  0  0  0  0  0  0
  1  2  1  0
  2  3  2  0
  3  4  1  0
  4  5  2  0
  5  6  1  0
  6  7  2  0
  6  8  1  0
  8  9  1  0
  9 10  1  0
 10 11  1  0
 11 12  1  0
 12 13  1  0
 13 14  1  0
 12 15  1  0
 15 16  2  0
 15 17  1  0
 17 18  1  0
  8 19  1  0
 19 20  1  0
 20 21  1  0
 21 22  1  0
 22 23  1  0
 23 24  1  0
 24 25  1  0
  7  2  1  0
 14  9  1  0
 25 19  1  0
M  END
