CVD-0000468|dock_bobby27042020.56|mol2|2|dock3
     RDKit          3D

 22 24  0  0  0  0  0  0  0  0999 V2000
    5.8176   -1.9555   18.0306 N   0  0  0  0  0  0  0  0  0  0  0  0
    6.7112   -0.6788   18.3098 S   0  0  0  0  0  0  0  0  0  0  0  0
    5.9685    0.4642   17.8899 O   0  0  0  0  0  0  0  0  0  0  0  0
    7.9994   -0.9265   17.7498 O   0  0  0  0  0  0  0  0  0  0  0  0
    6.9481   -0.5100   20.0673 C   0  0  0  0  0  0  0  0  0  0  0  0
    8.1179   -0.8617   20.6250 C   0  0  0  0  0  0  0  0  0  0  0  0
    8.3398   -0.7717   22.1301 C   0  0  0  0  0  0  0  0  0  0  0  0
    6.9873   -1.0229   22.8364 C   0  0  0  0  0  0  0  0  0  0  0  0
    6.5741   -2.4875   22.6839 C   0  0  0  0  0  0  0  0  0  0  0  0
    7.6731   -3.4042   23.2083 C   0  0  0  0  0  0  0  0  0  0  0  0
    8.9940   -3.0965   22.5387 C   0  0  0  0  0  0  0  0  0  0  0  0
    9.3595   -1.6889   22.6946 N   0  0  0  0  0  0  0  0  0  0  0  0
   10.6908   -1.4360   22.1579 C   0  0  0  0  0  0  0  0  0  0  0  0
   11.7709   -2.0536   22.8986 N   0  0  0  0  0  0  0  0  0  0  0  0
   13.0564   -1.5627   22.4289 C   0  0  0  0  0  0  0  0  0  0  0  0
   14.2070   -2.1772   23.2099 C   0  0  0  0  0  0  0  0  0  0  0  0
   14.0207   -1.9561   24.6705 C   0  0  0  0  0  0  0  0  0  0  0  0
   14.8558   -1.4183   25.3658 O   0  0  0  0  0  0  0  0  0  0  0  0
   12.6967   -2.4011   25.1538 C   0  0  0  0  0  0  0  0  0  0  0  0
   11.6070   -1.7544   24.3202 C   0  0  0  0  0  0  0  0  0  0  0  0
    5.9287   -0.0965   22.2443 C   0  0  0  0  0  0  0  0  0  0  0  0
    5.9099    0.0980   20.9172 C   0  0  0  0  0  0  0  0  0  0  0  0
  1  2  1  0
  2  3  2  0
  2  4  2  0
  2  5  1  0
  5  6  2  0
  6  7  1  0
  7  8  1  0
  8  9  1  0
  9 10  1  0
 10 11  1  0
 11 12  1  0
 12 13  1  0
 13 14  1  0
 14 15  1  0
 15 16  1  0
 16 17  1  0
 17 18  2  0
 17 19  1  0
 19 20  1  0
  8 21  1  0
 21 22  2  0
 22  5  1  0
 12  7  1  0
 20 14  1  0
M  END
