CVD-0001052|dock_bobby27042020.82|mol2|19|dock1
     RDKit          3D

 25 28  0  0  0  0  0  0  0  0999 V2000
    5.1702   -4.9396   19.2568 O   0  0  0  0  0  0  0  0  0  0  0  0
    5.6994   -3.8652   19.5336 N   0  0  0  0  0  0  0  0  0  0  0  0
    5.4000   -2.8359   18.9524 O   0  0  0  0  0  0  0  0  0  0  0  0
    6.7138   -3.7936   20.5801 C   0  0  0  0  0  0  0  0  0  0  0  0
    6.9005   -4.9231   21.3650 C   0  0  0  0  0  0  0  0  0  0  0  0
    7.8439   -4.9205   22.3714 C   0  0  0  0  0  0  0  0  0  0  0  0
    8.0449   -6.3591   23.3317 Cl  0  0  0  0  0  0  0  0  0  0  0  0
    8.6189   -3.8355   22.6369 C   0  0  0  0  0  0  0  0  0  0  0  0
    8.4643   -2.6634   21.8642 C   0  0  0  0  0  0  0  0  0  0  0  0
    9.2408   -1.5062   22.0940 C   0  0  0  0  0  0  0  0  0  0  0  0
    9.0806   -0.3726   21.3352 C   0  0  0  0  0  0  0  0  0  0  0  0
    9.9345    0.7945   21.6423 C   0  0  0  0  0  0  0  0  0  0  0  0
   10.4324    1.6589   20.8064 N   0  0  0  0  0  0  0  0  0  0  0  0
   11.1533    2.5484   21.5967 C   0  0  0  0  0  0  0  0  0  0  0  0
   11.9029    3.6796   21.2759 C   0  0  0  0  0  0  0  0  0  0  0  0
   12.5111    4.3633   22.3121 C   0  0  0  0  0  0  0  0  0  0  0  0
   13.5381    5.9079   21.9029 Br  0  0  0  0  0  0  0  0  0  0  0  0
   12.4027    3.9690   23.6324 C   0  0  0  0  0  0  0  0  0  0  0  0
   11.6575    2.8457   23.9433 C   0  0  0  0  0  0  0  0  0  0  0  0
   11.0454    2.1561   22.9098 C   0  0  0  0  0  0  0  0  0  0  0  0
   10.2599    1.0225   22.9580 O   0  0  0  0  0  0  0  0  0  0  0  0
    8.1059   -0.4528   20.3357 C   0  0  0  0  0  0  0  0  0  0  0  0
    7.7818    0.8947   19.2909 Cl  0  0  0  0  0  0  0  0  0  0  0  0
    7.3626   -1.4855   20.0768 N   0  0  0  0  0  0  0  0  0  0  0  0
    7.5075   -2.6230   20.8212 C   0  0  0  0  0  0  0  0  0  0  0  0
  1  2  1  0
  2  3  2  0
  2  4  1  0
  4  5  2  0
  5  6  1  0
  6  7  1  0
  6  8  2  0
  8  9  1  0
  9 10  2  0
 10 11  1  0
 11 12  1  0
 12 13  2  0
 13 14  1  0
 14 15  2  0
 15 16  1  0
 16 17  1  0
 16 18  2  0
 18 19  1  0
 19 20  2  0
 20 21  1  0
 11 22  2  0
 22 23  1  0
 22 24  1  0
 24 25  2  0
 25  4  1  0
 25  9  1  0
 21 12  1  0
 20 14  1  0
M  CHG  2   1  -1   2   1
M  END
