CVD-0002263|dock_bobby27042020.92|mol2|12|dock2
     RDKit          3D

 26 28  0  0  0  0  0  0  0  0999 V2000
   12.8354    6.3588   24.8386 C   0  0  0  0  0  0  0  0  0  0  0  0
   13.8113    6.1258   23.4033 S   0  0  0  0  0  0  0  0  0  0  0  0
   14.0971    7.4123   22.8472 O   0  0  0  0  0  0  0  0  0  0  0  0
   14.9060    5.2709   23.7448 O   0  0  0  0  0  0  0  0  0  0  0  0
   12.9174    5.3384   22.3302 N   0  0  0  0  0  0  0  0  0  0  0  0
   12.6980    3.8955   22.4872 C   0  0  0  0  0  0  0  0  0  0  0  0
   11.4528    3.6299   23.3139 C   0  0  0  0  0  0  0  0  0  0  0  0
   10.9901    2.1956   23.2285 C   0  0  0  0  0  0  0  0  0  0  0  0
   11.0767    1.3526   24.3255 C   0  0  0  0  0  0  0  0  0  0  0  0
   10.6508    0.0383   24.2525 C   0  0  0  0  0  0  0  0  0  0  0  0
   10.1225   -0.4707   23.0718 C   0  0  0  0  0  0  0  0  0  0  0  0
   10.0336    0.3733   21.9711 C   0  0  0  0  0  0  0  0  0  0  0  0
   10.4617    1.6865   22.0525 C   0  0  0  0  0  0  0  0  0  0  0  0
    9.6683   -1.8663   22.9866 C   0  0  0  0  0  0  0  0  0  0  0  0
    9.3269   -2.4396   21.8710 N   0  0  0  0  0  0  0  0  0  0  0  0
    8.9328   -3.7644   22.0491 N   0  0  0  0  0  0  0  0  0  0  0  0
    8.9878   -4.1408   23.2821 C   0  0  0  0  0  0  0  0  0  0  0  0
    8.6131   -5.5288   23.7070 C   0  0  0  0  0  0  0  0  0  0  0  0
    7.1773   -5.7808   23.5771 N   0  0  0  0  0  0  0  0  0  0  0  0
    6.3989   -4.6032   23.9405 C   0  0  0  0  0  0  0  0  0  0  0  0
    4.9000   -4.8489   23.9355 C   0  0  0  0  0  0  0  0  0  0  0  0
    4.5022   -5.5483   22.6884 C   0  0  0  0  0  0  0  0  0  0  0  0
    5.3710   -6.1719   21.9166 C   0  0  0  0  0  0  0  0  0  0  0  0
    5.0849   -6.8556   20.7683 F   0  0  0  0  0  0  0  0  0  0  0  0
    6.8231   -6.2072   22.2246 C   0  0  0  0  0  0  0  0  0  0  0  0
    9.5387   -2.9026   24.3722 S   0  0  0  0  0  0  0  0  0  0  0  0
  1  2  1  0
  2  3  2  0
  2  4  2  0
  2  5  1  0
  5  6  1  0
  6  7  1  0
  7  8  1  0
  8  9  2  0
  9 10  1  0
 10 11  2  0
 11 12  1  0
 12 13  2  0
 11 14  1  0
 14 15  2  0
 15 16  1  0
 16 17  2  0
 17 18  1  0
 18 19  1  0
 19 20  1  0
 20 21  1  0
 21 22  1  0
 22 23  2  0
 23 24  1  0
 23 25  1  0
 17 26  1  0
 13  8  1  0
 26 14  1  0
 25 19  1  0
M  END
