CVD-0000063|dock_bobby27042020.57|mol2|23|dock3
     RDKit          3D

 23 24  0  0  0  0  0  0  0  0999 V2000
   12.2609    2.3457   23.2253 C   0  0  0  0  0  0  0  0  0  0  0  0
   12.2385    0.9126   22.7623 C   0  0  0  0  0  0  0  0  0  0  0  0
   13.4337    0.2707   22.4499 C   0  0  0  0  0  0  0  0  0  0  0  0
   13.4458   -1.0407   22.0134 C   0  0  0  0  0  0  0  0  0  0  0  0
   12.2570   -1.7407   21.9188 C   0  0  0  0  0  0  0  0  0  0  0  0
   11.0398   -1.1524   22.2530 C   0  0  0  0  0  0  0  0  0  0  0  0
    9.8014   -2.0204   22.2194 C   0  0  0  0  0  0  0  0  0  0  0  0
    8.5416   -1.2570   21.8620 C   0  0  0  0  0  0  0  0  0  0  0  0
    7.6972   -1.0075   22.7156 O   0  0  0  0  0  0  0  0  0  0  0  0
    8.4736   -0.9160   20.5514 N   0  0  0  0  0  0  0  0  0  0  0  0
    7.4660   -0.2142   19.8336 C   0  0  0  0  0  0  0  0  0  0  0  0
    6.3739    0.4104   20.4408 C   0  0  0  0  0  0  0  0  0  0  0  0
    5.4407    1.0713   19.6597 C   0  0  0  0  0  0  0  0  0  0  0  0
    5.6107    1.0985   18.2969 C   0  0  0  0  0  0  0  0  0  0  0  0
    6.6404    0.5145   17.6770 N   0  0  0  0  0  0  0  0  0  0  0  0
    7.5220   -0.1122   18.4341 C   0  0  0  0  0  0  0  0  0  0  0  0
    8.8203   -0.8377   17.5383 Cl  0  0  0  0  0  0  0  0  0  0  0  0
   11.0386    0.2058   22.6247 C   0  0  0  0  0  0  0  0  0  0  0  0
    9.8306    0.9379   22.8905 N   0  0  0  0  0  0  0  0  0  0  0  0
    9.1046    1.6781   22.0179 C   0  0  0  0  0  0  0  0  0  0  0  0
    9.3796    1.8421   20.8211 O   0  0  0  0  0  0  0  0  0  0  0  0
    7.9210    2.3121   22.6416 C   0  0  0  0  0  0  0  0  0  0  0  0
    7.4383    3.4520   22.2231 C   0  0  0  0  0  0  0  0  0  0  0  0
  1  2  1  0
  2  3  2  0
  3  4  1  0
  4  5  2  0
  5  6  1  0
  6  7  1  0
  7  8  1  0
  8  9  2  0
  8 10  1  0
 10 11  1  0
 11 12  2  0
 12 13  1  0
 13 14  2  0
 14 15  1  0
 15 16  2  0
 16 17  1  0
  6 18  2  0
 18 19  1  0
 19 20  1  0
 20 21  2  0
 20 22  1  0
 22 23  2  0
 18  2  1  0
 16 11  1  0
M  END
