CVD-0000056|dock_bobby27042020.57|mol2|24|dock1
     RDKit          3D

 36 39  0  0  0  0  0  0  0  0999 V2000
    5.3130    1.2688   18.3067 C   0  0  0  0  0  0  0  0  0  0  0  0
    5.8167    0.0546   18.9269 N   0  0  0  0  0  0  0  0  0  0  0  0
    5.6008   -1.1714   18.1769 C   0  0  0  0  0  0  0  0  0  0  0  0
    6.3227    0.0488   20.2042 C   0  0  0  0  0  0  0  0  0  0  0  0
    5.7458    0.8165   21.2079 C   0  0  0  0  0  0  0  0  0  0  0  0
    6.2877    0.7683   22.4740 C   0  0  0  0  0  0  0  0  0  0  0  0
    7.3511    0.0273   22.8007 N   0  0  0  0  0  0  0  0  0  0  0  0
    7.9285   -0.6991   21.8408 C   0  0  0  0  0  0  0  0  0  0  0  0
    7.4325   -0.7260   20.5374 C   0  0  0  0  0  0  0  0  0  0  0  0
    9.0720   -1.4151   22.2934 N   0  0  0  0  0  0  0  0  0  0  0  0
   10.2231   -1.3171   21.3864 C   0  0  0  0  0  0  0  0  0  0  0  0
   11.4881   -0.8869   22.0887 C   0  0  0  0  0  0  0  0  0  0  0  0
   12.4147   -1.8150   22.5342 C   0  0  0  0  0  0  0  0  0  0  0  0
   13.5578   -1.3614   23.1694 C   0  0  0  0  0  0  0  0  0  0  0  0
   13.7479   -0.0018   23.3433 C   0  0  0  0  0  0  0  0  0  0  0  0
   12.7681    0.8620   22.8649 C   0  0  0  0  0  0  0  0  0  0  0  0
   11.6504    0.4360   22.2446 N   0  0  0  0  0  0  0  0  0  0  0  0
   12.9097    2.2910   23.0163 C   0  0  0  0  0  0  0  0  0  0  0  0
   13.0695    3.4534   23.1172 C   0  0  0  0  0  0  0  0  0  0  0  0
    9.1718   -2.1912   23.4568 C   0  0  0  0  0  0  0  0  0  0  0  0
   10.2314   -2.7452   23.7189 O   0  0  0  0  0  0  0  0  0  0  0  0
    8.0985   -2.3047   24.3094 N   0  0  0  0  0  0  0  0  0  0  0  0
    8.1129   -3.0508   25.5367 C   0  0  0  0  0  0  0  0  0  0  0  0
    8.2467   -2.4572   26.8038 C   0  0  0  0  0  0  0  0  0  0  0  0
    8.5538   -1.0035   27.0155 C   0  0  0  0  0  0  0  0  0  0  0  0
    8.1276   -3.1922   27.9113 N   0  0  0  0  0  0  0  0  0  0  0  0
    7.9987   -4.5200   27.8093 C   0  0  0  0  0  0  0  0  0  0  0  0
    7.9464   -5.1862   26.6042 C   0  0  0  0  0  0  0  0  0  0  0  0
    7.9990   -4.4437   25.4307 C   0  0  0  0  0  0  0  0  0  0  0  0
    7.9245   -5.1379   24.0907 C   0  0  0  0  0  0  0  0  0  0  0  0
    6.6309   -5.7970   23.8617 N   0  0  0  0  0  0  0  0  0  0  0  0
    6.4698   -6.1741   22.4548 C   0  0  0  0  0  0  0  0  0  0  0  0
    5.1484   -6.8419   22.2594 C   0  0  0  0  0  0  0  0  0  0  0  0
    4.0704   -5.9903   22.6302 O   0  0  0  0  0  0  0  0  0  0  0  0
    4.2118   -5.6079   23.9881 C   0  0  0  0  0  0  0  0  0  0  0  0
    5.5216   -4.9242   24.2428 C   0  0  0  0  0  0  0  0  0  0  0  0
  1  2  1  0
  2  3  1  0
  2  4  1  0
  4  5  2  0
  5  6  1  0
  6  7  2  0
  7  8  1  0
  8  9  2  0
  8 10  1  0
 10 11  1  0
 11 12  1  0
 12 13  2  0
 13 14  1  0
 14 15  2  0
 15 16  1  0
 16 17  2  0
 16 18  1  0
 18 19  3  0
 10 20  1  0
 20 21  2  0
 20 22  1  0
 22 23  1  0
 23 24  2  0
 24 25  1  0
 24 26  1  0
 26 27  2  0
 27 28  1  0
 28 29  2  0
 29 30  1  0
 30 31  1  0
 31 32  1  0
 32 33  1  0
 33 34  1  0
 34 35  1  0
 35 36  1  0
  9  4  1  0
 17 12  1  0
 29 23  1  0
 36 31  1  0
M  END
