CVD-0002189|dock_bobby27042020.64|mol2|19|dock3
     RDKit          3D

 31 34  0  0  0  0  0  0  0  0999 V2000
    3.2537    7.5268   17.4849 F   0  0  0  0  0  0  0  0  0  0  0  0
    3.5038    7.1838   18.7773 C   0  0  0  0  0  0  0  0  0  0  0  0
    4.4049    7.9361   19.4840 C   0  0  0  0  0  0  0  0  0  0  0  0
    4.6687    7.5982   20.7999 C   0  0  0  0  0  0  0  0  0  0  0  0
    4.0119    6.5084   21.3604 C   0  0  0  0  0  0  0  0  0  0  0  0
    4.0817    5.9615   22.6182 N   0  0  0  0  0  0  0  0  0  0  0  0
    3.2351    4.8885   22.6815 C   0  0  0  0  0  0  0  0  0  0  0  0
    2.6025    4.7113   21.4862 C   0  0  0  0  0  0  0  0  0  0  0  0
    1.5972    3.6553   21.1293 C   0  0  0  0  0  0  0  0  0  0  0  0
    2.0795    2.7058   20.0503 C   0  0  0  0  0  0  0  0  0  0  0  0
    3.3567    2.0942   20.3894 N   0  0  0  0  0  0  0  0  0  0  0  0
    4.2783    1.8398   19.4559 C   0  0  0  0  0  0  0  0  0  0  0  0
    4.0763    2.1151   18.2770 O   0  0  0  0  0  0  0  0  0  0  0  0
    5.5832    1.2077   19.8480 C   0  0  0  0  0  0  0  0  0  0  0  0
    6.2014    1.4327   21.0751 C   0  0  0  0  0  0  0  0  0  0  0  0
    7.4048    0.8265   21.3922 C   0  0  0  0  0  0  0  0  0  0  0  0
    8.0307   -0.0273   20.4873 C   0  0  0  0  0  0  0  0  0  0  0  0
    9.2621   -0.6842   20.7392 N   0  0  0  0  0  0  0  0  0  0  0  0
   10.0188   -0.7691   21.8859 C   0  0  0  0  0  0  0  0  0  0  0  0
    9.7189   -0.2463   22.9539 O   0  0  0  0  0  0  0  0  0  0  0  0
   11.1558   -1.5167   21.6794 N   0  0  0  0  0  0  0  0  0  0  0  0
   12.2096   -1.8643   22.5623 C   0  0  0  0  0  0  0  0  0  0  0  0
   11.8985   -2.1568   23.8841 C   0  0  0  0  0  0  0  0  0  0  0  0
   12.9067   -2.4991   24.7679 C   0  0  0  0  0  0  0  0  0  0  0  0
   14.2011   -2.5400   24.3055 C   0  0  0  0  0  0  0  0  0  0  0  0
   14.5335   -2.2652   23.0444 N   0  0  0  0  0  0  0  0  0  0  0  0
   13.5529   -1.9356   22.1978 C   0  0  0  0  0  0  0  0  0  0  0  0
    7.4152   -0.2523   19.2623 C   0  0  0  0  0  0  0  0  0  0  0  0
    6.2129    0.3552   18.9497 C   0  0  0  0  0  0  0  0  0  0  0  0
    3.0891    5.7464   20.6193 C   0  0  0  0  0  0  0  0  0  0  0  0
    2.8348    6.1002   19.2951 C   0  0  0  0  0  0  0  0  0  0  0  0
  1  2  1  0
  2  3  2  0
  3  4  1  0
  4  5  2  0
  5  6  1  0
  6  7  1  0
  7  8  2  0
  8  9  1  0
  9 10  1  0
 10 11  1  0
 11 12  1  0
 12 13  2  0
 12 14  1  0
 14 15  2  0
 15 16  1  0
 16 17  2  0
 17 18  1  0
 18 19  1  0
 19 20  2  0
 19 21  1  0
 21 22  1  0
 22 23  2  0
 23 24  1  0
 24 25  2  0
 25 26  1  0
 26 27  2  0
 17 28  1  0
 28 29  2  0
  8 30  1  0
 30 31  2  0
 31  2  1  0
 30  5  1  0
 29 14  1  0
 27 22  1  0
M  END
