CVD-0000864|dock_bobby27042020.26|mol2|3|dock3
     RDKit          3D

 24 25  0  0  0  0  0  0  0  0999 V2000
    7.8962   -1.0559   18.8783 C   0  0  0  0  0  0  0  0  0  0  0  0
    7.2627   -1.0839   20.2642 C   0  0  0  0  0  0  0  0  0  0  0  0
    6.3198    0.0354   20.3579 N   0  0  0  0  0  0  0  0  0  0  0  0
    5.0759   -0.0212   19.8773 C   0  0  0  0  0  0  0  0  0  0  0  0
    4.6096   -1.0081   19.3165 O   0  0  0  0  0  0  0  0  0  0  0  0
    4.2652    1.2389   20.0866 C   0  0  0  0  0  0  0  0  0  0  0  0
    4.7819    2.5570   19.0270 Cl  0  0  0  0  0  0  0  0  0  0  0  0
    8.3136   -1.0084   21.3563 C   0  0  0  0  0  0  0  0  0  0  0  0
    8.4864   -2.0571   22.2466 C   0  0  0  0  0  0  0  0  0  0  0  0
    9.4432   -1.9627   23.2349 C   0  0  0  0  0  0  0  0  0  0  0  0
    9.6497   -3.2893   24.3440 Cl  0  0  0  0  0  0  0  0  0  0  0  0
   10.2406   -0.8454   23.3690 C   0  0  0  0  0  0  0  0  0  0  0  0
   10.0865    0.2216   22.4830 C   0  0  0  0  0  0  0  0  0  0  0  0
    9.1174    0.1151   21.4837 C   0  0  0  0  0  0  0  0  0  0  0  0
   10.9339    1.4392   22.6020 C   0  0  0  0  0  0  0  0  0  0  0  0
   12.3203    1.3494   22.7010 C   0  0  0  0  0  0  0  0  0  0  0  0
   13.1132    2.4774   22.8159 C   0  0  0  0  0  0  0  0  0  0  0  0
   12.5206    3.7283   22.8290 C   0  0  0  0  0  0  0  0  0  0  0  0
   11.1456    3.8502   22.7270 C   0  0  0  0  0  0  0  0  0  0  0  0
   10.3675    2.7113   22.6180 C   0  0  0  0  0  0  0  0  0  0  0  0
   13.5245    5.1761   22.9660 S   0  0  0  0  0  0  0  0  0  0  0  0
   13.7660    5.7668   21.4978 N   0  0  0  0  0  0  0  0  0  0  0  0
   14.7997    4.7660   23.4727 O   0  0  0  0  0  0  0  0  0  0  0  0
   12.7712    6.1513   23.6961 O   0  0  0  0  0  0  0  0  0  0  0  0
  1  2  1  0
  2  3  1  0
  3  4  1  0
  4  5  2  0
  4  6  1  0
  6  7  1  0
  2  8  1  0
  8  9  2  0
  9 10  1  0
 10 11  1  0
 10 12  2  0
 12 13  1  0
 13 14  2  0
 13 15  1  0
 15 16  2  0
 16 17  1  0
 17 18  2  0
 18 19  1  0
 19 20  2  0
 18 21  1  0
 21 22  1  0
 21 23  2  0
 21 24  2  0
 14  8  1  0
 20 15  1  0
M  END
