CVD-0003936|dock_bobby27042020.72|mol2|18|dock1
     RDKit          3D

 30 33  0  0  0  0  0  0  0  0999 V2000
   10.1203    2.3256   20.9481 O   0  0  0  0  0  0  0  0  0  0  0  0
    9.8420    2.6089   22.1076 C   0  0  0  0  0  0  0  0  0  0  0  0
    8.6766    1.9785   22.8458 C   0  0  0  0  0  0  0  0  0  0  0  0
    8.0618    0.6695   22.2925 C   0  0  0  0  0  0  0  0  0  0  0  0
    6.7237    0.5263   23.0132 C   0  0  0  0  0  0  0  0  0  0  0  0
    6.9269    0.2418   24.4879 C   0  0  0  0  0  0  0  0  0  0  0  0
    7.7824   -0.9976   24.7013 C   0  0  0  0  0  0  0  0  0  0  0  0
    9.1133   -0.8695   23.9779 C   0  0  0  0  0  0  0  0  0  0  0  0
    8.9187   -0.5719   22.4966 C   0  0  0  0  0  0  0  0  0  0  0  0
    7.7398    0.7696   20.8474 N   0  0  0  0  0  0  0  0  0  0  0  0
    6.6562    0.1175   20.0861 C   0  0  0  0  0  0  0  0  0  0  0  0
    5.3292    0.8767   20.3372 C   0  0  0  0  0  0  0  0  0  0  0  0
    4.7387    1.1643   19.0498 C   0  0  0  0  0  0  0  0  0  0  0  0
    5.6165    0.7258   17.9739 C   0  0  0  0  0  0  0  0  0  0  0  0
    6.8734    0.1982   18.5703 C   0  0  0  0  0  0  0  0  0  0  0  0
    6.5255   -1.2763   20.5567 C   0  0  0  0  0  0  0  0  0  0  0  0
    6.4982   -2.4276   20.8707 C   0  0  0  0  0  0  0  0  0  0  0  0
    6.5328   -3.8302   21.1910 C   0  0  0  0  0  0  0  0  0  0  0  0
    7.2667   -4.2819   22.2834 C   0  0  0  0  0  0  0  0  0  0  0  0
    7.2708   -5.6392   22.5532 C   0  0  0  0  0  0  0  0  0  0  0  0
    6.5577   -6.4966   21.7441 C   0  0  0  0  0  0  0  0  0  0  0  0
    5.8596   -5.9626   20.6847 C   0  0  0  0  0  0  0  0  0  0  0  0
    5.8311   -4.6555   20.3911 N   0  0  0  0  0  0  0  0  0  0  0  0
   10.5198    3.5022   22.8691 N   0  0  0  0  0  0  0  0  0  0  0  0
   11.6523    4.3082   22.5914 C   0  0  0  0  0  0  0  0  0  0  0  0
   11.9661    5.3444   23.4614 C   0  0  0  0  0  0  0  0  0  0  0  0
   13.0675    6.1427   23.2082 C   0  0  0  0  0  0  0  0  0  0  0  0
   13.8259    5.8826   22.0906 C   0  0  0  0  0  0  0  0  0  0  0  0
   13.5517    4.8966   21.2365 N   0  0  0  0  0  0  0  0  0  0  0  0
   12.4858    4.1306   21.4893 C   0  0  0  0  0  0  0  0  0  0  0  0
  1  2  2  0
  2  3  1  0
  3  4  1  0
  4  5  1  0
  5  6  1  0
  6  7  1  0
  7  8  1  0
  8  9  1  0
  4 10  1  0
 10 11  1  0
 11 12  1  0
 12 13  1  0
 13 14  1  0
 14 15  1  0
 11 16  1  0
 16 17  3  0
 17 18  1  0
 18 19  2  0
 19 20  1  0
 20 21  2  0
 21 22  1  0
 22 23  2  0
  2 24  1  0
 24 25  1  0
 25 26  2  0
 26 27  1  0
 27 28  2  0
 28 29  1  0
 29 30  2  0
  9  4  1  0
 15 11  1  0
 23 18  1  0
 30 25  1  0
M  END
