CVD-0003999|dock_bobby27042020.43|mol2|26|dock3
     RDKit          3D

 18 17  0  0  0  0  0  0  0  0999 V2000
    9.0190   -2.7447   23.0213 C   0  0  0  0  0  0  0  0  0  0  0  0
   10.0456   -2.1004   22.1020 C   0  0  0  0  0  0  0  0  0  0  0  0
   10.0202   -0.5945   22.1775 C   0  0  0  0  0  0  0  0  0  0  0  0
   10.7385    0.0854   23.1127 C   0  0  0  0  0  0  0  0  0  0  0  0
   10.7351    1.5791   23.3216 C   0  0  0  0  0  0  0  0  0  0  0  0
   11.6509   -0.6142   24.0912 C   0  0  0  0  0  0  0  0  0  0  0  0
   13.0416   -0.8030   23.5123 C   0  0  0  0  0  0  0  0  0  0  0  0
   13.8491   -1.9160   24.1349 C   0  0  0  0  0  0  0  0  0  0  0  0
   14.1679   -2.8958   23.4728 O   0  0  0  0  0  0  0  0  0  0  0  0
   14.2338   -1.7987   25.5188 C   0  0  0  0  0  0  0  0  0  0  0  0
   14.8908   -2.6146   26.1347 O   0  0  0  0  0  0  0  0  0  0  0  0
    9.1391   -0.0052   21.1440 C   0  0  0  0  0  0  0  0  0  0  0  0
    9.2647    1.1104   20.6936 O   0  0  0  0  0  0  0  0  0  0  0  0
    8.0829   -0.8086   20.6983 O   0  0  0  0  0  0  0  0  0  0  0  0
    7.2985   -0.4171   19.3682 S   0  0  0  0  0  0  0  0  0  0  0  0
    8.3708   -0.3344   18.2081 N   0  0  0  0  0  0  0  0  0  0  0  0
    6.7694    0.8821   19.5921 O   0  0  0  0  0  0  0  0  0  0  0  0
    6.4185   -1.4990   19.0981 O   0  0  0  0  0  0  0  0  0  0  0  0
  1  2  1  0
  2  3  1  0
  3  4  2  0
  4  5  1  0
  4  6  1  0
  6  7  1  0
  7  8  1  0
  8  9  2  0
  8 10  1  0
 10 11  2  0
  3 12  1  0
 12 13  2  0
 12 14  1  0
 14 15  1  0
 15 16  1  0
 15 17  2  0
 15 18  2  0
M  END
