CVD-0000241|dock_bobby27042020.99|mol2|17|dock3
     RDKit          3D

 23 25  0  0  0  0  0  0  0  0999 V2000
   10.6659   -5.6224   25.1291 N   0  0  0  0  0  0  0  0  0  0  0  0
    9.4754   -5.6123   24.5512 C   0  0  0  0  0  0  0  0  0  0  0  0
    9.0831   -6.5190   23.8134 O   0  0  0  0  0  0  0  0  0  0  0  0
    8.5966   -4.4094   24.8436 C   0  0  0  0  0  0  0  0  0  0  0  0
    8.9473   -3.2609   23.9220 C   0  0  0  0  0  0  0  0  0  0  0  0
    8.4273   -3.4661   22.5805 N   0  0  0  0  0  0  0  0  0  0  0  0
    8.8888   -2.4618   21.6502 C   0  0  0  0  0  0  0  0  0  0  0  0
    7.8080   -1.6368   20.9728 C   0  0  0  0  0  0  0  0  0  0  0  0
    6.6788   -1.5658   21.4467 O   0  0  0  0  0  0  0  0  0  0  0  0
    8.2220   -1.0136   19.8447 N   0  0  0  0  0  0  0  0  0  0  0  0
    7.5246   -0.1714   18.9637 C   0  0  0  0  0  0  0  0  0  0  0  0
    8.0154    0.3542   17.7498 C   0  0  0  0  0  0  0  0  0  0  0  0
    7.2697    1.1504   16.9787 N   0  0  0  0  0  0  0  0  0  0  0  0
    6.0391    1.4255   17.4099 C   0  0  0  0  0  0  0  0  0  0  0  0
    5.5526    0.9152   18.5958 C   0  0  0  0  0  0  0  0  0  0  0  0
    6.2878    0.1165   19.3787 N   0  0  0  0  0  0  0  0  0  0  0  0
    7.4232   -4.4146   22.2836 C   0  0  0  0  0  0  0  0  0  0  0  0
    7.0853   -4.6478   20.9513 C   0  0  0  0  0  0  0  0  0  0  0  0
    6.1115   -5.5870   20.6485 C   0  0  0  0  0  0  0  0  0  0  0  0
    5.4755   -6.2909   21.6480 C   0  0  0  0  0  0  0  0  0  0  0  0
    5.8075   -6.0630   22.9712 C   0  0  0  0  0  0  0  0  0  0  0  0
    6.7800   -5.1278   23.3096 C   0  0  0  0  0  0  0  0  0  0  0  0
    7.1384   -4.8499   24.7424 C   0  0  0  0  0  0  0  0  0  0  0  0
  1  2  1  0
  2  3  2  0
  2  4  1  0
  4  5  1  0
  5  6  1  0
  6  7  1  0
  7  8  1  0
  8  9  2  0
  8 10  1  0
 10 11  1  0
 11 12  2  0
 12 13  1  0
 13 14  2  0
 14 15  1  0
 15 16  2  0
  6 17  1  0
 17 18  2  0
 18 19  1  0
 19 20  2  0
 20 21  1  0
 21 22  2  0
 22 23  1  0
 23  4  1  0
 16 11  1  0
 22 17  1  0
M  END
