CVD-0004014|dock_bobby27042020.29|mol2|7|dock1
     RDKit          3D

 38 39  0  0  0  0  0  0  0  0999 V2000
   13.6294   -2.1108   20.7414 C   0  0  0  0  0  0  0  0  0  0  0  0
   12.4920   -1.6384   21.6264 C   0  0  0  0  0  0  0  0  0  0  0  0
   12.8555   -0.6683   22.7575 C   0  0  0  0  0  0  0  0  0  0  0  0
   13.6337   -1.4218   23.8333 C   0  0  0  0  0  0  0  0  0  0  0  0
   11.6407    0.0173   23.4231 C   0  0  0  0  0  0  0  0  0  0  0  0
   10.5399   -0.9148   23.6187 N   0  0  0  0  0  0  0  0  0  0  0  0
   10.1863   -1.3377   24.8365 C   0  0  0  0  0  0  0  0  0  0  0  0
   10.7642   -0.9731   25.8570 O   0  0  0  0  0  0  0  0  0  0  0  0
    9.0207   -2.3203   24.9311 C   0  0  0  0  0  0  0  0  0  0  0  0
    9.4441   -3.7262   24.4749 C   0  0  0  0  0  0  0  0  0  0  0  0
    8.3057   -4.7094   24.3486 C   0  0  0  0  0  0  0  0  0  0  0  0
    7.5517   -5.0810   25.4494 C   0  0  0  0  0  0  0  0  0  0  0  0
    6.5209   -5.9851   25.2853 C   0  0  0  0  0  0  0  0  0  0  0  0
    6.1980   -6.5347   24.1140 N   0  0  0  0  0  0  0  0  0  0  0  0
    6.9299   -6.1717   23.0600 C   0  0  0  0  0  0  0  0  0  0  0  0
    7.9785   -5.2757   23.1273 C   0  0  0  0  0  0  0  0  0  0  0  0
    7.9059   -1.8557   24.1221 N   0  0  0  0  0  0  0  0  0  0  0  0
    7.3947   -0.6313   24.2674 C   0  0  0  0  0  0  0  0  0  0  0  0
    7.8299    0.1726   25.0859 O   0  0  0  0  0  0  0  0  0  0  0  0
    6.2427   -0.2946   23.3516 C   0  0  0  0  0  0  0  0  0  0  0  0
    6.6762    0.1196   21.9476 C   0  0  0  0  0  0  0  0  0  0  0  0
    5.5272    0.4655   21.0011 C   0  0  0  0  0  0  0  0  0  0  0  0
    4.7354    1.6879   21.5093 C   0  0  0  0  0  0  0  0  0  0  0  0
    3.6240    2.1036   20.5472 C   0  0  0  0  0  0  0  0  0  0  0  0
    4.1653    2.3384   19.1428 C   0  0  0  0  0  0  0  0  0  0  0  0
    4.9185    1.1179   18.6335 C   0  0  0  0  0  0  0  0  0  0  0  0
    6.0511    0.7336   19.5799 C   0  0  0  0  0  0  0  0  0  0  0  0
   11.1688    1.2467   22.6532 C   0  0  0  0  0  0  0  0  0  0  0  0
   10.2476    1.1671   21.8454 O   0  0  0  0  0  0  0  0  0  0  0  0
   11.8105    2.3898   22.9111 N   0  0  0  0  0  0  0  0  0  0  0  0
   11.4644    3.6287   22.2341 C   0  0  0  0  0  0  0  0  0  0  0  0
   10.9067    4.6220   23.2582 C   0  0  0  0  0  0  0  0  0  0  0  0
    9.8907    5.6488   22.7571 C   0  0  0  0  0  0  0  0  0  0  0  0
    9.7217    6.7520   23.7872 C   0  0  0  0  0  0  0  0  0  0  0  0
    8.5406    5.0289   22.4404 C   0  0  0  0  0  0  0  0  0  0  0  0
   12.7058    4.1697   21.5406 C   0  0  0  0  0  0  0  0  0  0  0  0
   13.7745    4.0896   22.2913 O   0  0  0  0  0  0  0  0  0  0  0  0
   12.6960    4.6268   20.4188 O   0  0  0  0  0  0  0  0  0  0  0  0
  1  2  1  0
  2  3  1  0
  3  4  1  0
  3  5  1  0
  5  6  1  0
  6  7  1  0
  7  8  2  0
  7  9  1  0
  9 10  1  0
 10 11  1  0
 11 12  2  0
 12 13  1  0
 13 14  2  0
 14 15  1  0
 15 16  2  0
  9 17  1  0
 17 18  1  0
 18 19  2  0
 18 20  1  0
 20 21  1  0
 21 22  1  0
 22 23  1  0
 23 24  1  0
 24 25  1  0
 25 26  1  0
 26 27  1  0
  5 28  1  0
 28 29  2  0
 28 30  1  0
 30 31  1  0
 31 32  1  0
 32 33  1  0
 33 34  1  0
 33 35  1  0
 31 36  1  0
 36 37  1  0
 36 38  2  0
 16 11  1  0
 27 22  1  0
M  END
