CVD-0003516|dock_bobby27042020.30|mol2|38|dock3
     RDKit          3D

 29 31  0  0  0  0  0  0  0  0999 V2000
    4.8573   -6.0769   22.3606 Cl  0  0  0  0  0  0  0  0  0  0  0  0
    6.0610   -4.9324   22.9676 C   0  0  0  0  0  0  0  0  0  0  0  0
    6.2898   -3.8085   21.9748 C   0  0  0  0  0  0  0  0  0  0  0  0
    5.6447   -3.7680   20.9347 O   0  0  0  0  0  0  0  0  0  0  0  0
    7.2102   -2.8610   22.2722 N   0  0  0  0  0  0  0  0  0  0  0  0
    7.5059   -1.7346   21.3841 C   0  0  0  0  0  0  0  0  0  0  0  0
    8.9922   -1.6715   21.0850 C   0  0  0  0  0  0  0  0  0  0  0  0
    9.7557   -1.5486   22.3303 N   0  0  0  0  0  0  0  0  0  0  0  0
   11.1936   -1.4470   22.0437 C   0  0  0  0  0  0  0  0  0  0  0  0
   12.0302   -1.2723   23.2900 C   0  0  0  0  0  0  0  0  0  0  0  0
   12.9011   -2.2876   23.6736 C   0  0  0  0  0  0  0  0  0  0  0  0
   13.6725   -2.1552   24.8090 C   0  0  0  0  0  0  0  0  0  0  0  0
   14.7531   -3.4430   25.2633 Cl  0  0  0  0  0  0  0  0  0  0  0  0
   13.6016   -1.0229   25.5872 C   0  0  0  0  0  0  0  0  0  0  0  0
   12.7386   -0.0106   25.2106 C   0  0  0  0  0  0  0  0  0  0  0  0
   11.9452   -0.1109   24.0698 C   0  0  0  0  0  0  0  0  0  0  0  0
   11.0202    1.0202   23.6905 C   0  0  0  0  0  0  0  0  0  0  0  0
   11.6066    2.3422   23.8606 N   0  0  0  0  0  0  0  0  0  0  0  0
   12.5674    2.7752   23.0221 C   0  0  0  0  0  0  0  0  0  0  0  0
   12.9425    2.0781   22.0872 O   0  0  0  0  0  0  0  0  0  0  0  0
   13.1373    4.0019   23.1997 N   0  0  0  0  0  0  0  0  0  0  0  0
   14.4125    4.4118   22.6124 C   0  0  0  0  0  0  0  0  0  0  0  0
   14.1989    5.7371   21.9048 C   0  0  0  0  0  0  0  0  0  0  0  0
   13.6384    6.7169   22.8127 N   0  0  0  0  0  0  0  0  0  0  0  0
   12.7712    6.4221   23.7723 C   0  0  0  0  0  0  0  0  0  0  0  0
   12.1955    7.2780   24.4370 O   0  0  0  0  0  0  0  0  0  0  0  0
   12.4746    4.9811   24.0441 C   0  0  0  0  0  0  0  0  0  0  0  0
    9.4829   -2.7099   23.1731 C   0  0  0  0  0  0  0  0  0  0  0  0
    8.0041   -2.7991   23.5034 C   0  0  0  0  0  0  0  0  0  0  0  0
  1  2  1  0
  2  3  1  0
  3  4  2  0
  3  5  1  0
  5  6  1  0
  6  7  1  0
  7  8  1  0
  8  9  1  0
  9 10  1  0
 10 11  2  0
 11 12  1  0
 12 13  1  0
 12 14  2  0
 14 15  1  0
 15 16  2  0
 16 17  1  0
 17 18  1  0
 18 19  1  0
 19 20  2  0
 19 21  1  0
 21 22  1  0
 22 23  1  0
 23 24  1  0
 24 25  1  0
 25 26  2  0
 25 27  1  0
  8 28  1  0
 28 29  1  0
 29  5  1  0
 16 10  1  0
 27 21  1  0
M  END
