CVD-0000537|dock_bobby27042020.69|mol2|50|dock3
     RDKit          3D

 25 27  0  0  0  0  0  0  0  0999 V2000
   13.0242   -1.4607   21.6524 C   0  0  0  0  0  0  0  0  0  0  0  0
   12.6599   -0.0226   21.9192 C   0  0  0  0  0  0  0  0  0  0  0  0
   13.6203    0.8046   22.4936 C   0  0  0  0  0  0  0  0  0  0  0  0
   13.3229    2.1243   22.7476 C   0  0  0  0  0  0  0  0  0  0  0  0
   12.1419    2.6673   22.4687 N   0  0  0  0  0  0  0  0  0  0  0  0
   11.2112    1.8826   21.9165 C   0  0  0  0  0  0  0  0  0  0  0  0
   11.4014    0.5329   21.6142 C   0  0  0  0  0  0  0  0  0  0  0  0
   10.4193   -0.3140   21.0242 N   0  0  0  0  0  0  0  0  0  0  0  0
    9.0576   -0.3576   21.2229 C   0  0  0  0  0  0  0  0  0  0  0  0
    8.4452    0.3780   21.9911 O   0  0  0  0  0  0  0  0  0  0  0  0
    8.4763   -1.3204   20.4584 N   0  0  0  0  0  0  0  0  0  0  0  0
    7.0652   -1.6335   20.4229 C   0  0  0  0  0  0  0  0  0  0  0  0
    6.4638   -2.0750   19.0918 C   0  0  0  0  0  0  0  0  0  0  0  0
    6.1463   -0.7123   19.6270 C   0  0  0  0  0  0  0  0  0  0  0  0
    6.5621   -2.2232   21.6061 O   0  0  0  0  0  0  0  0  0  0  0  0
    7.1154   -3.4064   22.1381 C   0  0  0  0  0  0  0  0  0  0  0  0
    6.6589   -4.6521   21.7367 C   0  0  0  0  0  0  0  0  0  0  0  0
    7.2267   -5.7913   22.2828 C   0  0  0  0  0  0  0  0  0  0  0  0
    8.2416   -5.6945   23.2198 C   0  0  0  0  0  0  0  0  0  0  0  0
    8.6868   -4.4414   23.6066 C   0  0  0  0  0  0  0  0  0  0  0  0
    8.1302   -3.2889   23.0738 C   0  0  0  0  0  0  0  0  0  0  0  0
    9.9775   -4.3020   24.8057 S   0  0  0  0  0  0  0  0  0  0  0  0
   10.2313   -5.7464   25.4479 N   0  0  0  0  0  0  0  0  0  0  0  0
   11.1722   -3.9333   24.1072 O   0  0  0  0  0  0  0  0  0  0  0  0
    9.4981   -3.4511   25.8532 O   0  0  0  0  0  0  0  0  0  0  0  0
  1  2  1  0
  2  3  2  0
  3  4  1  0
  4  5  2  0
  5  6  1  0
  6  7  2  0
  7  8  1  0
  8  9  1  0
  9 10  2  0
  9 11  1  0
 11 12  1  0
 12 13  1  0
 13 14  1  0
 12 15  1  0
 15 16  1  0
 16 17  2  0
 17 18  1  0
 18 19  2  0
 19 20  1  0
 20 21  2  0
 20 22  1  0
 22 23  1  0
 22 24  2  0
 22 25  2  0
  7  2  1  0
 14 12  1  0
 21 16  1  0
M  END
