CVD-0003144|dock_bobby27042020.60|mol2|38|dock1
     RDKit          3D

 18 19  0  0  0  0  0  0  0  0999 V2000
   14.5015   -2.6020   25.8627 C   0  0  0  0  0  0  0  0  0  0  0  0
   13.5788   -1.6825   25.1003 C   0  0  0  0  0  0  0  0  0  0  0  0
   13.4001   -0.3660   25.4958 C   0  0  0  0  0  0  0  0  0  0  0  0
   12.5554    0.4752   24.7913 C   0  0  0  0  0  0  0  0  0  0  0  0
   11.8787    0.0057   23.6789 C   0  0  0  0  0  0  0  0  0  0  0  0
   12.0401   -1.3059   23.2631 C   0  0  0  0  0  0  0  0  0  0  0  0
   11.3098   -1.8300   22.0473 C   0  0  0  0  0  0  0  0  0  0  0  0
    9.8084   -1.6514   22.1546 C   0  0  0  0  0  0  0  0  0  0  0  0
    9.2483   -1.5577   23.2424 O   0  0  0  0  0  0  0  0  0  0  0  0
    9.1474   -1.6124   21.0010 N   0  0  0  0  0  0  0  0  0  0  0  0
    7.7096   -1.4551   20.9616 C   0  0  0  0  0  0  0  0  0  0  0  0
    7.2682   -0.7009   19.7527 C   0  0  0  0  0  0  0  0  0  0  0  0
    7.9651   -0.6806   18.6019 N   0  0  0  0  0  0  0  0  0  0  0  0
    7.2869    0.0763   17.7680 N   0  0  0  0  0  0  0  0  0  0  0  0
    6.2160    0.4599   18.4222 N   0  0  0  0  0  0  0  0  0  0  0  0
    5.2317    1.3791   17.8614 C   0  0  0  0  0  0  0  0  0  0  0  0
    6.1572    0.0145   19.6743 N   0  0  0  0  0  0  0  0  0  0  0  0
   12.8927   -2.1332   23.9824 C   0  0  0  0  0  0  0  0  0  0  0  0
  1  2  1  0
  2  3  2  0
  3  4  1  0
  4  5  2  0
  5  6  1  0
  6  7  1  0
  7  8  1  0
  8  9  2  0
  8 10  1  0
 10 11  1  0
 11 12  1  0
 12 13  1  0
 13 14  2  0
 14 15  1  0
 15 16  1  0
 15 17  1  0
  6 18  2  0
 18  2  1  0
 17 12  2  0
M  END
