CVD-0001767|dock_bobby27042020.51|mol2|25|dock3
     RDKit          3D

 28 30  0  0  0  0  0  0  0  0999 V2000
   13.4973    8.9322   24.9951 C   0  0  0  0  0  0  0  0  0  0  0  0
   13.2454    7.5745   24.5097 N   0  0  0  0  0  0  0  0  0  0  0  0
   12.5715    6.6837   25.2704 C   0  0  0  0  0  0  0  0  0  0  0  0
   12.3220    5.4506   24.8350 C   0  0  0  0  0  0  0  0  0  0  0  0
   12.7385    5.0281   23.5817 N   0  0  0  0  0  0  0  0  0  0  0  0
   13.4177    5.9666   22.8242 C   0  0  0  0  0  0  0  0  0  0  0  0
   13.6559    7.1941   23.2800 C   0  0  0  0  0  0  0  0  0  0  0  0
   12.5004    3.7403   23.0815 C   0  0  0  0  0  0  0  0  0  0  0  0
   12.8975    3.4349   21.9641 O   0  0  0  0  0  0  0  0  0  0  0  0
   11.7408    2.7555   23.9499 C   0  0  0  0  0  0  0  0  0  0  0  0
   11.5999    1.3960   23.3036 C   0  0  0  0  0  0  0  0  0  0  0  0
   12.7174    0.6285   23.0158 C   0  0  0  0  0  0  0  0  0  0  0  0
   12.5847   -0.6147   22.4209 C   0  0  0  0  0  0  0  0  0  0  0  0
   11.3281   -1.1038   22.1063 C   0  0  0  0  0  0  0  0  0  0  0  0
   10.1942   -0.3484   22.3858 C   0  0  0  0  0  0  0  0  0  0  0  0
   10.3433    0.8982   22.9833 C   0  0  0  0  0  0  0  0  0  0  0  0
    8.8291   -0.8514   22.0567 C   0  0  0  0  0  0  0  0  0  0  0  0
    7.9278   -0.7805   22.8718 O   0  0  0  0  0  0  0  0  0  0  0  0
    8.5749   -1.4608   20.7014 C   0  0  0  0  0  0  0  0  0  0  0  0
    9.0999   -0.6356   19.6118 N   0  0  0  0  0  0  0  0  0  0  0  0
    8.1139   -0.4044   18.5567 C   0  0  0  0  0  0  0  0  0  0  0  0
    6.9334    0.4138   19.0187 C   0  0  0  0  0  0  0  0  0  0  0  0
    7.0498    1.3359   20.0551 C   0  0  0  0  0  0  0  0  0  0  0  0
    5.9620    2.0855   20.4709 C   0  0  0  0  0  0  0  0  0  0  0  0
    4.7374    1.9278   19.8577 C   0  0  0  0  0  0  0  0  0  0  0  0
    4.5915    1.0192   18.8230 C   0  0  0  0  0  0  0  0  0  0  0  0
    5.6910    0.2913   18.4348 C   0  0  0  0  0  0  0  0  0  0  0  0
    5.5532   -0.5970   17.4238 F   0  0  0  0  0  0  0  0  0  0  0  0
  1  2  1  0
  2  3  1  0
  3  4  2  0
  4  5  1  0
  5  6  1  0
  6  7  2  0
  5  8  1  0
  8  9  2  0
  8 10  1  0
 10 11  1  0
 11 12  2  0
 12 13  1  0
 13 14  2  0
 14 15  1  0
 15 16  2  0
 15 17  1  0
 17 18  2  0
 17 19  1  0
 19 20  1  0
 20 21  1  0
 21 22  1  0
 22 23  2  0
 23 24  1  0
 24 25  2  0
 25 26  1  0
 26 27  2  0
 27 28  1  0
  7  2  1  0
 16 11  1  0
 27 22  1  0
M  END
