CVD-0002476|dock_bobby27042020.91|mol2|19|dock3
     RDKit          3D

 29 32  0  0  0  0  0  0  0  0999 V2000
   13.5934    0.2450   25.6175 F   0  0  0  0  0  0  0  0  0  0  0  0
   13.6034   -0.6674   24.5998 C   0  0  0  0  0  0  0  0  0  0  0  0
   14.1854   -1.8507   24.6211 C   0  0  0  0  0  0  0  0  0  0  0  0
   14.1331   -2.7869   23.4707 C   0  0  0  0  0  0  0  0  0  0  0  0
   13.7225   -2.0437   22.2114 C   0  0  0  0  0  0  0  0  0  0  0  0
   12.5631   -1.1815   22.4030 N   0  0  0  0  0  0  0  0  0  0  0  0
   11.3662   -1.9461   22.7605 C   0  0  0  0  0  0  0  0  0  0  0  0
   10.0966   -1.1792   22.5401 C   0  0  0  0  0  0  0  0  0  0  0  0
    9.5442   -0.4830   23.4730 N   0  0  0  0  0  0  0  0  0  0  0  0
    8.3773    0.1490   23.0488 N   0  0  0  0  0  0  0  0  0  0  0  0
    8.0772   -0.0832   21.8032 C   0  0  0  0  0  0  0  0  0  0  0  0
    9.2349   -1.1246   21.0317 S   0  0  0  0  0  0  0  0  0  0  0  0
    6.8852    0.4815   21.1371 C   0  0  0  0  0  0  0  0  0  0  0  0
    5.9928   -0.4366   20.5735 C   0  0  0  0  0  0  0  0  0  0  0  0
    4.8475   -0.0143   19.9275 C   0  0  0  0  0  0  0  0  0  0  0  0
    4.5679    1.3264   19.8297 C   0  0  0  0  0  0  0  0  0  0  0  0
    5.4251    2.2655   20.3738 C   0  0  0  0  0  0  0  0  0  0  0  0
    6.5930    1.8691   21.0341 C   0  0  0  0  0  0  0  0  0  0  0  0
    7.4998    2.8070   21.6071 N   0  0  0  0  0  0  0  0  0  0  0  0
    8.8772    2.8031   21.6668 C   0  0  0  0  0  0  0  0  0  0  0  0
    9.6021    1.9294   21.2035 O   0  0  0  0  0  0  0  0  0  0  0  0
    9.3503    3.9185   22.3212 N   0  0  0  0  0  0  0  0  0  0  0  0
   10.6776    4.3246   22.6113 C   0  0  0  0  0  0  0  0  0  0  0  0
   11.8001    3.5128   22.4752 C   0  0  0  0  0  0  0  0  0  0  0  0
   13.0478    4.0230   22.7903 C   0  0  0  0  0  0  0  0  0  0  0  0
   13.1426    5.3228   23.2307 C   0  0  0  0  0  0  0  0  0  0  0  0
   12.0871    6.1241   23.3713 N   0  0  0  0  0  0  0  0  0  0  0  0
   10.8876    5.6222   23.0645 C   0  0  0  0  0  0  0  0  0  0  0  0
   12.8643   -0.1684   23.4127 C   0  0  0  0  0  0  0  0  0  0  0  0
  1  2  1  0
  2  3  2  0
  3  4  1  0
  4  5  1  0
  5  6  1  0
  6  7  1  0
  7  8  1  0
  8  9  2  0
  9 10  1  0
 10 11  2  0
 11 12  1  0
 11 13  1  0
 13 14  2  0
 14 15  1  0
 15 16  2  0
 16 17  1  0
 17 18  2  0
 18 19  1  0
 19 20  1  0
 20 21  2  0
 20 22  1  0
 22 23  1  0
 23 24  2  0
 24 25  1  0
 25 26  2  0
 26 27  1  0
 27 28  2  0
  6 29  1  0
 29  2  1  0
 12  8  1  0
 18 13  1  0
 28 23  1  0
M  END
