CVD-0000558|dock_bobby27042020.55|mol2|33|dock1
     RDKit          3D

 24 26  0  0  0  0  0  0  0  0999 V2000
    5.7486   -3.1079   20.1823 O   0  0  0  0  0  0  0  0  0  0  0  0
    6.0601   -2.3156   21.0653 C   0  0  0  0  0  0  0  0  0  0  0  0
    5.6213   -0.8648   21.0371 C   0  0  0  0  0  0  0  0  0  0  0  0
    6.5972    0.1555   20.3958 C   0  0  0  0  0  0  0  0  0  0  0  0
    6.0971    1.5226   20.8553 C   0  0  0  0  0  0  0  0  0  0  0  0
    4.7572    1.8517   20.2278 C   0  0  0  0  0  0  0  0  0  0  0  0
    4.8259    1.7921   18.7095 C   0  0  0  0  0  0  0  0  0  0  0  0
    5.3338    0.4378   18.2421 C   0  0  0  0  0  0  0  0  0  0  0  0
    6.6751    0.0934   18.8769 C   0  0  0  0  0  0  0  0  0  0  0  0
    7.9607    0.0246   20.9238 C   0  0  0  0  0  0  0  0  0  0  0  0
    9.0638   -0.0204   21.3667 C   0  0  0  0  0  0  0  0  0  0  0  0
   10.4241   -0.0494   21.9200 C   0  0  0  0  0  0  0  0  0  0  0  0
   10.4819    0.2450   23.4085 C   0  0  0  0  0  0  0  0  0  0  0  0
   11.9013    0.1337   23.9411 C   0  0  0  0  0  0  0  0  0  0  0  0
   12.4989   -1.2116   23.6010 C   0  0  0  0  0  0  0  0  0  0  0  0
   12.3935   -1.4706   22.1236 C   0  0  0  0  0  0  0  0  0  0  0  0
   10.9962   -1.3849   21.6980 N   0  0  0  0  0  0  0  0  0  0  0  0
    6.8139   -2.6204   22.1495 N   0  0  0  0  0  0  0  0  0  0  0  0
    7.4167   -3.8364   22.5564 C   0  0  0  0  0  0  0  0  0  0  0  0
    6.9743   -5.0950   22.1610 C   0  0  0  0  0  0  0  0  0  0  0  0
    7.6382   -6.2202   22.6186 C   0  0  0  0  0  0  0  0  0  0  0  0
    8.7197   -6.0595   23.4538 C   0  0  0  0  0  0  0  0  0  0  0  0
    9.1663   -4.8676   23.8495 N   0  0  0  0  0  0  0  0  0  0  0  0
    8.5188   -3.7877   23.4023 C   0  0  0  0  0  0  0  0  0  0  0  0
  1  2  2  0
  2  3  1  0
  3  4  1  0
  4  5  1  0
  5  6  1  0
  6  7  1  0
  7  8  1  0
  8  9  1  0
  4 10  1  0
 10 11  3  0
 11 12  1  0
 12 13  1  0
 13 14  1  0
 14 15  1  0
 15 16  1  0
 16 17  1  0
  2 18  1  0
 18 19  1  0
 19 20  2  0
 20 21  1  0
 21 22  2  0
 22 23  1  0
 23 24  2  0
  9  4  1  0
 17 12  1  0
 24 19  1  0
M  END
