CVD-0000372|dock_bobby27042020.41|mol2|38|dock1
     RDKit          3D

 25 27  0  0  0  0  0  0  0  0999 V2000
    8.4915    6.1761   22.2521 C   0  0  0  0  0  0  0  0  0  0  0  0
    9.5011    5.9204   23.3407 C   0  0  0  0  0  0  0  0  0  0  0  0
   10.4888    4.8384   22.9919 C   0  0  0  0  0  0  0  0  0  0  0  0
   10.2087    3.4977   23.1950 C   0  0  0  0  0  0  0  0  0  0  0  0
   11.1724    2.5578   22.8445 C   0  0  0  0  0  0  0  0  0  0  0  0
   12.3472    2.9418   22.3168 N   0  0  0  0  0  0  0  0  0  0  0  0
   12.5083    4.2568   22.1648 C   0  0  0  0  0  0  0  0  0  0  0  0
   11.6550    5.2353   22.4678 N   0  0  0  0  0  0  0  0  0  0  0  0
   10.9351    1.0979   23.0324 C   0  0  0  0  0  0  0  0  0  0  0  0
   11.8996    0.3879   23.7530 C   0  0  0  0  0  0  0  0  0  0  0  0
   11.7586   -0.9669   23.9946 C   0  0  0  0  0  0  0  0  0  0  0  0
   10.6574   -1.6663   23.5332 C   0  0  0  0  0  0  0  0  0  0  0  0
   10.5032   -3.1433   23.8055 C   0  0  0  0  0  0  0  0  0  0  0  0
    9.9545   -3.4267   25.1387 N   0  0  0  0  0  0  0  0  0  0  0  0
    9.8938   -4.8727   25.3713 C   0  0  0  0  0  0  0  0  0  0  0  0
    9.3652   -5.1589   26.7646 C   0  0  0  0  0  0  0  0  0  0  0  0
    8.0396   -4.5619   26.9415 N   0  0  0  0  0  0  0  0  0  0  0  0
    8.0543   -3.1236   26.6572 C   0  0  0  0  0  0  0  0  0  0  0  0
    8.6120   -2.8662   25.2691 C   0  0  0  0  0  0  0  0  0  0  0  0
    6.9608   -5.2748   27.3476 C   0  0  0  0  0  0  0  0  0  0  0  0
    5.6581   -4.5483   27.5100 C   0  0  0  0  0  0  0  0  0  0  0  0
    7.0562   -6.4735   27.5856 O   0  0  0  0  0  0  0  0  0  0  0  0
    9.6977   -0.9779   22.8066 C   0  0  0  0  0  0  0  0  0  0  0  0
    9.8383    0.3735   22.5526 C   0  0  0  0  0  0  0  0  0  0  0  0
    8.5852    1.1074   21.6038 Cl  0  0  0  0  0  0  0  0  0  0  0  0
  1  2  1  0
  2  3  1  0
  3  4  2  0
  4  5  1  0
  5  6  2  0
  6  7  1  0
  7  8  2  0
  5  9  1  0
  9 10  2  0
 10 11  1  0
 11 12  2  0
 12 13  1  0
 13 14  1  0
 14 15  1  0
 15 16  1  0
 16 17  1  0
 17 18  1  0
 18 19  1  0
 17 20  1  0
 20 21  1  0
 20 22  2  0
 12 23  1  0
 23 24  2  0
 24 25  1  0
  8  3  1  0
 24  9  1  0
 19 14  1  0
M  END
