CVD-0003565|dock_bobby27042020.87|mol2|29|dock3
     RDKit          3D

 27 30  0  0  0  0  0  0  0  0999 V2000
   13.4091    5.2393   21.6724 N   0  0  0  0  0  0  0  0  0  0  0  0
   13.7598    4.4723   23.0331 S   0  0  0  0  0  0  0  0  0  0  0  0
   12.9555    5.0531   24.0660 O   0  0  0  0  0  0  0  0  0  0  0  0
   15.1849    4.4898   23.1740 O   0  0  0  0  0  0  0  0  0  0  0  0
   13.2668    2.7840   22.8671 C   0  0  0  0  0  0  0  0  0  0  0  0
   14.1981    1.8194   22.5239 C   0  0  0  0  0  0  0  0  0  0  0  0
   13.7782    0.5092   22.4134 C   0  0  0  0  0  0  0  0  0  0  0  0
   12.4577    0.1255   22.6340 C   0  0  0  0  0  0  0  0  0  0  0  0
   12.1229   -1.3560   22.4528 C   0  0  0  0  0  0  0  0  0  0  0  0
   10.8213   -1.8588   23.1087 C   0  0  0  0  0  0  0  0  0  0  0  0
    9.5315   -1.4526   22.4282 C   0  0  0  0  0  0  0  0  0  0  0  0
    9.4312   -0.0085   22.2633 N   0  0  0  0  0  0  0  0  0  0  0  0
   10.0639    0.8309   23.2672 C   0  0  0  0  0  0  0  0  0  0  0  0
   11.5277    1.1064   22.9794 C   0  0  0  0  0  0  0  0  0  0  0  0
   11.9472    2.4283   23.0917 C   0  0  0  0  0  0  0  0  0  0  0  0
    8.7638    0.5547   21.2333 C   0  0  0  0  0  0  0  0  0  0  0  0
    8.7133    1.7702   21.0928 O   0  0  0  0  0  0  0  0  0  0  0  0
    8.0603   -0.3587   20.2448 C   0  0  0  0  0  0  0  0  0  0  0  0
    7.1176    0.3593   19.3261 C   0  0  0  0  0  0  0  0  0  0  0  0
    7.3451    0.7216   18.0308 C   0  0  0  0  0  0  0  0  0  0  0  0
    6.2516    1.3616   17.5105 N   0  0  0  0  0  0  0  0  0  0  0  0
    5.2867    1.4247   18.4725 C   0  0  0  0  0  0  0  0  0  0  0  0
    4.0643    1.9725   18.3663 N   0  0  0  0  0  0  0  0  0  0  0  0
    3.2899    1.9102   19.4582 C   0  0  0  0  0  0  0  0  0  0  0  0
    3.6807    1.3280   20.6450 C   0  0  0  0  0  0  0  0  0  0  0  0
    4.9451    0.7677   20.7375 C   0  0  0  0  0  0  0  0  0  0  0  0
    5.7895    0.8063   19.6298 C   0  0  0  0  0  0  0  0  0  0  0  0
  1  2  1  0
  2  3  2  0
  2  4  2  0
  2  5  1  0
  5  6  2  0
  6  7  1  0
  7  8  2  0
  8  9  1  0
  9 10  1  0
 10 11  1  0
 11 12  1  0
 12 13  1  0
 13 14  1  0
 14 15  2  0
 12 16  1  0
 16 17  2  0
 16 18  1  0
 18 19  1  0
 19 20  2  0
 20 21  1  0
 21 22  1  0
 22 23  2  0
 23 24  1  0
 24 25  2  0
 25 26  1  0
 26 27  2  0
 15  5  1  0
 27 19  1  0
 14  8  1  0
 27 22  1  0
M  END
