CVD-0001187|dock_bobby27042020.67|mol2|49|dock2
     RDKit          3D

 19 21  0  0  0  0  0  0  0  0999 V2000
   14.0188   -1.9258   20.7203 O   0  0  0  0  0  0  0  0  0  0  0  0
   13.6405   -1.7710   22.0772 C   0  0  0  0  0  0  0  0  0  0  0  0
   12.6287   -0.6675   22.2676 C   0  0  0  0  0  0  0  0  0  0  0  0
   12.9078    0.5481   22.8648 C   0  0  0  0  0  0  0  0  0  0  0  0
   12.0187    1.5303   23.0341 N   0  0  0  0  0  0  0  0  0  0  0  0
   10.7757    1.3218   22.5944 C   0  0  0  0  0  0  0  0  0  0  0  0
   10.3718    0.1450   21.9768 C   0  0  0  0  0  0  0  0  0  0  0  0
    9.0317    0.0108   21.5409 N   0  0  0  0  0  0  0  0  0  0  0  0
    7.7910   -0.4989   21.2624 C   0  0  0  0  0  0  0  0  0  0  0  0
    7.4542   -1.6524   21.5165 O   0  0  0  0  0  0  0  0  0  0  0  0
    6.9583    0.3889   20.6761 N   0  0  0  0  0  0  0  0  0  0  0  0
    5.6148    0.0322   20.2158 C   0  0  0  0  0  0  0  0  0  0  0  0
    5.6877   -1.1160   19.2092 C   0  0  0  0  0  0  0  0  0  0  0  0
    6.4365   -0.7284   17.9281 C   0  0  0  0  0  0  0  0  0  0  0  0
    6.3081    0.7702   17.7665 C   0  0  0  0  0  0  0  0  0  0  0  0
    5.5298    1.6813   16.9639 O   0  0  0  0  0  0  0  0  0  0  0  0
    4.9076    1.0478   18.0974 C   0  0  0  0  0  0  0  0  0  0  0  0
    4.9033    1.2445   19.5980 C   0  0  0  0  0  0  0  0  0  0  0  0
   11.3278   -0.8567   21.8182 C   0  0  0  0  0  0  0  0  0  0  0  0
  1  2  1  0
  2  3  1  0
  3  4  2  0
  4  5  1  0
  5  6  2  0
  6  7  1  0
  7  8  1  0
  8  9  1  0
  9 10  2  0
  9 11  1  0
 12 11  1  0
 12 13  1  0
 13 14  1  0
 15 14  1  0
 15 16  1  0
 16 17  1  0
 17 18  1  0
  7 19  2  0
 19  3  1  0
 18 12  1  0
 17 15  1  0
M  END
