CVD-0001406|dock_bobby27042020.24|mol2|4|dock3
     RDKit          3D

 20 21  0  0  0  0  0  0  0  0999 V2000
    4.0640    1.4424   18.8418 Cl  0  0  0  0  0  0  0  0  0  0  0  0
    5.1023    0.3209   17.9521 C   0  0  0  0  0  0  0  0  0  0  0  0
    5.5412   -0.8573   18.7934 C   0  0  0  0  0  0  0  0  0  0  0  0
    5.1743   -1.9934   18.5129 O   0  0  0  0  0  0  0  0  0  0  0  0
    6.3353   -0.5122   19.8363 N   0  0  0  0  0  0  0  0  0  0  0  0
    6.9440   -1.2925   20.8509 C   0  0  0  0  0  0  0  0  0  0  0  0
    6.7109   -2.6574   21.0023 C   0  0  0  0  0  0  0  0  0  0  0  0
    7.3368   -3.3637   22.0161 C   0  0  0  0  0  0  0  0  0  0  0  0
    8.2006   -2.7279   22.8905 C   0  0  0  0  0  0  0  0  0  0  0  0
    8.4322   -1.3722   22.7363 C   0  0  0  0  0  0  0  0  0  0  0  0
    7.8120   -0.6504   21.7282 C   0  0  0  0  0  0  0  0  0  0  0  0
    9.5222   -0.5429   23.8406 S   0  0  0  0  0  0  0  0  0  0  0  0
    9.7465   -1.3977   24.9649 O   0  0  0  0  0  0  0  0  0  0  0  0
    9.0161    0.7778   24.0519 O   0  0  0  0  0  0  0  0  0  0  0  0
   10.9543   -0.3836   23.0744 N   0  0  0  0  0  0  0  0  0  0  0  0
   11.5553   -1.4981   22.3294 C   0  0  0  0  0  0  0  0  0  0  0  0
   12.9413   -1.8141   22.8556 C   0  0  0  0  0  0  0  0  0  0  0  0
   14.0867   -0.4404   22.7194 S   0  0  0  0  0  0  0  0  0  0  0  0
   13.0853    0.7602   23.6186 C   0  0  0  0  0  0  0  0  0  0  0  0
   11.7068    0.8846   23.0171 C   0  0  0  0  0  0  0  0  0  0  0  0
  1  2  1  0
  2  3  1  0
  3  4  2  0
  3  5  1  0
  5  6  1  0
  6  7  2  0
  7  8  1  0
  8  9  2  0
  9 10  1  0
 10 11  2  0
 10 12  1  0
 12 13  2  0
 12 14  2  0
 12 15  1  0
 15 16  1  0
 16 17  1  0
 17 18  1  0
 18 19  1  0
 19 20  1  0
 11  6  1  0
 20 15  1  0
M  END
