CVD-0000219|dock_bobby27042020.13|mol2|37|dock2
     RDKit          3D

 24 26  0  0  0  0  0  0  0  0999 V2000
    8.6439    6.5787   22.3696 N   0  0  0  0  0  0  0  0  0  0  0  0
    7.1951    6.5329   22.4404 C   0  0  0  0  0  0  0  0  0  0  0  0
    6.5233    7.8173   22.9127 C   0  0  0  0  0  0  0  0  0  0  0  0
    6.5063    7.4695   21.4577 C   0  0  0  0  0  0  0  0  0  0  0  0
    6.5204    5.1964   22.8296 C   0  0  0  0  0  0  0  0  0  0  0  0
    6.9246    4.8237   24.1528 O   0  0  0  0  0  0  0  0  0  0  0  0
    6.9039    4.0679   21.8834 C   0  0  0  0  0  0  0  0  0  0  0  0
    5.9846    2.8558   22.0197 C   0  0  0  0  0  0  0  0  0  0  0  0
    6.3604    1.7200   21.0991 C   0  0  0  0  0  0  0  0  0  0  0  0
    5.5303    1.3426   20.0573 C   0  0  0  0  0  0  0  0  0  0  0  0
    5.8862    0.3020   19.2174 C   0  0  0  0  0  0  0  0  0  0  0  0
    7.0786   -0.3772   19.4054 C   0  0  0  0  0  0  0  0  0  0  0  0
    7.9296   -0.0132   20.4465 C   0  0  0  0  0  0  0  0  0  0  0  0
    9.1677   -0.6521   20.7116 N   0  0  0  0  0  0  0  0  0  0  0  0
    9.8782   -0.7886   21.8825 C   0  0  0  0  0  0  0  0  0  0  0  0
    9.5215   -0.3418   22.9677 O   0  0  0  0  0  0  0  0  0  0  0  0
   11.0435   -1.4921   21.6803 N   0  0  0  0  0  0  0  0  0  0  0  0
   12.0652   -1.8632   22.5903 C   0  0  0  0  0  0  0  0  0  0  0  0
   11.8413   -2.2652   23.9039 C   0  0  0  0  0  0  0  0  0  0  0  0
   12.9205   -2.6049   24.7016 C   0  0  0  0  0  0  0  0  0  0  0  0
   14.1877   -2.5350   24.1705 C   0  0  0  0  0  0  0  0  0  0  0  0
   14.4336   -2.1540   22.9174 N   0  0  0  0  0  0  0  0  0  0  0  0
   13.3854   -1.8283   22.1557 C   0  0  0  0  0  0  0  0  0  0  0  0
    7.5548    1.0354   21.2805 C   0  0  0  0  0  0  0  0  0  0  0  0
  1  2  1  0
  2  3  1  0
  3  4  1  0
  2  5  1  0
  5  6  1  0
  5  7  1  0
  7  8  1  0
  8  9  1  0
  9 10  2  0
 10 11  1  0
 11 12  2  0
 12 13  1  0
 13 14  1  0
 14 15  1  0
 15 16  2  0
 15 17  1  0
 17 18  1  0
 18 19  2  0
 19 20  1  0
 20 21  2  0
 21 22  1  0
 22 23  2  0
 13 24  2  0
  4  2  1  0
 24  9  1  0
 23 18  1  0
M  END
