CVD-0000726|dock_bobby27042020.69|mol2|22|dock3
     RDKit          3D

 25 27  0  0  0  0  0  0  0  0999 V2000
   13.8891    4.8535   22.5770 N   0  0  0  0  0  0  0  0  0  0  0  0
   12.7649    4.1430   23.1870 C   0  0  0  0  0  0  0  0  0  0  0  0
   12.2303    3.0424   22.3149 C   0  0  0  0  0  0  0  0  0  0  0  0
   11.0413    2.4268   22.8867 N   0  0  0  0  0  0  0  0  0  0  0  0
   10.0528    1.9563   22.1232 C   0  0  0  0  0  0  0  0  0  0  0  0
   10.1078    2.0249   20.8982 O   0  0  0  0  0  0  0  0  0  0  0  0
    8.8416    1.3274   22.7929 C   0  0  0  0  0  0  0  0  0  0  0  0
    7.7055    1.2317   21.8003 C   0  0  0  0  0  0  0  0  0  0  0  0
    7.3242   -0.2293   21.8117 C   0  0  0  0  0  0  0  0  0  0  0  0
    6.2420   -0.7802   20.9140 C   0  0  0  0  0  0  0  0  0  0  0  0
    5.9858    0.0673   19.6883 C   0  0  0  0  0  0  0  0  0  0  0  0
    4.9933    1.0329   19.6733 C   0  0  0  0  0  0  0  0  0  0  0  0
    4.7890    1.7928   18.5350 C   0  0  0  0  0  0  0  0  0  0  0  0
    5.5907    1.5611   17.4406 C   0  0  0  0  0  0  0  0  0  0  0  0
    6.5552    0.6398   17.4248 N   0  0  0  0  0  0  0  0  0  0  0  0
    6.7339   -0.0817   18.5356 C   0  0  0  0  0  0  0  0  0  0  0  0
    8.0493   -0.9203   22.6994 C   0  0  0  0  0  0  0  0  0  0  0  0
    9.0841   -0.0486   23.3698 C   0  0  0  0  0  0  0  0  0  0  0  0
   10.5327   -0.4857   23.2027 C   0  0  0  0  0  0  0  0  0  0  0  0
   10.9829   -0.9373   21.9694 C   0  0  0  0  0  0  0  0  0  0  0  0
   12.2952   -1.3428   21.7947 C   0  0  0  0  0  0  0  0  0  0  0  0
   13.1827   -1.3026   22.8559 C   0  0  0  0  0  0  0  0  0  0  0  0
   12.7327   -0.8526   24.0773 C   0  0  0  0  0  0  0  0  0  0  0  0
   13.8380   -0.7961   25.4218 Cl  0  0  0  0  0  0  0  0  0  0  0  0
   11.4276   -0.4446   24.2644 C   0  0  0  0  0  0  0  0  0  0  0  0
  1  2  1  0
  2  3  1  0
  3  4  1  0
  4  5  1  0
  5  6  2  0
  7  5  1  0
  7  8  1  0
  8  9  1  0
  9 10  1  0
 10 11  1  0
 11 12  2  0
 12 13  1  0
 13 14  2  0
 14 15  1  0
 15 16  2  0
  9 17  2  0
 17 18  1  0
 18 19  1  0
 19 20  2  0
 20 21  1  0
 21 22  2  0
 22 23  1  0
 23 24  1  0
 23 25  2  0
 18  7  1  0
 25 19  1  0
 16 11  1  0
M  END
