CVD-0003839|dock_bobby27042020.72|mol2|32|dock1
     RDKit          3D

 22 24  0  0  0  0  0  0  0  0999 V2000
   13.6937    5.6370   21.2705 N   0  0  0  0  0  0  0  0  0  0  0  0
   13.4520    5.1459   22.7750 S   0  0  0  0  0  0  0  0  0  0  0  0
   12.7004    6.1686   23.4386 O   0  0  0  0  0  0  0  0  0  0  0  0
   14.7271    4.7689   23.3072 O   0  0  0  0  0  0  0  0  0  0  0  0
   12.4464    3.6934   22.7353 C   0  0  0  0  0  0  0  0  0  0  0  0
   13.0277    2.4482   22.8952 C   0  0  0  0  0  0  0  0  0  0  0  0
   12.2355    1.3142   22.8651 C   0  0  0  0  0  0  0  0  0  0  0  0
   10.8589    1.4021   22.6808 C   0  0  0  0  0  0  0  0  0  0  0  0
   10.2963    2.6658   22.5290 C   0  0  0  0  0  0  0  0  0  0  0  0
   11.0797    3.8060   22.5528 C   0  0  0  0  0  0  0  0  0  0  0  0
   10.0704    0.2597   22.6505 N   0  0  0  0  0  0  0  0  0  0  0  0
    8.7327    0.2307   23.2208 C   0  0  0  0  0  0  0  0  0  0  0  0
    8.5364   -1.0388   24.0335 C   0  0  0  0  0  0  0  0  0  0  0  0
    8.8717   -2.2808   23.2688 C   0  0  0  0  0  0  0  0  0  0  0  0
   10.2703   -2.1673   22.6831 C   0  0  0  0  0  0  0  0  0  0  0  0
   10.4144   -0.9029   21.8408 C   0  0  0  0  0  0  0  0  0  0  0  0
    8.7514   -3.4951   24.1051 N   0  0  0  0  0  0  0  0  0  0  0  0
    9.2388   -3.5210   25.4861 C   0  0  0  0  0  0  0  0  0  0  0  0
    9.5479   -4.9557   25.8726 C   0  0  0  0  0  0  0  0  0  0  0  0
    8.3321   -5.8289   25.7467 C   0  0  0  0  0  0  0  0  0  0  0  0
    7.7231   -5.6935   24.3613 C   0  0  0  0  0  0  0  0  0  0  0  0
    7.5056   -4.2376   24.0034 C   0  0  0  0  0  0  0  0  0  0  0  0
  1  2  1  0
  2  3  2  0
  2  4  2  0
  2  5  1  0
  5  6  2  0
  6  7  1  0
  7  8  2  0
  8  9  1  0
  9 10  2  0
  8 11  1  0
 11 12  1  0
 12 13  1  0
 13 14  1  0
 14 15  1  0
 15 16  1  0
 14 17  1  0
 17 18  1  0
 18 19  1  0
 19 20  1  0
 20 21  1  0
 21 22  1  0
 10  5  1  0
 16 11  1  0
 22 17  1  0
M  END
