CVD-0002833|dock_bobby27042020.4|mol2|20|dock2
     RDKit          3D

 25 27  0  0  0  0  0  0  0  0999 V2000
   13.2672    4.2209   22.3344 C   0  0  0  0  0  0  0  0  0  0  0  0
   12.0446    3.3923   22.6449 C   0  0  0  0  0  0  0  0  0  0  0  0
   10.8957    3.9814   23.1499 C   0  0  0  0  0  0  0  0  0  0  0  0
    9.7763    3.2182   23.4363 C   0  0  0  0  0  0  0  0  0  0  0  0
    9.7966    1.8511   23.2205 C   0  0  0  0  0  0  0  0  0  0  0  0
   10.9357    1.2389   22.7189 C   0  0  0  0  0  0  0  0  0  0  0  0
   12.0458    2.0210   22.4368 C   0  0  0  0  0  0  0  0  0  0  0  0
   10.9714   -0.2611   22.4731 C   0  0  0  0  0  0  0  0  0  0  0  0
   11.8759   -0.9542   23.3950 N   0  0  0  0  0  0  0  0  0  0  0  0
   12.2127   -0.1525   24.5742 C   0  0  0  0  0  0  0  0  0  0  0  0
   12.9662   -0.9740   25.5961 C   0  0  0  0  0  0  0  0  0  0  0  0
   14.2241   -1.5799   25.0107 C   0  0  0  0  0  0  0  0  0  0  0  0
   14.9320   -2.4106   25.9349 O   0  0  0  0  0  0  0  0  0  0  0  0
   13.8457   -2.3531   23.7533 C   0  0  0  0  0  0  0  0  0  0  0  0
   13.0847   -1.4803   22.7734 C   0  0  0  0  0  0  0  0  0  0  0  0
    9.6401   -0.8592   22.6010 N   0  0  0  0  0  0  0  0  0  0  0  0
    8.8820   -0.7448   21.3442 C   0  0  0  0  0  0  0  0  0  0  0  0
    7.4976   -1.3183   21.4995 C   0  0  0  0  0  0  0  0  0  0  0  0
    7.5621   -2.7142   21.9435 N   0  0  0  0  0  0  0  0  0  0  0  0
    8.3664   -2.8802   23.1527 C   0  0  0  0  0  0  0  0  0  0  0  0
    9.7356   -2.2804   22.9377 C   0  0  0  0  0  0  0  0  0  0  0  0
    6.8603   -3.7512   21.4286 C   0  0  0  0  0  0  0  0  0  0  0  0
    6.0694   -3.5917   20.5072 O   0  0  0  0  0  0  0  0  0  0  0  0
    7.0779   -5.1339   22.0132 C   0  0  0  0  0  0  0  0  0  0  0  0
    6.0964   -6.3510   21.1870 Cl  0  0  0  0  0  0  0  0  0  0  0  0
  1  2  1  0
  2  3  2  0
  3  4  1  0
  4  5  2  0
  5  6  1  0
  6  7  2  0
  6  8  1  0
  8  9  1  0
  9 10  1  0
 10 11  1  0
 11 12  1  0
 12 13  1  0
 12 14  1  0
 14 15  1  0
  8 16  1  0
 16 17  1  0
 17 18  1  0
 18 19  1  0
 19 20  1  0
 20 21  1  0
 19 22  1  0
 22 23  2  0
 22 24  1  0
 24 25  1  0
  7  2  1  0
 15  9  1  0
 21 16  1  0
M  END
