CVD-0000898|dock_bobby27042020.25|mol2|40|dock2
     RDKit          3D

 26 28  0  0  0  0  0  0  0  0999 V2000
   13.4538    6.2186   23.2399 N   0  0  0  0  0  0  0  0  0  0  0  0
   14.0214    4.8845   22.5608 S   0  0  0  0  0  0  0  0  0  0  0  0
   15.0799    4.4016   23.3959 O   0  0  0  0  0  0  0  0  0  0  0  0
   14.3068    5.1946   21.1920 O   0  0  0  0  0  0  0  0  0  0  0  0
   12.7434    3.6640   22.5701 C   0  0  0  0  0  0  0  0  0  0  0  0
   13.0679    2.3286   22.7417 C   0  0  0  0  0  0  0  0  0  0  0  0
   12.0611    1.3796   22.7431 C   0  0  0  0  0  0  0  0  0  0  0  0
   10.7307    1.7392   22.5722 C   0  0  0  0  0  0  0  0  0  0  0  0
   10.4316    3.0837   22.4004 C   0  0  0  0  0  0  0  0  0  0  0  0
   11.4239    4.0477   22.3976 C   0  0  0  0  0  0  0  0  0  0  0  0
    9.6250    0.7044   22.5637 C   0  0  0  0  0  0  0  0  0  0  0  0
   10.1201   -0.6765   22.1784 C   0  0  0  0  0  0  0  0  0  0  0  0
    8.8892   -1.4503   21.7403 C   0  0  0  0  0  0  0  0  0  0  0  0
    8.1372   -0.5618   20.7643 C   0  0  0  0  0  0  0  0  0  0  0  0
    6.6595   -0.7919   20.4820 C   0  0  0  0  0  0  0  0  0  0  0  0
    5.9091    0.4574   20.3077 N   0  0  0  0  0  0  0  0  0  0  0  0
    5.2023    0.4312   19.0184 C   0  0  0  0  0  0  0  0  0  0  0  0
    4.4081    1.7025   18.8110 C   0  0  0  0  0  0  0  0  0  0  0  0
    3.4203    1.8514   19.8704 N   0  0  0  0  0  0  0  0  0  0  0  0
    4.1179    1.9038   21.1547 C   0  0  0  0  0  0  0  0  0  0  0  0
    4.9231    0.6436   21.3789 C   0  0  0  0  0  0  0  0  0  0  0  0
    2.4576    2.9425   19.6949 C   0  0  0  0  0  0  0  0  0  0  0  0
    2.8878    4.1202   20.3324 O   0  0  0  0  0  0  0  0  0  0  0  0
    1.1074    2.5632   20.2603 C   0  0  0  0  0  0  0  0  0  0  0  0
   -0.0504    3.9058   20.0402 Cl  0  0  0  0  0  0  0  0  0  0  0  0
    8.3156    1.1331   21.3821 S   0  0  0  0  0  0  0  0  0  0  0  0
  1  2  1  0
  2  3  2  0
  2  4  2  0
  2  5  1  0
  5  6  2  0
  6  7  1  0
  7  8  2  0
  8  9  1  0
  9 10  2  0
  8 11  1  0
 11 12  1  0
 12 13  1  0
 13 14  1  0
 14 15  1  0
 15 16  1  0
 16 17  1  0
 17 18  1  0
 18 19  1  0
 19 20  1  0
 20 21  1  0
 19 22  1  0
 22 23  1  0
 22 24  1  0
 24 25  1  0
 14 26  1  0
 10  5  1  0
 26 11  1  0
 21 16  1  0
M  END
