CVD-0000026|dock_bobby27042020.100|mol2|2|dock1
     RDKit          3D

 27 29  0  0  0  0  0  0  0  0999 V2000
   13.9507   -1.1493   22.6840 C   0  0  0  0  0  0  0  0  0  0  0  0
   12.5991   -0.9538   23.3268 C   0  0  0  0  0  0  0  0  0  0  0  0
   12.4944   -0.4681   24.6196 C   0  0  0  0  0  0  0  0  0  0  0  0
   11.2479   -0.3042   25.1676 C   0  0  0  0  0  0  0  0  0  0  0  0
   11.1601    0.1790   26.4361 F   0  0  0  0  0  0  0  0  0  0  0  0
   10.0844   -0.6032   24.5037 C   0  0  0  0  0  0  0  0  0  0  0  0
   10.1734   -1.0905   23.2029 C   0  0  0  0  0  0  0  0  0  0  0  0
   11.4351   -1.2497   22.6328 C   0  0  0  0  0  0  0  0  0  0  0  0
    8.9728   -1.4105   22.4699 N   0  0  0  0  0  0  0  0  0  0  0  0
    8.3060   -2.6668   22.8579 C   0  0  0  0  0  0  0  0  0  0  0  0
    7.3491   -3.1223   21.7841 C   0  0  0  0  0  0  0  0  0  0  0  0
    6.4767   -1.9668   21.3865 C   0  0  0  0  0  0  0  0  0  0  0  0
    7.3347   -0.8659   20.9254 N   0  0  0  0  0  0  0  0  0  0  0  0
    8.4859   -0.5886   21.5366 C   0  0  0  0  0  0  0  0  0  0  0  0
    9.1041    0.4245   21.2508 O   0  0  0  0  0  0  0  0  0  0  0  0
    6.7979   -0.0881   19.8379 C   0  0  0  0  0  0  0  0  0  0  0  0
    7.4819   -0.1156   18.6313 C   0  0  0  0  0  0  0  0  0  0  0  0
    7.0643    0.5189   17.5321 N   0  0  0  0  0  0  0  0  0  0  0  0
    5.9242    1.2012   17.6194 C   0  0  0  0  0  0  0  0  0  0  0  0
    5.1972    1.3190   18.7852 C   0  0  0  0  0  0  0  0  0  0  0  0
    5.6438    0.6930   19.9456 C   0  0  0  0  0  0  0  0  0  0  0  0
    4.8847    0.9104   21.2293 C   0  0  0  0  0  0  0  0  0  0  0  0
    6.5163   -4.2183   22.2797 N   0  0  0  0  0  0  0  0  0  0  0  0
    6.1557   -5.4087   22.7744 C   0  0  0  0  0  0  0  0  0  0  0  0
    6.9823   -6.2891   23.0523 O   0  0  0  0  0  0  0  0  0  0  0  0
    4.7000   -5.5991   22.9660 C   0  0  0  0  0  0  0  0  0  0  0  0
    4.1996   -6.6995   23.4620 C   0  0  0  0  0  0  0  0  0  0  0  0
  1  2  1  0
  2  3  2  0
  3  4  1  0
  4  5  1  0
  4  6  2  0
  6  7  1  0
  7  8  2  0
  7  9  1  0
  9 10  1  0
 10 11  1  0
 11 12  1  0
 12 13  1  0
 13 14  1  0
 14 15  2  0
 13 16  1  0
 16 17  2  0
 17 18  1  0
 18 19  2  0
 19 20  1  0
 20 21  2  0
 21 22  1  0
 11 23  1  0
 23 24  1  0
 24 25  2  0
 24 26  1  0
 26 27  2  0
  8  2  1  0
 14  9  1  0
 21 16  1  0
M  END
