CVD-0003668|dock_bobby27042020.87|mol2|14|dock3
     RDKit          3D

 18 18  0  0  0  0  0  0  0  0999 V2000
    7.8913   -0.5176   18.5809 C   0  0  0  0  0  0  0  0  0  0  0  0
    6.5082   -0.5794   19.2133 C   0  0  0  0  0  0  0  0  0  0  0  0
    5.4649   -0.0286   18.2518 C   0  0  0  0  0  0  0  0  0  0  0  0
    6.1707   -1.9939   19.5998 C   0  0  0  0  0  0  0  0  0  0  0  0
    5.4645   -2.9062   18.9275 C   0  0  0  0  0  0  0  0  0  0  0  0
    5.4241   -4.0488   19.6780 O   0  0  0  0  0  0  0  0  0  0  0  0
    6.1261   -3.7461   20.7828 C   0  0  0  0  0  0  0  0  0  0  0  0
    6.6022   -2.5311   20.8023 N   0  0  0  0  0  0  0  0  0  0  0  0
    6.2489   -4.7042   21.7080 N   0  0  0  0  0  0  0  0  0  0  0  0
    5.6448   -6.0122   21.5150 C   0  0  0  0  0  0  0  0  0  0  0  0
    6.9081   -4.4471   22.9917 C   0  0  0  0  0  0  0  0  0  0  0  0
    8.3803   -4.8220   22.9543 C   0  0  0  0  0  0  0  0  0  0  0  0
    9.0501   -4.5644   24.2343 N   0  0  0  0  0  0  0  0  0  0  0  0
    9.6575   -3.2515   24.3779 C   0  0  0  0  0  0  0  0  0  0  0  0
    9.1500   -5.5018   25.1966 C   0  0  0  0  0  0  0  0  0  0  0  0
    8.6809   -6.6235   25.0509 O   0  0  0  0  0  0  0  0  0  0  0  0
    9.8657   -5.1111   26.4757 C   0  0  0  0  0  0  0  0  0  0  0  0
    8.8144   -4.1448   27.5188 Cl  0  0  0  0  0  0  0  0  0  0  0  0
  1  2  1  0
  2  3  1  0
  2  4  1  0
  4  5  2  0
  5  6  1  0
  6  7  1  0
  7  8  2  0
  7  9  1  0
  9 10  1  0
  9 11  1  0
 11 12  1  0
 12 13  1  0
 13 14  1  0
 13 15  1  0
 15 16  2  0
 15 17  1  0
 17 18  1  0
  8  4  1  0
M  END
