CVD-0002762|dock_bobby27042020.47|mol2|25|dock1
     RDKit          3D

 19 20  0  0  0  0  0  0  0  0999 V2000
    6.4157   -5.4148   21.1745 C   0  0  0  0  0  0  0  0  0  0  0  0
    6.3863   -4.0352   20.8399 O   0  0  0  0  0  0  0  0  0  0  0  0
    6.1439   -3.1840   21.9406 C   0  0  0  0  0  0  0  0  0  0  0  0
    6.2190   -1.7392   21.5115 C   0  0  0  0  0  0  0  0  0  0  0  0
    7.6302   -1.2441   21.3166 C   0  0  0  0  0  0  0  0  0  0  0  0
    8.2934   -1.2268   22.5799 O   0  0  0  0  0  0  0  0  0  0  0  0
    9.6575   -1.6631   22.5593 C   0  0  0  0  0  0  0  0  0  0  0  0
   10.5150   -0.7557   21.6622 C   0  0  0  0  0  0  0  0  0  0  0  0
   11.6508   -0.2472   22.5480 C   0  0  0  0  0  0  0  0  0  0  0  0
   11.4387   -0.6997   23.8140 C   0  0  0  0  0  0  0  0  0  0  0  0
   10.2954   -1.5713   23.9882 C   0  0  0  0  0  0  0  0  0  0  0  0
   12.5629   -1.4123   24.5374 C   0  0  0  0  0  0  0  0  0  0  0  0
   13.1045   -2.6949   24.2243 C   0  0  0  0  0  0  0  0  0  0  0  0
   14.1198   -3.0897   25.0426 C   0  0  0  0  0  0  0  0  0  0  0  0
   14.4237   -1.8941   26.2091 S   0  0  0  0  0  0  0  0  0  0  0  0
   13.2058   -0.8701   25.6114 C   0  0  0  0  0  0  0  0  0  0  0  0
   13.0312   -0.5907   22.0239 C   0  0  0  0  0  0  0  0  0  0  0  0
   14.0305    0.1149   22.5287 N   0  0  0  0  0  0  0  0  0  0  0  0
   13.2040   -1.4744   21.1814 O   0  0  0  0  0  0  0  0  0  0  0  0
  1  2  1  0
  2  3  1  0
  3  4  1  0
  4  5  1  0
  5  6  1  0
  7  6  1  0
  7  8  1  0
  8  9  1  0
  9 10  1  0
 10 11  1  0
 10 12  1  0
 12 13  1  0
 13 14  2  0
 14 15  1  0
 15 16  1  0
  9 17  1  0
 17 18  1  0
 17 19  2  0
 11  7  1  0
 16 12  2  0
M  END
