CVD-0001219|dock_bobby27042020.10|mol2|24|dock2
     RDKit          3D

 25 27  0  0  0  0  0  0  0  0999 V2000
   13.8355    6.1879   22.2702 C   0  0  0  0  0  0  0  0  0  0  0  0
   12.9712    4.9651   22.4592 C   0  0  0  0  0  0  0  0  0  0  0  0
   11.5928    5.0786   22.5737 C   0  0  0  0  0  0  0  0  0  0  0  0
   10.7597    3.9762   22.7532 C   0  0  0  0  0  0  0  0  0  0  0  0
    9.2703    4.1680   22.8660 C   0  0  0  0  0  0  0  0  0  0  0  0
   11.3334    2.6987   22.8199 C   0  0  0  0  0  0  0  0  0  0  0  0
   10.6716    1.4887   22.9913 N   0  0  0  0  0  0  0  0  0  0  0  0
   11.5189    0.5011   23.0074 C   0  0  0  0  0  0  0  0  0  0  0  0
   13.2074    0.9206   22.8177 S   0  0  0  0  0  0  0  0  0  0  0  0
   12.7232    2.5870   22.7054 C   0  0  0  0  0  0  0  0  0  0  0  0
   13.5343    3.7002   22.5283 C   0  0  0  0  0  0  0  0  0  0  0  0
   11.1435   -0.9307   23.1739 C   0  0  0  0  0  0  0  0  0  0  0  0
   11.9961   -1.7785   23.4337 O   0  0  0  0  0  0  0  0  0  0  0  0
    9.8479   -1.2011   23.0218 N   0  0  0  0  0  0  0  0  0  0  0  0
    9.3418   -2.5499   23.1557 C   0  0  0  0  0  0  0  0  0  0  0  0
    8.5795   -2.7742   24.4473 C   0  0  0  0  0  0  0  0  0  0  0  0
    7.9487   -1.8523   24.9532 O   0  0  0  0  0  0  0  0  0  0  0  0
    8.6758   -4.0393   24.9255 N   0  0  0  0  0  0  0  0  0  0  0  0
    8.1373   -4.6194   26.1079 C   0  0  0  0  0  0  0  0  0  0  0  0
    6.9805   -4.1695   26.7448 C   0  0  0  0  0  0  0  0  0  0  0  0
    6.4753   -4.7166   27.8548 N   0  0  0  0  0  0  0  0  0  0  0  0
    7.1196   -5.7542   28.3809 C   0  0  0  0  0  0  0  0  0  0  0  0
    8.2697   -6.2795   27.8359 C   0  0  0  0  0  0  0  0  0  0  0  0
    8.8061   -5.7184   26.6808 C   0  0  0  0  0  0  0  0  0  0  0  0
   10.0639   -6.3189   26.1071 C   0  0  0  0  0  0  0  0  0  0  0  0
  1  2  1  0
  2  3  2  0
  3  4  1  0
  4  5  1  0
  4  6  2  0
  6  7  1  0
  7  8  2  0
  8  9  1  0
  9 10  1  0
 10 11  2  0
  8 12  1  0
 12 13  2  0
 12 14  1  0
 14 15  1  0
 15 16  1  0
 16 17  2  0
 16 18  1  0
 18 19  1  0
 19 20  2  0
 20 21  1  0
 21 22  2  0
 22 23  1  0
 23 24  2  0
 24 25  1  0
 11  2  1  0
 24 19  1  0
 10  6  1  0
M  END
