CVD-0001802|dock_bobby27042020.51|mol2|20|dock1
     RDKit          3D

 15 16  0  0  0  0  0  0  0  0999 V2000
    9.7941   -1.5929   22.3332 C   0  0  0  0  0  0  0  0  0  0  0  0
   10.1815   -0.1368   22.3657 C   0  0  0  0  0  0  0  0  0  0  0  0
    9.3474    0.7979   21.7584 C   0  0  0  0  0  0  0  0  0  0  0  0
    9.6569    2.1398   21.8267 C   0  0  0  0  0  0  0  0  0  0  0  0
   10.7274    2.6143   22.4604 N   0  0  0  0  0  0  0  0  0  0  0  0
   11.5474    1.7236   23.0260 C   0  0  0  0  0  0  0  0  0  0  0  0
   11.3326    0.3523   22.9890 C   0  0  0  0  0  0  0  0  0  0  0  0
   12.3003   -0.5419   23.5952 N   0  0  0  0  0  0  0  0  0  0  0  0
   12.9119   -1.4783   22.7467 C   0  0  0  0  0  0  0  0  0  0  0  0
   12.5185   -1.6283   21.5962 O   0  0  0  0  0  0  0  0  0  0  0  0
   14.0800   -2.2172   23.3242 C   0  0  0  0  0  0  0  0  0  0  0  0
   13.8603   -2.5050   24.7739 C   0  0  0  0  0  0  0  0  0  0  0  0
   13.4817   -1.2744   25.4417 N   0  0  0  0  0  0  0  0  0  0  0  0
   12.6757   -0.3613   24.9215 C   0  0  0  0  0  0  0  0  0  0  0  0
   12.2798    0.5913   25.5828 O   0  0  0  0  0  0  0  0  0  0  0  0
  1  2  1  0
  2  3  2  0
  3  4  1  0
  4  5  2  0
  5  6  1  0
  6  7  2  0
  7  8  1  0
  8  9  1  0
  9 10  2  0
  9 11  1  0
 11 12  1  0
 12 13  1  0
 13 14  1  0
 14 15  2  0
  7  2  1  0
 14  8  1  0
M  END
