CVD-0001705|dock_bobby27042020.37|mol2|23|dock3
     RDKit          3D

 20 21  0  0  0  0  0  0  0  0999 V2000
   11.9557    5.3178   22.6782 F   0  0  0  0  0  0  0  0  0  0  0  0
   13.2695    5.0918   22.9524 C   0  0  0  0  0  0  0  0  0  0  0  0
   14.1914    6.1612   21.9178 Cl  0  0  0  0  0  0  0  0  0  0  0  0
   13.6210    3.6454   22.6530 C   0  0  0  0  0  0  0  0  0  0  0  0
   14.5732    3.3953   21.9198 O   0  0  0  0  0  0  0  0  0  0  0  0
   12.8084    2.7419   23.2547 N   0  0  0  0  0  0  0  0  0  0  0  0
   12.8068    1.3251   23.2256 C   0  0  0  0  0  0  0  0  0  0  0  0
   13.9211    0.5713   22.8709 C   0  0  0  0  0  0  0  0  0  0  0  0
   13.8462   -0.8106   22.8783 C   0  0  0  0  0  0  0  0  0  0  0  0
   12.6718   -1.4519   23.2319 C   0  0  0  0  0  0  0  0  0  0  0  0
   11.5353   -0.7197   23.5654 C   0  0  0  0  0  0  0  0  0  0  0  0
   11.6295    0.6684   23.5690 C   0  0  0  0  0  0  0  0  0  0  0  0
   10.2087   -1.3209   23.9439 C   0  0  0  0  0  0  0  0  0  0  0  0
    9.8580   -1.1280   25.0954 O   0  0  0  0  0  0  0  0  0  0  0  0
    9.4054   -2.0346   23.1175 N   0  0  0  0  0  0  0  0  0  0  0  0
    8.0988   -2.5896   23.4781 C   0  0  0  0  0  0  0  0  0  0  0  0
    6.9683   -1.7450   22.9473 C   0  0  0  0  0  0  0  0  0  0  0  0
    6.9870   -1.6074   21.1409 S   0  0  0  0  0  0  0  0  0  0  0  0
    8.7085   -1.1056   20.9515 C   0  0  0  0  0  0  0  0  0  0  0  0
    9.6767   -2.0033   21.6764 C   0  0  0  0  0  0  0  0  0  0  0  0
  1  2  1  0
  2  3  1  0
  2  4  1  0
  4  5  2  0
  4  6  1  0
  6  7  1  0
  7  8  2  0
  8  9  1  0
  9 10  2  0
 10 11  1  0
 11 12  2  0
 11 13  1  0
 13 14  2  0
 13 15  1  0
 15 16  1  0
 16 17  1  0
 17 18  1  0
 18 19  1  0
 19 20  1  0
 12  7  1  0
 20 15  1  0
M  END
