CVD-0000634|dock_bobby27042020.40|mol2|48|dock1
     RDKit          3D

 21 23  0  0  0  0  0  0  0  0999 V2000
    8.6775   -0.3368   22.4979 O   0  0  0  0  0  0  0  0  0  0  0  0
    9.3145   -0.8894   21.6075 C   0  0  0  0  0  0  0  0  0  0  0  0
   10.7155   -1.4143   21.8445 C   0  0  0  0  0  0  0  0  0  0  0  0
   11.3094   -1.1833   23.2583 C   0  0  0  0  0  0  0  0  0  0  0  0
   11.4251    0.3367   23.5678 C   0  0  0  0  0  0  0  0  0  0  0  0
   12.8766    0.6835   23.4944 C   0  0  0  0  0  0  0  0  0  0  0  0
   13.6342   -0.5498   23.3323 C   0  0  0  0  0  0  0  0  0  0  0  0
   12.7537   -1.7307   23.3034 C   0  0  0  0  0  0  0  0  0  0  0  0
   10.3950   -1.9471   24.2206 C   0  0  0  0  0  0  0  0  0  0  0  0
    9.3815   -1.3240   24.9394 C   0  0  0  0  0  0  0  0  0  0  0  0
    8.5808   -2.0670   25.7889 C   0  0  0  0  0  0  0  0  0  0  0  0
    8.8185   -3.4179   25.8986 C   0  0  0  0  0  0  0  0  0  0  0  0
    9.7839   -4.0448   25.2252 N   0  0  0  0  0  0  0  0  0  0  0  0
   10.5433   -3.3077   24.4092 C   0  0  0  0  0  0  0  0  0  0  0  0
    8.8701   -1.0973   20.3442 N   0  0  0  0  0  0  0  0  0  0  0  0
    7.6406   -0.7680   19.7217 C   0  0  0  0  0  0  0  0  0  0  0  0
    6.4914   -0.4025   20.4155 C   0  0  0  0  0  0  0  0  0  0  0  0
    5.3410   -0.1000   19.7074 C   0  0  0  0  0  0  0  0  0  0  0  0
    5.3690   -0.1704   18.3337 C   0  0  0  0  0  0  0  0  0  0  0  0
    6.4544   -0.5171   17.6419 N   0  0  0  0  0  0  0  0  0  0  0  0
    7.5595   -0.8071   18.3345 C   0  0  0  0  0  0  0  0  0  0  0  0
  1  2  2  0
  2  3  1  0
  3  4  1  0
  4  5  1  0
  5  6  1  0
  6  7  1  0
  7  8  1  0
  4  9  1  0
  9 10  2  0
 10 11  1  0
 11 12  2  0
 12 13  1  0
 13 14  2  0
  2 15  1  0
 15 16  1  0
 16 17  2  0
 17 18  1  0
 18 19  2  0
 19 20  1  0
 20 21  2  0
  8  4  1  0
 14  9  1  0
 21 16  1  0
M  END
