CVD-0001592|dock_bobby27042020.66|mol2|36|dock2
     RDKit          3D

 17 18  0  0  0  0  0  0  0  0999 V2000
    6.7149   -5.5221   21.2380 C   0  0  0  0  0  0  0  0  0  0  0  0
    6.5148   -4.0997   20.8038 C   0  0  0  0  0  0  0  0  0  0  0  0
    5.7706   -3.8164   19.8719 O   0  0  0  0  0  0  0  0  0  0  0  0
    7.1728   -3.1293   21.4838 N   0  0  0  0  0  0  0  0  0  0  0  0
    7.0424   -1.7065   21.1621 C   0  0  0  0  0  0  0  0  0  0  0  0
    8.4085   -1.0884   20.9289 C   0  0  0  0  0  0  0  0  0  0  0  0
    9.2539   -1.2644   22.1134 N   0  0  0  0  0  0  0  0  0  0  0  0
   10.5441   -0.6427   21.9109 C   0  0  0  0  0  0  0  0  0  0  0  0
   11.4007   -0.8161   23.0644 N   0  0  0  0  0  0  0  0  0  0  0  0
   12.5774   -1.6778   22.8201 C   0  0  0  0  0  0  0  0  0  0  0  0
   13.0776   -2.3843   24.0713 C   0  0  0  0  0  0  0  0  0  0  0  0
   14.1596   -1.6268   24.8626 C   0  0  0  0  0  0  0  0  0  0  0  0
   13.9136   -0.2168   24.8340 O   0  0  0  0  0  0  0  0  0  0  0  0
   12.5653    0.1893   25.0443 C   0  0  0  0  0  0  0  0  0  0  0  0
   11.8136    0.4149   23.7547 C   0  0  0  0  0  0  0  0  0  0  0  0
    9.4102   -2.6920   22.3795 C   0  0  0  0  0  0  0  0  0  0  0  0
    8.0622   -3.3432   22.6296 C   0  0  0  0  0  0  0  0  0  0  0  0
  1  2  1  0
  2  3  2  0
  2  4  1  0
  4  5  1  0
  5  6  1  0
  6  7  1  0
  7  8  1  0
  8  9  1  0
  9 10  1  0
 10 11  1  0
 11 12  1  0
 12 13  1  0
 13 14  1  0
 14 15  1  0
  7 16  1  0
 16 17  1  0
 17  4  1  0
 15  9  1  0
M  END
