CVD-0000937|dock_bobby27042020.68|mol2|38|dock1
     RDKit          3D

 25 27  0  0  0  0  0  0  0  0999 V2000
   15.4645   -2.5680   23.7290 F   0  0  0  0  0  0  0  0  0  0  0  0
   14.3689   -1.7994   23.4854 C   0  0  0  0  0  0  0  0  0  0  0  0
   13.6918   -1.9768   22.3096 C   0  0  0  0  0  0  0  0  0  0  0  0
   12.5784   -1.1913   22.0696 C   0  0  0  0  0  0  0  0  0  0  0  0
   12.1534   -0.2467   22.9933 C   0  0  0  0  0  0  0  0  0  0  0  0
   12.8742   -0.1034   24.1706 C   0  0  0  0  0  0  0  0  0  0  0  0
   13.9898   -0.8809   24.4260 C   0  0  0  0  0  0  0  0  0  0  0  0
   10.9347    0.6114   22.7204 C   0  0  0  0  0  0  0  0  0  0  0  0
   11.1166    1.9974   23.1887 N   0  0  0  0  0  0  0  0  0  0  0  0
   12.1745    2.9931   22.4966 S   0  0  0  0  0  0  0  0  0  0  0  0
   11.7246    3.2177   21.1579 O   0  0  0  0  0  0  0  0  0  0  0  0
   13.4804    2.4594   22.7305 O   0  0  0  0  0  0  0  0  0  0  0  0
   12.0975    4.5267   23.3233 C   0  0  0  0  0  0  0  0  0  0  0  0
   10.9578    5.2093   23.6798 C   0  0  0  0  0  0  0  0  0  0  0  0
   11.2880    6.4168   24.3406 C   0  0  0  0  0  0  0  0  0  0  0  0
   12.6108    6.6144   24.4684 C   0  0  0  0  0  0  0  0  0  0  0  0
   13.5206    5.3396   23.7901 S   0  0  0  0  0  0  0  0  0  0  0  0
    9.6985    0.0242   23.4149 C   0  0  0  0  0  0  0  0  0  0  0  0
    9.5414   -1.4601   23.0775 C   0  0  0  0  0  0  0  0  0  0  0  0
    9.1588   -1.7533   21.6641 C   0  0  0  0  0  0  0  0  0  0  0  0
    9.5563   -2.7426   21.0869 O   0  0  0  0  0  0  0  0  0  0  0  0
    8.2312   -0.7533   20.9810 C   0  0  0  0  0  0  0  0  0  0  0  0
    8.1881    0.6629   21.5518 C   0  0  0  0  0  0  0  0  0  0  0  0
    7.9612    1.6208   20.8442 O   0  0  0  0  0  0  0  0  0  0  0  0
    8.4228    0.7496   23.0159 C   0  0  0  0  0  0  0  0  0  0  0  0
  1  2  1  0
  2  3  2  0
  3  4  1  0
  4  5  2  0
  5  6  1  0
  6  7  2  0
  5  8  1  0
  8  9  1  0
  9 10  1  0
 10 11  2  0
 10 12  2  0
 10 13  1  0
 13 14  2  0
 14 15  1  0
 15 16  2  0
 16 17  1  0
  8 18  1  0
 18 19  1  0
 19 20  1  0
 20 21  2  0
 20 22  1  0
 22 23  1  0
 23 24  2  0
 23 25  1  0
  7  2  1  0
 17 13  1  0
 25 18  1  0
M  END
