CVD-0001329|dock_bobby27042020.67|mol2|28|dock3
     RDKit          3D

 23 25  0  0  0  0  0  0  0  0999 V2000
   10.4489   -0.1212   24.8153 O   0  0  0  0  0  0  0  0  0  0  0  0
   10.9185   -0.9809   24.0946 C   0  0  0  0  0  0  0  0  0  0  0  0
   10.1830   -1.3896   22.8335 C   0  0  0  0  0  0  0  0  0  0  0  0
    9.4491   -2.6821   23.0074 C   0  0  0  0  0  0  0  0  0  0  0  0
    8.6353   -3.0727   21.7845 C   0  0  0  0  0  0  0  0  0  0  0  0
    7.7659   -1.9757   21.3888 N   0  0  0  0  0  0  0  0  0  0  0  0
    8.4503   -0.7121   21.1433 C   0  0  0  0  0  0  0  0  0  0  0  0
    9.2171   -0.2996   22.3967 C   0  0  0  0  0  0  0  0  0  0  0  0
    6.2039   -2.2127   20.9866 S   0  0  0  0  0  0  0  0  0  0  0  0
    6.1804   -3.3287   20.0929 O   0  0  0  0  0  0  0  0  0  0  0  0
    5.4735   -2.2679   22.2146 O   0  0  0  0  0  0  0  0  0  0  0  0
    5.6709   -0.7904   20.0984 C   0  0  0  0  0  0  0  0  0  0  0  0
    5.1001    0.2699   20.7836 C   0  0  0  0  0  0  0  0  0  0  0  0
    4.6794    1.3830   20.0750 C   0  0  0  0  0  0  0  0  0  0  0  0
    4.8257    1.4346   18.7052 C   0  0  0  0  0  0  0  0  0  0  0  0
    5.3930    0.3742   18.0312 C   0  0  0  0  0  0  0  0  0  0  0  0
    5.8200   -0.7478   18.7217 C   0  0  0  0  0  0  0  0  0  0  0  0
   12.0837   -1.5795   24.4089 N   0  0  0  0  0  0  0  0  0  0  0  0
   12.8610   -1.2310   25.6039 C   0  0  0  0  0  0  0  0  0  0  0  0
   14.3233   -1.0729   25.2401 C   0  0  0  0  0  0  0  0  0  0  0  0
   14.8386   -2.2286   24.6105 O   0  0  0  0  0  0  0  0  0  0  0  0
   14.1110   -2.5023   23.4129 C   0  0  0  0  0  0  0  0  0  0  0  0
   12.6448   -2.7354   23.7027 C   0  0  0  0  0  0  0  0  0  0  0  0
  1  2  2  0
  2  3  1  0
  3  4  1  0
  4  5  1  0
  5  6  1  0
  6  7  1  0
  7  8  1  0
  6  9  1  0
  9 10  2  0
  9 11  2  0
  9 12  1  0
 12 13  2  0
 13 14  1  0
 14 15  2  0
 15 16  1  0
 16 17  2  0
  2 18  1  0
 18 19  1  0
 19 20  1  0
 20 21  1  0
 21 22  1  0
 22 23  1  0
  8  3  1  0
 17 12  1  0
 23 18  1  0
M  END
