CVD-0002782|dock_bobby27042020.62|mol2|2|dock3
     RDKit          3D

 17 18  0  0  0  0  0  0  0  0999 V2000
   13.5916   -0.2206   24.5659 F   0  0  0  0  0  0  0  0  0  0  0  0
   13.5098    0.3223   23.2688 C   0  0  0  0  0  0  0  0  0  0  0  0
   13.5916   -0.8182   22.2866 C   0  0  0  0  0  0  0  0  0  0  0  0
   12.3530   -1.7021   22.3240 C   0  0  0  0  0  0  0  0  0  0  0  0
   11.0843   -0.9083   22.1374 C   0  0  0  0  0  0  0  0  0  0  0  0
    9.8519   -1.8154   22.2072 C   0  0  0  0  0  0  0  0  0  0  0  0
    8.5718   -1.1294   21.7830 C   0  0  0  0  0  0  0  0  0  0  0  0
    7.7438   -0.7660   22.6120 O   0  0  0  0  0  0  0  0  0  0  0  0
    8.4590   -0.9788   20.4411 N   0  0  0  0  0  0  0  0  0  0  0  0
    7.4333   -0.4025   19.6516 C   0  0  0  0  0  0  0  0  0  0  0  0
    6.2003    0.0000   20.1546 C   0  0  0  0  0  0  0  0  0  0  0  0
    5.2669    0.5527   19.2946 C   0  0  0  0  0  0  0  0  0  0  0  0
    5.5881    0.6878   17.9637 C   0  0  0  0  0  0  0  0  0  0  0  0
    6.7607    0.3116   17.4534 N   0  0  0  0  0  0  0  0  0  0  0  0
    7.6548   -0.2207   18.2914 C   0  0  0  0  0  0  0  0  0  0  0  0
   11.0055    0.2219   23.1375 C   0  0  0  0  0  0  0  0  0  0  0  0
   12.2337    1.1077   23.0782 C   0  0  0  0  0  0  0  0  0  0  0  0
  2  1  1  0
  2  3  1  0
  3  4  1  0
  4  5  1  0
  5  6  1  0
  6  7  1  0
  7  8  2  0
  7  9  1  0
  9 10  1  0
 10 11  2  0
 11 12  1  0
 12 13  2  0
 13 14  1  0
 14 15  2  0
  5 16  1  0
 16 17  1  0
 17  2  1  0
 15 10  1  0
M  END
