CVD-0002873|dock_bobby27042020.18|mol2|23|dock1
     RDKit          3D

 26 29  0  0  0  0  0  0  0  0999 V2000
    5.6986    1.9772   17.2004 C   0  0  0  0  0  0  0  0  0  0  0  0
    6.1779    0.6350   17.5256 N   0  0  0  0  0  0  0  0  0  0  0  0
    5.1265   -0.1367   18.1949 C   0  0  0  0  0  0  0  0  0  0  0  0
    5.6155   -1.5419   18.4930 C   0  0  0  0  0  0  0  0  0  0  0  0
    6.8194   -1.4986   19.3260 N   0  0  0  0  0  0  0  0  0  0  0  0
    7.8710   -0.6829   18.7108 C   0  0  0  0  0  0  0  0  0  0  0  0
    7.3460    0.7068   18.3996 C   0  0  0  0  0  0  0  0  0  0  0  0
    6.9241   -2.1630   20.4948 C   0  0  0  0  0  0  0  0  0  0  0  0
    6.0138   -2.8561   20.9317 O   0  0  0  0  0  0  0  0  0  0  0  0
    8.2261   -2.0124   21.2649 C   0  0  0  0  0  0  0  0  0  0  0  0
    8.4092   -0.6603   21.6752 O   0  0  0  0  0  0  0  0  0  0  0  0
    9.6603   -0.2274   22.0421 C   0  0  0  0  0  0  0  0  0  0  0  0
   10.7224   -1.0555   22.3767 C   0  0  0  0  0  0  0  0  0  0  0  0
   11.9361   -0.5021   22.7451 C   0  0  0  0  0  0  0  0  0  0  0  0
   12.1191    0.8711   22.7711 C   0  0  0  0  0  0  0  0  0  0  0  0
   11.0695    1.7086   22.3941 C   0  0  0  0  0  0  0  0  0  0  0  0
   10.9477    3.0789   22.2609 N   0  0  0  0  0  0  0  0  0  0  0  0
    9.6486    3.4211   21.9452 N   0  0  0  0  0  0  0  0  0  0  0  0
    8.9832    2.2965   21.8126 C   0  0  0  0  0  0  0  0  0  0  0  0
    9.8072    1.1733   22.0559 C   0  0  0  0  0  0  0  0  0  0  0  0
   11.8898    4.1469   22.3734 C   0  0  0  0  0  0  0  0  0  0  0  0
   11.6888    5.1341   23.3312 C   0  0  0  0  0  0  0  0  0  0  0  0
   12.6017    6.1660   23.4716 C   0  0  0  0  0  0  0  0  0  0  0  0
   13.7166    6.2243   22.6648 C   0  0  0  0  0  0  0  0  0  0  0  0
   13.9150    5.2577   21.7037 C   0  0  0  0  0  0  0  0  0  0  0  0
   13.0020    4.2285   21.5447 C   0  0  0  0  0  0  0  0  0  0  0  0
  1  2  1  0
  2  3  1  0
  3  4  1  0
  4  5  1  0
  5  6  1  0
  6  7  1  0
  5  8  1  0
  8  9  2  0
  8 10  1  0
 10 11  1  0
 11 12  1  0
 12 13  2  0
 13 14  1  0
 14 15  2  0
 15 16  1  0
 16 17  1  0
 17 18  1  0
 18 19  2  0
 19 20  1  0
 17 21  1  0
 21 22  2  0
 22 23  1  0
 23 24  2  0
 24 25  1  0
 25 26  2  0
  7  2  1  0
 20 12  1  0
 26 21  1  0
 20 16  2  0
M  END
