CVD-0000050|dock_bobby27042020.43|mol2|5|dock2
     RDKit          3D

 36 38  0  0  0  0  0  0  0  0999 V2000
   10.9467    6.1648   25.5466 C   0  0  0  0  0  0  0  0  0  0  0  0
    9.7250    5.4302   25.5662 O   0  0  0  0  0  0  0  0  0  0  0  0
    9.1708    5.1301   24.3929 C   0  0  0  0  0  0  0  0  0  0  0  0
    9.3080    6.0185   23.4178 N   0  0  0  0  0  0  0  0  0  0  0  0
    8.7376    5.6539   22.2981 C   0  0  0  0  0  0  0  0  0  0  0  0
    8.8483    6.5169   21.2855 F   0  0  0  0  0  0  0  0  0  0  0  0
    8.0727    4.5562   22.0375 N   0  0  0  0  0  0  0  0  0  0  0  0
    8.0079    3.7472   23.0986 C   0  0  0  0  0  0  0  0  0  0  0  0
    7.2602    2.4516   22.9148 C   0  0  0  0  0  0  0  0  0  0  0  0
    7.6910    1.7934   21.6743 N   0  0  0  0  0  0  0  0  0  0  0  0
    9.0422    1.4365   21.5451 C   0  0  0  0  0  0  0  0  0  0  0  0
    9.5125    1.1791   20.4432 O   0  0  0  0  0  0  0  0  0  0  0  0
    9.8480    1.3545   22.6560 N   0  0  0  0  0  0  0  0  0  0  0  0
   11.2325    0.9784   22.6017 C   0  0  0  0  0  0  0  0  0  0  0  0
   11.6819   -0.3559   22.5676 C   0  0  0  0  0  0  0  0  0  0  0  0
   10.7611   -1.5498   22.3808 C   0  0  0  0  0  0  0  0  0  0  0  0
    9.9979   -1.9415   23.6343 C   0  0  0  0  0  0  0  0  0  0  0  0
    9.4573   -3.2898   23.5377 N   0  0  0  0  0  0  0  0  0  0  0  0
    8.1940   -3.5826   23.8524 C   0  0  0  0  0  0  0  0  0  0  0  0
    7.7963   -5.0231   23.7165 C   0  0  0  0  0  0  0  0  0  0  0  0
    7.4076   -2.7262   24.2445 O   0  0  0  0  0  0  0  0  0  0  0  0
   13.0573   -0.5876   22.6981 C   0  0  0  0  0  0  0  0  0  0  0  0
   13.6334   -1.9740   22.8157 C   0  0  0  0  0  0  0  0  0  0  0  0
   13.9049    0.5116   22.7207 C   0  0  0  0  0  0  0  0  0  0  0  0
   13.5036    1.7813   22.6210 N   0  0  0  0  0  0  0  0  0  0  0  0
   12.1742    2.0273   22.5788 C   0  0  0  0  0  0  0  0  0  0  0  0
   11.7584    3.4323   22.5156 C   0  0  0  0  0  0  0  0  0  0  0  0
   12.5636    4.4529   22.4891 C   0  0  0  0  0  0  0  0  0  0  0  0
    6.6519    1.5673   20.7231 C   0  0  0  0  0  0  0  0  0  0  0  0
    6.5938    0.4510   19.8871 C   0  0  0  0  0  0  0  0  0  0  0  0
    5.5401    0.3052   18.9967 C   0  0  0  0  0  0  0  0  0  0  0  0
    5.4569   -0.8946   18.0848 C   0  0  0  0  0  0  0  0  0  0  0  0
    4.5723    1.2926   18.9645 C   0  0  0  0  0  0  0  0  0  0  0  0
    4.6979    2.3693   19.8143 C   0  0  0  0  0  0  0  0  0  0  0  0
    5.7102    2.5148   20.6770 N   0  0  0  0  0  0  0  0  0  0  0  0
    8.5320    3.9694   24.3074 N   0  0  0  0  0  0  0  0  0  0  0  0
  1  2  1  0
  2  3  1  0
  3  4  2  0
  4  5  1  0
  5  6  1  0
  5  7  2  0
  7  8  1  0
  8  9  1  0
  9 10  1  0
 10 11  1  0
 11 12  2  0
 11 13  1  0
 13 14  1  0
 14 15  2  0
 15 16  1  0
 16 17  1  0
 17 18  1  0
 18 19  1  0
 19 20  1  0
 19 21  2  0
 15 22  1  0
 22 23  1  0
 22 24  2  0
 24 25  1  0
 25 26  2  0
 26 27  1  0
 27 28  2  0
 10 29  1  0
 29 30  2  0
 30 31  1  0
 31 32  1  0
 31 33  2  0
 33 34  1  0
 34 35  2  0
  8 36  2  0
 36  3  1  0
 26 14  1  0
 35 29  1  0
M  END
