CVD-0002110|dock_bobby27042020.64|mol2|34|dock3
     RDKit          3D

 24 27  0  0  0  0  0  0  0  0999 V2000
   13.8898    6.0609   21.4590 O   0  0  0  0  0  0  0  0  0  0  0  0
   12.8334    5.2493   22.0004 S   0  0  0  0  0  0  0  0  0  0  0  0
   11.5965    5.8891   22.3588 O   0  0  0  0  0  0  0  0  0  0  0  0
   13.4615    4.1391   23.3319 C   0  0  0  0  0  0  0  0  0  0  0  0
   13.1902    2.9142   22.3574 C   0  0  0  0  0  0  0  0  0  0  0  0
   12.6305    3.6564   21.1172 C   0  0  0  0  0  0  0  0  0  0  0  0
   12.2254    1.9576   22.8596 O   0  0  0  0  0  0  0  0  0  0  0  0
   12.5456    0.6282   22.9579 C   0  0  0  0  0  0  0  0  0  0  0  0
   13.7617    0.1468   23.4285 C   0  0  0  0  0  0  0  0  0  0  0  0
   13.9864   -1.2185   23.4893 C   0  0  0  0  0  0  0  0  0  0  0  0
   13.0081   -2.1010   23.0851 C   0  0  0  0  0  0  0  0  0  0  0  0
   11.7967   -1.6226   22.6166 C   0  0  0  0  0  0  0  0  0  0  0  0
   11.5475   -0.2553   22.5447 C   0  0  0  0  0  0  0  0  0  0  0  0
   10.2279    0.2721   22.0380 C   0  0  0  0  0  0  0  0  0  0  0  0
    9.7427   -0.4265   20.8570 N   0  0  0  0  0  0  0  0  0  0  0  0
    8.5585   -0.1721   20.2889 C   0  0  0  0  0  0  0  0  0  0  0  0
    8.0963   -0.7917   19.2180 N   0  0  0  0  0  0  0  0  0  0  0  0
    6.8524   -0.2064   18.9969 C   0  0  0  0  0  0  0  0  0  0  0  0
    5.9007   -0.4526   18.0081 C   0  0  0  0  0  0  0  0  0  0  0  0
    4.7252    0.2834   18.0152 C   0  0  0  0  0  0  0  0  0  0  0  0
    4.4900    1.2452   18.9788 C   0  0  0  0  0  0  0  0  0  0  0  0
    5.4251    1.5025   19.9687 C   0  0  0  0  0  0  0  0  0  0  0  0
    6.6034    0.7657   19.9625 C   0  0  0  0  0  0  0  0  0  0  0  0
    7.7161    0.7671   20.7803 N   0  0  0  0  0  0  0  0  0  0  0  0
  1  2  2  0
  2  3  2  0
  2  4  1  0
  4  5  1  0
  5  6  1  0
  5  7  1  0
  7  8  1  0
  8  9  2  0
  9 10  1  0
 10 11  2  0
 11 12  1  0
 12 13  2  0
 13 14  1  0
 14 15  1  0
 15 16  1  0
 16 17  2  0
 17 18  1  0
 18 19  2  0
 19 20  1  0
 20 21  2  0
 21 22  1  0
 22 23  2  0
 23 24  1  0
  6  2  1  0
 13  8  1  0
 24 16  1  0
 23 18  1  0
M  END
