CVD-0003049|dock_bobby27042020.75|mol2|9|dock2
     RDKit          3D

 28 30  0  0  0  0  0  0  0  0999 V2000
    4.1137   -7.1436   24.0046 C   0  0  0  0  0  0  0  0  0  0  0  0
    5.1572   -6.1502   23.5547 C   0  0  0  0  0  0  0  0  0  0  0  0
    5.4979   -6.0249   22.2176 C   0  0  0  0  0  0  0  0  0  0  0  0
    6.4521   -5.1127   21.8031 C   0  0  0  0  0  0  0  0  0  0  0  0
    7.0987   -4.2937   22.7154 C   0  0  0  0  0  0  0  0  0  0  0  0
    8.1378   -3.2957   22.2648 C   0  0  0  0  0  0  0  0  0  0  0  0
    7.8694   -1.8802   22.7728 C   0  0  0  0  0  0  0  0  0  0  0  0
    8.4571   -0.7947   21.8659 C   0  0  0  0  0  0  0  0  0  0  0  0
    9.4418    0.0313   22.6006 N   0  0  0  0  0  0  0  0  0  0  0  0
    9.7483    1.2713   21.8686 C   0  0  0  0  0  0  0  0  0  0  0  0
   10.7134    2.1280   22.6462 C   0  0  0  0  0  0  0  0  0  0  0  0
   11.9404    1.3836   22.9465 N   0  0  0  0  0  0  0  0  0  0  0  0
   11.6736    0.1100   23.6123 C   0  0  0  0  0  0  0  0  0  0  0  0
   10.6970   -0.6973   22.7909 C   0  0  0  0  0  0  0  0  0  0  0  0
   13.2042    1.8318   22.7902 C   0  0  0  0  0  0  0  0  0  0  0  0
   14.1703    1.1298   23.0610 O   0  0  0  0  0  0  0  0  0  0  0  0
   13.3833    3.2403   22.2575 C   0  0  0  0  0  0  0  0  0  0  0  0
   12.6401    4.4284   23.3362 Cl  0  0  0  0  0  0  0  0  0  0  0  0
    7.3511    0.0317   21.2407 C   0  0  0  0  0  0  0  0  0  0  0  0
    6.4429    0.7105   22.0419 C   0  0  0  0  0  0  0  0  0  0  0  0
    5.4310    1.4719   21.4812 C   0  0  0  0  0  0  0  0  0  0  0  0
    5.3137    1.5659   20.1051 C   0  0  0  0  0  0  0  0  0  0  0  0
    6.2167    0.8922   19.2900 C   0  0  0  0  0  0  0  0  0  0  0  0
    7.2315    0.1279   19.8615 C   0  0  0  0  0  0  0  0  0  0  0  0
    6.1073    0.9809   17.8548 C   0  0  0  0  0  0  0  0  0  0  0  0
    6.0510    1.0648   16.7169 N   0  0  0  0  0  0  0  0  0  0  0  0
    6.7578   -4.4151   24.0533 C   0  0  0  0  0  0  0  0  0  0  0  0
    5.8031   -5.3283   24.4642 C   0  0  0  0  0  0  0  0  0  0  0  0
  1  2  1  0
  2  3  2  0
  3  4  1  0
  4  5  2  0
  5  6  1  0
  6  7  1  0
  7  8  1  0
  8  9  1  0
  9 10  1  0
 10 11  1  0
 11 12  1  0
 12 13  1  0
 13 14  1  0
 12 15  1  0
 15 16  2  0
 15 17  1  0
 17 18  1  0
  8 19  1  0
 19 20  2  0
 20 21  1  0
 21 22  2  0
 22 23  1  0
 23 24  2  0
 23 25  1  0
 25 26  3  0
  5 27  1  0
 27 28  2  0
 28  2  1  0
 14  9  1  0
 24 19  1  0
M  END
