CVD-0001733|dock_bobby27042020.37|mol2|19|dock3
     RDKit          3D

 25 27  0  0  0  0  0  0  0  0999 V2000
    5.5827    1.5881   17.2846 C   0  0  0  0  0  0  0  0  0  0  0  0
    5.8664    1.2754   18.6842 N   0  0  0  0  0  0  0  0  0  0  0  0
    4.6885    0.7709   19.3897 C   0  0  0  0  0  0  0  0  0  0  0  0
    5.0150    0.4959   20.8322 C   0  0  0  0  0  0  0  0  0  0  0  0
    6.1004   -0.4833   20.9420 N   0  0  0  0  0  0  0  0  0  0  0  0
    6.3812   -0.7929   22.3273 C   0  0  0  0  0  0  0  0  0  0  0  0
    7.6573   -1.4842   22.4982 N   0  0  0  0  0  0  0  0  0  0  0  0
    8.8474   -0.7634   22.6806 C   0  0  0  0  0  0  0  0  0  0  0  0
    8.7814    0.4232   22.9718 O   0  0  0  0  0  0  0  0  0  0  0  0
   10.0561   -1.4020   22.5149 N   0  0  0  0  0  0  0  0  0  0  0  0
   11.3838   -0.9103   22.6251 C   0  0  0  0  0  0  0  0  0  0  0  0
   12.3452   -1.4479   21.7782 C   0  0  0  0  0  0  0  0  0  0  0  0
   13.6533   -1.0024   21.8460 C   0  0  0  0  0  0  0  0  0  0  0  0
   13.9691   -0.0271   22.7621 C   0  0  0  0  0  0  0  0  0  0  0  0
   13.0735    0.5105   23.5895 N   0  0  0  0  0  0  0  0  0  0  0  0
   11.8124    0.0733   23.5167 C   0  0  0  0  0  0  0  0  0  0  0  0
    7.5869   -2.9251   22.4941 C   0  0  0  0  0  0  0  0  0  0  0  0
    8.2337   -3.6591   23.4830 C   0  0  0  0  0  0  0  0  0  0  0  0
    8.1864   -5.0432   23.4886 C   0  0  0  0  0  0  0  0  0  0  0  0
    7.4916   -5.7254   22.5064 C   0  0  0  0  0  0  0  0  0  0  0  0
    6.8457   -4.9983   21.5331 C   0  0  0  0  0  0  0  0  0  0  0  0
    5.9635   -5.8397   20.2895 Cl  0  0  0  0  0  0  0  0  0  0  0  0
    6.8771   -3.6189   21.5159 C   0  0  0  0  0  0  0  0  0  0  0  0
    7.2783    0.0211   20.2364 C   0  0  0  0  0  0  0  0  0  0  0  0
    6.9517    0.2962   18.7940 C   0  0  0  0  0  0  0  0  0  0  0  0
  1  2  1  0
  2  3  1  0
  3  4  1  0
  4  5  1  0
  5  6  1  0
  6  7  1  0
  7  8  1  0
  8  9  2  0
  8 10  1  0
 10 11  1  0
 11 12  2  0
 12 13  1  0
 13 14  2  0
 14 15  1  0
 15 16  2  0
  7 17  1  0
 17 18  2  0
 18 19  1  0
 19 20  2  0
 20 21  1  0
 21 22  1  0
 21 23  2  0
  5 24  1  0
 24 25  1  0
 25  2  1  0
 16 11  1  0
 23 17  1  0
M  END
