CVD-0000825|dock_bobby27042020.26|mol2|9|dock3
     RDKit          3D

 27 29  0  0  0  0  0  0  0  0999 V2000
    5.3324    1.2946   19.0402 C   0  0  0  0  0  0  0  0  0  0  0  0
    5.2205    0.0710   18.1790 C   0  0  0  0  0  0  0  0  0  0  0  0
    4.8548    0.1315   17.0093 O   0  0  0  0  0  0  0  0  0  0  0  0
    5.5256   -1.0889   18.7640 N   0  0  0  0  0  0  0  0  0  0  0  0
    5.7329   -2.5161   18.9640 C   0  0  0  0  0  0  0  0  0  0  0  0
    6.2609   -2.8213   20.3516 C   0  0  0  0  0  0  0  0  0  0  0  0
    7.6579   -2.3190   20.5710 C   0  0  0  0  0  0  0  0  0  0  0  0
    8.3248   -1.3796   19.8402 C   0  0  0  0  0  0  0  0  0  0  0  0
    9.5820   -1.1845   20.3446 N   0  0  0  0  0  0  0  0  0  0  0  0
    9.7494   -2.0103   21.4287 C   0  0  0  0  0  0  0  0  0  0  0  0
   10.8573   -2.1679   22.2660 C   0  0  0  0  0  0  0  0  0  0  0  0
   12.1227   -1.3691   22.0587 C   0  0  0  0  0  0  0  0  0  0  0  0
   12.1488   -0.1193   22.8324 N   0  0  0  0  0  0  0  0  0  0  0  0
   11.0674    0.7722   22.4028 C   0  0  0  0  0  0  0  0  0  0  0  0
   11.0735    2.0428   23.2323 C   0  0  0  0  0  0  0  0  0  0  0  0
   12.3655    2.7227   23.1172 N   0  0  0  0  0  0  0  0  0  0  0  0
   13.4750    1.8367   23.4831 C   0  0  0  0  0  0  0  0  0  0  0  0
   13.4278    0.5641   22.6573 C   0  0  0  0  0  0  0  0  0  0  0  0
   12.4819    4.0138   22.7460 C   0  0  0  0  0  0  0  0  0  0  0  0
   11.5039    4.7042   22.4883 O   0  0  0  0  0  0  0  0  0  0  0  0
   13.8901    4.5686   22.6574 C   0  0  0  0  0  0  0  0  0  0  0  0
   13.9053    6.2720   22.1827 Cl  0  0  0  0  0  0  0  0  0  0  0  0
   10.7566   -3.0858   23.3056 C   0  0  0  0  0  0  0  0  0  0  0  0
    9.5878   -3.7933   23.4651 C   0  0  0  0  0  0  0  0  0  0  0  0
    9.5176   -4.6850   24.4900 F   0  0  0  0  0  0  0  0  0  0  0  0
    8.4855   -3.6560   22.6537 C   0  0  0  0  0  0  0  0  0  0  0  0
    8.5602   -2.7409   21.6042 C   0  0  0  0  0  0  0  0  0  0  0  0
  1  2  1  0
  2  3  2  0
  2  4  1  0
  4  5  1  0
  5  6  1  0
  6  7  1  0
  7  8  2  0
  8  9  1  0
  9 10  1  0
 10 11  2  0
 11 12  1  0
 12 13  1  0
 13 14  1  0
 14 15  1  0
 15 16  1  0
 16 17  1  0
 17 18  1  0
 16 19  1  0
 19 20  2  0
 19 21  1  0
 21 22  1  0
 11 23  1  0
 23 24  2  0
 24 25  1  0
 24 26  1  0
 26 27  2  0
 27  7  1  0
 27 10  1  0
 18 13  1  0
M  END
