CVD-0001328|dock_bobby27042020.81|mol2|26|dock3
     RDKit          3D

 23 25  0  0  0  0  0  0  0  0999 V2000
    6.4203   -3.6571   20.4419 O   0  0  0  0  0  0  0  0  0  0  0  0
    6.2989   -2.5130   21.2911 S   0  0  0  0  0  0  0  0  0  0  0  0
    5.4483   -2.5650   22.4394 O   0  0  0  0  0  0  0  0  0  0  0  0
    7.7980   -2.1843   21.8409 N   0  0  0  0  0  0  0  0  0  0  0  0
    8.0789   -2.4879   23.2549 C   0  0  0  0  0  0  0  0  0  0  0  0
    9.5674   -2.4341   23.4905 C   0  0  0  0  0  0  0  0  0  0  0  0
   10.1059   -1.1116   23.1566 N   0  0  0  0  0  0  0  0  0  0  0  0
    9.8393   -0.8723   21.7327 C   0  0  0  0  0  0  0  0  0  0  0  0
    8.3523   -0.8757   21.4663 C   0  0  0  0  0  0  0  0  0  0  0  0
   11.5578   -1.0482   23.4307 C   0  0  0  0  0  0  0  0  0  0  0  0
   11.8322   -0.5545   24.8695 C   0  0  0  0  0  0  0  0  0  0  0  0
   13.3095   -0.4968   25.2528 C   0  0  0  0  0  0  0  0  0  0  0  0
   14.0762   -2.0827   25.1041 S   0  0  0  0  0  0  0  0  0  0  0  0
   13.3821   -3.0169   25.9487 O   0  0  0  0  0  0  0  0  0  0  0  0
   15.4961   -1.9450   25.2855 O   0  0  0  0  0  0  0  0  0  0  0  0
   13.7321   -2.4658   23.4173 C   0  0  0  0  0  0  0  0  0  0  0  0
   12.2306   -2.4178   23.1574 C   0  0  0  0  0  0  0  0  0  0  0  0
    5.7961   -1.1486   20.3005 C   0  0  0  0  0  0  0  0  0  0  0  0
    5.4135    0.0354   20.9100 C   0  0  0  0  0  0  0  0  0  0  0  0
    5.0241    1.1051   20.1213 C   0  0  0  0  0  0  0  0  0  0  0  0
    5.0185    0.9936   18.7473 C   0  0  0  0  0  0  0  0  0  0  0  0
    5.4026   -0.1875   18.1491 C   0  0  0  0  0  0  0  0  0  0  0  0
    5.7954   -1.2687   18.9202 C   0  0  0  0  0  0  0  0  0  0  0  0
  1  2  2  0
  2  3  2  0
  2  4  1  0
  4  5  1  0
  5  6  1  0
  6  7  1  0
  7  8  1  0
  8  9  1  0
  7 10  1  0
 10 11  1  0
 11 12  1  0
 12 13  1  0
 13 14  2  0
 13 15  2  0
 13 16  1  0
 16 17  1  0
  2 18  1  0
 18 19  2  0
 19 20  1  0
 20 21  2  0
 21 22  1  0
 22 23  2  0
  9  4  1  0
 17 10  1  0
 23 18  1  0
M  END
