CVD-0003347|dock_bobby27042020.45|mol2|33|dock2
     RDKit          3D

 20 21  0  0  0  0  0  0  0  0999 V2000
   10.6211   -3.2231   23.7486 C   0  0  0  0  0  0  0  0  0  0  0  0
    9.9392   -2.4988   22.6206 C   0  0  0  0  0  0  0  0  0  0  0  0
    9.1229   -3.1373   21.9680 O   0  0  0  0  0  0  0  0  0  0  0  0
   10.2007   -1.1206   22.3043 N   0  0  0  0  0  0  0  0  0  0  0  0
    9.5140   -0.4126   21.2228 C   0  0  0  0  0  0  0  0  0  0  0  0
    9.9836    0.6193   20.7756 O   0  0  0  0  0  0  0  0  0  0  0  0
    8.2430   -0.8888   20.5647 C   0  0  0  0  0  0  0  0  0  0  0  0
    8.2013   -0.9175   19.1707 C   0  0  0  0  0  0  0  0  0  0  0  0
    7.0671   -1.3757   18.5231 C   0  0  0  0  0  0  0  0  0  0  0  0
    6.0032   -1.7968   19.2856 C   0  0  0  0  0  0  0  0  0  0  0  0
    5.9998   -1.7681   20.6238 N   0  0  0  0  0  0  0  0  0  0  0  0
    7.0771   -1.2909   21.2213 C   0  0  0  0  0  0  0  0  0  0  0  0
    6.9487   -1.1720   22.9477 Cl  0  0  0  0  0  0  0  0  0  0  0  0
   11.2401   -0.4135   23.0294 C   0  0  0  0  0  0  0  0  0  0  0  0
   10.8901    0.4816   23.9907 C   0  0  0  0  0  0  0  0  0  0  0  0
   11.7827    1.1907   24.7197 N   0  0  0  0  0  0  0  0  0  0  0  0
   13.2268    1.0321   24.4871 C   0  0  0  0  0  0  0  0  0  0  0  0
   13.5700    0.0353   23.4737 C   0  0  0  0  0  0  0  0  0  0  0  0
   12.6580   -0.6450   22.7565 C   0  0  0  0  0  0  0  0  0  0  0  0
   13.1622   -1.5536   21.6690 C   0  0  0  0  0  0  0  0  0  0  0  0
  1  2  1  0
  2  3  2  0
  2  4  1  0
  4  5  1  0
  5  6  2  0
  5  7  1  0
  7  8  2  0
  8  9  1  0
  9 10  2  0
 10 11  1  0
 11 12  2  0
 12 13  1  0
  4 14  1  0
 14 15  2  0
 15 16  1  0
 16 17  1  0
 17 18  1  0
 18 19  2  0
 19 20  1  0
 12  7  1  0
 19 14  1  0
M  END
