CVD-0002761|dock_bobby27042020.62|mol2|5|dock3
     RDKit          3D

 19 21  0  0  0  0  0  0  0  0999 V2000
   11.0313   -2.0180   21.3576 N   0  0  0  0  0  0  0  0  0  0  0  0
   12.2110   -1.8172   21.9240 C   0  0  0  0  0  0  0  0  0  0  0  0
   13.1931   -1.4320   21.2859 O   0  0  0  0  0  0  0  0  0  0  0  0
   12.3090   -2.0762   23.4142 C   0  0  0  0  0  0  0  0  0  0  0  0
   13.7682   -2.4084   23.7665 C   0  0  0  0  0  0  0  0  0  0  0  0
   14.1295   -1.5032   24.9427 C   0  0  0  0  0  0  0  0  0  0  0  0
   14.3767   -2.2699   26.1244 O   0  0  0  0  0  0  0  0  0  0  0  0
   13.0747   -0.6777   25.1844 C   0  0  0  0  0  0  0  0  0  0  0  0
   11.9007   -0.8994   24.3658 C   0  0  0  0  0  0  0  0  0  0  0  0
   11.4597    0.3522   23.6564 C   0  0  0  0  0  0  0  0  0  0  0  0
   12.2915    1.1753   22.8227 C   0  0  0  0  0  0  0  0  0  0  0  0
   11.6383    2.2533   22.3183 C   0  0  0  0  0  0  0  0  0  0  0  0
   10.0129    2.3148   22.8264 S   0  0  0  0  0  0  0  0  0  0  0  0
   10.1833    0.8641   23.7456 C   0  0  0  0  0  0  0  0  0  0  0  0
    8.9934    0.3863   24.4757 C   0  0  0  0  0  0  0  0  0  0  0  0
    8.5042   -0.9517   24.5865 C   0  0  0  0  0  0  0  0  0  0  0  0
    7.4063   -0.9072   25.3450 C   0  0  0  0  0  0  0  0  0  0  0  0
    7.1409    0.3698   25.7362 O   0  0  0  0  0  0  0  0  0  0  0  0
    8.1246    1.1392   25.1894 C   0  0  0  0  0  0  0  0  0  0  0  0
  1  2  1  0
  2  3  2  0
  4  2  1  0
  4  5  1  0
  5  6  1  0
  6  7  1  0
  6  8  1  0
  8  9  1  0
  9 10  1  0
 10 11  1  0
 11 12  2  0
 12 13  1  0
 13 14  1  0
 14 15  1  0
 15 16  1  0
 16 17  2  0
 17 18  1  0
 18 19  1  0
  9  4  1  0
 14 10  2  0
 19 15  2  0
M  END
