CVD-0001924|dock_bobby27042020.65|mol2|28|dock1
     RDKit          3D

 24 26  0  0  0  0  0  0  0  0999 V2000
   13.7239   -2.9180   23.6494 N   0  0  0  0  0  0  0  0  0  0  0  0
   13.7621   -1.4487   23.4774 C   0  0  0  0  0  0  0  0  0  0  0  0
   12.5461   -0.7550   24.0754 C   0  0  0  0  0  0  0  0  0  0  0  0
   11.4209   -1.6140   23.8712 O   0  0  0  0  0  0  0  0  0  0  0  0
   10.2190   -1.0303   24.3951 C   0  0  0  0  0  0  0  0  0  0  0  0
    9.8332    0.1788   23.5870 C   0  0  0  0  0  0  0  0  0  0  0  0
   11.0093    1.0394   23.2055 C   0  0  0  0  0  0  0  0  0  0  0  0
   10.8247    2.2927   22.6000 C   0  0  0  0  0  0  0  0  0  0  0  0
    9.5794    2.8114   22.3691 O   0  0  0  0  0  0  0  0  0  0  0  0
   11.9219    3.1021   22.3062 C   0  0  0  0  0  0  0  0  0  0  0  0
   11.7113    4.3342   21.7742 O   0  0  0  0  0  0  0  0  0  0  0  0
   13.2079    2.6781   22.6091 C   0  0  0  0  0  0  0  0  0  0  0  0
   13.3867    1.4441   23.2053 C   0  0  0  0  0  0  0  0  0  0  0  0
   12.2986    0.6232   23.5051 C   0  0  0  0  0  0  0  0  0  0  0  0
    9.1480   -2.1224   24.3777 C   0  0  0  0  0  0  0  0  0  0  0  0
    9.2188   -3.0277   23.1388 C   0  0  0  0  0  0  0  0  0  0  0  0
    8.0615   -4.0146   23.1157 C   0  0  0  0  0  0  0  0  0  0  0  0
    7.9797   -4.8396   24.3955 C   0  0  0  0  0  0  0  0  0  0  0  0
    7.9262   -3.9125   25.5938 C   0  0  0  0  0  0  0  0  0  0  0  0
    7.8258   -4.7046   26.8971 C   0  0  0  0  0  0  0  0  0  0  0  0
    9.1394   -5.2730   27.4409 C   0  0  0  0  0  0  0  0  0  0  0  0
    9.8435   -6.1706   26.5149 C   0  0  0  0  0  0  0  0  0  0  0  0
    9.5159   -7.2919   26.2649 O   0  0  0  0  0  0  0  0  0  0  0  0
    9.1509   -2.9968   25.6430 C   0  0  0  0  0  0  0  0  0  0  0  0
  1  2  1  0
  2  3  1  0
  3  4  1  0
  4  5  1  0
  5  6  1  0
  6  7  1  0
  7  8  2  0
  8  9  1  0
  8 10  1  0
 10 11  1  0
 10 12  2  0
 12 13  1  0
 13 14  2  0
  5 15  1  0
 15 16  1  0
 16 17  1  0
 17 18  1  0
 18 19  1  0
 19 20  1  0
 20 21  1  0
 21 22  1  0
 22 23  2  0
 19 24  1  0
 14  3  1  0
 24 15  1  0
 14  7  1  0
M  END
