CVD-0003266|dock_bobby27042020.17|mol2|4|dock3
     RDKit          3D

 43 44  0  0  0  0  0  0  0  0999 V2000
    6.6862    6.2439   21.2611 C   0  0  0  0  0  0  0  0  0  0  0  0
    7.8750    6.2135   22.1761 C   0  0  0  0  0  0  0  0  0  0  0  0
    8.8867    6.8687   21.9461 O   0  0  0  0  0  0  0  0  0  0  0  0
    7.7707    5.4174   23.2461 N   0  0  0  0  0  0  0  0  0  0  0  0
    8.8506    5.2780   24.2098 C   0  0  0  0  0  0  0  0  0  0  0  0
    8.3086    5.3931   25.6327 C   0  0  0  0  0  0  0  0  0  0  0  0
    9.3596    5.3450   26.5896 O   0  0  0  0  0  0  0  0  0  0  0  0
    9.5550    3.9346   24.0432 C   0  0  0  0  0  0  0  0  0  0  0  0
    9.8185    3.2448   25.0246 O   0  0  0  0  0  0  0  0  0  0  0  0
    9.8581    3.5684   22.7946 N   0  0  0  0  0  0  0  0  0  0  0  0
   10.5249    2.3086   22.5094 C   0  0  0  0  0  0  0  0  0  0  0  0
   11.8800    2.2496   23.2306 C   0  0  0  0  0  0  0  0  0  0  0  0
   12.6492    3.5465   23.1620 C   0  0  0  0  0  0  0  0  0  0  0  0
   12.7467    4.3723   24.2713 C   0  0  0  0  0  0  0  0  0  0  0  0
   13.4497    5.5637   24.2077 C   0  0  0  0  0  0  0  0  0  0  0  0
   14.0628    5.9439   23.0334 C   0  0  0  0  0  0  0  0  0  0  0  0
   13.9725    5.1328   21.9226 C   0  0  0  0  0  0  0  0  0  0  0  0
   13.2694    3.9413   21.9868 C   0  0  0  0  0  0  0  0  0  0  0  0
    9.6605    1.1278   22.9418 C   0  0  0  0  0  0  0  0  0  0  0  0
    8.9252    1.2210   23.9211 O   0  0  0  0  0  0  0  0  0  0  0  0
    9.7534    0.0165   22.2058 N   0  0  0  0  0  0  0  0  0  0  0  0
    8.9287   -1.1496   22.4765 C   0  0  0  0  0  0  0  0  0  0  0  0
    8.8261   -2.0311   21.2224 C   0  0  0  0  0  0  0  0  0  0  0  0
    7.9331   -1.4480   20.1542 C   0  0  0  0  0  0  0  0  0  0  0  0
    6.5989   -1.8145   20.0682 C   0  0  0  0  0  0  0  0  0  0  0  0
    5.7785   -1.2772   19.0903 C   0  0  0  0  0  0  0  0  0  0  0  0
    6.2830   -0.3662   18.1874 C   0  0  0  0  0  0  0  0  0  0  0  0
    7.6074    0.0077   18.2626 C   0  0  0  0  0  0  0  0  0  0  0  0
    8.4274   -0.5299   19.2407 C   0  0  0  0  0  0  0  0  0  0  0  0
    9.5045   -1.9641   23.6313 C   0  0  0  0  0  0  0  0  0  0  0  0
   10.6277   -1.7208   24.0644 O   0  0  0  0  0  0  0  0  0  0  0  0
    8.7285   -2.9324   24.1263 N   0  0  0  0  0  0  0  0  0  0  0  0
    9.1580   -3.7593   25.2421 C   0  0  0  0  0  0  0  0  0  0  0  0
    7.9720   -4.0470   26.1680 C   0  0  0  0  0  0  0  0  0  0  0  0
    8.2069   -5.1592   27.1822 C   0  0  0  0  0  0  0  0  0  0  0  0
    6.9534   -5.4874   27.9698 C   0  0  0  0  0  0  0  0  0  0  0  0
    7.1039   -6.6837   28.7864 N   0  0  0  0  0  0  0  0  0  0  0  0
    6.8894   -6.6896   30.1131 C   0  0  0  0  0  0  0  0  0  0  0  0
    7.0645   -7.8554   30.7344 N   0  0  0  0  0  0  0  0  0  0  0  0
    6.5482   -5.6591   30.7097 O   0  0  0  0  0  0  0  0  0  0  0  0
    9.7795   -5.0458   24.7021 C   0  0  0  0  0  0  0  0  0  0  0  0
   10.7730   -5.5726   25.4000 N   0  0  0  0  0  0  0  0  0  0  0  0
    9.3586   -5.5450   23.6562 O   0  0  0  0  0  0  0  0  0  0  0  0
  1  2  1  0
  2  3  2  0
  2  4  1  0
  4  5  1  0
  5  6  1  0
  6  7  1  0
  5  8  1  0
  8  9  2  0
  8 10  1  0
 10 11  1  0
 11 12  1  0
 12 13  1  0
 13 14  2  0
 14 15  1  0
 15 16  2  0
 16 17  1  0
 17 18  2  0
 11 19  1  0
 19 20  2  0
 19 21  1  0
 21 22  1  0
 22 23  1  0
 23 24  1  0
 24 25  2  0
 25 26  1  0
 26 27  2  0
 27 28  1  0
 28 29  2  0
 22 30  1  0
 30 31  2  0
 30 32  1  0
 32 33  1  0
 33 34  1  0
 34 35  1  0
 35 36  1  0
 36 37  1  0
 37 38  1  0
 38 39  1  0
 38 40  2  0
 33 41  1  0
 41 42  1  0
 41 43  2  0
 18 13  1  0
 29 24  1  0
M  END
