CVD-0001135|dock_bobby27042020.53|mol2|36|dock3
     RDKit          3D

 22 23  0  0  0  0  0  0  0  0999 V2000
   10.0505   -1.1625   22.0608 C   0  0  0  0  0  0  0  0  0  0  0  0
    9.5981    0.1968   21.7575 N   0  0  0  0  0  0  0  0  0  0  0  0
   10.2196    1.3614   22.2308 C   0  0  0  0  0  0  0  0  0  0  0  0
    9.7264    2.4175   21.8702 O   0  0  0  0  0  0  0  0  0  0  0  0
   11.3220    1.4828   23.0853 N   0  0  0  0  0  0  0  0  0  0  0  0
   11.8682    2.7625   23.5836 C   0  0  0  0  0  0  0  0  0  0  0  0
   12.7875    3.4256   22.5705 C   0  0  0  0  0  0  0  0  0  0  0  0
   13.2740    4.7808   23.0026 C   0  0  0  0  0  0  0  0  0  0  0  0
   14.1205    5.5307   22.0248 C   0  0  0  0  0  0  0  0  0  0  0  0
   13.0080    5.2352   24.0923 O   0  0  0  0  0  0  0  0  0  0  0  0
   12.0060    0.3178   23.5931 C   0  0  0  0  0  0  0  0  0  0  0  0
   12.9485   -0.3618   22.8307 C   0  0  0  0  0  0  0  0  0  0  0  0
   13.5902   -1.4688   23.3572 C   0  0  0  0  0  0  0  0  0  0  0  0
   13.2685   -1.8721   24.6316 C   0  0  0  0  0  0  0  0  0  0  0  0
   12.3667   -1.2449   25.3858 N   0  0  0  0  0  0  0  0  0  0  0  0
   11.7604   -0.1719   24.8685 C   0  0  0  0  0  0  0  0  0  0  0  0
    8.4116    0.2291   20.9305 C   0  0  0  0  0  0  0  0  0  0  0  0
    8.2997   -0.5099   19.7571 C   0  0  0  0  0  0  0  0  0  0  0  0
    7.1429   -0.4314   19.0019 C   0  0  0  0  0  0  0  0  0  0  0  0
    6.1209    0.3739   19.4452 C   0  0  0  0  0  0  0  0  0  0  0  0
    6.1919    1.0826   20.5711 N   0  0  0  0  0  0  0  0  0  0  0  0
    7.3185    1.0058   21.2862 C   0  0  0  0  0  0  0  0  0  0  0  0
  1  2  1  0
  2  3  1  0
  3  4  2  0
  3  5  1  0
  5  6  1  0
  6  7  1  0
  7  8  1  0
  8  9  1  0
  8 10  2  0
  5 11  1  0
 11 12  2  0
 12 13  1  0
 13 14  2  0
 14 15  1  0
 15 16  2  0
  2 17  1  0
 17 18  2  0
 18 19  1  0
 19 20  2  0
 20 21  1  0
 21 22  2  0
 16 11  1  0
 22 17  1  0
M  END
