CVD-0003650|dock_bobby27042020.73|mol2|11|dock3
     RDKit          3D

 32 33  0  0  0  0  0  0  0  0999 V2000
    0.7102   -8.7144   22.6318 C   0  0  0  0  0  0  0  0  0  0  0  0
    2.0174   -8.1077   22.7648 O   0  0  0  0  0  0  0  0  0  0  0  0
    2.4606   -7.9521   24.0110 C   0  0  0  0  0  0  0  0  0  0  0  0
    1.8786   -8.3736   24.9965 O   0  0  0  0  0  0  0  0  0  0  0  0
    3.7532   -7.2035   24.0872 C   0  0  0  0  0  0  0  0  0  0  0  0
    4.3164   -6.8671   25.3133 C   0  0  0  0  0  0  0  0  0  0  0  0
    5.5125   -6.1749   25.3729 C   0  0  0  0  0  0  0  0  0  0  0  0
    6.1700   -5.8056   24.2091 C   0  0  0  0  0  0  0  0  0  0  0  0
    5.6029   -6.1427   22.9799 C   0  0  0  0  0  0  0  0  0  0  0  0
    6.4307   -5.6759   21.3399 Br  0  0  0  0  0  0  0  0  0  0  0  0
    4.4073   -6.8347   22.9173 C   0  0  0  0  0  0  0  0  0  0  0  0
    7.6940   -4.9206   24.3899 S   0  0  0  0  0  0  0  0  0  0  0  0
    8.1696   -5.1483   25.7203 O   0  0  0  0  0  0  0  0  0  0  0  0
    8.5256   -5.2577   23.2752 O   0  0  0  0  0  0  0  0  0  0  0  0
    7.3674   -3.3479   24.2717 N   0  0  0  0  0  0  0  0  0  0  0  0
    7.5905   -2.6494   23.0005 C   0  0  0  0  0  0  0  0  0  0  0  0
    8.9359   -1.9657   22.9638 C   0  0  0  0  0  0  0  0  0  0  0  0
    9.6042   -1.7718   21.7652 C   0  0  0  0  0  0  0  0  0  0  0  0
   10.8389   -1.1483   21.7314 C   0  0  0  0  0  0  0  0  0  0  0  0
   11.4443   -0.7002   22.8966 C   0  0  0  0  0  0  0  0  0  0  0  0
   10.7746   -0.8953   24.0961 C   0  0  0  0  0  0  0  0  0  0  0  0
    9.5400   -1.5190   24.1286 C   0  0  0  0  0  0  0  0  0  0  0  0
   12.7960   -0.0122   22.8600 C   0  0  0  0  0  0  0  0  0  0  0  0
   13.8788   -0.8809   23.4886 C   0  0  0  0  0  0  0  0  0  0  0  0
   12.7556    1.2648   23.5793 N   0  0  0  0  0  0  0  0  0  0  0  0
   12.8249    2.4409   22.9339 C   0  0  0  0  0  0  0  0  0  0  0  0
   12.9242    2.5546   21.7308 O   0  0  0  0  0  0  0  0  0  0  0  0
   12.7665    3.4444   23.8278 O   0  0  0  0  0  0  0  0  0  0  0  0
   12.5792    4.8621   23.4391 C   0  0  0  0  0  0  0  0  0  0  0  0
   11.2136    5.0205   22.8015 C   0  0  0  0  0  0  0  0  0  0  0  0
   13.6799    5.2568   22.4752 C   0  0  0  0  0  0  0  0  0  0  0  0
   12.6666    5.6940   24.7019 C   0  0  0  0  0  0  0  0  0  0  0  0
  1  2  1  0
  2  3  1  0
  3  4  2  0
  3  5  1  0
  5  6  2  0
  6  7  1  0
  7  8  2  0
  8  9  1  0
  9 10  1  0
  9 11  2  0
  8 12  1  0
 12 13  2  0
 12 14  2  0
 12 15  1  0
 15 16  1  0
 16 17  1  0
 17 18  2  0
 18 19  1  0
 19 20  2  0
 20 21  1  0
 21 22  2  0
 20 23  1  0
 23 24  1  0
 23 25  1  0
 25 26  1  0
 26 27  2  0
 26 28  1  0
 28 29  1  0
 29 30  1  0
 29 31  1  0
 29 32  1  0
 11  5  1  0
 22 17  1  0
M  END
