CVD-0000008|dock_bobby27042020.57|mol2|32|dock2
     RDKit          3D

 22 23  0  0  0  0  0  0  0  0999 V2000
    9.9024   -5.3390   26.8197 C   0  0  0  0  0  0  0  0  0  0  0  0
   10.6919   -5.0618   25.6169 N   0  0  0  0  0  0  0  0  0  0  0  0
    9.9090   -4.3661   24.5966 C   0  0  0  0  0  0  0  0  0  0  0  0
   10.7500   -3.3198   23.9180 C   0  0  0  0  0  0  0  0  0  0  0  0
    9.9718   -2.6844   22.9009 O   0  0  0  0  0  0  0  0  0  0  0  0
   10.6908   -1.8644   21.9784 C   0  0  0  0  0  0  0  0  0  0  0  0
    9.6991   -1.1113   21.0889 C   0  0  0  0  0  0  0  0  0  0  0  0
    9.7421    0.1145   21.0412 O   0  0  0  0  0  0  0  0  0  0  0  0
    8.8368   -1.9105   20.4142 N   0  0  0  0  0  0  0  0  0  0  0  0
    7.7921   -1.5983   19.5091 C   0  0  0  0  0  0  0  0  0  0  0  0
    6.6713   -2.4174   19.4673 C   0  0  0  0  0  0  0  0  0  0  0  0
    5.6425   -2.1263   18.5890 C   0  0  0  0  0  0  0  0  0  0  0  0
    5.7633   -1.0231   17.7764 C   0  0  0  0  0  0  0  0  0  0  0  0
    6.8254   -0.2178   17.7925 N   0  0  0  0  0  0  0  0  0  0  0  0
    7.8143   -0.5067   18.6440 C   0  0  0  0  0  0  0  0  0  0  0  0
   11.5535   -0.8741   22.7287 C   0  0  0  0  0  0  0  0  0  0  0  0
   12.8950   -0.7208   22.4087 C   0  0  0  0  0  0  0  0  0  0  0  0
   13.6851    0.1875   23.0929 C   0  0  0  0  0  0  0  0  0  0  0  0
   13.1420    0.9567   24.1083 C   0  0  0  0  0  0  0  0  0  0  0  0
   11.8091    0.7997   24.4193 C   0  0  0  0  0  0  0  0  0  0  0  0
   11.1127    1.7610   25.6935 Cl  0  0  0  0  0  0  0  0  0  0  0  0
   11.0111   -0.1020   23.7450 C   0  0  0  0  0  0  0  0  0  0  0  0
  1  2  1  0
  2  3  1  0
  3  4  1  0
  4  5  1  0
  5  6  1  0
  6  7  1  0
  7  8  2  0
  7  9  1  0
  9 10  1  0
 10 11  2  0
 11 12  1  0
 12 13  2  0
 13 14  1  0
 14 15  2  0
  6 16  1  0
 16 17  2  0
 17 18  1  0
 18 19  2  0
 19 20  1  0
 20 21  1  0
 20 22  2  0
 15 10  1  0
 22 16  1  0
M  END
