CVD-0003751|dock_bobby27042020.30|mol2|2|dock1
     RDKit          3D

 21 22  0  0  0  0  0  0  0  0999 V2000
    2.7568    2.7780   20.0385 C   0  0  0  0  0  0  0  0  0  0  0  0
    3.9130    1.9083   19.6088 C   0  0  0  0  0  0  0  0  0  0  0  0
    4.5439    2.1038   18.3916 C   0  0  0  0  0  0  0  0  0  0  0  0
    5.6056    1.3082   18.0009 C   0  0  0  0  0  0  0  0  0  0  0  0
    6.0913    0.2780   18.8031 C   0  0  0  0  0  0  0  0  0  0  0  0
    7.2533   -0.5558   18.3317 C   0  0  0  0  0  0  0  0  0  0  0  0
    5.4471    0.0882   20.0340 C   0  0  0  0  0  0  0  0  0  0  0  0
    4.3832    0.8898   20.4228 C   0  0  0  0  0  0  0  0  0  0  0  0
    5.9654   -1.1842   21.1626 S   0  0  0  0  0  0  0  0  0  0  0  0
    5.7713   -2.4413   20.5093 O   0  0  0  0  0  0  0  0  0  0  0  0
    5.3180   -0.9264   22.4114 O   0  0  0  0  0  0  0  0  0  0  0  0
    7.5662   -1.0123   21.4329 N   0  0  0  0  0  0  0  0  0  0  0  0
    8.2917   -2.1870   21.9368 C   0  0  0  0  0  0  0  0  0  0  0  0
    9.7482   -2.0284   21.6324 C   0  0  0  0  0  0  0  0  0  0  0  0
   10.2534   -0.7803   22.1803 N   0  0  0  0  0  0  0  0  0  0  0  0
    9.4981    0.4053   21.7635 C   0  0  0  0  0  0  0  0  0  0  0  0
    8.0381    0.2310   22.0603 C   0  0  0  0  0  0  0  0  0  0  0  0
   11.3525   -0.7768   22.9689 C   0  0  0  0  0  0  0  0  0  0  0  0
   11.9494   -1.8133   23.2321 O   0  0  0  0  0  0  0  0  0  0  0  0
   11.8306    0.5480   23.5319 C   0  0  0  0  0  0  0  0  0  0  0  0
   13.2975    0.3335   24.4957 Cl  0  0  0  0  0  0  0  0  0  0  0  0
  1  2  1  0
  2  3  2  0
  3  4  1  0
  4  5  2  0
  5  6  1  0
  5  7  1  0
  7  8  2  0
  7  9  1  0
  9 10  2  0
  9 11  2  0
  9 12  1  0
 12 13  1  0
 13 14  1  0
 14 15  1  0
 15 16  1  0
 16 17  1  0
 15 18  1  0
 18 19  2  0
 18 20  1  0
 20 21  1  0
  8  2  1  0
 17 12  1  0
M  END
