CVD-0000406|dock_bobby27042020.27|mol2|18|dock2
     RDKit          3D

 25 28  0  0  0  0  0  0  0  0999 V2000
    5.4090    0.6119   17.8289 C   0  0  0  0  0  0  0  0  0  0  0  0
    5.4831    0.3200   19.3200 C   0  0  0  0  0  0  0  0  0  0  0  0
    6.7773   -0.3522   19.7246 C   0  0  0  0  0  0  0  0  0  0  0  0
    7.8876   -0.5953   18.9588 C   0  0  0  0  0  0  0  0  0  0  0  0
    8.1398   -0.3187   17.6769 F   0  0  0  0  0  0  0  0  0  0  0  0
    8.8301   -1.2197   19.7044 N   0  0  0  0  0  0  0  0  0  0  0  0
    8.3475   -1.3972   20.9835 C   0  0  0  0  0  0  0  0  0  0  0  0
    8.9294   -1.9818   22.1115 C   0  0  0  0  0  0  0  0  0  0  0  0
   10.2197   -2.4788   21.9231 O   0  0  0  0  0  0  0  0  0  0  0  0
   11.3396   -1.8646   22.4121 C   0  0  0  0  0  0  0  0  0  0  0  0
   11.3551   -0.4841   22.3095 C   0  0  0  0  0  0  0  0  0  0  0  0
   12.4635    0.1997   22.7936 C   0  0  0  0  0  0  0  0  0  0  0  0
   13.5005   -0.5308   23.3575 C   0  0  0  0  0  0  0  0  0  0  0  0
   13.3775   -1.9039   23.4096 C   0  0  0  0  0  0  0  0  0  0  0  0
   12.3155   -2.5772   22.9477 N   0  0  0  0  0  0  0  0  0  0  0  0
   12.5286    1.6635   22.7070 C   0  0  0  0  0  0  0  0  0  0  0  0
   11.5481    2.5954   22.5496 C   0  0  0  0  0  0  0  0  0  0  0  0
   12.0799    3.8600   22.5223 N   0  0  0  0  0  0  0  0  0  0  0  0
   13.3805    3.6887   22.6631 C   0  0  0  0  0  0  0  0  0  0  0  0
   13.6977    2.3864   22.7778 N   0  0  0  0  0  0  0  0  0  0  0  0
    8.2194   -2.0408   23.3014 C   0  0  0  0  0  0  0  0  0  0  0  0
    6.9520   -1.5046   23.3146 C   0  0  0  0  0  0  0  0  0  0  0  0
    6.2552   -1.5592   24.4818 F   0  0  0  0  0  0  0  0  0  0  0  0
    6.3398   -0.9178   22.2322 C   0  0  0  0  0  0  0  0  0  0  0  0
    7.0507   -0.8613   21.0353 C   0  0  0  0  0  0  0  0  0  0  0  0
  1  2  1  0
  2  3  1  0
  3  4  2  0
  4  5  1  0
  4  6  1  0
  6  7  1  0
  7  8  2  0
  8  9  1  0
  9 10  1  0
 10 11  2  0
 11 12  1  0
 12 13  2  0
 13 14  1  0
 14 15  2  0
 12 16  1  0
 16 17  2  0
 17 18  1  0
 18 19  2  0
 19 20  1  0
  8 21  1  0
 21 22  2  0
 22 23  1  0
 22 24  1  0
 24 25  2  0
 25  3  1  0
 25  7  1  0
 15 10  1  0
 20 16  1  0
M  END
