CVD-0000006|dock_bobby27042020.85|mol2|45|dock1
     RDKit          3D

 42 47  0  0  0  0  0  0  0  0999 V2000
    8.4019   -1.2068   27.1489 C   0  0  0  0  0  0  0  0  0  0  0  0
    7.4588   -0.1719   26.5993 C   0  0  0  0  0  0  0  0  0  0  0  0
    6.9716    0.6597   27.3813 O   0  0  0  0  0  0  0  0  0  0  0  0
    7.0965   -0.1127   25.1742 C   0  0  0  0  0  0  0  0  0  0  0  0
    6.2834    0.7672   24.6071 C   0  0  0  0  0  0  0  0  0  0  0  0
    5.8918    0.8539   23.1468 C   0  0  0  0  0  0  0  0  0  0  0  0
    5.0592    2.1321   22.9287 C   0  0  0  0  0  0  0  0  0  0  0  0
    4.4259    2.2554   21.5638 C   0  0  0  0  0  0  0  0  0  0  0  0
    5.2080    2.2918   20.4197 C   0  0  0  0  0  0  0  0  0  0  0  0
    4.6277    2.4082   19.1676 C   0  0  0  0  0  0  0  0  0  0  0  0
    3.2574    2.4904   19.0448 C   0  0  0  0  0  0  0  0  0  0  0  0
    2.4680    2.4568   20.1740 C   0  0  0  0  0  0  0  0  0  0  0  0
    3.0491    2.3404   21.4257 C   0  0  0  0  0  0  0  0  0  0  0  0
    5.2300   -0.4478   22.6412 C   0  0  0  0  0  0  0  0  0  0  0  0
    6.2243   -1.0303   21.7603 O   0  0  0  0  0  0  0  0  0  0  0  0
    7.2405   -0.1328   21.6884 C   0  0  0  0  0  0  0  0  0  0  0  0
    8.3671   -0.5393   20.7968 C   0  0  0  0  0  0  0  0  0  0  0  0
    9.6572   -0.3785   21.4514 N   0  0  0  0  0  0  0  0  0  0  0  0
   10.0346    0.5871   22.3075 C   0  0  0  0  0  0  0  0  0  0  0  0
   11.3333    0.3394   22.6317 C   0  0  0  0  0  0  0  0  0  0  0  0
   12.5338    0.7699   23.4374 C   0  0  0  0  0  0  0  0  0  0  0  0
   13.6173   -0.2498   23.1420 C   0  0  0  0  0  0  0  0  0  0  0  0
   13.0758   -1.2834   22.2062 C   0  0  0  0  0  0  0  0  0  0  0  0
   11.6690   -0.8619   21.8805 C   0  0  0  0  0  0  0  0  0  0  0  0
   10.6368   -1.2729   21.1763 N   0  0  0  0  0  0  0  0  0  0  0  0
   14.1348   -0.8085   24.3871 N   0  0  0  0  0  0  0  0  0  0  0  0
   14.7969   -1.9408   24.5275 C   0  0  0  0  0  0  0  0  0  0  0  0
   15.2239   -2.3527   25.7257 N   0  0  0  0  0  0  0  0  0  0  0  0
   15.0477   -2.6898   23.4671 N   0  0  0  0  0  0  0  0  0  0  0  0
   12.9467    2.1901   23.1033 C   0  0  0  0  0  0  0  0  0  0  0  0
   12.6337    3.2834   23.7097 N   0  0  0  0  0  0  0  0  0  0  0  0
   13.2661    4.2833   22.9938 C   0  0  0  0  0  0  0  0  0  0  0  0
   13.1270    5.7123   23.4163 C   0  0  0  0  0  0  0  0  0  0  0  0
   11.6944    6.0900   23.7183 C   0  0  0  0  0  0  0  0  0  0  0  0
   10.7342    6.0833   22.7184 C   0  0  0  0  0  0  0  0  0  0  0  0
    9.4226    6.4323   22.9941 C   0  0  0  0  0  0  0  0  0  0  0  0
    9.0565    6.7930   24.2730 C   0  0  0  0  0  0  0  0  0  0  0  0
   10.0019    6.8052   25.2760 C   0  0  0  0  0  0  0  0  0  0  0  0
   11.3133    6.4560   24.9999 C   0  0  0  0  0  0  0  0  0  0  0  0
   13.9365    3.7280   21.9748 C   0  0  0  0  0  0  0  0  0  0  0  0
   13.7484    2.3730   22.0168 O   0  0  0  0  0  0  0  0  0  0  0  0
    7.1635    0.9293   22.3835 N   0  0  0  0  0  0  0  0  0  0  0  0
  1  2  1  0
  2  3  2  0
  2  4  1  0
  4  5  2  0
  5  6  1  0
  6  7  1  0
  7  8  1  0
  8  9  2  0
  9 10  1  0
 10 11  2  0
 11 12  1  0
 12 13  2  0
  6 14  1  0
 14 15  1  0
 15 16  1  0
 16 17  1  0
 17 18  1  0
 18 19  1  0
 19 20  2  0
 20 21  1  0
 21 22  1  0
 22 23  1  0
 23 24  1  0
 24 25  2  0
 22 26  1  0
 26 27  1  0
 27 28  1  0
 27 29  2  0
 21 30  1  0
 30 31  2  0
 31 32  1  0
 32 33  1  0
 33 34  1  0
 34 35  2  0
 35 36  1  0
 36 37  2  0
 37 38  1  0
 38 39  2  0
 32 40  2  0
 40 41  1  0
 16 42  2  0
 42  6  1  0
 13  8  1  0
 25 18  1  0
 41 30  1  0
 24 20  1  0
 39 34  1  0
M  END
