CVD-0000138|dock_bobby27042020.14|mol2|6|dock3
     RDKit          3D

 18 19  0  0  0  0  0  0  0  0999 V2000
    9.5369   -0.6070   22.7865 O   0  0  0  0  0  0  0  0  0  0  0  0
    9.9586   -1.0796   21.7355 C   0  0  0  0  0  0  0  0  0  0  0  0
   11.1954   -1.6751   21.6133 N   0  0  0  0  0  0  0  0  0  0  0  0
   12.2169   -1.8838   22.5755 C   0  0  0  0  0  0  0  0  0  0  0  0
   11.8453   -2.2567   23.8610 C   0  0  0  0  0  0  0  0  0  0  0  0
   12.8163   -2.4743   24.8224 C   0  0  0  0  0  0  0  0  0  0  0  0
   14.1363   -2.3140   24.4722 C   0  0  0  0  0  0  0  0  0  0  0  0
   14.5271   -1.9549   23.2496 N   0  0  0  0  0  0  0  0  0  0  0  0
   13.5816   -1.7402   22.3294 C   0  0  0  0  0  0  0  0  0  0  0  0
    9.1790   -1.0055   20.6005 N   0  0  0  0  0  0  0  0  0  0  0  0
    7.8948   -0.4683   20.3227 C   0  0  0  0  0  0  0  0  0  0  0  0
    6.9267   -0.5687   21.3162 C   0  0  0  0  0  0  0  0  0  0  0  0
    5.6531   -0.0620   21.1172 C   0  0  0  0  0  0  0  0  0  0  0  0
    5.3231    0.5494   19.9208 C   0  0  0  0  0  0  0  0  0  0  0  0
    6.2747    0.6437   18.9125 C   0  0  0  0  0  0  0  0  0  0  0  0
    7.5532    0.1271   19.1101 C   0  0  0  0  0  0  0  0  0  0  0  0
    5.9436    1.2741   17.6585 C   0  0  0  0  0  0  0  0  0  0  0  0
    5.7086    1.7922   16.6680 N   0  0  0  0  0  0  0  0  0  0  0  0
  1  2  2  0
  2  3  1  0
  3  4  1  0
  4  5  2  0
  5  6  1  0
  6  7  2  0
  7  8  1  0
  8  9  2  0
  2 10  1  0
 10 11  1  0
 11 12  2  0
 12 13  1  0
 13 14  2  0
 14 15  1  0
 15 16  2  0
 15 17  1  0
 17 18  3  0
  9  4  1  0
 16 11  1  0
M  END
