CVD-0000941|dock_bobby27042020.11|mol2|21|dock2
     RDKit          3D

 23 25  0  0  0  0  0  0  0  0999 V2000
   15.6162   -2.7841   25.4384 F   0  0  0  0  0  0  0  0  0  0  0  0
   14.6294   -2.2243   24.6877 C   0  0  0  0  0  0  0  0  0  0  0  0
   13.9891   -1.1148   25.1682 C   0  0  0  0  0  0  0  0  0  0  0  0
   12.9869   -0.5517   24.3984 C   0  0  0  0  0  0  0  0  0  0  0  0
   12.6349   -1.0919   23.1694 C   0  0  0  0  0  0  0  0  0  0  0  0
   13.3136   -2.2186   22.7255 C   0  0  0  0  0  0  0  0  0  0  0  0
   14.3182   -2.7941   23.4833 C   0  0  0  0  0  0  0  0  0  0  0  0
   11.5323   -0.4666   22.3383 C   0  0  0  0  0  0  0  0  0  0  0  0
   11.5392    0.9881   22.4397 N   0  0  0  0  0  0  0  0  0  0  0  0
   12.6625    1.7130   22.5193 C   0  0  0  0  0  0  0  0  0  0  0  0
   13.7881    1.2167   22.5140 O   0  0  0  0  0  0  0  0  0  0  0  0
   12.4950    3.1752   22.6167 C   0  0  0  0  0  0  0  0  0  0  0  0
   11.3746    3.9379   22.8686 C   0  0  0  0  0  0  0  0  0  0  0  0
   11.6827    5.3197   22.8698 C   0  0  0  0  0  0  0  0  0  0  0  0
   12.9788    5.5798   22.6288 C   0  0  0  0  0  0  0  0  0  0  0  0
   13.8854    4.1539   22.3891 S   0  0  0  0  0  0  0  0  0  0  0  0
   10.1588   -0.9824   22.7947 C   0  0  0  0  0  0  0  0  0  0  0  0
   10.1541   -2.4799   23.0171 C   0  0  0  0  0  0  0  0  0  0  0  0
    8.7850   -3.0369   23.2738 C   0  0  0  0  0  0  0  0  0  0  0  0
    7.7190   -2.4346   22.7169 C   0  0  0  0  0  0  0  0  0  0  0  0
    7.9596   -1.3388   21.7233 C   0  0  0  0  0  0  0  0  0  0  0  0
    7.1298   -1.0609   20.8459 O   0  0  0  0  0  0  0  0  0  0  0  0
    9.1217   -0.6413   21.8008 N   0  0  0  0  0  0  0  0  0  0  0  0
  1  2  1  0
  2  3  2  0
  3  4  1  0
  4  5  2  0
  5  6  1  0
  6  7  2  0
  5  8  1  0
  8  9  1  0
  9 10  1  0
 10 11  2  0
 10 12  1  0
 12 13  2  0
 13 14  1  0
 14 15  2  0
 15 16  1  0
  8 17  1  0
 17 18  1  0
 18 19  1  0
 19 20  2  0
 20 21  1  0
 21 22  2  0
 21 23  1  0
  7  2  1  0
 16 12  1  0
 23 17  1  0
M  END
