CVD-0000080|dock_bobby27042020.71|mol2|29|dock1
     RDKit          3D

 16 17  0  0  0  0  0  0  0  0999 V2000
   13.8025    0.6291   23.1727 C   0  0  0  0  0  0  0  0  0  0  0  0
   12.4699    0.0229   22.8820 C   0  0  0  0  0  0  0  0  0  0  0  0
   11.3683    0.6950   22.8432 N   0  0  0  0  0  0  0  0  0  0  0  0
   10.2573   -0.0981   22.5603 N   0  0  0  0  0  0  0  0  0  0  0  0
   10.5667   -1.3395   22.3976 C   0  0  0  0  0  0  0  0  0  0  0  0
    9.5525   -2.4015   22.0906 C   0  0  0  0  0  0  0  0  0  0  0  0
    8.2613   -1.7464   21.6480 C   0  0  0  0  0  0  0  0  0  0  0  0
    7.3176   -1.6437   22.4249 O   0  0  0  0  0  0  0  0  0  0  0  0
    8.2798   -1.3014   20.3682 N   0  0  0  0  0  0  0  0  0  0  0  0
    7.2932   -0.6354   19.5999 C   0  0  0  0  0  0  0  0  0  0  0  0
    6.0396   -0.2799   20.0872 C   0  0  0  0  0  0  0  0  0  0  0  0
    5.1481    0.3698   19.2509 C   0  0  0  0  0  0  0  0  0  0  0  0
    5.5304    0.6451   17.9582 C   0  0  0  0  0  0  0  0  0  0  0  0
    6.7239    0.3167   17.4636 N   0  0  0  0  0  0  0  0  0  0  0  0
    7.5771   -0.3099   18.2786 C   0  0  0  0  0  0  0  0  0  0  0  0
   12.2626   -1.6721   22.5829 S   0  0  0  0  0  0  0  0  0  0  0  0
  1  2  1  0
  2  3  2  0
  3  4  1  0
  4  5  2  0
  5  6  1  0
  6  7  1  0
  7  8  2  0
  7  9  1  0
  9 10  1  0
 10 11  2  0
 11 12  1  0
 12 13  2  0
 13 14  1  0
 14 15  2  0
  5 16  1  0
 16  2  1  0
 15 10  1  0
M  END
