CVD-0000541|dock_bobby27042020.12|mol2|36|dock3
     RDKit          3D

 23 25  0  0  0  0  0  0  0  0999 V2000
   12.7707    4.6586   22.8920 C   0  0  0  0  0  0  0  0  0  0  0  0
   11.2918    4.3808   22.8075 C   0  0  0  0  0  0  0  0  0  0  0  0
   10.4164    5.4624   22.7876 C   0  0  0  0  0  0  0  0  0  0  0  0
    9.0598    5.2431   22.7077 C   0  0  0  0  0  0  0  0  0  0  0  0
    8.5245    4.0275   22.6464 N   0  0  0  0  0  0  0  0  0  0  0  0
    9.3554    2.9805   22.6639 C   0  0  0  0  0  0  0  0  0  0  0  0
   10.7451    3.0840   22.7421 C   0  0  0  0  0  0  0  0  0  0  0  0
   11.6397    1.9759   22.7603 N   0  0  0  0  0  0  0  0  0  0  0  0
   11.4696    0.7171   23.2887 C   0  0  0  0  0  0  0  0  0  0  0  0
   10.4602    0.3229   23.8633 O   0  0  0  0  0  0  0  0  0  0  0  0
   12.5678   -0.0558   23.0986 N   0  0  0  0  0  0  0  0  0  0  0  0
   12.6791   -1.4234   23.5460 C   0  0  0  0  0  0  0  0  0  0  0  0
   14.1659   -1.8559   23.4970 C   0  0  0  0  0  0  0  0  0  0  0  0
   14.4968   -2.4332   24.7800 C   0  0  0  0  0  0  0  0  0  0  0  0
   13.3658   -2.3368   25.6922 C   0  0  0  0  0  0  0  0  0  0  0  0
   12.2687   -1.5958   25.0134 C   0  0  0  0  0  0  0  0  0  0  0  0
   11.9172   -2.2441   22.6781 O   0  0  0  0  0  0  0  0  0  0  0  0
   10.5577   -1.9892   22.4050 C   0  0  0  0  0  0  0  0  0  0  0  0
   10.2352   -1.0560   21.4351 C   0  0  0  0  0  0  0  0  0  0  0  0
    8.9039   -0.7896   21.1621 C   0  0  0  0  0  0  0  0  0  0  0  0
    7.9069   -1.4487   21.8488 C   0  0  0  0  0  0  0  0  0  0  0  0
    8.2339   -2.3826   22.8086 C   0  0  0  0  0  0  0  0  0  0  0  0
    9.5607   -2.6635   23.0894 C   0  0  0  0  0  0  0  0  0  0  0  0
  1  2  1  0
  2  3  2  0
  3  4  1  0
  4  5  2  0
  5  6  1  0
  6  7  2  0
  7  8  1  0
  8  9  1  0
  9 10  2  0
  9 11  1  0
 11 12  1  0
 12 13  1  0
 13 14  1  0
 14 15  1  0
 15 16  1  0
 12 17  1  0
 17 18  1  0
 18 19  2  0
 19 20  1  0
 20 21  2  0
 21 22  1  0
 22 23  2  0
  7  2  1  0
 16 12  1  0
 23 18  1  0
M  END
