CVD-0001576|dock_bobby27042020.23|mol2|27|dock1
     RDKit          3D

 22 23  0  0  0  0  0  0  0  0999 V2000
    8.6617    4.7536   23.2588 C   0  0  0  0  0  0  0  0  0  0  0  0
   10.0413    4.8636   22.9152 O   0  0  0  0  0  0  0  0  0  0  0  0
   10.7924    3.7225   22.8381 C   0  0  0  0  0  0  0  0  0  0  0  0
   10.2852    2.4321   22.8886 C   0  0  0  0  0  0  0  0  0  0  0  0
   11.1565    1.3467   22.7993 C   0  0  0  0  0  0  0  0  0  0  0  0
   10.9685   -0.0760   22.8178 C   0  0  0  0  0  0  0  0  0  0  0  0
    9.6599   -0.7983   22.9510 C   0  0  0  0  0  0  0  0  0  0  0  0
    9.5760   -2.0370   22.0816 C   0  0  0  0  0  0  0  0  0  0  0  0
    9.3152   -1.7057   20.6881 N   0  0  0  0  0  0  0  0  0  0  0  0
    8.1304   -1.2621   20.2636 C   0  0  0  0  0  0  0  0  0  0  0  0
    8.0176   -0.9830   18.7936 C   0  0  0  0  0  0  0  0  0  0  0  0
    7.1838   -1.1062   21.0285 O   0  0  0  0  0  0  0  0  0  0  0  0
   12.2091   -0.6261   22.6910 C   0  0  0  0  0  0  0  0  0  0  0  0
   13.1558    0.3566   22.5949 N   0  0  0  0  0  0  0  0  0  0  0  0
   12.5381    1.5819   22.6586 C   0  0  0  0  0  0  0  0  0  0  0  0
   13.0465    2.8733   22.6073 C   0  0  0  0  0  0  0  0  0  0  0  0
   12.1733    3.9454   22.6984 C   0  0  0  0  0  0  0  0  0  0  0  0
   12.6210    5.2962   22.6551 O   0  0  0  0  0  0  0  0  0  0  0  0
   14.0968    5.6973   22.2196 S   0  0  0  0  0  0  0  0  0  0  0  0
   14.2180    7.2057   22.1937 O   0  0  0  0  0  0  0  0  0  0  0  0
   15.0132    5.1355   23.1817 O   0  0  0  0  0  0  0  0  0  0  0  0
   14.2823    5.1880   20.8829 O   0  0  0  0  0  0  0  0  0  0  0  0
  1  2  1  0
  2  3  1  0
  3  4  2  0
  4  5  1  0
  5  6  1  0
  6  7  1  0
  7  8  1  0
  8  9  1  0
  9 10  1  0
 10 11  1  0
 10 12  2  0
  6 13  2  0
 13 14  1  0
 14 15  1  0
 15 16  1  0
 16 17  2  0
 17 18  1  0
 18 19  1  0
 19 20  1  0
 19 21  2  0
 19 22  2  0
 17  3  1  0
 15  5  2  0
M  END
