CVD-0003759|dock_bobby27042020.15|mol2|33|dock3
     RDKit          3D

 24 26  0  0  0  0  0  0  0  0999 V2000
    9.3324    1.2319   21.1255 N   0  0  0  0  0  0  0  0  0  0  0  0
   10.2071    0.7249   21.6571 C   0  0  0  0  0  0  0  0  0  0  0  0
   11.3158    0.0613   22.2916 C   0  0  0  0  0  0  0  0  0  0  0  0
   12.4811    0.7782   22.5692 C   0  0  0  0  0  0  0  0  0  0  0  0
   13.5542    0.1506   23.1785 C   0  0  0  0  0  0  0  0  0  0  0  0
   13.4731   -1.1846   23.5118 C   0  0  0  0  0  0  0  0  0  0  0  0
   12.3197   -1.9018   23.2392 C   0  0  0  0  0  0  0  0  0  0  0  0
   11.2229   -1.2996   22.6286 C   0  0  0  0  0  0  0  0  0  0  0  0
    9.9647   -2.0751   22.3257 C   0  0  0  0  0  0  0  0  0  0  0  0
    8.9390   -1.8248   23.3360 N   0  0  0  0  0  0  0  0  0  0  0  0
    7.5848   -2.2156   22.9801 C   0  0  0  0  0  0  0  0  0  0  0  0
    6.7499   -1.9242   24.2244 C   0  0  0  0  0  0  0  0  0  0  0  0
    7.1165   -2.8609   25.3582 C   0  0  0  0  0  0  0  0  0  0  0  0
    6.9671   -4.3172   24.9451 C   0  0  0  0  0  0  0  0  0  0  0  0
    7.7863   -4.6148   23.6997 C   0  0  0  0  0  0  0  0  0  0  0  0
    7.4325   -3.6702   22.5580 C   0  0  0  0  0  0  0  0  0  0  0  0
    7.0248   -1.3698   21.9064 C   0  0  0  0  0  0  0  0  0  0  0  0
    6.5875   -0.7675   20.9732 C   0  0  0  0  0  0  0  0  0  0  0  0
    6.1342   -0.0313   19.8261 C   0  0  0  0  0  0  0  0  0  0  0  0
    4.9085    0.6248   19.8268 C   0  0  0  0  0  0  0  0  0  0  0  0
    4.5105    1.3227   18.6999 C   0  0  0  0  0  0  0  0  0  0  0  0
    5.3472    1.3447   17.6069 C   0  0  0  0  0  0  0  0  0  0  0  0
    6.5284    0.7259   17.5751 N   0  0  0  0  0  0  0  0  0  0  0  0
    6.9025    0.0552   18.6686 C   0  0  0  0  0  0  0  0  0  0  0  0
  1  2  3  0
  2  3  1  0
  3  4  2  0
  4  5  1  0
  5  6  2  0
  6  7  1  0
  7  8  2  0
  8  9  1  0
  9 10  1  0
 10 11  1  0
 11 12  1  0
 12 13  1  0
 13 14  1  0
 14 15  1  0
 15 16  1  0
 11 17  1  0
 17 18  3  0
 18 19  1  0
 19 20  2  0
 20 21  1  0
 21 22  2  0
 22 23  1  0
 23 24  2  0
  8  3  1  0
 16 11  1  0
 24 19  1  0
M  END
