CVD-0001906|dock_bobby27042020.36|mol2|34|dock3
     RDKit          3D

 33 35  0  0  0  0  0  0  0  0999 V2000
   12.9267    4.3310   22.6650 C   0  0  0  0  0  0  0  0  0  0  0  0
   13.5105    3.0554   22.4080 O   0  0  0  0  0  0  0  0  0  0  0  0
   12.7945    1.9062   22.6346 C   0  0  0  0  0  0  0  0  0  0  0  0
   11.4166    1.9144   22.7713 C   0  0  0  0  0  0  0  0  0  0  0  0
   10.7332    0.7326   22.9983 C   0  0  0  0  0  0  0  0  0  0  0  0
   11.4133   -0.4840   23.0969 C   0  0  0  0  0  0  0  0  0  0  0  0
   10.7471   -1.7207   23.3322 N   0  0  0  0  0  0  0  0  0  0  0  0
    9.6888   -2.0257   24.1278 C   0  0  0  0  0  0  0  0  0  0  0  0
    9.0730   -1.2353   24.8368 O   0  0  0  0  0  0  0  0  0  0  0  0
    9.3081   -3.5246   24.0787 C   0  0  0  0  0  0  0  0  0  0  0  0
    8.3116   -3.8106   23.0080 N   0  0  0  0  0  0  0  0  0  0  0  0
    7.6610   -5.0692   23.0426 C   0  0  0  0  0  0  0  0  0  0  0  0
    7.9426   -5.8636   23.9386 O   0  0  0  0  0  0  0  0  0  0  0  0
    6.6467   -5.5422   22.0573 C   0  0  0  0  0  0  0  0  0  0  0  0
    6.3963   -6.8179   21.9259 C   0  0  0  0  0  0  0  0  0  0  0  0
    8.0489   -2.7997   22.0353 C   0  0  0  0  0  0  0  0  0  0  0  0
    6.8479   -2.2012   21.5733 C   0  0  0  0  0  0  0  0  0  0  0  0
    7.2022   -1.3126   20.6415 C   0  0  0  0  0  0  0  0  0  0  0  0
    8.5446   -1.3177   20.5075 O   0  0  0  0  0  0  0  0  0  0  0  0
    9.0717   -2.2633   21.4195 N   0  0  0  0  0  0  0  0  0  0  0  0
    6.4440   -0.3413   19.7498 C   0  0  0  0  0  0  0  0  0  0  0  0
    7.4335    0.5855   19.0381 C   0  0  0  0  0  0  0  0  0  0  0  0
    5.6405   -1.1205   18.7047 C   0  0  0  0  0  0  0  0  0  0  0  0
    5.4865    0.4990   20.5996 C   0  0  0  0  0  0  0  0  0  0  0  0
    8.8947   -4.1430   25.4129 C   0  0  0  0  0  0  0  0  0  0  0  0
    9.6508   -5.0650   26.1256 C   0  0  0  0  0  0  0  0  0  0  0  0
    9.1883   -5.5619   27.3318 C   0  0  0  0  0  0  0  0  0  0  0  0
    7.9691   -5.1263   27.7970 C   0  0  0  0  0  0  0  0  0  0  0  0
    7.2116   -4.2487   27.1387 N   0  0  0  0  0  0  0  0  0  0  0  0
    7.6820   -3.7818   25.9783 C   0  0  0  0  0  0  0  0  0  0  0  0
   12.8144   -0.4918   22.9579 C   0  0  0  0  0  0  0  0  0  0  0  0
   13.6503   -1.7435   23.0407 C   0  0  0  0  0  0  0  0  0  0  0  0
   13.4794    0.7085   22.7273 C   0  0  0  0  0  0  0  0  0  0  0  0
  1  2  1  0
  2  3  1  0
  3  4  2  0
  4  5  1  0
  5  6  2  0
  6  7  1  0
  7  8  1  0
  8  9  2  0
  8 10  1  0
 10 11  1  0
 11 12  1  0
 12 13  2  0
 12 14  1  0
 14 15  2  0
 11 16  1  0
 16 17  1  0
 17 18  2  0
 18 19  1  0
 19 20  1  0
 18 21  1  0
 21 22  1  0
 21 23  1  0
 21 24  1  0
 10 25  1  0
 25 26  2  0
 26 27  1  0
 27 28  2  0
 28 29  1  0
 29 30  2  0
  6 31  1  0
 31 32  1  0
 31 33  2  0
 33  3  1  0
 20 16  2  0
 30 25  1  0
M  END
