CVD-0002798|dock_bobby27042020.33|mol2|5|dock3
     RDKit          3D

 21 23  0  0  0  0  0  0  0  0999 V2000
    9.4263   -1.7539   21.5958 O   0  0  0  0  0  0  0  0  0  0  0  0
    9.2857   -0.5402   21.5026 C   0  0  0  0  0  0  0  0  0  0  0  0
    8.3077   -0.0234   20.7371 N   0  0  0  0  0  0  0  0  0  0  0  0
    7.3415   -0.8656   20.0319 C   0  0  0  0  0  0  0  0  0  0  0  0
    8.0190   -0.8667   18.5337 C   0  0  0  0  0  0  0  0  0  0  0  0
    6.5542   -0.6877   18.7080 C   0  0  0  0  0  0  0  0  0  0  0  0
   10.1706    0.3509   22.2070 N   0  0  0  0  0  0  0  0  0  0  0  0
    9.9803    1.7535   22.3827 C   0  0  0  0  0  0  0  0  0  0  0  0
    8.8517    2.2104   22.4392 O   0  0  0  0  0  0  0  0  0  0  0  0
   11.0913    2.7610   22.5067 C   0  0  0  0  0  0  0  0  0  0  0  0
   12.4447    2.4754   22.3270 C   0  0  0  0  0  0  0  0  0  0  0  0
   13.4025    3.4692   22.4433 C   0  0  0  0  0  0  0  0  0  0  0  0
   13.0343    4.7574   22.7631 C   0  0  0  0  0  0  0  0  0  0  0  0
   11.7052    5.0532   22.9705 C   0  0  0  0  0  0  0  0  0  0  0  0
   10.7435    4.0649   22.8459 C   0  0  0  0  0  0  0  0  0  0  0  0
   11.3626   -0.2998   22.7077 C   0  0  0  0  0  0  0  0  0  0  0  0
   12.1000   -1.1866   21.9336 C   0  0  0  0  0  0  0  0  0  0  0  0
   13.2296   -1.7763   22.4730 C   0  0  0  0  0  0  0  0  0  0  0  0
   13.5829   -1.4608   23.7650 C   0  0  0  0  0  0  0  0  0  0  0  0
   12.8905   -0.6132   24.5271 N   0  0  0  0  0  0  0  0  0  0  0  0
   11.8008   -0.0485   23.9974 C   0  0  0  0  0  0  0  0  0  0  0  0
  1  2  2  0
  2  3  1  0
  3  4  1  0
  4  5  1  0
  5  6  1  0
  2  7  1  0
  7  8  1  0
  8  9  2  0
  8 10  1  0
 10 11  2  0
 11 12  1  0
 12 13  2  0
 13 14  1  0
 14 15  2  0
  7 16  1  0
 16 17  2  0
 17 18  1  0
 18 19  2  0
 19 20  1  0
 20 21  2  0
  6  4  1  0
 15 10  1  0
 21 16  1  0
M  END
