CVD-0000572|dock_bobby27042020.55|mol2|31|dock1
     RDKit          3D

 22 24  0  0  0  0  0  0  0  0999 V2000
    7.1480   -1.2267   18.1078 C   0  0  0  0  0  0  0  0  0  0  0  0
    6.8728    0.0333   18.8876 C   0  0  0  0  0  0  0  0  0  0  0  0
    5.7094    0.7442   18.6084 C   0  0  0  0  0  0  0  0  0  0  0  0
    5.4318    1.9007   19.3018 C   0  0  0  0  0  0  0  0  0  0  0  0
    6.2307    2.3900   20.2455 N   0  0  0  0  0  0  0  0  0  0  0  0
    7.3516    1.7164   20.5220 C   0  0  0  0  0  0  0  0  0  0  0  0
    7.7332    0.5356   19.8832 C   0  0  0  0  0  0  0  0  0  0  0  0
    8.9253   -0.1876   20.1705 N   0  0  0  0  0  0  0  0  0  0  0  0
    9.6286   -0.2843   21.3480 C   0  0  0  0  0  0  0  0  0  0  0  0
    9.3381    0.2620   22.4080 O   0  0  0  0  0  0  0  0  0  0  0  0
   10.7212   -1.0729   21.2268 N   0  0  0  0  0  0  0  0  0  0  0  0
   11.6545   -1.3709   22.2992 C   0  0  0  0  0  0  0  0  0  0  0  0
   13.1145   -1.6149   21.9298 C   0  0  0  0  0  0  0  0  0  0  0  0
   12.7337   -0.3435   22.6247 C   0  0  0  0  0  0  0  0  0  0  0  0
   11.0820   -2.1534   23.4136 C   0  0  0  0  0  0  0  0  0  0  0  0
   10.6958   -2.8565   24.2975 C   0  0  0  0  0  0  0  0  0  0  0  0
   10.2914   -3.7495   25.3474 C   0  0  0  0  0  0  0  0  0  0  0  0
   10.7365   -5.0655   25.4178 C   0  0  0  0  0  0  0  0  0  0  0  0
   10.3697   -5.9077   26.3872 N   0  0  0  0  0  0  0  0  0  0  0  0
    9.5398   -5.4091   27.2983 C   0  0  0  0  0  0  0  0  0  0  0  0
    9.0420   -4.1772   27.3476 N   0  0  0  0  0  0  0  0  0  0  0  0
    9.4271   -3.3591   26.3650 C   0  0  0  0  0  0  0  0  0  0  0  0
  1  2  1  0
  2  3  2  0
  3  4  1  0
  4  5  2  0
  5  6  1  0
  6  7  2  0
  7  8  1  0
  8  9  1  0
  9 10  2  0
  9 11  1  0
 11 12  1  0
 12 13  1  0
 13 14  1  0
 12 15  1  0
 15 16  3  0
 16 17  1  0
 17 18  2  0
 18 19  1  0
 19 20  2  0
 20 21  1  0
 21 22  2  0
  7  2  1  0
 14 12  1  0
 22 17  1  0
M  END
