CVD-0001924|dock_bobby27042020.8|mol2|4|dock1
     RDKit          3D

 24 26  0  0  0  0  0  0  0  0999 V2000
   14.0823   -0.9175   23.1124 N   0  0  0  0  0  0  0  0  0  0  0  0
   12.8466   -0.4726   23.7944 C   0  0  0  0  0  0  0  0  0  0  0  0
   11.8896    0.2558   22.8611 C   0  0  0  0  0  0  0  0  0  0  0  0
   10.5675    0.0634   23.3711 O   0  0  0  0  0  0  0  0  0  0  0  0
    9.5933    0.7307   22.5553 C   0  0  0  0  0  0  0  0  0  0  0  0
    9.7529    2.2223   22.6701 C   0  0  0  0  0  0  0  0  0  0  0  0
   11.1920    2.6678   22.6766 C   0  0  0  0  0  0  0  0  0  0  0  0
   11.5299    4.0286   22.6037 C   0  0  0  0  0  0  0  0  0  0  0  0
   10.5810    5.0071   22.4785 O   0  0  0  0  0  0  0  0  0  0  0  0
   12.8674    4.4214   22.5556 C   0  0  0  0  0  0  0  0  0  0  0  0
   13.1652    5.7407   22.4288 O   0  0  0  0  0  0  0  0  0  0  0  0
   13.8786    3.4717   22.5792 C   0  0  0  0  0  0  0  0  0  0  0  0
   13.5433    2.1328   22.6509 C   0  0  0  0  0  0  0  0  0  0  0  0
   12.2095    1.7247   22.6997 C   0  0  0  0  0  0  0  0  0  0  0  0
    8.2182    0.2441   23.0146 C   0  0  0  0  0  0  0  0  0  0  0  0
    8.1348   -1.2904   22.9820 C   0  0  0  0  0  0  0  0  0  0  0  0
    8.2049   -1.8046   21.5467 C   0  0  0  0  0  0  0  0  0  0  0  0
    7.0959   -1.1952   20.6921 C   0  0  0  0  0  0  0  0  0  0  0  0
    7.1098    0.3226   20.7444 C   0  0  0  0  0  0  0  0  0  0  0  0
    6.0287    0.9559   19.8643 C   0  0  0  0  0  0  0  0  0  0  0  0
    6.0334    0.6306   18.3664 C   0  0  0  0  0  0  0  0  0  0  0  0
    5.2218    1.5089   17.5115 C   0  0  0  0  0  0  0  0  0  0  0  0
    5.6218    2.1009   16.5540 O   0  0  0  0  0  0  0  0  0  0  0  0
    7.0843    0.8425   22.1860 C   0  0  0  0  0  0  0  0  0  0  0  0
  1  2  1  0
  2  3  1  0
  3  4  1  0
  4  5  1  0
  5  6  1  0
  6  7  1  0
  7  8  2  0
  8  9  1  0
  8 10  1  0
 10 11  1  0
 10 12  2  0
 12 13  1  0
 13 14  2  0
  5 15  1  0
 15 16  1  0
 16 17  1  0
 17 18  1  0
 18 19  1  0
 19 20  1  0
 20 21  1  0
 21 22  1  0
 22 23  2  0
 19 24  1  0
 14  3  1  0
 24 15  1  0
 14  7  1  0
M  END
