CVD-0003814|dock_bobby27042020.29|mol2|36|dock3
     RDKit          3D

 23 25  0  0  0  0  0  0  0  0999 V2000
   12.9677    5.4459   21.5985 N   0  0  0  0  0  0  0  0  0  0  0  0
   13.3730    4.5797   22.8826 S   0  0  0  0  0  0  0  0  0  0  0  0
   12.8656    5.2652   24.0331 O   0  0  0  0  0  0  0  0  0  0  0  0
   14.7793    4.3239   22.7941 O   0  0  0  0  0  0  0  0  0  0  0  0
   12.5461    3.0206   22.7899 C   0  0  0  0  0  0  0  0  0  0  0  0
   13.2823    1.8509   22.7390 C   0  0  0  0  0  0  0  0  0  0  0  0
   12.6290    0.6335   22.6644 C   0  0  0  0  0  0  0  0  0  0  0  0
   11.2392    0.5557   22.6547 C   0  0  0  0  0  0  0  0  0  0  0  0
   10.5228    1.7475   22.7159 C   0  0  0  0  0  0  0  0  0  0  0  0
   11.1640    2.9721   22.7766 C   0  0  0  0  0  0  0  0  0  0  0  0
   10.5870   -0.6713   22.5867 N   0  0  0  0  0  0  0  0  0  0  0  0
   11.0527   -1.8608   23.3058 C   0  0  0  0  0  0  0  0  0  0  0  0
    9.9286   -2.5787   23.9974 C   0  0  0  0  0  0  0  0  0  0  0  0
    8.8232   -2.9555   23.0048 C   0  0  0  0  0  0  0  0  0  0  0  0
    8.3695   -1.7079   22.2897 C   0  0  0  0  0  0  0  0  0  0  0  0
    9.5049   -0.9651   21.6186 C   0  0  0  0  0  0  0  0  0  0  0  0
    7.7132   -3.6641   23.6693 N   0  0  0  0  0  0  0  0  0  0  0  0
    7.9600   -5.0775   23.9342 C   0  0  0  0  0  0  0  0  0  0  0  0
    8.3253   -5.3138   25.3655 C   0  0  0  0  0  0  0  0  0  0  0  0
    7.4992   -5.1996   26.4630 C   0  0  0  0  0  0  0  0  0  0  0  0
    8.1933   -5.5010   27.6599 C   0  0  0  0  0  0  0  0  0  0  0  0
    9.4817   -5.8261   27.4633 C   0  0  0  0  0  0  0  0  0  0  0  0
    9.9033   -5.7786   25.8107 S   0  0  0  0  0  0  0  0  0  0  0  0
  1  2  1  0
  2  3  2  0
  2  4  2  0
  2  5  1  0
  5  6  2  0
  6  7  1  0
  7  8  2  0
  8  9  1  0
  9 10  2  0
  8 11  1  0
 11 12  1  0
 12 13  1  0
 13 14  1  0
 14 15  1  0
 15 16  1  0
 14 17  1  0
 17 18  1  0
 18 19  1  0
 19 20  2  0
 20 21  1  0
 21 22  2  0
 22 23  1  0
 10  5  1  0
 16 11  1  0
 23 19  1  0
M  END
