CVD-0002678|dock_bobby27042020.19|mol2|6|dock3
     RDKit          3D

 36 39  0  0  0  0  0  0  0  0999 V2000
    8.3983   -3.0562   27.4402 C   0  0  0  0  0  0  0  0  0  0  0  0
    7.9620   -3.6082   26.1756 O   0  0  0  0  0  0  0  0  0  0  0  0
    6.8449   -4.3430   26.2273 C   0  0  0  0  0  0  0  0  0  0  0  0
    6.2235   -4.5600   27.2392 O   0  0  0  0  0  0  0  0  0  0  0  0
    6.5052   -4.8052   25.0055 N   0  0  0  0  0  0  0  0  0  0  0  0
    5.4569   -5.7891   24.7007 C   0  0  0  0  0  0  0  0  0  0  0  0
    5.5650   -5.9824   23.1994 C   0  0  0  0  0  0  0  0  0  0  0  0
    7.0130   -5.6991   22.9141 C   0  0  0  0  0  0  0  0  0  0  0  0
    7.3221   -4.5144   23.8272 C   0  0  0  0  0  0  0  0  0  0  0  0
    6.9908   -3.1823   23.1614 C   0  0  0  0  0  0  0  0  0  0  0  0
    6.1455   -2.4340   23.6452 O   0  0  0  0  0  0  0  0  0  0  0  0
    7.6643   -2.8909   22.0449 N   0  0  0  0  0  0  0  0  0  0  0  0
    7.4322   -1.6561   21.3138 C   0  0  0  0  0  0  0  0  0  0  0  0
    5.9877   -1.5957   20.7931 C   0  0  0  0  0  0  0  0  0  0  0  0
    5.6822   -0.3474   20.0015 C   0  0  0  0  0  0  0  0  0  0  0  0
    4.7199    0.5504   20.4374 C   0  0  0  0  0  0  0  0  0  0  0  0
    4.4370    1.6942   19.7096 C   0  0  0  0  0  0  0  0  0  0  0  0
    5.1129    1.9531   18.5366 C   0  0  0  0  0  0  0  0  0  0  0  0
    6.0711    1.0680   18.0914 C   0  0  0  0  0  0  0  0  0  0  0  0
    6.3535   -0.0756   18.8195 C   0  0  0  0  0  0  0  0  0  0  0  0
    7.6826   -0.4717   22.2445 C   0  0  0  0  0  0  0  0  0  0  0  0
    6.7742    0.3040   22.4863 O   0  0  0  0  0  0  0  0  0  0  0  0
    9.0980   -0.3362   22.8361 C   0  0  0  0  0  0  0  0  0  0  0  0
    9.6742   -1.3965   23.0509 O   0  0  0  0  0  0  0  0  0  0  0  0
    9.6892    0.8460   23.1070 N   0  0  0  0  0  0  0  0  0  0  0  0
    9.1771    2.1878   22.8755 C   0  0  0  0  0  0  0  0  0  0  0  0
   10.1986    3.0780   22.1768 C   0  0  0  0  0  0  0  0  0  0  0  0
   11.4831    3.0515   22.8920 N   0  0  0  0  0  0  0  0  0  0  0  0
   11.9865    1.6573   22.9837 C   0  0  0  0  0  0  0  0  0  0  0  0
   11.0005    0.8372   23.7726 C   0  0  0  0  0  0  0  0  0  0  0  0
   12.3908    4.0840   22.7025 C   0  0  0  0  0  0  0  0  0  0  0  0
   12.4020    5.1811   23.5589 C   0  0  0  0  0  0  0  0  0  0  0  0
   13.3111    6.2094   23.3736 C   0  0  0  0  0  0  0  0  0  0  0  0
   14.2184    6.1614   22.3394 C   0  0  0  0  0  0  0  0  0  0  0  0
   14.2152    5.0836   21.4830 C   0  0  0  0  0  0  0  0  0  0  0  0
   13.3073    4.0523   21.6562 C   0  0  0  0  0  0  0  0  0  0  0  0
  1  2  1  0
  2  3  1  0
  3  4  2  0
  3  5  1  0
  5  6  1  0
  6  7  1  0
  7  8  1  0
  8  9  1  0
  9 10  1  0
 10 11  2  0
 10 12  1  0
 12 13  1  0
 13 14  1  0
 14 15  1  0
 15 16  2  0
 16 17  1  0
 17 18  2  0
 18 19  1  0
 19 20  2  0
 13 21  1  0
 21 22  2  0
 21 23  1  0
 23 24  2  0
 23 25  1  0
 25 26  1  0
 26 27  1  0
 27 28  1  0
 28 29  1  0
 29 30  1  0
 28 31  1  0
 31 32  2  0
 32 33  1  0
 33 34  2  0
 34 35  1  0
 35 36  2  0
  9  5  1  0
 20 15  1  0
 30 25  1  0
 36 31  1  0
M  END
