CVD-0000027|dock_bobby27042020.85|mol2|42|dock1
     RDKit          3D

 36 39  0  0  0  0  0  0  0  0999 V2000
    3.8285    1.8048   20.6116 C   0  0  0  0  0  0  0  0  0  0  0  0
    4.8010    2.1182   19.4753 C   0  0  0  0  0  0  0  0  0  0  0  0
    4.0682    2.0150   18.1384 C   0  0  0  0  0  0  0  0  0  0  0  0
    5.9860    1.1848   19.5109 C   0  0  0  0  0  0  0  0  0  0  0  0
    6.7506    0.9390   18.3864 C   0  0  0  0  0  0  0  0  0  0  0  0
    7.8015    0.0635   18.5560 C   0  0  0  0  0  0  0  0  0  0  0  0
    8.0909   -0.5289   19.7213 N   0  0  0  0  0  0  0  0  0  0  0  0
    7.2962   -0.2345   20.7585 C   0  0  0  0  0  0  0  0  0  0  0  0
    6.2500    0.6051   20.6914 N   0  0  0  0  0  0  0  0  0  0  0  0
    7.5494   -0.8107   21.9620 N   0  0  0  0  0  0  0  0  0  0  0  0
    6.4489   -1.5709   22.5701 C   0  0  0  0  0  0  0  0  0  0  0  0
    6.6977   -3.0597   22.5708 C   0  0  0  0  0  0  0  0  0  0  0  0
    7.2481   -3.6965   23.6708 C   0  0  0  0  0  0  0  0  0  0  0  0
    7.4502   -5.0648   23.6151 C   0  0  0  0  0  0  0  0  0  0  0  0
    7.0998   -5.7602   22.4712 C   0  0  0  0  0  0  0  0  0  0  0  0
    6.5517   -5.0438   21.4123 C   0  0  0  0  0  0  0  0  0  0  0  0
    6.3487   -3.7122   21.4514 N   0  0  0  0  0  0  0  0  0  0  0  0
    6.1661   -5.7133   20.1926 C   0  0  0  0  0  0  0  0  0  0  0  0
    5.8286   -6.2943   19.2254 C   0  0  0  0  0  0  0  0  0  0  0  0
    8.7566   -0.7161   22.6749 C   0  0  0  0  0  0  0  0  0  0  0  0
    8.8173   -1.1107   23.8329 O   0  0  0  0  0  0  0  0  0  0  0  0
    9.8820   -0.2043   22.0704 N   0  0  0  0  0  0  0  0  0  0  0  0
   11.1623   -0.0931   22.7116 C   0  0  0  0  0  0  0  0  0  0  0  0
   11.8197   -1.2847   23.0381 C   0  0  0  0  0  0  0  0  0  0  0  0
   11.2361   -2.6186   22.6790 C   0  0  0  0  0  0  0  0  0  0  0  0
   12.9833   -1.2777   23.6893 N   0  0  0  0  0  0  0  0  0  0  0  0
   13.5213   -0.1039   24.0387 C   0  0  0  0  0  0  0  0  0  0  0  0
   12.9621    1.1142   23.7166 C   0  0  0  0  0  0  0  0  0  0  0  0
   11.7683    1.1421   23.0036 C   0  0  0  0  0  0  0  0  0  0  0  0
   11.2140    2.4799   22.5682 C   0  0  0  0  0  0  0  0  0  0  0  0
   12.0873    3.6107   22.9157 N   0  0  0  0  0  0  0  0  0  0  0  0
   11.3095    4.8328   23.1362 C   0  0  0  0  0  0  0  0  0  0  0  0
   12.2261    5.9578   23.4887 C   0  0  0  0  0  0  0  0  0  0  0  0
   13.1777    6.2016   22.4591 O   0  0  0  0  0  0  0  0  0  0  0  0
   13.9369    5.0272   22.2254 C   0  0  0  0  0  0  0  0  0  0  0  0
   13.0664    3.8625   21.8596 C   0  0  0  0  0  0  0  0  0  0  0  0
  1  2  1  0
  2  3  1  0
  2  4  1  0
  4  5  2  0
  5  6  1  0
  6  7  2  0
  7  8  1  0
  8  9  2  0
  8 10  1  0
 10 11  1  0
 11 12  1  0
 12 13  2  0
 13 14  1  0
 14 15  2  0
 15 16  1  0
 16 17  2  0
 16 18  1  0
 18 19  3  0
 10 20  1  0
 20 21  2  0
 20 22  1  0
 22 23  1  0
 23 24  2  0
 24 25  1  0
 24 26  1  0
 26 27  2  0
 27 28  1  0
 28 29  2  0
 29 30  1  0
 30 31  1  0
 31 32  1  0
 32 33  1  0
 33 34  1  0
 34 35  1  0
 35 36  1  0
  9  4  1  0
 17 12  1  0
 29 23  1  0
 36 31  1  0
M  END
