CVD-0003079|dock_bobby27042020.17|mol2|32|dock1
     RDKit          3D

 21 23  0  0  0  0  0  0  0  0999 V2000
   13.2474   -0.7677   24.7766 N   0  0  0  0  0  0  0  0  0  0  0  0
   11.9294   -0.8477   24.8715 C   0  0  0  0  0  0  0  0  0  0  0  0
   11.3043   -0.3497   25.8104 O   0  0  0  0  0  0  0  0  0  0  0  0
   11.2017   -1.5708   23.7546 C   0  0  0  0  0  0  0  0  0  0  0  0
    9.7810   -2.0233   24.0419 C   0  0  0  0  0  0  0  0  0  0  0  0
    9.3083   -2.5201   22.7105 C   0  0  0  0  0  0  0  0  0  0  0  0
   10.0111   -1.6523   21.6371 C   0  0  0  0  0  0  0  0  0  0  0  0
   11.0509   -0.7926   22.4128 C   0  0  0  0  0  0  0  0  0  0  0  0
   10.6638    0.6504   22.5931 C   0  0  0  0  0  0  0  0  0  0  0  0
    9.3964    1.0885   22.7481 C   0  0  0  0  0  0  0  0  0  0  0  0
    9.2370    2.7914   22.9333 S   0  0  0  0  0  0  0  0  0  0  0  0
   10.9546    2.9795   22.7998 C   0  0  0  0  0  0  0  0  0  0  0  0
   11.6665    4.1707   22.8554 C   0  0  0  0  0  0  0  0  0  0  0  0
   13.0455    4.1491   22.7296 C   0  0  0  0  0  0  0  0  0  0  0  0
   13.7127    2.9483   22.5527 C   0  0  0  0  0  0  0  0  0  0  0  0
   12.9945    1.7656   22.4985 C   0  0  0  0  0  0  0  0  0  0  0  0
   11.6039    1.7419   22.6189 C   0  0  0  0  0  0  0  0  0  0  0  0
   13.9531    5.6635   22.8063 S   0  0  0  0  0  0  0  0  0  0  0  0
   14.1773    6.1968   21.3136 N   0  0  0  0  0  0  0  0  0  0  0  0
   13.1291    6.6222   23.4793 O   0  0  0  0  0  0  0  0  0  0  0  0
   15.2446    5.3612   23.3464 O   0  0  0  0  0  0  0  0  0  0  0  0
  1  2  1  0
  2  3  2  0
  4  2  1  0
  4  5  1  0
  5  6  1  0
  6  7  1  0
  7  8  1  0
  8  9  1  0
  9 10  2  0
 10 11  1  0
 11 12  1  0
 12 13  2  0
 13 14  1  0
 14 15  2  0
 15 16  1  0
 16 17  2  0
 14 18  1  0
 18 19  1  0
 18 20  2  0
 18 21  2  0
  8  4  1  0
 17  9  1  0
 17 12  1  0
M  END
