CVD-0000021|dock_bobby27042020.71|mol2|39|dock1
     RDKit          3D

 39 42  0  0  0  0  0  0  0  0999 V2000
   13.5829    0.9833   24.1603 C   0  0  0  0  0  0  0  0  0  0  0  0
   12.7942   -0.0620   23.4099 C   0  0  0  0  0  0  0  0  0  0  0  0
   13.3238   -0.6966   22.3003 C   0  0  0  0  0  0  0  0  0  0  0  0
   12.5606   -1.6404   21.6471 C   0  0  0  0  0  0  0  0  0  0  0  0
   11.3243   -1.9840   22.0270 N   0  0  0  0  0  0  0  0  0  0  0  0
   10.8053   -1.3796   23.0998 C   0  0  0  0  0  0  0  0  0  0  0  0
   11.5127   -0.4118   23.8086 C   0  0  0  0  0  0  0  0  0  0  0  0
    9.4878   -1.8046   23.4260 N   0  0  0  0  0  0  0  0  0  0  0  0
    9.2020   -2.1915   24.8036 C   0  0  0  0  0  0  0  0  0  0  0  0
    8.8083   -3.5804   24.9030 N   0  0  0  0  0  0  0  0  0  0  0  0
    8.5788   -3.9678   26.2976 C   0  0  0  0  0  0  0  0  0  0  0  0
    8.1727   -5.4034   26.3624 C   0  0  0  0  0  0  0  0  0  0  0  0
    9.1691   -6.2560   25.8097 O   0  0  0  0  0  0  0  0  0  0  0  0
    9.4112   -5.8923   24.4608 C   0  0  0  0  0  0  0  0  0  0  0  0
    9.8303   -4.4584   24.3351 C   0  0  0  0  0  0  0  0  0  0  0  0
    8.3911   -1.9383   22.5717 C   0  0  0  0  0  0  0  0  0  0  0  0
    7.2798   -2.0443   23.0764 O   0  0  0  0  0  0  0  0  0  0  0  0
    8.5630   -1.9479   21.2110 N   0  0  0  0  0  0  0  0  0  0  0  0
    7.4880   -2.0797   20.2678 C   0  0  0  0  0  0  0  0  0  0  0  0
    7.0224   -0.9225   19.6248 C   0  0  0  0  0  0  0  0  0  0  0  0
    7.5905    0.4474   19.9412 C   0  0  0  0  0  0  0  0  0  0  0  0
    6.9083    1.1356   21.1098 C   0  0  0  0  0  0  0  0  0  0  0  0
    7.5651    2.3858   21.4638 N   0  0  0  0  0  0  0  0  0  0  0  0
    6.9644    3.3407   22.1688 C   0  0  0  0  0  0  0  0  0  0  0  0
    5.8114    3.2504   22.5789 O   0  0  0  0  0  0  0  0  0  0  0  0
    7.8025    4.5795   22.4354 C   0  0  0  0  0  0  0  0  0  0  0  0
    7.0188    5.7756   22.7511 N   0  0  0  0  0  0  0  0  0  0  0  0
    6.3172    6.2503   21.5562 C   0  0  0  0  0  0  0  0  0  0  0  0
    5.5485    7.5206   21.8429 C   0  0  0  0  0  0  0  0  0  0  0  0
    6.4300    8.5813   22.3532 N   0  0  0  0  0  0  0  0  0  0  0  0
    7.1700    8.0987   23.5307 C   0  0  0  0  0  0  0  0  0  0  0  0
    7.9156    6.8259   23.2266 C   0  0  0  0  0  0  0  0  0  0  0  0
    6.0101   -1.0406   18.6668 C   0  0  0  0  0  0  0  0  0  0  0  0
    5.4422    0.1551   17.9489 C   0  0  0  0  0  0  0  0  0  0  0  0
    5.5318   -2.3132   18.3906 C   0  0  0  0  0  0  0  0  0  0  0  0
    5.9535   -3.4273   18.9951 N   0  0  0  0  0  0  0  0  0  0  0  0
    6.8819   -3.3251   19.9753 C   0  0  0  0  0  0  0  0  0  0  0  0
    7.1757   -4.5712   20.6940 C   0  0  0  0  0  0  0  0  0  0  0  0
    6.6463   -5.7293   20.4314 C   0  0  0  0  0  0  0  0  0  0  0  0
  1  2  1  0
  2  3  2  0
  3  4  1  0
  4  5  2  0
  5  6  1  0
  6  7  2  0
  6  8  1  0
  8  9  1  0
  9 10  1  0
 10 11  1  0
 11 12  1  0
 12 13  1  0
 13 14  1  0
 14 15  1  0
  8 16  1  0
 16 17  2  0
 16 18  1  0
 18 19  1  0
 19 20  1  0
 20 21  1  0
 21 22  1  0
 22 23  1  0
 23 24  1  0
 24 25  2  0
 24 26  1  0
 26 27  1  0
 27 28  1  0
 28 29  1  0
 29 30  1  0
 30 31  1  0
 31 32  1  0
 20 33  2  0
 33 34  1  0
 33 35  1  0
 35 36  2  0
 36 37  1  0
 37 38  1  0
 38 39  2  0
  7  2  1  0
 15 10  1  0
 37 19  2  0
 32 27  1  0
M  END
