CVD-0002914|dock_bobby27042020.32|mol2|36|dock3
     RDKit          3D

 23 25  0  0  0  0  0  0  0  0999 V2000
   13.7633   -1.8341   21.0069 C   0  0  0  0  0  0  0  0  0  0  0  0
   12.5428   -1.1428   21.3803 N   0  0  0  0  0  0  0  0  0  0  0  0
   12.5036   -0.2913   22.3972 C   0  0  0  0  0  0  0  0  0  0  0  0
   13.5177    0.0276   23.0113 O   0  0  0  0  0  0  0  0  0  0  0  0
   11.1531    0.3013   22.8043 C   0  0  0  0  0  0  0  0  0  0  0  0
   11.0477    0.4024   24.3147 C   0  0  0  0  0  0  0  0  0  0  0  0
   10.9787   -0.9357   24.9091 N   0  0  0  0  0  0  0  0  0  0  0  0
   12.1875   -1.7436   24.7527 C   0  0  0  0  0  0  0  0  0  0  0  0
    9.8021   -1.6279   24.3895 C   0  0  0  0  0  0  0  0  0  0  0  0
    9.8783   -1.7582   22.8791 C   0  0  0  0  0  0  0  0  0  0  0  0
   10.0106   -0.4357   22.2600 N   0  0  0  0  0  0  0  0  0  0  0  0
    9.1927    0.1005   21.3229 C   0  0  0  0  0  0  0  0  0  0  0  0
    9.3996    1.2329   20.9051 O   0  0  0  0  0  0  0  0  0  0  0  0
    8.0101   -0.6872   20.7840 C   0  0  0  0  0  0  0  0  0  0  0  0
    7.1767    0.0805   19.8020 C   0  0  0  0  0  0  0  0  0  0  0  0
    7.4756    0.3479   18.4982 C   0  0  0  0  0  0  0  0  0  0  0  0
    6.4732    1.0757   17.9140 N   0  0  0  0  0  0  0  0  0  0  0  0
    5.4973    1.2938   18.8416 C   0  0  0  0  0  0  0  0  0  0  0  0
    4.3460    1.9656   18.6710 N   0  0  0  0  0  0  0  0  0  0  0  0
    3.5422    2.0451   19.7404 C   0  0  0  0  0  0  0  0  0  0  0  0
    3.8361    1.4863   20.9657 C   0  0  0  0  0  0  0  0  0  0  0  0
    5.0279    0.7966   21.1244 C   0  0  0  0  0  0  0  0  0  0  0  0
    5.8990    0.6852   20.0426 C   0  0  0  0  0  0  0  0  0  0  0  0
  1  2  1  0
  2  3  1  0
  3  4  2  0
  3  5  1  0
  5  6  1  0
  6  7  1  0
  7  8  1  0
  7  9  1  0
  9 10  1  0
 10 11  1  0
 11 12  1  0
 12 13  2  0
 12 14  1  0
 14 15  1  0
 15 16  2  0
 16 17  1  0
 17 18  1  0
 18 19  2  0
 19 20  1  0
 20 21  2  0
 21 22  1  0
 22 23  2  0
 11  5  1  0
 23 15  1  0
 23 18  1  0
M  END
