CVD-0001324|dock_bobby27042020.38|mol2|30|dock2
     RDKit          3D

 21 22  0  0  0  0  0  0  0  0999 V2000
    5.6858    1.3621   18.0012 Cl  0  0  0  0  0  0  0  0  0  0  0  0
    6.0045   -0.3217   18.4374 C   0  0  0  0  0  0  0  0  0  0  0  0
    7.4271   -0.5340   18.9061 C   0  0  0  0  0  0  0  0  0  0  0  0
    8.3303   -0.7588   18.1064 O   0  0  0  0  0  0  0  0  0  0  0  0
    7.6268   -0.4703   20.2196 N   0  0  0  0  0  0  0  0  0  0  0  0
    8.3023   -0.4954   21.4990 C   0  0  0  0  0  0  0  0  0  0  0  0
    9.4318    0.5104   21.5538 C   0  0  0  0  0  0  0  0  0  0  0  0
    9.6206    1.3198   20.6719 O   0  0  0  0  0  0  0  0  0  0  0  0
   10.3348    0.4604   22.7871 C   0  0  0  0  0  0  0  0  0  0  0  0
   11.1365   -0.8474   23.0105 C   0  0  0  0  0  0  0  0  0  0  0  0
   12.5923   -0.4915   23.2071 C   0  0  0  0  0  0  0  0  0  0  0  0
   12.7343    1.0072   22.9798 C   0  0  0  0  0  0  0  0  0  0  0  0
   11.3692    1.5032   22.7494 N   0  0  0  0  0  0  0  0  0  0  0  0
   11.0237    2.7881   22.4893 C   0  0  0  0  0  0  0  0  0  0  0  0
    9.8464    3.0675   22.3405 O   0  0  0  0  0  0  0  0  0  0  0  0
   11.9976    3.9313   22.3830 C   0  0  0  0  0  0  0  0  0  0  0  0
   13.0238    4.0245   21.4418 C   0  0  0  0  0  0  0  0  0  0  0  0
   13.8965    5.1002   21.4460 C   0  0  0  0  0  0  0  0  0  0  0  0
   13.7489    6.1171   22.3626 C   0  0  0  0  0  0  0  0  0  0  0  0
   12.7229    6.0600   23.2786 C   0  0  0  0  0  0  0  0  0  0  0  0
   11.8565    4.9800   23.2885 C   0  0  0  0  0  0  0  0  0  0  0  0
  1  2  1  0
  2  3  1  0
  3  4  2  0
  3  5  1  0
  5  6  1  0
  6  7  1  0
  7  8  2  0
  7  9  1  0
  9 10  1  0
 10 11  1  0
 11 12  1  0
 12 13  1  0
 13 14  1  0
 14 15  2  0
 14 16  1  0
 16 17  2  0
 17 18  1  0
 18 19  2  0
 19 20  1  0
 20 21  2  0
 13  9  1  0
 21 16  1  0
M  END
