CVD-0002173|dock_bobby27042020.35|mol2|22|dock3
     RDKit          3D

 26 28  0  0  0  0  0  0  0  0999 V2000
    8.0876    2.6793   21.6052 O   0  0  0  0  0  0  0  0  0  0  0  0
    9.0515    1.9269   21.6982 C   0  0  0  0  0  0  0  0  0  0  0  0
   10.2761    2.3027   22.2041 N   0  0  0  0  0  0  0  0  0  0  0  0
   10.7288    3.5467   22.7132 C   0  0  0  0  0  0  0  0  0  0  0  0
   12.0473    3.6204   23.1488 C   0  0  0  0  0  0  0  0  0  0  0  0
   12.5577    4.8025   23.6577 C   0  0  0  0  0  0  0  0  0  0  0  0
   11.7626    5.9237   23.7389 C   0  0  0  0  0  0  0  0  0  0  0  0
   10.4546    5.8645   23.3108 C   0  0  0  0  0  0  0  0  0  0  0  0
    9.9327    4.6874   22.7997 C   0  0  0  0  0  0  0  0  0  0  0  0
    9.0525    0.6030   21.3164 N   0  0  0  0  0  0  0  0  0  0  0  0
    8.0033   -0.1790   20.7526 C   0  0  0  0  0  0  0  0  0  0  0  0
    7.0497    0.3079   19.8573 C   0  0  0  0  0  0  0  0  0  0  0  0
    6.0612   -0.4290   19.3416 N   0  0  0  0  0  0  0  0  0  0  0  0
    5.9972   -1.7104   19.6909 C   0  0  0  0  0  0  0  0  0  0  0  0
    6.8882   -2.3005   20.5588 C   0  0  0  0  0  0  0  0  0  0  0  0
    7.9113   -1.5375   21.1123 C   0  0  0  0  0  0  0  0  0  0  0  0
    8.8704   -2.1958   22.0761 C   0  0  0  0  0  0  0  0  0  0  0  0
   10.2423   -2.2147   21.6083 N   0  0  0  0  0  0  0  0  0  0  0  0
   11.3245   -2.1536   22.4323 C   0  0  0  0  0  0  0  0  0  0  0  0
   12.6028   -1.9029   21.9338 C   0  0  0  0  0  0  0  0  0  0  0  0
   13.6596   -1.8538   22.8248 C   0  0  0  0  0  0  0  0  0  0  0  0
   13.4288   -2.0523   24.1812 C   0  0  0  0  0  0  0  0  0  0  0  0
   12.1184   -2.2954   24.5813 C   0  0  0  0  0  0  0  0  0  0  0  0
   11.0851   -2.3463   23.7333 N   0  0  0  0  0  0  0  0  0  0  0  0
   14.5070   -2.0081   25.1380 C   0  0  0  0  0  0  0  0  0  0  0  0
   15.3811   -1.9617   25.8718 N   0  0  0  0  0  0  0  0  0  0  0  0
  1  2  2  0
  2  3  1  0
  3  4  1  0
  4  5  2  0
  5  6  1  0
  6  7  2  0
  7  8  1  0
  8  9  2  0
  2 10  1  0
 10 11  1  0
 11 12  2  0
 12 13  1  0
 13 14  2  0
 14 15  1  0
 15 16  2  0
 16 17  1  0
 17 18  1  0
 18 19  1  0
 19 20  2  0
 20 21  1  0
 21 22  2  0
 22 23  1  0
 23 24  2  0
 22 25  1  0
 25 26  3  0
  9  4  1  0
 16 11  1  0
 24 19  1  0
M  END
