CVD-0002361|dock_bobby27042020.34|mol2|33|dock2
     RDKit          3D

 38 42  0  0  0  0  0  0  0  0999 V2000
    7.3541   -1.2469   28.1000 C   0  0  0  0  0  0  0  0  0  0  0  0
    7.6774   -1.4764   26.6894 N   0  0  0  0  0  0  0  0  0  0  0  0
    6.5599   -1.2520   25.7662 C   0  0  0  0  0  0  0  0  0  0  0  0
    7.0198   -1.2200   24.3324 C   0  0  0  0  0  0  0  0  0  0  0  0
    6.2052   -0.9279   23.2242 C   0  0  0  0  0  0  0  0  0  0  0  0
    6.9488   -0.9905   22.0608 C   0  0  0  0  0  0  0  0  0  0  0  0
    6.4178   -0.7470   20.6971 C   0  0  0  0  0  0  0  0  0  0  0  0
    6.0522   -1.8759   19.9613 C   0  0  0  0  0  0  0  0  0  0  0  0
    5.4997   -1.7578   18.6971 C   0  0  0  0  0  0  0  0  0  0  0  0
    5.3047   -0.5160   18.1357 C   0  0  0  0  0  0  0  0  0  0  0  0
    5.6894    0.6205   18.8238 C   0  0  0  0  0  0  0  0  0  0  0  0
    6.2588    0.4803   20.0674 C   0  0  0  0  0  0  0  0  0  0  0  0
    6.6863    1.6119   20.6666 F   0  0  0  0  0  0  0  0  0  0  0  0
    8.2761   -1.3103   22.4629 N   0  0  0  0  0  0  0  0  0  0  0  0
    8.2977   -1.4510   23.8453 C   0  0  0  0  0  0  0  0  0  0  0  0
    9.7256   -1.5126   21.6040 S   0  0  0  0  0  0  0  0  0  0  0  0
    9.4857   -1.1112   20.2528 O   0  0  0  0  0  0  0  0  0  0  0  0
   10.1229   -2.8608   21.8668 O   0  0  0  0  0  0  0  0  0  0  0  0
   10.9221   -0.4611   22.3523 C   0  0  0  0  0  0  0  0  0  0  0  0
   11.8511   -0.9662   23.2384 C   0  0  0  0  0  0  0  0  0  0  0  0
   12.7734   -0.1975   23.8210 N   0  0  0  0  0  0  0  0  0  0  0  0
   12.7993    1.1038   23.5146 C   0  0  0  0  0  0  0  0  0  0  0  0
   11.9063    1.7022   22.6348 C   0  0  0  0  0  0  0  0  0  0  0  0
   10.9400    0.8897   22.0478 C   0  0  0  0  0  0  0  0  0  0  0  0
   11.9712    3.1000   22.3596 N   0  0  0  0  0  0  0  0  0  0  0  0
   13.1712    3.7035   21.7335 C   0  0  0  0  0  0  0  0  0  0  0  0
   13.7815    4.6506   22.5570 C   0  0  0  0  0  0  0  0  0  0  0  0
   13.0404    5.4045   23.5424 C   0  0  0  0  0  0  0  0  0  0  0  0
   11.5559    5.2273   23.4321 C   0  0  0  0  0  0  0  0  0  0  0  0
   10.6807    6.2222   23.8557 C   0  0  0  0  0  0  0  0  0  0  0  0
    9.3145    6.0886   23.7168 C   0  0  0  0  0  0  0  0  0  0  0  0
    8.8189    4.9323   23.1409 C   0  0  0  0  0  0  0  0  0  0  0  0
    9.6668    3.9218   22.7085 C   0  0  0  0  0  0  0  0  0  0  0  0
   11.0465    4.0675   22.8541 C   0  0  0  0  0  0  0  0  0  0  0  0
    7.0759    4.7439   22.9216 S   0  0  0  0  0  0  0  0  0  0  0  0
    6.5919    5.7751   21.7967 N   0  0  0  0  0  0  0  0  0  0  0  0
    6.8491    3.4247   22.4125 O   0  0  0  0  0  0  0  0  0  0  0  0
    6.4463    5.1297   24.1486 O   0  0  0  0  0  0  0  0  0  0  0  0
  1  2  1  0
  2  3  1  0
  3  4  1  0
  4  5  1  0
  5  6  2  0
  6  7  1  0
  7  8  2  0
  8  9  1  0
  9 10  2  0
 10 11  1  0
 11 12  2  0
 12 13  1  0
  6 14  1  0
 14 15  1  0
 14 16  1  0
 16 17  2  0
 16 18  2  0
 16 19  1  0
 19 20  2  0
 20 21  1  0
 21 22  2  0
 22 23  1  0
 23 24  2  0
 23 25  1  0
 25 26  1  0
 26 27  1  0
 27 28  1  0
 28 29  1  0
 29 30  2  0
 30 31  1  0
 31 32  2  0
 32 33  1  0
 33 34  2  0
 32 35  1  0
 35 36  1  0
 35 37  2  0
 35 38  2  0
 15  4  2  0
 24 19  1  0
 34 25  1  0
 12  7  1  0
 34 29  1  0
M  END
