CVD-0000458|dock_bobby27042020.56|mol2|4|dock3
     RDKit          3D

 34 39  0  0  0  0  0  0  0  0999 V2000
    1.5744    3.2137   19.0271 O   0  0  0  0  0  0  0  0  0  0  0  0
    0.8004    3.3428   20.1359 C   0  0  0  0  0  0  0  0  0  0  0  0
   -0.3621    4.0941   20.0853 C   0  0  0  0  0  0  0  0  0  0  0  0
   -1.1200    4.2026   21.2261 C   0  0  0  0  0  0  0  0  0  0  0  0
   -2.2608    4.9416   21.1716 F   0  0  0  0  0  0  0  0  0  0  0  0
   -0.7840    3.6051   22.4110 C   0  0  0  0  0  0  0  0  0  0  0  0
    0.3774    2.8547   22.4609 C   0  0  0  0  0  0  0  0  0  0  0  0
    1.1802    2.7153   21.3275 C   0  0  0  0  0  0  0  0  0  0  0  0
    2.3827    1.9366   21.3844 C   0  0  0  0  0  0  0  0  0  0  0  0
    3.3902    1.2897   21.3540 C   0  0  0  0  0  0  0  0  0  0  0  0
    4.5947    0.5269   21.2449 C   0  0  0  0  0  0  0  0  0  0  0  0
    5.1352   -0.3697   22.2032 C   0  0  0  0  0  0  0  0  0  0  0  0
    6.3056   -0.8860   21.6906 C   0  0  0  0  0  0  0  0  0  0  0  0
    6.5146   -0.3372   20.4318 N   0  0  0  0  0  0  0  0  0  0  0  0
    7.5499   -0.5599   19.5490 C   0  0  0  0  0  0  0  0  0  0  0  0
    7.5198    0.1065   18.3737 C   0  0  0  0  0  0  0  0  0  0  0  0
    8.5199   -0.0899   17.4865 F   0  0  0  0  0  0  0  0  0  0  0  0
    6.5022    0.9990   18.0156 C   0  0  0  0  0  0  0  0  0  0  0  0
    5.4892    1.2142   18.8839 C   0  0  0  0  0  0  0  0  0  0  0  0
    5.4704    0.5435   20.1271 C   0  0  0  0  0  0  0  0  0  0  0  0
    7.2839   -1.9027   22.3221 C   0  0  0  0  0  0  0  0  0  0  0  0
    7.0428   -3.3806   22.1032 C   0  0  0  0  0  0  0  0  0  0  0  0
    6.6864   -2.7679   23.4213 C   0  0  0  0  0  0  0  0  0  0  0  0
    8.6355   -1.3056   22.5705 N   0  0  0  0  0  0  0  0  0  0  0  0
    9.7891   -2.1427   22.2381 C   0  0  0  0  0  0  0  0  0  0  0  0
   11.1150   -1.4197   22.2886 C   0  0  0  0  0  0  0  0  0  0  0  0
   11.4172   -0.9113   23.6361 N   0  0  0  0  0  0  0  0  0  0  0  0
   10.2940   -0.0911   24.1387 C   0  0  0  0  0  0  0  0  0  0  0  0
    9.2956   -0.6131   25.1452 C   0  0  0  0  0  0  0  0  0  0  0  0
    8.8759   -0.4281   23.7261 C   0  0  0  0  0  0  0  0  0  0  0  0
   12.7147   -0.5985   24.0943 C   0  0  0  0  0  0  0  0  0  0  0  0
   12.8954    0.3223   24.8811 O   0  0  0  0  0  0  0  0  0  0  0  0
   13.8786   -1.4245   23.5816 C   0  0  0  0  0  0  0  0  0  0  0  0
   14.2529   -1.0216   21.9008 Cl  0  0  0  0  0  0  0  0  0  0  0  0
  1  2  1  0
  2  3  2  0
  3  4  1  0
  4  5  1  0
  4  6  2  0
  6  7  1  0
  7  8  2  0
  8  9  1  0
  9 10  3  0
 10 11  1  0
 11 12  1  0
 12 13  2  0
 13 14  1  0
 14 15  1  0
 15 16  2  0
 16 17  1  0
 16 18  1  0
 18 19  2  0
 19 20  1  0
 13 21  1  0
 21 22  1  0
 22 23  1  0
 21 24  1  0
 24 25  1  0
 25 26  1  0
 26 27  1  0
 27 28  1  0
 28 29  1  0
 30 29  1  0
 27 31  1  0
 31 32  2  0
 31 33  1  0
 33 34  1  0
  8  2  1  0
 20 11  2  0
 23 21  1  0
 30 24  1  0
 20 14  1  0
 30 28  1  0
M  END
