CVD-0002032|dock_bobby27042020.93|mol2|15|dock3
     RDKit          3D

 34 38  0  0  0  0  0  0  0  0999 V2000
    4.0486   -6.2047   24.5411 F   0  0  0  0  0  0  0  0  0  0  0  0
    5.0560   -6.2777   25.4524 C   0  0  0  0  0  0  0  0  0  0  0  0
    4.9044   -7.1250   26.5185 C   0  0  0  0  0  0  0  0  0  0  0  0
    5.9215   -7.2092   27.4532 C   0  0  0  0  0  0  0  0  0  0  0  0
    7.0617   -6.4324   27.2801 C   0  0  0  0  0  0  0  0  0  0  0  0
    8.2013   -6.3204   28.0382 N   0  0  0  0  0  0  0  0  0  0  0  0
    9.0403   -5.4167   27.4451 C   0  0  0  0  0  0  0  0  0  0  0  0
    8.4776   -4.9251   26.3042 C   0  0  0  0  0  0  0  0  0  0  0  0
    9.0629   -3.9163   25.3600 C   0  0  0  0  0  0  0  0  0  0  0  0
    9.9850   -4.5354   24.3286 C   0  0  0  0  0  0  0  0  0  0  0  0
   10.8500   -3.5425   23.7079 N   0  0  0  0  0  0  0  0  0  0  0  0
   10.4320   -2.7218   22.7481 C   0  0  0  0  0  0  0  0  0  0  0  0
    9.2874   -2.7309   22.3059 O   0  0  0  0  0  0  0  0  0  0  0  0
   11.4715   -1.7446   22.2259 C   0  0  0  0  0  0  0  0  0  0  0  0
   11.7526   -0.6304   23.1337 N   0  0  0  0  0  0  0  0  0  0  0  0
   10.6686    0.3552   23.0865 C   0  0  0  0  0  0  0  0  0  0  0  0
   10.9450    1.4868   24.0589 C   0  0  0  0  0  0  0  0  0  0  0  0
   12.2250    2.1271   23.7483 N   0  0  0  0  0  0  0  0  0  0  0  0
   13.3227    1.1553   23.7287 C   0  0  0  0  0  0  0  0  0  0  0  0
   13.0070    0.0227   22.7687 C   0  0  0  0  0  0  0  0  0  0  0  0
   12.3476    3.4535   23.5408 C   0  0  0  0  0  0  0  0  0  0  0  0
   11.3894    4.2127   23.6132 O   0  0  0  0  0  0  0  0  0  0  0  0
   13.7309    3.9793   23.2017 C   0  0  0  0  0  0  0  0  0  0  0  0
   13.7957    5.4733   23.0936 C   0  0  0  0  0  0  0  0  0  0  0  0
   14.1507    6.2064   21.9994 C   0  0  0  0  0  0  0  0  0  0  0  0
   14.0923    7.5461   22.2777 N   0  0  0  0  0  0  0  0  0  0  0  0
   13.6937    7.7039   23.5726 C   0  0  0  0  0  0  0  0  0  0  0  0
   13.5123    8.8591   24.2347 N   0  0  0  0  0  0  0  0  0  0  0  0
   13.1143    8.7551   25.5101 C   0  0  0  0  0  0  0  0  0  0  0  0
   12.8906    7.5546   26.1497 C   0  0  0  0  0  0  0  0  0  0  0  0
   13.0824    6.3724   25.4519 C   0  0  0  0  0  0  0  0  0  0  0  0
   13.4962    6.4261   24.1226 C   0  0  0  0  0  0  0  0  0  0  0  0
    7.2004   -5.5671   26.1785 C   0  0  0  0  0  0  0  0  0  0  0  0
    6.1666   -5.4943   25.2461 C   0  0  0  0  0  0  0  0  0  0  0  0
  1  2  1  0
  2  3  2  0
  3  4  1  0
  4  5  2  0
  5  6  1  0
  6  7  1  0
  7  8  2  0
  8  9  1  0
  9 10  1  0
 10 11  1  0
 11 12  1  0
 12 13  2  0
 12 14  1  0
 14 15  1  0
 15 16  1  0
 16 17  1  0
 17 18  1  0
 18 19  1  0
 19 20  1  0
 18 21  1  0
 21 22  2  0
 21 23  1  0
 23 24  1  0
 24 25  2  0
 25 26  1  0
 26 27  1  0
 27 28  2  0
 28 29  1  0
 29 30  2  0
 30 31  1  0
 31 32  2  0
  8 33  1  0
 33 34  2  0
 34  2  1  0
 33  5  1  0
 20 15  1  0
 32 24  1  0
 32 27  1  0
M  END
