CVD-0003496|dock_bobby27042020.16|mol2|25|dock1
     RDKit          3D

 23 25  0  0  0  0  0  0  0  0999 V2000
   12.3819   -1.6150   21.2926 N   0  0  0  0  0  0  0  0  0  0  0  0
   11.3329   -1.7305   22.3184 C   0  0  0  0  0  0  0  0  0  0  0  0
   11.7060   -0.8682   23.5269 C   0  0  0  0  0  0  0  0  0  0  0  0
   11.8021    0.6047   23.2112 C   0  0  0  0  0  0  0  0  0  0  0  0
   10.6590    1.3644   23.0094 C   0  0  0  0  0  0  0  0  0  0  0  0
   10.7429    2.7156   22.7229 C   0  0  0  0  0  0  0  0  0  0  0  0
   11.9865    3.3604   22.6284 C   0  0  0  0  0  0  0  0  0  0  0  0
   12.4275    4.6936   22.3580 C   0  0  0  0  0  0  0  0  0  0  0  0
   13.7813    4.6782   22.4092 C   0  0  0  0  0  0  0  0  0  0  0  0
   14.2251    3.4102   22.6966 N   0  0  0  0  0  0  0  0  0  0  0  0
   13.1378    2.5817   22.8358 C   0  0  0  0  0  0  0  0  0  0  0  0
   13.0431    1.2246   23.1232 C   0  0  0  0  0  0  0  0  0  0  0  0
    9.9923   -1.3283   21.7745 C   0  0  0  0  0  0  0  0  0  0  0  0
    8.8952   -2.0456   21.8765 C   0  0  0  0  0  0  0  0  0  0  0  0
    7.3695   -1.4824   21.2102 S   0  0  0  0  0  0  0  0  0  0  0  0
    6.8506   -0.4683   22.0796 O   0  0  0  0  0  0  0  0  0  0  0  0
    6.5692   -2.6291   20.8966 O   0  0  0  0  0  0  0  0  0  0  0  0
    7.6917   -0.7349   19.7684 N   0  0  0  0  0  0  0  0  0  0  0  0
    6.7385    0.0037   19.0706 C   0  0  0  0  0  0  0  0  0  0  0  0
    5.4423    0.2631   19.3750 C   0  0  0  0  0  0  0  0  0  0  0  0
    5.0051    1.0297   18.3352 N   0  0  0  0  0  0  0  0  0  0  0  0
    6.0269    1.1892   17.4826 C   0  0  0  0  0  0  0  0  0  0  0  0
    7.1291    0.5744   17.8868 N   0  0  0  0  0  0  0  0  0  0  0  0
  1  2  1  0
  2  3  1  0
  3  4  1  0
  4  5  2  0
  5  6  1  0
  6  7  2  0
  7  8  1  0
  8  9  2  0
  9 10  1  0
 10 11  1  0
 11 12  2  0
  2 13  1  0
 13 14  2  0
 14 15  1  0
 15 16  2  0
 15 17  2  0
 15 18  1  0
 18 19  1  0
 19 20  2  0
 20 21  1  0
 21 22  1  0
 22 23  2  0
 12  4  1  0
 23 19  1  0
 11  7  1  0
M  END
