CVD-0001940|dock_bobby27042020.22|mol2|15|dock3
     RDKit          3D

 22 24  0  0  0  0  0  0  0  0999 V2000
    9.9720   -5.4034   26.6929 C   0  0  0  0  0  0  0  0  0  0  0  0
   10.4437   -5.4308   25.3059 N   0  0  0  0  0  0  0  0  0  0  0  0
    9.3813   -5.5842   24.3062 C   0  0  0  0  0  0  0  0  0  0  0  0
    9.2949   -4.3867   23.3969 C   0  0  0  0  0  0  0  0  0  0  0  0
    8.1729   -4.0006   22.6463 C   0  0  0  0  0  0  0  0  0  0  0  0
    8.4753   -2.8551   21.9314 C   0  0  0  0  0  0  0  0  0  0  0  0
    7.5692   -2.1129   21.0131 C   0  0  0  0  0  0  0  0  0  0  0  0
    7.6162   -0.7177   20.9142 C   0  0  0  0  0  0  0  0  0  0  0  0
    6.7868   -0.0307   20.0435 C   0  0  0  0  0  0  0  0  0  0  0  0
    5.8715   -0.7052   19.2688 C   0  0  0  0  0  0  0  0  0  0  0  0
    5.7804   -2.0812   19.3566 C   0  0  0  0  0  0  0  0  0  0  0  0
    6.6244   -2.7476   20.2132 C   0  0  0  0  0  0  0  0  0  0  0  0
    6.4993   -4.0943   20.2445 F   0  0  0  0  0  0  0  0  0  0  0  0
    9.7929   -2.5279   22.2294 N   0  0  0  0  0  0  0  0  0  0  0  0
   10.6587   -1.4409   21.7521 C   0  0  0  0  0  0  0  0  0  0  0  0
   10.6331   -0.2214   22.6424 C   0  0  0  0  0  0  0  0  0  0  0  0
   10.8651    1.0415   22.1202 C   0  0  0  0  0  0  0  0  0  0  0  0
   10.8448    2.1597   22.9371 C   0  0  0  0  0  0  0  0  0  0  0  0
   10.5932    2.0271   24.2857 C   0  0  0  0  0  0  0  0  0  0  0  0
   10.3623    0.7767   24.8177 C   0  0  0  0  0  0  0  0  0  0  0  0
   10.3827   -0.3413   24.0006 C   0  0  0  0  0  0  0  0  0  0  0  0
   10.2767   -3.4531   23.1076 C   0  0  0  0  0  0  0  0  0  0  0  0
  1  2  1  0
  2  3  1  0
  3  4  1  0
  4  5  1  0
  5  6  2  0
  6  7  1  0
  7  8  2  0
  8  9  1  0
  9 10  2  0
 10 11  1  0
 11 12  2  0
 12 13  1  0
  6 14  1  0
 14 15  1  0
 15 16  1  0
 16 17  2  0
 17 18  1  0
 18 19  2  0
 19 20  1  0
 20 21  2  0
 14 22  1  0
 22  4  2  0
 12  7  1  0
 21 16  1  0
M  END
