CVD-0000809|dock_bobby27042020.83|mol2|17|dock1
     RDKit          3D

 21 23  0  0  0  0  0  0  0  0999 V2000
   14.3527   -1.4951   23.7406 C   0  0  0  0  0  0  0  0  0  0  0  0
   13.1363   -1.5921   22.9407 N   0  0  0  0  0  0  0  0  0  0  0  0
   13.4972   -1.6710   21.5299 C   0  0  0  0  0  0  0  0  0  0  0  0
   12.2671   -0.4335   23.1746 C   0  0  0  0  0  0  0  0  0  0  0  0
   10.8688   -0.6038   22.6392 C   0  0  0  0  0  0  0  0  0  0  0  0
   10.2056   -1.7679   22.4072 C   0  0  0  0  0  0  0  0  0  0  0  0
    8.9560   -1.5137   21.9154 N   0  0  0  0  0  0  0  0  0  0  0  0
    8.7734   -0.1500   21.8015 C   0  0  0  0  0  0  0  0  0  0  0  0
    7.6978    0.6436   21.3436 C   0  0  0  0  0  0  0  0  0  0  0  0
    7.8381    2.0309   21.4117 C   0  0  0  0  0  0  0  0  0  0  0  0
    9.0074    2.5720   21.8847 C   0  0  0  0  0  0  0  0  0  0  0  0
    9.1080    3.9278   21.9340 F   0  0  0  0  0  0  0  0  0  0  0  0
   10.0799    1.8335   22.3091 C   0  0  0  0  0  0  0  0  0  0  0  0
    9.9654    0.4475   22.2716 C   0  0  0  0  0  0  0  0  0  0  0  0
    6.4992    0.0841   20.8219 N   0  0  0  0  0  0  0  0  0  0  0  0
    5.1759    0.5285   21.2634 C   0  0  0  0  0  0  0  0  0  0  0  0
    4.4597    1.3406   20.3049 C   0  0  0  0  0  0  0  0  0  0  0  0
    4.9843    1.7109   18.9957 C   0  0  0  0  0  0  0  0  0  0  0  0
    5.3959    0.6852   18.0402 C   0  0  0  0  0  0  0  0  0  0  0  0
    6.5874   -0.1231   18.3714 C   0  0  0  0  0  0  0  0  0  0  0  0
    6.5328   -0.8160   19.6738 C   0  0  0  0  0  0  0  0  0  0  0  0
  1  2  1  0
  2  3  1  0
  2  4  1  0
  4  5  1  0
  5  6  2  0
  6  7  1  0
  7  8  1  0
  8  9  2  0
  9 10  1  0
 10 11  2  0
 11 12  1  0
 11 13  1  0
 13 14  2  0
  9 15  1  0
 15 16  1  0
 16 17  1  0
 17 18  1  0
 18 19  1  0
 19 20  1  0
 20 21  1  0
 14  5  1  0
 21 15  1  0
 14  8  1  0
M  END
