CVD-0003369|dock_bobby27042020.31|mol2|11|dock3
     RDKit          3D

 27 30  0  0  0  0  0  0  0  0999 V2000
   13.7559   -1.8267   21.3505 C   0  0  0  0  0  0  0  0  0  0  0  0
   13.7684   -1.1807   22.7115 C   0  0  0  0  0  0  0  0  0  0  0  0
   13.0801    0.1631   22.7810 C   0  0  0  0  0  0  0  0  0  0  0  0
   13.8764    1.3009   22.6930 C   0  0  0  0  0  0  0  0  0  0  0  0
   13.3293    2.5674   22.7612 C   0  0  0  0  0  0  0  0  0  0  0  0
   11.9699    2.7123   22.9113 C   0  0  0  0  0  0  0  0  0  0  0  0
   11.1465    1.6015   22.9917 C   0  0  0  0  0  0  0  0  0  0  0  0
   11.6886    0.3138   22.9378 C   0  0  0  0  0  0  0  0  0  0  0  0
   10.8895   -0.8391   23.0313 N   0  0  0  0  0  0  0  0  0  0  0  0
    9.7679   -1.2792   22.3874 C   0  0  0  0  0  0  0  0  0  0  0  0
    9.3045   -2.5154   22.6316 N   0  0  0  0  0  0  0  0  0  0  0  0
    8.1959   -2.8416   21.9361 C   0  0  0  0  0  0  0  0  0  0  0  0
    7.6849   -4.0585   22.1358 N   0  0  0  0  0  0  0  0  0  0  0  0
    7.5606   -2.0421   21.0561 N   0  0  0  0  0  0  0  0  0  0  0  0
    8.1276   -0.8439   20.9081 C   0  0  0  0  0  0  0  0  0  0  0  0
    7.4678    0.1053   19.9335 C   0  0  0  0  0  0  0  0  0  0  0  0
    6.1591   -0.6991   18.9554 S   0  0  0  0  0  0  0  0  0  0  0  0
    5.4620    0.6896   18.1733 C   0  0  0  0  0  0  0  0  0  0  0  0
    5.7768    1.2122   17.0056 N   0  0  0  0  0  0  0  0  0  0  0  0
    4.9564    2.3239   16.7770 N   0  0  0  0  0  0  0  0  0  0  0  0
    4.1535    2.4546   17.8200 C   0  0  0  0  0  0  0  0  0  0  0  0
    3.1308    3.3648   18.1645 C   0  0  0  0  0  0  0  0  0  0  0  0
    2.4822    3.2057   19.3576 C   0  0  0  0  0  0  0  0  0  0  0  0
    2.8211    2.1562   20.2327 C   0  0  0  0  0  0  0  0  0  0  0  0
    3.7971    1.2826   19.9102 C   0  0  0  0  0  0  0  0  0  0  0  0
    4.4560    1.4381   18.7065 N   0  0  0  0  0  0  0  0  0  0  0  0
    9.2198   -0.3998   21.5329 N   0  0  0  0  0  0  0  0  0  0  0  0
  1  2  1  0
  2  3  1  0
  3  4  2  0
  4  5  1  0
  5  6  2  0
  6  7  1  0
  7  8  2  0
  8  9  1  0
  9 10  1  0
 10 11  2  0
 11 12  1  0
 12 13  1  0
 12 14  2  0
 14 15  1  0
 15 16  1  0
 16 17  1  0
 17 18  1  0
 18 19  2  0
 19 20  1  0
 20 21  2  0
 21 22  1  0
 22 23  2  0
 23 24  1  0
 24 25  2  0
 25 26  1  0
 15 27  2  0
  8  3  1  0
 27 10  1  0
 26 18  1  0
 26 21  1  0
M  END
