CVD-0002131|dock_bobby27042020.78|mol2|30|dock2
     RDKit          3D

 21 22  0  0  0  0  0  0  0  0999 V2000
    5.3422   -1.7044   18.1358 N   0  0  0  0  0  0  0  0  0  0  0  0
    5.5643   -0.1968   18.6279 S   0  0  0  0  0  0  0  0  0  0  0  0
    6.2310    0.5371   17.5905 O   0  0  0  0  0  0  0  0  0  0  0  0
    4.3348    0.2982   19.1780 O   0  0  0  0  0  0  0  0  0  0  0  0
    6.6971   -0.2574   19.9719 C   0  0  0  0  0  0  0  0  0  0  0  0
    7.8945   -0.9729   19.6292 N   0  0  0  0  0  0  0  0  0  0  0  0
    8.8056   -1.2433   20.7426 C   0  0  0  0  0  0  0  0  0  0  0  0
    9.2348    0.0218   21.4585 C   0  0  0  0  0  0  0  0  0  0  0  0
   10.4736   -0.1585   22.2949 C   0  0  0  0  0  0  0  0  0  0  0  0
   11.1018   -1.3257   22.5867 C   0  0  0  0  0  0  0  0  0  0  0  0
   12.4774   -1.0869   23.5592 S   0  0  0  0  0  0  0  0  0  0  0  0
   12.2372    0.5977   23.5835 C   0  0  0  0  0  0  0  0  0  0  0  0
   11.1388    0.9722   22.8789 C   0  0  0  0  0  0  0  0  0  0  0  0
   10.7172    2.4134   22.7460 C   0  0  0  0  0  0  0  0  0  0  0  0
   11.8063    3.3769   22.9210 N   0  0  0  0  0  0  0  0  0  0  0  0
   11.2806    4.7413   23.0494 C   0  0  0  0  0  0  0  0  0  0  0  0
   12.3866    5.7509   23.2858 C   0  0  0  0  0  0  0  0  0  0  0  0
   13.4544    5.7191   22.1992 C   0  0  0  0  0  0  0  0  0  0  0  0
   14.5731    6.5704   22.4625 O   0  0  0  0  0  0  0  0  0  0  0  0
   13.9107    4.2760   22.0153 C   0  0  0  0  0  0  0  0  0  0  0  0
   12.7461    3.3243   21.7978 C   0  0  0  0  0  0  0  0  0  0  0  0
  1  2  1  0
  2  3  2  0
  2  4  2  0
  2  5  1  0
  5  6  1  0
  6  7  1  0
  7  8  1  0
  8  9  1  0
  9 10  2  0
 10 11  1  0
 11 12  1  0
 12 13  2  0
 13 14  1  0
 14 15  1  0
 15 16  1  0
 16 17  1  0
 17 18  1  0
 18 19  1  0
 18 20  1  0
 20 21  1  0
 13  9  1  0
 21 15  1  0
M  END
