CVD-0001550|dock_bobby27042020.95|mol2|2|dock2
     RDKit          3D

 18 20  0  0  0  0  0  0  0  0999 V2000
   13.4216   -1.8587   20.4520 O   0  0  0  0  0  0  0  0  0  0  0  0
   12.6441   -1.6355   21.3747 C   0  0  0  0  0  0  0  0  0  0  0  0
   11.3513   -1.5020   21.0966 N   0  0  0  0  0  0  0  0  0  0  0  0
   10.2658   -1.2206   21.9740 C   0  0  0  0  0  0  0  0  0  0  0  0
    9.3506   -2.2452   22.2052 C   0  0  0  0  0  0  0  0  0  0  0  0
    8.3101   -2.0507   23.0970 C   0  0  0  0  0  0  0  0  0  0  0  0
    8.1717   -0.8517   23.7579 C   0  0  0  0  0  0  0  0  0  0  0  0
    9.0718    0.1788   23.5409 C   0  0  0  0  0  0  0  0  0  0  0  0
   10.1226   -0.0077   22.6450 C   0  0  0  0  0  0  0  0  0  0  0  0
   11.0510    1.0615   22.5448 N   0  0  0  0  0  0  0  0  0  0  0  0
   12.3349    1.0604   22.9162 C   0  0  0  0  0  0  0  0  0  0  0  0
   13.0861    2.0089   22.6966 O   0  0  0  0  0  0  0  0  0  0  0  0
   12.9488   -0.1884   23.4753 C   0  0  0  0  0  0  0  0  0  0  0  0
   13.3564   -0.1216   24.8081 C   0  0  0  0  0  0  0  0  0  0  0  0
   13.9333   -1.2183   25.4249 C   0  0  0  0  0  0  0  0  0  0  0  0
   14.1109   -2.3902   24.7263 C   0  0  0  0  0  0  0  0  0  0  0  0
   13.7137   -2.4792   23.4023 C   0  0  0  0  0  0  0  0  0  0  0  0
   13.1308   -1.3801   22.7695 C   0  0  0  0  0  0  0  0  0  0  0  0
  1  2  2  0
  2  3  1  0
  3  4  1  0
  4  5  2  0
  5  6  1  0
  6  7  2  0
  7  8  1  0
  8  9  2  0
  9 10  1  0
 10 11  1  0
 11 12  2  0
 11 13  1  0
 13 14  2  0
 14 15  1  0
 15 16  2  0
 16 17  1  0
 17 18  2  0
 18  2  1  0
  9  4  1  0
 18 13  1  0
M  END
