CVD-0002088|dock_bobby27042020.78|mol2|40|dock1
     RDKit          3D

 18 18  0  0  0  0  0  0  0  0999 V2000
   12.6864   -2.5210   22.3025 O   0  0  0  0  0  0  0  0  0  0  0  0
   11.9617   -1.3866   22.7600 C   0  0  0  0  0  0  0  0  0  0  0  0
   12.8002   -0.1363   22.5989 C   0  0  0  0  0  0  0  0  0  0  0  0
   11.8470    1.3971   22.7335 S   0  0  0  0  0  0  0  0  0  0  0  0
   13.1272    2.6758   22.6271 C   0  0  0  0  0  0  0  0  0  0  0  0
   12.7523    3.8354   21.7264 C   0  0  0  0  0  0  0  0  0  0  0  0
   13.8412    4.8028   21.6198 N   0  0  0  0  0  0  0  0  0  0  0  0
   13.9381    5.8358   22.4425 C   0  0  0  0  0  0  0  0  0  0  0  0
   13.1561    6.0852   23.3502 O   0  0  0  0  0  0  0  0  0  0  0  0
   10.7374   -1.2547   22.0426 N   0  0  0  0  0  0  0  0  0  0  0  0
    9.6020   -2.1300   22.3542 C   0  0  0  0  0  0  0  0  0  0  0  0
    8.3117   -1.3346   22.4395 C   0  0  0  0  0  0  0  0  0  0  0  0
    7.6522   -1.1459   21.0947 C   0  0  0  0  0  0  0  0  0  0  0  0
    8.0223   -0.1001   20.2632 C   0  0  0  0  0  0  0  0  0  0  0  0
    7.4153    0.0755   19.0309 C   0  0  0  0  0  0  0  0  0  0  0  0
    6.4294   -0.7931   18.6150 C   0  0  0  0  0  0  0  0  0  0  0  0
    6.0505   -1.8364   19.4319 C   0  0  0  0  0  0  0  0  0  0  0  0
    6.6581   -2.0110   20.6641 C   0  0  0  0  0  0  0  0  0  0  0  0
  1  2  1  0
  2  3  1  0
  3  4  1  0
  4  5  1  0
  5  6  1  0
  6  7  1  0
  7  8  1  0
  8  9  2  0
  2 10  1  0
 10 11  1  0
 11 12  1  0
 12 13  1  0
 13 14  2  0
 14 15  1  0
 15 16  2  0
 16 17  1  0
 17 18  2  0
 18 13  1  0
M  END
