CVD-0000320|dock_bobby27042020.13|mol2|22|dock1
     RDKit          3D

 23 24  0  0  0  0  0  0  0  0999 V2000
    7.5665   -0.4424   18.5495 C   0  0  0  0  0  0  0  0  0  0  0  0
    7.4011   -0.6876   20.0206 C   0  0  0  0  0  0  0  0  0  0  0  0
    6.3474   -0.4523   20.6036 O   0  0  0  0  0  0  0  0  0  0  0  0
    8.4613   -1.1922   20.6547 N   0  0  0  0  0  0  0  0  0  0  0  0
    8.4513   -1.5009   22.0775 C   0  0  0  0  0  0  0  0  0  0  0  0
    8.3649   -0.2486   22.9270 C   0  0  0  0  0  0  0  0  0  0  0  0
    9.3197    0.8234   22.4903 C   0  0  0  0  0  0  0  0  0  0  0  0
    9.0293    1.9561   21.7869 C   0  0  0  0  0  0  0  0  0  0  0  0
   10.1632    2.6932   21.5755 N   0  0  0  0  0  0  0  0  0  0  0  0
   11.2227    2.0355   22.1499 C   0  0  0  0  0  0  0  0  0  0  0  0
   12.5744    2.3869   22.2007 C   0  0  0  0  0  0  0  0  0  0  0  0
   13.0897    3.6584   21.5636 C   0  0  0  0  0  0  0  0  0  0  0  0
   12.6071    4.9064   22.2806 C   0  0  0  0  0  0  0  0  0  0  0  0
   13.0860    4.9244   23.6679 N   0  0  0  0  0  0  0  0  0  0  0  0
   12.7281    6.1681   24.6144 S   0  0  0  0  0  0  0  0  0  0  0  0
   10.9829    6.2837   24.7020 C   0  0  0  0  0  0  0  0  0  0  0  0
   13.2188    7.3441   23.9646 O   0  0  0  0  0  0  0  0  0  0  0  0
   13.2183    5.8548   25.9211 O   0  0  0  0  0  0  0  0  0  0  0  0
   13.4495    1.5261   22.8547 C   0  0  0  0  0  0  0  0  0  0  0  0
   12.9740    0.3636   23.4325 C   0  0  0  0  0  0  0  0  0  0  0  0
   14.0932   -0.6939   24.2457 Cl  0  0  0  0  0  0  0  0  0  0  0  0
   11.6374    0.0152   23.3843 C   0  0  0  0  0  0  0  0  0  0  0  0
   10.7333    0.8545   22.7353 C   0  0  0  0  0  0  0  0  0  0  0  0
  1  2  1  0
  2  3  2  0
  2  4  1  0
  4  5  1  0
  5  6  1  0
  6  7  1  0
  7  8  2  0
  8  9  1  0
  9 10  1  0
 10 11  2  0
 11 12  1  0
 12 13  1  0
 13 14  1  0
 14 15  1  0
 15 16  1  0
 15 17  2  0
 15 18  2  0
 11 19  1  0
 19 20  2  0
 20 21  1  0
 20 22  1  0
 22 23  2  0
 23  7  1  0
 23 10  1  0
M  END
