CVD-0001338|dock_bobby27042020.95|mol2|36|dock3
     RDKit          3D

 21 23  0  0  0  0  0  0  0  0999 V2000
   13.4878   -2.5566   25.3819 N   0  0  0  0  0  0  0  0  0  0  0  0
   13.8386   -2.1481   24.0035 C   0  0  0  0  0  0  0  0  0  0  0  0
   12.7904   -1.2483   23.3583 C   0  0  0  0  0  0  0  0  0  0  0  0
   12.4769   -0.0616   24.2581 C   0  0  0  0  0  0  0  0  0  0  0  0
   11.7085    0.9940   23.4634 C   0  0  0  0  0  0  0  0  0  0  0  0
   10.6842    0.3269   22.5988 C   0  0  0  0  0  0  0  0  0  0  0  0
    9.7196    0.9658   21.8717 N   0  0  0  0  0  0  0  0  0  0  0  0
    8.9736    0.0298   21.2033 C   0  0  0  0  0  0  0  0  0  0  0  0
    9.4761   -1.2108   21.5148 C   0  0  0  0  0  0  0  0  0  0  0  0
   10.5606   -1.0215   22.3996 C   0  0  0  0  0  0  0  0  0  0  0  0
   11.5071   -2.0097   23.0234 C   0  0  0  0  0  0  0  0  0  0  0  0
    7.8233    0.4818   20.3331 C   0  0  0  0  0  0  0  0  0  0  0  0
    7.5371   -0.5164   19.2260 C   0  0  0  0  0  0  0  0  0  0  0  0
    6.3462   -0.0434   18.4022 C   0  0  0  0  0  0  0  0  0  0  0  0
    5.1430    0.1916   19.2925 C   0  0  0  0  0  0  0  0  0  0  0  0
    5.4795    1.1497   20.3545 N   0  0  0  0  0  0  0  0  0  0  0  0
    6.6007    0.7331   21.2022 C   0  0  0  0  0  0  0  0  0  0  0  0
    4.7035    2.1859   20.7362 C   0  0  0  0  0  0  0  0  0  0  0  0
    5.0441    2.9649   21.6177 O   0  0  0  0  0  0  0  0  0  0  0  0
    3.3756    2.3397   20.0209 C   0  0  0  0  0  0  0  0  0  0  0  0
    2.4046    3.6188   20.7613 Cl  0  0  0  0  0  0  0  0  0  0  0  0
  1  2  1  0
  2  3  1  0
  3  4  1  0
  4  5  1  0
  5  6  1  0
  6  7  1  0
  7  8  1  0
  8  9  2  0
  9 10  1  0
 10 11  1  0
  8 12  1  0
 12 13  1  0
 13 14  1  0
 14 15  1  0
 15 16  1  0
 16 17  1  0
 16 18  1  0
 18 19  2  0
 18 20  1  0
 20 21  1  0
 11  3  1  0
 17 12  1  0
 10  6  2  0
M  END
