CVD-0001344|dock_bobby27042020.10|mol2|5|dock3
     RDKit          3D

 31 33  0  0  0  0  0  0  0  0999 V2000
   10.2491   -5.2838   27.4834 N   0  0  0  0  0  0  0  0  0  0  0  0
   10.1601   -5.9980   26.0533 S   0  0  0  0  0  0  0  0  0  0  0  0
   11.4523   -5.8902   25.4451 O   0  0  0  0  0  0  0  0  0  0  0  0
    9.6011   -7.2995   26.2639 O   0  0  0  0  0  0  0  0  0  0  0  0
    9.0253   -5.0931   25.0451 C   0  0  0  0  0  0  0  0  0  0  0  0
    7.6722   -5.3813   25.1108 C   0  0  0  0  0  0  0  0  0  0  0  0
    6.7915   -4.6582   24.3289 C   0  0  0  0  0  0  0  0  0  0  0  0
    7.2382   -3.6505   23.4808 C   0  0  0  0  0  0  0  0  0  0  0  0
    6.2915   -2.8673   22.6162 C   0  0  0  0  0  0  0  0  0  0  0  0
    6.8309   -1.4574   22.3880 C   0  0  0  0  0  0  0  0  0  0  0  0
    8.2517   -1.4288   21.8671 C   0  0  0  0  0  0  0  0  0  0  0  0
    9.1130   -2.3542   22.5836 N   0  0  0  0  0  0  0  0  0  0  0  0
   10.5215   -1.9738   22.5127 C   0  0  0  0  0  0  0  0  0  0  0  0
   11.0002   -1.2444   23.7561 C   0  0  0  0  0  0  0  0  0  0  0  0
   12.0651   -0.2220   23.4422 C   0  0  0  0  0  0  0  0  0  0  0  0
   13.2531   -0.5110   23.5353 O   0  0  0  0  0  0  0  0  0  0  0  0
   11.5579    0.9792   23.0683 N   0  0  0  0  0  0  0  0  0  0  0  0
   12.2029    2.1911   22.6942 C   0  0  0  0  0  0  0  0  0  0  0  0
   13.5790    2.3875   22.8114 C   0  0  0  0  0  0  0  0  0  0  0  0
   14.2110    3.5117   22.4693 N   0  0  0  0  0  0  0  0  0  0  0  0
   13.4738    4.5046   21.9860 C   0  0  0  0  0  0  0  0  0  0  0  0
   12.1085    4.4318   21.8228 C   0  0  0  0  0  0  0  0  0  0  0  0
   11.4272    3.2632   22.1751 C   0  0  0  0  0  0  0  0  0  0  0  0
    9.9472    3.2101   21.9885 C   0  0  0  0  0  0  0  0  0  0  0  0
    9.4149    2.3067   21.3340 O   0  0  0  0  0  0  0  0  0  0  0  0
    9.0318    4.2286   22.5716 C   0  0  0  0  0  0  0  0  0  0  0  0
    9.4497    5.1529   23.3953 C   0  0  0  0  0  0  0  0  0  0  0  0
    8.6142   -3.3711   23.4265 C   0  0  0  0  0  0  0  0  0  0  0  0
    9.5088   -4.0948   24.2110 C   0  0  0  0  0  0  0  0  0  0  0  0
    6.7111   -0.7305   23.6623 C   0  0  0  0  0  0  0  0  0  0  0  0
    6.6557   -0.1786   24.6571 N   0  0  0  0  0  0  0  0  0  0  0  0
  1  2  1  0
  2  3  2  0
  2  4  2  0
  2  5  1  0
  5  6  2  0
  6  7  1  0
  7  8  2  0
  8  9  1  0
  9 10  1  0
 10 11  1  0
 11 12  1  0
 12 13  1  0
 13 14  1  0
 14 15  1  0
 15 16  2  0
 15 17  1  0
 17 18  1  0
 18 19  2  0
 19 20  1  0
 20 21  2  0
 21 22  1  0
 22 23  2  0
 23 24  1  0
 24 25  2  0
 24 26  1  0
 26 27  2  0
 12 28  1  0
 28 29  2  0
 10 30  1  0
 30 31  3  0
 29  5  1  0
 28  8  1  0
 23 18  1  0
M  END
