CVD-0002141|dock_bobby27042020.64|mol2|28|dock2
     RDKit          3D

 22 24  0  0  0  0  0  0  0  0999 V2000
   13.9053   -2.1851   20.5386 C   0  0  0  0  0  0  0  0  0  0  0  0
   13.7917   -1.9941   22.0379 C   0  0  0  0  0  0  0  0  0  0  0  0
   12.5079   -1.3310   22.4789 C   0  0  0  0  0  0  0  0  0  0  0  0
   11.3015   -2.2388   22.4215 C   0  0  0  0  0  0  0  0  0  0  0  0
   10.0685   -1.6810   23.1019 C   0  0  0  0  0  0  0  0  0  0  0  0
   10.4373   -1.1867   24.4782 C   0  0  0  0  0  0  0  0  0  0  0  0
   11.6084   -0.2270   24.4427 C   0  0  0  0  0  0  0  0  0  0  0  0
   12.7301   -0.8735   23.8157 O   0  0  0  0  0  0  0  0  0  0  0  0
    9.4128   -0.5525   22.3075 C   0  0  0  0  0  0  0  0  0  0  0  0
    8.8609   -1.0129   20.9856 C   0  0  0  0  0  0  0  0  0  0  0  0
    7.8365   -0.0706   20.4088 C   0  0  0  0  0  0  0  0  0  0  0  0
    7.3415   -0.2466   19.1069 C   0  0  0  0  0  0  0  0  0  0  0  0
    7.7927   -1.2452   18.2868 O   0  0  0  0  0  0  0  0  0  0  0  0
    6.4327    0.6646   18.5690 C   0  0  0  0  0  0  0  0  0  0  0  0
    6.0126    0.5018   17.2876 O   0  0  0  0  0  0  0  0  0  0  0  0
    6.0080    1.7548   19.3146 C   0  0  0  0  0  0  0  0  0  0  0  0
    6.4969    1.9258   20.5960 C   0  0  0  0  0  0  0  0  0  0  0  0
    7.4066    1.0223   21.1476 C   0  0  0  0  0  0  0  0  0  0  0  0
    7.8477    1.1988   22.5829 C   0  0  0  0  0  0  0  0  0  0  0  0
    6.7333    1.6737   23.5050 C   0  0  0  0  0  0  0  0  0  0  0  0
    5.4493    0.9827   23.2524 N   0  0  0  0  0  0  0  0  0  0  0  0
    8.3599   -0.0213   23.1255 O   0  0  0  0  0  0  0  0  0  0  0  0
  1  2  1  0
  2  3  1  0
  3  4  1  0
  4  5  1  0
  5  6  1  0
  6  7  1  0
  7  8  1  0
  5  9  1  0
  9 10  1  0
 10 11  1  0
 11 12  2  0
 12 13  1  0
 12 14  1  0
 14 15  1  0
 14 16  2  0
 16 17  1  0
 17 18  2  0
 18 19  1  0
 19 20  1  0
 20 21  1  0
 19 22  1  0
  8  3  1  0
 22  9  1  0
 18 11  1  0
M  END
