CVD-0002691|dock_bobby27042020.76|mol2|20|dock3
     RDKit          3D

 14 14  0  0  0  0  0  0  0  0999 V2000
   13.8037    4.6345   22.2695 C   0  0  0  0  0  0  0  0  0  0  0  0
   12.6253    3.7076   22.4430 C   0  0  0  0  0  0  0  0  0  0  0  0
   11.3255    4.1389   22.2537 C   0  0  0  0  0  0  0  0  0  0  0  0
   10.2474    3.3606   22.3858 N   0  0  0  0  0  0  0  0  0  0  0  0
   10.4148    2.0603   22.7224 C   0  0  0  0  0  0  0  0  0  0  0  0
    9.3028    1.3246   22.8203 N   0  0  0  0  0  0  0  0  0  0  0  0
   11.7140    1.5133   22.9561 C   0  0  0  0  0  0  0  0  0  0  0  0
   11.9443    0.0758   23.3612 C   0  0  0  0  0  0  0  0  0  0  0  0
   11.8886   -0.8505   22.2230 N   0  0  0  0  0  0  0  0  0  0  0  0
   13.2244   -1.6064   21.7593 S   0  0  0  0  0  0  0  0  0  0  0  0
   13.6913   -2.6973   23.0471 C   0  0  0  0  0  0  0  0  0  0  0  0
   12.8849   -2.3920   20.6133 O   0  0  0  0  0  0  0  0  0  0  0  0
   14.2443   -0.6122   21.6281 O   0  0  0  0  0  0  0  0  0  0  0  0
   12.7925    2.3783   22.7953 C   0  0  0  0  0  0  0  0  0  0  0  0
  1  2  1  0
  2  3  2  0
  3  4  1  0
  4  5  2  0
  5  6  1  0
  5  7  1  0
  7  8  1  0
  8  9  1  0
  9 10  1  0
 10 11  1  0
 10 12  2  0
 10 13  2  0
  7 14  2  0
 14  2  1  0
M  END
