CVD-0002337|dock_bobby27042020.20|mol2|26|dock2
     RDKit          3D

 37 41  0  0  0  0  0  0  0  0999 V2000
    0.7178   -6.1850   23.9661 N   0  0  0  0  0  0  0  0  0  0  0  0
    1.8328   -6.1029   23.7315 C   0  0  0  0  0  0  0  0  0  0  0  0
    3.2379   -6.0355   23.4141 C   0  0  0  0  0  0  0  0  0  0  0  0
    3.9348   -4.8393   23.5473 C   0  0  0  0  0  0  0  0  0  0  0  0
    5.2828   -4.7822   23.2408 C   0  0  0  0  0  0  0  0  0  0  0  0
    5.9652   -5.9046   22.7976 C   0  0  0  0  0  0  0  0  0  0  0  0
    7.4362   -5.8341   22.4659 C   0  0  0  0  0  0  0  0  0  0  0  0
    8.0285   -4.5455   22.8019 N   0  0  0  0  0  0  0  0  0  0  0  0
    8.6292   -4.1315   23.9756 C   0  0  0  0  0  0  0  0  0  0  0  0
    8.7485   -4.9806   25.0771 N   0  0  0  0  0  0  0  0  0  0  0  0
    7.7366   -5.9720   25.4476 C   0  0  0  0  0  0  0  0  0  0  0  0
    7.5915   -6.0414   26.9482 C   0  0  0  0  0  0  0  0  0  0  0  0
    8.8357   -6.2708   27.5814 O   0  0  0  0  0  0  0  0  0  0  0  0
    9.7294   -5.2006   27.2972 C   0  0  0  0  0  0  0  0  0  0  0  0
   10.0008   -5.1356   25.8066 C   0  0  0  0  0  0  0  0  0  0  0  0
    9.1184   -2.7430   23.9717 C   0  0  0  0  0  0  0  0  0  0  0  0
    9.1796   -2.0067   22.8072 N   0  0  0  0  0  0  0  0  0  0  0  0
    9.6312   -0.7322   22.6610 C   0  0  0  0  0  0  0  0  0  0  0  0
   10.0839   -0.0096   23.7163 C   0  0  0  0  0  0  0  0  0  0  0  0
   10.0283   -0.6744   24.9682 C   0  0  0  0  0  0  0  0  0  0  0  0
    9.5675   -1.9405   25.0733 C   0  0  0  0  0  0  0  0  0  0  0  0
   10.5860    1.3516   23.5872 C   0  0  0  0  0  0  0  0  0  0  0  0
   11.7414    1.5579   24.0498 N   0  0  0  0  0  0  0  0  0  0  0  0
   12.3724    2.9148   23.9273 C   0  0  0  0  0  0  0  0  0  0  0  0
   11.6539    3.8162   22.9099 C   0  0  0  0  0  0  0  0  0  0  0  0
   10.1290    3.7814   23.1126 C   0  0  0  0  0  0  0  0  0  0  0  0
    9.6756    2.3292   22.9286 C   0  0  0  0  0  0  0  0  0  0  0  0
   12.2395    5.2089   23.0362 C   0  0  0  0  0  0  0  0  0  0  0  0
   13.1241    5.6966   22.0855 C   0  0  0  0  0  0  0  0  0  0  0  0
   13.6584    6.9660   22.2061 C   0  0  0  0  0  0  0  0  0  0  0  0
   13.2811    7.7298   23.3056 C   0  0  0  0  0  0  0  0  0  0  0  0
   12.4266    7.2890   24.2477 N   0  0  0  0  0  0  0  0  0  0  0  0
   11.9342    6.0544   24.0910 C   0  0  0  0  0  0  0  0  0  0  0  0
   13.8064    9.0688   23.4883 C   0  0  0  0  0  0  0  0  0  0  0  0
   14.2116   10.1313   23.5960 N   0  0  0  0  0  0  0  0  0  0  0  0
    5.2641   -7.0935   22.6674 C   0  0  0  0  0  0  0  0  0  0  0  0
    3.9160   -7.1658   22.9702 C   0  0  0  0  0  0  0  0  0  0  0  0
  1  2  3  0
  2  3  1  0
  3  4  2  0
  4  5  1  0
  5  6  2  0
  6  7  1  0
  7  8  1  0
  8  9  1  0
  9 10  1  0
 10 11  1  0
 11 12  1  0
 12 13  1  0
 13 14  1  0
 14 15  1  0
  9 16  2  0
 16 17  1  0
 17 18  1  0
 18 19  2  0
 19 20  1  0
 20 21  2  0
 19 22  1  0
 22 23  2  0
 23 24  1  0
 24 25  1  0
 25 26  1  0
 26 27  1  0
 25 28  1  0
 28 29  2  0
 29 30  1  0
 30 31  2  0
 31 32  1  0
 32 33  2  0
 31 34  1  0
 34 35  3  0
  6 36  1  0
 36 37  2  0
 37  3  1  0
 15 10  1  0
 21 16  1  0
 27 22  1  0
 33 28  1  0
M  END
