CVD-0002884|dock_bobby27042020.61|mol2|35|dock2
     RDKit          3D

 24 26  0  0  0  0  0  0  0  0999 V2000
    6.8906   -5.5655   22.1093 N   0  0  0  0  0  0  0  0  0  0  0  0
    7.2893   -4.2816   22.1334 C   0  0  0  0  0  0  0  0  0  0  0  0
    6.6916   -3.3286   21.3119 C   0  0  0  0  0  0  0  0  0  0  0  0
    7.0988   -1.9986   21.4069 C   0  0  0  0  0  0  0  0  0  0  0  0
    6.5857   -0.9969   20.5695 N   0  0  0  0  0  0  0  0  0  0  0  0
    6.7212    0.3749   21.0890 C   0  0  0  0  0  0  0  0  0  0  0  0
    8.1759    0.6006   21.4834 C   0  0  0  0  0  0  0  0  0  0  0  0
    8.5489   -0.3467   22.5416 N   0  0  0  0  0  0  0  0  0  0  0  0
    9.5830   -0.0352   23.5205 C   0  0  0  0  0  0  0  0  0  0  0  0
   10.9447   -0.5893   23.1676 C   0  0  0  0  0  0  0  0  0  0  0  0
   11.9929   -0.4348   24.0694 C   0  0  0  0  0  0  0  0  0  0  0  0
   13.2599   -0.9282   23.7957 C   0  0  0  0  0  0  0  0  0  0  0  0
   14.2668   -0.7597   24.7008 O   0  0  0  0  0  0  0  0  0  0  0  0
   13.5008   -1.5909   22.6042 C   0  0  0  0  0  0  0  0  0  0  0  0
   12.4729   -1.7556   21.6942 C   0  0  0  0  0  0  0  0  0  0  0  0
   11.2017   -1.2623   21.9648 C   0  0  0  0  0  0  0  0  0  0  0  0
   10.2335   -1.4573   21.0270 O   0  0  0  0  0  0  0  0  0  0  0  0
    8.1091   -1.6671   22.3396 C   0  0  0  0  0  0  0  0  0  0  0  0
    8.6454   -2.6867   23.1153 C   0  0  0  0  0  0  0  0  0  0  0  0
    8.2483   -3.9599   23.0169 N   0  0  0  0  0  0  0  0  0  0  0  0
    5.9772   -1.2592   19.3676 C   0  0  0  0  0  0  0  0  0  0  0  0
    5.7705   -2.3963   18.9629 O   0  0  0  0  0  0  0  0  0  0  0  0
    5.5369   -0.0907   18.5053 C   0  0  0  0  0  0  0  0  0  0  0  0
    4.2519    0.8622   19.2593 Cl  0  0  0  0  0  0  0  0  0  0  0  0
  1  2  1  0
  2  3  2  0
  3  4  1  0
  4  5  1  0
  5  6  1  0
  6  7  1  0
  7  8  1  0
  8  9  1  0
  9 10  1  0
 10 11  2  0
 11 12  1  0
 12 13  1  0
 12 14  2  0
 14 15  1  0
 15 16  2  0
 16 17  1  0
  8 18  1  0
 18 19  1  0
 19 20  2  0
  5 21  1  0
 21 22  2  0
 21 23  1  0
 23 24  1  0
 20  2  1  0
 18  4  2  0
 16 10  1  0
M  END
