CVD-0003626|dock_bobby27042020.16|mol2|5|dock1
     RDKit          3D

 20 21  0  0  0  0  0  0  0  0999 V2000
    8.4983   -1.1598   23.2732 C   0  0  0  0  0  0  0  0  0  0  0  0
    9.4415   -0.1437   22.6343 C   0  0  0  0  0  0  0  0  0  0  0  0
    9.1923    1.2369   23.2324 C   0  0  0  0  0  0  0  0  0  0  0  0
    8.3695    1.3863   24.1307 O   0  0  0  0  0  0  0  0  0  0  0  0
    9.9518    2.2125   22.6749 N   0  0  0  0  0  0  0  0  0  0  0  0
   10.0143    3.6071   22.9497 C   0  0  0  0  0  0  0  0  0  0  0  0
    8.9067    4.3907   23.2743 C   0  0  0  0  0  0  0  0  0  0  0  0
    8.9655    5.7010   23.5319 N   0  0  0  0  0  0  0  0  0  0  0  0
   10.1568    6.2893   23.4732 C   0  0  0  0  0  0  0  0  0  0  0  0
   11.3150    5.6125   23.1630 C   0  0  0  0  0  0  0  0  0  0  0  0
   11.2672    4.2479   22.8939 C   0  0  0  0  0  0  0  0  0  0  0  0
   12.5519    3.5367   22.5541 C   0  0  0  0  0  0  0  0  0  0  0  0
   10.9071   -0.4950   22.8502 C   0  0  0  0  0  0  0  0  0  0  0  0
   11.5422   -0.1849   24.0450 C   0  0  0  0  0  0  0  0  0  0  0  0
   12.8763   -0.5009   24.2417 C   0  0  0  0  0  0  0  0  0  0  0  0
   13.5951   -1.1330   23.2414 C   0  0  0  0  0  0  0  0  0  0  0  0
   12.9712   -1.4482   22.0390 C   0  0  0  0  0  0  0  0  0  0  0  0
   11.6291   -1.1271   21.8486 C   0  0  0  0  0  0  0  0  0  0  0  0
   13.7076   -2.1062   20.9880 C   0  0  0  0  0  0  0  0  0  0  0  0
   14.2633   -2.6268   20.1367 N   0  0  0  0  0  0  0  0  0  0  0  0
  1  2  1  0
  2  3  1  0
  3  4  2  0
  3  5  1  0
  5  6  1  0
  6  7  2  0
  7  8  1  0
  8  9  2  0
  9 10  1  0
 10 11  2  0
 11 12  1  0
  2 13  1  0
 13 14  2  0
 14 15  1  0
 15 16  2  0
 16 17  1  0
 17 18  2  0
 17 19  1  0
 19 20  3  0
 11  6  1  0
 18 13  1  0
M  END
