CVD-0001732|dock_bobby27042020.51|mol2|30|dock2
     RDKit          3D

 24 26  0  0  0  0  0  0  0  0999 V2000
   13.4179    3.9206   22.4341 Cl  0  0  0  0  0  0  0  0  0  0  0  0
   11.7796    3.3818   22.6747 C   0  0  0  0  0  0  0  0  0  0  0  0
   10.7910    4.3155   22.8807 C   0  0  0  0  0  0  0  0  0  0  0  0
    9.4970    3.8716   23.0803 C   0  0  0  0  0  0  0  0  0  0  0  0
    9.2083    2.5172   23.0748 C   0  0  0  0  0  0  0  0  0  0  0  0
   10.2067    1.5727   22.8463 C   0  0  0  0  0  0  0  0  0  0  0  0
   11.5102    2.0287   22.6519 C   0  0  0  0  0  0  0  0  0  0  0  0
    9.9305    0.1563   22.8173 N   0  0  0  0  0  0  0  0  0  0  0  0
   10.5561   -0.5740   23.9168 C   0  0  0  0  0  0  0  0  0  0  0  0
   11.9884   -0.7578   23.7890 N   0  0  0  0  0  0  0  0  0  0  0  0
   12.2863   -1.6348   22.6543 C   0  0  0  0  0  0  0  0  0  0  0  0
   13.7722   -1.8906   22.5371 C   0  0  0  0  0  0  0  0  0  0  0  0
   14.3181   -2.4751   23.7710 N   0  0  0  0  0  0  0  0  0  0  0  0
   13.9878   -1.6202   24.9230 C   0  0  0  0  0  0  0  0  0  0  0  0
   12.5057   -1.3671   25.0115 C   0  0  0  0  0  0  0  0  0  0  0  0
    9.1430   -0.4765   21.8406 C   0  0  0  0  0  0  0  0  0  0  0  0
    9.0699   -1.6975   21.8417 O   0  0  0  0  0  0  0  0  0  0  0  0
    8.4581    0.2785   20.9140 N   0  0  0  0  0  0  0  0  0  0  0  0
    7.5991   -0.1171   19.8542 C   0  0  0  0  0  0  0  0  0  0  0  0
    6.7567   -1.1995   20.0765 C   0  0  0  0  0  0  0  0  0  0  0  0
    5.9029   -1.6288   19.0761 C   0  0  0  0  0  0  0  0  0  0  0  0
    5.9126   -0.9635   17.8731 C   0  0  0  0  0  0  0  0  0  0  0  0
    6.7051    0.0787   17.6253 N   0  0  0  0  0  0  0  0  0  0  0  0
    7.5228    0.4891   18.5999 C   0  0  0  0  0  0  0  0  0  0  0  0
  1  2  1  0
  2  3  2  0
  3  4  1  0
  4  5  2  0
  5  6  1  0
  6  7  2  0
  6  8  1  0
  8  9  1  0
  9 10  1  0
 10 11  1  0
 11 12  1  0
 12 13  1  0
 13 14  1  0
 14 15  1  0
  8 16  1  0
 16 17  2  0
 16 18  1  0
 18 19  1  0
 19 20  2  0
 20 21  1  0
 21 22  2  0
 22 23  1  0
 23 24  2  0
  7  2  1  0
 15 10  1  0
 24 19  1  0
M  END
