CVD-0000660|dock_bobby27042020.55|mol2|18|dock3
     RDKit          3D

 17 17  0  0  0  0  0  0  0  0999 V2000
    7.9024   -2.2754   24.5662 C   0  0  0  0  0  0  0  0  0  0  0  0
    9.3871   -2.4180   24.4002 C   0  0  0  0  0  0  0  0  0  0  0  0
    9.9798   -3.3869   24.8619 O   0  0  0  0  0  0  0  0  0  0  0  0
   10.0536   -1.4444   23.7349 N   0  0  0  0  0  0  0  0  0  0  0  0
    9.4018   -0.2484   23.1996 C   0  0  0  0  0  0  0  0  0  0  0  0
   10.0447    1.0045   23.7630 C   0  0  0  0  0  0  0  0  0  0  0  0
   11.4923    0.9943   23.5310 N   0  0  0  0  0  0  0  0  0  0  0  0
   12.1439   -0.2018   24.0664 C   0  0  0  0  0  0  0  0  0  0  0  0
   11.5010   -1.4548   23.5029 C   0  0  0  0  0  0  0  0  0  0  0  0
   11.8053   -1.5967   22.0094 C   0  0  0  0  0  0  0  0  0  0  0  0
   13.1977   -2.1222   21.7315 C   0  0  0  0  0  0  0  0  0  0  0  0
   13.4603   -2.4448   20.4748 N   0  0  0  0  0  0  0  0  0  0  0  0
   14.0291   -2.2428   22.6357 O   0  0  0  0  0  0  0  0  0  0  0  0
   12.1548    1.9747   22.8804 C   0  0  0  0  0  0  0  0  0  0  0  0
   13.3653    1.9339   22.6990 O   0  0  0  0  0  0  0  0  0  0  0  0
   11.3296    3.1464   22.3838 C   0  0  0  0  0  0  0  0  0  0  0  0
   12.3562    4.3604   21.6093 Cl  0  0  0  0  0  0  0  0  0  0  0  0
  1  2  1  0
  2  3  2  0
  2  4  1  0
  4  5  1  0
  5  6  1  0
  6  7  1  0
  7  8  1  0
  8  9  1  0
  9 10  1  0
 10 11  1  0
 11 12  1  0
 11 13  2  0
  7 14  1  0
 14 15  2  0
 14 16  1  0
 16 17  1  0
  9  4  1  0
M  END
