CVD-0002126|dock_bobby27042020.21|mol2|27|dock2
     RDKit          3D

 23 25  0  0  0  0  0  0  0  0999 V2000
   12.9101    4.5328   23.4421 N   0  0  0  0  0  0  0  0  0  0  0  0
   13.4265    3.8850   22.1558 S   0  0  0  0  0  0  0  0  0  0  0  0
   12.2751    3.6632   21.2552 O   0  0  0  0  0  0  0  0  0  0  0  0
   14.5192    4.7252   21.6212 O   0  0  0  0  0  0  0  0  0  0  0  0
   14.0723    2.4249   22.4321 N   0  0  0  0  0  0  0  0  0  0  0  0
   13.3285    1.4157   23.2064 C   0  0  0  0  0  0  0  0  0  0  0  0
   13.8875    0.0237   22.9557 C   0  0  0  0  0  0  0  0  0  0  0  0
   12.7012   -0.9003   23.0305 C   0  0  0  0  0  0  0  0  0  0  0  0
   11.5172   -0.0837   23.4655 C   0  0  0  0  0  0  0  0  0  0  0  0
   11.8484    1.2973   22.9014 C   0  0  0  0  0  0  0  0  0  0  0  0
   10.1617   -0.6281   23.1127 C   0  0  0  0  0  0  0  0  0  0  0  0
    9.0409    0.0548   22.7889 C   0  0  0  0  0  0  0  0  0  0  0  0
    7.9220   -0.7537   22.5081 C   0  0  0  0  0  0  0  0  0  0  0  0
    6.5581   -0.2449   22.1150 C   0  0  0  0  0  0  0  0  0  0  0  0
    6.5031    0.3433   20.7751 N   0  0  0  0  0  0  0  0  0  0  0  0
    5.1342    0.7551   20.4417 C   0  0  0  0  0  0  0  0  0  0  0  0
    5.0613    1.4169   19.0797 C   0  0  0  0  0  0  0  0  0  0  0  0
    5.6106    0.5334   17.9662 C   0  0  0  0  0  0  0  0  0  0  0  0
    5.6718    1.1800   16.6920 O   0  0  0  0  0  0  0  0  0  0  0  0
    6.9909    0.0373   18.3824 C   0  0  0  0  0  0  0  0  0  0  0  0
    6.9849   -0.5995   19.7621 C   0  0  0  0  0  0  0  0  0  0  0  0
    8.2396   -2.0725   22.6276 C   0  0  0  0  0  0  0  0  0  0  0  0
    9.8739   -2.3098   23.0819 S   0  0  0  0  0  0  0  0  0  0  0  0
  1  2  1  0
  2  3  2  0
  2  4  2  0
  2  5  1  0
  5  6  1  0
  6  7  1  0
  7  8  1  0
  8  9  1  0
  9 10  1  0
  9 11  1  0
 11 12  2  0
 12 13  1  0
 13 14  1  0
 14 15  1  0
 15 16  1  0
 16 17  1  0
 17 18  1  0
 18 19  1  0
 18 20  1  0
 20 21  1  0
 13 22  2  0
 22 23  1  0
 10  6  1  0
 23 11  1  0
 21 15  1  0
M  END
