CVD-0001183|dock_bobby27042020.24|mol2|39|dock1
     RDKit          3D

 17 18  0  0  0  0  0  0  0  0999 V2000
   13.4928   -0.1441   24.6227 F   0  0  0  0  0  0  0  0  0  0  0  0
   13.4829    0.2764   23.2784 C   0  0  0  0  0  0  0  0  0  0  0  0
   12.2233    1.0738   23.0551 C   0  0  0  0  0  0  0  0  0  0  0  0
   10.9736    0.2066   23.1108 C   0  0  0  0  0  0  0  0  0  0  0  0
   11.0546   -0.9658   22.1655 C   0  0  0  0  0  0  0  0  0  0  0  0
    9.7989   -1.8377   22.2607 C   0  0  0  0  0  0  0  0  0  0  0  0
    8.5438   -1.1419   21.7819 C   0  0  0  0  0  0  0  0  0  0  0  0
    7.6993   -0.7453   22.5779 O   0  0  0  0  0  0  0  0  0  0  0  0
    8.4746   -1.0233   20.4337 N   0  0  0  0  0  0  0  0  0  0  0  0
    7.4875   -0.4518   19.5927 C   0  0  0  0  0  0  0  0  0  0  0  0
    6.2246   -0.2005   20.1133 C   0  0  0  0  0  0  0  0  0  0  0  0
    5.2492    0.3572   19.3059 C   0  0  0  0  0  0  0  0  0  0  0  0
    5.5638    0.6485   17.9991 C   0  0  0  0  0  0  0  0  0  0  0  0
    6.7656    0.4196   17.4695 N   0  0  0  0  0  0  0  0  0  0  0  0
    7.7017   -0.1194   18.2569 C   0  0  0  0  0  0  0  0  0  0  0  0
   12.3127   -1.7667   22.4093 C   0  0  0  0  0  0  0  0  0  0  0  0
   13.5523   -0.8984   22.3315 C   0  0  0  0  0  0  0  0  0  0  0  0
  1  2  1  0
  2  3  1  0
  3  4  1  0
  4  5  1  0
  5  6  1  0
  6  7  1  0
  7  8  2  0
  7  9  1  0
  9 10  1  0
 10 11  2  0
 11 12  1  0
 12 13  2  0
 13 14  1  0
 14 15  2  0
  5 16  1  0
 16 17  1  0
 17  2  1  0
 15 10  1  0
M  END
