CVD-0000638|dock_bobby27042020.69|mol2|35|dock3
     RDKit          3D

 16 17  0  0  0  0  0  0  0  0999 V2000
    8.8885   -2.2973   20.0528 O   0  0  0  0  0  0  0  0  0  0  0  0
    8.2598   -1.0926   20.0606 C   0  0  0  0  0  0  0  0  0  0  0  0
    7.3175   -0.8826   19.0609 C   0  0  0  0  0  0  0  0  0  0  0  0
    6.6344    0.3158   18.9811 C   0  0  0  0  0  0  0  0  0  0  0  0
    6.8826    1.3029   19.9061 C   0  0  0  0  0  0  0  0  0  0  0  0
    7.8085    1.1042   20.9163 C   0  0  0  0  0  0  0  0  0  0  0  0
    8.5338   -0.0904   21.0175 C   0  0  0  0  0  0  0  0  0  0  0  0
    9.5515   -0.2691   22.1192 C   0  0  0  0  0  0  0  0  0  0  0  0
    9.2590    0.1045   23.2500 O   0  0  0  0  0  0  0  0  0  0  0  0
   10.7527   -0.8421   21.8196 N   0  0  0  0  0  0  0  0  0  0  0  0
   11.8746   -1.1325   22.6395 C   0  0  0  0  0  0  0  0  0  0  0  0
   12.1333   -0.2598   23.6909 C   0  0  0  0  0  0  0  0  0  0  0  0
   13.2098   -0.4686   24.5359 C   0  0  0  0  0  0  0  0  0  0  0  0
   14.0421   -1.5487   24.3456 C   0  0  0  0  0  0  0  0  0  0  0  0
   13.7969   -2.4230   23.3100 C   0  0  0  0  0  0  0  0  0  0  0  0
   12.7218   -2.2253   22.4591 C   0  0  0  0  0  0  0  0  0  0  0  0
  1  2  1  0
  2  3  2  0
  3  4  1  0
  4  5  2  0
  5  6  1  0
  6  7  2  0
  7  8  1  0
  8  9  2  0
  8 10  1  0
 10 11  1  0
 11 12  2  0
 12 13  1  0
 13 14  2  0
 14 15  1  0
 15 16  2  0
  7  2  1  0
 16 11  1  0
M  END
