CVD-0003715|dock_bobby27042020.1|mol2|13|dock2
     RDKit          3D

 36 38  0  0  0  0  0  0  0  0999 V2000
    8.3767   -0.2167   24.0423 C   0  0  0  0  0  0  0  0  0  0  0  0
    9.4737   -1.0860   23.4326 C   0  0  0  0  0  0  0  0  0  0  0  0
    8.8866   -2.4552   23.0473 C   0  0  0  0  0  0  0  0  0  0  0  0
    8.0318   -3.1110   24.1230 C   0  0  0  0  0  0  0  0  0  0  0  0
    7.7689   -4.5856   23.8456 C   0  0  0  0  0  0  0  0  0  0  0  0
    6.8967   -5.2519   24.8819 C   0  0  0  0  0  0  0  0  0  0  0  0
    5.5743   -5.5616   24.6043 C   0  0  0  0  0  0  0  0  0  0  0  0
    4.7655   -6.1689   25.5484 C   0  0  0  0  0  0  0  0  0  0  0  0
    5.2866   -6.4711   26.7955 C   0  0  0  0  0  0  0  0  0  0  0  0
    6.6052   -6.1715   27.0948 C   0  0  0  0  0  0  0  0  0  0  0  0
    7.3971   -5.5642   26.1365 C   0  0  0  0  0  0  0  0  0  0  0  0
    4.2661   -7.2529   28.0081 S   0  0  0  0  0  0  0  0  0  0  0  0
    2.8558   -7.6019   27.3355 N   0  0  0  0  0  0  0  0  0  0  0  0
    4.8889   -8.4951   28.3546 O   0  0  0  0  0  0  0  0  0  0  0  0
    4.0166   -6.2924   29.0408 O   0  0  0  0  0  0  0  0  0  0  0  0
   10.1350   -0.3831   22.2303 C   0  0  0  0  0  0  0  0  0  0  0  0
   11.2135    0.5845   22.7397 C   0  0  0  0  0  0  0  0  0  0  0  0
   12.5763   -0.0601   22.9563 C   0  0  0  0  0  0  0  0  0  0  0  0
   13.5357    0.8617   23.6834 C   0  0  0  0  0  0  0  0  0  0  0  0
   14.0076    1.9358   22.8008 N   0  0  0  0  0  0  0  0  0  0  0  0
   13.3903    3.4083   22.9465 S   0  0  0  0  0  0  0  0  0  0  0  0
   13.3872    4.1423   21.3566 C   0  0  0  0  0  0  0  0  0  0  0  0
   12.0318    3.2534   23.3665 O   0  0  0  0  0  0  0  0  0  0  0  0
   14.2815    4.1558   23.7788 O   0  0  0  0  0  0  0  0  0  0  0  0
    9.1101    0.3671   21.3991 C   0  0  0  0  0  0  0  0  0  0  0  0
    8.7857    1.5154   21.6900 O   0  0  0  0  0  0  0  0  0  0  0  0
    8.6074   -0.3123   20.3289 N   0  0  0  0  0  0  0  0  0  0  0  0
    7.6587    0.1793   19.4064 C   0  0  0  0  0  0  0  0  0  0  0  0
    7.5667    0.0203   18.0584 C   0  0  0  0  0  0  0  0  0  0  0  0
    6.4405    0.6248   17.5486 N   0  0  0  0  0  0  0  0  0  0  0  0
    5.7514    1.1584   18.5834 C   0  0  0  0  0  0  0  0  0  0  0  0
    4.4252    1.7421   18.5782 C   0  0  0  0  0  0  0  0  0  0  0  0
    3.7276    1.6090   19.7460 C   0  0  0  0  0  0  0  0  0  0  0  0
    4.2813    0.9309   20.8567 C   0  0  0  0  0  0  0  0  0  0  0  0
    5.5804    0.6263   20.9640 C   0  0  0  0  0  0  0  0  0  0  0  0
    6.5286    1.0645   19.8614 C   0  0  0  0  0  0  0  0  0  0  0  0
  1  2  1  0
  2  3  1  0
  3  4  1  0
  4  5  1  0
  5  6  1  0
  6  7  2  0
  7  8  1  0
  8  9  2  0
  9 10  1  0
 10 11  2  0
  9 12  1  0
 12 13  1  0
 12 14  2  0
 12 15  2  0
  2 16  1  0
 16 17  1  0
 17 18  1  0
 18 19  1  0
 19 20  1  0
 20 21  1  0
 21 22  1  0
 21 23  2  0
 21 24  2  0
 16 25  1  0
 25 26  2  0
 25 27  1  0
 27 28  1  0
 28 29  2  0
 29 30  1  0
 30 31  2  0
 31 32  1  0
 32 33  2  0
 33 34  1  0
 34 35  2  0
 35 36  1  0
 11  6  1  0
 36 28  1  0
 36 31  1  0
M  END
