CVD-0003315|dock_bobby27042020.2|mol2|26|dock2
     RDKit          3D

 22 24  0  0  0  0  0  0  0  0999 V2000
   12.8992    6.3735   24.2612 C   0  0  0  0  0  0  0  0  0  0  0  0
   13.3205    5.3137   23.2859 C   0  0  0  0  0  0  0  0  0  0  0  0
   14.1265    5.5402   22.3890 O   0  0  0  0  0  0  0  0  0  0  0  0
   12.7801    4.1062   23.4610 N   0  0  0  0  0  0  0  0  0  0  0  0
   13.1200    2.9968   22.5966 C   0  0  0  0  0  0  0  0  0  0  0  0
   11.9495    2.0655   22.3977 C   0  0  0  0  0  0  0  0  0  0  0  0
   10.6642    2.4152   22.1033 C   0  0  0  0  0  0  0  0  0  0  0  0
    9.8789    1.2993   21.9971 N   0  0  0  0  0  0  0  0  0  0  0  0
   10.6599    0.1930   22.2257 C   0  0  0  0  0  0  0  0  0  0  0  0
   10.3100   -1.1601   22.2263 C   0  0  0  0  0  0  0  0  0  0  0  0
    8.8968   -1.6173   21.9456 C   0  0  0  0  0  0  0  0  0  0  0  0
    8.3839   -1.1003   20.6407 C   0  0  0  0  0  0  0  0  0  0  0  0
    8.9079   -1.1772   19.4726 N   0  0  0  0  0  0  0  0  0  0  0  0
    8.0252   -0.5430   18.5993 N   0  0  0  0  0  0  0  0  0  0  0  0
    7.0410   -0.1321   19.3105 C   0  0  0  0  0  0  0  0  0  0  0  0
    5.8152    0.5959   18.9010 C   0  0  0  0  0  0  0  0  0  0  0  0
    7.1848   -0.4519   20.6335 O   0  0  0  0  0  0  0  0  0  0  0  0
   11.3118   -2.0874   22.4902 C   0  0  0  0  0  0  0  0  0  0  0  0
   12.5894   -1.6423   22.7389 C   0  0  0  0  0  0  0  0  0  0  0  0
   13.5495   -2.5714   22.9949 F   0  0  0  0  0  0  0  0  0  0  0  0
   12.9575   -0.3168   22.7449 C   0  0  0  0  0  0  0  0  0  0  0  0
   11.9713    0.6332   22.4816 C   0  0  0  0  0  0  0  0  0  0  0  0
  1  2  1  0
  2  3  2  0
  2  4  1  0
  4  5  1  0
  5  6  1  0
  6  7  2  0
  7  8  1  0
  8  9  1  0
  9 10  2  0
 10 11  1  0
 11 12  1  0
 12 13  2  0
 13 14  1  0
 14 15  2  0
 15 16  1  0
 15 17  1  0
 10 18  1  0
 18 19  2  0
 19 20  1  0
 19 21  1  0
 21 22  2  0
 22  6  1  0
 22  9  1  0
 17 12  1  0
M  END
