CVD-0001809|dock_bobby27042020.51|mol2|19|dock2
     RDKit          3D

 23 25  0  0  0  0  0  0  0  0999 V2000
   13.3731   -1.4840   21.8293 C   0  0  0  0  0  0  0  0  0  0  0  0
   13.3236   -1.3587   23.3294 C   0  0  0  0  0  0  0  0  0  0  0  0
   14.3249   -1.9172   24.1182 C   0  0  0  0  0  0  0  0  0  0  0  0
   14.2692   -1.7733   25.4893 C   0  0  0  0  0  0  0  0  0  0  0  0
   13.2981   -1.1159   26.1227 N   0  0  0  0  0  0  0  0  0  0  0  0
   12.3297   -0.5804   25.3729 C   0  0  0  0  0  0  0  0  0  0  0  0
   12.3000   -0.6844   23.9905 C   0  0  0  0  0  0  0  0  0  0  0  0
   11.2191   -0.0817   23.2373 N   0  0  0  0  0  0  0  0  0  0  0  0
   10.0491   -0.7864   22.9034 C   0  0  0  0  0  0  0  0  0  0  0  0
    9.9433   -2.2308   23.3296 C   0  0  0  0  0  0  0  0  0  0  0  0
    8.7713   -2.9965   22.6342 C   0  0  0  0  0  0  0  0  0  0  0  0
    7.5108   -2.0577   22.5480 C   0  0  0  0  0  0  0  0  0  0  0  0
    7.8496   -0.8253   21.8307 N   0  0  0  0  0  0  0  0  0  0  0  0
    6.9383   -0.2791   20.8178 C   0  0  0  0  0  0  0  0  0  0  0  0
    7.5615   -0.2170   19.4340 C   0  0  0  0  0  0  0  0  0  0  0  0
    6.5532   -0.4613   18.3648 C   0  0  0  0  0  0  0  0  0  0  0  0
    5.8444    0.4727   17.9166 N   0  0  0  0  0  0  0  0  0  0  0  0
    6.4713   -1.7044   17.9440 N   0  0  0  0  0  0  0  0  0  0  0  0
    9.0503   -0.1626   22.2110 C   0  0  0  0  0  0  0  0  0  0  0  0
    9.2194    1.1934   21.8422 C   0  0  0  0  0  0  0  0  0  0  0  0
   10.3404    1.8802   22.1582 C   0  0  0  0  0  0  0  0  0  0  0  0
   11.4163    1.2721   22.8828 C   0  0  0  0  0  0  0  0  0  0  0  0
   12.4311    1.8602   23.2516 O   0  0  0  0  0  0  0  0  0  0  0  0
  1  2  1  0
  2  3  2  0
  3  4  1  0
  4  5  2  0
  5  6  1  0
  6  7  2  0
  7  8  1  0
  8  9  1  0
  9 10  1  0
 10 11  1  0
 11 12  1  0
 12 13  1  0
 13 14  1  0
 14 15  1  0
 15 16  1  0
 16 17  1  0
 16 18  2  0
 13 19  1  0
 19 20  1  0
 20 21  2  0
 21 22  1  0
 22 23  2  0
  7  2  1  0
 22  8  1  0
 19  9  2  0
M  END
