CVD-0002684|dock_bobby27042020.62|mol2|17|dock3
     RDKit          3D

 33 35  0  0  0  0  0  0  0  0999 V2000
   12.4727    0.8857   24.3439 C   0  0  0  0  0  0  0  0  0  0  0  0
   12.5089    0.8505   22.8854 N   0  0  0  0  0  0  0  0  0  0  0  0
   12.9349   -0.4625   22.4132 C   0  0  0  0  0  0  0  0  0  0  0  0
   11.2587    1.3134   22.2472 C   0  0  0  0  0  0  0  0  0  0  0  0
   10.8769    2.7835   22.5166 C   0  0  0  0  0  0  0  0  0  0  0  0
   12.0456    3.7382   22.5422 C   0  0  0  0  0  0  0  0  0  0  0  0
   12.3696    4.4311   23.6984 C   0  0  0  0  0  0  0  0  0  0  0  0
   13.4408    5.3087   23.7215 C   0  0  0  0  0  0  0  0  0  0  0  0
   14.2001    5.5042   22.5880 C   0  0  0  0  0  0  0  0  0  0  0  0
   13.8881    4.8222   21.4316 C   0  0  0  0  0  0  0  0  0  0  0  0
   12.8170    3.9447   21.4090 C   0  0  0  0  0  0  0  0  0  0  0  0
   10.1170    0.4130   22.7100 C   0  0  0  0  0  0  0  0  0  0  0  0
    9.5046    0.6519   23.7477 O   0  0  0  0  0  0  0  0  0  0  0  0
    9.8333   -0.6324   21.9280 N   0  0  0  0  0  0  0  0  0  0  0  0
    8.7691   -1.5661   22.2583 C   0  0  0  0  0  0  0  0  0  0  0  0
    7.3894   -0.9512   21.9780 C   0  0  0  0  0  0  0  0  0  0  0  0
    6.9820   -1.0367   20.5271 C   0  0  0  0  0  0  0  0  0  0  0  0
    6.1819   -2.0749   20.0757 C   0  0  0  0  0  0  0  0  0  0  0  0
    5.8053   -2.1518   18.7452 C   0  0  0  0  0  0  0  0  0  0  0  0
    6.2238   -1.1905   17.8506 C   0  0  0  0  0  0  0  0  0  0  0  0
    7.0185   -0.1523   18.2866 C   0  0  0  0  0  0  0  0  0  0  0  0
    7.3949   -0.0758   19.6172 C   0  0  0  0  0  0  0  0  0  0  0  0
    8.8612   -1.9352   23.7355 C   0  0  0  0  0  0  0  0  0  0  0  0
    8.3730   -1.2030   24.5762 O   0  0  0  0  0  0  0  0  0  0  0  0
    9.6022   -3.2479   24.0413 C   0  0  0  0  0  0  0  0  0  0  0  0
   10.7865   -3.2176   23.7266 O   0  0  0  0  0  0  0  0  0  0  0  0
    9.0533   -4.3504   24.5985 N   0  0  0  0  0  0  0  0  0  0  0  0
    9.8280   -5.5547   24.9057 C   0  0  0  0  0  0  0  0  0  0  0  0
    9.6500   -5.9423   26.3619 C   0  0  0  0  0  0  0  0  0  0  0  0
    8.2315   -6.1634   26.6583 N   0  0  0  0  0  0  0  0  0  0  0  0
    8.0582   -6.5757   28.0501 C   0  0  0  0  0  0  0  0  0  0  0  0
    7.4919   -4.9320   26.3937 C   0  0  0  0  0  0  0  0  0  0  0  0
    7.6375   -4.5188   24.9404 C   0  0  0  0  0  0  0  0  0  0  0  0
  1  2  1  0
  2  3  1  0
  2  4  1  0
  4  5  1  0
  5  6  1  0
  6  7  2  0
  7  8  1  0
  8  9  2  0
  9 10  1  0
 10 11  2  0
  4 12  1  0
 12 13  2  0
 12 14  1  0
 14 15  1  0
 15 16  1  0
 16 17  1  0
 17 18  2  0
 18 19  1  0
 19 20  2  0
 20 21  1  0
 21 22  2  0
 15 23  1  0
 23 24  2  0
 23 25  1  0
 25 26  2  0
 25 27  1  0
 27 28  1  0
 28 29  1  0
 29 30  1  0
 30 31  1  0
 30 32  1  0
 32 33  1  0
 11  6  1  0
 22 17  1  0
 33 27  1  0
M  END
