CVD-0004040|dock_bobby27042020.43|mol2|19|dock1
     RDKit          3D

 23 26  0  0  0  0  0  0  0  0999 V2000
    5.6067   -0.6675   19.4989 C   0  0  0  0  0  0  0  0  0  0  0  0
    6.8441   -0.2054   20.2176 C   0  0  0  0  0  0  0  0  0  0  0  0
    7.0540    1.1776   20.4524 C   0  0  0  0  0  0  0  0  0  0  0  0
    8.1447    1.6250   21.1018 C   0  0  0  0  0  0  0  0  0  0  0  0
    9.0883    0.7228   21.5582 N   0  0  0  0  0  0  0  0  0  0  0  0
   10.2964    0.9025   22.2447 C   0  0  0  0  0  0  0  0  0  0  0  0
   10.8109    2.2304   22.6278 C   0  0  0  0  0  0  0  0  0  0  0  0
   10.1059    3.3218   23.1682 C   0  0  0  0  0  0  0  0  0  0  0  0
   10.8877    4.3685   23.3775 N   0  0  0  0  0  0  0  0  0  0  0  0
   12.1162    3.9575   22.9865 N   0  0  0  0  0  0  0  0  0  0  0  0
   13.2474    4.8746   23.0538 C   0  0  0  0  0  0  0  0  0  0  0  0
   12.1074    2.7005   22.5270 C   0  0  0  0  0  0  0  0  0  0  0  0
   10.7975   -0.3853   22.4177 C   0  0  0  0  0  0  0  0  0  0  0  0
    9.9516   -1.3199   21.8516 N   0  0  0  0  0  0  0  0  0  0  0  0
    8.9301   -0.6391   21.3478 C   0  0  0  0  0  0  0  0  0  0  0  0
    7.7784   -1.0911   20.6674 C   0  0  0  0  0  0  0  0  0  0  0  0
   12.0124   -0.9185   23.0713 C   0  0  0  0  0  0  0  0  0  0  0  0
   12.5157   -0.2684   24.1934 C   0  0  0  0  0  0  0  0  0  0  0  0
   13.6299   -0.7459   24.8601 C   0  0  0  0  0  0  0  0  0  0  0  0
   14.2339   -1.8778   24.3871 C   0  0  0  0  0  0  0  0  0  0  0  0
   15.3189   -2.3636   25.0484 F   0  0  0  0  0  0  0  0  0  0  0  0
   13.7923   -2.5400   23.2749 C   0  0  0  0  0  0  0  0  0  0  0  0
   12.6879   -2.0427   22.6061 C   0  0  0  0  0  0  0  0  0  0  0  0
  1  2  1  0
  2  3  1  0
  3  4  2  0
  4  5  1  0
  5  6  1  0
  6  7  1  0
  7  8  1  0
  8  9  2  0
  9 10  1  0
 10 11  1  0
 10 12  1  0
  6 13  2  0
 13 14  1  0
 14 15  2  0
 15 16  1  0
 13 17  1  0
 17 18  2  0
 18 19  1  0
 19 20  2  0
 20 21  1  0
 20 22  1  0
 22 23  2  0
 16  2  2  0
 23 17  1  0
 15  5  1  0
 12  7  2  0
M  END
