CVD-0000909|dock_bobby27042020.68|mol2|42|dock1
     RDKit          3D

 17 18  0  0  0  0  0  0  0  0999 V2000
    8.6282   -3.0265   22.5122 C   0  0  0  0  0  0  0  0  0  0  0  0
    9.0815   -1.5835   22.3367 C   0  0  0  0  0  0  0  0  0  0  0  0
    8.8088   -1.1693   20.9694 N   0  0  0  0  0  0  0  0  0  0  0  0
    7.6916   -0.5100   20.6550 C   0  0  0  0  0  0  0  0  0  0  0  0
    6.8284   -0.2092   21.4737 O   0  0  0  0  0  0  0  0  0  0  0  0
    7.5696   -0.1453   19.1919 C   0  0  0  0  0  0  0  0  0  0  0  0
    5.9725    0.4798   18.7610 Cl  0  0  0  0  0  0  0  0  0  0  0  0
   10.5328   -1.3900   22.7064 C   0  0  0  0  0  0  0  0  0  0  0  0
   11.1770   -2.0260   23.7134 C   0  0  0  0  0  0  0  0  0  0  0  0
   12.4188   -1.6379   24.1198 C   0  0  0  0  0  0  0  0  0  0  0  0
   13.3170   -2.7506   25.1064 Cl  0  0  0  0  0  0  0  0  0  0  0  0
   13.0499   -0.6100   23.5362 C   0  0  0  0  0  0  0  0  0  0  0  0
   12.2927    0.3425   22.8173 C   0  0  0  0  0  0  0  0  0  0  0  0
   12.0806    1.6965   23.5211 C   0  0  0  0  0  0  0  0  0  0  0  0
   10.7821    2.2065   22.9593 C   0  0  0  0  0  0  0  0  0  0  0  0
   10.0363    0.9627   23.0384 N   0  0  0  0  0  0  0  0  0  0  0  0
   10.9361   -0.0448   22.4360 C   0  0  0  0  0  0  0  0  0  0  0  0
  1  2  1  0
  2  3  1  0
  3  4  1  0
  4  5  2  0
  4  6  1  0
  6  7  1  0
  2  8  1  0
  8  9  2  0
  9 10  1  0
 10 11  1  0
 10 12  2  0
 12 13  1  0
 13 14  1  0
 14 15  1  0
 15 16  1  0
 16 17  1  0
 17  8  1  0
 17 13  1  0
M  END
