CVD-0003795|dock_bobby27042020.1|mol2|1|dock2
     RDKit          3D

 23 25  0  0  0  0  0  0  0  0999 V2000
    9.7267   -6.7311   25.0149 N   0  0  0  0  0  0  0  0  0  0  0  0
    9.3517   -5.7391   26.2142 S   0  0  0  0  0  0  0  0  0  0  0  0
   10.3555   -5.8965   27.2235 O   0  0  0  0  0  0  0  0  0  0  0  0
    7.9829   -5.9857   26.5556 O   0  0  0  0  0  0  0  0  0  0  0  0
    9.4565   -4.0779   25.6203 C   0  0  0  0  0  0  0  0  0  0  0  0
    9.9712   -3.8263   24.3617 C   0  0  0  0  0  0  0  0  0  0  0  0
   10.0458   -2.5246   23.8986 C   0  0  0  0  0  0  0  0  0  0  0  0
    9.6209   -1.4537   24.6811 C   0  0  0  0  0  0  0  0  0  0  0  0
    9.1010   -1.7346   25.9423 C   0  0  0  0  0  0  0  0  0  0  0  0
    9.0157   -3.0332   26.4119 C   0  0  0  0  0  0  0  0  0  0  0  0
    9.7018   -0.1392   24.2365 N   0  0  0  0  0  0  0  0  0  0  0  0
    8.9434    0.3594   23.0852 C   0  0  0  0  0  0  0  0  0  0  0  0
    9.7943    1.1863   22.1635 C   0  0  0  0  0  0  0  0  0  0  0  0
   10.4478    2.3512   22.9155 C   0  0  0  0  0  0  0  0  0  0  0  0
   11.2196    1.7986   24.0871 C   0  0  0  0  0  0  0  0  0  0  0  0
   10.3722    0.9385   25.0003 C   0  0  0  0  0  0  0  0  0  0  0  0
   11.2775    3.1672   22.0303 N   0  0  0  0  0  0  0  0  0  0  0  0
   12.0046    4.2981   22.4021 C   0  0  0  0  0  0  0  0  0  0  0  0
   11.6605    5.0835   23.4984 C   0  0  0  0  0  0  0  0  0  0  0  0
   12.4028    6.2102   23.8115 C   0  0  0  0  0  0  0  0  0  0  0  0
   13.4979    6.5583   23.0515 C   0  0  0  0  0  0  0  0  0  0  0  0
   13.8564    5.7789   21.9739 C   0  0  0  0  0  0  0  0  0  0  0  0
   13.1169    4.6545   21.6481 C   0  0  0  0  0  0  0  0  0  0  0  0
  1  2  1  0
  2  3  2  0
  2  4  2  0
  2  5  1  0
  5  6  2  0
  6  7  1  0
  7  8  2  0
  8  9  1  0
  9 10  2  0
  8 11  1  0
 11 12  1  0
 12 13  1  0
 13 14  1  0
 14 15  1  0
 15 16  1  0
 14 17  1  0
 17 18  1  0
 18 19  2  0
 19 20  1  0
 20 21  2  0
 21 22  1  0
 22 23  2  0
 10  5  1  0
 16 11  1  0
 23 18  1  0
M  END
