CVD-0002863|dock_bobby27042020.61|mol2|38|dock2
     RDKit          3D

 24 26  0  0  0  0  0  0  0  0999 V2000
   12.2498    7.6217   25.5070 C   0  0  0  0  0  0  0  0  0  0  0  0
   13.1195    7.3092   24.3248 C   0  0  0  0  0  0  0  0  0  0  0  0
   13.7318    8.1839   23.7200 O   0  0  0  0  0  0  0  0  0  0  0  0
   13.1751    6.0271   23.9592 N   0  0  0  0  0  0  0  0  0  0  0  0
   13.9607    5.5684   22.8225 C   0  0  0  0  0  0  0  0  0  0  0  0
   14.0398    4.0559   22.7635 C   0  0  0  0  0  0  0  0  0  0  0  0
   12.7440    3.4161   22.3593 C   0  0  0  0  0  0  0  0  0  0  0  0
   11.5492    4.0357   22.1347 C   0  0  0  0  0  0  0  0  0  0  0  0
   10.5939    3.1210   21.7826 N   0  0  0  0  0  0  0  0  0  0  0  0
   11.1696    1.8747   21.7749 C   0  0  0  0  0  0  0  0  0  0  0  0
   10.6266    0.6205   21.4851 C   0  0  0  0  0  0  0  0  0  0  0  0
    9.2948    0.6286   21.1488 O   0  0  0  0  0  0  0  0  0  0  0  0
    8.7842   -0.3629   20.2485 C   0  0  0  0  0  0  0  0  0  0  0  0
    7.4344    0.0618   19.7456 C   0  0  0  0  0  0  0  0  0  0  0  0
    7.2930    0.6230   18.4859 C   0  0  0  0  0  0  0  0  0  0  0  0
    6.0487    1.0177   18.0234 C   0  0  0  0  0  0  0  0  0  0  0  0
    4.9326    0.8563   18.8158 C   0  0  0  0  0  0  0  0  0  0  0  0
    5.0602    0.3007   20.0708 C   0  0  0  0  0  0  0  0  0  0  0  0
    6.3045   -0.0938   20.5334 C   0  0  0  0  0  0  0  0  0  0  0  0
   11.4264   -0.5093   21.5465 C   0  0  0  0  0  0  0  0  0  0  0  0
   12.7450   -0.3351   21.8995 C   0  0  0  0  0  0  0  0  0  0  0  0
   13.5335   -1.4420   21.9616 F   0  0  0  0  0  0  0  0  0  0  0  0
   13.3232    0.8777   22.1939 C   0  0  0  0  0  0  0  0  0  0  0  0
   12.5221    2.0163   22.1321 C   0  0  0  0  0  0  0  0  0  0  0  0
  1  2  1  0
  2  3  2  0
  2  4  1  0
  4  5  1  0
  5  6  1  0
  6  7  1  0
  7  8  2  0
  8  9  1  0
  9 10  1  0
 10 11  2  0
 11 12  1  0
 12 13  1  0
 13 14  1  0
 14 15  2  0
 15 16  1  0
 16 17  2  0
 17 18  1  0
 18 19  2  0
 11 20  1  0
 20 21  2  0
 21 22  1  0
 21 23  1  0
 23 24  2  0
 24  7  1  0
 24 10  1  0
 19 14  1  0
M  END
