CVD-0001725|dock_bobby27042020.51|mol2|31|dock2
     RDKit          3D

 26 28  0  0  0  0  0  0  0  0999 V2000
   14.8248   -1.9486   25.6618 O   0  0  0  0  0  0  0  0  0  0  0  0
   13.8930   -1.3992   24.7263 C   0  0  0  0  0  0  0  0  0  0  0  0
   12.6063   -0.8905   25.3647 C   0  0  0  0  0  0  0  0  0  0  0  0
   11.5831   -0.4398   24.3407 C   0  0  0  0  0  0  0  0  0  0  0  0
   11.2650   -1.5054   23.3826 N   0  0  0  0  0  0  0  0  0  0  0  0
   10.2343   -1.0641   22.4336 C   0  0  0  0  0  0  0  0  0  0  0  0
    9.5816   -2.2180   21.6900 C   0  0  0  0  0  0  0  0  0  0  0  0
    8.1190   -2.0385   21.6168 N   0  0  0  0  0  0  0  0  0  0  0  0
    7.6064   -0.9779   20.8544 C   0  0  0  0  0  0  0  0  0  0  0  0
    8.3944   -0.2624   20.2511 O   0  0  0  0  0  0  0  0  0  0  0  0
    6.2454   -0.7693   20.7891 N   0  0  0  0  0  0  0  0  0  0  0  0
    5.4975    0.2135   20.0874 C   0  0  0  0  0  0  0  0  0  0  0  0
    5.9177    0.5505   18.8066 C   0  0  0  0  0  0  0  0  0  0  0  0
    5.2256    1.5025   18.0794 C   0  0  0  0  0  0  0  0  0  0  0  0
    4.1262    2.0965   18.6525 C   0  0  0  0  0  0  0  0  0  0  0  0
    3.6946    1.7980   19.8773 N   0  0  0  0  0  0  0  0  0  0  0  0
    4.3695    0.8764   20.5717 C   0  0  0  0  0  0  0  0  0  0  0  0
    7.3101   -3.0000   22.3259 C   0  0  0  0  0  0  0  0  0  0  0  0
    6.5771   -2.6241   23.4473 C   0  0  0  0  0  0  0  0  0  0  0  0
    5.8034   -3.5454   24.1333 C   0  0  0  0  0  0  0  0  0  0  0  0
    5.7367   -4.8606   23.7107 C   0  0  0  0  0  0  0  0  0  0  0  0
    6.4596   -5.2308   22.6003 C   0  0  0  0  0  0  0  0  0  0  0  0
    6.3862   -6.8813   22.0500 Cl  0  0  0  0  0  0  0  0  0  0  0  0
    7.2433   -4.3286   21.9108 C   0  0  0  0  0  0  0  0  0  0  0  0
   12.4887   -1.9105   22.6856 C   0  0  0  0  0  0  0  0  0  0  0  0
   13.5281   -2.4307   23.6646 C   0  0  0  0  0  0  0  0  0  0  0  0
  1  2  1  0
  2  3  1  0
  3  4  1  0
  4  5  1  0
  5  6  1  0
  6  7  1  0
  7  8  1  0
  8  9  1  0
  9 10  2  0
  9 11  1  0
 11 12  1  0
 12 13  2  0
 13 14  1  0
 14 15  2  0
 15 16  1  0
 16 17  2  0
  8 18  1  0
 18 19  2  0
 19 20  1  0
 20 21  2  0
 21 22  1  0
 22 23  1  0
 22 24  2  0
  5 25  1  0
 25 26  1  0
 26  2  1  0
 17 12  1  0
 24 18  1  0
M  END
