CVD-0002785|dock_bobby27042020.18|mol2|36|dock3
     RDKit          3D

 17 18  0  0  0  0  0  0  0  0999 V2000
   13.1808   -2.5872   21.0047 O   0  0  0  0  0  0  0  0  0  0  0  0
   13.1011   -1.5503   21.9859 C   0  0  0  0  0  0  0  0  0  0  0  0
   13.6908   -2.0607   23.2843 C   0  0  0  0  0  0  0  0  0  0  0  0
   13.6519   -0.9580   24.3562 C   0  0  0  0  0  0  0  0  0  0  0  0
   12.2495   -0.4247   24.5495 C   0  0  0  0  0  0  0  0  0  0  0  0
   11.6502    0.0638   23.2339 C   0  0  0  0  0  0  0  0  0  0  0  0
   11.6884   -1.0063   22.1526 C   0  0  0  0  0  0  0  0  0  0  0  0
   10.7214   -2.1369   22.5105 C   0  0  0  0  0  0  0  0  0  0  0  0
    9.2656   -1.7265   22.4777 C   0  0  0  0  0  0  0  0  0  0  0  0
    8.6204   -1.6019   23.5134 O   0  0  0  0  0  0  0  0  0  0  0  0
    8.7926   -1.5204   21.2245 N   0  0  0  0  0  0  0  0  0  0  0  0
    7.5128   -1.1294   20.7583 C   0  0  0  0  0  0  0  0  0  0  0  0
    7.2704   -1.1188   19.3907 C   0  0  0  0  0  0  0  0  0  0  0  0
    6.0263   -0.7395   18.9184 C   0  0  0  0  0  0  0  0  0  0  0  0
    5.0583   -0.3810   19.8275 C   0  0  0  0  0  0  0  0  0  0  0  0
    5.2594   -0.3807   21.1453 N   0  0  0  0  0  0  0  0  0  0  0  0
    6.4640   -0.7486   21.5926 C   0  0  0  0  0  0  0  0  0  0  0  0
  2  1  1  0
  2  3  1  0
  3  4  1  0
  4  5  1  0
  5  6  1  0
  6  7  1  0
  7  8  1  0
  8  9  1  0
  9 10  2  0
  9 11  1  0
 11 12  1  0
 12 13  2  0
 13 14  1  0
 14 15  2  0
 15 16  1  0
 16 17  2  0
  7  2  1  0
 17 12  1  0
M  END
