CVD-0001267|dock_bobby27042020.53|mol2|16|dock3
     RDKit          3D

 19 21  0  0  0  0  0  0  0  0999 V2000
   13.4870   -2.4165   23.6111 C   0  0  0  0  0  0  0  0  0  0  0  0
   13.7292   -1.4053   22.4925 C   0  0  0  0  0  0  0  0  0  0  0  0
   13.5391   -2.0515   21.1326 C   0  0  0  0  0  0  0  0  0  0  0  0
   14.6604   -2.3365   20.5192 O   0  0  0  0  0  0  0  0  0  0  0  0
   12.4463   -2.2804   20.6627 O   0  0  0  0  0  0  0  0  0  0  0  0
   12.8222   -0.1833   22.5795 C   0  0  0  0  0  0  0  0  0  0  0  0
   11.4371   -0.3076   22.5266 C   0  0  0  0  0  0  0  0  0  0  0  0
   10.6035    0.7938   22.6139 C   0  0  0  0  0  0  0  0  0  0  0  0
   11.1637    2.0606   22.7558 C   0  0  0  0  0  0  0  0  0  0  0  0
   12.5639    2.1862   22.8073 C   0  0  0  0  0  0  0  0  0  0  0  0
   13.3945    1.0747   22.7205 C   0  0  0  0  0  0  0  0  0  0  0  0
   12.8881    3.5228   22.9487 N   0  0  0  0  0  0  0  0  0  0  0  0
   11.7224    4.2658   22.9905 C   0  0  0  0  0  0  0  0  0  0  0  0
   11.5443    5.6386   23.1221 C   0  0  0  0  0  0  0  0  0  0  0  0
   10.2588    6.1526   23.1379 C   0  0  0  0  0  0  0  0  0  0  0  0
    9.1780    5.3022   23.0238 C   0  0  0  0  0  0  0  0  0  0  0  0
    7.5706    5.9718   23.0463 Cl  0  0  0  0  0  0  0  0  0  0  0  0
    9.3292    3.9358   22.8921 C   0  0  0  0  0  0  0  0  0  0  0  0
   10.6162    3.4020   22.8742 C   0  0  0  0  0  0  0  0  0  0  0  0
  1  2  1  0
  2  3  1  0
  3  4  1  0
  3  5  2  0
  2  6  1  0
  6  7  2  0
  7  8  1  0
  8  9  2  0
  9 10  1  0
 10 11  2  0
 10 12  1  0
 12 13  1  0
 13 14  2  0
 14 15  1  0
 15 16  2  0
 16 17  1  0
 16 18  1  0
 18 19  2  0
 11  6  1  0
 19 13  1  0
 19  9  1  0
M  END
