CVD-0002425|dock_bobby27042020.34|mol2|23|dock1
     RDKit          3D

 32 36  0  0  0  0  0  0  0  0999 V2000
    9.1325   -3.5593   24.7659 C   0  0  0  0  0  0  0  0  0  0  0  0
    7.8352   -4.0819   24.4493 O   0  0  0  0  0  0  0  0  0  0  0  0
    7.2905   -5.0552   25.2499 C   0  0  0  0  0  0  0  0  0  0  0  0
    7.9228   -5.6167   26.3542 C   0  0  0  0  0  0  0  0  0  0  0  0
    7.2794   -6.5946   27.0947 C   0  0  0  0  0  0  0  0  0  0  0  0
    6.0149   -7.0135   26.7420 C   0  0  0  0  0  0  0  0  0  0  0  0
    5.3844   -6.4559   25.6434 C   0  0  0  0  0  0  0  0  0  0  0  0
    6.0103   -5.4729   24.8829 C   0  0  0  0  0  0  0  0  0  0  0  0
    5.3261   -4.8595   23.6862 C   0  0  0  0  0  0  0  0  0  0  0  0
    5.3278   -3.4042   23.7042 N   0  0  0  0  0  0  0  0  0  0  0  0
    5.3482   -2.6568   22.5949 C   0  0  0  0  0  0  0  0  0  0  0  0
    5.3691   -3.1439   21.3674 N   0  0  0  0  0  0  0  0  0  0  0  0
    5.3848   -2.0141   20.5537 C   0  0  0  0  0  0  0  0  0  0  0  0
    5.4094   -1.9015   19.1641 C   0  0  0  0  0  0  0  0  0  0  0  0
    5.4210   -0.6357   18.5972 C   0  0  0  0  0  0  0  0  0  0  0  0
    5.4087    0.4998   19.3839 C   0  0  0  0  0  0  0  0  0  0  0  0
    5.3844    0.4060   20.7664 C   0  0  0  0  0  0  0  0  0  0  0  0
    5.3727   -0.8618   21.3356 C   0  0  0  0  0  0  0  0  0  0  0  0
    5.3491   -1.3036   22.6436 N   0  0  0  0  0  0  0  0  0  0  0  0
    9.4320   -2.4523   23.7870 C   0  0  0  0  0  0  0  0  0  0  0  0
   10.7482   -1.7850   24.0724 C   0  0  0  0  0  0  0  0  0  0  0  0
   10.9750   -0.6981   23.1187 N   0  0  0  0  0  0  0  0  0  0  0  0
   12.2490   -0.0161   23.3851 C   0  0  0  0  0  0  0  0  0  0  0  0
   12.2243    1.4464   23.0111 C   0  0  0  0  0  0  0  0  0  0  0  0
   13.4039    2.1443   22.8038 C   0  0  0  0  0  0  0  0  0  0  0  0
   13.3814    3.4867   22.4639 C   0  0  0  0  0  0  0  0  0  0  0  0
   12.1788    4.1463   22.3282 C   0  0  0  0  0  0  0  0  0  0  0  0
   10.9988    3.4641   22.5329 C   0  0  0  0  0  0  0  0  0  0  0  0
   11.0215    2.1217   22.8729 C   0  0  0  0  0  0  0  0  0  0  0  0
   10.9265   -1.2418   21.7638 C   0  0  0  0  0  0  0  0  0  0  0  0
    9.6072   -1.9284   21.5254 C   0  0  0  0  0  0  0  0  0  0  0  0
    9.3799   -2.9645   22.4656 O   0  0  0  0  0  0  0  0  0  0  0  0
  1  2  1  0
  2  3  1  0
  3  4  2  0
  4  5  1  0
  5  6  2  0
  6  7  1  0
  7  8  2  0
  8  9  1  0
  9 10  1  0
 10 11  1  0
 11 12  2  0
 12 13  1  0
 13 14  2  0
 14 15  1  0
 15 16  2  0
 16 17  1  0
 17 18  2  0
 18 19  1  0
  1 20  1  0
 20 21  1  0
 21 22  1  0
 22 23  1  0
 23 24  1  0
 24 25  2  0
 25 26  1  0
 26 27  2  0
 27 28  1  0
 28 29  2  0
 22 30  1  0
 30 31  1  0
 31 32  1  0
  8  3  1  0
 19 11  1  0
 32 20  1  0
 18 13  1  0
 29 24  1  0
M  END
