CVD-0003977|dock_bobby27042020.58|mol2|7|dock3
     RDKit          3D

 27 27  0  0  0  0  0  0  0  0999 V2000
   14.1366    6.0781   21.7741 O   0  0  0  0  0  0  0  0  0  0  0  0
   13.3893    4.9776   21.7604 C   0  0  0  0  0  0  0  0  0  0  0  0
   13.4921    4.0114   22.7203 C   0  0  0  0  0  0  0  0  0  0  0  0
   12.6990    2.8095   22.7349 C   0  0  0  0  0  0  0  0  0  0  0  0
   13.2072    1.5735   22.6342 C   0  0  0  0  0  0  0  0  0  0  0  0
   12.3989    0.3466   22.6491 C   0  0  0  0  0  0  0  0  0  0  0  0
   11.2185    0.3032   22.9094 O   0  0  0  0  0  0  0  0  0  0  0  0
   13.1600   -1.1838   22.2684 S   0  0  0  0  0  0  0  0  0  0  0  0
   13.1173   -1.3503   20.8440 O   0  0  0  0  0  0  0  0  0  0  0  0
   14.4082   -1.2543   22.9729 O   0  0  0  0  0  0  0  0  0  0  0  0
   12.0990   -2.4379   22.9556 C   0  0  0  0  0  0  0  0  0  0  0  0
   12.6233   -3.1616   23.7747 O   0  0  0  0  0  0  0  0  0  0  0  0
   10.8377   -2.4317   22.4830 N   0  0  0  0  0  0  0  0  0  0  0  0
    9.7130   -3.1920   22.7225 C   0  0  0  0  0  0  0  0  0  0  0  0
    9.7670   -4.1122   23.5369 O   0  0  0  0  0  0  0  0  0  0  0  0
    8.3565   -2.9552   22.0157 C   0  0  0  0  0  0  0  0  0  0  0  0
    7.4659   -3.7691   21.9767 O   0  0  0  0  0  0  0  0  0  0  0  0
    8.1529   -1.3971   21.2437 S   0  0  0  0  0  0  0  0  0  0  0  0
    8.3690   -0.3945   22.2468 O   0  0  0  0  0  0  0  0  0  0  0  0
    8.9809   -1.3772   20.0723 O   0  0  0  0  0  0  0  0  0  0  0  0
    6.4450   -1.3619   20.7599 C   0  0  0  0  0  0  0  0  0  0  0  0
    5.9269   -0.0607   20.2106 C   0  0  0  0  0  0  0  0  0  0  0  0
    5.1189    0.7855   20.8667 C   0  0  0  0  0  0  0  0  0  0  0  0
    4.7621    2.1247   20.2164 C   0  0  0  0  0  0  0  0  0  0  0  0
    4.5744    1.8612   18.7197 C   0  0  0  0  0  0  0  0  0  0  0  0
    5.7282    1.1254   18.1400 C   0  0  0  0  0  0  0  0  0  0  0  0
    6.3905    0.2358   18.8558 C   0  0  0  0  0  0  0  0  0  0  0  0
  1  2  1  0
  2  3  2  0
  3  4  1  0
  4  5  2  0
  5  6  1  0
  6  7  2  0
  6  8  1  0
  8  9  2  0
  8 10  2  0
  8 11  1  0
 11 12  2  0
 11 13  1  0
 13 14  1  0
 14 15  2  0
 14 16  1  0
 16 17  2  0
 16 18  1  0
 18 19  2  0
 18 20  2  0
 18 21  1  0
 21 22  1  0
 22 23  2  0
 23 24  1  0
 24 25  1  0
 25 26  1  0
 26 27  2  0
 27 22  1  0
M  END
