CVD-0000883|dock_bobby27042020.40|mol2|11|dock2
     RDKit          3D

 15 15  0  0  0  0  0  0  0  0999 V2000
    9.2533    1.8026   23.6043 C   0  0  0  0  0  0  0  0  0  0  0  0
   10.5350    1.7843   22.7803 C   0  0  0  0  0  0  0  0  0  0  0  0
   11.3838    2.8984   23.2143 N   0  0  0  0  0  0  0  0  0  0  0  0
   12.1530    3.5947   22.3746 C   0  0  0  0  0  0  0  0  0  0  0  0
   12.2205    3.3684   21.1706 O   0  0  0  0  0  0  0  0  0  0  0  0
   12.9421    4.7093   23.0256 C   0  0  0  0  0  0  0  0  0  0  0  0
   14.0134    5.5392   21.8893 Cl  0  0  0  0  0  0  0  0  0  0  0  0
   11.2619    0.4586   22.9347 C   0  0  0  0  0  0  0  0  0  0  0  0
   12.2237    0.3251   23.9357 C   0  0  0  0  0  0  0  0  0  0  0  0
   12.9130   -0.8585   24.1001 C   0  0  0  0  0  0  0  0  0  0  0  0
   14.1064   -0.9788   25.3626 Cl  0  0  0  0  0  0  0  0  0  0  0  0
   12.6778   -1.9441   23.2886 C   0  0  0  0  0  0  0  0  0  0  0  0
   11.7263   -1.8353   22.2924 C   0  0  0  0  0  0  0  0  0  0  0  0
   11.0201   -0.6515   22.1126 C   0  0  0  0  0  0  0  0  0  0  0  0
   10.0944   -0.6197   21.1143 O   0  0  0  0  0  0  0  0  0  0  0  0
  1  2  1  0
  2  3  1  0
  3  4  1  0
  4  5  2  0
  4  6  1  0
  6  7  1  0
  2  8  1  0
  8  9  2  0
  9 10  1  0
 10 11  1  0
 10 12  2  0
 12 13  1  0
 13 14  2  0
 14 15  1  0
 14  8  1  0
M  END
