CVD-0003718|dock_bobby27042020.30|mol2|7|dock1
     RDKit          3D

 24 26  0  0  0  0  0  0  0  0999 V2000
   10.1141   -5.4065   27.3225 C   0  0  0  0  0  0  0  0  0  0  0  0
    9.9209   -4.3032   26.3257 C   0  0  0  0  0  0  0  0  0  0  0  0
    9.2458   -3.1389   26.4768 C   0  0  0  0  0  0  0  0  0  0  0  0
    9.2591   -2.3267   25.3457 C   0  0  0  0  0  0  0  0  0  0  0  0
    9.9656   -2.8771   24.2855 C   0  0  0  0  0  0  0  0  0  0  0  0
   10.6013   -4.4163   24.7423 S   0  0  0  0  0  0  0  0  0  0  0  0
   10.1934   -2.2882   22.9097 C   0  0  0  0  0  0  0  0  0  0  0  0
    8.9560   -1.7774   22.3011 N   0  0  0  0  0  0  0  0  0  0  0  0
    9.2000   -1.2775   20.9382 C   0  0  0  0  0  0  0  0  0  0  0  0
    7.9379   -0.7118   20.3409 C   0  0  0  0  0  0  0  0  0  0  0  0
    6.8687   -1.7151   20.3440 N   0  0  0  0  0  0  0  0  0  0  0  0
    6.6428   -2.2881   21.6695 C   0  0  0  0  0  0  0  0  0  0  0  0
    7.9421   -2.8296   22.2165 C   0  0  0  0  0  0  0  0  0  0  0  0
    6.0501   -2.0113   19.3136 C   0  0  0  0  0  0  0  0  0  0  0  0
    5.1873   -2.8757   19.4028 O   0  0  0  0  0  0  0  0  0  0  0  0
    6.2521   -1.2255   18.0327 C   0  0  0  0  0  0  0  0  0  0  0  0
    6.0240    0.5071   18.3030 Cl  0  0  0  0  0  0  0  0  0  0  0  0
   11.2579   -1.2030   22.9702 C   0  0  0  0  0  0  0  0  0  0  0  0
   12.5445   -1.4380   22.5090 C   0  0  0  0  0  0  0  0  0  0  0  0
   13.5005   -0.4388   22.5696 C   0  0  0  0  0  0  0  0  0  0  0  0
   13.1735    0.8018   23.0908 C   0  0  0  0  0  0  0  0  0  0  0  0
   11.8932    1.0604   23.5554 C   0  0  0  0  0  0  0  0  0  0  0  0
   11.5349    2.4106   24.1270 C   0  0  0  0  0  0  0  0  0  0  0  0
   10.9496    0.0461   23.4876 C   0  0  0  0  0  0  0  0  0  0  0  0
  1  2  1  0
  2  3  2  0
  3  4  1  0
  4  5  2  0
  5  6  1  0
  5  7  1  0
  7  8  1  0
  8  9  1  0
  9 10  1  0
 10 11  1  0
 11 12  1  0
 12 13  1  0
 11 14  1  0
 14 15  2  0
 14 16  1  0
 16 17  1  0
  7 18  1  0
 18 19  2  0
 19 20  1  0
 20 21  2  0
 21 22  1  0
 22 23  1  0
 22 24  2  0
  6  2  1  0
 13  8  1  0
 24 18  1  0
M  END
