CVD-0001678|dock_bobby27042020.23|mol2|12|dock1
     RDKit          3D

 20 21  0  0  0  0  0  0  0  0999 V2000
   13.6209   -2.8358   25.3252 N   0  0  0  0  0  0  0  0  0  0  0  0
   13.1881   -1.5978   25.0503 C   0  0  0  0  0  0  0  0  0  0  0  0
   13.8272   -0.6121   25.4446 O   0  0  0  0  0  0  0  0  0  0  0  0
   12.0481   -1.4154   24.3396 N   0  0  0  0  0  0  0  0  0  0  0  0
   11.4153   -2.4116   23.4770 C   0  0  0  0  0  0  0  0  0  0  0  0
   11.1800   -1.8364   22.0966 C   0  0  0  0  0  0  0  0  0  0  0  0
   10.4187   -0.5930   22.1932 N   0  0  0  0  0  0  0  0  0  0  0  0
   11.0515    0.4032   23.0558 C   0  0  0  0  0  0  0  0  0  0  0  0
   11.2868   -0.1719   24.4362 C   0  0  0  0  0  0  0  0  0  0  0  0
    9.2820   -0.4111   21.4845 C   0  0  0  0  0  0  0  0  0  0  0  0
    8.8820   -1.2638   20.7150 O   0  0  0  0  0  0  0  0  0  0  0  0
    8.5049    0.8786   21.6546 C   0  0  0  0  0  0  0  0  0  0  0  0
    9.3074    1.8871   21.2264 O   0  0  0  0  0  0  0  0  0  0  0  0
    8.1743    1.1081   22.9752 F   0  0  0  0  0  0  0  0  0  0  0  0
    7.2755    0.8838   20.7740 C   0  0  0  0  0  0  0  0  0  0  0  0
    7.3802    0.7167   19.4022 C   0  0  0  0  0  0  0  0  0  0  0  0
    6.2213    0.7336   18.6455 C   0  0  0  0  0  0  0  0  0  0  0  0
    5.0050    0.9151   19.2670 C   0  0  0  0  0  0  0  0  0  0  0  0
    4.9949    1.0745   20.6340 C   0  0  0  0  0  0  0  0  0  0  0  0
    6.1011    1.0624   21.3894 N   0  0  0  0  0  0  0  0  0  0  0  0
  1  2  1  0
  2  3  2  0
  2  4  1  0
  4  5  1  0
  5  6  1  0
  6  7  1  0
  7  8  1  0
  8  9  1  0
  7 10  1  0
 10 11  2  0
 10 12  1  0
 12 13  1  0
 12 14  1  0
 12 15  1  0
 15 16  2  0
 16 17  1  0
 17 18  2  0
 18 19  1  0
 19 20  2  0
  9  4  1  0
 20 15  1  0
M  END
