CVD-0001240|dock_bobby27042020.10|mol2|21|dock1
     RDKit          3D

 22 24  0  0  0  0  0  0  0  0999 V2000
    6.9828   -5.9292   21.7983 C   0  0  0  0  0  0  0  0  0  0  0  0
    6.6743   -4.7443   22.6591 C   0  0  0  0  0  0  0  0  0  0  0  0
    7.4826   -3.5945   22.2900 N   0  0  0  0  0  0  0  0  0  0  0  0
    7.1558   -2.7563   21.2951 C   0  0  0  0  0  0  0  0  0  0  0  0
    6.1842   -3.1275   20.4393 N   0  0  0  0  0  0  0  0  0  0  0  0
    5.8729   -2.2763   19.4539 C   0  0  0  0  0  0  0  0  0  0  0  0
    6.4894   -1.0428   19.2657 C   0  0  0  0  0  0  0  0  0  0  0  0
    7.4927   -0.6621   20.1509 C   0  0  0  0  0  0  0  0  0  0  0  0
    7.8326   -1.5257   21.1768 C   0  0  0  0  0  0  0  0  0  0  0  0
    8.7987   -1.2796   22.1218 O   0  0  0  0  0  0  0  0  0  0  0  0
    9.9296   -0.4655   21.7864 C   0  0  0  0  0  0  0  0  0  0  0  0
   10.9728   -0.5863   22.8598 C   0  0  0  0  0  0  0  0  0  0  0  0
   10.8640    0.1382   24.0386 C   0  0  0  0  0  0  0  0  0  0  0  0
   11.8155    0.0358   25.0399 C   0  0  0  0  0  0  0  0  0  0  0  0
   12.9019   -0.8135   24.8564 C   0  0  0  0  0  0  0  0  0  0  0  0
   13.9731   -1.1041   25.6657 N   0  0  0  0  0  0  0  0  0  0  0  0
   14.7763   -2.0139   25.0203 C   0  0  0  0  0  0  0  0  0  0  0  0
   14.2509   -2.3214   23.8090 C   0  0  0  0  0  0  0  0  0  0  0  0
   13.0457   -1.5633   23.6783 C   0  0  0  0  0  0  0  0  0  0  0  0
   12.0618   -1.4319   22.6894 C   0  0  0  0  0  0  0  0  0  0  0  0
    6.1014   -0.1759   18.1805 C   0  0  0  0  0  0  0  0  0  0  0  0
    5.7640    0.4961   17.3205 N   0  0  0  0  0  0  0  0  0  0  0  0
  1  2  1  0
  2  3  1  0
  3  4  1  0
  4  5  2  0
  5  6  1  0
  6  7  2  0
  7  8  1  0
  8  9  2  0
  9 10  1  0
 10 11  1  0
 11 12  1  0
 12 13  2  0
 13 14  1  0
 14 15  2  0
 15 16  1  0
 16 17  1  0
 17 18  2  0
 18 19  1  0
 19 20  2  0
  7 21  1  0
 21 22  3  0
  9  4  1  0
 20 12  1  0
 19 15  1  0
M  END
