CVD-0001504|dock_bobby27042020.80|mol2|48|dock2
     RDKit          3D

 20 21  0  0  0  0  0  0  0  0999 V2000
    7.6788    0.9748   23.1965 N   0  0  0  0  0  0  0  0  0  0  0  0
    8.6417    0.3895   22.9513 C   0  0  0  0  0  0  0  0  0  0  0  0
    9.7859   -0.2670   22.8183 N   0  0  0  0  0  0  0  0  0  0  0  0
   10.1442   -0.9373   21.7101 C   0  0  0  0  0  0  0  0  0  0  0  0
   11.3694   -1.5384   21.7916 N   0  0  0  0  0  0  0  0  0  0  0  0
   12.3606   -1.6506   22.7973 C   0  0  0  0  0  0  0  0  0  0  0  0
   11.9894   -1.8714   24.1168 C   0  0  0  0  0  0  0  0  0  0  0  0
   12.9691   -1.9992   25.0861 C   0  0  0  0  0  0  0  0  0  0  0  0
   14.2890   -1.9075   24.7072 C   0  0  0  0  0  0  0  0  0  0  0  0
   14.6765   -1.7037   23.4476 N   0  0  0  0  0  0  0  0  0  0  0  0
   13.7222   -1.5829   22.5199 C   0  0  0  0  0  0  0  0  0  0  0  0
    9.3204   -0.9912   20.6129 N   0  0  0  0  0  0  0  0  0  0  0  0
    7.9777   -0.6032   20.3850 C   0  0  0  0  0  0  0  0  0  0  0  0
    6.9424   -0.9657   21.2425 C   0  0  0  0  0  0  0  0  0  0  0  0
    5.6629   -0.6319   21.0474 N   0  0  0  0  0  0  0  0  0  0  0  0
    5.3684    0.0855   19.9601 C   0  0  0  0  0  0  0  0  0  0  0  0
    6.3228    0.4930   19.0337 C   0  0  0  0  0  0  0  0  0  0  0  0
    7.6501    0.1366   19.2547 C   0  0  0  0  0  0  0  0  0  0  0  0
    5.9524    1.2643   17.8729 C   0  0  0  0  0  0  0  0  0  0  0  0
    5.6773    1.8550   16.9346 N   0  0  0  0  0  0  0  0  0  0  0  0
  1  2  3  0
  2  3  1  0
  3  4  2  0
  4  5  1  0
  5  6  1  0
  6  7  2  0
  7  8  1  0
  8  9  2  0
  9 10  1  0
 10 11  2  0
  4 12  1  0
 12 13  1  0
 13 14  2  0
 14 15  1  0
 15 16  2  0
 16 17  1  0
 17 18  2  0
 17 19  1  0
 19 20  3  0
 11  6  1  0
 18 13  1  0
M  END
