CVD-0001993|dock_bobby27042020.65|mol2|16|dock2
     RDKit          3D

 20 22  0  0  0  0  0  0  0  0999 V2000
   14.1291   -2.4905   23.3919 C   0  0  0  0  0  0  0  0  0  0  0  0
   13.1863   -2.2155   22.2232 C   0  0  0  0  0  0  0  0  0  0  0  0
   13.9457   -2.3218   20.9144 C   0  0  0  0  0  0  0  0  0  0  0  0
   14.2859   -3.5493   20.6134 O   0  0  0  0  0  0  0  0  0  0  0  0
   14.2095   -1.3628   20.2229 O   0  0  0  0  0  0  0  0  0  0  0  0
   12.5420   -0.8377   22.3551 C   0  0  0  0  0  0  0  0  0  0  0  0
   13.3248    0.2540   22.7424 C   0  0  0  0  0  0  0  0  0  0  0  0
   12.7976    1.5281   22.8652 C   0  0  0  0  0  0  0  0  0  0  0  0
   11.4461    1.7310   22.6003 C   0  0  0  0  0  0  0  0  0  0  0  0
   10.6492    0.6397   22.2169 C   0  0  0  0  0  0  0  0  0  0  0  0
    9.3545    1.0760   22.0113 N   0  0  0  0  0  0  0  0  0  0  0  0
    9.2980    2.4363   22.2536 C   0  0  0  0  0  0  0  0  0  0  0  0
    8.2201    3.3116   22.1775 C   0  0  0  0  0  0  0  0  0  0  0  0
    8.4173    4.6500   22.4718 C   0  0  0  0  0  0  0  0  0  0  0  0
    9.6719    5.0956   22.8345 C   0  0  0  0  0  0  0  0  0  0  0  0
    9.8955    6.7834   23.1999 Cl  0  0  0  0  0  0  0  0  0  0  0  0
   10.7575    4.2460   22.9171 C   0  0  0  0  0  0  0  0  0  0  0  0
   10.5766    2.8958   22.6243 C   0  0  0  0  0  0  0  0  0  0  0  0
   11.1716   -0.6486   22.0899 C   0  0  0  0  0  0  0  0  0  0  0  0
   10.2666   -1.7884   21.6852 C   0  0  0  0  0  0  0  0  0  0  0  0
  2  1  1  0
  2  3  1  0
  3  4  1  0
  3  5  2  0
  2  6  1  0
  6  7  2  0
  7  8  1  0
  8  9  2  0
  9 10  1  0
 10 11  1  0
 11 12  1  0
 12 13  2  0
 13 14  1  0
 14 15  2  0
 15 16  1  0
 15 17  1  0
 17 18  2  0
 10 19  2  0
 19 20  1  0
 19  6  1  0
 18  9  1  0
 18 12  1  0
M  END
