CVD-0003268|dock_bobby27042020.88|mol2|29|dock3
     RDKit          3D

 46 48  0  0  0  0  0  0  0  0999 V2000
   13.9315   -1.9574   20.2813 C   0  0  0  0  0  0  0  0  0  0  0  0
   13.4951   -2.1819   21.6993 C   0  0  0  0  0  0  0  0  0  0  0  0
   13.7480   -3.2221   22.2993 O   0  0  0  0  0  0  0  0  0  0  0  0
   12.8003   -1.1885   22.2642 N   0  0  0  0  0  0  0  0  0  0  0  0
   12.3033   -1.2816   23.6271 C   0  0  0  0  0  0  0  0  0  0  0  0
   13.4344   -1.0168   24.6187 C   0  0  0  0  0  0  0  0  0  0  0  0
   13.8202    0.3525   24.6160 O   0  0  0  0  0  0  0  0  0  0  0  0
   11.1674   -0.2896   23.8609 C   0  0  0  0  0  0  0  0  0  0  0  0
   11.0579    0.2875   24.9395 O   0  0  0  0  0  0  0  0  0  0  0  0
   10.3232   -0.0955   22.8438 N   0  0  0  0  0  0  0  0  0  0  0  0
    9.2022    0.8246   22.9472 C   0  0  0  0  0  0  0  0  0  0  0  0
    9.2628    1.8754   21.8299 C   0  0  0  0  0  0  0  0  0  0  0  0
    9.6803    3.2499   22.2647 C   0  0  0  0  0  0  0  0  0  0  0  0
    8.8815    4.3235   22.5319 C   0  0  0  0  0  0  0  0  0  0  0  0
    9.6366    5.4031   22.9000 N   0  0  0  0  0  0  0  0  0  0  0  0
   10.9621    5.0456   22.8785 C   0  0  0  0  0  0  0  0  0  0  0  0
   12.1087    5.7772   23.1685 C   0  0  0  0  0  0  0  0  0  0  0  0
   13.3390    5.1497   23.0608 C   0  0  0  0  0  0  0  0  0  0  0  0
   13.4237    3.8275   22.6741 C   0  0  0  0  0  0  0  0  0  0  0  0
   12.2821    3.0970   22.3848 C   0  0  0  0  0  0  0  0  0  0  0  0
   11.0271    3.6961   22.4826 C   0  0  0  0  0  0  0  0  0  0  0  0
    7.8707    0.0791   22.9065 C   0  0  0  0  0  0  0  0  0  0  0  0
    6.9540    0.4020   23.6572 O   0  0  0  0  0  0  0  0  0  0  0  0
    7.7709   -0.9201   22.0252 N   0  0  0  0  0  0  0  0  0  0  0  0
    6.5335   -1.6627   21.8503 C   0  0  0  0  0  0  0  0  0  0  0  0
    6.1321   -1.6847   20.3676 C   0  0  0  0  0  0  0  0  0  0  0  0
    5.5919   -0.3637   19.8763 C   0  0  0  0  0  0  0  0  0  0  0  0
    6.1435    0.2593   18.7676 C   0  0  0  0  0  0  0  0  0  0  0  0
    5.6459    1.4698   18.3146 C   0  0  0  0  0  0  0  0  0  0  0  0
    4.5897    2.0709   18.9649 C   0  0  0  0  0  0  0  0  0  0  0  0
    4.0312    1.4614   20.0678 C   0  0  0  0  0  0  0  0  0  0  0  0
    4.5292    0.2510   20.5203 C   0  0  0  0  0  0  0  0  0  0  0  0
    6.6820   -3.0919   22.3641 C   0  0  0  0  0  0  0  0  0  0  0  0
    7.7964   -3.5845   22.5184 O   0  0  0  0  0  0  0  0  0  0  0  0
    5.5518   -3.7538   22.6276 N   0  0  0  0  0  0  0  0  0  0  0  0
    5.5657   -5.1118   23.1464 C   0  0  0  0  0  0  0  0  0  0  0  0
    4.1586   -5.7121   23.1046 C   0  0  0  0  0  0  0  0  0  0  0  0
    4.0371   -7.0372   23.8447 C   0  0  0  0  0  0  0  0  0  0  0  0
    2.7340   -7.7468   23.5333 C   0  0  0  0  0  0  0  0  0  0  0  0
    2.6642   -8.1958   22.1499 N   0  0  0  0  0  0  0  0  0  0  0  0
    1.5464   -8.0989   21.4102 C   0  0  0  0  0  0  0  0  0  0  0  0
    1.6253   -8.5495   20.1586 N   0  0  0  0  0  0  0  0  0  0  0  0
    0.5087   -7.6144   21.8821 O   0  0  0  0  0  0  0  0  0  0  0  0
    6.5322   -5.9618   22.3258 C   0  0  0  0  0  0  0  0  0  0  0  0
    7.6834   -6.2710   22.9009 N   0  0  0  0  0  0  0  0  0  0  0  0
    6.2290   -6.3271   21.1879 O   0  0  0  0  0  0  0  0  0  0  0  0
  1  2  1  0
  2  3  2  0
  2  4  1  0
  4  5  1  0
  5  6  1  0
  6  7  1  0
  5  8  1  0
  8  9  2  0
  8 10  1  0
 10 11  1  0
 11 12  1  0
 12 13  1  0
 13 14  2  0
 14 15  1  0
 15 16  1  0
 16 17  2  0
 17 18  1  0
 18 19  2  0
 19 20  1  0
 20 21  2  0
 11 22  1  0
 22 23  2  0
 22 24  1  0
 24 25  1  0
 25 26  1  0
 26 27  1  0
 27 28  2  0
 28 29  1  0
 29 30  2  0
 30 31  1  0
 31 32  2  0
 25 33  1  0
 33 34  2  0
 33 35  1  0
 35 36  1  0
 36 37  1  0
 37 38  1  0
 38 39  1  0
 39 40  1  0
 40 41  1  0
 41 42  1  0
 41 43  2  0
 36 44  1  0
 44 45  1  0
 44 46  2  0
 21 13  1  0
 32 27  1  0
 21 16  1  0
M  END
