CVD-0002216|dock_bobby27042020.21|mol2|10|dock1
     RDKit          3D

 25 26  0  0  0  0  0  0  0  0999 V2000
   13.7202    5.3293   21.7580 C   0  0  0  0  0  0  0  0  0  0  0  0
   12.6032    5.0008   22.6985 C   0  0  0  0  0  0  0  0  0  0  0  0
   11.8128    3.8813   22.2150 N   0  0  0  0  0  0  0  0  0  0  0  0
   12.0680    2.5856   22.5425 C   0  0  0  0  0  0  0  0  0  0  0  0
   11.0278    1.6596   22.5975 C   0  0  0  0  0  0  0  0  0  0  0  0
   11.3175    0.3369   22.9362 C   0  0  0  0  0  0  0  0  0  0  0  0
   10.3297   -0.6844   23.0206 N   0  0  0  0  0  0  0  0  0  0  0  0
   10.3819   -1.9866   22.6460 C   0  0  0  0  0  0  0  0  0  0  0  0
   11.3275   -2.5507   22.1057 O   0  0  0  0  0  0  0  0  0  0  0  0
    9.1120   -2.7592   22.9459 C   0  0  0  0  0  0  0  0  0  0  0  0
    7.9193   -2.1040   22.4544 N   0  0  0  0  0  0  0  0  0  0  0  0
    7.9477   -1.3881   21.3128 C   0  0  0  0  0  0  0  0  0  0  0  0
    8.9777   -1.2679   20.6556 O   0  0  0  0  0  0  0  0  0  0  0  0
    6.7280   -0.8392   21.0010 N   0  0  0  0  0  0  0  0  0  0  0  0
    6.3385   -0.0313   19.9041 C   0  0  0  0  0  0  0  0  0  0  0  0
    5.4212    1.0110   19.9922 C   0  0  0  0  0  0  0  0  0  0  0  0
    5.1120    1.7380   18.8554 C   0  0  0  0  0  0  0  0  0  0  0  0
    5.7234    1.4065   17.6683 C   0  0  0  0  0  0  0  0  0  0  0  0
    6.6055    0.4140   17.5533 N   0  0  0  0  0  0  0  0  0  0  0  0
    6.8973   -0.2816   18.6560 C   0  0  0  0  0  0  0  0  0  0  0  0
   12.6633    0.0094   23.2062 C   0  0  0  0  0  0  0  0  0  0  0  0
   13.6299    1.0191   23.1215 C   0  0  0  0  0  0  0  0  0  0  0  0
   13.3424    2.2817   22.7968 N   0  0  0  0  0  0  0  0  0  0  0  0
   13.0904   -1.3187   23.5662 C   0  0  0  0  0  0  0  0  0  0  0  0
   13.4509   -2.3579   23.8743 N   0  0  0  0  0  0  0  0  0  0  0  0
  1  2  1  0
  2  3  1  0
  3  4  1  0
  4  5  2  0
  5  6  1  0
  6  7  1  0
  7  8  1  0
  8  9  2  0
  8 10  1  0
 10 11  1  0
 11 12  1  0
 12 13  2  0
 12 14  1  0
 14 15  1  0
 15 16  2  0
 16 17  1  0
 17 18  2  0
 18 19  1  0
 19 20  2  0
  6 21  2  0
 21 22  1  0
 22 23  2  0
 21 24  1  0
 24 25  3  0
 23  4  1  0
 20 15  1  0
M  END
