CVD-0002148|dock_bobby27042020.92|mol2|31|dock1
     RDKit          3D

 16 16  0  0  0  0  0  0  0  0999 V2000
   12.7677    5.5365   23.1179 C   0  0  0  0  0  0  0  0  0  0  0  0
   13.0246    4.3926   21.8170 S   0  0  0  0  0  0  0  0  0  0  0  0
   12.3655    4.8923   20.6500 O   0  0  0  0  0  0  0  0  0  0  0  0
   14.4251    4.1119   21.7429 O   0  0  0  0  0  0  0  0  0  0  0  0
   12.2920    3.0249   22.2206 N   0  0  0  0  0  0  0  0  0  0  0  0
   13.0699    1.9345   22.8210 C   0  0  0  0  0  0  0  0  0  0  0  0
   12.1951    0.7107   23.0321 C   0  0  0  0  0  0  0  0  0  0  0  0
   12.9714   -0.5149   23.4680 C   0  0  0  0  0  0  0  0  0  0  0  0
   13.5065   -0.4383   24.7522 C   0  0  0  0  0  0  0  0  0  0  0  0
   14.3075   -1.4374   25.2730 C   0  0  0  0  0  0  0  0  0  0  0  0
   14.5949   -2.5439   24.5098 C   0  0  0  0  0  0  0  0  0  0  0  0
   14.0546   -2.6659   23.2422 C   0  0  0  0  0  0  0  0  0  0  0  0
   13.2126   -1.6851   22.7125 C   0  0  0  0  0  0  0  0  0  0  0  0
   12.6652   -2.0175   21.3621 C   0  0  0  0  0  0  0  0  0  0  0  0
   11.3315   -2.0440   21.1400 N   0  0  0  0  0  0  0  0  0  0  0  0
   13.4222   -2.3082   20.3590 N   0  0  0  0  0  0  0  0  0  0  0  0
  1  2  1  0
  2  3  2  0
  2  4  2  0
  2  5  1  0
  5  6  1  0
  6  7  1  0
  7  8  1  0
  8  9  2  0
  9 10  1  0
 10 11  2  0
 11 12  1  0
 12 13  2  0
 13 14  1  0
 14 15  1  0
 14 16  2  0
 13  8  1  0
M  END
