CVD-0002738|dock_bobby27042020.90|mol2|20|dock1
     RDKit          3D

 21 23  0  0  0  0  0  0  0  0999 V2000
   13.5254   -2.3600   20.4685 Cl  0  0  0  0  0  0  0  0  0  0  0  0
   12.9292   -1.4794   21.8474 C   0  0  0  0  0  0  0  0  0  0  0  0
   13.7994   -1.1478   22.8622 C   0  0  0  0  0  0  0  0  0  0  0  0
   13.3124   -0.4480   23.9529 C   0  0  0  0  0  0  0  0  0  0  0  0
   11.9754   -0.0930   24.0124 C   0  0  0  0  0  0  0  0  0  0  0  0
   11.0983   -0.4271   22.9874 C   0  0  0  0  0  0  0  0  0  0  0  0
   11.5949   -1.1307   21.8962 C   0  0  0  0  0  0  0  0  0  0  0  0
    9.6272   -0.0309   23.0695 C   0  0  0  0  0  0  0  0  0  0  0  0
    9.2922    1.4018   23.5359 C   0  0  0  0  0  0  0  0  0  0  0  0
    8.7031    1.5835   22.1357 C   0  0  0  0  0  0  0  0  0  0  0  0
    9.0447    0.2102   21.7686 O   0  0  0  0  0  0  0  0  0  0  0  0
    8.8479   -1.0523   23.7176 N   0  0  0  0  0  0  0  0  0  0  0  0
    9.3787   -1.3580   25.0563 C   0  0  0  0  0  0  0  0  0  0  0  0
    8.5284   -2.3925   25.7465 C   0  0  0  0  0  0  0  0  0  0  0  0
    8.4321   -3.6093   24.9341 N   0  0  0  0  0  0  0  0  0  0  0  0
    7.9744   -3.3385   23.5726 C   0  0  0  0  0  0  0  0  0  0  0  0
    8.8588   -2.2914   22.9388 C   0  0  0  0  0  0  0  0  0  0  0  0
    8.5884   -4.8859   25.3764 C   0  0  0  0  0  0  0  0  0  0  0  0
    8.4549   -5.8055   24.5705 O   0  0  0  0  0  0  0  0  0  0  0  0
    8.9280   -5.2663   26.7843 C   0  0  0  0  0  0  0  0  0  0  0  0
    9.8383   -6.1285   27.1640 C   0  0  0  0  0  0  0  0  0  0  0  0
  1  2  1  0
  2  3  2  0
  3  4  1  0
  4  5  2  0
  5  6  1  0
  6  7  2  0
  6  8  1  0
  8  9  1  0
  9 10  1  0
 10 11  1  0
  8 12  1  0
 12 13  1  0
 13 14  1  0
 14 15  1  0
 15 16  1  0
 16 17  1  0
 15 18  1  0
 18 19  2  0
 18 20  1  0
 20 21  2  0
  7  2  1  0
 11  8  1  0
 17 12  1  0
M  END
