CVD-0000786|dock_bobby27042020.11|mol2|44|dock2
     RDKit          3D

 31 34  0  0  0  0  0  0  0  0999 V2000
    9.8303   -5.2011   27.0784 C   0  0  0  0  0  0  0  0  0  0  0  0
   10.2775   -5.5648   25.6865 C   0  0  0  0  0  0  0  0  0  0  0  0
    9.6504   -4.7062   24.6054 C   0  0  0  0  0  0  0  0  0  0  0  0
   10.3928   -3.7064   23.9852 C   0  0  0  0  0  0  0  0  0  0  0  0
    9.8462   -2.9266   22.9752 C   0  0  0  0  0  0  0  0  0  0  0  0
   10.4988   -1.9399   22.2758 O   0  0  0  0  0  0  0  0  0  0  0  0
   11.5146   -1.0606   22.8289 C   0  0  0  0  0  0  0  0  0  0  0  0
   11.0225   -0.3881   24.1270 C   0  0  0  0  0  0  0  0  0  0  0  0
   12.0411    0.5987   24.6944 C   0  0  0  0  0  0  0  0  0  0  0  0
   12.4497    1.6337   23.6542 C   0  0  0  0  0  0  0  0  0  0  0  0
   12.9643    0.9656   22.3874 C   0  0  0  0  0  0  0  0  0  0  0  0
   11.9259    0.0117   21.8057 C   0  0  0  0  0  0  0  0  0  0  0  0
    8.5118   -3.1350   22.6177 C   0  0  0  0  0  0  0  0  0  0  0  0
    7.6932   -2.4864   21.6662 N   0  0  0  0  0  0  0  0  0  0  0  0
    6.4360   -3.1055   21.7177 C   0  0  0  0  0  0  0  0  0  0  0  0
    6.4305   -4.0965   22.6469 C   0  0  0  0  0  0  0  0  0  0  0  0
    5.2794   -4.9984   23.0081 C   0  0  0  0  0  0  0  0  0  0  0  0
    5.6848   -6.3876   23.2483 N   0  0  0  0  0  0  0  0  0  0  0  0
    4.5381   -7.1824   23.6724 C   0  0  0  0  0  0  0  0  0  0  0  0
    6.2635   -6.9697   22.0425 C   0  0  0  0  0  0  0  0  0  0  0  0
    7.7406   -4.1319   23.2347 C   0  0  0  0  0  0  0  0  0  0  0  0
    8.3311   -4.9139   24.2236 C   0  0  0  0  0  0  0  0  0  0  0  0
    8.1539   -1.1955   20.6502 S   0  0  0  0  0  0  0  0  0  0  0  0
    8.9474   -1.8094   19.6435 O   0  0  0  0  0  0  0  0  0  0  0  0
    8.6844   -0.2227   21.5406 O   0  0  0  0  0  0  0  0  0  0  0  0
    6.8175   -0.6116   19.9768 N   0  0  0  0  0  0  0  0  0  0  0  0
    7.1595    0.1695   18.7706 C   0  0  0  0  0  0  0  0  0  0  0  0
    5.9594    0.6929   18.1089 C   0  0  0  0  0  0  0  0  0  0  0  0
    5.0324    1.4360   19.0097 C   0  0  0  0  0  0  0  0  0  0  0  0
    4.7269    0.6104   20.2140 C   0  0  0  0  0  0  0  0  0  0  0  0
    5.9608    0.1549   20.8787 C   0  0  0  0  0  0  0  0  0  0  0  0
  1  2  1  0
  2  3  1  0
  3  4  2  0
  4  5  1  0
  5  6  1  0
  6  7  1  0
  7  8  1  0
  8  9  1  0
  9 10  1  0
 10 11  1  0
 11 12  1  0
  5 13  2  0
 13 14  1  0
 14 15  1  0
 15 16  2  0
 16 17  1  0
 17 18  1  0
 18 19  1  0
 18 20  1  0
 16 21  1  0
 21 22  2  0
 14 23  1  0
 23 24  2  0
 23 25  2  0
 23 26  1  0
 26 27  1  0
 27 28  1  0
 28 29  1  0
 29 30  1  0
 30 31  1  0
 22  3  1  0
 31 26  1  0
 12  7  1  0
 21 13  1  0
M  END
