CVD-0000897|dock_bobby27042020.40|mol2|9|dock1
     RDKit          3D

 22 23  0  0  0  0  0  0  0  0999 V2000
   13.0433    5.0267   23.1536 C   0  0  0  0  0  0  0  0  0  0  0  0
   13.3128    3.6248   22.6914 C   0  0  0  0  0  0  0  0  0  0  0  0
   14.0919    3.3738   21.7772 O   0  0  0  0  0  0  0  0  0  0  0  0
   12.6435    2.6442   23.3697 N   0  0  0  0  0  0  0  0  0  0  0  0
   12.7479    1.2855   23.1290 C   0  0  0  0  0  0  0  0  0  0  0  0
   14.2318    0.5384   22.6823 S   0  0  0  0  0  0  0  0  0  0  0  0
   13.4623   -0.9895   22.6061 C   0  0  0  0  0  0  0  0  0  0  0  0
   12.1314   -0.9333   22.9086 C   0  0  0  0  0  0  0  0  0  0  0  0
   11.3022   -2.0989   22.9044 C   0  0  0  0  0  0  0  0  0  0  0  0
   10.6082   -3.0087   22.9157 N   0  0  0  0  0  0  0  0  0  0  0  0
   11.7048    0.3796   23.2140 C   0  0  0  0  0  0  0  0  0  0  0  0
   10.2813    0.7207   23.5785 C   0  0  0  0  0  0  0  0  0  0  0  0
    9.3058   -0.0708   22.8260 N   0  0  0  0  0  0  0  0  0  0  0  0
    7.9459    0.2102   23.2957 C   0  0  0  0  0  0  0  0  0  0  0  0
    6.9429   -0.6426   22.5412 C   0  0  0  0  0  0  0  0  0  0  0  0
    7.0419   -0.3953   21.1011 N   0  0  0  0  0  0  0  0  0  0  0  0
    8.4068   -0.6101   20.6103 C   0  0  0  0  0  0  0  0  0  0  0  0
    9.3901    0.2344   21.4002 C   0  0  0  0  0  0  0  0  0  0  0  0
    5.9780   -0.0420   20.3419 C   0  0  0  0  0  0  0  0  0  0  0  0
    4.8608    0.0840   20.8275 O   0  0  0  0  0  0  0  0  0  0  0  0
    6.1957    0.2061   18.8614 C   0  0  0  0  0  0  0  0  0  0  0  0
    4.6759    0.6517   18.0748 Cl  0  0  0  0  0  0  0  0  0  0  0  0
  1  2  1  0
  2  3  2  0
  2  4  1  0
  4  5  1  0
  5  6  1  0
  6  7  1  0
  7  8  2  0
  8  9  1  0
  9 10  3  0
  8 11  1  0
 11 12  1  0
 12 13  1  0
 13 14  1  0
 14 15  1  0
 15 16  1  0
 16 17  1  0
 17 18  1  0
 16 19  1  0
 19 20  2  0
 19 21  1  0
 21 22  1  0
 11  5  2  0
 18 13  1  0
M  END
