CVD-0001378|dock_bobby27042020.24|mol2|10|dock2
     RDKit          3D

 42 45  0  0  0  0  0  0  0  0999 V2000
    4.1506    7.8172   10.1296 C   0  0  0  0  0  0  0  0  0  0  0  0
    3.5598    8.9433   10.9539 C   0  0  0  0  0  0  0  0  0  0  0  0
    4.6490    9.8089   11.5548 C   0  0  0  0  0  0  0  0  0  0  0  0
    2.6343    9.7856   10.1004 C   0  0  0  0  0  0  0  0  0  0  0  0
    2.7468    8.3633   12.0489 O   0  0  0  0  0  0  0  0  0  0  0  0
    3.2609    7.5669   13.0036 C   0  0  0  0  0  0  0  0  0  0  0  0
    4.4081    7.1815   13.0673 O   0  0  0  0  0  0  0  0  0  0  0  0
    2.2486    7.2733   13.8880 N   0  0  0  0  0  0  0  0  0  0  0  0
    2.3462    6.4656   15.0443 C   0  0  0  0  0  0  0  0  0  0  0  0
    2.1194    6.8000   16.3510 C   0  0  0  0  0  0  0  0  0  0  0  0
    2.2667    5.8509   17.3860 C   0  0  0  0  0  0  0  0  0  0  0  0
    2.6426    4.5578   17.1326 C   0  0  0  0  0  0  0  0  0  0  0  0
    2.8746    4.2151   15.8142 N   0  0  0  0  0  0  0  0  0  0  0  0
    2.7549    5.0746   14.7365 C   0  0  0  0  0  0  0  0  0  0  0  0
    2.9807    4.6892   13.5903 O   0  0  0  0  0  0  0  0  0  0  0  0
    2.8094    3.5324   18.1832 C   0  0  0  0  0  0  0  0  0  0  0  0
    1.8735    3.3376   19.1991 C   0  0  0  0  0  0  0  0  0  0  0  0
    2.0648    2.3608   20.1613 C   0  0  0  0  0  0  0  0  0  0  0  0
    3.1972    1.5679   20.1341 C   0  0  0  0  0  0  0  0  0  0  0  0
    4.1472    1.7412   19.1425 C   0  0  0  0  0  0  0  0  0  0  0  0
    5.3913    0.8863   19.1050 C   0  0  0  0  0  0  0  0  0  0  0  0
    5.0935   -0.5906   18.8541 C   0  0  0  0  0  0  0  0  0  0  0  0
    6.1920   -1.5094   19.3329 C   0  0  0  0  0  0  0  0  0  0  0  0
    6.8806   -2.1621   18.5546 O   0  0  0  0  0  0  0  0  0  0  0  0
    6.3584   -1.5642   20.6562 N   0  0  0  0  0  0  0  0  0  0  0  0
    7.3741   -2.4070   21.2654 C   0  0  0  0  0  0  0  0  0  0  0  0
    7.1637   -3.8610   20.8312 C   0  0  0  0  0  0  0  0  0  0  0  0
    6.7813   -4.8550   21.9388 C   0  0  0  0  0  0  0  0  0  0  0  0
    6.5055   -6.2909   21.4496 C   0  0  0  0  0  0  0  0  0  0  0  0
    5.3043   -6.7711   22.2535 C   0  0  0  0  0  0  0  0  0  0  0  0
    4.7231   -5.5361   22.7445 N   0  0  0  0  0  0  0  0  0  0  0  0
    5.5129   -4.4634   22.6509 C   0  0  0  0  0  0  0  0  0  0  0  0
    5.2289   -3.3360   23.0468 O   0  0  0  0  0  0  0  0  0  0  0  0
    8.7419   -1.8655   20.8611 C   0  0  0  0  0  0  0  0  0  0  0  0
    8.9408   -1.3725   19.7643 O   0  0  0  0  0  0  0  0  0  0  0  0
    9.8802   -1.9628   21.8958 C   0  0  0  0  0  0  0  0  0  0  0  0
    9.6517   -2.0614   23.1005 O   0  0  0  0  0  0  0  0  0  0  0  0
   11.1082   -1.9300   21.3654 N   0  0  0  0  0  0  0  0  0  0  0  0
   12.3279   -2.0087   22.1695 C   0  0  0  0  0  0  0  0  0  0  0  0
   12.5722   -0.4082   22.4566 C   0  0  0  0  0  0  0  0  0  0  0  0
   13.7017   -1.2960   22.0763 C   0  0  0  0  0  0  0  0  0  0  0  0
    3.9412    2.7185   18.1770 C   0  0  0  0  0  0  0  0  0  0  0  0
  1  2  1  0
  2  3  1  0
  2  4  1  0
  2  5  1  0
  5  6  1  0
  6  7  2  0
  6  8  1  0
  8  9  1  0
  9 10  2  0
 10 11  1  0
 11 12  2  0
 12 13  1  0
 13 14  1  0
 14 15  2  0
 12 16  1  0
 16 17  2  0
 17 18  1  0
 18 19  2  0
 19 20  1  0
 20 21  1  0
 21 22  1  0
 22 23  1  0
 23 24  2  0
 23 25  1  0
 25 26  1  0
 26 27  1  0
 28 27  1  0
 28 29  1  0
 29 30  1  0
 30 31  1  0
 31 32  1  0
 32 33  2  0
 26 34  1  0
 34 35  2  0
 34 36  1  0
 36 37  2  0
 36 38  1  0
 38 39  1  0
 39 40  1  0
 40 41  1  0
 20 42  2  0
 14  9  1  0
 42 16  1  0
 32 28  1  0
 41 39  1  0
M  END
