CVD-0001374|dock_bobby27042020.81|mol2|19|dock2
     RDKit          3D

 23 25  0  0  0  0  0  0  0  0999 V2000
    9.3877   -0.5232   22.5672 O   0  0  0  0  0  0  0  0  0  0  0  0
    9.9721   -0.9740   21.5868 C   0  0  0  0  0  0  0  0  0  0  0  0
    9.3830   -1.1793   20.3604 N   0  0  0  0  0  0  0  0  0  0  0  0
    8.0534   -0.9471   19.9267 C   0  0  0  0  0  0  0  0  0  0  0  0
    6.9938   -0.6313   20.7720 C   0  0  0  0  0  0  0  0  0  0  0  0
    5.7353   -0.4258   20.2332 C   0  0  0  0  0  0  0  0  0  0  0  0
    5.5683   -0.5401   18.8724 C   0  0  0  0  0  0  0  0  0  0  0  0
    6.5629   -0.8410   18.0378 N   0  0  0  0  0  0  0  0  0  0  0  0
    7.7734   -1.0374   18.5678 C   0  0  0  0  0  0  0  0  0  0  0  0
   11.2973   -1.3463   21.5716 N   0  0  0  0  0  0  0  0  0  0  0  0
   12.2483   -1.3107   22.6268 C   0  0  0  0  0  0  0  0  0  0  0  0
   13.2018   -2.3198   22.7836 C   0  0  0  0  0  0  0  0  0  0  0  0
   14.0622   -2.3085   23.8667 C   0  0  0  0  0  0  0  0  0  0  0  0
   13.9838   -1.3108   24.8085 C   0  0  0  0  0  0  0  0  0  0  0  0
   13.0716   -0.2842   24.6552 C   0  0  0  0  0  0  0  0  0  0  0  0
   12.2158   -0.2363   23.5516 C   0  0  0  0  0  0  0  0  0  0  0  0
   11.3528    0.9585   23.4394 C   0  0  0  0  0  0  0  0  0  0  0  0
   11.6204    2.0346   22.6364 C   0  0  0  0  0  0  0  0  0  0  0  0
   10.7420    3.1299   22.6065 C   0  0  0  0  0  0  0  0  0  0  0  0
    9.6120    3.1496   23.3715 C   0  0  0  0  0  0  0  0  0  0  0  0
    9.2961    2.0460   24.2237 C   0  0  0  0  0  0  0  0  0  0  0  0
    8.2965    1.9678   24.9520 O   0  0  0  0  0  0  0  0  0  0  0  0
   10.2019    1.0030   24.2032 N   0  0  0  0  0  0  0  0  0  0  0  0
  1  2  2  0
  2  3  1  0
  3  4  1  0
  4  5  2  0
  5  6  1  0
  6  7  2  0
  7  8  1  0
  8  9  2  0
  2 10  1  0
 10 11  1  0
 11 12  2  0
 12 13  1  0
 13 14  2  0
 14 15  1  0
 15 16  2  0
 16 17  1  0
 17 18  2  0
 18 19  1  0
 19 20  2  0
 20 21  1  0
 21 22  2  0
 21 23  1  0
  9  4  1  0
 16 11  1  0
 23 17  1  0
M  END
