CVD-0001118|dock_bobby27042020.68|mol2|9|dock2
     RDKit          3D

 28 31  0  0  0  0  0  0  0  0999 V2000
   12.2012    6.3087   26.0979 C   0  0  0  0  0  0  0  0  0  0  0  0
   12.6577    6.4700   24.6777 C   0  0  0  0  0  0  0  0  0  0  0  0
   12.8937    7.5721   24.1928 O   0  0  0  0  0  0  0  0  0  0  0  0
   12.8081    5.3439   23.9776 N   0  0  0  0  0  0  0  0  0  0  0  0
   13.2606    5.3345   22.5938 C   0  0  0  0  0  0  0  0  0  0  0  0
   13.7013    3.9531   22.1525 C   0  0  0  0  0  0  0  0  0  0  0  0
   12.6537    2.9029   22.3797 C   0  0  0  0  0  0  0  0  0  0  0  0
   11.3078    3.0747   22.4236 C   0  0  0  0  0  0  0  0  0  0  0  0
   10.6764    1.8887   22.6567 N   0  0  0  0  0  0  0  0  0  0  0  0
    9.2307    1.7019   22.7376 C   0  0  0  0  0  0  0  0  0  0  0  0
    8.6775    0.8421   21.6141 C   0  0  0  0  0  0  0  0  0  0  0  0
    9.2505    0.7572   20.5322 O   0  0  0  0  0  0  0  0  0  0  0  0
    7.5193    0.1853   21.9198 N   0  0  0  0  0  0  0  0  0  0  0  0
    6.7974   -0.6778   21.0800 C   0  0  0  0  0  0  0  0  0  0  0  0
    6.0399   -0.4225   19.9853 C   0  0  0  0  0  0  0  0  0  0  0  0
    5.5404   -1.6127   19.5134 N   0  0  0  0  0  0  0  0  0  0  0  0
    5.9662   -2.6494   20.2932 C   0  0  0  0  0  0  0  0  0  0  0  0
    5.6902   -3.9567   20.1519 N   0  0  0  0  0  0  0  0  0  0  0  0
    6.2376   -4.7780   21.0604 C   0  0  0  0  0  0  0  0  0  0  0  0
    7.0439   -4.3580   22.0984 C   0  0  0  0  0  0  0  0  0  0  0  0
    7.3208   -3.0065   22.2327 C   0  0  0  0  0  0  0  0  0  0  0  0
    6.7711   -2.1214   21.3095 C   0  0  0  0  0  0  0  0  0  0  0  0
   11.6357    0.8929   22.7535 C   0  0  0  0  0  0  0  0  0  0  0  0
   11.5200   -0.4767   22.9672 C   0  0  0  0  0  0  0  0  0  0  0  0
   12.6767   -1.2375   23.0262 C   0  0  0  0  0  0  0  0  0  0  0  0
   13.9172   -0.6521   22.8766 C   0  0  0  0  0  0  0  0  0  0  0  0
   14.0345    0.7109   22.6602 C   0  0  0  0  0  0  0  0  0  0  0  0
   12.8904    1.5039   22.5924 C   0  0  0  0  0  0  0  0  0  0  0  0
  1  2  1  0
  2  3  2  0
  2  4  1  0
  4  5  1  0
  5  6  1  0
  6  7  1  0
  7  8  2  0
  8  9  1  0
  9 10  1  0
 10 11  1  0
 11 12  2  0
 11 13  1  0
 13 14  1  0
 14 15  2  0
 15 16  1  0
 16 17  1  0
 17 18  2  0
 18 19  1  0
 19 20  2  0
 20 21  1  0
 21 22  2  0
  9 23  1  0
 23 24  2  0
 24 25  1  0
 25 26  2  0
 26 27  1  0
 27 28  2  0
 28  7  1  0
 22 14  1  0
 28 23  1  0
 22 17  1  0
M  END
