CVD-0002563|dock_bobby27042020.34|mol2|2|dock2
     RDKit          3D

 27 29  0  0  0  0  0  0  0  0999 V2000
   11.2298   -1.4695   22.4650 N   0  0  0  0  0  0  0  0  0  0  0  0
   10.1644   -1.5096   21.4382 C   0  0  0  0  0  0  0  0  0  0  0  0
    8.7663   -1.3703   22.0201 C   0  0  0  0  0  0  0  0  0  0  0  0
    8.7783   -2.0082   23.2866 O   0  0  0  0  0  0  0  0  0  0  0  0
    8.6307   -3.4410   23.1911 C   0  0  0  0  0  0  0  0  0  0  0  0
    7.1670   -3.6667   22.7261 C   0  0  0  0  0  0  0  0  0  0  0  0
    7.0202   -3.0413   21.3475 C   0  0  0  0  0  0  0  0  0  0  0  0
    6.1170   -3.5125   20.3866 C   0  0  0  0  0  0  0  0  0  0  0  0
    5.6191   -4.7881   20.4618 O   0  0  0  0  0  0  0  0  0  0  0  0
    5.8379   -2.7709   19.2414 C   0  0  0  0  0  0  0  0  0  0  0  0
    5.0223   -3.2983   18.2919 O   0  0  0  0  0  0  0  0  0  0  0  0
    6.4558   -1.5445   19.0321 C   0  0  0  0  0  0  0  0  0  0  0  0
    7.3494   -1.0702   19.9736 C   0  0  0  0  0  0  0  0  0  0  0  0
    7.6355   -1.8066   21.1243 C   0  0  0  0  0  0  0  0  0  0  0  0
    9.0826   -4.0143   24.5325 C   0  0  0  0  0  0  0  0  0  0  0  0
    9.0482   -5.5477   24.5896 C   0  0  0  0  0  0  0  0  0  0  0  0
    9.6178   -6.0908   25.8953 C   0  0  0  0  0  0  0  0  0  0  0  0
    8.9107   -5.5221   27.1090 C   0  0  0  0  0  0  0  0  0  0  0  0
    8.8897   -4.0012   27.0563 C   0  0  0  0  0  0  0  0  0  0  0  0
    8.3221   -3.4717   25.7483 C   0  0  0  0  0  0  0  0  0  0  0  0
    7.5386   -6.0613   27.1183 N   0  0  0  0  0  0  0  0  0  0  0  0
    6.8925   -6.0361   28.4352 C   0  0  0  0  0  0  0  0  0  0  0  0
    7.0746   -7.3418   29.1810 C   0  0  0  0  0  0  0  0  0  0  0  0
    6.6188   -7.2639   30.8911 S   0  0  0  0  0  0  0  0  0  0  0  0
    7.2531   -6.0580   31.4238 O   0  0  0  0  0  0  0  0  0  0  0  0
    5.1770   -7.1759   30.9373 O   0  0  0  0  0  0  0  0  0  0  0  0
    7.1329   -8.4607   31.5172 O   0  0  0  0  0  0  0  0  0  0  0  0
  1  2  1  0
  2  3  1  0
  3  4  1  0
  4  5  1  0
  5  6  1  0
  6  7  1  0
  7  8  2  0
  8  9  1  0
  8 10  1  0
 10 11  1  0
 10 12  2  0
 12 13  1  0
 13 14  2  0
  5 15  1  0
 15 16  1  0
 16 17  1  0
 17 18  1  0
 18 19  1  0
 19 20  1  0
 18 21  1  0
 21 22  1  0
 22 23  1  0
 23 24  1  0
 24 25  1  0
 24 26  2  0
 24 27  2  0
 14  3  1  0
 20 15  1  0
 14  7  1  0
M  END
