CVD-0001512|dock_bobby27042020.37|mol2|51|dock3
     RDKit          3D

 28 31  0  0  0  0  0  0  0  0999 V2000
   14.6185   -1.7379   24.2922 N   0  0  0  0  0  0  0  0  0  0  0  0
   14.1447   -1.0337   22.9347 S   0  0  0  0  0  0  0  0  0  0  0  0
   14.6075   -1.8481   21.8514 O   0  0  0  0  0  0  0  0  0  0  0  0
   14.5628    0.3345   22.9992 O   0  0  0  0  0  0  0  0  0  0  0  0
   12.3783   -1.0440   22.8854 C   0  0  0  0  0  0  0  0  0  0  0  0
   11.6575   -0.3878   23.8676 C   0  0  0  0  0  0  0  0  0  0  0  0
   10.2750   -0.4090   23.8250 C   0  0  0  0  0  0  0  0  0  0  0  0
    9.5852   -1.0778   22.8183 C   0  0  0  0  0  0  0  0  0  0  0  0
   10.3377   -1.7027   21.8235 C   0  0  0  0  0  0  0  0  0  0  0  0
   11.7211   -1.7003   21.8593 C   0  0  0  0  0  0  0  0  0  0  0  0
    8.0815   -1.0502   22.8813 C   0  0  0  0  0  0  0  0  0  0  0  0
    7.6013   -1.4630   23.9231 O   0  0  0  0  0  0  0  0  0  0  0  0
    7.2637   -0.6201   21.8887 N   0  0  0  0  0  0  0  0  0  0  0  0
    5.8009   -0.6677   22.1339 C   0  0  0  0  0  0  0  0  0  0  0  0
    5.1483    0.6206   21.7573 C   0  0  0  0  0  0  0  0  0  0  0  0
    5.6309    1.7309   22.6817 C   0  0  0  0  0  0  0  0  0  0  0  0
    6.5832    2.6459   22.2551 C   0  0  0  0  0  0  0  0  0  0  0  0
    7.0237    3.6534   23.0971 C   0  0  0  0  0  0  0  0  0  0  0  0
    6.5185    3.7579   24.3753 C   0  0  0  0  0  0  0  0  0  0  0  0
    5.5730    2.8553   24.8127 C   0  0  0  0  0  0  0  0  0  0  0  0
    5.1319    1.8474   23.9716 C   0  0  0  0  0  0  0  0  0  0  0  0
    5.4293    0.9346   20.3100 C   0  0  0  0  0  0  0  0  0  0  0  0
    4.4941    1.5972   19.5140 C   0  0  0  0  0  0  0  0  0  0  0  0
    4.7503    1.8950   18.1871 C   0  0  0  0  0  0  0  0  0  0  0  0
    5.9556    1.5329   17.6286 C   0  0  0  0  0  0  0  0  0  0  0  0
    6.8968    0.8754   18.3999 C   0  0  0  0  0  0  0  0  0  0  0  0
    6.6469    0.5722   19.7346 C   0  0  0  0  0  0  0  0  0  0  0  0
    7.7200   -0.1297   20.5727 C   0  0  0  0  0  0  0  0  0  0  0  0
  1  2  1  0
  2  3  2  0
  2  4  2  0
  2  5  1  0
  5  6  2  0
  6  7  1  0
  7  8  2  0
  8  9  1  0
  9 10  2  0
  8 11  1  0
 11 12  2  0
 11 13  1  0
 13 14  1  0
 14 15  1  0
 15 16  1  0
 16 17  2  0
 17 18  1  0
 18 19  2  0
 19 20  1  0
 20 21  2  0
 15 22  1  0
 22 23  2  0
 23 24  1  0
 24 25  2  0
 25 26  1  0
 26 27  2  0
 27 28  1  0
 10  5  1  0
 28 13  1  0
 21 16  1  0
 27 22  1  0
M  END
