CVD-0002412|dock_bobby27042020.20|mol2|14|dock3
     RDKit          3D

 26 29  0  0  0  0  0  0  0  0999 V2000
    6.6995   -6.6234   23.0746 F   0  0  0  0  0  0  0  0  0  0  0  0
    7.2528   -5.4175   22.8104 C   0  0  0  0  0  0  0  0  0  0  0  0
    6.6276   -4.5721   21.9335 C   0  0  0  0  0  0  0  0  0  0  0  0
    7.1904   -3.3261   21.6597 C   0  0  0  0  0  0  0  0  0  0  0  0
    8.3806   -2.9419   22.2931 C   0  0  0  0  0  0  0  0  0  0  0  0
    9.0067   -3.8282   23.1699 C   0  0  0  0  0  0  0  0  0  0  0  0
    8.4351   -5.0603   23.4260 C   0  0  0  0  0  0  0  0  0  0  0  0
    9.2169   -6.1486   24.5252 Cl  0  0  0  0  0  0  0  0  0  0  0  0
    8.8998   -1.6552   22.0031 N   0  0  0  0  0  0  0  0  0  0  0  0
   10.1114   -1.2304   22.6635 C   0  0  0  0  0  0  0  0  0  0  0  0
   11.3478   -1.5172   22.0986 C   0  0  0  0  0  0  0  0  0  0  0  0
   12.5111   -1.1080   22.7288 C   0  0  0  0  0  0  0  0  0  0  0  0
   12.4513   -0.4140   23.9180 C   0  0  0  0  0  0  0  0  0  0  0  0
   11.2281   -0.1251   24.4832 C   0  0  0  0  0  0  0  0  0  0  0  0
   10.0579   -0.5291   23.8622 C   0  0  0  0  0  0  0  0  0  0  0  0
    8.2906   -0.7771   21.1290 C   0  0  0  0  0  0  0  0  0  0  0  0
    8.9354    0.7501   20.8801 S   0  0  0  0  0  0  0  0  0  0  0  0
    7.1145   -1.1974   20.4836 N   0  0  0  0  0  0  0  0  0  0  0  0
    6.4595   -0.3121   19.5419 C   0  0  0  0  0  0  0  0  0  0  0  0
    5.2036    0.2225   19.7977 C   0  0  0  0  0  0  0  0  0  0  0  0
    4.6213    1.0659   18.8681 C   0  0  0  0  0  0  0  0  0  0  0  0
    5.3127    1.3488   17.7130 C   0  0  0  0  0  0  0  0  0  0  0  0
    6.5196    0.8500   17.4436 N   0  0  0  0  0  0  0  0  0  0  0  0
    7.0726    0.0367   18.3486 C   0  0  0  0  0  0  0  0  0  0  0  0
    6.5105   -2.4503   20.7001 C   0  0  0  0  0  0  0  0  0  0  0  0
    5.4934   -2.7928   20.1213 O   0  0  0  0  0  0  0  0  0  0  0  0
  1  2  1  0
  2  3  2  0
  3  4  1  0
  4  5  2  0
  5  6  1  0
  6  7  2  0
  7  8  1  0
  5  9  1  0
  9 10  1  0
 10 11  2  0
 11 12  1  0
 12 13  2  0
 13 14  1  0
 14 15  2  0
  9 16  1  0
 16 17  2  0
 16 18  1  0
 18 19  1  0
 19 20  2  0
 20 21  1  0
 21 22  2  0
 22 23  1  0
 23 24  2  0
 18 25  1  0
 25 26  2  0
  7  2  1  0
 15 10  1  0
 24 19  1  0
 25  4  1  0
M  END
