CVD-0000126|dock_bobby27042020.42|mol2|35|dock1
     RDKit          3D

 33 34  0  0  0  0  0  0  0  0999 V2000
    8.2599   -1.4817   28.3104 C   0  0  0  0  0  0  0  0  0  0  0  0
    7.6454   -1.9002   27.0688 O   0  0  0  0  0  0  0  0  0  0  0  0
    7.6262   -3.2121   26.8446 C   0  0  0  0  0  0  0  0  0  0  0  0
    7.9021   -4.0200   27.7159 O   0  0  0  0  0  0  0  0  0  0  0  0
    7.2585   -3.6535   25.4521 C   0  0  0  0  0  0  0  0  0  0  0  0
    6.3988   -4.7539   25.3942 C   0  0  0  0  0  0  0  0  0  0  0  0
    6.0105   -5.3159   24.1940 C   0  0  0  0  0  0  0  0  0  0  0  0
    6.4929   -4.7760   23.0182 C   0  0  0  0  0  0  0  0  0  0  0  0
    7.3311   -3.6743   23.0436 C   0  0  0  0  0  0  0  0  0  0  0  0
    7.7020   -3.0658   24.2441 C   0  0  0  0  0  0  0  0  0  0  0  0
    8.5519   -1.8095   24.1598 C   0  0  0  0  0  0  0  0  0  0  0  0
    9.6989   -1.8180   23.1555 C   0  0  0  0  0  0  0  0  0  0  0  0
   10.7688   -0.7785   23.4447 C   0  0  0  0  0  0  0  0  0  0  0  0
   11.8033   -0.6419   22.3408 C   0  0  0  0  0  0  0  0  0  0  0  0
   12.8828    0.3851   22.6360 C   0  0  0  0  0  0  0  0  0  0  0  0
   12.3612    1.8109   22.7030 C   0  0  0  0  0  0  0  0  0  0  0  0
   13.4636    2.8394   22.8091 C   0  0  0  0  0  0  0  0  0  0  0  0
   12.9570    4.4877   22.4536 S   0  0  0  0  0  0  0  0  0  0  0  0
   12.2530    4.4028   21.2064 O   0  0  0  0  0  0  0  0  0  0  0  0
   14.1563    5.2604   22.6066 O   0  0  0  0  0  0  0  0  0  0  0  0
   11.9210    4.9398   23.5693 N   0  0  0  0  0  0  0  0  0  0  0  0
   10.6605    5.4055   22.9681 C   0  0  0  0  0  0  0  0  0  0  0  0
    9.6668    5.7863   24.0346 C   0  0  0  0  0  0  0  0  0  0  0  0
   10.2279    6.8076   24.9244 N   0  0  0  0  0  0  0  0  0  0  0  0
   11.5170    6.4116   25.4881 C   0  0  0  0  0  0  0  0  0  0  0  0
   12.4642    6.0355   24.3738 C   0  0  0  0  0  0  0  0  0  0  0  0
    9.6045    7.9438   25.3386 C   0  0  0  0  0  0  0  0  0  0  0  0
    8.2125    8.2426   24.8627 C   0  0  0  0  0  0  0  0  0  0  0  0
   10.1784    8.7285   26.0854 O   0  0  0  0  0  0  0  0  0  0  0  0
    6.0485   -5.4969   21.4672 S   0  0  0  0  0  0  0  0  0  0  0  0
    4.7158   -6.3601   21.6723 N   0  0  0  0  0  0  0  0  0  0  0  0
    7.0919   -6.4086   21.1048 O   0  0  0  0  0  0  0  0  0  0  0  0
    5.7254   -4.4250   20.5741 O   0  0  0  0  0  0  0  0  0  0  0  0
  1  2  1  0
  2  3  1  0
  3  4  2  0
  3  5  1  0
  5  6  2  0
  6  7  1  0
  7  8  2  0
  8  9  1  0
  9 10  2  0
 10 11  1  0
 11 12  1  0
 12 13  1  0
 13 14  1  0
 14 15  1  0
 15 16  1  0
 16 17  1  0
 17 18  1  0
 18 19  1  0
 18 20  1  0
 18 21  1  0
 21 22  1  0
 22 23  1  0
 23 24  1  0
 24 25  1  0
 25 26  1  0
 24 27  1  0
 27 28  1  0
 27 29  2  0
  8 30  1  0
 30 31  1  0
 30 32  2  0
 30 33  2  0
 10  5  1  0
 26 21  1  0
M  END
