CVD-0000788|dock_bobby27042020.83|mol2|20|dock3
     RDKit          3D

 30 33  0  0  0  0  0  0  0  0999 V2000
   13.6655   -1.8759   22.3827 C   0  0  0  0  0  0  0  0  0  0  0  0
   13.0427   -1.1886   23.5700 C   0  0  0  0  0  0  0  0  0  0  0  0
   12.0866   -0.0743   23.1916 C   0  0  0  0  0  0  0  0  0  0  0  0
   10.7433   -0.3370   22.9666 C   0  0  0  0  0  0  0  0  0  0  0  0
    9.8373    0.6764   22.6806 C   0  0  0  0  0  0  0  0  0  0  0  0
    8.5256    0.4595   22.3284 O   0  0  0  0  0  0  0  0  0  0  0  0
    7.9752    0.3516   20.9861 C   0  0  0  0  0  0  0  0  0  0  0  0
    6.4340    0.4103   21.0092 C   0  0  0  0  0  0  0  0  0  0  0  0
    5.8227    0.2268   19.6215 C   0  0  0  0  0  0  0  0  0  0  0  0
    6.3187   -1.0533   18.9617 C   0  0  0  0  0  0  0  0  0  0  0  0
    7.8394   -1.0921   18.9125 C   0  0  0  0  0  0  0  0  0  0  0  0
    8.4405   -0.9478   20.3068 C   0  0  0  0  0  0  0  0  0  0  0  0
   10.2625    2.0178   22.7097 C   0  0  0  0  0  0  0  0  0  0  0  0
    9.6517    3.2892   22.6666 N   0  0  0  0  0  0  0  0  0  0  0  0
   10.6466    4.2147   22.4095 C   0  0  0  0  0  0  0  0  0  0  0  0
   11.8708    3.6425   22.4545 C   0  0  0  0  0  0  0  0  0  0  0  0
   13.2100    4.3021   22.2482 C   0  0  0  0  0  0  0  0  0  0  0  0
   13.1519    5.7680   22.2315 N   0  0  0  0  0  0  0  0  0  0  0  0
   14.4192    6.3300   21.7763 C   0  0  0  0  0  0  0  0  0  0  0  0
   12.8576    6.2731   23.5676 C   0  0  0  0  0  0  0  0  0  0  0  0
   11.6516    2.2601   22.7569 C   0  0  0  0  0  0  0  0  0  0  0  0
   12.5362    1.2263   23.0460 C   0  0  0  0  0  0  0  0  0  0  0  0
    8.3294    3.7320   22.8265 C   0  0  0  0  0  0  0  0  0  0  0  0
    7.4437    2.8959   22.8737 O   0  0  0  0  0  0  0  0  0  0  0  0
    7.9270    5.1727   22.9057 C   0  0  0  0  0  0  0  0  0  0  0  0
    6.9459    5.7009   22.0733 C   0  0  0  0  0  0  0  0  0  0  0  0
    6.5517    7.0219   22.2048 C   0  0  0  0  0  0  0  0  0  0  0  0
    7.1408    7.8333   23.1506 C   0  0  0  0  0  0  0  0  0  0  0  0
    8.1243    7.3254   23.9717 C   0  0  0  0  0  0  0  0  0  0  0  0
    8.5151    6.0022   23.8542 C   0  0  0  0  0  0  0  0  0  0  0  0
  1  2  1  0
  2  3  1  0
  3  4  2  0
  4  5  1  0
  5  6  1  0
  6  7  1  0
  7  8  1  0
  8  9  1  0
  9 10  1  0
 10 11  1  0
 11 12  1  0
  5 13  2  0
 13 14  1  0
 14 15  1  0
 15 16  2  0
 16 17  1  0
 17 18  1  0
 18 19  1  0
 18 20  1  0
 16 21  1  0
 21 22  2  0
 14 23  1  0
 23 24  2  0
 23 25  1  0
 25 26  2  0
 26 27  1  0
 27 28  2  0
 28 29  1  0
 29 30  2  0
 22  3  1  0
 30 25  1  0
 12  7  1  0
 21 13  1  0
M  END
