CVD-0003876|dock_bobby27042020.44|mol2|4|dock3
     RDKit          3D

 25 27  0  0  0  0  0  0  0  0999 V2000
   13.6689    5.7338   21.5742 N   0  0  0  0  0  0  0  0  0  0  0  0
   13.5622    5.0695   23.0268 S   0  0  0  0  0  0  0  0  0  0  0  0
   12.7104    5.9090   23.8149 O   0  0  0  0  0  0  0  0  0  0  0  0
   14.8986    4.8215   23.4782 O   0  0  0  0  0  0  0  0  0  0  0  0
   12.7594    3.5031   22.8686 C   0  0  0  0  0  0  0  0  0  0  0  0
   11.3812    3.4225   22.9503 C   0  0  0  0  0  0  0  0  0  0  0  0
   10.7591    2.1933   22.8232 C   0  0  0  0  0  0  0  0  0  0  0  0
   11.4913    1.0256   22.6286 C   0  0  0  0  0  0  0  0  0  0  0  0
   12.8776    1.1340   22.5602 C   0  0  0  0  0  0  0  0  0  0  0  0
   13.5111    2.3590   22.6716 C   0  0  0  0  0  0  0  0  0  0  0  0
   10.8544   -0.2054   22.5069 N   0  0  0  0  0  0  0  0  0  0  0  0
   11.3670   -1.4310   23.1266 C   0  0  0  0  0  0  0  0  0  0  0  0
   10.2835   -2.2115   23.8153 C   0  0  0  0  0  0  0  0  0  0  0  0
    9.1428   -2.5418   22.8464 C   0  0  0  0  0  0  0  0  0  0  0  0
    8.0414   -3.3328   23.5270 C   0  0  0  0  0  0  0  0  0  0  0  0
    8.4515   -4.6741   23.8957 N   0  0  0  0  0  0  0  0  0  0  0  0
    8.3579   -5.1576   25.1875 C   0  0  0  0  0  0  0  0  0  0  0  0
    9.4875   -5.5389   25.9050 C   0  0  0  0  0  0  0  0  0  0  0  0
    9.3711   -6.0209   27.1969 C   0  0  0  0  0  0  0  0  0  0  0  0
    8.1238   -6.1130   27.7504 C   0  0  0  0  0  0  0  0  0  0  0  0
    8.0080   -6.5867   29.0203 F   0  0  0  0  0  0  0  0  0  0  0  0
    6.9880   -5.7488   27.0812 C   0  0  0  0  0  0  0  0  0  0  0  0
    7.1101   -5.2679   25.7899 C   0  0  0  0  0  0  0  0  0  0  0  0
    8.6413   -1.2583   22.2341 C   0  0  0  0  0  0  0  0  0  0  0  0
    9.7368   -0.4541   21.5670 C   0  0  0  0  0  0  0  0  0  0  0  0
  1  2  1  0
  2  3  2  0
  2  4  2  0
  2  5  1  0
  5  6  2  0
  6  7  1  0
  7  8  2  0
  8  9  1  0
  9 10  2  0
  8 11  1  0
 11 12  1  0
 12 13  1  0
 13 14  1  0
 14 15  1  0
 15 16  1  0
 16 17  1  0
 17 18  2  0
 18 19  1  0
 19 20  2  0
 20 21  1  0
 20 22  1  0
 22 23  2  0
 14 24  1  0
 24 25  1  0
 10  5  1  0
 25 11  1  0
 23 17  1  0
M  END
