CVD-0003006|dock_bobby27042020.46|mol2|36|dock2
     RDKit          3D

 19 21  0  0  0  0  0  0  0  0999 V2000
    4.0104    1.5516   19.8124 Cl  0  0  0  0  0  0  0  0  0  0  0  0
    5.5155    0.8486   19.2901 C   0  0  0  0  0  0  0  0  0  0  0  0
    5.6893    0.4807   17.9741 C   0  0  0  0  0  0  0  0  0  0  0  0
    6.8300   -0.0589   17.5360 N   0  0  0  0  0  0  0  0  0  0  0  0
    7.8190   -0.2450   18.4150 C   0  0  0  0  0  0  0  0  0  0  0  0
    7.7139    0.0929   19.7472 C   0  0  0  0  0  0  0  0  0  0  0  0
    8.8080   -0.1384   20.6099 O   0  0  0  0  0  0  0  0  0  0  0  0
    9.3606    0.8233   21.3977 C   0  0  0  0  0  0  0  0  0  0  0  0
    8.9955    1.9736   21.4847 O   0  0  0  0  0  0  0  0  0  0  0  0
   10.4964    0.2838   22.1733 C   0  0  0  0  0  0  0  0  0  0  0  0
   10.9670    0.6204   23.4169 C   0  0  0  0  0  0  0  0  0  0  0  0
   12.0944   -0.2220   23.6814 C   0  0  0  0  0  0  0  0  0  0  0  0
   12.9873   -0.3646   24.7547 C   0  0  0  0  0  0  0  0  0  0  0  0
   14.0034   -1.3038   24.6969 C   0  0  0  0  0  0  0  0  0  0  0  0
   14.1486   -2.1085   23.5847 C   0  0  0  0  0  0  0  0  0  0  0  0
   13.2841   -1.9942   22.5066 C   0  0  0  0  0  0  0  0  0  0  0  0
   12.2617   -1.0515   22.5609 C   0  0  0  0  0  0  0  0  0  0  0  0
   11.2745   -0.7270   21.6490 N   0  0  0  0  0  0  0  0  0  0  0  0
    6.5340    0.6621   20.2012 C   0  0  0  0  0  0  0  0  0  0  0  0
  1  2  1  0
  2  3  2  0
  3  4  1  0
  4  5  2  0
  5  6  1  0
  6  7  1  0
  7  8  1  0
  8  9  2  0
  8 10  1  0
 10 11  2  0
 11 12  1  0
 12 13  2  0
 13 14  1  0
 14 15  2  0
 15 16  1  0
 16 17  2  0
 17 18  1  0
  6 19  2  0
 19  2  1  0
 18 10  1  0
 17 12  1  0
M  END
