CVD-0002076|dock_bobby27042020.65|mol2|3|dock2
     RDKit          3D

 34 37  0  0  0  0  0  0  0  0999 V2000
   13.6171   -1.2423   22.8107 C   0  0  0  0  0  0  0  0  0  0  0  0
   12.8248   -1.5241   24.0955 C   0  0  0  0  0  0  0  0  0  0  0  0
   13.6981   -2.3304   25.0610 C   0  0  0  0  0  0  0  0  0  0  0  0
   14.7927   -1.6081   25.6093 O   0  0  0  0  0  0  0  0  0  0  0  0
   11.5500   -2.2953   23.7631 C   0  0  0  0  0  0  0  0  0  0  0  0
   10.8135   -1.6180   22.7201 O   0  0  0  0  0  0  0  0  0  0  0  0
    9.6375   -2.1943   22.3660 C   0  0  0  0  0  0  0  0  0  0  0  0
    9.0816   -3.3562   22.7392 C   0  0  0  0  0  0  0  0  0  0  0  0
    7.8752   -3.5039   22.1063 N   0  0  0  0  0  0  0  0  0  0  0  0
    7.6409   -2.4116   21.3021 C   0  0  0  0  0  0  0  0  0  0  0  0
    6.5731   -2.0947   20.4699 C   0  0  0  0  0  0  0  0  0  0  0  0
    6.6032   -0.9034   19.7640 C   0  0  0  0  0  0  0  0  0  0  0  0
    7.6840   -0.0712   19.9055 C   0  0  0  0  0  0  0  0  0  0  0  0
    7.6947    1.0942   19.2037 F   0  0  0  0  0  0  0  0  0  0  0  0
    8.7607   -0.3432   20.7158 C   0  0  0  0  0  0  0  0  0  0  0  0
    8.7367   -1.5396   21.4285 C   0  0  0  0  0  0  0  0  0  0  0  0
   12.4427   -0.1824   24.7633 C   0  0  0  0  0  0  0  0  0  0  0  0
   11.6161    0.7787   23.9435 C   0  0  0  0  0  0  0  0  0  0  0  0
   12.2183    1.7296   23.1349 C   0  0  0  0  0  0  0  0  0  0  0  0
   11.4492    2.6081   22.3906 C   0  0  0  0  0  0  0  0  0  0  0  0
   10.0675    2.5413   22.4506 C   0  0  0  0  0  0  0  0  0  0  0  0
    9.4435    1.5986   23.2521 C   0  0  0  0  0  0  0  0  0  0  0  0
    7.9375    1.5218   23.3262 C   0  0  0  0  0  0  0  0  0  0  0  0
    7.3752    2.3241   24.4213 N   0  0  0  0  0  0  0  0  0  0  0  0
    7.9065    3.6898   24.3814 C   0  0  0  0  0  0  0  0  0  0  0  0
    7.2917    4.5250   25.4890 C   0  0  0  0  0  0  0  0  0  0  0  0
    7.5559    3.9172   26.7949 N   0  0  0  0  0  0  0  0  0  0  0  0
    7.0892    2.5283   26.8471 C   0  0  0  0  0  0  0  0  0  0  0  0
    7.6989    1.7243   25.7132 C   0  0  0  0  0  0  0  0  0  0  0  0
    8.1326    4.5900   27.8115 C   0  0  0  0  0  0  0  0  0  0  0  0
    8.4667    5.7632   27.7042 O   0  0  0  0  0  0  0  0  0  0  0  0
    8.3423    3.8204   29.1008 C   0  0  0  0  0  0  0  0  0  0  0  0
    9.0815    4.8384   30.3436 Cl  0  0  0  0  0  0  0  0  0  0  0  0
   10.2289    0.7254   23.9937 C   0  0  0  0  0  0  0  0  0  0  0  0
  1  2  1  0
  2  3  1  0
  3  4  1  0
  2  5  1  0
  5  6  1  0
  6  7  1  0
  7  8  2  0
  8  9  1  0
  9 10  1  0
 10 11  2  0
 11 12  1  0
 12 13  2  0
 13 14  1  0
 13 15  1  0
 15 16  2  0
  2 17  1  0
 17 18  1  0
 18 19  2  0
 19 20  1  0
 20 21  2  0
 21 22  1  0
 22 23  1  0
 23 24  1  0
 24 25  1  0
 25 26  1  0
 26 27  1  0
 27 28  1  0
 28 29  1  0
 27 30  1  0
 30 31  2  0
 30 32  1  0
 32 33  1  0
 22 34  2  0
 16  7  1  0
 34 18  1  0
 16 10  1  0
 29 24  1  0
M  END
