CVD-0002273|dock_bobby27042020.49|mol2|23|dock1
     RDKit          3D

 40 43  0  0  0  0  0  0  0  0999 V2000
   13.9326    5.1196   21.7369 C   0  0  0  0  0  0  0  0  0  0  0  0
   12.4988    5.0697   21.4397 N   0  0  0  0  0  0  0  0  0  0  0  0
   11.6627    4.6160   22.5562 C   0  0  0  0  0  0  0  0  0  0  0  0
   11.5300    3.1158   22.5790 C   0  0  0  0  0  0  0  0  0  0  0  0
   12.5184    2.2201   23.0256 C   0  0  0  0  0  0  0  0  0  0  0  0
   12.0701    0.9206   22.8861 C   0  0  0  0  0  0  0  0  0  0  0  0
   12.8244   -0.3075   23.2344 C   0  0  0  0  0  0  0  0  0  0  0  0
   12.9030   -1.2995   22.2554 C   0  0  0  0  0  0  0  0  0  0  0  0
   13.6342   -2.4558   22.4693 C   0  0  0  0  0  0  0  0  0  0  0  0
   14.2959   -2.6508   23.6609 C   0  0  0  0  0  0  0  0  0  0  0  0
   14.2049   -1.7040   24.6654 C   0  0  0  0  0  0  0  0  0  0  0  0
   13.4510   -0.5754   24.4449 C   0  0  0  0  0  0  0  0  0  0  0  0
   13.3234    0.2787   25.4846 F   0  0  0  0  0  0  0  0  0  0  0  0
   10.7540    1.0118   22.3597 N   0  0  0  0  0  0  0  0  0  0  0  0
   10.4467    2.3535   22.1655 C   0  0  0  0  0  0  0  0  0  0  0  0
    9.6259   -0.1967   21.9780 S   0  0  0  0  0  0  0  0  0  0  0  0
    9.4450   -0.9800   23.1606 O   0  0  0  0  0  0  0  0  0  0  0  0
   10.1062   -0.7902   20.7695 O   0  0  0  0  0  0  0  0  0  0  0  0
    8.0882    0.6587   21.6902 C   0  0  0  0  0  0  0  0  0  0  0  0
    7.7297    0.8021   20.3567 C   0  0  0  0  0  0  0  0  0  0  0  0
    6.5457    1.4465   20.0450 C   0  0  0  0  0  0  0  0  0  0  0  0
    5.7654    1.9215   21.0717 C   0  0  0  0  0  0  0  0  0  0  0  0
    6.0916    1.8024   22.3639 N   0  0  0  0  0  0  0  0  0  0  0  0
    7.2420    1.1951   22.6752 C   0  0  0  0  0  0  0  0  0  0  0  0
    7.5425    1.1438   24.1642 C   0  0  0  0  0  0  0  0  0  0  0  0
    6.6260    2.0915   24.9337 C   0  0  0  0  0  0  0  0  0  0  0  0
    7.4046   -0.2483   24.6678 N   0  0  0  0  0  0  0  0  0  0  0  0
    8.2642   -0.6524   25.7798 C   0  0  0  0  0  0  0  0  0  0  0  0
    6.4942   -1.0563   24.0745 C   0  0  0  0  0  0  0  0  0  0  0  0
    5.8084   -0.6448   23.1581 O   0  0  0  0  0  0  0  0  0  0  0  0
    6.3250   -2.4850   24.5571 C   0  0  0  0  0  0  0  0  0  0  0  0
    4.8774   -2.9392   24.4166 C   0  0  0  0  0  0  0  0  0  0  0  0
    4.7251   -4.3785   24.8640 C   0  0  0  0  0  0  0  0  0  0  0  0
    5.6149   -5.2386   24.0884 N   0  0  0  0  0  0  0  0  0  0  0  0
    7.0200   -4.8744   24.2349 C   0  0  0  0  0  0  0  0  0  0  0  0
    7.2354   -3.4343   23.7814 C   0  0  0  0  0  0  0  0  0  0  0  0
    5.2753   -6.4156   23.5210 C   0  0  0  0  0  0  0  0  0  0  0  0
    6.0817   -7.0683   22.8703 O   0  0  0  0  0  0  0  0  0  0  0  0
    3.8540   -6.9037   23.7240 C   0  0  0  0  0  0  0  0  0  0  0  0
    2.7132   -5.9555   22.7615 Cl  0  0  0  0  0  0  0  0  0  0  0  0
  1  2  1  0
  2  3  1  0
  3  4  1  0
  4  5  1  0
  5  6  2  0
  6  7  1  0
  7  8  2  0
  8  9  1  0
  9 10  2  0
 10 11  1  0
 11 12  2  0
 12 13  1  0
  6 14  1  0
 14 15  1  0
 14 16  1  0
 16 17  2  0
 16 18  2  0
 16 19  1  0
 19 20  2  0
 20 21  1  0
 21 22  2  0
 22 23  1  0
 23 24  2  0
 24 25  1  0
 25 26  1  0
 25 27  1  0
 27 28  1  0
 27 29  1  0
 29 30  2  0
 29 31  1  0
 31 32  1  0
 32 33  1  0
 33 34  1  0
 34 35  1  0
 35 36  1  0
 34 37  1  0
 37 38  2  0
 37 39  1  0
 39 40  1  0
 15  4  2  0
 24 19  1  0
 36 31  1  0
 12  7  1  0
M  END
