CVD-0001473|dock_bobby27042020.23|mol2|43|dock1
     RDKit          3D

 33 36  0  0  0  0  0  0  0  0999 V2000
    0.2688    3.4694   19.5816 C   0  0  0  0  0  0  0  0  0  0  0  0
    1.1362    2.5325   19.8598 C   0  0  0  0  0  0  0  0  0  0  0  0
    2.5195    2.5541   19.3326 C   0  0  0  0  0  0  0  0  0  0  0  0
    2.8796    3.3414   18.4460 O   0  0  0  0  0  0  0  0  0  0  0  0
    3.3544    1.6630   19.8811 N   0  0  0  0  0  0  0  0  0  0  0  0
    4.7565    1.5457   19.4803 C   0  0  0  0  0  0  0  0  0  0  0  0
    5.6026    0.8094   20.5213 C   0  0  0  0  0  0  0  0  0  0  0  0
    5.5982   -0.3481   19.5957 N   0  0  0  0  0  0  0  0  0  0  0  0
    4.9855    0.4106   18.4798 C   0  0  0  0  0  0  0  0  0  0  0  0
    6.9747   -1.1851   19.3431 S   0  0  0  0  0  0  0  0  0  0  0  0
    6.8494   -1.7494   18.0352 O   0  0  0  0  0  0  0  0  0  0  0  0
    8.0655   -0.3034   19.6190 O   0  0  0  0  0  0  0  0  0  0  0  0
    7.0073   -2.5582   20.4776 C   0  0  0  0  0  0  0  0  0  0  0  0
    6.2442   -3.6398   20.0593 C   0  0  0  0  0  0  0  0  0  0  0  0
    6.2091   -4.7909   20.8266 C   0  0  0  0  0  0  0  0  0  0  0  0
    6.9259   -4.8668   21.9990 C   0  0  0  0  0  0  0  0  0  0  0  0
    7.6736   -3.7849   22.4287 C   0  0  0  0  0  0  0  0  0  0  0  0
    7.7193   -2.6003   21.6919 C   0  0  0  0  0  0  0  0  0  0  0  0
    8.5325   -1.5018   22.2880 C   0  0  0  0  0  0  0  0  0  0  0  0
    9.8067   -1.2205   21.8089 C   0  0  0  0  0  0  0  0  0  0  0  0
   10.5748   -0.2025   22.3466 C   0  0  0  0  0  0  0  0  0  0  0  0
   10.0846    0.5744   23.3943 C   0  0  0  0  0  0  0  0  0  0  0  0
   10.7922    1.6349   24.0000 N   0  0  0  0  0  0  0  0  0  0  0  0
   11.4716    2.7420   23.5126 C   0  0  0  0  0  0  0  0  0  0  0  0
   11.4800    2.9616   22.1356 C   0  0  0  0  0  0  0  0  0  0  0  0
   12.1548    4.0626   21.6398 C   0  0  0  0  0  0  0  0  0  0  0  0
   12.8068    4.9231   22.5147 C   0  0  0  0  0  0  0  0  0  0  0  0
   12.7438    4.6233   23.8716 C   0  0  0  0  0  0  0  0  0  0  0  0
   12.0949    3.5622   24.3638 N   0  0  0  0  0  0  0  0  0  0  0  0
   13.5205    6.0808   22.0351 C   0  0  0  0  0  0  0  0  0  0  0  0
   14.1091    6.9925   21.6783 N   0  0  0  0  0  0  0  0  0  0  0  0
    8.8140    0.2916   23.8818 C   0  0  0  0  0  0  0  0  0  0  0  0
    8.0557   -0.7308   23.3407 C   0  0  0  0  0  0  0  0  0  0  0  0
  1  2  2  0
  2  3  1  0
  3  4  2  0
  3  5  1  0
  5  6  1  0
  6  7  1  0
  7  8  1  0
  8  9  1  0
  8 10  1  0
 10 11  2  0
 10 12  2  0
 10 13  1  0
 13 14  2  0
 14 15  1  0
 15 16  2  0
 16 17  1  0
 17 18  2  0
 18 19  1  0
 19 20  2  0
 20 21  1  0
 21 22  2  0
 22 23  1  0
 23 24  1  0
 24 25  2  0
 25 26  1  0
 26 27  2  0
 27 28  1  0
 28 29  2  0
 27 30  1  0
 30 31  3  0
 22 32  1  0
 32 33  2  0
  9  6  1  0
 18 13  1  0
 33 19  1  0
 29 24  1  0
M  END
