CVD-0001122|dock_bobby27042020.53|mol2|38|dock1
     RDKit          3D

 23 24  0  0  0  0  0  0  0  0999 V2000
   10.7586    6.4079   25.1129 C   0  0  0  0  0  0  0  0  0  0  0  0
   11.3139    6.0428   23.7675 C   0  0  0  0  0  0  0  0  0  0  0  0
   10.7900    6.4213   22.7245 O   0  0  0  0  0  0  0  0  0  0  0  0
   12.4009    5.2688   23.7710 N   0  0  0  0  0  0  0  0  0  0  0  0
   13.0460    4.8159   22.5469 C   0  0  0  0  0  0  0  0  0  0  0  0
   13.3382    3.3290   22.5787 C   0  0  0  0  0  0  0  0  0  0  0  0
   12.1108    2.4860   22.3921 C   0  0  0  0  0  0  0  0  0  0  0  0
   10.8181    2.9133   22.3025 C   0  0  0  0  0  0  0  0  0  0  0  0
    9.9729    1.8501   22.1348 N   0  0  0  0  0  0  0  0  0  0  0  0
   10.7208    0.6989   22.1133 C   0  0  0  0  0  0  0  0  0  0  0  0
   10.3112   -0.6290   21.9664 C   0  0  0  0  0  0  0  0  0  0  0  0
    8.8547   -0.9985   21.7928 C   0  0  0  0  0  0  0  0  0  0  0  0
    8.3333   -0.6754   20.4042 C   0  0  0  0  0  0  0  0  0  0  0  0
    6.9345   -1.0981   20.2651 N   0  0  0  0  0  0  0  0  0  0  0  0
    6.2338   -1.0588   18.8236 S   0  0  0  0  0  0  0  0  0  0  0  0
    5.2236    0.3703   18.7630 C   0  0  0  0  0  0  0  0  0  0  0  0
    5.3846   -2.2066   18.7390 O   0  0  0  0  0  0  0  0  0  0  0  0
    7.2757   -0.9073   17.8553 O   0  0  0  0  0  0  0  0  0  0  0  0
   11.2892   -1.6170   21.9783 C   0  0  0  0  0  0  0  0  0  0  0  0
   12.6061   -1.2517   22.1345 C   0  0  0  0  0  0  0  0  0  0  0  0
   13.5441   -2.2370   22.1437 F   0  0  0  0  0  0  0  0  0  0  0  0
   13.0347    0.0474   22.2820 C   0  0  0  0  0  0  0  0  0  0  0  0
   12.0720    1.0565   22.2719 C   0  0  0  0  0  0  0  0  0  0  0  0
  1  2  1  0
  2  3  2  0
  2  4  1  0
  4  5  1  0
  5  6  1  0
  6  7  1  0
  7  8  2  0
  8  9  1  0
  9 10  1  0
 10 11  2  0
 11 12  1  0
 12 13  1  0
 13 14  1  0
 14 15  1  0
 15 16  1  0
 15 17  2  0
 15 18  2  0
 11 19  1  0
 19 20  2  0
 20 21  1  0
 20 22  1  0
 22 23  2  0
 23  7  1  0
 23 10  1  0
M  END
