CVD-0000323|dock_bobby27042020.70|mol2|30|dock1
     RDKit          3D

 28 31  0  0  0  0  0  0  0  0999 V2000
    7.8169   -1.8555   22.0504 C   0  0  0  0  0  0  0  0  0  0  0  0
    8.0603   -0.4753   22.3143 O   0  0  0  0  0  0  0  0  0  0  0  0
    9.3477   -0.0329   22.4666 C   0  0  0  0  0  0  0  0  0  0  0  0
   10.3980   -0.8089   22.9328 C   0  0  0  0  0  0  0  0  0  0  0  0
   11.6761   -0.2587   23.0857 C   0  0  0  0  0  0  0  0  0  0  0  0
   12.7327   -1.0881   23.6021 N   0  0  0  0  0  0  0  0  0  0  0  0
   13.0292   -2.3961   23.0451 C   0  0  0  0  0  0  0  0  0  0  0  0
   13.6415   -0.5674   24.6102 C   0  0  0  0  0  0  0  0  0  0  0  0
   11.9005    1.1029   22.7255 C   0  0  0  0  0  0  0  0  0  0  0  0
   13.0300    1.9849   22.7094 C   0  0  0  0  0  0  0  0  0  0  0  0
   12.4299    3.4415   22.1507 C   0  0  0  0  0  0  0  0  0  0  0  0
   13.1925    4.9901   21.8644 S   0  0  0  0  0  0  0  0  0  0  0  0
   12.8328    5.9097   23.3601 C   0  0  0  0  0  0  0  0  0  0  0  0
   11.1208    3.1914   21.9355 N   0  0  0  0  0  0  0  0  0  0  0  0
   10.8049    1.8744   22.2450 C   0  0  0  0  0  0  0  0  0  0  0  0
    9.5462    1.3098   22.1122 C   0  0  0  0  0  0  0  0  0  0  0  0
    8.5278    2.1326   21.6261 O   0  0  0  0  0  0  0  0  0  0  0  0
    7.6081    1.6362   20.7472 C   0  0  0  0  0  0  0  0  0  0  0  0
    6.3130    2.1054   20.8812 C   0  0  0  0  0  0  0  0  0  0  0  0
    5.3497    1.6238   20.0033 C   0  0  0  0  0  0  0  0  0  0  0  0
    5.7321    0.7004   19.0395 C   0  0  0  0  0  0  0  0  0  0  0  0
    7.0537    0.3052   19.0004 C   0  0  0  0  0  0  0  0  0  0  0  0
    7.9950    0.7592   19.8384 N   0  0  0  0  0  0  0  0  0  0  0  0
    3.9599    2.0864   20.0996 C   0  0  0  0  0  0  0  0  0  0  0  0
    3.2155    2.4662   21.1747 C   0  0  0  0  0  0  0  0  0  0  0  0
    1.9496    2.8261   20.7863 N   0  0  0  0  0  0  0  0  0  0  0  0
    1.9328    2.6627   19.4770 C   0  0  0  0  0  0  0  0  0  0  0  0
    3.1176    2.2199   19.0192 N   0  0  0  0  0  0  0  0  0  0  0  0
  1  2  1  0
  2  3  1  0
  3  4  2  0
  4  5  1  0
  5  6  1  0
  6  7  1  0
  6  8  1  0
  5  9  2  0
  9 10  1  0
 10 11  2  0
 11 12  1  0
 12 13  1  0
 11 14  1  0
 14 15  1  0
 15 16  2  0
 16 17  1  0
 17 18  1  0
 18 19  2  0
 19 20  1  0
 20 21  2  0
 21 22  1  0
 22 23  2  0
 20 24  1  0
 24 25  2  0
 25 26  1  0
 26 27  2  0
 27 28  1  0
 16  3  1  0
 23 18  1  0
 28 24  1  0
 15  9  1  0
M  END
