CVD-0000230|dock_bobby27042020.56|mol2|38|dock1
     RDKit          3D

 25 27  0  0  0  0  0  0  0  0999 V2000
    7.3269    0.4324   22.4208 O   0  0  0  0  0  0  0  0  0  0  0  0
    7.5465   -0.3180   21.4760 C   0  0  0  0  0  0  0  0  0  0  0  0
    6.4058   -0.9167   20.6774 C   0  0  0  0  0  0  0  0  0  0  0  0
    6.0314   -0.0678   19.4835 C   0  0  0  0  0  0  0  0  0  0  0  0
    5.0023    0.8533   19.5203 C   0  0  0  0  0  0  0  0  0  0  0  0
    4.6558    1.6159   18.4802 N   0  0  0  0  0  0  0  0  0  0  0  0
    5.3749    1.4367   17.3772 C   0  0  0  0  0  0  0  0  0  0  0  0
    6.3858    0.5907   17.2088 N   0  0  0  0  0  0  0  0  0  0  0  0
    6.6963   -0.1505   18.2754 C   0  0  0  0  0  0  0  0  0  0  0  0
    8.7710   -0.7040   21.0415 N   0  0  0  0  0  0  0  0  0  0  0  0
   10.0737   -0.3890   21.5024 C   0  0  0  0  0  0  0  0  0  0  0  0
   11.0356   -1.3918   21.4674 C   0  0  0  0  0  0  0  0  0  0  0  0
   12.3242   -1.1395   21.9057 C   0  0  0  0  0  0  0  0  0  0  0  0
   12.6643    0.1142   22.3822 C   0  0  0  0  0  0  0  0  0  0  0  0
   11.7229    1.1295   22.4258 C   0  0  0  0  0  0  0  0  0  0  0  0
   12.0861    2.4992   22.9461 C   0  0  0  0  0  0  0  0  0  0  0  0
   12.6638    3.4246   21.8830 C   0  0  0  0  0  0  0  0  0  0  0  0
   13.2331    4.7129   22.4632 C   0  0  0  0  0  0  0  0  0  0  0  0
   12.2818    5.4350   23.3865 C   0  0  0  0  0  0  0  0  0  0  0  0
   12.6136    5.6588   24.7138 C   0  0  0  0  0  0  0  0  0  0  0  0
   11.7420    6.3228   25.5607 C   0  0  0  0  0  0  0  0  0  0  0  0
   10.5270    6.7720   25.0901 C   0  0  0  0  0  0  0  0  0  0  0  0
   10.1845    6.5571   23.7726 C   0  0  0  0  0  0  0  0  0  0  0  0
   11.0568    5.8929   22.9264 C   0  0  0  0  0  0  0  0  0  0  0  0
   10.4314    0.8688   21.9849 C   0  0  0  0  0  0  0  0  0  0  0  0
  1  2  2  0
  2  3  1  0
  3  4  1  0
  4  5  2  0
  5  6  1  0
  6  7  2  0
  7  8  1  0
  8  9  2  0
  2 10  1  0
 10 11  1  0
 11 12  2  0
 12 13  1  0
 13 14  2  0
 14 15  1  0
 15 16  1  0
 16 17  1  0
 17 18  1  0
 18 19  1  0
 19 20  2  0
 20 21  1  0
 21 22  2  0
 22 23  1  0
 23 24  2  0
 15 25  2  0
  9  4  1  0
 25 11  1  0
 24 19  1  0
M  END
