CVD-0002881|dock_bobby27042020.4|mol2|13|dock3
     RDKit          3D

 28 30  0  0  0  0  0  0  0  0999 V2000
   10.2329   -5.2387   25.6062 C   0  0  0  0  0  0  0  0  0  0  0  0
   10.0287   -4.1886   24.5414 C   0  0  0  0  0  0  0  0  0  0  0  0
    8.7579   -3.8191   24.1361 C   0  0  0  0  0  0  0  0  0  0  0  0
    8.5510   -2.8620   23.1584 C   0  0  0  0  0  0  0  0  0  0  0  0
    9.6340   -2.2315   22.5448 C   0  0  0  0  0  0  0  0  0  0  0  0
    9.4449   -1.2791   21.5698 N   0  0  0  0  0  0  0  0  0  0  0  0
    8.2816   -0.4147   21.5276 C   0  0  0  0  0  0  0  0  0  0  0  0
    7.3846   -0.6522   20.3369 C   0  0  0  0  0  0  0  0  0  0  0  0
    6.8663    0.4126   19.6161 C   0  0  0  0  0  0  0  0  0  0  0  0
    6.0450    0.1950   18.5224 C   0  0  0  0  0  0  0  0  0  0  0  0
    5.7327   -1.0907   18.1361 C   0  0  0  0  0  0  0  0  0  0  0  0
    6.2420   -2.1584   18.8434 C   0  0  0  0  0  0  0  0  0  0  0  0
    7.0632   -1.9402   19.9369 C   0  0  0  0  0  0  0  0  0  0  0  0
   10.9293   -2.6025   22.9551 C   0  0  0  0  0  0  0  0  0  0  0  0
   11.1082   -3.5688   23.9355 C   0  0  0  0  0  0  0  0  0  0  0  0
   12.4093   -1.8929   22.2672 S   0  0  0  0  0  0  0  0  0  0  0  0
   13.5156   -2.6773   22.7206 O   0  0  0  0  0  0  0  0  0  0  0  0
   12.1996   -1.6977   20.8662 O   0  0  0  0  0  0  0  0  0  0  0  0
   12.5854   -0.4116   22.9246 N   0  0  0  0  0  0  0  0  0  0  0  0
   11.4596    0.1118   23.7114 C   0  0  0  0  0  0  0  0  0  0  0  0
   11.9628    1.1771   24.6340 C   0  0  0  0  0  0  0  0  0  0  0  0
   12.6559    2.2150   23.8887 N   0  0  0  0  0  0  0  0  0  0  0  0
   13.7323    1.7156   23.0273 C   0  0  0  0  0  0  0  0  0  0  0  0
   13.2213    0.6392   22.1160 C   0  0  0  0  0  0  0  0  0  0  0  0
   12.3159    3.5102   24.0496 C   0  0  0  0  0  0  0  0  0  0  0  0
   11.4177    3.8567   24.8064 O   0  0  0  0  0  0  0  0  0  0  0  0
   13.1093    4.5232   23.2476 C   0  0  0  0  0  0  0  0  0  0  0  0
   12.7586    4.3670   21.5214 Cl  0  0  0  0  0  0  0  0  0  0  0  0
  1  2  1  0
  2  3  2  0
  3  4  1  0
  4  5  2  0
  5  6  1  0
  6  7  1  0
  7  8  1  0
  8  9  2  0
  9 10  1  0
 10 11  2  0
 11 12  1  0
 12 13  2  0
  5 14  1  0
 14 15  2  0
 14 16  1  0
 16 17  2  0
 16 18  2  0
 16 19  1  0
 19 20  1  0
 20 21  1  0
 21 22  1  0
 22 23  1  0
 23 24  1  0
 22 25  1  0
 25 26  2  0
 25 27  1  0
 27 28  1  0
 15  2  1  0
 24 19  1  0
 13  8  1  0
M  END
