CVD-0002331|dock_bobby27042020.6|mol2|18|dock3
     RDKit          3D

 29 31  0  0  0  0  0  0  0  0999 V2000
    5.6034   -5.7776   21.8597 C   0  0  0  0  0  0  0  0  0  0  0  0
    6.4114   -4.6008   21.6217 O   0  0  0  0  0  0  0  0  0  0  0  0
    7.1488   -4.1856   22.6500 C   0  0  0  0  0  0  0  0  0  0  0  0
    6.9855   -4.5637   23.7981 O   0  0  0  0  0  0  0  0  0  0  0  0
    8.2069   -3.2024   22.2611 C   0  0  0  0  0  0  0  0  0  0  0  0
    7.9130   -2.1820   21.3646 C   0  0  0  0  0  0  0  0  0  0  0  0
    8.8870   -1.2685   21.0000 C   0  0  0  0  0  0  0  0  0  0  0  0
   10.1653   -1.3611   21.5246 C   0  0  0  0  0  0  0  0  0  0  0  0
   10.4733   -2.3775   22.4233 C   0  0  0  0  0  0  0  0  0  0  0  0
   11.7826   -2.5049   22.9864 N   0  0  0  0  0  0  0  0  0  0  0  0
   13.0043   -1.4970   22.6363 S   0  0  0  0  0  0  0  0  0  0  0  0
   14.1036   -1.8484   23.4810 O   0  0  0  0  0  0  0  0  0  0  0  0
   13.1689   -1.5200   21.2159 O   0  0  0  0  0  0  0  0  0  0  0  0
   12.4798    0.1226   23.0791 C   0  0  0  0  0  0  0  0  0  0  0  0
   11.5583    0.2138   23.8630 O   0  0  0  0  0  0  0  0  0  0  0  0
   13.1550    1.1238   22.4889 N   0  0  0  0  0  0  0  0  0  0  0  0
   13.0230    2.5317   22.5612 C   0  0  0  0  0  0  0  0  0  0  0  0
   14.1034    3.3841   22.3701 C   0  0  0  0  0  0  0  0  0  0  0  0
   13.9176    4.7509   22.4552 C   0  0  0  0  0  0  0  0  0  0  0  0
   12.6679    5.2772   22.7301 C   0  0  0  0  0  0  0  0  0  0  0  0
   11.5733    4.4386   22.9196 C   0  0  0  0  0  0  0  0  0  0  0  0
   11.7643    3.0593   22.8323 C   0  0  0  0  0  0  0  0  0  0  0  0
   10.2578    4.9545   23.2021 N   0  0  0  0  0  0  0  0  0  0  0  0
   10.0460    5.9974   24.2089 C   0  0  0  0  0  0  0  0  0  0  0  0
    8.5627    6.2700   24.1616 C   0  0  0  0  0  0  0  0  0  0  0  0
    7.9467    5.2259   23.2651 C   0  0  0  0  0  0  0  0  0  0  0  0
    9.0917    4.4721   22.6580 C   0  0  0  0  0  0  0  0  0  0  0  0
    9.0574    3.5739   21.8274 O   0  0  0  0  0  0  0  0  0  0  0  0
    9.4916   -3.2931   22.7867 C   0  0  0  0  0  0  0  0  0  0  0  0
  1  2  1  0
  2  3  1  0
  3  4  2  0
  3  5  1  0
  5  6  2  0
  6  7  1  0
  7  8  2  0
  8  9  1  0
  9 10  1  0
 10 11  1  0
 11 12  2  0
 11 13  2  0
 11 14  1  0
 14 15  2  0
 14 16  1  0
 16 17  1  0
 17 18  2  0
 18 19  1  0
 19 20  2  0
 20 21  1  0
 21 22  2  0
 21 23  1  0
 23 24  1  0
 24 25  1  0
 25 26  1  0
 26 27  1  0
 27 28  2  0
  9 29  2  0
 29  5  1  0
 22 17  1  0
 27 23  1  0
M  END
