CVD-0001006|dock_bobby27042020.68|mol2|26|dock3
     RDKit          3D

 36 40  0  0  0  0  0  0  0  0999 V2000
   13.3064    8.7665   25.5730 C   0  0  0  0  0  0  0  0  0  0  0  0
   13.4355    8.2720   24.2415 O   0  0  0  0  0  0  0  0  0  0  0  0
   13.0021    7.0073   23.9304 C   0  0  0  0  0  0  0  0  0  0  0  0
   11.9877    6.4598   24.6921 C   0  0  0  0  0  0  0  0  0  0  0  0
   11.5205    5.1889   24.4139 C   0  0  0  0  0  0  0  0  0  0  0  0
   12.0474    4.4239   23.3700 C   0  0  0  0  0  0  0  0  0  0  0  0
   11.4750    3.0764   23.1584 C   0  0  0  0  0  0  0  0  0  0  0  0
   11.0925    2.5376   22.0362 N   0  0  0  0  0  0  0  0  0  0  0  0
   10.6366    1.2721   22.3892 C   0  0  0  0  0  0  0  0  0  0  0  0
   10.1051    0.2246   21.6414 C   0  0  0  0  0  0  0  0  0  0  0  0
    9.7299   -0.9463   22.2832 C   0  0  0  0  0  0  0  0  0  0  0  0
    9.8762   -1.0943   23.6654 C   0  0  0  0  0  0  0  0  0  0  0  0
    9.5090   -2.2704   24.3669 N   0  0  0  0  0  0  0  0  0  0  0  0
    9.0399   -2.4560   25.6266 C   0  0  0  0  0  0  0  0  0  0  0  0
    8.8356   -1.5635   26.4436 O   0  0  0  0  0  0  0  0  0  0  0  0
    8.7655   -3.9097   25.9608 C   0  0  0  0  0  0  0  0  0  0  0  0
    7.5638   -4.4331   25.2385 C   0  0  0  0  0  0  0  0  0  0  0  0
    7.2175   -5.8632   25.6195 C   0  0  0  0  0  0  0  0  0  0  0  0
    7.1082   -5.9852   27.0648 N   0  0  0  0  0  0  0  0  0  0  0  0
    8.2855   -5.5483   27.8053 C   0  0  0  0  0  0  0  0  0  0  0  0
    8.5901   -4.0934   27.4599 C   0  0  0  0  0  0  0  0  0  0  0  0
    5.8855   -6.7978   27.7735 S   0  0  0  0  0  0  0  0  0  0  0  0
    4.8229   -5.8575   27.9507 O   0  0  0  0  0  0  0  0  0  0  0  0
    5.6724   -7.9741   26.9889 O   0  0  0  0  0  0  0  0  0  0  0  0
    6.4435   -7.2978   29.3656 C   0  0  0  0  0  0  0  0  0  0  0  0
    7.1336   -8.4910   29.5052 C   0  0  0  0  0  0  0  0  0  0  0  0
    7.5728   -8.8736   30.7616 C   0  0  0  0  0  0  0  0  0  0  0  0
    7.3276   -8.0764   31.8593 C   0  0  0  0  0  0  0  0  0  0  0  0
    6.6418   -6.8896   31.7110 C   0  0  0  0  0  0  0  0  0  0  0  0
    6.1943   -6.4896   30.4630 C   0  0  0  0  0  0  0  0  0  0  0  0
   10.4081   -0.0426   24.4077 C   0  0  0  0  0  0  0  0  0  0  0  0
   10.7729    1.1116   23.7436 C   0  0  0  0  0  0  0  0  0  0  0  0
   11.3146    2.2701   24.2613 O   0  0  0  0  0  0  0  0  0  0  0  0
   13.0715    5.0032   22.6174 C   0  0  0  0  0  0  0  0  0  0  0  0
   13.9066    4.1159   21.1637 Br  0  0  0  0  0  0  0  0  0  0  0  0
   13.5473    6.2744   22.8864 C   0  0  0  0  0  0  0  0  0  0  0  0
  1  2  1  0
  2  3  1  0
  3  4  2  0
  4  5  1  0
  5  6  2  0
  6  7  1  0
  7  8  2  0
  8  9  1  0
  9 10  2  0
 10 11  1  0
 11 12  2  0
 12 13  1  0
 13 14  1  0
 14 15  2  0
 14 16  1  0
 16 17  1  0
 17 18  1  0
 18 19  1  0
 19 20  1  0
 20 21  1  0
 19 22  1  0
 22 23  2  0
 22 24  2  0
 22 25  1  0
 25 26  2  0
 26 27  1  0
 27 28  2  0
 28 29  1  0
 29 30  2  0
 12 31  1  0
 31 32  2  0
 32 33  1  0
  6 34  1  0
 34 35  1  0
 34 36  2  0
 36  3  1  0
 33  7  1  0
 32  9  1  0
 21 16  1  0
 30 25  1  0
M  END
