CVD-0002593|dock_bobby27042020.62|mol2|31|dock1
     RDKit          3D

 52 58  0  0  0  0  0  0  0  0999 V2000
   -2.4699   -5.7307   17.8807 Cl  0  0  0  0  0  0  0  0  0  0  0  0
   -1.8877   -5.9499   19.5362 C   0  0  0  0  0  0  0  0  0  0  0  0
   -1.0263   -7.1919   19.6653 C   0  0  0  0  0  0  0  0  0  0  0  0
   -0.7876   -7.8980   18.6936 O   0  0  0  0  0  0  0  0  0  0  0  0
   -0.5448   -7.4840   20.8923 N   0  0  0  0  0  0  0  0  0  0  0  0
    0.2747   -8.6673   21.0958 C   0  0  0  0  0  0  0  0  0  0  0  0
    1.5536   -8.3109   21.7859 C   0  0  0  0  0  0  0  0  0  0  0  0
    1.2422   -7.6146   23.0423 N   0  0  0  0  0  0  0  0  0  0  0  0
    0.4825   -6.3779   22.8070 C   0  0  0  0  0  0  0  0  0  0  0  0
   -0.8045   -6.7185   22.1157 C   0  0  0  0  0  0  0  0  0  0  0  0
    2.3884   -7.6063   24.1872 S   0  0  0  0  0  0  0  0  0  0  0  0
    1.7954   -7.0668   25.3705 O   0  0  0  0  0  0  0  0  0  0  0  0
    2.9562   -8.9174   24.2240 O   0  0  0  0  0  0  0  0  0  0  0  0
    3.6503   -6.5119   23.6988 C   0  0  0  0  0  0  0  0  0  0  0  0
    3.7772   -5.1958   24.0726 C   0  0  0  0  0  0  0  0  0  0  0  0
    4.9023   -4.5902   23.5138 C   0  0  0  0  0  0  0  0  0  0  0  0
    5.6492   -5.4267   22.7121 C   0  0  0  0  0  0  0  0  0  0  0  0
    6.9088   -5.1083   21.9627 C   0  0  0  0  0  0  0  0  0  0  0  0
    6.9481   -3.7247   21.4850 N   0  0  0  0  0  0  0  0  0  0  0  0
    8.2967   -3.3706   21.0616 C   0  0  0  0  0  0  0  0  0  0  0  0
    8.3545   -1.9258   20.6015 C   0  0  0  0  0  0  0  0  0  0  0  0
    7.3936   -1.7526   19.4952 N   0  0  0  0  0  0  0  0  0  0  0  0
    6.0213   -2.1048   19.9059 C   0  0  0  0  0  0  0  0  0  0  0  0
    6.0217   -3.5439   20.3751 C   0  0  0  0  0  0  0  0  0  0  0  0
    7.5667   -0.4437   18.5392 S   0  0  0  0  0  0  0  0  0  0  0  0
    8.9599   -0.1215   18.5363 O   0  0  0  0  0  0  0  0  0  0  0  0
    6.8993   -0.7444   17.3108 O   0  0  0  0  0  0  0  0  0  0  0  0
    6.6977    0.8931   19.3237 C   0  0  0  0  0  0  0  0  0  0  0  0
    5.4612    1.2032   18.8278 C   0  0  0  0  0  0  0  0  0  0  0  0
    4.7203    2.2332   19.3836 C   0  0  0  0  0  0  0  0  0  0  0  0
    5.2029    2.9592   20.4316 C   0  0  0  0  0  0  0  0  0  0  0  0
    6.4780    2.6756   20.9770 C   0  0  0  0  0  0  0  0  0  0  0  0
    7.0164    3.4029   22.0610 C   0  0  0  0  0  0  0  0  0  0  0  0
    8.2505    3.1201   22.5775 C   0  0  0  0  0  0  0  0  0  0  0  0
    8.7426    3.9532   23.7415 C   0  0  0  0  0  0  0  0  0  0  0  0
    9.5671    5.1583   23.2941 C   0  0  0  0  0  0  0  0  0  0  0  0
   10.5694    5.6239   24.3125 C   0  0  0  0  0  0  0  0  0  0  0  0
   11.9286    5.4099   24.3494 C   0  0  0  0  0  0  0  0  0  0  0  0
   12.5574    5.9910   25.4476 C   0  0  0  0  0  0  0  0  0  0  0  0
   11.6804    6.6414   26.2381 C   0  0  0  0  0  0  0  0  0  0  0  0
   12.0356    7.4900   27.6855 Cl  0  0  0  0  0  0  0  0  0  0  0  0
   10.0649    6.5662   25.6702 S   0  0  0  0  0  0  0  0  0  0  0  0
    9.0164    2.0789   22.0300 C   0  0  0  0  0  0  0  0  0  0  0  0
   10.3800    1.7440   22.5919 C   0  0  0  0  0  0  0  0  0  0  0  0
   10.3444    1.0972   23.9468 C   0  0  0  0  0  0  0  0  0  0  0  0
    9.5749   -0.0537   24.2451 C   0  0  0  0  0  0  0  0  0  0  0  0
    9.6882   -0.4866   25.5317 C   0  0  0  0  0  0  0  0  0  0  0  0
   10.7500    0.5271   26.3865 S   0  0  0  0  0  0  0  0  0  0  0  0
   11.0431    1.5187   25.0366 C   0  0  0  0  0  0  0  0  0  0  0  0
    8.5281    1.3513   20.9786 C   0  0  0  0  0  0  0  0  0  0  0  0
    7.2543    1.6216   20.4207 C   0  0  0  0  0  0  0  0  0  0  0  0
    4.9261   -6.9946   22.6629 S   0  0  0  0  0  0  0  0  0  0  0  0
  1  2  1  0
  2  3  1  0
  3  4  2  0
  3  5  1  0
  5  6  1  0
  6  7  1  0
  7  8  1  0
  8  9  1  0
  9 10  1  0
  8 11  1  0
 11 12  2  0
 11 13  2  0
 11 14  1  0
 14 15  2  0
 15 16  1  0
 16 17  2  0
 17 18  1  0
 18 19  1  0
 19 20  1  0
 20 21  1  0
 21 22  1  0
 22 23  1  0
 23 24  1  0
 22 25  1  0
 25 26  2  0
 25 27  2  0
 25 28  1  0
 28 29  2  0
 29 30  1  0
 30 31  2  0
 31 32  1  0
 32 33  2  0
 33 34  1  0
 34 35  1  0
 35 36  1  0
 36 37  1  0
 37 38  2  0
 38 39  1  0
 39 40  2  0
 40 41  1  0
 40 42  1  0
 34 43  2  0
 43 44  1  0
 44 45  1  0
 45 46  1  0
 46 47  2  0
 47 48  1  0
 48 49  1  0
 43 50  1  0
 50 51  2  0
 17 52  1  0
 10  5  1  0
 52 14  1  0
 24 19  1  0
 51 28  1  0
 51 32  1  0
 42 37  1  0
 49 45  2  0
M  END
