CVD-0000318|dock_bobby27042020.56|mol2|25|dock1
     RDKit          3D

 18 18  0  0  0  0  0  0  0  0999 V2000
   13.9287   -1.0660   22.1965 C   0  0  0  0  0  0  0  0  0  0  0  0
   12.5148   -0.7110   22.5348 C   0  0  0  0  0  0  0  0  0  0  0  0
   11.5859   -1.7246   22.0632 N   0  0  0  0  0  0  0  0  0  0  0  0
   10.8989   -2.5273   22.8931 C   0  0  0  0  0  0  0  0  0  0  0  0
   11.6194   -3.4001   23.6254 N   0  0  0  0  0  0  0  0  0  0  0  0
   10.9608   -4.2132   24.4591 C   0  0  0  0  0  0  0  0  0  0  0  0
    9.5792   -4.2054   24.6097 C   0  0  0  0  0  0  0  0  0  0  0  0
    8.8463   -3.3007   23.8504 C   0  0  0  0  0  0  0  0  0  0  0  0
    9.4940   -2.4383   22.9738 C   0  0  0  0  0  0  0  0  0  0  0  0
    8.6671   -1.4670   22.1597 C   0  0  0  0  0  0  0  0  0  0  0  0
    8.0820   -2.1034   20.9117 C   0  0  0  0  0  0  0  0  0  0  0  0
    8.4405   -1.3276   19.7183 N   0  0  0  0  0  0  0  0  0  0  0  0
    7.3133   -0.4803   18.9553 S   0  0  0  0  0  0  0  0  0  0  0  0
    6.1815   -1.6157   18.2505 C   0  0  0  0  0  0  0  0  0  0  0  0
    7.9635    0.2178   17.8896 O   0  0  0  0  0  0  0  0  0  0  0  0
    6.6186    0.2812   19.9470 O   0  0  0  0  0  0  0  0  0  0  0  0
    8.9210   -5.1060   25.5239 C   0  0  0  0  0  0  0  0  0  0  0  0
    8.4294   -5.8321   26.2559 N   0  0  0  0  0  0  0  0  0  0  0  0
  1  2  1  0
  2  3  1  0
  3  4  1  0
  4  5  2  0
  5  6  1  0
  6  7  2  0
  7  8  1  0
  8  9  2  0
  9 10  1  0
 10 11  1  0
 11 12  1  0
 12 13  1  0
 13 14  1  0
 13 15  2  0
 13 16  2  0
  7 17  1  0
 17 18  3  0
  9  4  1  0
M  END
