CVD-0002549|dock_bobby27042020.63|mol2|3|dock2
     RDKit          3D

 32 33  0  0  0  0  0  0  0  0999 V2000
   13.7621   -1.3552   25.1940 C   0  0  0  0  0  0  0  0  0  0  0  0
   13.4577   -0.5255   23.9813 C   0  0  0  0  0  0  0  0  0  0  0  0
   14.0882   -0.6485   22.9357 O   0  0  0  0  0  0  0  0  0  0  0  0
   12.4482    0.3433   24.1024 N   0  0  0  0  0  0  0  0  0  0  0  0
   12.0282    1.1868   22.9950 C   0  0  0  0  0  0  0  0  0  0  0  0
   10.5739    0.8853   22.5915 C   0  0  0  0  0  0  0  0  0  0  0  0
    9.6299    0.3661   23.6569 C   0  0  0  0  0  0  0  0  0  0  0  0
    9.0671    1.1982   24.6248 C   0  0  0  0  0  0  0  0  0  0  0  0
    8.2076    0.7158   25.5956 C   0  0  0  0  0  0  0  0  0  0  0  0
    7.8800   -0.6288   25.6199 C   0  0  0  0  0  0  0  0  0  0  0  0
    7.0314   -1.1116   26.5728 O   0  0  0  0  0  0  0  0  0  0  0  0
    8.4174   -1.4841   24.6711 C   0  0  0  0  0  0  0  0  0  0  0  0
    9.2842   -0.9897   23.7062 C   0  0  0  0  0  0  0  0  0  0  0  0
    9.9312   -2.1476   22.5307 S   0  0  0  0  0  0  0  0  0  0  0  0
    9.3754   -3.4316   22.8313 O   0  0  0  0  0  0  0  0  0  0  0  0
   11.3525   -1.9820   22.5046 O   0  0  0  0  0  0  0  0  0  0  0  0
    9.3868   -1.7399   21.0705 N   0  0  0  0  0  0  0  0  0  0  0  0
    8.0006   -1.2876   20.9000 C   0  0  0  0  0  0  0  0  0  0  0  0
    7.9390    0.2266   20.8099 C   0  0  0  0  0  0  0  0  0  0  0  0
    6.6746    0.7214   20.1501 C   0  0  0  0  0  0  0  0  0  0  0  0
    5.5464    1.0080   20.9032 C   0  0  0  0  0  0  0  0  0  0  0  0
    4.3852    1.4589   20.2980 C   0  0  0  0  0  0  0  0  0  0  0  0
    4.3377    1.6279   18.9311 C   0  0  0  0  0  0  0  0  0  0  0  0
    5.4514    1.3455   18.1699 C   0  0  0  0  0  0  0  0  0  0  0  0
    6.6121    0.8947   18.7761 C   0  0  0  0  0  0  0  0  0  0  0  0
   12.2058    2.6687   23.3169 C   0  0  0  0  0  0  0  0  0  0  0  0
   12.2326    3.0546   24.4826 O   0  0  0  0  0  0  0  0  0  0  0  0
   12.3266    3.4930   22.2767 N   0  0  0  0  0  0  0  0  0  0  0  0
   12.5013    4.9281   22.4569 C   0  0  0  0  0  0  0  0  0  0  0  0
   11.2866    5.5882   22.9498 C   0  0  0  0  0  0  0  0  0  0  0  0
   10.2917    6.1354   23.2917 C   0  0  0  0  0  0  0  0  0  0  0  0
    8.7713    6.9842   23.7517 Br  0  0  0  0  0  0  0  0  0  0  0  0
  1  2  1  0
  2  3  2  0
  2  4  1  0
  4  5  1  0
  5  6  1  0
  6  7  1  0
  7  8  2  0
  8  9  1  0
  9 10  2  0
 10 11  1  0
 10 12  1  0
 12 13  2  0
 13 14  1  0
 14 15  2  0
 14 16  2  0
 14 17  1  0
 17 18  1  0
 18 19  1  0
 19 20  1  0
 20 21  2  0
 21 22  1  0
 22 23  2  0
 23 24  1  0
 24 25  2  0
  5 26  1  0
 26 27  2  0
 26 28  1  0
 28 29  1  0
 29 30  1  0
 30 31  3  0
 31 32  1  0
 13  7  1  0
 25 20  1  0
M  END
