CVD-0002339|dock_bobby27042020.92|mol2|1|dock1
     RDKit          3D

 17 17  0  0  0  0  0  0  0  0999 V2000
    9.1589   -1.7147   21.3500 N   0  0  0  0  0  0  0  0  0  0  0  0
    9.8422   -2.3871   22.4633 C   0  0  0  0  0  0  0  0  0  0  0  0
   11.0835   -1.6359   22.9134 C   0  0  0  0  0  0  0  0  0  0  0  0
   11.2403   -1.3243   24.0899 O   0  0  0  0  0  0  0  0  0  0  0  0
   11.9726   -1.3546   21.9584 N   0  0  0  0  0  0  0  0  0  0  0  0
   13.2062   -0.6456   22.2658 C   0  0  0  0  0  0  0  0  0  0  0  0
   13.7861   -1.2476   23.5522 C   0  0  0  0  0  0  0  0  0  0  0  0
   14.2225   -2.4948   23.4793 N   0  0  0  0  0  0  0  0  0  0  0  0
   13.8293   -0.5766   24.5857 O   0  0  0  0  0  0  0  0  0  0  0  0
   12.9870    0.8468   22.4745 C   0  0  0  0  0  0  0  0  0  0  0  0
   14.0538    1.7309   22.5313 C   0  0  0  0  0  0  0  0  0  0  0  0
   13.8341    3.0831   22.7180 C   0  0  0  0  0  0  0  0  0  0  0  0
   12.5186    3.5180   22.8443 C   0  0  0  0  0  0  0  0  0  0  0  0
   11.4603    2.6870   22.7925 N   0  0  0  0  0  0  0  0  0  0  0  0
   11.7180    1.3865   22.6103 C   0  0  0  0  0  0  0  0  0  0  0  0
   12.2234    4.9235   23.0424 C   0  0  0  0  0  0  0  0  0  0  0  0
   11.9571    6.0212   23.2128 N   0  0  0  0  0  0  0  0  0  0  0  0
  1  2  1  0
  2  3  1  0
  3  4  2  0
  3  5  1  0
  5  6  1  0
  6  7  1  0
  7  8  1  0
  7  9  2  0
  6 10  1  0
 10 11  2  0
 11 12  1  0
 12 13  2  0
 13 14  1  0
 14 15  2  0
 13 16  1  0
 16 17  3  0
 15 10  1  0
M  END
