CVD-0003389|dock_bobby27042020.45|mol2|27|dock3
     RDKit          3D

 20 22  0  0  0  0  0  0  0  0999 V2000
    9.9373    0.7147   23.3692 O   0  0  0  0  0  0  0  0  0  0  0  0
   10.1015    0.0804   22.3324 C   0  0  0  0  0  0  0  0  0  0  0  0
   11.1478   -0.7835   22.1032 N   0  0  0  0  0  0  0  0  0  0  0  0
   12.2408   -1.1563   22.9263 C   0  0  0  0  0  0  0  0  0  0  0  0
   12.5990   -0.4800   24.0909 C   0  0  0  0  0  0  0  0  0  0  0  0
   13.6823   -0.9088   24.8402 C   0  0  0  0  0  0  0  0  0  0  0  0
   14.4173   -2.0050   24.4461 C   0  0  0  0  0  0  0  0  0  0  0  0
   14.0717   -2.6803   23.2968 C   0  0  0  0  0  0  0  0  0  0  0  0
   12.9911   -2.2613   22.5395 C   0  0  0  0  0  0  0  0  0  0  0  0
    9.2602    0.1413   21.2455 N   0  0  0  0  0  0  0  0  0  0  0  0
    8.0798    0.8950   21.0610 C   0  0  0  0  0  0  0  0  0  0  0  0
    7.7152    2.0373   21.7668 C   0  0  0  0  0  0  0  0  0  0  0  0
    6.5756    2.7067   21.5400 N   0  0  0  0  0  0  0  0  0  0  0  0
    5.7438    2.2776   20.6046 C   0  0  0  0  0  0  0  0  0  0  0  0
    5.9998    1.1334   19.8219 C   0  0  0  0  0  0  0  0  0  0  0  0
    5.1164    0.7183   18.8625 N   0  0  0  0  0  0  0  0  0  0  0  0
    5.4579   -0.3664   18.1891 C   0  0  0  0  0  0  0  0  0  0  0  0
    6.6316   -1.0615   18.4183 C   0  0  0  0  0  0  0  0  0  0  0  0
    7.5141   -0.6999   19.3320 N   0  0  0  0  0  0  0  0  0  0  0  0
    7.1993    0.4157   20.0498 C   0  0  0  0  0  0  0  0  0  0  0  0
  1  2  2  0
  2  3  1  0
  3  4  1  0
  4  5  2  0
  5  6  1  0
  6  7  2  0
  7  8  1  0
  8  9  2  0
  2 10  1  0
 10 11  1  0
 11 12  2  0
 12 13  1  0
 13 14  2  0
 14 15  1  0
 15 16  2  0
 16 17  1  0
 17 18  2  0
 18 19  1  0
 19 20  2  0
  9  4  1  0
 20 11  1  0
 20 15  1  0
M  END
