CVD-0000610|dock_bobby27042020.83|mol2|46|dock1
     RDKit          3D

 27 29  0  0  0  0  0  0  0  0999 V2000
    5.0499   -0.8920   17.8409 N   0  0  0  0  0  0  0  0  0  0  0  0
    5.5322    0.6066   18.1317 S   0  0  0  0  0  0  0  0  0  0  0  0
    6.0920    1.1149   16.9153 O   0  0  0  0  0  0  0  0  0  0  0  0
    4.4288    1.2985   18.7274 O   0  0  0  0  0  0  0  0  0  0  0  0
    6.8310    0.5545   19.3290 C   0  0  0  0  0  0  0  0  0  0  0  0
    6.8780    1.5096   20.3313 C   0  0  0  0  0  0  0  0  0  0  0  0
    7.8941    1.4650   21.2694 C   0  0  0  0  0  0  0  0  0  0  0  0
    8.8552    0.4713   21.1987 C   0  0  0  0  0  0  0  0  0  0  0  0
    9.8815    0.4187   22.1642 O   0  0  0  0  0  0  0  0  0  0  0  0
   10.1647   -0.5607   23.2145 C   0  0  0  0  0  0  0  0  0  0  0  0
    8.8949   -0.9798   23.9743 C   0  0  0  0  0  0  0  0  0  0  0  0
    7.8192   -1.6653   23.1552 C   0  0  0  0  0  0  0  0  0  0  0  0
    6.8643   -1.0498   22.6936 O   0  0  0  0  0  0  0  0  0  0  0  0
    8.0379   -2.9938   22.9999 N   0  0  0  0  0  0  0  0  0  0  0  0
    7.3004   -3.9944   22.3190 C   0  0  0  0  0  0  0  0  0  0  0  0
    7.4373   -5.3173   22.7196 C   0  0  0  0  0  0  0  0  0  0  0  0
    6.7255   -6.3083   22.0671 C   0  0  0  0  0  0  0  0  0  0  0  0
    5.8956   -5.9489   21.0309 C   0  0  0  0  0  0  0  0  0  0  0  0
    5.7421   -4.6893   20.6225 N   0  0  0  0  0  0  0  0  0  0  0  0
    6.4336   -3.7386   21.2588 C   0  0  0  0  0  0  0  0  0  0  0  0
   11.0336    0.1840   24.2248 C   0  0  0  0  0  0  0  0  0  0  0  0
   12.3962    0.5018   23.6419 C   0  0  0  0  0  0  0  0  0  0  0  0
   13.1004   -0.7569   23.1590 C   0  0  0  0  0  0  0  0  0  0  0  0
   12.2380   -1.5118   22.1604 C   0  0  0  0  0  0  0  0  0  0  0  0
   10.8619   -1.8255   22.7337 C   0  0  0  0  0  0  0  0  0  0  0  0
    8.8009   -0.4865   20.2008 C   0  0  0  0  0  0  0  0  0  0  0  0
    7.7868   -0.4460   19.2604 C   0  0  0  0  0  0  0  0  0  0  0  0
  1  2  1  0
  2  3  2  0
  2  4  2  0
  2  5  1  0
  5  6  2  0
  6  7  1  0
  7  8  2  0
  8  9  1  0
  9 10  1  0
 10 11  1  0
 11 12  1  0
 12 13  2  0
 12 14  1  0
 14 15  1  0
 15 16  2  0
 16 17  1  0
 17 18  2  0
 18 19  1  0
 19 20  2  0
 10 21  1  0
 21 22  1  0
 22 23  1  0
 23 24  1  0
 24 25  1  0
  8 26  1  0
 26 27  2  0
 27  5  1  0
 25 10  1  0
 20 15  1  0
M  END
