CVD-0000416|dock_bobby27042020.84|mol2|22|dock3
     RDKit          3D

 23 25  0  0  0  0  0  0  0  0999 V2000
    5.6306    1.7131   17.6684 C   0  0  0  0  0  0  0  0  0  0  0  0
    5.4696    0.2331   17.9833 C   0  0  0  0  0  0  0  0  0  0  0  0
    6.5902   -0.3230   18.8285 C   0  0  0  0  0  0  0  0  0  0  0  0
    7.8119   -0.7431   18.3893 C   0  0  0  0  0  0  0  0  0  0  0  0
    8.5685   -1.1942   19.4359 N   0  0  0  0  0  0  0  0  0  0  0  0
    7.8305   -1.0707   20.5865 C   0  0  0  0  0  0  0  0  0  0  0  0
    8.1516   -1.4018   21.9071 C   0  0  0  0  0  0  0  0  0  0  0  0
    9.3968   -1.9456   22.0969 O   0  0  0  0  0  0  0  0  0  0  0  0
   10.4122   -1.2644   22.8753 C   0  0  0  0  0  0  0  0  0  0  0  0
   10.3264    0.2558   22.7579 C   0  0  0  0  0  0  0  0  0  0  0  0
   11.4549    0.9548   23.4888 C   0  0  0  0  0  0  0  0  0  0  0  0
   12.7552    0.4296   23.0604 N   0  0  0  0  0  0  0  0  0  0  0  0
   12.8912   -1.0058   23.2797 C   0  0  0  0  0  0  0  0  0  0  0  0
   11.8137   -1.7335   22.5065 C   0  0  0  0  0  0  0  0  0  0  0  0
   13.7959    1.1705   22.6047 C   0  0  0  0  0  0  0  0  0  0  0  0
   13.6237    2.6588   22.5188 C   0  0  0  0  0  0  0  0  0  0  0  0
   14.8436    0.6334   22.2634 O   0  0  0  0  0  0  0  0  0  0  0  0
    7.2281   -1.1743   22.9130 C   0  0  0  0  0  0  0  0  0  0  0  0
    6.0206   -0.6184   22.5780 C   0  0  0  0  0  0  0  0  0  0  0  0
    5.1182   -0.3899   23.5595 F   0  0  0  0  0  0  0  0  0  0  0  0
    5.6852   -0.2803   21.2793 C   0  0  0  0  0  0  0  0  0  0  0  0
    4.1492    0.4327   20.9557 Cl  0  0  0  0  0  0  0  0  0  0  0  0
    6.5846   -0.5132   20.2451 C   0  0  0  0  0  0  0  0  0  0  0  0
  1  2  1  0
  2  3  1  0
  3  4  2  0
  4  5  1  0
  5  6  1  0
  6  7  2  0
  7  8  1  0
  8  9  1  0
  9 10  1  0
 10 11  1  0
 11 12  1  0
 12 13  1  0
 13 14  1  0
 12 15  1  0
 15 16  1  0
 15 17  2  0
  7 18  1  0
 18 19  2  0
 19 20  1  0
 19 21  1  0
 21 22  1  0
 21 23  2  0
 23  3  1  0
 23  6  1  0
 14  9  1  0
M  END
