CVD-0003066|dock_bobby27042020.17|mol2|34|dock1
     RDKit          3D

 25 26  0  0  0  0  0  0  0  0999 V2000
   11.6306   -2.3162   23.4399 C   0  0  0  0  0  0  0  0  0  0  0  0
   13.3483   -2.0701   23.2044 S   0  0  0  0  0  0  0  0  0  0  0  0
   14.0353   -3.2144   23.7185 O   0  0  0  0  0  0  0  0  0  0  0  0
   13.5609   -1.7024   21.8386 O   0  0  0  0  0  0  0  0  0  0  0  0
   13.7873   -0.8163   24.1020 N   0  0  0  0  0  0  0  0  0  0  0  0
   12.9611    0.3970   24.1082 C   0  0  0  0  0  0  0  0  0  0  0  0
   12.7652    0.9191   22.6957 C   0  0  0  0  0  0  0  0  0  0  0  0
   12.2886    2.3567   22.6497 C   0  0  0  0  0  0  0  0  0  0  0  0
   13.2338    3.3666   22.4861 C   0  0  0  0  0  0  0  0  0  0  0  0
   12.8566    4.7051   22.4230 C   0  0  0  0  0  0  0  0  0  0  0  0
   11.5139    5.0418   22.5290 C   0  0  0  0  0  0  0  0  0  0  0  0
   10.5719    4.0447   22.6981 C   0  0  0  0  0  0  0  0  0  0  0  0
   10.9325    2.7000   22.7629 C   0  0  0  0  0  0  0  0  0  0  0  0
    9.8689    1.6457   22.9574 C   0  0  0  0  0  0  0  0  0  0  0  0
    9.1743    1.2676   21.7343 N   0  0  0  0  0  0  0  0  0  0  0  0
    7.8363    1.3885   21.6428 C   0  0  0  0  0  0  0  0  0  0  0  0
    7.2009    1.8423   22.5869 O   0  0  0  0  0  0  0  0  0  0  0  0
    7.1776    1.0097   20.5050 N   0  0  0  0  0  0  0  0  0  0  0  0
    7.6952    0.1050   19.4768 C   0  0  0  0  0  0  0  0  0  0  0  0
    6.7563   -1.0668   19.2791 C   0  0  0  0  0  0  0  0  0  0  0  0
    5.3417   -0.5846   18.9604 C   0  0  0  0  0  0  0  0  0  0  0  0
    4.8635    0.3901   20.0228 C   0  0  0  0  0  0  0  0  0  0  0  0
    5.8397    1.5308   20.2016 C   0  0  0  0  0  0  0  0  0  0  0  0
   13.8566    5.7295   22.2490 C   0  0  0  0  0  0  0  0  0  0  0  0
   14.6562    6.5279   22.0814 N   0  0  0  0  0  0  0  0  0  0  0  0
  1  2  1  0
  2  3  2  0
  2  4  2  0
  2  5  1  0
  5  6  1  0
  6  7  1  0
  7  8  1  0
  8  9  2  0
  9 10  1  0
 10 11  2  0
 11 12  1  0
 12 13  2  0
 13 14  1  0
 14 15  1  0
 15 16  1  0
 16 17  2  0
 16 18  1  0
 18 19  1  0
 19 20  1  0
 20 21  1  0
 21 22  1  0
 22 23  1  0
 10 24  1  0
 24 25  3  0
 13  8  1  0
 23 18  1  0
M  END
