CVD-0002694|dock_bobby27042020.33|mol2|20|dock3
     RDKit          3D

 17 17  0  0  0  0  0  0  0  0999 V2000
    6.9567   -5.0789   22.4885 C   0  0  0  0  0  0  0  0  0  0  0  0
    7.5177   -3.7330   22.0992 C   0  0  0  0  0  0  0  0  0  0  0  0
    6.8257   -2.8670   21.2717 C   0  0  0  0  0  0  0  0  0  0  0  0
    7.2708   -1.6638   20.8959 N   0  0  0  0  0  0  0  0  0  0  0  0
    8.4768   -1.2454   21.3455 C   0  0  0  0  0  0  0  0  0  0  0  0
    8.8887   -0.0380   20.9474 N   0  0  0  0  0  0  0  0  0  0  0  0
    9.2718   -2.0592   22.2067 C   0  0  0  0  0  0  0  0  0  0  0  0
   10.6213   -1.6256   22.7242 C   0  0  0  0  0  0  0  0  0  0  0  0
   11.6421   -1.6536   21.6702 N   0  0  0  0  0  0  0  0  0  0  0  0
   13.1717   -1.6936   22.0571 S   0  0  0  0  0  0  0  0  0  0  0  0
   13.4409   -2.8442   22.8565 O   0  0  0  0  0  0  0  0  0  0  0  0
   13.9701   -1.3894   20.9146 O   0  0  0  0  0  0  0  0  0  0  0  0
   13.4395   -0.2821   23.1876 C   0  0  0  0  0  0  0  0  0  0  0  0
   14.7303   -0.1118   23.4356 F   0  0  0  0  0  0  0  0  0  0  0  0
   12.8237   -0.4782   24.3446 F   0  0  0  0  0  0  0  0  0  0  0  0
   12.9729    0.8413   22.6616 F   0  0  0  0  0  0  0  0  0  0  0  0
    8.7511   -3.3000   22.5584 C   0  0  0  0  0  0  0  0  0  0  0  0
  1  2  1  0
  2  3  2  0
  3  4  1  0
  4  5  2  0
  5  6  1  0
  5  7  1  0
  7  8  1  0
  8  9  1  0
  9 10  1  0
 10 11  2  0
 10 12  2  0
 10 13  1  0
 13 14  1  0
 13 15  1  0
 13 16  1  0
  7 17  2  0
 17  2  1  0
M  END
