CVD-0001465|dock_bobby27042020.38|mol2|7|dock2
     RDKit          3D

 21 23  0  0  0  0  0  0  0  0999 V2000
   13.8723    1.1980   22.8972 C   0  0  0  0  0  0  0  0  0  0  0  0
   13.3374    0.8054   24.0258 C   0  0  0  0  0  0  0  0  0  0  0  0
   11.9309    0.3340   24.2154 C   0  0  0  0  0  0  0  0  0  0  0  0
   11.3644    0.6221   25.2683 O   0  0  0  0  0  0  0  0  0  0  0  0
   11.2527   -0.3936   23.2945 N   0  0  0  0  0  0  0  0  0  0  0  0
   11.7169   -1.0884   22.0979 C   0  0  0  0  0  0  0  0  0  0  0  0
   10.4102   -1.9219   22.1416 C   0  0  0  0  0  0  0  0  0  0  0  0
   10.0860   -1.2521   23.4936 C   0  0  0  0  0  0  0  0  0  0  0  0
    9.4625   -1.5896   21.0624 N   0  0  0  0  0  0  0  0  0  0  0  0
    8.2321   -2.3725   21.0898 C   0  0  0  0  0  0  0  0  0  0  0  0
    7.3393   -2.0419   19.9322 C   0  0  0  0  0  0  0  0  0  0  0  0
    6.7181   -2.9020   19.0510 C   0  0  0  0  0  0  0  0  0  0  0  0
    5.8997   -2.2330   18.2320 N   0  0  0  0  0  0  0  0  0  0  0  0
    5.7103   -0.8795   18.7454 C   0  0  0  0  0  0  0  0  0  0  0  0
    5.3493    0.3357   17.9475 C   0  0  0  0  0  0  0  0  0  0  0  0
    5.5346    1.5151   18.5436 C   0  0  0  0  0  0  0  0  0  0  0  0
    6.0952    1.5744   19.8747 C   0  0  0  0  0  0  0  0  0  0  0  0
    6.8150    0.5481   20.3640 C   0  0  0  0  0  0  0  0  0  0  0  0
    7.0319   -0.6277   19.4590 C   0  0  0  0  0  0  0  0  0  0  0  0
    5.8940    2.7442   20.6849 C   0  0  0  0  0  0  0  0  0  0  0  0
    5.7408    3.6953   21.3024 N   0  0  0  0  0  0  0  0  0  0  0  0
  1  2  2  0
  2  3  1  0
  3  4  2  0
  3  5  1  0
  5  6  1  0
  6  7  1  0
  7  8  1  0
  7  9  1  0
  9 10  1  0
 10 11  1  0
 11 12  2  0
 12 13  1  0
 13 14  1  0
 14 15  1  0
 15 16  2  0
 16 17  1  0
 17 18  2  0
 18 19  1  0
 17 20  1  0
 20 21  3  0
  8  5  1  0
 19 11  1  0
 19 14  1  0
M  END
