CVD-0003185|dock_bobby27042020.74|mol2|36|dock2
     RDKit          3D

 27 29  0  0  0  0  0  0  0  0999 V2000
    4.7264    2.3227   20.6190 C   0  0  0  0  0  0  0  0  0  0  0  0
    5.7669    1.4377   21.1172 N   0  0  0  0  0  0  0  0  0  0  0  0
    5.8547    0.1472   20.4195 C   0  0  0  0  0  0  0  0  0  0  0  0
    6.8989    0.1034   19.3139 C   0  0  0  0  0  0  0  0  0  0  0  0
    6.9054   -1.1977   18.5489 C   0  0  0  0  0  0  0  0  0  0  0  0
    8.0470   -1.5242   17.9640 N   0  0  0  0  0  0  0  0  0  0  0  0
    5.8986   -1.9075   18.4755 O   0  0  0  0  0  0  0  0  0  0  0  0
    6.5485    1.7978   22.1649 C   0  0  0  0  0  0  0  0  0  0  0  0
    6.3766    2.9057   22.6616 O   0  0  0  0  0  0  0  0  0  0  0  0
    7.6453    0.8681   22.7286 C   0  0  0  0  0  0  0  0  0  0  0  0
    7.3581   -0.2915   23.0028 O   0  0  0  0  0  0  0  0  0  0  0  0
    8.9104    1.2982   22.9223 N   0  0  0  0  0  0  0  0  0  0  0  0
    9.9824    0.4178   23.4490 C   0  0  0  0  0  0  0  0  0  0  0  0
   11.2395    0.5779   22.6602 C   0  0  0  0  0  0  0  0  0  0  0  0
   12.3002   -0.3801   23.1872 C   0  0  0  0  0  0  0  0  0  0  0  0
   12.8877   -0.1757   24.4278 C   0  0  0  0  0  0  0  0  0  0  0  0
   13.8501   -1.0483   24.9076 C   0  0  0  0  0  0  0  0  0  0  0  0
   14.2362   -2.1358   24.1537 C   0  0  0  0  0  0  0  0  0  0  0  0
   13.6602   -2.3518   22.9201 C   0  0  0  0  0  0  0  0  0  0  0  0
   12.6977   -1.4797   22.4394 C   0  0  0  0  0  0  0  0  0  0  0  0
   11.6955    2.0146   22.7136 C   0  0  0  0  0  0  0  0  0  0  0  0
   13.0446    2.3725   22.7064 C   0  0  0  0  0  0  0  0  0  0  0  0
   13.4496    3.6950   22.6865 C   0  0  0  0  0  0  0  0  0  0  0  0
   12.5033    4.6962   22.6731 C   0  0  0  0  0  0  0  0  0  0  0  0
   11.1607    4.3652   22.6800 C   0  0  0  0  0  0  0  0  0  0  0  0
   10.7510    3.0362   22.7000 C   0  0  0  0  0  0  0  0  0  0  0  0
    9.2607    2.6966   22.6088 C   0  0  0  0  0  0  0  0  0  0  0  0
  1  2  1  0
  2  3  1  0
  3  4  1  0
  4  5  1  0
  5  6  1  0
  5  7  2  0
  2  8  1  0
  8  9  2  0
  8 10  1  0
 10 11  2  0
 10 12  1  0
 12 13  1  0
 13 14  1  0
 14 15  1  0
 15 16  2  0
 16 17  1  0
 17 18  2  0
 18 19  1  0
 19 20  2  0
 14 21  1  0
 21 22  2  0
 22 23  1  0
 23 24  2  0
 24 25  1  0
 25 26  2  0
 26 27  1  0
 27 12  1  0
 20 15  1  0
 26 21  1  0
M  END
