CVD-0003023|dock_bobby27042020.89|mol2|19|dock1
     RDKit          3D

 19 20  0  0  0  0  0  0  0  0999 V2000
   12.4377    8.6650   26.7447 C   0  0  0  0  0  0  0  0  0  0  0  0
   12.5203    7.7519   25.6037 C   0  0  0  0  0  0  0  0  0  0  0  0
   12.6173    7.0095   24.6780 C   0  0  0  0  0  0  0  0  0  0  0  0
   12.7091    6.0884   23.5797 C   0  0  0  0  0  0  0  0  0  0  0  0
   13.7449    6.1928   22.6573 C   0  0  0  0  0  0  0  0  0  0  0  0
   13.8218    5.2982   21.6036 C   0  0  0  0  0  0  0  0  0  0  0  0
   12.8702    4.3017   21.4667 C   0  0  0  0  0  0  0  0  0  0  0  0
   11.8309    4.1848   22.3765 C   0  0  0  0  0  0  0  0  0  0  0  0
   10.7957    3.0957   22.2282 C   0  0  0  0  0  0  0  0  0  0  0  0
   11.0449    1.9397   23.1021 N   0  0  0  0  0  0  0  0  0  0  0  0
   12.4730    1.6098   23.1211 C   0  0  0  0  0  0  0  0  0  0  0  0
   12.7301    0.4427   24.0561 C   0  0  0  0  0  0  0  0  0  0  0  0
   11.9466   -0.7244   23.6451 N   0  0  0  0  0  0  0  0  0  0  0  0
   10.5171   -0.4101   23.5583 C   0  0  0  0  0  0  0  0  0  0  0  0
   10.2931    0.7764   22.6386 C   0  0  0  0  0  0  0  0  0  0  0  0
   12.5055   -1.9428   23.4097 C   0  0  0  0  0  0  0  0  0  0  0  0
   13.9844   -2.1302   23.5872 C   0  0  0  0  0  0  0  0  0  0  0  0
   11.8072   -2.8903   23.0666 O   0  0  0  0  0  0  0  0  0  0  0  0
   11.7561    5.0826   23.4339 C   0  0  0  0  0  0  0  0  0  0  0  0
  1  2  1  0
  2  3  3  0
  3  4  1  0
  4  5  2  0
  5  6  1  0
  6  7  2  0
  7  8  1  0
  8  9  1  0
  9 10  1  0
 10 11  1  0
 11 12  1  0
 12 13  1  0
 13 14  1  0
 14 15  1  0
 13 16  1  0
 16 17  1  0
 16 18  2  0
  8 19  2  0
 19  4  1  0
 15 10  1  0
M  END
