CVD-0000185|dock_bobby27042020.99|mol2|25|dock3
     RDKit          3D

 18 19  0  0  0  0  0  0  0  0999 V2000
   15.2496   -1.9865   25.7177 F   0  0  0  0  0  0  0  0  0  0  0  0
   14.2359   -1.6459   24.8768 C   0  0  0  0  0  0  0  0  0  0  0  0
   13.3399   -0.6942   25.2809 C   0  0  0  0  0  0  0  0  0  0  0  0
   12.3122   -0.3537   24.4193 C   0  0  0  0  0  0  0  0  0  0  0  0
   12.1887   -0.9568   23.1773 C   0  0  0  0  0  0  0  0  0  0  0  0
   11.0619   -0.5811   22.2453 C   0  0  0  0  0  0  0  0  0  0  0  0
    9.7933   -1.2406   22.5838 N   0  0  0  0  0  0  0  0  0  0  0  0
    9.9691   -2.6950   22.6343 C   0  0  0  0  0  0  0  0  0  0  0  0
    8.6664   -3.3684   23.0245 C   0  0  0  0  0  0  0  0  0  0  0  0
    7.6062   -3.0195   22.0761 N   0  0  0  0  0  0  0  0  0  0  0  0
    7.4460   -1.5668   21.9578 C   0  0  0  0  0  0  0  0  0  0  0  0
    8.7692   -0.9185   21.5935 C   0  0  0  0  0  0  0  0  0  0  0  0
    6.8621   -3.9535   21.4258 C   0  0  0  0  0  0  0  0  0  0  0  0
    5.9899   -3.5687   20.6484 O   0  0  0  0  0  0  0  0  0  0  0  0
    7.0304   -5.4342   21.5727 C   0  0  0  0  0  0  0  0  0  0  0  0
    6.0891   -6.3060   21.8374 C   0  0  0  0  0  0  0  0  0  0  0  0
   13.1200   -1.9166   22.8125 C   0  0  0  0  0  0  0  0  0  0  0  0
   14.1539   -2.2693   23.6616 C   0  0  0  0  0  0  0  0  0  0  0  0
  1  2  1  0
  2  3  2  0
  3  4  1  0
  4  5  2  0
  5  6  1  0
  6  7  1  0
  7  8  1  0
  8  9  1  0
  9 10  1  0
 10 11  1  0
 11 12  1  0
 10 13  1  0
 13 14  2  0
 13 15  1  0
 15 16  2  0
  5 17  1  0
 17 18  2  0
 18  2  1  0
 12  7  1  0
M  END
