CVD-0001026|dock_bobby27042020.82|mol2|23|dock3
     RDKit          3D

 30 33  0  0  0  0  0  0  0  0999 V2000
    5.7577   -1.8767   17.6109 C   0  0  0  0  0  0  0  0  0  0  0  0
    6.6995   -1.4206   18.6186 N   0  0  0  0  0  0  0  0  0  0  0  0
    7.2645   -0.0949   18.4311 C   0  0  0  0  0  0  0  0  0  0  0  0
    7.1431   -2.2398   19.6148 C   0  0  0  0  0  0  0  0  0  0  0  0
    7.9551   -1.6329   20.4956 N   0  0  0  0  0  0  0  0  0  0  0  0
    8.4417   -2.3741   21.5076 C   0  0  0  0  0  0  0  0  0  0  0  0
    9.2779   -1.7038   22.3896 N   0  0  0  0  0  0  0  0  0  0  0  0
   10.2252   -2.1786   23.2347 C   0  0  0  0  0  0  0  0  0  0  0  0
   10.5196   -3.3640   23.3681 O   0  0  0  0  0  0  0  0  0  0  0  0
   10.9229   -1.0987   24.0350 C   0  0  0  0  0  0  0  0  0  0  0  0
    9.9330   -0.3523   24.9209 C   0  0  0  0  0  0  0  0  0  0  0  0
   10.6319    0.7509   25.6883 C   0  0  0  0  0  0  0  0  0  0  0  0
   11.2874    1.6671   24.7588 N   0  0  0  0  0  0  0  0  0  0  0  0
   12.2849    1.0058   23.9245 C   0  0  0  0  0  0  0  0  0  0  0  0
   11.6309   -0.1080   23.1136 C   0  0  0  0  0  0  0  0  0  0  0  0
   11.2346    3.0188   24.8130 C   0  0  0  0  0  0  0  0  0  0  0  0
   10.6157    3.5507   25.7185 O   0  0  0  0  0  0  0  0  0  0  0  0
   11.8994    3.9519   23.8360 C   0  0  0  0  0  0  0  0  0  0  0  0
   11.8473    3.8332   22.4466 C   0  0  0  0  0  0  0  0  0  0  0  0
   12.5208    4.7193   21.6242 C   0  0  0  0  0  0  0  0  0  0  0  0
   13.2197    5.7437   22.1986 C   0  0  0  0  0  0  0  0  0  0  0  0
   13.8833    6.6159   21.3927 F   0  0  0  0  0  0  0  0  0  0  0  0
   13.2762    5.9260   23.5518 C   0  0  0  0  0  0  0  0  0  0  0  0
   12.6114    5.0253   24.3643 C   0  0  0  0  0  0  0  0  0  0  0  0
    8.1992   -3.6731   21.7391 N   0  0  0  0  0  0  0  0  0  0  0  0
    7.3843   -4.2460   20.8497 C   0  0  0  0  0  0  0  0  0  0  0  0
    6.9454   -5.5360   20.8081 N   0  0  0  0  0  0  0  0  0  0  0  0
    6.1443   -5.6262   19.7263 C   0  0  0  0  0  0  0  0  0  0  0  0
    6.0229   -4.4992   19.0546 N   0  0  0  0  0  0  0  0  0  0  0  0
    6.8137   -3.6074   19.7640 C   0  0  0  0  0  0  0  0  0  0  0  0
  1  2  1  0
  2  3  1  0
  2  4  1  0
  4  5  2  0
  5  6  1  0
  6  7  1  0
  7  8  1  0
  8  9  2  0
  8 10  1  0
 10 11  1  0
 11 12  1  0
 12 13  1  0
 13 14  1  0
 14 15  1  0
 13 16  1  0
 16 17  2  0
 16 18  1  0
 18 19  2  0
 19 20  1  0
 20 21  2  0
 21 22  1  0
 21 23  1  0
 23 24  2  0
  6 25  2  0
 25 26  1  0
 26 27  1  0
 27 28  1  0
 28 29  2  0
 29 30  1  0
 30  4  1  0
 15 10  1  0
 24 18  1  0
 30 26  2  0
M  END
