CVD-0000189|dock_bobby27042020.42|mol2|25|dock2
     RDKit          3D

 26 28  0  0  0  0  0  0  0  0999 V2000
    2.7247   -7.7990   23.9200 Cl  0  0  0  0  0  0  0  0  0  0  0  0
    4.0788   -6.7593   24.3811 C   0  0  0  0  0  0  0  0  0  0  0  0
    4.9759   -6.4589   23.1956 C   0  0  0  0  0  0  0  0  0  0  0  0
    4.7075   -6.9163   22.0917 O   0  0  0  0  0  0  0  0  0  0  0  0
    6.0705   -5.6864   23.3925 N   0  0  0  0  0  0  0  0  0  0  0  0
    7.0008   -5.3383   22.3164 C   0  0  0  0  0  0  0  0  0  0  0  0
    7.1768   -3.8333   22.2339 C   0  0  0  0  0  0  0  0  0  0  0  0
    7.6630   -3.3085   23.5133 N   0  0  0  0  0  0  0  0  0  0  0  0
    7.8730   -1.8568   23.4268 C   0  0  0  0  0  0  0  0  0  0  0  0
    9.3048   -1.4471   23.7483 C   0  0  0  0  0  0  0  0  0  0  0  0
   10.5236   -2.0022   22.5653 S   0  0  0  0  0  0  0  0  0  0  0  0
    9.9694   -1.5936   21.2156 N   0  0  0  0  0  0  0  0  0  0  0  0
   10.8775   -3.3884   22.8514 O   0  0  0  0  0  0  0  0  0  0  0  0
   11.9468   -1.0048   22.9209 C   0  0  0  0  0  0  0  0  0  0  0  0
   13.0555   -1.6317   23.4217 C   0  0  0  0  0  0  0  0  0  0  0  0
   14.1846   -0.8871   23.7054 C   0  0  0  0  0  0  0  0  0  0  0  0
   14.2957    0.4167   23.5300 N   0  0  0  0  0  0  0  0  0  0  0  0
   13.2055    1.0717   23.0227 C   0  0  0  0  0  0  0  0  0  0  0  0
   13.2981    2.4676   22.8197 C   0  0  0  0  0  0  0  0  0  0  0  0
   12.2299    3.1462   22.3142 C   0  0  0  0  0  0  0  0  0  0  0  0
   12.3599    4.8657   22.0708 Cl  0  0  0  0  0  0  0  0  0  0  0  0
   11.0470    2.5176   21.9877 C   0  0  0  0  0  0  0  0  0  0  0  0
   10.9251    1.1735   22.1715 C   0  0  0  0  0  0  0  0  0  0  0  0
   11.9966    0.4060   22.6958 C   0  0  0  0  0  0  0  0  0  0  0  0
    6.6917   -3.6234   24.5578 C   0  0  0  0  0  0  0  0  0  0  0  0
    6.4982   -5.1242   24.6773 C   0  0  0  0  0  0  0  0  0  0  0  0
  1  2  1  0
  2  3  1  0
  3  4  2  0
  3  5  1  0
  5  6  1  0
  6  7  1  0
  7  8  1  0
  8  9  1  0
  9 10  1  0
 10 11  1  0
 11 12  2  0
 11 13  2  0
 11 14  1  0
 14 15  2  0
 15 16  1  0
 16 17  2  0
 17 18  1  0
 18 19  2  0
 19 20  1  0
 20 21  1  0
 20 22  2  0
 22 23  1  0
 23 24  2  0
  8 25  1  0
 25 26  1  0
 26  5  1  0
 24 14  1  0
 24 18  1  0
M  END
