CVD-0002294|dock_bobby27042020.35|mol2|3|dock1
     RDKit          3D

 40 43  0  0  0  0  0  0  0  0999 V2000
   14.4710    6.3340   21.4232 C   0  0  0  0  0  0  0  0  0  0  0  0
   13.3387    5.4458   21.6986 N   0  0  0  0  0  0  0  0  0  0  0  0
   13.6760    4.2613   22.4954 C   0  0  0  0  0  0  0  0  0  0  0  0
   12.5262    3.2908   22.5648 C   0  0  0  0  0  0  0  0  0  0  0  0
   11.1675    3.6466   22.6488 C   0  0  0  0  0  0  0  0  0  0  0  0
   10.3845    2.5083   22.6754 C   0  0  0  0  0  0  0  0  0  0  0  0
    8.9041    2.4688   22.7575 C   0  0  0  0  0  0  0  0  0  0  0  0
    8.2665    1.4630   22.0292 C   0  0  0  0  0  0  0  0  0  0  0  0
    6.8797    1.3426   21.9676 C   0  0  0  0  0  0  0  0  0  0  0  0
    6.1152    2.2694   22.6658 C   0  0  0  0  0  0  0  0  0  0  0  0
    6.7170    3.2549   23.4254 C   0  0  0  0  0  0  0  0  0  0  0  0
    8.0868    3.3186   23.4883 C   0  0  0  0  0  0  0  0  0  0  0  0
    8.6118    4.2446   24.3201 F   0  0  0  0  0  0  0  0  0  0  0  0
    6.2953    0.2827   21.1895 N   0  0  0  0  0  0  0  0  0  0  0  0
    5.7612    0.5902   19.8311 C   0  0  0  0  0  0  0  0  0  0  0  0
    6.5538   -0.0613   18.7051 C   0  0  0  0  0  0  0  0  0  0  0  0
    4.2827    0.2463   19.7300 C   0  0  0  0  0  0  0  0  0  0  0  0
    6.2538   -1.0080   21.6756 C   0  0  0  0  0  0  0  0  0  0  0  0
    5.7880   -1.9184   21.0162 O   0  0  0  0  0  0  0  0  0  0  0  0
    6.7804   -1.3683   23.0555 C   0  0  0  0  0  0  0  0  0  0  0  0
    5.6346   -1.5763   24.0381 C   0  0  0  0  0  0  0  0  0  0  0  0
    6.1663   -1.9728   25.3999 C   0  0  0  0  0  0  0  0  0  0  0  0
    6.9765   -3.1827   25.2861 N   0  0  0  0  0  0  0  0  0  0  0  0
    8.1193   -3.0143   24.3949 C   0  0  0  0  0  0  0  0  0  0  0  0
    7.6399   -2.6292   22.9993 C   0  0  0  0  0  0  0  0  0  0  0  0
    6.9021   -4.2604   26.0976 C   0  0  0  0  0  0  0  0  0  0  0  0
    7.6127   -5.2411   25.9169 O   0  0  0  0  0  0  0  0  0  0  0  0
    5.9031   -4.2238   27.2382 C   0  0  0  0  0  0  0  0  0  0  0  0
    4.2476   -4.3781   26.6361 Cl  0  0  0  0  0  0  0  0  0  0  0  0
   11.2871    1.4130   22.6246 N   0  0  0  0  0  0  0  0  0  0  0  0
   12.5841    1.9044   22.5484 C   0  0  0  0  0  0  0  0  0  0  0  0
   11.0169   -0.2597   22.6554 S   0  0  0  0  0  0  0  0  0  0  0  0
    9.8572   -0.4717   23.4649 O   0  0  0  0  0  0  0  0  0  0  0  0
   11.0608   -0.7059   21.2973 O   0  0  0  0  0  0  0  0  0  0  0  0
   12.4103   -0.9225   23.5008 C   0  0  0  0  0  0  0  0  0  0  0  0
   13.1483   -1.9489   22.9368 C   0  0  0  0  0  0  0  0  0  0  0  0
   14.2398   -2.4371   23.6341 C   0  0  0  0  0  0  0  0  0  0  0  0
   14.5470   -1.8827   24.8562 C   0  0  0  0  0  0  0  0  0  0  0  0
   13.8462   -0.8926   25.4106 N   0  0  0  0  0  0  0  0  0  0  0  0
   12.7939   -0.4258   24.7321 C   0  0  0  0  0  0  0  0  0  0  0  0
  1  2  1  0
  2  3  1  0
  3  4  1  0
  4  5  1  0
  5  6  2  0
  6  7  1  0
  7  8  2  0
  8  9  1  0
  9 10  2  0
 10 11  1  0
 11 12  2  0
 12 13  1  0
  9 14  1  0
 14 15  1  0
 15 16  1  0
 15 17  1  0
 14 18  1  0
 18 19  2  0
 18 20  1  0
 20 21  1  0
 21 22  1  0
 22 23  1  0
 23 24  1  0
 24 25  1  0
 23 26  1  0
 26 27  2  0
 26 28  1  0
 28 29  1  0
  6 30  1  0
 30 31  1  0
 30 32  1  0
 32 33  2  0
 32 34  2  0
 32 35  1  0
 35 36  2  0
 36 37  1  0
 37 38  2  0
 38 39  1  0
 39 40  2  0
 31  4  2  0
 40 35  1  0
 12  7  1  0
 25 20  1  0
M  END
