CVD-0003719|dock_bobby27042020.15|mol2|39|dock3
     RDKit          3D

 25 26  0  0  0  0  0  0  0  0999 V2000
    4.6530    0.1953   19.7764 C   0  0  0  0  0  0  0  0  0  0  0  0
    5.5833   -0.8724   18.7464 S   0  0  0  0  0  0  0  0  0  0  0  0
    4.9651   -2.1620   18.7703 O   0  0  0  0  0  0  0  0  0  0  0  0
    5.7641   -0.2249   17.4838 O   0  0  0  0  0  0  0  0  0  0  0  0
    7.0369   -1.0362   19.4026 N   0  0  0  0  0  0  0  0  0  0  0  0
    7.1823   -1.7525   20.6755 C   0  0  0  0  0  0  0  0  0  0  0  0
    8.3361   -2.7380   20.6050 C   0  0  0  0  0  0  0  0  0  0  0  0
    8.8165   -3.2113   21.9621 C   0  0  0  0  0  0  0  0  0  0  0  0
    8.1796   -4.3244   22.5032 C   0  0  0  0  0  0  0  0  0  0  0  0
    8.4905   -4.7952   23.7638 C   0  0  0  0  0  0  0  0  0  0  0  0
    9.4580   -4.1476   24.5208 C   0  0  0  0  0  0  0  0  0  0  0  0
   10.1326   -3.0466   23.9979 C   0  0  0  0  0  0  0  0  0  0  0  0
    9.8383   -2.5994   22.7116 C   0  0  0  0  0  0  0  0  0  0  0  0
   10.5813   -1.5091   22.1913 N   0  0  0  0  0  0  0  0  0  0  0  0
   11.0493   -0.3606   22.7915 C   0  0  0  0  0  0  0  0  0  0  0  0
   10.8431   -0.1678   23.9858 O   0  0  0  0  0  0  0  0  0  0  0  0
   11.7538    0.5060   21.9840 N   0  0  0  0  0  0  0  0  0  0  0  0
   12.3771    1.7450   22.2823 C   0  0  0  0  0  0  0  0  0  0  0  0
   12.2870    2.7699   21.3489 C   0  0  0  0  0  0  0  0  0  0  0  0
   12.8854    3.9904   21.6070 C   0  0  0  0  0  0  0  0  0  0  0  0
   13.5599    4.1545   22.7940 C   0  0  0  0  0  0  0  0  0  0  0  0
   13.6645    3.1930   23.7111 N   0  0  0  0  0  0  0  0  0  0  0  0
   13.0812    2.0181   23.4540 C   0  0  0  0  0  0  0  0  0  0  0  0
    9.7702   -4.6124   25.8497 C   0  0  0  0  0  0  0  0  0  0  0  0
   10.0350   -5.0055   26.8891 N   0  0  0  0  0  0  0  0  0  0  0  0
  1  2  1  0
  2  3  2  0
  2  4  2  0
  2  5  1  0
  5  6  1  0
  6  7  1  0
  7  8  1  0
  8  9  2  0
  9 10  1  0
 10 11  2  0
 11 12  1  0
 12 13  2  0
 13 14  1  0
 14 15  1  0
 15 16  2  0
 15 17  1  0
 17 18  1  0
 18 19  2  0
 19 20  1  0
 20 21  2  0
 21 22  1  0
 22 23  2  0
 11 24  1  0
 24 25  3  0
 13  8  1  0
 23 18  1  0
M  END
