CVD-0001643|dock_bobby27042020.37|mol2|32|dock3
     RDKit          3D

 25 27  0  0  0  0  0  0  0  0999 V2000
   13.7967   -2.4498   26.0450 C   0  0  0  0  0  0  0  0  0  0  0  0
   13.3849   -2.3606   24.5841 C   0  0  0  0  0  0  0  0  0  0  0  0
   14.4659   -1.7348   23.8294 N   0  0  0  0  0  0  0  0  0  0  0  0
   14.1279   -1.8041   22.4091 C   0  0  0  0  0  0  0  0  0  0  0  0
   12.8581   -1.0367   22.1321 C   0  0  0  0  0  0  0  0  0  0  0  0
   11.7587   -1.5149   22.9726 N   0  0  0  0  0  0  0  0  0  0  0  0
   12.1020   -1.5959   24.3946 C   0  0  0  0  0  0  0  0  0  0  0  0
   12.1044   -0.2043   25.0110 C   0  0  0  0  0  0  0  0  0  0  0  0
   10.4967   -1.8927   22.4866 C   0  0  0  0  0  0  0  0  0  0  0  0
    9.9224   -3.0938   22.8669 C   0  0  0  0  0  0  0  0  0  0  0  0
    8.7237   -3.5029   22.4413 N   0  0  0  0  0  0  0  0  0  0  0  0
    8.0475   -2.7163   21.5833 C   0  0  0  0  0  0  0  0  0  0  0  0
    6.7773   -3.2779   21.1741 C   0  0  0  0  0  0  0  0  0  0  0  0
    5.7813   -3.7041   20.8118 N   0  0  0  0  0  0  0  0  0  0  0  0
    8.5290   -1.4764   21.1249 C   0  0  0  0  0  0  0  0  0  0  0  0
    9.7801   -1.0833   21.6112 C   0  0  0  0  0  0  0  0  0  0  0  0
    7.7935   -0.5638   20.1721 C   0  0  0  0  0  0  0  0  0  0  0  0
    8.3296   -0.2570   19.1125 O   0  0  0  0  0  0  0  0  0  0  0  0
    6.5578   -0.1114   20.5315 N   0  0  0  0  0  0  0  0  0  0  0  0
    5.6356    0.7203   19.8438 C   0  0  0  0  0  0  0  0  0  0  0  0
    5.8383    1.2311   18.5623 C   0  0  0  0  0  0  0  0  0  0  0  0
    4.8805    2.0410   17.9741 C   0  0  0  0  0  0  0  0  0  0  0  0
    3.7161    2.3491   18.6420 C   0  0  0  0  0  0  0  0  0  0  0  0
    3.5030    1.8464   19.9059 C   0  0  0  0  0  0  0  0  0  0  0  0
    4.4539    1.0377   20.5047 C   0  0  0  0  0  0  0  0  0  0  0  0
  1  2  1  0
  2  3  1  0
  3  4  1  0
  4  5  1  0
  5  6  1  0
  6  7  1  0
  7  8  1  0
  6  9  1  0
  9 10  2  0
 10 11  1  0
 11 12  2  0
 12 13  1  0
 13 14  3  0
 12 15  1  0
 15 16  2  0
 15 17  1  0
 17 18  2  0
 17 19  1  0
 19 20  1  0
 20 21  2  0
 21 22  1  0
 22 23  2  0
 23 24  1  0
 24 25  2  0
  7  2  1  0
 16  9  1  0
 25 20  1  0
M  END
