CVD-0000747|dock_bobby27042020.69|mol2|19|dock2
     RDKit          3D

 19 21  0  0  0  0  0  0  0  0999 V2000
   13.6922    5.3087   22.0593 Cl  0  0  0  0  0  0  0  0  0  0  0  0
   13.2454    3.6645   22.2558 C   0  0  0  0  0  0  0  0  0  0  0  0
   14.0759    2.6070   22.3361 C   0  0  0  0  0  0  0  0  0  0  0  0
   13.3867    1.4065   22.4946 C   0  0  0  0  0  0  0  0  0  0  0  0
   12.0423    1.5610   22.5332 C   0  0  0  0  0  0  0  0  0  0  0  0
   11.0688    0.5621   22.6816 N   0  0  0  0  0  0  0  0  0  0  0  0
   11.2000   -0.7738   22.4139 C   0  0  0  0  0  0  0  0  0  0  0  0
   12.2190   -1.3108   21.9918 O   0  0  0  0  0  0  0  0  0  0  0  0
    9.9517   -1.5928   22.6665 C   0  0  0  0  0  0  0  0  0  0  0  0
    8.7700   -1.1177   21.8771 C   0  0  0  0  0  0  0  0  0  0  0  0
    7.5961   -0.5761   22.3135 C   0  0  0  0  0  0  0  0  0  0  0  0
    6.8048   -0.2938   21.1563 C   0  0  0  0  0  0  0  0  0  0  0  0
    5.5401    0.2472   20.8816 C   0  0  0  0  0  0  0  0  0  0  0  0
    5.1168    0.3587   19.5667 C   0  0  0  0  0  0  0  0  0  0  0  0
    5.9539   -0.0672   18.5558 C   0  0  0  0  0  0  0  0  0  0  0  0
    7.1720   -0.5917   18.7580 N   0  0  0  0  0  0  0  0  0  0  0  0
    7.5685   -0.6935   20.0379 C   0  0  0  0  0  0  0  0  0  0  0  0
    8.7556   -1.1895   20.5020 N   0  0  0  0  0  0  0  0  0  0  0  0
   11.5899    3.2411   22.3700 S   0  0  0  0  0  0  0  0  0  0  0  0
  1  2  1  0
  2  3  2  0
  3  4  1  0
  4  5  2  0
  5  6  1  0
  6  7  1  0
  7  8  2  0
  7  9  1  0
  9 10  1  0
 10 11  2  0
 11 12  1  0
 12 13  2  0
 13 14  1  0
 14 15  2  0
 15 16  1  0
 16 17  2  0
 17 18  1  0
  5 19  1  0
 19  2  1  0
 18 10  1  0
 17 12  1  0
M  END
