CVD-0000651|dock_bobby27042020.83|mol2|40|dock3
     RDKit          3D

 24 26  0  0  0  0  0  0  0  0999 V2000
   14.7919   -2.4219   25.2427 Cl  0  0  0  0  0  0  0  0  0  0  0  0
   13.1763   -1.7032   25.2674 C   0  0  0  0  0  0  0  0  0  0  0  0
   12.7764   -1.2016   23.8927 C   0  0  0  0  0  0  0  0  0  0  0  0
   13.5534   -1.3210   22.9536 O   0  0  0  0  0  0  0  0  0  0  0  0
   11.5634   -0.6205   23.7189 N   0  0  0  0  0  0  0  0  0  0  0  0
   10.6183   -0.4190   24.8194 C   0  0  0  0  0  0  0  0  0  0  0  0
    9.2673   -1.0175   24.4742 C   0  0  0  0  0  0  0  0  0  0  0  0
    8.7461   -0.4171   23.2427 N   0  0  0  0  0  0  0  0  0  0  0  0
    7.4079   -0.9436   22.9374 C   0  0  0  0  0  0  0  0  0  0  0  0
    6.8141   -0.3788   21.6687 C   0  0  0  0  0  0  0  0  0  0  0  0
    6.3367    0.9220   21.6264 C   0  0  0  0  0  0  0  0  0  0  0  0
    5.7884    1.4378   20.4639 C   0  0  0  0  0  0  0  0  0  0  0  0
    5.7084    0.6566   19.3235 C   0  0  0  0  0  0  0  0  0  0  0  0
    6.1826   -0.6358   19.3711 C   0  0  0  0  0  0  0  0  0  0  0  0
    6.0887   -1.6317   17.9457 Cl  0  0  0  0  0  0  0  0  0  0  0  0
    6.7309   -1.1607   20.5234 C   0  0  0  0  0  0  0  0  0  0  0  0
    9.6817   -0.6785   22.1519 C   0  0  0  0  0  0  0  0  0  0  0  0
   11.0440   -0.0829   22.4576 C   0  0  0  0  0  0  0  0  0  0  0  0
   10.9597    1.4307   22.5081 C   0  0  0  0  0  0  0  0  0  0  0  0
   12.1073    2.1919   22.6862 C   0  0  0  0  0  0  0  0  0  0  0  0
   12.0430    3.5742   22.7399 C   0  0  0  0  0  0  0  0  0  0  0  0
   10.8299    4.2159   22.6161 C   0  0  0  0  0  0  0  0  0  0  0  0
    9.6817    3.4752   22.4367 C   0  0  0  0  0  0  0  0  0  0  0  0
    9.7452    2.0928   22.3816 C   0  0  0  0  0  0  0  0  0  0  0  0
  1  2  1  0
  2  3  1  0
  3  4  2  0
  3  5  1  0
  5  6  1  0
  6  7  1  0
  7  8  1  0
  8  9  1  0
  9 10  1  0
 10 11  2  0
 11 12  1  0
 12 13  2  0
 13 14  1  0
 14 15  1  0
 14 16  2  0
  8 17  1  0
 17 18  1  0
 18 19  1  0
 19 20  2  0
 20 21  1  0
 21 22  2  0
 22 23  1  0
 23 24  2  0
 18  5  1  0
 24 19  1  0
 16 10  1  0
M  END
