CVD-0002569|dock_bobby27042020.19|mol2|22|dock1
     RDKit          3D

 34 38  0  0  0  0  0  0  0  0999 V2000
    8.8757    1.1596   21.1004 O   0  0  0  0  0  0  0  0  0  0  0  0
    9.4676    0.2080   20.6023 C   0  0  0  0  0  0  0  0  0  0  0  0
    8.9339   -0.6244   19.6447 N   0  0  0  0  0  0  0  0  0  0  0  0
    7.6624   -0.6212   19.0163 C   0  0  0  0  0  0  0  0  0  0  0  0
    6.9353   -1.7755   18.7313 C   0  0  0  0  0  0  0  0  0  0  0  0
    5.6984   -1.6851   18.1144 C   0  0  0  0  0  0  0  0  0  0  0  0
    5.1720   -0.4582   17.7755 C   0  0  0  0  0  0  0  0  0  0  0  0
    5.8823    0.6885   18.0527 C   0  0  0  0  0  0  0  0  0  0  0  0
    7.1196    0.6110   18.6690 C   0  0  0  0  0  0  0  0  0  0  0  0
   10.7517   -0.1655   20.9286 N   0  0  0  0  0  0  0  0  0  0  0  0
   11.6750    0.3910   21.8501 C   0  0  0  0  0  0  0  0  0  0  0  0
   12.6739   -0.3345   22.4935 C   0  0  0  0  0  0  0  0  0  0  0  0
   13.5327    0.2088   23.3584 N   0  0  0  0  0  0  0  0  0  0  0  0
   13.4317    1.5150   23.6136 C   0  0  0  0  0  0  0  0  0  0  0  0
   12.4758    2.3312   23.0291 C   0  0  0  0  0  0  0  0  0  0  0  0
   11.5819    1.7494   22.1346 C   0  0  0  0  0  0  0  0  0  0  0  0
   12.4076    3.6856   23.3249 N   0  0  0  0  0  0  0  0  0  0  0  0
   11.5631    4.1404   24.4393 C   0  0  0  0  0  0  0  0  0  0  0  0
   11.2214    5.6181   24.2853 C   0  0  0  0  0  0  0  0  0  0  0  0
   12.4078    6.4348   24.0803 N   0  0  0  0  0  0  0  0  0  0  0  0
   13.2707    5.9353   22.9994 C   0  0  0  0  0  0  0  0  0  0  0  0
   13.6474    4.5008   23.2596 C   0  0  0  0  0  0  0  0  0  0  0  0
   12.7608    7.5753   24.7099 C   0  0  0  0  0  0  0  0  0  0  0  0
   13.7995    8.1633   24.4362 O   0  0  0  0  0  0  0  0  0  0  0  0
   11.8351    8.1139   25.7864 C   0  0  0  0  0  0  0  0  0  0  0  0
   11.9932    7.4308   27.1117 C   0  0  0  0  0  0  0  0  0  0  0  0
   11.0676    6.6687   27.7623 C   0  0  0  0  0  0  0  0  0  0  0  0
   11.5709    6.2100   28.9507 N   0  0  0  0  0  0  0  0  0  0  0  0
   12.8462    6.6734   29.0902 C   0  0  0  0  0  0  0  0  0  0  0  0
   13.6867    6.4509   30.1147 N   0  0  0  0  0  0  0  0  0  0  0  0
   14.8973    7.0183   30.0220 C   0  0  0  0  0  0  0  0  0  0  0  0
   15.3028    7.7939   28.9570 C   0  0  0  0  0  0  0  0  0  0  0  0
   14.4232    8.0133   27.9085 C   0  0  0  0  0  0  0  0  0  0  0  0
   13.1518    7.4452   27.9566 C   0  0  0  0  0  0  0  0  0  0  0  0
  1  2  2  0
  2  3  1  0
  3  4  1  0
  4  5  2  0
  5  6  1  0
  6  7  2  0
  7  8  1  0
  8  9  2  0
  2 10  1  0
 10 11  1  0
 11 12  2  0
 12 13  1  0
 13 14  2  0
 14 15  1  0
 15 16  2  0
 15 17  1  0
 17 18  1  0
 18 19  1  0
 19 20  1  0
 20 21  1  0
 21 22  1  0
 20 23  1  0
 23 24  2  0
 23 25  1  0
 25 26  1  0
 26 27  2  0
 27 28  1  0
 28 29  1  0
 29 30  2  0
 30 31  1  0
 31 32  2  0
 32 33  1  0
 33 34  2  0
  9  4  1  0
 16 11  1  0
 22 17  1  0
 34 26  1  0
 34 29  1  0
M  END
