CVD-0003198|dock_bobby27042020.88|mol2|39|dock2
     RDKit          3D

 26 28  0  0  0  0  0  0  0  0999 V2000
    9.5293   -2.1234   25.0117 C   0  0  0  0  0  0  0  0  0  0  0  0
   10.9068   -1.6383   24.6670 C   0  0  0  0  0  0  0  0  0  0  0  0
   11.3222   -0.5452   25.0389 O   0  0  0  0  0  0  0  0  0  0  0  0
   11.6478   -2.4575   23.9183 N   0  0  0  0  0  0  0  0  0  0  0  0
   12.9972   -2.1214   23.4871 C   0  0  0  0  0  0  0  0  0  0  0  0
   12.9934   -1.2291   22.2619 C   0  0  0  0  0  0  0  0  0  0  0  0
   11.8280   -0.2844   22.2279 C   0  0  0  0  0  0  0  0  0  0  0  0
   10.5239   -0.5889   22.0045 C   0  0  0  0  0  0  0  0  0  0  0  0
    9.7494    0.5327   22.0551 N   0  0  0  0  0  0  0  0  0  0  0  0
    8.3071    0.5757   21.8327 C   0  0  0  0  0  0  0  0  0  0  0  0
    7.9254   -0.1978   20.5714 C   0  0  0  0  0  0  0  0  0  0  0  0
    8.7902   -0.7880   19.9364 O   0  0  0  0  0  0  0  0  0  0  0  0
    6.6331   -0.2088   20.1757 N   0  0  0  0  0  0  0  0  0  0  0  0
    6.1764   -0.9047   18.9670 C   0  0  0  0  0  0  0  0  0  0  0  0
    5.2515   -0.0053   18.1725 C   0  0  0  0  0  0  0  0  0  0  0  0
    4.1603    0.4475   18.9484 O   0  0  0  0  0  0  0  0  0  0  0  0
    4.6315    1.1831   20.0778 C   0  0  0  0  0  0  0  0  0  0  0  0
    5.5163    0.3292   20.9586 C   0  0  0  0  0  0  0  0  0  0  0  0
   10.5710    1.6210   22.3033 C   0  0  0  0  0  0  0  0  0  0  0  0
   10.2922    2.9774   22.4332 C   0  0  0  0  0  0  0  0  0  0  0  0
   11.3302    3.8555   22.6939 C   0  0  0  0  0  0  0  0  0  0  0  0
   12.6365    3.3919   22.8251 C   0  0  0  0  0  0  0  0  0  0  0  0
   12.9154    2.0333   22.6916 C   0  0  0  0  0  0  0  0  0  0  0  0
   11.8835    1.1354   22.4258 C   0  0  0  0  0  0  0  0  0  0  0  0
   13.7084    4.3167   23.1001 C   0  0  0  0  0  0  0  0  0  0  0  0
   14.5791    5.0264   23.3070 N   0  0  0  0  0  0  0  0  0  0  0  0
  1  2  1  0
  2  3  2  0
  2  4  1  0
  4  5  1  0
  5  6  1  0
  6  7  1  0
  7  8  2  0
  8  9  1  0
  9 10  1  0
 10 11  1  0
 11 12  2  0
 11 13  1  0
 13 14  1  0
 14 15  1  0
 15 16  1  0
 16 17  1  0
 17 18  1  0
  9 19  1  0
 19 20  2  0
 20 21  1  0
 21 22  2  0
 22 23  1  0
 23 24  2  0
 22 25  1  0
 25 26  3  0
 24  7  1  0
 18 13  1  0
 24 19  1  0
M  END
