CVD-0002404|dock_bobby27042020.34|mol2|26|dock3
     RDKit          3D

 27 30  0  0  0  0  0  0  0  0999 V2000
    8.9887   -0.3628   24.4922 C   0  0  0  0  0  0  0  0  0  0  0  0
   10.2548   -0.6690   23.7356 C   0  0  0  0  0  0  0  0  0  0  0  0
   11.4837   -0.2784   24.2619 C   0  0  0  0  0  0  0  0  0  0  0  0
   12.6695   -0.5691   23.6111 C   0  0  0  0  0  0  0  0  0  0  0  0
   12.6493   -1.2596   22.4193 C   0  0  0  0  0  0  0  0  0  0  0  0
   11.4462   -1.6567   21.8595 C   0  0  0  0  0  0  0  0  0  0  0  0
   10.2565   -1.3477   22.5170 C   0  0  0  0  0  0  0  0  0  0  0  0
    9.0049   -1.7470   21.9082 N   0  0  0  0  0  0  0  0  0  0  0  0
    8.4084   -2.9832   22.2559 C   0  0  0  0  0  0  0  0  0  0  0  0
    8.9673   -3.8440   23.1991 C   0  0  0  0  0  0  0  0  0  0  0  0
    8.3422   -5.0417   23.4896 C   0  0  0  0  0  0  0  0  0  0  0  0
    9.0476   -6.1088   24.6591 Cl  0  0  0  0  0  0  0  0  0  0  0  0
    7.1662   -5.3812   22.8515 C   0  0  0  0  0  0  0  0  0  0  0  0
    6.5659   -6.5586   23.1399 F   0  0  0  0  0  0  0  0  0  0  0  0
    6.5926   -4.5465   21.9293 C   0  0  0  0  0  0  0  0  0  0  0  0
    7.2057   -3.3317   21.6247 C   0  0  0  0  0  0  0  0  0  0  0  0
    6.5612   -2.4505   20.6438 C   0  0  0  0  0  0  0  0  0  0  0  0
    5.5241   -2.7670   20.0861 O   0  0  0  0  0  0  0  0  0  0  0  0
    7.2282   -1.2348   20.3901 N   0  0  0  0  0  0  0  0  0  0  0  0
    6.6257   -0.3228   19.4343 C   0  0  0  0  0  0  0  0  0  0  0  0
    5.3557    0.2025   19.6385 C   0  0  0  0  0  0  0  0  0  0  0  0
    4.8160    1.0720   18.7074 C   0  0  0  0  0  0  0  0  0  0  0  0
    5.5622    1.3926   17.5975 C   0  0  0  0  0  0  0  0  0  0  0  0
    6.7816    0.9034   17.3742 N   0  0  0  0  0  0  0  0  0  0  0  0
    7.2902    0.0610   18.2789 C   0  0  0  0  0  0  0  0  0  0  0  0
    8.4358   -0.8549   20.9970 C   0  0  0  0  0  0  0  0  0  0  0  0
    8.9867    0.2085   20.7572 O   0  0  0  0  0  0  0  0  0  0  0  0
  1  2  1  0
  2  3  2  0
  3  4  1  0
  4  5  2  0
  5  6  1  0
  6  7  2  0
  7  8  1  0
  8  9  1  0
  9 10  2  0
 10 11  1  0
 11 12  1  0
 11 13  2  0
 13 14  1  0
 13 15  1  0
 15 16  2  0
 16 17  1  0
 17 18  2  0
 17 19  1  0
 19 20  1  0
 20 21  2  0
 21 22  1  0
 22 23  2  0
 23 24  1  0
 24 25  2  0
 19 26  1  0
 26 27  2  0
  7  2  1  0
 26  8  1  0
 16  9  1  0
 25 20  1  0
M  END
