CVD-0002710|dock_bobby27042020.4|mol2|38|dock1
     RDKit          3D

 30 32  0  0  0  0  0  0  0  0999 V2000
    5.2814    8.1609   23.2150 C   0  0  0  0  0  0  0  0  0  0  0  0
    6.5749    8.0503   22.4245 C   0  0  0  0  0  0  0  0  0  0  0  0
    6.3906    7.1674   21.2431 C   0  0  0  0  0  0  0  0  0  0  0  0
    7.6048    5.8404   21.3328 S   0  0  0  0  0  0  0  0  0  0  0  0
    8.2837    6.4671   22.8019 C   0  0  0  0  0  0  0  0  0  0  0  0
    9.2736    6.0548   23.5015 N   0  0  0  0  0  0  0  0  0  0  0  0
    9.9465    4.9198   23.0955 N   0  0  0  0  0  0  0  0  0  0  0  0
    9.6345    3.6888   23.5648 C   0  0  0  0  0  0  0  0  0  0  0  0
    8.7428    3.4565   24.3807 O   0  0  0  0  0  0  0  0  0  0  0  0
   10.4960    2.5423   23.0006 C   0  0  0  0  0  0  0  0  0  0  0  0
   11.4201    2.7733   22.2402 O   0  0  0  0  0  0  0  0  0  0  0  0
   10.1356    1.1169   23.4234 C   0  0  0  0  0  0  0  0  0  0  0  0
    8.9367    0.7092   22.7080 N   0  0  0  0  0  0  0  0  0  0  0  0
    8.7078    1.0801   21.4451 C   0  0  0  0  0  0  0  0  0  0  0  0
    9.4870    1.7867   20.8110 O   0  0  0  0  0  0  0  0  0  0  0  0
    7.4179    0.5728   20.8366 C   0  0  0  0  0  0  0  0  0  0  0  0
    6.3270    1.5797   21.0006 C   0  0  0  0  0  0  0  0  0  0  0  0
    4.9629    1.0475   20.6763 C   0  0  0  0  0  0  0  0  0  0  0  0
    4.6452    1.0666   19.2284 C   0  0  0  0  0  0  0  0  0  0  0  0
    5.4002    0.2365   18.3199 C   0  0  0  0  0  0  0  0  0  0  0  0
    6.4856   -0.6264   18.8441 C   0  0  0  0  0  0  0  0  0  0  0  0
    7.6370    0.1396   19.4242 C   0  0  0  0  0  0  0  0  0  0  0  0
   11.3010    0.1524   23.1721 C   0  0  0  0  0  0  0  0  0  0  0  0
   12.4737    0.4788   24.0887 C   0  0  0  0  0  0  0  0  0  0  0  0
   13.6067   -0.5009   23.8078 C   0  0  0  0  0  0  0  0  0  0  0  0
   13.1937   -1.8426   23.9798 O   0  0  0  0  0  0  0  0  0  0  0  0
   12.1397   -2.1787   23.0775 C   0  0  0  0  0  0  0  0  0  0  0  0
   10.9035   -1.3110   23.3131 C   0  0  0  0  0  0  0  0  0  0  0  0
    7.6551    7.5531   23.2482 N   0  0  0  0  0  0  0  0  0  0  0  0
    8.0650    8.2825   24.4445 C   0  0  0  0  0  0  0  0  0  0  0  0
  2  1  1  0
  2  3  1  0
  3  4  1  0
  4  5  1  0
  5  6  2  0
  6  7  1  0
  7  8  1  0
  8  9  2  0
  8 10  1  0
 10 11  2  0
 10 12  1  0
 12 13  1  0
 13 14  1  0
 14 15  2  0
 14 16  1  0
 16 17  1  0
 17 18  1  0
 18 19  1  0
 19 20  1  0
 20 21  1  0
 21 22  1  0
 12 23  1  0
 23 24  1  0
 24 25  1  0
 25 26  1  0
 26 27  1  0
 27 28  1  0
  5 29  1  0
 29 30  1  0
 29  2  1  0
 22 16  1  0
 28 23  1  0
M  END
