CVD-0002872|dock_bobby27042020.32|mol2|42|dock3
     RDKit          3D

 21 23  0  0  0  0  0  0  0  0999 V2000
   12.7080    6.2011   23.0871 F   0  0  0  0  0  0  0  0  0  0  0  0
   13.1397    5.0943   22.4934 C   0  0  0  0  0  0  0  0  0  0  0  0
   14.3472    4.8560   22.9927 F   0  0  0  0  0  0  0  0  0  0  0  0
   13.3254    5.4102   21.2167 F   0  0  0  0  0  0  0  0  0  0  0  0
   12.2004    3.9372   22.6727 C   0  0  0  0  0  0  0  0  0  0  0  0
   12.7398    2.6589   22.7800 C   0  0  0  0  0  0  0  0  0  0  0  0
   11.9296    1.5315   22.9476 C   0  0  0  0  0  0  0  0  0  0  0  0
   10.5450    1.7039   23.0112 C   0  0  0  0  0  0  0  0  0  0  0  0
    9.9755    2.9713   22.9129 C   0  0  0  0  0  0  0  0  0  0  0  0
    8.5794    3.4483   22.9493 C   0  0  0  0  0  0  0  0  0  0  0  0
    7.5425    2.8075   23.0820 O   0  0  0  0  0  0  0  0  0  0  0  0
    8.7004    4.9889   22.7780 C   0  0  0  0  0  0  0  0  0  0  0  0
    7.7750    5.7988   22.7495 O   0  0  0  0  0  0  0  0  0  0  0  0
   10.0288    5.2490   22.6678 N   0  0  0  0  0  0  0  0  0  0  0  0
   10.7974    4.1015   22.7421 C   0  0  0  0  0  0  0  0  0  0  0  0
   12.5305    0.1742   23.0561 C   0  0  0  0  0  0  0  0  0  0  0  0
   12.2247   -0.8335   22.1460 C   0  0  0  0  0  0  0  0  0  0  0  0
   12.8092   -2.0766   22.2869 C   0  0  0  0  0  0  0  0  0  0  0  0
   13.6641   -2.3892   23.2601 N   0  0  0  0  0  0  0  0  0  0  0  0
   13.9537   -1.4237   24.1315 C   0  0  0  0  0  0  0  0  0  0  0  0
   13.4251   -0.1493   24.0720 C   0  0  0  0  0  0  0  0  0  0  0  0
  1  2  1  0
  2  3  1  0
  2  4  1  0
  2  5  1  0
  5  6  2  0
  6  7  1  0
  7  8  2  0
  8  9  1  0
  9 10  1  0
 10 11  2  0
 10 12  1  0
 12 13  2  0
 12 14  1  0
 14 15  1  0
  7 16  1  0
 16 17  2  0
 17 18  1  0
 18 19  2  0
 19 20  1  0
 20 21  2  0
 15  5  1  0
 21 16  1  0
 15  9  2  0
M  END
