CVD-0000700|dock_bobby27042020.69|mol2|26|dock1
     RDKit          3D

 21 23  0  0  0  0  0  0  0  0999 V2000
    9.5642   -1.7049   20.5107 O   0  0  0  0  0  0  0  0  0  0  0  0
    9.1713   -0.5564   20.6857 C   0  0  0  0  0  0  0  0  0  0  0  0
    7.7760   -0.1517   20.2592 C   0  0  0  0  0  0  0  0  0  0  0  0
    7.0400   -1.1920   19.4692 C   0  0  0  0  0  0  0  0  0  0  0  0
    6.3797   -1.0167   18.2886 C   0  0  0  0  0  0  0  0  0  0  0  0
    5.8275   -2.1966   17.8660 N   0  0  0  0  0  0  0  0  0  0  0  0
    6.1251   -3.1668   18.7776 C   0  0  0  0  0  0  0  0  0  0  0  0
    5.7703   -4.4620   18.7346 N   0  0  0  0  0  0  0  0  0  0  0  0
    6.1858   -5.2245   19.7552 C   0  0  0  0  0  0  0  0  0  0  0  0
    6.9361   -4.7527   20.8112 C   0  0  0  0  0  0  0  0  0  0  0  0
    7.2934   -3.4138   20.8396 C   0  0  0  0  0  0  0  0  0  0  0  0
    6.8861   -2.5783   19.8017 C   0  0  0  0  0  0  0  0  0  0  0  0
    9.8900    0.4514   21.2379 N   0  0  0  0  0  0  0  0  0  0  0  0
   11.2127    0.4931   21.7453 C   0  0  0  0  0  0  0  0  0  0  0  0
   11.9948   -0.6457   21.9271 C   0  0  0  0  0  0  0  0  0  0  0  0
   13.2820   -0.5359   22.4276 C   0  0  0  0  0  0  0  0  0  0  0  0
   13.8076    0.7021   22.7532 C   0  0  0  0  0  0  0  0  0  0  0  0
   13.0365    1.8443   22.5762 C   0  0  0  0  0  0  0  0  0  0  0  0
   11.7425    1.7370   22.0733 C   0  0  0  0  0  0  0  0  0  0  0  0
   13.5705    3.1414   22.9112 C   0  0  0  0  0  0  0  0  0  0  0  0
   13.9705    4.1715   23.2004 N   0  0  0  0  0  0  0  0  0  0  0  0
  1  2  2  0
  2  3  1  0
  3  4  1  0
  4  5  2  0
  5  6  1  0
  6  7  1  0
  7  8  2  0
  8  9  1  0
  9 10  2  0
 10 11  1  0
 11 12  2  0
  2 13  1  0
 13 14  1  0
 14 15  2  0
 15 16  1  0
 16 17  2  0
 17 18  1  0
 18 19  2  0
 18 20  1  0
 20 21  3  0
 12  4  1  0
 19 14  1  0
 12  7  1  0
M  END
