CVD-0002130|dock_bobby27042020.7|mol2|17|dock2
     RDKit          3D

 21 22  0  0  0  0  0  0  0  0999 V2000
    4.5142    0.5628   18.9307 N   0  0  0  0  0  0  0  0  0  0  0  0
    5.6643   -0.1466   18.0716 S   0  0  0  0  0  0  0  0  0  0  0  0
    5.9373    0.6717   16.9247 O   0  0  0  0  0  0  0  0  0  0  0  0
    5.2989   -1.5211   17.8805 O   0  0  0  0  0  0  0  0  0  0  0  0
    7.1327   -0.1326   19.0845 C   0  0  0  0  0  0  0  0  0  0  0  0
    6.9013   -1.1591   20.5471 S   0  0  0  0  0  0  0  0  0  0  0  0
    8.6154   -1.3631   21.0969 C   0  0  0  0  0  0  0  0  0  0  0  0
    9.2555   -0.0561   21.5156 C   0  0  0  0  0  0  0  0  0  0  0  0
   10.5825   -0.2445   22.2013 C   0  0  0  0  0  0  0  0  0  0  0  0
   11.2849   -1.3997   22.3207 C   0  0  0  0  0  0  0  0  0  0  0  0
   12.7369   -1.1805   23.1800 S   0  0  0  0  0  0  0  0  0  0  0  0
   12.4194    0.4762   23.4048 C   0  0  0  0  0  0  0  0  0  0  0  0
   11.2470    0.8587   22.8369 C   0  0  0  0  0  0  0  0  0  0  0  0
   10.7416    2.2770   22.9051 C   0  0  0  0  0  0  0  0  0  0  0  0
   11.8041    3.2800   22.9943 N   0  0  0  0  0  0  0  0  0  0  0  0
   12.6817    3.2166   21.8195 C   0  0  0  0  0  0  0  0  0  0  0  0
   13.8226    4.2105   21.9147 C   0  0  0  0  0  0  0  0  0  0  0  0
   13.3405    5.6426   22.1109 C   0  0  0  0  0  0  0  0  0  0  0  0
   14.3952    6.5830   22.3313 O   0  0  0  0  0  0  0  0  0  0  0  0
   12.3530    5.6630   23.2724 C   0  0  0  0  0  0  0  0  0  0  0  0
   11.2492    4.6311   23.1113 C   0  0  0  0  0  0  0  0  0  0  0  0
  1  2  1  0
  2  3  2  0
  2  4  2  0
  2  5  1  0
  5  6  1  0
  6  7  1  0
  7  8  1  0
  8  9  1  0
  9 10  2  0
 10 11  1  0
 11 12  1  0
 12 13  2  0
 13 14  1  0
 14 15  1  0
 15 16  1  0
 16 17  1  0
 17 18  1  0
 18 19  1  0
 18 20  1  0
 20 21  1  0
 13  9  1  0
 21 15  1  0
M  END
