CVD-0001606|dock_bobby27042020.66|mol2|34|dock2
     RDKit          3D

 17 18  0  0  0  0  0  0  0  0999 V2000
   10.2446    2.3232   21.5469 F   0  0  0  0  0  0  0  0  0  0  0  0
   10.9956    2.1048   22.6767 C   0  0  0  0  0  0  0  0  0  0  0  0
   11.9631    3.1356   22.8057 N   0  0  0  0  0  0  0  0  0  0  0  0
   12.8549    3.1884   21.6489 C   0  0  0  0  0  0  0  0  0  0  0  0
   13.9540    4.1971   21.8772 C   0  0  0  0  0  0  0  0  0  0  0  0
   13.4024    5.5159   22.1941 N   0  0  0  0  0  0  0  0  0  0  0  0
   12.3952    5.4885   23.2577 C   0  0  0  0  0  0  0  0  0  0  0  0
   11.3467    4.4489   22.9636 C   0  0  0  0  0  0  0  0  0  0  0  0
   13.9375    6.6570   21.7914 C   0  0  0  0  0  0  0  0  0  0  0  0
   14.3694    7.6667   21.4615 N   0  0  0  0  0  0  0  0  0  0  0  0
   11.6047    0.8256   22.5990 N   0  0  0  0  0  0  0  0  0  0  0  0
   12.5833    0.5407   23.6704 C   0  0  0  0  0  0  0  0  0  0  0  0
   13.7230   -0.3618   23.2217 C   0  0  0  0  0  0  0  0  0  0  0  0
   13.4878   -1.8685   23.4347 C   0  0  0  0  0  0  0  0  0  0  0  0
   12.1160   -2.2046   23.2006 O   0  0  0  0  0  0  0  0  0  0  0  0
   11.5140   -1.6195   22.0507 C   0  0  0  0  0  0  0  0  0  0  0  0
   10.7561   -0.3528   22.3667 C   0  0  0  0  0  0  0  0  0  0  0  0
  1  2  1  0
  2  3  1  0
  3  4  1  0
  4  5  1  0
  5  6  1  0
  6  7  1  0
  7  8  1  0
  6  9  1  0
  9 10  3  0
  2 11  1  0
 11 12  1  0
 12 13  1  0
 13 14  1  0
 14 15  1  0
 15 16  1  0
 16 17  1  0
  8  3  1  0
 17 11  1  0
M  END
