CVD-0002397|dock_bobby27042020.20|mol2|17|dock3
     RDKit          3D

 26 29  0  0  0  0  0  0  0  0999 V2000
    6.6919   -6.5949   23.0976 F   0  0  0  0  0  0  0  0  0  0  0  0
    7.2350   -5.3985   22.7756 C   0  0  0  0  0  0  0  0  0  0  0  0
    6.6132   -4.5882   21.8649 C   0  0  0  0  0  0  0  0  0  0  0  0
    7.1981   -3.3632   21.5522 C   0  0  0  0  0  0  0  0  0  0  0  0
    8.4025   -3.0375   22.1867 C   0  0  0  0  0  0  0  0  0  0  0  0
    9.0022   -3.8296   23.0878 N   0  0  0  0  0  0  0  0  0  0  0  0
    8.4170   -4.9836   23.3598 C   0  0  0  0  0  0  0  0  0  0  0  0
    9.2202   -5.9920   24.5204 Cl  0  0  0  0  0  0  0  0  0  0  0  0
    8.9990   -1.8091   21.8643 N   0  0  0  0  0  0  0  0  0  0  0  0
   10.2563   -1.4342   22.4790 C   0  0  0  0  0  0  0  0  0  0  0  0
   10.2736   -0.6666   23.6385 C   0  0  0  0  0  0  0  0  0  0  0  0
   11.4749   -0.3072   24.2263 C   0  0  0  0  0  0  0  0  0  0  0  0
   12.6697   -0.7060   23.6686 C   0  0  0  0  0  0  0  0  0  0  0  0
   12.6660   -1.4663   22.5199 C   0  0  0  0  0  0  0  0  0  0  0  0
   11.4694   -1.8303   21.9254 C   0  0  0  0  0  0  0  0  0  0  0  0
    8.4333   -0.8995   20.9609 C   0  0  0  0  0  0  0  0  0  0  0  0
    8.9793    0.1646   20.7133 O   0  0  0  0  0  0  0  0  0  0  0  0
    7.2200   -1.2581   20.3524 N   0  0  0  0  0  0  0  0  0  0  0  0
    6.6227   -0.3273   19.4114 C   0  0  0  0  0  0  0  0  0  0  0  0
    5.3398    0.1744   19.5949 C   0  0  0  0  0  0  0  0  0  0  0  0
    4.8120    1.0602   18.6721 C   0  0  0  0  0  0  0  0  0  0  0  0
    5.5827    1.4209   17.5918 C   0  0  0  0  0  0  0  0  0  0  0  0
    6.8158    0.9570   17.3901 N   0  0  0  0  0  0  0  0  0  0  0  0
    7.3132    0.1000   18.2872 C   0  0  0  0  0  0  0  0  0  0  0  0
    6.5458   -2.4712   20.5890 C   0  0  0  0  0  0  0  0  0  0  0  0
    5.5039   -2.7763   20.0336 O   0  0  0  0  0  0  0  0  0  0  0  0
  1  2  1  0
  2  3  2  0
  3  4  1  0
  4  5  2  0
  5  6  1  0
  6  7  2  0
  7  8  1  0
  5  9  1  0
  9 10  1  0
 10 11  2  0
 11 12  1  0
 12 13  2  0
 13 14  1  0
 14 15  2  0
  9 16  1  0
 16 17  2  0
 16 18  1  0
 18 19  1  0
 19 20  2  0
 20 21  1  0
 21 22  2  0
 22 23  1  0
 23 24  2  0
 18 25  1  0
 25 26  2  0
  7  2  1  0
 15 10  1  0
 24 19  1  0
 25  4  1  0
M  END
