CVD-0002186|dock_bobby27042020.21|mol2|15|dock3
     RDKit          3D

 31 34  0  0  0  0  0  0  0  0999 V2000
    7.5869   -6.2155   20.5586 F   0  0  0  0  0  0  0  0  0  0  0  0
    7.0208   -6.1039   21.7905 C   0  0  0  0  0  0  0  0  0  0  0  0
    5.6699   -5.8876   21.8651 C   0  0  0  0  0  0  0  0  0  0  0  0
    5.0810   -5.7722   23.1122 C   0  0  0  0  0  0  0  0  0  0  0  0
    5.8781   -5.8792   24.2464 C   0  0  0  0  0  0  0  0  0  0  0  0
    5.5634   -5.8059   25.5812 N   0  0  0  0  0  0  0  0  0  0  0  0
    6.7058   -5.9749   26.3150 C   0  0  0  0  0  0  0  0  0  0  0  0
    7.7763   -6.1595   25.4905 C   0  0  0  0  0  0  0  0  0  0  0  0
    9.2064   -6.3802   25.8879 C   0  0  0  0  0  0  0  0  0  0  0  0
    9.9664   -5.0873   26.1071 C   0  0  0  0  0  0  0  0  0  0  0  0
   10.0634   -4.3007   24.8857 N   0  0  0  0  0  0  0  0  0  0  0  0
    9.5986   -3.0497   24.8221 C   0  0  0  0  0  0  0  0  0  0  0  0
    9.0722   -2.5213   25.7968 O   0  0  0  0  0  0  0  0  0  0  0  0
    9.7184   -2.2723   23.5425 C   0  0  0  0  0  0  0  0  0  0  0  0
    9.3219   -2.7637   22.3050 C   0  0  0  0  0  0  0  0  0  0  0  0
    9.4305   -2.0709   21.1683 N   0  0  0  0  0  0  0  0  0  0  0  0
    9.9466   -0.8401   21.2241 C   0  0  0  0  0  0  0  0  0  0  0  0
   10.3767   -0.2444   22.4069 C   0  0  0  0  0  0  0  0  0  0  0  0
   10.9258    1.0598   22.4831 N   0  0  0  0  0  0  0  0  0  0  0  0
   11.3883    1.7740   23.5612 C   0  0  0  0  0  0  0  0  0  0  0  0
   11.4116    1.3882   24.7262 O   0  0  0  0  0  0  0  0  0  0  0  0
   11.8377    3.0104   23.1786 N   0  0  0  0  0  0  0  0  0  0  0  0
   12.3793    4.3185   23.1968 C   0  0  0  0  0  0  0  0  0  0  0  0
   12.0907    5.2321   24.2104 C   0  0  0  0  0  0  0  0  0  0  0  0
   12.6494    6.4993   24.1768 C   0  0  0  0  0  0  0  0  0  0  0  0
   13.4901    6.8683   23.1494 C   0  0  0  0  0  0  0  0  0  0  0  0
   13.7793    5.9708   22.1452 C   0  0  0  0  0  0  0  0  0  0  0  0
   13.2286    4.7007   22.1649 C   0  0  0  0  0  0  0  0  0  0  0  0
   10.2518   -0.9895   23.5736 C   0  0  0  0  0  0  0  0  0  0  0  0
    7.2647   -6.1016   24.1509 C   0  0  0  0  0  0  0  0  0  0  0  0
    7.8422   -6.2155   22.8872 C   0  0  0  0  0  0  0  0  0  0  0  0
  1  2  1  0
  2  3  2  0
  3  4  1  0
  4  5  2  0
  5  6  1  0
  6  7  1  0
  7  8  2  0
  8  9  1  0
  9 10  1  0
 10 11  1  0
 11 12  1  0
 12 13  2  0
 12 14  1  0
 14 15  2  0
 15 16  1  0
 16 17  2  0
 17 18  1  0
 18 19  1  0
 19 20  1  0
 20 21  2  0
 20 22  1  0
 22 23  1  0
 23 24  2  0
 24 25  1  0
 25 26  2  0
 26 27  1  0
 27 28  2  0
 18 29  2  0
  8 30  1  0
 30 31  2  0
 31  2  1  0
 30  5  1  0
 29 14  1  0
 28 23  1  0
M  END
