CVD-0003715|dock_bobby27042020.87|mol2|7|dock3
     RDKit          3D

 36 38  0  0  0  0  0  0  0  0999 V2000
    8.6259   -0.4783   23.5316 C   0  0  0  0  0  0  0  0  0  0  0  0
    9.2314   -1.3892   22.4602 C   0  0  0  0  0  0  0  0  0  0  0  0
   10.7110   -1.6895   22.7715 C   0  0  0  0  0  0  0  0  0  0  0  0
   11.7188   -0.5445   22.7173 C   0  0  0  0  0  0  0  0  0  0  0  0
   11.9256    0.2218   24.0174 C   0  0  0  0  0  0  0  0  0  0  0  0
   12.4215    1.6321   23.8084 C   0  0  0  0  0  0  0  0  0  0  0  0
   13.6027    1.8756   23.1249 C   0  0  0  0  0  0  0  0  0  0  0  0
   14.0679    3.1641   22.9311 C   0  0  0  0  0  0  0  0  0  0  0  0
   13.3404    4.2310   23.4317 C   0  0  0  0  0  0  0  0  0  0  0  0
   12.1571    4.0117   24.1171 C   0  0  0  0  0  0  0  0  0  0  0  0
   11.7095    2.7154   24.2999 C   0  0  0  0  0  0  0  0  0  0  0  0
   13.9199    5.8822   23.1853 S   0  0  0  0  0  0  0  0  0  0  0  0
   13.4378    6.3790   21.7417 N   0  0  0  0  0  0  0  0  0  0  0  0
   15.3511    5.8340   23.1604 O   0  0  0  0  0  0  0  0  0  0  0  0
   13.2726    6.7121   24.1566 O   0  0  0  0  0  0  0  0  0  0  0  0
    8.4567   -2.7192   22.3338 C   0  0  0  0  0  0  0  0  0  0  0  0
    7.2095   -2.5449   21.4472 C   0  0  0  0  0  0  0  0  0  0  0  0
    7.4159   -2.5426   19.9375 C   0  0  0  0  0  0  0  0  0  0  0  0
    6.1410   -2.1854   19.1995 C   0  0  0  0  0  0  0  0  0  0  0  0
    5.7417   -0.8031   19.4902 N   0  0  0  0  0  0  0  0  0  0  0  0
    6.0203    0.3470   18.4086 S   0  0  0  0  0  0  0  0  0  0  0  0
    7.7503    0.4219   18.1470 C   0  0  0  0  0  0  0  0  0  0  0  0
    5.6063    1.5837   18.9959 O   0  0  0  0  0  0  0  0  0  0  0  0
    5.4043   -0.0689   17.1865 O   0  0  0  0  0  0  0  0  0  0  0  0
    8.1062   -3.3017   23.6931 C   0  0  0  0  0  0  0  0  0  0  0  0
    7.0387   -3.0308   24.2332 O   0  0  0  0  0  0  0  0  0  0  0  0
    9.0497   -4.1280   24.2340 N   0  0  0  0  0  0  0  0  0  0  0  0
    9.0014   -4.8142   25.4700 C   0  0  0  0  0  0  0  0  0  0  0  0
   10.0541   -5.3832   26.1148 C   0  0  0  0  0  0  0  0  0  0  0  0
    9.6750   -5.9958   27.2855 N   0  0  0  0  0  0  0  0  0  0  0  0
    8.3342   -5.8694   27.4024 C   0  0  0  0  0  0  0  0  0  0  0  0
    7.4635   -6.4725   28.3909 C   0  0  0  0  0  0  0  0  0  0  0  0
    6.2112   -6.7813   27.9419 C   0  0  0  0  0  0  0  0  0  0  0  0
    5.8431   -6.5314   26.6005 C   0  0  0  0  0  0  0  0  0  0  0  0
    6.5376   -5.7333   25.7803 C   0  0  0  0  0  0  0  0  0  0  0  0
    7.7638   -5.0084   26.3140 C   0  0  0  0  0  0  0  0  0  0  0  0
  1  2  1  0
  2  3  1  0
  3  4  1  0
  4  5  1  0
  5  6  1  0
  6  7  2  0
  7  8  1  0
  8  9  2  0
  9 10  1  0
 10 11  2  0
  9 12  1  0
 12 13  1  0
 12 14  2  0
 12 15  2  0
  2 16  1  0
 16 17  1  0
 17 18  1  0
 18 19  1  0
 19 20  1  0
 20 21  1  0
 21 22  1  0
 21 23  2  0
 21 24  2  0
 16 25  1  0
 25 26  2  0
 25 27  1  0
 27 28  1  0
 28 29  2  0
 29 30  1  0
 30 31  2  0
 31 32  1  0
 32 33  2  0
 33 34  1  0
 34 35  2  0
 35 36  1  0
 11  6  1  0
 36 28  1  0
 36 31  1  0
M  END
