CVD-0002041|dock_bobby27042020.7|mol2|34|dock2
     RDKit          3D

 26 28  0  0  0  0  0  0  0  0999 V2000
    5.5946   -5.2879   25.4862 C   0  0  0  0  0  0  0  0  0  0  0  0
    5.0766   -5.8876   24.2038 C   0  0  0  0  0  0  0  0  0  0  0  0
    4.0806   -6.8559   24.2887 C   0  0  0  0  0  0  0  0  0  0  0  0
    3.5768   -7.4227   23.1401 C   0  0  0  0  0  0  0  0  0  0  0  0
    3.9984   -7.0908   21.9239 N   0  0  0  0  0  0  0  0  0  0  0  0
    4.9580   -6.1651   21.8296 C   0  0  0  0  0  0  0  0  0  0  0  0
    5.5384   -5.5203   22.9236 C   0  0  0  0  0  0  0  0  0  0  0  0
    6.5562   -4.5268   22.8320 N   0  0  0  0  0  0  0  0  0  0  0  0
    6.8749   -3.6868   21.8060 C   0  0  0  0  0  0  0  0  0  0  0  0
    6.2900   -3.6576   20.7286 O   0  0  0  0  0  0  0  0  0  0  0  0
    8.0212   -2.7183   21.9912 C   0  0  0  0  0  0  0  0  0  0  0  0
    9.1355   -2.9628   22.7908 C   0  0  0  0  0  0  0  0  0  0  0  0
   10.1184   -1.9934   22.8789 C   0  0  0  0  0  0  0  0  0  0  0  0
    9.9965   -0.7990   22.1822 C   0  0  0  0  0  0  0  0  0  0  0  0
   11.0260    0.1692   22.2993 N   0  0  0  0  0  0  0  0  0  0  0  0
   10.9676    1.5439   22.3275 C   0  0  0  0  0  0  0  0  0  0  0  0
    9.9302    2.1933   22.2492 O   0  0  0  0  0  0  0  0  0  0  0  0
   12.2227    2.0945   22.4549 N   0  0  0  0  0  0  0  0  0  0  0  0
   12.6395    3.4482   22.5258 C   0  0  0  0  0  0  0  0  0  0  0  0
   11.7321    4.3757   23.0255 C   0  0  0  0  0  0  0  0  0  0  0  0
   12.0724    5.7142   23.1227 C   0  0  0  0  0  0  0  0  0  0  0  0
   13.3184    6.1441   22.7241 C   0  0  0  0  0  0  0  0  0  0  0  0
   14.2266    5.2355   22.2273 C   0  0  0  0  0  0  0  0  0  0  0  0
   13.8977    3.8938   22.1252 C   0  0  0  0  0  0  0  0  0  0  0  0
    8.8495   -0.6456   21.4090 C   0  0  0  0  0  0  0  0  0  0  0  0
    7.8876   -1.5696   21.3100 N   0  0  0  0  0  0  0  0  0  0  0  0
  1  2  1  0
  2  3  2  0
  3  4  1  0
  4  5  2  0
  5  6  1  0
  6  7  2  0
  7  8  1  0
  8  9  1  0
  9 10  2  0
  9 11  1  0
 11 12  2  0
 12 13  1  0
 13 14  2  0
 14 15  1  0
 15 16  1  0
 16 17  2  0
 16 18  1  0
 18 19  1  0
 19 20  2  0
 20 21  1  0
 21 22  2  0
 22 23  1  0
 23 24  2  0
 14 25  1  0
 25 26  2  0
  7  2  1  0
 26 11  1  0
 24 19  1  0
M  END
