CVD-0000371|dock_bobby27042020.56|mol2|17|dock2
     RDKit          3D

 25 27  0  0  0  0  0  0  0  0999 V2000
   14.1333    5.9813   22.4507 C   0  0  0  0  0  0  0  0  0  0  0  0
   13.6956    4.7960   21.6301 C   0  0  0  0  0  0  0  0  0  0  0  0
   12.3993    4.1930   22.1031 C   0  0  0  0  0  0  0  0  0  0  0  0
   12.2694    2.8361   22.3469 C   0  0  0  0  0  0  0  0  0  0  0  0
   11.0354    2.3571   22.7785 C   0  0  0  0  0  0  0  0  0  0  0  0
   10.0019    3.1939   22.9742 N   0  0  0  0  0  0  0  0  0  0  0  0
   10.2429    4.4786   22.7111 C   0  0  0  0  0  0  0  0  0  0  0  0
   11.3755    5.0367   22.2833 N   0  0  0  0  0  0  0  0  0  0  0  0
   10.7491    0.9222   23.0616 C   0  0  0  0  0  0  0  0  0  0  0  0
   11.6696    0.2127   23.8365 C   0  0  0  0  0  0  0  0  0  0  0  0
   11.4754   -1.1259   24.1280 C   0  0  0  0  0  0  0  0  0  0  0  0
   10.3645   -1.8114   23.6660 C   0  0  0  0  0  0  0  0  0  0  0  0
   10.1697   -3.2774   23.9758 C   0  0  0  0  0  0  0  0  0  0  0  0
    9.6574   -3.5531   25.3273 N   0  0  0  0  0  0  0  0  0  0  0  0
    9.6577   -4.9949   25.5915 C   0  0  0  0  0  0  0  0  0  0  0  0
    9.1676   -5.2707   27.0008 C   0  0  0  0  0  0  0  0  0  0  0  0
    7.8233   -4.7217   27.1916 N   0  0  0  0  0  0  0  0  0  0  0  0
    7.7764   -3.2904   26.8767 C   0  0  0  0  0  0  0  0  0  0  0  0
    8.2969   -3.0422   25.4727 C   0  0  0  0  0  0  0  0  0  0  0  0
    6.7797   -5.4676   27.6348 C   0  0  0  0  0  0  0  0  0  0  0  0
    5.4345   -4.8189   27.7835 C   0  0  0  0  0  0  0  0  0  0  0  0
    6.9372   -6.6550   27.8957 O   0  0  0  0  0  0  0  0  0  0  0  0
    9.4357   -1.1215   22.9000 C   0  0  0  0  0  0  0  0  0  0  0  0
    9.6373    0.2071   22.6266 C   0  0  0  0  0  0  0  0  0  0  0  0
    8.6837    0.8298   21.8971 F   0  0  0  0  0  0  0  0  0  0  0  0
  1  2  1  0
  2  3  1  0
  3  4  2  0
  4  5  1  0
  5  6  2  0
  6  7  1  0
  7  8  2  0
  5  9  1  0
  9 10  2  0
 10 11  1  0
 11 12  2  0
 12 13  1  0
 13 14  1  0
 14 15  1  0
 15 16  1  0
 16 17  1  0
 17 18  1  0
 18 19  1  0
 17 20  1  0
 20 21  1  0
 20 22  2  0
 12 23  1  0
 23 24  2  0
 24 25  1  0
  8  3  1  0
 24  9  1  0
 19 14  1  0
M  END
