CVD-0002535|dock_bobby27042020.5|mol2|21|dock3
     RDKit          3D

 25 28  0  0  0  0  0  0  0  0999 V2000
    5.8142   -2.0078   19.3748 C   0  0  0  0  0  0  0  0  0  0  0  0
    6.7805   -0.7951   19.9322 S   0  0  0  0  0  0  0  0  0  0  0  0
    6.9300   -0.3016   18.3673 C   0  0  0  0  0  0  0  0  0  0  0  0
    8.0596   -1.0606   20.9066 N   0  0  0  0  0  0  0  0  0  0  0  0
    8.2352   -2.3336   21.6314 C   0  0  0  0  0  0  0  0  0  0  0  0
    8.9828   -2.0663   22.9207 C   0  0  0  0  0  0  0  0  0  0  0  0
   10.3019   -1.5285   22.6617 N   0  0  0  0  0  0  0  0  0  0  0  0
   10.2968   -0.4114   21.7029 C   0  0  0  0  0  0  0  0  0  0  0  0
    8.8645    0.0401   21.4701 C   0  0  0  0  0  0  0  0  0  0  0  0
   11.1461    0.7562   22.1656 C   0  0  0  0  0  0  0  0  0  0  0  0
   10.6038    2.0280   22.3426 C   0  0  0  0  0  0  0  0  0  0  0  0
   11.4562    3.0772   22.6279 C   0  0  0  0  0  0  0  0  0  0  0  0
   12.7792    2.9535   22.7475 N   0  0  0  0  0  0  0  0  0  0  0  0
   13.2994    1.7349   22.5782 C   0  0  0  0  0  0  0  0  0  0  0  0
   12.5244    0.6188   22.2893 C   0  0  0  0  0  0  0  0  0  0  0  0
   13.2313   -0.6078   22.2883 N   0  0  0  0  0  0  0  0  0  0  0  0
   12.8519   -1.8667   22.6177 C   0  0  0  0  0  0  0  0  0  0  0  0
   13.6909   -2.7659   22.6038 O   0  0  0  0  0  0  0  0  0  0  0  0
   11.4253   -2.2175   23.0698 C   0  0  0  0  0  0  0  0  0  0  0  0
   11.2984   -3.2374   23.7276 O   0  0  0  0  0  0  0  0  0  0  0  0
    5.7278    0.3603   20.7387 C   0  0  0  0  0  0  0  0  0  0  0  0
    5.2733    1.5946   20.1622 C   0  0  0  0  0  0  0  0  0  0  0  0
    4.4633    2.3112   20.9994 C   0  0  0  0  0  0  0  0  0  0  0  0
    4.2415    1.5101   22.4828 S   0  0  0  0  0  0  0  0  0  0  0  0
    5.2291    0.2300   21.9734 C   0  0  0  0  0  0  0  0  0  0  0  0
  1  2  2  0
  2  3  2  0
  2  4  1  0
  4  5  1  0
  5  6  1  0
  6  7  1  0
  7  8  1  0
  8  9  1  0
  8 10  1  0
 10 11  2  0
 11 12  1  0
 12 13  2  0
 13 14  1  0
 14 15  2  0
 15 16  1  0
 16 17  1  0
 17 18  2  0
 17 19  1  0
 19 20  2  0
  2 21  1  0
 21 22  1  0
 22 23  2  0
 23 24  1  0
 24 25  1  0
  9  4  1  0
 15 10  1  0
 25 21  2  0
 19  7  1  0
M  END
