CVD-0001283|dock_bobby27042020.24|mol2|24|dock3
     RDKit          3D

 18 19  0  0  0  0  0  0  0  0999 V2000
    9.2438   -1.9903   20.6356 O   0  0  0  0  0  0  0  0  0  0  0  0
    8.7967   -1.6764   21.7344 C   0  0  0  0  0  0  0  0  0  0  0  0
    7.3525   -1.9449   22.1018 C   0  0  0  0  0  0  0  0  0  0  0  0
    6.4246   -2.2276   20.9336 C   0  0  0  0  0  0  0  0  0  0  0  0
    5.9036   -3.3286   20.8077 O   0  0  0  0  0  0  0  0  0  0  0  0
    6.2044   -1.2347   20.0466 N   0  0  0  0  0  0  0  0  0  0  0  0
    5.3163   -1.3844   18.8880 C   0  0  0  0  0  0  0  0  0  0  0  0
    5.9902   -0.8352   17.6471 C   0  0  0  0  0  0  0  0  0  0  0  0
    6.3929    0.5090   17.8159 O   0  0  0  0  0  0  0  0  0  0  0  0
    7.3125    0.6141   18.9032 C   0  0  0  0  0  0  0  0  0  0  0  0
    6.6886    0.1409   20.1973 C   0  0  0  0  0  0  0  0  0  0  0  0
    9.5354   -1.0800   22.6726 N   0  0  0  0  0  0  0  0  0  0  0  0
   10.9461   -0.7459   22.4765 C   0  0  0  0  0  0  0  0  0  0  0  0
   11.4157    0.3108   23.4974 C   0  0  0  0  0  0  0  0  0  0  0  0
   12.9041    0.6279   23.3654 C   0  0  0  0  0  0  0  0  0  0  0  0
   13.7499   -0.6362   23.4472 C   0  0  0  0  0  0  0  0  0  0  0  0
   13.3034   -1.6634   22.4167 C   0  0  0  0  0  0  0  0  0  0  0  0
   11.8257   -2.0035   22.5809 C   0  0  0  0  0  0  0  0  0  0  0  0
  1  2  2  0
  2  3  1  0
  3  4  1  0
  4  5  2  0
  4  6  1  0
  6  7  1  0
  7  8  1  0
  8  9  1  0
  9 10  1  0
 10 11  1  0
  2 12  1  0
 12 13  1  0
 13 14  1  0
 14 15  1  0
 15 16  1  0
 16 17  1  0
 17 18  1  0
 11  6  1  0
 18 13  1  0
M  END
