CVD-0000347|dock_bobby27042020.27|mol2|27|dock1
     RDKit          3D

 30 32  0  0  0  0  0  0  0  0999 V2000
    7.9044    4.5400   22.1025 C   0  0  0  0  0  0  0  0  0  0  0  0
    8.2729    3.0643   22.1570 C   0  0  0  0  0  0  0  0  0  0  0  0
    9.1572    2.7468   23.3581 C   0  0  0  0  0  0  0  0  0  0  0  0
   10.5735    3.2518   23.2086 C   0  0  0  0  0  0  0  0  0  0  0  0
   10.8024    4.6132   23.3806 C   0  0  0  0  0  0  0  0  0  0  0  0
   12.0713    5.1133   23.2610 C   0  0  0  0  0  0  0  0  0  0  0  0
   12.2913    6.4377   23.4266 F   0  0  0  0  0  0  0  0  0  0  0  0
   13.1239    4.2798   22.9744 C   0  0  0  0  0  0  0  0  0  0  0  0
   14.3700    4.7943   22.8620 F   0  0  0  0  0  0  0  0  0  0  0  0
   12.9268    2.9350   22.8011 C   0  0  0  0  0  0  0  0  0  0  0  0
   11.6445    2.3991   22.9128 C   0  0  0  0  0  0  0  0  0  0  0  0
   11.4298    0.9135   22.7095 C   0  0  0  0  0  0  0  0  0  0  0  0
   11.3579    0.0957   23.9698 C   0  0  0  0  0  0  0  0  0  0  0  0
   11.1085   -1.3044   23.6307 N   0  0  0  0  0  0  0  0  0  0  0  0
    9.9605   -1.4880   22.7451 C   0  0  0  0  0  0  0  0  0  0  0  0
   10.0894   -0.5941   21.5477 C   0  0  0  0  0  0  0  0  0  0  0  0
   10.2587    0.7634   21.9199 O   0  0  0  0  0  0  0  0  0  0  0  0
   11.9157   -2.2959   24.1029 C   0  0  0  0  0  0  0  0  0  0  0  0
   11.6779   -3.4645   23.8014 O   0  0  0  0  0  0  0  0  0  0  0  0
   13.1128   -2.0718   24.9748 C   0  0  0  0  0  0  0  0  0  0  0  0
   14.3514   -2.4127   24.7173 C   0  0  0  0  0  0  0  0  0  0  0  0
    7.0623    2.2236   22.1381 N   0  0  0  0  0  0  0  0  0  0  0  0
    6.8001    1.2225   21.2473 C   0  0  0  0  0  0  0  0  0  0  0  0
    6.4648   -0.0467   21.7165 C   0  0  0  0  0  0  0  0  0  0  0  0
    6.2034   -1.0454   20.7959 C   0  0  0  0  0  0  0  0  0  0  0  0
    6.2791   -0.7667   19.4363 C   0  0  0  0  0  0  0  0  0  0  0  0
    6.6214    0.5299   19.0653 C   0  0  0  0  0  0  0  0  0  0  0  0
    6.8771    1.5062   19.9435 N   0  0  0  0  0  0  0  0  0  0  0  0
    6.0132   -1.7826   18.4479 C   0  0  0  0  0  0  0  0  0  0  0  0
    5.8331   -2.5826   17.6526 N   0  0  0  0  0  0  0  0  0  0  0  0
  2  1  1  0
  2  3  1  0
  3  4  1  0
  4  5  2  0
  5  6  1  0
  6  7  1  0
  6  8  2  0
  8  9  1  0
  8 10  1  0
 10 11  2  0
 12 11  1  0
 12 13  1  0
 13 14  1  0
 14 15  1  0
 15 16  1  0
 16 17  1  0
 14 18  1  0
 18 19  2  0
 18 20  1  0
 20 21  2  0
  2 22  1  0
 22 23  1  0
 23 24  2  0
 24 25  1  0
 25 26  2  0
 26 27  1  0
 27 28  2  0
 26 29  1  0
 29 30  3  0
 11  4  1  0
 17 12  1  0
 28 23  1  0
M  END
