CVD-0000328|dock_bobby27042020.99|mol2|4|dock2
     RDKit          3D

 28 31  0  0  0  0  0  0  0  0999 V2000
   10.9394    6.4060   23.3323 C   0  0  0  0  0  0  0  0  0  0  0  0
   11.9814    5.4927   22.7944 C   0  0  0  0  0  0  0  0  0  0  0  0
   11.3388    4.3122   22.2983 O   0  0  0  0  0  0  0  0  0  0  0  0
   11.8709    3.0708   22.5518 C   0  0  0  0  0  0  0  0  0  0  0  0
   13.2210    2.8195   22.7205 C   0  0  0  0  0  0  0  0  0  0  0  0
   13.7216    1.6099   22.9945 N   0  0  0  0  0  0  0  0  0  0  0  0
   12.8754    0.5747   23.1250 C   0  0  0  0  0  0  0  0  0  0  0  0
   11.5059    0.7461   22.9604 C   0  0  0  0  0  0  0  0  0  0  0  0
   10.9738    1.9985   22.6558 C   0  0  0  0  0  0  0  0  0  0  0  0
    9.4932    2.0826   22.4713 C   0  0  0  0  0  0  0  0  0  0  0  0
    8.7081    3.0170   23.1375 C   0  0  0  0  0  0  0  0  0  0  0  0
    7.3412    3.0583   22.9369 C   0  0  0  0  0  0  0  0  0  0  0  0
    6.7310    2.1761   22.0623 C   0  0  0  0  0  0  0  0  0  0  0  0
    7.4863    1.2300   21.3752 C   0  0  0  0  0  0  0  0  0  0  0  0
    8.8640    1.1993   21.5931 C   0  0  0  0  0  0  0  0  0  0  0  0
    6.8881    0.2946   20.4566 N   0  0  0  0  0  0  0  0  0  0  0  0
    5.9020   -0.6918   20.9045 C   0  0  0  0  0  0  0  0  0  0  0  0
    5.5103   -1.4291   19.6475 C   0  0  0  0  0  0  0  0  0  0  0  0
    6.4396   -0.9684   18.5533 C   0  0  0  0  0  0  0  0  0  0  0  0
    7.2389    0.1589   19.1348 C   0  0  0  0  0  0  0  0  0  0  0  0
    8.0735    0.8644   18.5839 O   0  0  0  0  0  0  0  0  0  0  0  0
   13.4620   -0.7560   23.4562 C   0  0  0  0  0  0  0  0  0  0  0  0
   13.8554   -0.9588   24.7784 C   0  0  0  0  0  0  0  0  0  0  0  0
   14.4015   -2.0862   25.2414 N   0  0  0  0  0  0  0  0  0  0  0  0
   14.5834   -3.0694   24.3616 C   0  0  0  0  0  0  0  0  0  0  0  0
   14.2269   -2.9777   23.0318 C   0  0  0  0  0  0  0  0  0  0  0  0
   13.6445   -1.8099   22.5450 C   0  0  0  0  0  0  0  0  0  0  0  0
   13.2420   -1.7549   21.0940 C   0  0  0  0  0  0  0  0  0  0  0  0
  1  2  1  0
  2  3  1  0
  3  4  1  0
  4  5  2  0
  5  6  1  0
  6  7  2  0
  7  8  1  0
  8  9  2  0
  9 10  1  0
 10 11  2  0
 11 12  1  0
 12 13  2  0
 13 14  1  0
 14 15  2  0
 14 16  1  0
 16 17  1  0
 17 18  1  0
 18 19  1  0
 19 20  1  0
 20 21  2  0
  7 22  1  0
 22 23  2  0
 23 24  1  0
 24 25  2  0
 25 26  1  0
 26 27  2  0
 27 28  1  0
  9  4  1  0
 15 10  1  0
 20 16  1  0
 27 22  1  0
M  END
