CVD-0000932|dock_bobby27042020.40|mol2|4|dock3
     RDKit          3D

 42 45  0  0  0  0  0  0  0  0999 V2000
    5.9644   -6.2214   21.8982 C   0  0  0  0  0  0  0  0  0  0  0  0
    6.4415   -5.3472   23.0354 C   0  0  0  0  0  0  0  0  0  0  0  0
    5.3860   -4.9927   23.8373 N   0  0  0  0  0  0  0  0  0  0  0  0
    7.4637   -6.0546   23.7825 N   0  0  0  0  0  0  0  0  0  0  0  0
    8.0107   -5.3969   24.9753 C   0  0  0  0  0  0  0  0  0  0  0  0
    7.1129   -5.7314   26.1742 C   0  0  0  0  0  0  0  0  0  0  0  0
    7.7797   -5.4827   27.5101 C   0  0  0  0  0  0  0  0  0  0  0  0
    8.1126   -6.5558   28.2100 N   0  0  0  0  0  0  0  0  0  0  0  0
    7.9931   -4.3338   27.9078 O   0  0  0  0  0  0  0  0  0  0  0  0
    8.0846   -3.8851   24.7677 C   0  0  0  0  0  0  0  0  0  0  0  0
    7.4005   -3.1346   25.4584 O   0  0  0  0  0  0  0  0  0  0  0  0
    8.9071   -3.4371   23.8143 N   0  0  0  0  0  0  0  0  0  0  0  0
    9.0577   -2.0164   23.5213 C   0  0  0  0  0  0  0  0  0  0  0  0
    7.7187   -1.4163   23.0781 C   0  0  0  0  0  0  0  0  0  0  0  0
    7.3982   -1.6094   21.6142 C   0  0  0  0  0  0  0  0  0  0  0  0
    8.4572   -0.8440   20.8486 C   0  0  0  0  0  0  0  0  0  0  0  0
    9.8888   -1.3619   21.0483 C   0  0  0  0  0  0  0  0  0  0  0  0
   10.1554   -1.6778   22.5234 N   0  0  0  0  0  0  0  0  0  0  0  0
   11.3712   -1.7722   23.1240 C   0  0  0  0  0  0  0  0  0  0  0  0
   11.5270   -2.1037   24.2926 O   0  0  0  0  0  0  0  0  0  0  0  0
   12.5938   -1.4575   22.2832 C   0  0  0  0  0  0  0  0  0  0  0  0
   14.0919   -2.0207   23.0355 Cl  0  0  0  0  0  0  0  0  0  0  0  0
    8.4517    0.6127   21.2088 C   0  0  0  0  0  0  0  0  0  0  0  0
    9.5217    1.2564   21.5546 N   0  0  0  0  0  0  0  0  0  0  0  0
    9.2366    2.5897   21.8397 C   0  0  0  0  0  0  0  0  0  0  0  0
   10.1273    3.5861   22.2408 C   0  0  0  0  0  0  0  0  0  0  0  0
    9.6880    4.8818   22.4892 C   0  0  0  0  0  0  0  0  0  0  0  0
   10.6726    5.9467   22.9272 C   0  0  0  0  0  0  0  0  0  0  0  0
   10.9076    5.9887   24.4234 C   0  0  0  0  0  0  0  0  0  0  0  0
    9.8467    5.8991   25.3112 C   0  0  0  0  0  0  0  0  0  0  0  0
   10.0502    5.9391   26.6791 C   0  0  0  0  0  0  0  0  0  0  0  0
   11.3384    6.0709   27.1702 C   0  0  0  0  0  0  0  0  0  0  0  0
   12.4130    6.1656   26.3016 C   0  0  0  0  0  0  0  0  0  0  0  0
   12.1880    6.1235   24.9371 C   0  0  0  0  0  0  0  0  0  0  0  0
   11.6116    6.1291   28.9153 S   0  0  0  0  0  0  0  0  0  0  0  0
   13.1869    6.0380   29.1854 N   0  0  0  0  0  0  0  0  0  0  0  0
   11.0165    4.9556   29.4807 O   0  0  0  0  0  0  0  0  0  0  0  0
   11.1771    7.4145   29.3735 O   0  0  0  0  0  0  0  0  0  0  0  0
    8.3433    5.1843   22.3369 C   0  0  0  0  0  0  0  0  0  0  0  0
    7.4359    4.2194   21.9408 C   0  0  0  0  0  0  0  0  0  0  0  0
    7.8859    2.9262   21.6937 C   0  0  0  0  0  0  0  0  0  0  0  0
    6.9680    1.5381   21.1898 S   0  0  0  0  0  0  0  0  0  0  0  0
  1  2  1  0
  2  3  1  0
  2  4  1  0
  4  5  1  0
  5  6  1  0
  6  7  1  0
  7  8  1  0
  7  9  2  0
  5 10  1  0
 10 11  2  0
 10 12  1  0
 12 13  1  0
 13 14  1  0
 14 15  1  0
 15 16  1  0
 16 17  1  0
 17 18  1  0
 18 19  1  0
 19 20  2  0
 19 21  1  0
 21 22  1  0
 16 23  1  0
 23 24  2  0
 24 25  1  0
 25 26  2  0
 26 27  1  0
 27 28  1  0
 28 29  1  0
 29 30  2  0
 30 31  1  0
 31 32  2  0
 32 33  1  0
 33 34  2  0
 32 35  1  0
 35 36  1  0
 35 37  2  0
 35 38  2  0
 27 39  2  0
 39 40  1  0
 40 41  2  0
 41 42  1  0
 18 13  1  0
 42 23  1  0
 41 25  1  0
 34 29  1  0
M  END
