CVD-0001330|dock_bobby27042020.53|mol2|7|dock3
     RDKit          3D

 35 38  0  0  0  0  0  0  0  0999 V2000
    7.5695   -6.0160   22.6621 C   0  0  0  0  0  0  0  0  0  0  0  0
    8.0970   -4.9356   23.1538 C   0  0  0  0  0  0  0  0  0  0  0  0
    7.5127   -3.5676   23.0535 C   0  0  0  0  0  0  0  0  0  0  0  0
    7.7931   -2.7420   24.2345 N   0  0  0  0  0  0  0  0  0  0  0  0
    7.0727   -2.6675   25.4280 C   0  0  0  0  0  0  0  0  0  0  0  0
    7.6046   -1.7795   26.3013 C   0  0  0  0  0  0  0  0  0  0  0  0
    8.9966   -0.9803   25.7078 S   0  0  0  0  0  0  0  0  0  0  0  0
    8.8673   -1.8722   24.2250 C   0  0  0  0  0  0  0  0  0  0  0  0
    9.6502   -1.7778   23.2008 N   0  0  0  0  0  0  0  0  0  0  0  0
   10.6492   -0.8271   23.4593 N   0  0  0  0  0  0  0  0  0  0  0  0
   10.4971    0.2694   22.8116 C   0  0  0  0  0  0  0  0  0  0  0  0
   11.4339    1.3503   22.9612 C   0  0  0  0  0  0  0  0  0  0  0  0
   11.3938    2.4512   22.2019 C   0  0  0  0  0  0  0  0  0  0  0  0
   12.2867    3.5703   22.2862 C   0  0  0  0  0  0  0  0  0  0  0  0
   13.0131    4.2312   21.3539 C   0  0  0  0  0  0  0  0  0  0  0  0
   13.7116    5.2590   22.0304 C   0  0  0  0  0  0  0  0  0  0  0  0
   13.3782    5.1679   23.3101 C   0  0  0  0  0  0  0  0  0  0  0  0
   12.4994    4.1377   23.5131 O   0  0  0  0  0  0  0  0  0  0  0  0
    5.8590   -3.5076   25.6710 C   0  0  0  0  0  0  0  0  0  0  0  0
    4.7600   -3.0149   25.4426 O   0  0  0  0  0  0  0  0  0  0  0  0
    5.9267   -4.7745   26.1305 N   0  0  0  0  0  0  0  0  0  0  0  0
    7.1864   -5.4112   26.5215 C   0  0  0  0  0  0  0  0  0  0  0  0
    7.0884   -5.9572   27.9339 C   0  0  0  0  0  0  0  0  0  0  0  0
    5.9844   -6.9165   28.0315 N   0  0  0  0  0  0  0  0  0  0  0  0
    5.9099   -7.4790   29.3889 C   0  0  0  0  0  0  0  0  0  0  0  0
    7.1499   -8.2276   29.7548 C   0  0  0  0  0  0  0  0  0  0  0  0
    7.4786   -9.4103   29.2726 C   0  0  0  0  0  0  0  0  0  0  0  0
    8.6768  -10.1959   29.5896 C   0  0  0  0  0  0  0  0  0  0  0  0
    9.4655  -10.7415   28.5803 C   0  0  0  0  0  0  0  0  0  0  0  0
   10.5961  -11.4827   28.8806 C   0  0  0  0  0  0  0  0  0  0  0  0
   10.9591  -11.6922   30.1936 C   0  0  0  0  0  0  0  0  0  0  0  0
   10.1918  -11.1606   31.2074 C   0  0  0  0  0  0  0  0  0  0  0  0
    9.0607  -10.4190   30.9093 C   0  0  0  0  0  0  0  0  0  0  0  0
    4.7352   -6.2422   27.6880 C   0  0  0  0  0  0  0  0  0  0  0  0
    4.7921   -5.6919   26.2745 C   0  0  0  0  0  0  0  0  0  0  0  0
  1  2  2  0
  2  3  1  0
  3  4  1  0
  4  5  1  0
  5  6  2  0
  6  7  1  0
  7  8  1  0
  8  9  2  0
  9 10  1  0
 10 11  2  0
 11 12  1  0
 12 13  2  0
 13 14  1  0
 14 15  2  0
 15 16  1  0
 16 17  2  0
 17 18  1  0
  5 19  1  0
 19 20  2  0
 19 21  1  0
 21 22  1  0
 22 23  1  0
 23 24  1  0
 24 25  1  0
 25 26  1  0
 26 27  2  0
 27 28  1  0
 28 29  2  0
 29 30  1  0
 30 31  2  0
 31 32  1  0
 32 33  2  0
 24 34  1  0
 34 35  1  0
  8  4  1  0
 18 14  1  0
 35 21  1  0
 33 28  1  0
M  END
