CVD-0001060|dock_bobby27042020.68|mol2|18|dock3
     RDKit          3D

 22 25  0  0  0  0  0  0  0  0999 V2000
    8.5749   -0.6893   18.0985 Cl  0  0  0  0  0  0  0  0  0  0  0  0
    7.5052   -0.0367   19.2998 C   0  0  0  0  0  0  0  0  0  0  0  0
    6.4154    0.4457   18.7815 N   0  0  0  0  0  0  0  0  0  0  0  0
    5.4822    0.9930   19.6196 C   0  0  0  0  0  0  0  0  0  0  0  0
    4.2864    1.5260   19.0854 C   0  0  0  0  0  0  0  0  0  0  0  0
    3.3447    2.0752   19.9019 C   0  0  0  0  0  0  0  0  0  0  0  0
    3.5586    2.1125   21.2649 C   0  0  0  0  0  0  0  0  0  0  0  0
    2.2264    2.8850   22.3767 Br  0  0  0  0  0  0  0  0  0  0  0  0
    4.6907    1.6147   21.8358 C   0  0  0  0  0  0  0  0  0  0  0  0
    5.6873    1.0381   21.0154 C   0  0  0  0  0  0  0  0  0  0  0  0
    6.8935    0.4956   21.5080 C   0  0  0  0  0  0  0  0  0  0  0  0
    7.8276   -0.0528   20.6642 C   0  0  0  0  0  0  0  0  0  0  0  0
    9.0445   -0.5841   21.3131 C   0  0  0  0  0  0  0  0  0  0  0  0
    9.2102   -0.7214   22.5965 N   0  0  0  0  0  0  0  0  0  0  0  0
   10.4892   -1.2503   22.7378 C   0  0  0  0  0  0  0  0  0  0  0  0
   11.2259   -1.6119   23.8652 C   0  0  0  0  0  0  0  0  0  0  0  0
   12.4967   -2.1192   23.6675 C   0  0  0  0  0  0  0  0  0  0  0  0
   13.5219   -2.6196   25.1861 Br  0  0  0  0  0  0  0  0  0  0  0  0
   13.0510   -2.2769   22.4112 C   0  0  0  0  0  0  0  0  0  0  0  0
   12.3143   -1.9160   21.2973 C   0  0  0  0  0  0  0  0  0  0  0  0
   11.0403   -1.4071   21.4882 C   0  0  0  0  0  0  0  0  0  0  0  0
   10.1186   -0.9807   20.5539 O   0  0  0  0  0  0  0  0  0  0  0  0
  1  2  1  0
  2  3  2  0
  3  4  1  0
  4  5  2  0
  5  6  1  0
  6  7  2  0
  7  8  1  0
  7  9  1  0
  9 10  2  0
 10 11  1  0
 11 12  2  0
 12 13  1  0
 13 14  2  0
 14 15  1  0
 15 16  2  0
 16 17  1  0
 17 18  1  0
 17 19  2  0
 19 20  1  0
 20 21  2  0
 21 22  1  0
 12  2  1  0
 22 13  1  0
 10  4  1  0
 21 15  1  0
M  END
