CVD-0000969|dock_bobby27042020.68|mol2|33|dock2
     RDKit          3D

 29 32  0  0  0  0  0  0  0  0999 V2000
    6.9104   -0.7902   19.3841 N   0  0  0  0  0  0  0  0  0  0  0  0
    6.3225   -1.7798   20.4960 S   0  0  0  0  0  0  0  0  0  0  0  0
    5.7075   -2.8904   19.8325 O   0  0  0  0  0  0  0  0  0  0  0  0
    5.5026   -0.9756   21.3517 O   0  0  0  0  0  0  0  0  0  0  0  0
    7.6379   -2.4025   21.5131 C   0  0  0  0  0  0  0  0  0  0  0  0
    8.8146   -1.6728   21.4087 C   0  0  0  0  0  0  0  0  0  0  0  0
    9.9649   -2.0774   22.0628 C   0  0  0  0  0  0  0  0  0  0  0  0
    9.9166   -3.2316   22.8247 C   0  0  0  0  0  0  0  0  0  0  0  0
    8.7433   -3.9478   22.9740 C   0  0  0  0  0  0  0  0  0  0  0  0
    7.5637   -3.5310   22.3572 C   0  0  0  0  0  0  0  0  0  0  0  0
    6.3727   -4.2584   22.6079 N   0  0  0  0  0  0  0  0  0  0  0  0
    6.1679   -5.6334   22.1289 C   0  0  0  0  0  0  0  0  0  0  0  0
    5.4378   -6.4577   23.1743 C   0  0  0  0  0  0  0  0  0  0  0  0
    4.1698   -5.8281   23.5418 N   0  0  0  0  0  0  0  0  0  0  0  0
    3.4228   -6.6942   24.4522 C   0  0  0  0  0  0  0  0  0  0  0  0
    2.8641   -7.8955   23.8075 C   0  0  0  0  0  0  0  0  0  0  0  0
    2.4665   -8.8374   23.3124 N   0  0  0  0  0  0  0  0  0  0  0  0
    4.4736   -4.5285   24.1432 C   0  0  0  0  0  0  0  0  0  0  0  0
    5.1631   -3.6168   23.1421 C   0  0  0  0  0  0  0  0  0  0  0  0
   11.2539   -1.2765   21.9389 C   0  0  0  0  0  0  0  0  0  0  0  0
   12.1563   -1.7944   20.9200 N   0  0  0  0  0  0  0  0  0  0  0  0
   13.3646   -2.1660   21.3841 C   0  0  0  0  0  0  0  0  0  0  0  0
   14.2775   -2.6454   20.7204 O   0  0  0  0  0  0  0  0  0  0  0  0
   13.3666   -1.8656   22.8328 C   0  0  0  0  0  0  0  0  0  0  0  0
   14.3611   -2.0215   23.7974 C   0  0  0  0  0  0  0  0  0  0  0  0
   14.0983   -1.6436   25.1061 C   0  0  0  0  0  0  0  0  0  0  0  0
   12.8683   -1.1198   25.4506 C   0  0  0  0  0  0  0  0  0  0  0  0
   11.8813   -0.9663   24.4893 C   0  0  0  0  0  0  0  0  0  0  0  0
   12.1310   -1.3412   23.1716 C   0  0  0  0  0  0  0  0  0  0  0  0
  1  2  1  0
  2  3  2  0
  2  4  2  0
  2  5  1  0
  5  6  2  0
  6  7  1  0
  7  8  2  0
  8  9  1  0
  9 10  2  0
 10 11  1  0
 11 12  1  0
 12 13  1  0
 13 14  1  0
 14 15  1  0
 15 16  1  0
 16 17  3  0
 14 18  1  0
 18 19  1  0
  7 20  1  0
 20 21  1  0
 21 22  1  0
 22 23  2  0
 22 24  1  0
 24 25  2  0
 25 26  1  0
 26 27  2  0
 27 28  1  0
 28 29  2  0
 10  5  1  0
 19 11  1  0
 29 20  1  0
 29 24  1  0
M  END
