CVD-0000180|dock_bobby27042020.71|mol2|13|dock2
     RDKit          3D

 24 26  0  0  0  0  0  0  0  0999 V2000
    7.9680   -5.3479   23.9660 C   0  0  0  0  0  0  0  0  0  0  0  0
    7.6765   -5.0973   22.5591 N   0  0  0  0  0  0  0  0  0  0  0  0
    6.9980   -6.2552   21.9876 C   0  0  0  0  0  0  0  0  0  0  0  0
    6.8517   -3.8925   22.4182 C   0  0  0  0  0  0  0  0  0  0  0  0
    7.6683   -2.6357   22.2537 C   0  0  0  0  0  0  0  0  0  0  0  0
    9.0440   -2.5037   22.5156 C   0  0  0  0  0  0  0  0  0  0  0  0
    9.4669   -1.2158   22.2445 C   0  0  0  0  0  0  0  0  0  0  0  0
   10.8628   -0.7430   22.4136 C   0  0  0  0  0  0  0  0  0  0  0  0
   11.9939   -1.4967   22.1068 C   0  0  0  0  0  0  0  0  0  0  0  0
   13.2661   -0.9731   22.2695 C   0  0  0  0  0  0  0  0  0  0  0  0
   13.4397    0.3020   22.7587 C   0  0  0  0  0  0  0  0  0  0  0  0
   12.3364    1.0563   23.0878 C   0  0  0  0  0  0  0  0  0  0  0  0
   11.0628    0.5404   22.9178 C   0  0  0  0  0  0  0  0  0  0  0  0
    8.3092   -0.5177   21.8015 N   0  0  0  0  0  0  0  0  0  0  0  0
    7.2326   -1.3957   21.8099 C   0  0  0  0  0  0  0  0  0  0  0  0
    8.0445    1.0829   21.3069 S   0  0  0  0  0  0  0  0  0  0  0  0
    9.2943    1.5146   20.7629 O   0  0  0  0  0  0  0  0  0  0  0  0
    7.4868    1.7886   22.4188 O   0  0  0  0  0  0  0  0  0  0  0  0
    6.8903    1.0080   19.9799 C   0  0  0  0  0  0  0  0  0  0  0  0
    5.6160    1.5279   20.1300 C   0  0  0  0  0  0  0  0  0  0  0  0
    4.7423    1.4523   19.0592 C   0  0  0  0  0  0  0  0  0  0  0  0
    5.1750    0.8660   17.8913 C   0  0  0  0  0  0  0  0  0  0  0  0
    6.4000    0.3628   17.7319 N   0  0  0  0  0  0  0  0  0  0  0  0
    7.2385    0.4393   18.7694 C   0  0  0  0  0  0  0  0  0  0  0  0
  1  2  1  0
  2  3  1  0
  2  4  1  0
  4  5  1  0
  5  6  1  0
  6  7  2  0
  7  8  1  0
  8  9  2  0
  9 10  1  0
 10 11  2  0
 11 12  1  0
 12 13  2  0
  7 14  1  0
 14 15  1  0
 14 16  1  0
 16 17  2  0
 16 18  2  0
 16 19  1  0
 19 20  2  0
 20 21  1  0
 21 22  2  0
 22 23  1  0
 23 24  2  0
 15  5  2  0
 24 19  1  0
 13  8  1  0
M  END
