CVD-0003886|dock_bobby27042020.0|mol2|30|dock3
     RDKit          3D

 18 19  0  0  0  0  0  0  0  0999 V2000
   13.9126   -0.3336   24.1745 C   0  0  0  0  0  0  0  0  0  0  0  0
   13.1739   -1.2830   23.4160 O   0  0  0  0  0  0  0  0  0  0  0  0
   11.7772   -0.9933   23.2981 C   0  0  0  0  0  0  0  0  0  0  0  0
   11.0632   -2.0073   22.3975 C   0  0  0  0  0  0  0  0  0  0  0  0
    9.5984   -1.6916   22.2859 C   0  0  0  0  0  0  0  0  0  0  0  0
    9.3639   -0.3276   21.8027 N   0  0  0  0  0  0  0  0  0  0  0  0
   10.0407    0.7031   22.6236 C   0  0  0  0  0  0  0  0  0  0  0  0
   11.5156    0.3937   22.7673 C   0  0  0  0  0  0  0  0  0  0  0  0
    8.4344   -0.0269   20.8124 C   0  0  0  0  0  0  0  0  0  0  0  0
    7.5074    0.9973   20.9839 C   0  0  0  0  0  0  0  0  0  0  0  0
    6.5752    1.2973   20.0065 C   0  0  0  0  0  0  0  0  0  0  0  0
    6.5657    0.5769   18.8260 C   0  0  0  0  0  0  0  0  0  0  0  0
    7.4814   -0.4400   18.6261 C   0  0  0  0  0  0  0  0  0  0  0  0
    8.3995   -0.7393   19.6170 C   0  0  0  0  0  0  0  0  0  0  0  0
    5.3881    0.9636   17.5663 S   0  0  0  0  0  0  0  0  0  0  0  0
    4.4114    2.1057   18.1183 N   0  0  0  0  0  0  0  0  0  0  0  0
    4.5917   -0.2071   17.3514 O   0  0  0  0  0  0  0  0  0  0  0  0
    6.1103    1.5211   16.4624 O   0  0  0  0  0  0  0  0  0  0  0  0
  1  2  1  0
  2  3  1  0
  3  4  1  0
  4  5  1  0
  5  6  1  0
  6  7  1  0
  7  8  1  0
  6  9  1  0
  9 10  2  0
 10 11  1  0
 11 12  2  0
 12 13  1  0
 13 14  2  0
 12 15  1  0
 15 16  1  0
 15 17  2  0
 15 18  2  0
  8  3  1  0
 14  9  1  0
M  END
