CVD-0002610|dock_bobby27042020.5|mol2|9|dock3
     RDKit          3D

 23 24  0  0  0  0  0  0  0  0999 V2000
   13.4974    4.8903   22.4504 C   0  0  0  0  0  0  0  0  0  0  0  0
   13.2349    3.6085   23.0787 N   0  0  0  0  0  0  0  0  0  0  0  0
   12.0205    3.0781   23.1229 C   0  0  0  0  0  0  0  0  0  0  0  0
   11.0348    3.6281   22.6391 O   0  0  0  0  0  0  0  0  0  0  0  0
   11.8839    1.7245   23.8139 C   0  0  0  0  0  0  0  0  0  0  0  0
   10.4319    1.2477   23.7284 C   0  0  0  0  0  0  0  0  0  0  0  0
   10.0629    0.5972   22.4038 C   0  0  0  0  0  0  0  0  0  0  0  0
    8.6277    0.3170   22.2657 N   0  0  0  0  0  0  0  0  0  0  0  0
    8.4127   -0.8349   21.3849 C   0  0  0  0  0  0  0  0  0  0  0  0
    6.9312   -1.1455   21.2785 C   0  0  0  0  0  0  0  0  0  0  0  0
    6.1991    0.0193   20.7760 N   0  0  0  0  0  0  0  0  0  0  0  0
    6.4416    1.2056   21.6028 C   0  0  0  0  0  0  0  0  0  0  0  0
    7.9311    1.4758   21.7132 C   0  0  0  0  0  0  0  0  0  0  0  0
    5.3879   -0.0352   19.7001 C   0  0  0  0  0  0  0  0  0  0  0  0
    5.2080   -1.0750   19.0788 O   0  0  0  0  0  0  0  0  0  0  0  0
    4.7114    1.2585   19.2904 C   0  0  0  0  0  0  0  0  0  0  0  0
    3.5769    1.7877   20.5396 Cl  0  0  0  0  0  0  0  0  0  0  0  0
   12.7763    0.7456   23.2146 N   0  0  0  0  0  0  0  0  0  0  0  0
   13.2390   -0.3699   23.7778 C   0  0  0  0  0  0  0  0  0  0  0  0
   12.8908   -0.7536   25.1121 C   0  0  0  0  0  0  0  0  0  0  0  0
   13.4726   -1.9265   25.4899 C   0  0  0  0  0  0  0  0  0  0  0  0
   14.4282   -2.5452   24.2304 S   0  0  0  0  0  0  0  0  0  0  0  0
   14.0690   -1.2553   23.1840 C   0  0  0  0  0  0  0  0  0  0  0  0
  1  2  1  0
  2  3  1  0
  3  4  2  0
  3  5  1  0
  5  6  1  0
  6  7  1  0
  7  8  1  0
  8  9  1  0
  9 10  1  0
 10 11  1  0
 11 12  1  0
 12 13  1  0
 11 14  1  0
 14 15  2  0
 14 16  1  0
 16 17  1  0
  5 18  1  0
 18 19  1  0
 19 20  1  0
 20 21  2  0
 21 22  1  0
 22 23  1  0
 13  8  1  0
 23 19  2  0
M  END
