CVD-0000767|dock_bobby27042020.83|mol2|23|dock2
     RDKit          3D

 21 23  0  0  0  0  0  0  0  0999 V2000
   13.6636    5.5228   22.9674 C   0  0  0  0  0  0  0  0  0  0  0  0
   13.3359    4.3825   23.8273 N   0  0  0  0  0  0  0  0  0  0  0  0
   13.0476    3.1771   23.0517 C   0  0  0  0  0  0  0  0  0  0  0  0
   12.9566    1.9449   23.9293 C   0  0  0  0  0  0  0  0  0  0  0  0
   12.7441    0.6963   23.1954 N   0  0  0  0  0  0  0  0  0  0  0  0
   11.4553    0.0335   23.4890 C   0  0  0  0  0  0  0  0  0  0  0  0
   11.0848   -0.8691   22.2926 C   0  0  0  0  0  0  0  0  0  0  0  0
   12.2200   -1.8369   21.9523 C   0  0  0  0  0  0  0  0  0  0  0  0
   13.4575   -1.0132   21.6920 C   0  0  0  0  0  0  0  0  0  0  0  0
   14.3666   -1.5051   20.7978 F   0  0  0  0  0  0  0  0  0  0  0  0
   13.6302    0.1505   22.3265 C   0  0  0  0  0  0  0  0  0  0  0  0
    9.7611   -1.5581   22.5474 C   0  0  0  0  0  0  0  0  0  0  0  0
    8.8400   -1.9952   21.4503 C   0  0  0  0  0  0  0  0  0  0  0  0
    8.4805   -0.8145   22.2993 C   0  0  0  0  0  0  0  0  0  0  0  0
    9.7860   -2.4341   23.7525 C   0  0  0  0  0  0  0  0  0  0  0  0
    9.3040   -2.0247   24.9861 C   0  0  0  0  0  0  0  0  0  0  0  0
    9.3679   -2.9029   26.0522 C   0  0  0  0  0  0  0  0  0  0  0  0
    9.9095   -4.1512   25.8449 C   0  0  0  0  0  0  0  0  0  0  0  0
   10.0089   -5.2879   27.1604 Cl  0  0  0  0  0  0  0  0  0  0  0  0
   10.3700   -4.4907   24.5921 C   0  0  0  0  0  0  0  0  0  0  0  0
   10.3128   -3.6483   23.5540 N   0  0  0  0  0  0  0  0  0  0  0  0
  1  2  1  0
  2  3  1  0
  3  4  1  0
  4  5  1  0
  5  6  1  0
  6  7  1  0
  7  8  1  0
  8  9  1  0
  9 10  1  0
  9 11  2  0
  7 12  1  0
 12 13  1  0
 13 14  1  0
 12 15  1  0
 15 16  2  0
 16 17  1  0
 17 18  2  0
 18 19  1  0
 18 20  1  0
 20 21  2  0
 11  5  1  0
 14 12  1  0
 21 15  1  0
M  END
