CVD-0002787|dock_bobby27042020.90|mol2|13|dock3
     RDKit          3D

 17 18  0  0  0  0  0  0  0  0999 V2000
   11.5278   -1.0741   20.9811 O   0  0  0  0  0  0  0  0  0  0  0  0
   10.6729   -1.6238   21.9690 C   0  0  0  0  0  0  0  0  0  0  0  0
   11.2987   -1.5139   23.3672 C   0  0  0  0  0  0  0  0  0  0  0  0
   11.7662   -0.1052   23.7329 C   0  0  0  0  0  0  0  0  0  0  0  0
   12.3641   -0.0651   25.1390 C   0  0  0  0  0  0  0  0  0  0  0  0
   13.4995   -1.0597   25.2825 C   0  0  0  0  0  0  0  0  0  0  0  0
   13.0606   -2.4614   24.9119 C   0  0  0  0  0  0  0  0  0  0  0  0
   12.4540   -2.5071   23.5132 C   0  0  0  0  0  0  0  0  0  0  0  0
    9.3244   -0.9162   21.9176 C   0  0  0  0  0  0  0  0  0  0  0  0
    8.8534   -0.4398   22.9463 O   0  0  0  0  0  0  0  0  0  0  0  0
    8.7536   -0.8826   20.6883 N   0  0  0  0  0  0  0  0  0  0  0  0
    7.5273   -0.3278   20.2449 C   0  0  0  0  0  0  0  0  0  0  0  0
    7.4208    0.1004   18.9280 C   0  0  0  0  0  0  0  0  0  0  0  0
    6.2306    0.6445   18.4786 C   0  0  0  0  0  0  0  0  0  0  0  0
    5.1789    0.7453   19.3595 C   0  0  0  0  0  0  0  0  0  0  0  0
    5.2493    0.3437   20.6287 N   0  0  0  0  0  0  0  0  0  0  0  0
    6.4029   -0.1805   21.0540 C   0  0  0  0  0  0  0  0  0  0  0  0
  2  1  1  0
  2  3  1  0
  3  4  1  0
  4  5  1  0
  5  6  1  0
  6  7  1  0
  7  8  1  0
  2  9  1  0
  9 10  2  0
  9 11  1  0
 11 12  1  0
 12 13  2  0
 13 14  1  0
 14 15  2  0
 15 16  1  0
 16 17  2  0
  8  3  1  0
 17 12  1  0
M  END
