CVD-0001337|dock_bobby27042020.10|mol2|6|dock2
     RDKit          3D

 20 22  0  0  0  0  0  0  0  0999 V2000
    5.5744    0.5164   17.8941 C   0  0  0  0  0  0  0  0  0  0  0  0
    6.9301    0.0950   18.3815 C   0  0  0  0  0  0  0  0  0  0  0  0
    7.9459    0.4875   17.8184 O   0  0  0  0  0  0  0  0  0  0  0  0
    7.0291   -0.7769   19.4950 N   0  0  0  0  0  0  0  0  0  0  0  0
    5.8115   -1.2426   20.1639 C   0  0  0  0  0  0  0  0  0  0  0  0
    6.1154   -2.5196   20.9175 C   0  0  0  0  0  0  0  0  0  0  0  0
    7.2235   -2.3552   21.9483 C   0  0  0  0  0  0  0  0  0  0  0  0
    7.5450   -3.6557   22.6660 C   0  0  0  0  0  0  0  0  0  0  0  0
    8.6545   -3.4882   23.7021 C   0  0  0  0  0  0  0  0  0  0  0  0
    9.7996   -2.8188   23.0036 C   0  0  0  0  0  0  0  0  0  0  0  0
   11.1852   -2.8712   23.2384 C   0  0  0  0  0  0  0  0  0  0  0  0
   11.8197   -2.1789   22.2343 C   0  0  0  0  0  0  0  0  0  0  0  0
   10.8592   -1.7007   21.3860 N   0  0  0  0  0  0  0  0  0  0  0  0
    9.6376   -2.0977   21.8674 C   0  0  0  0  0  0  0  0  0  0  0  0
    8.4179   -1.8262   21.2825 N   0  0  0  0  0  0  0  0  0  0  0  0
    8.0559   -0.6184   20.5207 C   0  0  0  0  0  0  0  0  0  0  0  0
   13.5187   -1.7625   22.1563 S   0  0  0  0  0  0  0  0  0  0  0  0
   13.8856   -1.6735   20.6189 N   0  0  0  0  0  0  0  0  0  0  0  0
   13.6620   -0.4568   22.7120 O   0  0  0  0  0  0  0  0  0  0  0  0
   14.2495   -2.8534   22.7135 O   0  0  0  0  0  0  0  0  0  0  0  0
  1  2  1  0
  2  3  2  0
  2  4  1  0
  4  5  1  0
  5  6  1  0
  6  7  1  0
  7  8  1  0
  8  9  1  0
  9 10  1  0
 10 11  1  0
 11 12  2  0
 12 13  1  0
 13 14  1  0
 14 15  1  0
 15 16  1  0
 12 17  1  0
 17 18  1  0
 17 19  2  0
 17 20  2  0
 16  4  1  0
 15  7  1  0
 14 10  2  0
M  END
