CVD-0004005|dock_bobby27042020.58|mol2|3|dock2
     RDKit          3D

 22 23  0  0  0  0  0  0  0  0999 V2000
    9.5607   -5.5534   23.9067 N   0  0  0  0  0  0  0  0  0  0  0  0
    9.9345   -4.0103   24.1133 S   0  0  0  0  0  0  0  0  0  0  0  0
   11.3615   -3.9290   24.0172 O   0  0  0  0  0  0  0  0  0  0  0  0
    9.2821   -3.6061   25.3232 O   0  0  0  0  0  0  0  0  0  0  0  0
    9.2447   -3.0613   22.7796 C   0  0  0  0  0  0  0  0  0  0  0  0
    7.9336   -3.3522   22.4374 C   0  0  0  0  0  0  0  0  0  0  0  0
    7.2995   -2.6584   21.4261 C   0  0  0  0  0  0  0  0  0  0  0  0
    7.9652   -1.6616   20.7247 C   0  0  0  0  0  0  0  0  0  0  0  0
    9.2892   -1.3854   21.0611 C   0  0  0  0  0  0  0  0  0  0  0  0
    9.9565   -2.0640   22.0887 C   0  0  0  0  0  0  0  0  0  0  0  0
   11.3869   -1.6976   22.3927 C   0  0  0  0  0  0  0  0  0  0  0  0
   11.7352   -1.4900   23.5496 O   0  0  0  0  0  0  0  0  0  0  0  0
   12.2885   -1.5925   21.4102 N   0  0  0  0  0  0  0  0  0  0  0  0
   13.6643   -1.2367   21.7315 C   0  0  0  0  0  0  0  0  0  0  0  0
   13.7773    0.1309   22.2685 C   0  0  0  0  0  0  0  0  0  0  0  0
   13.8424    1.1718   22.7187 N   0  0  0  0  0  0  0  0  0  0  0  0
    7.3234   -0.9616   19.7121 N   0  0  0  0  0  0  0  0  0  0  0  0
    7.3436    0.4982   19.5994 C   0  0  0  0  0  0  0  0  0  0  0  0
    6.0002    1.0100   19.1405 C   0  0  0  0  0  0  0  0  0  0  0  0
    5.5825    0.3776   17.9458 O   0  0  0  0  0  0  0  0  0  0  0  0
    5.4453   -1.0224   18.1603 C   0  0  0  0  0  0  0  0  0  0  0  0
    6.7881   -1.6233   18.5288 C   0  0  0  0  0  0  0  0  0  0  0  0
  1  2  1  0
  2  3  2  0
  2  4  2  0
  2  5  1  0
  5  6  2  0
  6  7  1  0
  7  8  2  0
  8  9  1  0
  9 10  2  0
 10 11  1  0
 11 12  2  0
 11 13  1  0
 13 14  1  0
 14 15  1  0
 15 16  3  0
  8 17  1  0
 17 18  1  0
 18 19  1  0
 19 20  1  0
 20 21  1  0
 21 22  1  0
 10  5  1  0
 22 17  1  0
M  END
