CVD-0000581|dock_bobby27042020.26|mol2|45|dock3
     RDKit          3D

 24 26  0  0  0  0  0  0  0  0999 V2000
    5.9765    0.1477   21.8083 C   0  0  0  0  0  0  0  0  0  0  0  0
    6.2165    0.1177   20.3165 C   0  0  0  0  0  0  0  0  0  0  0  0
    5.0988    0.2316   19.4936 C   0  0  0  0  0  0  0  0  0  0  0  0
    5.2342    0.1603   18.1245 C   0  0  0  0  0  0  0  0  0  0  0  0
    6.4018   -0.0246   17.5155 N   0  0  0  0  0  0  0  0  0  0  0  0
    7.4868   -0.1135   18.2893 C   0  0  0  0  0  0  0  0  0  0  0  0
    7.4704   -0.0310   19.6782 C   0  0  0  0  0  0  0  0  0  0  0  0
    8.7014   -0.1049   20.3837 N   0  0  0  0  0  0  0  0  0  0  0  0
    9.7339    0.0769   21.2803 C   0  0  0  0  0  0  0  0  0  0  0  0
    9.6067    0.8794   22.2016 O   0  0  0  0  0  0  0  0  0  0  0  0
   10.8896   -0.6349   21.1324 N   0  0  0  0  0  0  0  0  0  0  0  0
   12.0279   -0.5186   22.0291 C   0  0  0  0  0  0  0  0  0  0  0  0
   11.7205   -1.2783   23.3437 C   0  0  0  0  0  0  0  0  0  0  0  0
   12.8366   -2.1558   23.6138 C   0  0  0  0  0  0  0  0  0  0  0  0
   13.8125   -2.0905   22.5351 C   0  0  0  0  0  0  0  0  0  0  0  0
   13.2859   -1.1944   21.4706 C   0  0  0  0  0  0  0  0  0  0  0  0
   12.2484    0.9121   22.3240 C   0  0  0  0  0  0  0  0  0  0  0  0
   12.4595    2.0789   22.4627 C   0  0  0  0  0  0  0  0  0  0  0  0
   12.7843    3.4713   22.5998 C   0  0  0  0  0  0  0  0  0  0  0  0
   11.8401    4.4226   22.9721 C   0  0  0  0  0  0  0  0  0  0  0  0
   12.1264    5.7203   23.1038 N   0  0  0  0  0  0  0  0  0  0  0  0
   13.3876    6.0589   22.8545 C   0  0  0  0  0  0  0  0  0  0  0  0
   14.3822    5.2544   22.4928 N   0  0  0  0  0  0  0  0  0  0  0  0
   14.0648    3.9631   22.3695 C   0  0  0  0  0  0  0  0  0  0  0  0
  1  2  1  0
  2  3  2  0
  3  4  1  0
  4  5  2  0
  5  6  1  0
  6  7  2  0
  7  8  1  0
  8  9  1  0
  9 10  2  0
  9 11  1  0
 11 12  1  0
 12 13  1  0
 13 14  1  0
 14 15  1  0
 15 16  1  0
 12 17  1  0
 17 18  3  0
 18 19  1  0
 19 20  2  0
 20 21  1  0
 21 22  2  0
 22 23  1  0
 23 24  2  0
  7  2  1  0
 16 12  1  0
 24 19  1  0
M  END
