CVD-0001085|dock_bobby27042020.10|mol2|45|dock2
     RDKit          3D

 22 23  0  0  0  0  0  0  0  0999 V2000
   14.1780    6.0631   22.7919 C   0  0  0  0  0  0  0  0  0  0  0  0
   13.1777    4.9715   22.6629 C   0  0  0  0  0  0  0  0  0  0  0  0
   13.8639    3.7706   22.2888 O   0  0  0  0  0  0  0  0  0  0  0  0
   13.2044    2.5676   22.2332 C   0  0  0  0  0  0  0  0  0  0  0  0
   11.8483    2.4956   21.9551 C   0  0  0  0  0  0  0  0  0  0  0  0
   11.2214    1.2628   21.9094 C   0  0  0  0  0  0  0  0  0  0  0  0
   11.9216    0.0811   22.1331 C   0  0  0  0  0  0  0  0  0  0  0  0
   11.2486   -1.2220   22.0832 C   0  0  0  0  0  0  0  0  0  0  0  0
    9.9742   -1.4738   22.3689 C   0  0  0  0  0  0  0  0  0  0  0  0
    9.3709   -2.8183   22.2885 C   0  0  0  0  0  0  0  0  0  0  0  0
    9.7393   -3.6772   23.0972 O   0  0  0  0  0  0  0  0  0  0  0  0
    8.3228   -3.2121   21.3099 C   0  0  0  0  0  0  0  0  0  0  0  0
    7.6498   -4.4173   21.5169 C   0  0  0  0  0  0  0  0  0  0  0  0
    6.6024   -4.8399   20.7128 C   0  0  0  0  0  0  0  0  0  0  0  0
    5.8977   -6.1472   20.9824 C   0  0  0  0  0  0  0  0  0  0  0  0
    6.2140   -4.0270   19.6610 C   0  0  0  0  0  0  0  0  0  0  0  0
    6.8940   -2.8527   19.4044 C   0  0  0  0  0  0  0  0  0  0  0  0
    6.3356   -1.7802   17.9447 Br  0  0  0  0  0  0  0  0  0  0  0  0
    7.9758   -2.4357   20.1769 C   0  0  0  0  0  0  0  0  0  0  0  0
    8.6473   -1.3136   19.7858 O   0  0  0  0  0  0  0  0  0  0  0  0
   13.2827    0.1791   22.4056 C   0  0  0  0  0  0  0  0  0  0  0  0
   13.9216    1.4051   22.4556 C   0  0  0  0  0  0  0  0  0  0  0  0
  1  2  1  0
  2  3  1  0
  3  4  1  0
  4  5  2  0
  5  6  1  0
  6  7  2  0
  7  8  1  0
  8  9  2  0
  9 10  1  0
 10 11  2  0
 10 12  1  0
 12 13  2  0
 13 14  1  0
 14 15  1  0
 14 16  2  0
 16 17  1  0
 17 18  1  0
 17 19  2  0
 19 20  1  0
  7 21  1  0
 21 22  2  0
 22  4  1  0
 19 12  1  0
M  END
