CVD-0002106|dock_bobby27042020.50|mol2|15|dock3
     RDKit          3D

 23 25  0  0  0  0  0  0  0  0999 V2000
   10.4832   -0.7665   21.4900 N   0  0  0  0  0  0  0  0  0  0  0  0
    9.9661   -1.9744   22.1718 C   0  0  0  0  0  0  0  0  0  0  0  0
    8.4920   -1.8728   22.5330 C   0  0  0  0  0  0  0  0  0  0  0  0
    8.2571   -2.7785   23.5994 O   0  0  0  0  0  0  0  0  0  0  0  0
    8.0921   -4.1406   23.1513 C   0  0  0  0  0  0  0  0  0  0  0  0
    6.7310   -4.1620   22.4055 C   0  0  0  0  0  0  0  0  0  0  0  0
    6.8463   -3.2317   21.2085 C   0  0  0  0  0  0  0  0  0  0  0  0
    6.1126   -3.4123   20.0291 C   0  0  0  0  0  0  0  0  0  0  0  0
    5.5486   -4.6262   19.7325 O   0  0  0  0  0  0  0  0  0  0  0  0
    6.0649   -2.4174   19.0557 C   0  0  0  0  0  0  0  0  0  0  0  0
    5.4120   -2.6618   17.8895 O   0  0  0  0  0  0  0  0  0  0  0  0
    6.7493   -1.2228   19.2397 C   0  0  0  0  0  0  0  0  0  0  0  0
    7.4767   -1.0345   20.3995 C   0  0  0  0  0  0  0  0  0  0  0  0
    7.5313   -2.0251   21.3812 C   0  0  0  0  0  0  0  0  0  0  0  0
    8.2729   -5.0052   24.3847 C   0  0  0  0  0  0  0  0  0  0  0  0
    9.6377   -4.7585   25.0257 C   0  0  0  0  0  0  0  0  0  0  0  0
    9.8569   -5.5710   26.2845 C   0  0  0  0  0  0  0  0  0  0  0  0
    9.8076   -6.9680   25.9819 O   0  0  0  0  0  0  0  0  0  0  0  0
    8.7910   -5.1931   27.2987 C   0  0  0  0  0  0  0  0  0  0  0  0
    7.3385   -5.4192   26.8200 C   0  0  0  0  0  0  0  0  0  0  0  0
    6.4199   -4.8455   27.7511 O   0  0  0  0  0  0  0  0  0  0  0  0
    7.1839   -4.7648   25.4229 C   0  0  0  0  0  0  0  0  0  0  0  0
    7.1153   -3.3477   25.5530 O   0  0  0  0  0  0  0  0  0  0  0  0
  1  2  1  0
  2  3  1  0
  3  4  1  0
  4  5  1  0
  5  6  1  0
  6  7  1  0
  7  8  2  0
  8  9  1  0
  8 10  1  0
 10 11  1  0
 10 12  2  0
 12 13  1  0
 13 14  2  0
  5 15  1  0
 15 16  1  0
 16 17  1  0
 17 18  1  0
 17 19  1  0
 19 20  1  0
 20 21  1  0
 20 22  1  0
 22 23  1  0
 14  3  1  0
 22 15  1  0
 14  7  1  0
M  END
