CVD-0002267|dock_bobby27042020.35|mol2|7|dock1
     RDKit          3D

 26 28  0  0  0  0  0  0  0  0999 V2000
   12.6170    6.8959   25.4493 C   0  0  0  0  0  0  0  0  0  0  0  0
   12.9254    5.6738   24.6499 C   0  0  0  0  0  0  0  0  0  0  0  0
   14.0768    5.4345   24.1181 N   0  0  0  0  0  0  0  0  0  0  0  0
   14.1147    4.2237   23.4284 N   0  0  0  0  0  0  0  0  0  0  0  0
   12.9916    3.5906   23.4715 C   0  0  0  0  0  0  0  0  0  0  0  0
   12.7952    2.2665   22.7962 C   0  0  0  0  0  0  0  0  0  0  0  0
   13.5121    1.1856   23.4740 N   0  0  0  0  0  0  0  0  0  0  0  0
   13.7921    0.0858   22.5593 C   0  0  0  0  0  0  0  0  0  0  0  0
   12.5384   -0.5831   22.0226 C   0  0  0  0  0  0  0  0  0  0  0  0
   11.5969   -0.8676   23.1339 C   0  0  0  0  0  0  0  0  0  0  0  0
   11.6951   -0.2863   24.3136 C   0  0  0  0  0  0  0  0  0  0  0  0
   10.8364   -0.5179   25.3473 F   0  0  0  0  0  0  0  0  0  0  0  0
   12.7704    0.6873   24.6308 C   0  0  0  0  0  0  0  0  0  0  0  0
   10.3332   -2.0446   22.7963 S   0  0  0  0  0  0  0  0  0  0  0  0
   10.9379   -3.3402   22.8232 O   0  0  0  0  0  0  0  0  0  0  0  0
    9.2360   -1.7551   23.6667 O   0  0  0  0  0  0  0  0  0  0  0  0
    9.8228   -1.7921   21.2923 N   0  0  0  0  0  0  0  0  0  0  0  0
    8.5071   -1.1759   21.0837 C   0  0  0  0  0  0  0  0  0  0  0  0
    8.5053   -0.3307   19.8226 C   0  0  0  0  0  0  0  0  0  0  0  0
    7.1260    0.1537   19.4461 C   0  0  0  0  0  0  0  0  0  0  0  0
    6.3911   -0.4908   18.4628 C   0  0  0  0  0  0  0  0  0  0  0  0
    5.1244   -0.0487   18.1195 C   0  0  0  0  0  0  0  0  0  0  0  0
    4.5762    1.0437   18.7563 C   0  0  0  0  0  0  0  0  0  0  0  0
    5.2949    1.6932   19.7366 C   0  0  0  0  0  0  0  0  0  0  0  0
    6.5616    1.2502   20.0793 C   0  0  0  0  0  0  0  0  0  0  0  0
   11.7572    4.4247   24.3675 S   0  0  0  0  0  0  0  0  0  0  0  0
  1  2  1  0
  2  3  2  0
  3  4  1  0
  4  5  2  0
  5  6  1  0
  6  7  1  0
  7  8  1  0
  8  9  1  0
  9 10  1  0
 10 11  2  0
 11 12  1  0
 11 13  1  0
 10 14  1  0
 14 15  2  0
 14 16  2  0
 14 17  1  0
 17 18  1  0
 18 19  1  0
 19 20  1  0
 20 21  2  0
 21 22  1  0
 22 23  2  0
 23 24  1  0
 24 25  2  0
  5 26  1  0
 26  2  1  0
 13  7  1  0
 25 20  1  0
M  END
