CVD-0004068|dock_bobby27042020.43|mol2|15|dock2
     RDKit          3D

 22 25  0  0  0  0  0  0  0  0999 V2000
    7.1734   -2.5561   21.4916 C   0  0  0  0  0  0  0  0  0  0  0  0
    8.0588   -1.3594   21.6714 C   0  0  0  0  0  0  0  0  0  0  0  0
    9.3191   -1.3197   22.1074 C   0  0  0  0  0  0  0  0  0  0  0  0
    9.8967   -0.0629   22.1716 N   0  0  0  0  0  0  0  0  0  0  0  0
   11.0895    0.5597   22.5287 C   0  0  0  0  0  0  0  0  0  0  0  0
   10.8541    1.9046   22.2912 C   0  0  0  0  0  0  0  0  0  0  0  0
    9.5618    2.0892   21.8330 N   0  0  0  0  0  0  0  0  0  0  0  0
    9.0189    0.9011   21.7657 C   0  0  0  0  0  0  0  0  0  0  0  0
    7.4815    0.2223   21.2998 S   0  0  0  0  0  0  0  0  0  0  0  0
   11.6863    3.1207   22.4215 C   0  0  0  0  0  0  0  0  0  0  0  0
   11.0648    4.3406   22.6677 C   0  0  0  0  0  0  0  0  0  0  0  0
   11.7995    5.5029   22.8201 C   0  0  0  0  0  0  0  0  0  0  0  0
   13.1612    5.4282   22.7190 C   0  0  0  0  0  0  0  0  0  0  0  0
   13.8911    6.5645   22.8824 F   0  0  0  0  0  0  0  0  0  0  0  0
   13.8187    4.2576   22.4588 C   0  0  0  0  0  0  0  0  0  0  0  0
   13.0721    3.1043   22.2944 C   0  0  0  0  0  0  0  0  0  0  0  0
   12.2416   -0.2207   23.0413 C   0  0  0  0  0  0  0  0  0  0  0  0
   12.6332   -1.4113   22.4392 C   0  0  0  0  0  0  0  0  0  0  0  0
   13.7060   -2.1210   22.9497 C   0  0  0  0  0  0  0  0  0  0  0  0
   14.3682   -1.6148   24.0443 C   0  0  0  0  0  0  0  0  0  0  0  0
   14.0232   -0.4739   24.6415 N   0  0  0  0  0  0  0  0  0  0  0  0
   12.9726    0.1889   24.1481 C   0  0  0  0  0  0  0  0  0  0  0  0
  1  2  1  0
  2  3  2  0
  3  4  1  0
  4  5  1  0
  5  6  2  0
  6  7  1  0
  7  8  2  0
  8  9  1  0
  6 10  1  0
 10 11  2  0
 11 12  1  0
 12 13  2  0
 13 14  1  0
 13 15  1  0
 15 16  2  0
  5 17  1  0
 17 18  2  0
 18 19  1  0
 19 20  2  0
 20 21  1  0
 21 22  2  0
  9  2  1  0
 16 10  1  0
 22 17  1  0
  8  4  1  0
M  END
