CVD-0001914|dock_bobby27042020.22|mol2|22|dock1
     RDKit          3D

 31 32  0  0  0  0  0  0  0  0999 V2000
    8.1445   -4.1268   23.0884 C   0  0  0  0  0  0  0  0  0  0  0  0
    7.7666   -2.6706   23.3201 C   0  0  0  0  0  0  0  0  0  0  0  0
    7.2322   -2.4944   24.7344 C   0  0  0  0  0  0  0  0  0  0  0  0
    6.7106   -2.2406   22.3117 C   0  0  0  0  0  0  0  0  0  0  0  0
    8.9694   -1.8249   23.1533 N   0  0  0  0  0  0  0  0  0  0  0  0
    9.8059   -1.8385   22.1075 C   0  0  0  0  0  0  0  0  0  0  0  0
    9.6623   -2.5794   21.1384 O   0  0  0  0  0  0  0  0  0  0  0  0
   10.9840   -0.8473   22.2130 C   0  0  0  0  0  0  0  0  0  0  0  0
   10.5026    0.5602   22.1906 N   0  0  0  0  0  0  0  0  0  0  0  0
   11.4468    1.5496   22.4408 C   0  0  0  0  0  0  0  0  0  0  0  0
   12.6216    1.2629   22.6664 O   0  0  0  0  0  0  0  0  0  0  0  0
   11.0968    3.0005   22.4353 C   0  0  0  0  0  0  0  0  0  0  0  0
   12.0098    3.9092   22.6567 C   0  0  0  0  0  0  0  0  0  0  0  0
    9.1122    0.8015   21.9212 C   0  0  0  0  0  0  0  0  0  0  0  0
    8.5347    0.3037   20.7587 C   0  0  0  0  0  0  0  0  0  0  0  0
    7.1974    0.5163   20.4741 C   0  0  0  0  0  0  0  0  0  0  0  0
    6.4187    1.2328   21.3658 C   0  0  0  0  0  0  0  0  0  0  0  0
    6.9669    1.7323   22.5342 C   0  0  0  0  0  0  0  0  0  0  0  0
    8.3057    1.5118   22.8042 C   0  0  0  0  0  0  0  0  0  0  0  0
    4.6745    1.5177   21.0024 S   0  0  0  0  0  0  0  0  0  0  0  0
    3.6527    0.3639   21.3584 F   0  0  0  0  0  0  0  0  0  0  0  0
    4.0361    0.7182   19.7960 F   0  0  0  0  0  0  0  0  0  0  0  0
    3.7010    1.7643   22.2246 F   0  0  0  0  0  0  0  0  0  0  0  0
    4.1142    2.9841   21.1975 F   0  0  0  0  0  0  0  0  0  0  0  0
    4.3214    2.3375   19.6965 F   0  0  0  0  0  0  0  0  0  0  0  0
   11.9123   -1.1512   23.3852 C   0  0  0  0  0  0  0  0  0  0  0  0
   12.9530   -2.0669   23.3040 C   0  0  0  0  0  0  0  0  0  0  0  0
   13.7637   -2.2906   24.4033 C   0  0  0  0  0  0  0  0  0  0  0  0
   13.5096   -1.5909   25.5607 C   0  0  0  0  0  0  0  0  0  0  0  0
   12.5183   -0.7064   25.6749 N   0  0  0  0  0  0  0  0  0  0  0  0
   11.7496   -0.5055   24.6005 C   0  0  0  0  0  0  0  0  0  0  0  0
  1  2  1  0
  2  3  1  0
  2  4  1  0
  2  5  1  0
  5  6  1  0
  6  7  2  0
  6  8  1  0
  8  9  1  0
  9 10  1  0
 10 11  2  0
 10 12  1  0
 12 13  2  0
  9 14  1  0
 14 15  2  0
 15 16  1  0
 16 17  2  0
 17 18  1  0
 18 19  2  0
 17 20  1  0
 20 21  1  0
 20 22  1  0
 20 23  1  0
 20 24  1  0
 20 25  1  0
  8 26  1  0
 26 27  2  0
 27 28  1  0
 28 29  2  0
 29 30  1  0
 30 31  2  0
 19 14  1  0
 31 26  1  0
M  END
