CVD-0000893|dock_bobby27042020.97|mol2|11|dock1
     RDKit          3D

 22 23  0  0  0  0  0  0  0  0999 V2000
    4.4013   -6.3426   22.1702 C   0  0  0  0  0  0  0  0  0  0  0  0
    5.6193   -5.8504   21.4531 C   0  0  0  0  0  0  0  0  0  0  0  0
    6.0409   -4.5513   21.9505 N   0  0  0  0  0  0  0  0  0  0  0  0
    6.2293   -3.4575   21.1616 C   0  0  0  0  0  0  0  0  0  0  0  0
    7.1103   -2.4415   21.5341 C   0  0  0  0  0  0  0  0  0  0  0  0
    7.2729   -1.3419   20.6986 C   0  0  0  0  0  0  0  0  0  0  0  0
    8.2144   -0.2205   21.0692 C   0  0  0  0  0  0  0  0  0  0  0  0
    9.1352   -0.5886   22.1536 N   0  0  0  0  0  0  0  0  0  0  0  0
    9.8016    0.6031   22.6869 C   0  0  0  0  0  0  0  0  0  0  0  0
   10.7200    0.2226   23.8333 C   0  0  0  0  0  0  0  0  0  0  0  0
   11.7142   -0.7568   23.3888 N   0  0  0  0  0  0  0  0  0  0  0  0
   11.0790   -1.9372   22.7945 C   0  0  0  0  0  0  0  0  0  0  0  0
   10.1471   -1.5242   21.6699 C   0  0  0  0  0  0  0  0  0  0  0  0
   13.0410   -0.5762   23.5489 C   0  0  0  0  0  0  0  0  0  0  0  0
   13.4958    0.4247   24.0883 O   0  0  0  0  0  0  0  0  0  0  0  0
   13.9476   -1.6717   23.0221 C   0  0  0  0  0  0  0  0  0  0  0  0
   13.8718   -1.7529   21.2572 Cl  0  0  0  0  0  0  0  0  0  0  0  0
    6.5294   -1.3117   19.5085 C   0  0  0  0  0  0  0  0  0  0  0  0
    5.6692   -2.3769   19.2163 C   0  0  0  0  0  0  0  0  0  0  0  0
    5.5226   -3.4298   20.0272 N   0  0  0  0  0  0  0  0  0  0  0  0
    6.6450   -0.2038   18.5966 C   0  0  0  0  0  0  0  0  0  0  0  0
    6.7345    0.6532   17.8466 N   0  0  0  0  0  0  0  0  0  0  0  0
  1  2  1  0
  2  3  1  0
  3  4  1  0
  4  5  2  0
  5  6  1  0
  6  7  1  0
  7  8  1  0
  8  9  1  0
  9 10  1  0
 10 11  1  0
 11 12  1  0
 12 13  1  0
 11 14  1  0
 14 15  2  0
 14 16  1  0
 16 17  1  0
  6 18  2  0
 18 19  1  0
 19 20  2  0
 18 21  1  0
 21 22  3  0
 20  4  1  0
 13  8  1  0
M  END
