CVD-0000647|dock_bobby27042020.40|mol2|46|dock2
     RDKit          3D

 25 27  0  0  0  0  0  0  0  0999 V2000
   14.5223   -2.7757   25.6079 Cl  0  0  0  0  0  0  0  0  0  0  0  0
   13.3035   -2.4248   24.3755 C   0  0  0  0  0  0  0  0  0  0  0  0
   12.6736   -1.0556   24.5450 C   0  0  0  0  0  0  0  0  0  0  0  0
   13.0063   -0.3328   25.4757 O   0  0  0  0  0  0  0  0  0  0  0  0
   11.7331   -0.6589   23.6559 N   0  0  0  0  0  0  0  0  0  0  0  0
   11.2281   -1.4315   22.5188 C   0  0  0  0  0  0  0  0  0  0  0  0
    9.7206   -1.5804   22.6068 C   0  0  0  0  0  0  0  0  0  0  0  0
    9.0820   -0.2614   22.6466 N   0  0  0  0  0  0  0  0  0  0  0  0
    7.6146   -0.3487   22.6447 C   0  0  0  0  0  0  0  0  0  0  0  0
    7.0391   -0.7031   21.2942 C   0  0  0  0  0  0  0  0  0  0  0  0
    6.6777   -2.0081   20.9982 C   0  0  0  0  0  0  0  0  0  0  0  0
    6.1478   -2.3320   19.7604 C   0  0  0  0  0  0  0  0  0  0  0  0
    5.9709   -1.3514   18.7987 C   0  0  0  0  0  0  0  0  0  0  0  0
    6.3308   -0.0561   19.0989 C   0  0  0  0  0  0  0  0  0  0  0  0
    6.1142    1.1885   17.9004 Cl  0  0  0  0  0  0  0  0  0  0  0  0
    6.8598    0.2787   20.3285 C   0  0  0  0  0  0  0  0  0  0  0  0
    9.5634    0.4661   23.8180 C   0  0  0  0  0  0  0  0  0  0  0  0
   11.0696    0.6445   23.7588 C   0  0  0  0  0  0  0  0  0  0  0  0
   11.4630    1.5542   22.5883 C   0  0  0  0  0  0  0  0  0  0  0  0
   11.2921    3.0216   22.8982 C   0  0  0  0  0  0  0  0  0  0  0  0
   10.0977    3.6695   22.6237 C   0  0  0  0  0  0  0  0  0  0  0  0
    9.9418    5.0166   22.9049 C   0  0  0  0  0  0  0  0  0  0  0  0
   10.9793    5.7317   23.4633 C   0  0  0  0  0  0  0  0  0  0  0  0
   12.1726    5.1000   23.7399 C   0  0  0  0  0  0  0  0  0  0  0  0
   12.3280    3.7530   23.4585 C   0  0  0  0  0  0  0  0  0  0  0  0
  1  2  1  0
  2  3  1  0
  3  4  2  0
  3  5  1  0
  5  6  1  0
  6  7  1  0
  7  8  1  0
  8  9  1  0
  9 10  1  0
 10 11  2  0
 11 12  1  0
 12 13  2  0
 13 14  1  0
 14 15  1  0
 14 16  2  0
  8 17  1  0
 17 18  1  0
 18 19  1  0
 19 20  1  0
 20 21  2  0
 21 22  1  0
 22 23  2  0
 23 24  1  0
 24 25  2  0
 18  5  1  0
 25 20  1  0
 16 10  1  0
M  END
