CVD-0002335|dock_bobby27042020.49|mol2|14|dock1
     RDKit          3D

 26 28  0  0  0  0  0  0  0  0999 V2000
   14.4147    5.8229   22.4851 C   0  0  0  0  0  0  0  0  0  0  0  0
   13.1244    4.6715   22.2074 S   0  0  0  0  0  0  0  0  0  0  0  0
   12.7449    4.7559   20.8309 O   0  0  0  0  0  0  0  0  0  0  0  0
   12.1179    4.8653   23.2051 O   0  0  0  0  0  0  0  0  0  0  0  0
   13.7573    3.1876   22.4341 N   0  0  0  0  0  0  0  0  0  0  0  0
   13.0529    1.9612   22.2228 C   0  0  0  0  0  0  0  0  0  0  0  0
   13.6693    0.7364   22.4406 C   0  0  0  0  0  0  0  0  0  0  0  0
   12.9593   -0.4316   22.2268 C   0  0  0  0  0  0  0  0  0  0  0  0
   11.6430   -0.3887   21.7987 C   0  0  0  0  0  0  0  0  0  0  0  0
   11.0049    0.8315   21.5741 C   0  0  0  0  0  0  0  0  0  0  0  0
   11.7313    1.9994   21.7932 C   0  0  0  0  0  0  0  0  0  0  0  0
    9.5779    0.9631   21.1088 C   0  0  0  0  0  0  0  0  0  0  0  0
    8.9150    1.8771   21.5874 O   0  0  0  0  0  0  0  0  0  0  0  0
    9.0923    0.0780   20.1929 N   0  0  0  0  0  0  0  0  0  0  0  0
    7.8114   -0.0298   19.5912 C   0  0  0  0  0  0  0  0  0  0  0  0
    7.5607   -0.7349   18.4179 C   0  0  0  0  0  0  0  0  0  0  0  0
    6.2777   -0.7819   17.9065 C   0  0  0  0  0  0  0  0  0  0  0  0
    5.2377   -0.1325   18.5462 C   0  0  0  0  0  0  0  0  0  0  0  0
    5.4661    0.5777   19.7208 C   0  0  0  0  0  0  0  0  0  0  0  0
    6.7615    0.6185   20.2361 C   0  0  0  0  0  0  0  0  0  0  0  0
    4.3689    1.2475   20.3718 N   0  0  0  0  0  0  0  0  0  0  0  0
    3.4086    2.0541   19.6147 C   0  0  0  0  0  0  0  0  0  0  0  0
    2.4211    2.5334   20.6502 C   0  0  0  0  0  0  0  0  0  0  0  0
    2.9687    2.1454   22.0005 C   0  0  0  0  0  0  0  0  0  0  0  0
    4.1701    1.2899   21.7309 C   0  0  0  0  0  0  0  0  0  0  0  0
    4.8891    0.7117   22.5348 O   0  0  0  0  0  0  0  0  0  0  0  0
  1  2  1  0
  2  3  2  0
  2  4  2  0
  2  5  1  0
  5  6  1  0
  6  7  2  0
  7  8  1  0
  8  9  2  0
  9 10  1  0
 10 11  2  0
 10 12  1  0
 12 13  2  0
 12 14  1  0
 14 15  1  0
 15 16  2  0
 16 17  1  0
 17 18  2  0
 18 19  1  0
 19 20  2  0
 19 21  1  0
 21 22  1  0
 22 23  1  0
 23 24  1  0
 24 25  1  0
 25 26  2  0
 11  6  1  0
 20 15  1  0
 25 21  1  0
M  END
