CVD-0003801|dock_bobby27042020.15|mol2|27|dock3
     RDKit          3D

 29 32  0  0  0  0  0  0  0  0999 V2000
   13.0313    6.1571   23.3914 N   0  0  0  0  0  0  0  0  0  0  0  0
   13.5532    5.0199   22.3926 S   0  0  0  0  0  0  0  0  0  0  0  0
   13.3530    5.5030   21.0593 O   0  0  0  0  0  0  0  0  0  0  0  0
   14.8771    4.6659   22.8087 O   0  0  0  0  0  0  0  0  0  0  0  0
   12.5364    3.5886   22.5936 C   0  0  0  0  0  0  0  0  0  0  0  0
   13.1200    2.3404   22.7167 C   0  0  0  0  0  0  0  0  0  0  0  0
   12.3193    1.2227   22.8712 C   0  0  0  0  0  0  0  0  0  0  0  0
   10.9320    1.3292   22.8991 C   0  0  0  0  0  0  0  0  0  0  0  0
   10.3677    2.5946   22.7691 C   0  0  0  0  0  0  0  0  0  0  0  0
   11.1594    3.7194   22.6189 C   0  0  0  0  0  0  0  0  0  0  0  0
   10.1327    0.2042   23.0524 N   0  0  0  0  0  0  0  0  0  0  0  0
    9.9875   -0.8165   22.0101 C   0  0  0  0  0  0  0  0  0  0  0  0
   10.0969   -2.2088   22.5641 C   0  0  0  0  0  0  0  0  0  0  0  0
    9.0724   -2.4387   23.6806 C   0  0  0  0  0  0  0  0  0  0  0  0
    9.2560   -1.3737   24.7323 C   0  0  0  0  0  0  0  0  0  0  0  0
    9.1781    0.0303   24.1717 C   0  0  0  0  0  0  0  0  0  0  0  0
    9.1649   -3.7887   24.2270 N   0  0  0  0  0  0  0  0  0  0  0  0
    8.0806   -4.6571   24.3190 C   0  0  0  0  0  0  0  0  0  0  0  0
    7.2872   -4.9341   23.2117 C   0  0  0  0  0  0  0  0  0  0  0  0
    6.2144   -5.8010   23.3313 C   0  0  0  0  0  0  0  0  0  0  0  0
    5.9279   -6.3944   24.5487 C   0  0  0  0  0  0  0  0  0  0  0  0
    6.7114   -6.1294   25.6660 C   0  0  0  0  0  0  0  0  0  0  0  0
    7.7879   -5.2569   25.5391 C   0  0  0  0  0  0  0  0  0  0  0  0
    6.3957   -6.7671   26.9524 C   0  0  0  0  0  0  0  0  0  0  0  0
    5.2987   -7.5267   27.2768 C   0  0  0  0  0  0  0  0  0  0  0  0
    5.2968   -7.9895   28.5906 C   0  0  0  0  0  0  0  0  0  0  0  0
    6.3878   -7.5850   29.2667 C   0  0  0  0  0  0  0  0  0  0  0  0
    6.8156   -7.9599   31.0498 Br  0  0  0  0  0  0  0  0  0  0  0  0
    7.4488   -6.6275   28.3187 S   0  0  0  0  0  0  0  0  0  0  0  0
  1  2  1  0
  2  3  2  0
  2  4  2  0
  2  5  1  0
  5  6  2  0
  6  7  1  0
  7  8  2  0
  8  9  1  0
  9 10  2  0
  8 11  1  0
 11 12  1  0
 12 13  1  0
 13 14  1  0
 14 15  1  0
 15 16  1  0
 14 17  1  0
 17 18  1  0
 18 19  2  0
 19 20  1  0
 20 21  2  0
 21 22  1  0
 22 23  2  0
 22 24  1  0
 24 25  2  0
 25 26  1  0
 26 27  2  0
 27 28  1  0
 27 29  1  0
 10  5  1  0
 16 11  1  0
 23 18  1  0
 29 24  1  0
M  END
