CVD-0002575|dock_bobby27042020.33|mol2|39|dock1
     RDKit          3D

 37 40  0  0  0  0  0  0  0  0999 V2000
    9.8822   -5.5899   26.9720 C   0  0  0  0  0  0  0  0  0  0  0  0
    8.9676   -4.7418   26.2030 N   0  0  0  0  0  0  0  0  0  0  0  0
    9.6277   -3.8558   25.2382 C   0  0  0  0  0  0  0  0  0  0  0  0
    8.7275   -3.5330   24.0819 C   0  0  0  0  0  0  0  0  0  0  0  0
    7.6701   -4.3038   23.7090 C   0  0  0  0  0  0  0  0  0  0  0  0
    7.0525   -3.7204   22.6129 N   0  0  0  0  0  0  0  0  0  0  0  0
    7.7416   -2.5455   22.2733 C   0  0  0  0  0  0  0  0  0  0  0  0
    8.7722   -2.4101   23.1620 C   0  0  0  0  0  0  0  0  0  0  0  0
    9.6445   -1.3120   23.0537 O   0  0  0  0  0  0  0  0  0  0  0  0
   10.9199   -1.2769   22.5451 C   0  0  0  0  0  0  0  0  0  0  0  0
   11.5526   -2.2060   22.0815 O   0  0  0  0  0  0  0  0  0  0  0  0
   11.5011    0.1002   22.6171 C   0  0  0  0  0  0  0  0  0  0  0  0
   12.8769    0.3117   22.6310 C   0  0  0  0  0  0  0  0  0  0  0  0
   13.3971    1.5923   22.6974 C   0  0  0  0  0  0  0  0  0  0  0  0
   12.5377    2.6772   22.7494 C   0  0  0  0  0  0  0  0  0  0  0  0
   11.1658    2.4885   22.7389 C   0  0  0  0  0  0  0  0  0  0  0  0
   10.6570    1.2038   22.6722 C   0  0  0  0  0  0  0  0  0  0  0  0
   13.1969    4.3143   22.8405 S   0  0  0  0  0  0  0  0  0  0  0  0
   12.7730    5.1064   21.5153 N   0  0  0  0  0  0  0  0  0  0  0  0
   12.5639    4.9692   23.9458 O   0  0  0  0  0  0  0  0  0  0  0  0
   14.6245    4.2018   22.8283 O   0  0  0  0  0  0  0  0  0  0  0  0
    7.3726   -1.6530   21.1477 C   0  0  0  0  0  0  0  0  0  0  0  0
    8.2160   -1.5290   20.0416 C   0  0  0  0  0  0  0  0  0  0  0  0
    7.8915   -0.6887   18.9897 C   0  0  0  0  0  0  0  0  0  0  0  0
    6.7322    0.0540   19.0211 C   0  0  0  0  0  0  0  0  0  0  0  0
    5.8763   -0.0461   20.1031 C   0  0  0  0  0  0  0  0  0  0  0  0
    6.2067   -0.9002   21.1283 C   0  0  0  0  0  0  0  0  0  0  0  0
    5.3296   -1.0003   22.1530 F   0  0  0  0  0  0  0  0  0  0  0  0
    5.6816   -4.4390   21.9187 S   0  0  0  0  0  0  0  0  0  0  0  0
    6.1227   -5.5388   21.1187 O   0  0  0  0  0  0  0  0  0  0  0  0
    4.9663   -3.3651   21.3022 O   0  0  0  0  0  0  0  0  0  0  0  0
    4.7048   -5.0295   23.2581 C   0  0  0  0  0  0  0  0  0  0  0  0
    4.8522   -6.3288   23.7127 C   0  0  0  0  0  0  0  0  0  0  0  0
    4.0600   -6.7533   24.7653 C   0  0  0  0  0  0  0  0  0  0  0  0
    3.1593   -5.8692   25.3150 C   0  0  0  0  0  0  0  0  0  0  0  0
    3.0054   -4.6156   24.8862 N   0  0  0  0  0  0  0  0  0  0  0  0
    3.7731   -4.2123   23.8696 C   0  0  0  0  0  0  0  0  0  0  0  0
  1  2  1  0
  2  3  1  0
  3  4  1  0
  4  5  2  0
  5  6  1  0
  6  7  1  0
  7  8  2  0
  8  9  1  0
  9 10  1  0
 10 11  2  0
 10 12  1  0
 12 13  2  0
 13 14  1  0
 14 15  2  0
 15 16  1  0
 16 17  2  0
 15 18  1  0
 18 19  1  0
 18 20  2  0
 18 21  2  0
  7 22  1  0
 22 23  2  0
 23 24  1  0
 24 25  2  0
 25 26  1  0
 26 27  2  0
 27 28  1  0
  6 29  1  0
 29 30  2  0
 29 31  2  0
 29 32  1  0
 32 33  2  0
 33 34  1  0
 34 35  2  0
 35 36  1  0
 36 37  2  0
  8  4  1  0
 17 12  1  0
 27 22  1  0
 37 32  1  0
M  END
