CVD-0001168|dock_bobby27042020.39|mol2|9|dock1
     RDKit          3D

 24 26  0  0  0  0  0  0  0  0999 V2000
   13.1611    0.9255   25.5999 F   0  0  0  0  0  0  0  0  0  0  0  0
   12.0868    0.6459   24.8135 C   0  0  0  0  0  0  0  0  0  0  0  0
   11.9858    1.2647   23.5973 C   0  0  0  0  0  0  0  0  0  0  0  0
   10.8901    0.9752   22.8037 C   0  0  0  0  0  0  0  0  0  0  0  0
    9.9150    0.0821   23.2250 C   0  0  0  0  0  0  0  0  0  0  0  0
   10.0625   -0.5209   24.4662 C   0  0  0  0  0  0  0  0  0  0  0  0
   11.1522   -0.2423   25.2719 C   0  0  0  0  0  0  0  0  0  0  0  0
    8.7263   -0.2296   22.3528 C   0  0  0  0  0  0  0  0  0  0  0  0
    8.7499    0.6996   21.2789 O   0  0  0  0  0  0  0  0  0  0  0  0
    7.6279    0.5021   20.4352 C   0  0  0  0  0  0  0  0  0  0  0  0
    7.6050   -0.8802   19.8535 C   0  0  0  0  0  0  0  0  0  0  0  0
    7.6639   -1.8731   20.9243 N   0  0  0  0  0  0  0  0  0  0  0  0
    8.7658   -1.6497   21.8588 C   0  0  0  0  0  0  0  0  0  0  0  0
   10.0751   -2.0530   21.3906 N   0  0  0  0  0  0  0  0  0  0  0  0
   11.1545   -2.2429   22.2479 C   0  0  0  0  0  0  0  0  0  0  0  0
   12.3742   -1.6069   22.0633 C   0  0  0  0  0  0  0  0  0  0  0  0
   13.3997   -1.8481   22.9608 C   0  0  0  0  0  0  0  0  0  0  0  0
   13.1714   -2.7131   24.0074 C   0  0  0  0  0  0  0  0  0  0  0  0
   12.0085   -3.3363   24.2063 N   0  0  0  0  0  0  0  0  0  0  0  0
   11.0237   -3.0977   23.3351 C   0  0  0  0  0  0  0  0  0  0  0  0
    6.7650   -2.8862   21.0143 C   0  0  0  0  0  0  0  0  0  0  0  0
    5.8474   -3.0713   20.2247 O   0  0  0  0  0  0  0  0  0  0  0  0
    6.9381   -3.8281   22.1900 C   0  0  0  0  0  0  0  0  0  0  0  0
    5.8036   -5.1811   22.0919 Cl  0  0  0  0  0  0  0  0  0  0  0  0
  1  2  1  0
  2  3  2  0
  3  4  1  0
  4  5  2  0
  5  6  1  0
  6  7  2  0
  8  5  1  0
  8  9  1  0
  9 10  1  0
 10 11  1  0
 11 12  1  0
 12 13  1  0
 13 14  1  0
 14 15  1  0
 15 16  2  0
 16 17  1  0
 17 18  2  0
 18 19  1  0
 19 20  2  0
 12 21  1  0
 21 22  2  0
 21 23  1  0
 23 24  1  0
  7  2  1  0
 13  8  1  0
 20 15  1  0
M  END
