CVD-0000695|dock_bobby27042020.40|mol2|39|dock2
     RDKit          3D

 28 30  0  0  0  0  0  0  0  0999 V2000
    5.7684   -3.8037   19.8410 O   0  0  0  0  0  0  0  0  0  0  0  0
    6.5687   -3.2290   20.5704 C   0  0  0  0  0  0  0  0  0  0  0  0
    7.3900   -3.9766   21.6005 C   0  0  0  0  0  0  0  0  0  0  0  0
    6.8723   -3.9140   23.0433 C   0  0  0  0  0  0  0  0  0  0  0  0
    5.3458   -4.1282   23.0976 C   0  0  0  0  0  0  0  0  0  0  0  0
    4.8097   -4.1437   24.5278 C   0  0  0  0  0  0  0  0  0  0  0  0
    5.5439   -5.1674   25.3841 C   0  0  0  0  0  0  0  0  0  0  0  0
    7.0472   -4.9326   25.3529 C   0  0  0  0  0  0  0  0  0  0  0  0
    7.5802   -4.9578   23.9240 C   0  0  0  0  0  0  0  0  0  0  0  0
    6.8274   -1.8979   20.5626 N   0  0  0  0  0  0  0  0  0  0  0  0
    6.2813   -0.8553   19.7629 C   0  0  0  0  0  0  0  0  0  0  0  0
    5.9868   -0.9767   18.4050 C   0  0  0  0  0  0  0  0  0  0  0  0
    5.4732    0.0089   17.6623 N   0  0  0  0  0  0  0  0  0  0  0  0
    5.2296    1.1729   18.2587 C   0  0  0  0  0  0  0  0  0  0  0  0
    5.4811    1.4049   19.5928 C   0  0  0  0  0  0  0  0  0  0  0  0
    6.0166    0.3848   20.3715 C   0  0  0  0  0  0  0  0  0  0  0  0
    6.2730    0.6850   21.8330 C   0  0  0  0  0  0  0  0  0  0  0  0
    7.5687    1.4449   22.0533 C   0  0  0  0  0  0  0  0  0  0  0  0
    8.7359    0.6117   21.8019 N   0  0  0  0  0  0  0  0  0  0  0  0
    9.4526    0.0725   22.8079 C   0  0  0  0  0  0  0  0  0  0  0  0
    9.1629    0.2528   23.9877 O   0  0  0  0  0  0  0  0  0  0  0  0
   10.5106   -0.6793   22.4326 N   0  0  0  0  0  0  0  0  0  0  0  0
   11.4450   -1.2683   23.3919 C   0  0  0  0  0  0  0  0  0  0  0  0
   12.5380   -2.0868   22.6746 C   0  0  0  0  0  0  0  0  0  0  0  0
   13.5718   -2.6552   23.6450 C   0  0  0  0  0  0  0  0  0  0  0  0
   14.1788   -1.5604   24.5127 C   0  0  0  0  0  0  0  0  0  0  0  0
   13.0982   -0.7760   25.2431 C   0  0  0  0  0  0  0  0  0  0  0  0
   12.0925   -0.1790   24.2640 C   0  0  0  0  0  0  0  0  0  0  0  0
  1  2  2  0
  2  3  1  0
  3  4  1  0
  4  5  1  0
  5  6  1  0
  6  7  1  0
  7  8  1  0
  8  9  1  0
  2 10  1  0
 10 11  1  0
 11 12  2  0
 12 13  1  0
 13 14  2  0
 14 15  1  0
 15 16  2  0
 16 17  1  0
 17 18  1  0
 18 19  1  0
 19 20  1  0
 20 21  2  0
 20 22  1  0
 22 23  1  0
 23 24  1  0
 24 25  1  0
 25 26  1  0
 26 27  1  0
 27 28  1  0
  9  4  1  0
 16 11  1  0
 28 23  1  0
M  END
