CVD-0000039|dock_bobby27042020.85|mol2|40|dock3
     RDKit          3D

 21 22  0  0  0  0  0  0  0  0999 V2000
   13.9851   -1.1684   23.8922 C   0  0  0  0  0  0  0  0  0  0  0  0
   12.8737   -1.0576   22.8492 C   0  0  0  0  0  0  0  0  0  0  0  0
   13.3724   -1.6201   21.5187 C   0  0  0  0  0  0  0  0  0  0  0  0
   12.4153    0.3865   22.6926 C   0  0  0  0  0  0  0  0  0  0  0  0
   13.3364    1.4052   22.4936 C   0  0  0  0  0  0  0  0  0  0  0  0
   12.9080    2.7095   22.3495 C   0  0  0  0  0  0  0  0  0  0  0  0
   14.0880    3.9658   22.1011 Cl  0  0  0  0  0  0  0  0  0  0  0  0
   11.5708    3.0450   22.3966 C   0  0  0  0  0  0  0  0  0  0  0  0
   10.6534    2.0263   22.5962 C   0  0  0  0  0  0  0  0  0  0  0  0
   11.0677    0.7117   22.7407 C   0  0  0  0  0  0  0  0  0  0  0  0
    8.9328    2.4063   22.6568 S   0  0  0  0  0  0  0  0  0  0  0  0
    8.7748    3.8020   22.3511 O   0  0  0  0  0  0  0  0  0  0  0  0
    8.4109    1.9079   23.8999 O   0  0  0  0  0  0  0  0  0  0  0  0
    8.2376    1.4739   21.3529 C   0  0  0  0  0  0  0  0  0  0  0  0
    7.0674    1.7821   20.8216 C   0  0  0  0  0  0  0  0  0  0  0  0
    6.3951    1.0754   19.7252 C   0  0  0  0  0  0  0  0  0  0  0  0
    6.7270   -0.2269   19.3688 C   0  0  0  0  0  0  0  0  0  0  0  0
    6.0604   -0.8460   18.3260 C   0  0  0  0  0  0  0  0  0  0  0  0
    5.0771   -0.1432   17.6666 C   0  0  0  0  0  0  0  0  0  0  0  0
    4.7334    1.1067   17.9821 N   0  0  0  0  0  0  0  0  0  0  0  0
    5.3881    1.6881   18.9917 C   0  0  0  0  0  0  0  0  0  0  0  0
  1  2  1  0
  2  3  1  0
  2  4  1  0
  4  5  2  0
  5  6  1  0
  6  7  1  0
  6  8  2  0
  8  9  1  0
  9 10  2  0
  9 11  1  0
 11 12  2  0
 11 13  2  0
 11 14  1  0
 14 15  2  0
 15 16  1  0
 16 17  2  0
 17 18  1  0
 18 19  2  0
 19 20  1  0
 20 21  2  0
 10  4  1  0
 21 16  1  0
M  END
