CVD-0003624|dock_bobby27042020.44|mol2|41|dock1
     RDKit          3D

 19 20  0  0  0  0  0  0  0  0999 V2000
    4.6318    0.7100   21.5912 C   0  0  0  0  0  0  0  0  0  0  0  0
    5.3037    0.7853   20.2441 C   0  0  0  0  0  0  0  0  0  0  0  0
    4.5629    1.2421   19.1581 C   0  0  0  0  0  0  0  0  0  0  0  0
    5.1506    1.3251   17.9158 C   0  0  0  0  0  0  0  0  0  0  0  0
    6.4161    0.9863   17.6874 N   0  0  0  0  0  0  0  0  0  0  0  0
    7.1380    0.5466   18.7229 C   0  0  0  0  0  0  0  0  0  0  0  0
    6.6465    0.4228   20.0227 C   0  0  0  0  0  0  0  0  0  0  0  0
    7.4132   -0.0436   21.1274 N   0  0  0  0  0  0  0  0  0  0  0  0
    8.7154    0.1643   21.4429 C   0  0  0  0  0  0  0  0  0  0  0  0
    9.5166    0.8305   20.7963 O   0  0  0  0  0  0  0  0  0  0  0  0
    9.1364   -0.5155   22.7306 C   0  0  0  0  0  0  0  0  0  0  0  0
   10.6375   -0.5264   22.9115 C   0  0  0  0  0  0  0  0  0  0  0  0
   11.2167    0.0008   24.0556 C   0  0  0  0  0  0  0  0  0  0  0  0
   12.5913   -0.0109   24.2250 C   0  0  0  0  0  0  0  0  0  0  0  0
   13.4074   -0.5537   23.2474 C   0  0  0  0  0  0  0  0  0  0  0  0
   12.8403   -1.0872   22.0952 C   0  0  0  0  0  0  0  0  0  0  0  0
   11.4571   -1.0721   21.9315 C   0  0  0  0  0  0  0  0  0  0  0  0
   13.6779   -1.6565   21.0685 C   0  0  0  0  0  0  0  0  0  0  0  0
   14.3649   -2.0851   20.2627 N   0  0  0  0  0  0  0  0  0  0  0  0
  1  2  1  0
  2  3  2  0
  3  4  1  0
  4  5  2  0
  5  6  1  0
  6  7  2  0
  7  8  1  0
  8  9  1  0
  9 10  2  0
  9 11  1  0
 11 12  1  0
 12 13  2  0
 13 14  1  0
 14 15  2  0
 15 16  1  0
 16 17  2  0
 16 18  1  0
 18 19  3  0
  7  2  1  0
 17 12  1  0
M  END
