CVD-0001452|dock_bobby27042020.23|mol2|46|dock1
     RDKit          3D

 22 23  0  0  0  0  0  0  0  0999 V2000
    5.6390    0.4128   18.6503 C   0  0  0  0  0  0  0  0  0  0  0  0
    5.3506    0.3090   20.1192 C   0  0  0  0  0  0  0  0  0  0  0  0
    4.2092    0.1436   20.5349 O   0  0  0  0  0  0  0  0  0  0  0  0
    6.3920    0.4181   20.9797 N   0  0  0  0  0  0  0  0  0  0  0  0
    6.2311    0.3501   22.4338 C   0  0  0  0  0  0  0  0  0  0  0  0
    7.1453   -0.7102   23.0191 C   0  0  0  0  0  0  0  0  0  0  0  0
    8.5411   -0.4219   22.6770 N   0  0  0  0  0  0  0  0  0  0  0  0
    9.4349   -1.4242   23.2753 C   0  0  0  0  0  0  0  0  0  0  0  0
   10.8993   -1.1330   23.0488 C   0  0  0  0  0  0  0  0  0  0  0  0
   11.8020   -2.1614   22.8286 C   0  0  0  0  0  0  0  0  0  0  0  0
   13.1443   -1.8886   22.6248 C   0  0  0  0  0  0  0  0  0  0  0  0
   13.5970   -0.5801   22.6407 C   0  0  0  0  0  0  0  0  0  0  0  0
   12.7134    0.4723   22.8610 C   0  0  0  0  0  0  0  0  0  0  0  0
   13.1800    1.8633   22.8809 C   0  0  0  0  0  0  0  0  0  0  0  0
   12.4584    2.9371   22.6101 C   0  0  0  0  0  0  0  0  0  0  0  0
   13.1483    4.5394   22.6805 S   0  0  0  0  0  0  0  0  0  0  0  0
   13.1895    5.1401   21.1903 N   0  0  0  0  0  0  0  0  0  0  0  0
   12.2534    5.3794   23.4478 O   0  0  0  0  0  0  0  0  0  0  0  0
   14.5212    4.4171   23.1226 O   0  0  0  0  0  0  0  0  0  0  0  0
   11.3662    0.1751   23.0638 C   0  0  0  0  0  0  0  0  0  0  0  0
    8.6833   -0.4125   21.2233 C   0  0  0  0  0  0  0  0  0  0  0  0
    7.7903    0.6463   20.6025 C   0  0  0  0  0  0  0  0  0  0  0  0
  1  2  1  0
  2  3  2  0
  2  4  1  0
  4  5  1  0
  5  6  1  0
  6  7  1  0
  7  8  1  0
  8  9  1  0
  9 10  2  0
 10 11  1  0
 11 12  2  0
 12 13  1  0
 13 14  1  0
 14 15  2  0
 15 16  1  0
 16 17  1  0
 16 18  2  0
 16 19  2  0
 13 20  2  0
  7 21  1  0
 21 22  1  0
 22  4  1  0
 20  9  1  0
M  END
