CVD-0000171|dock_bobby27042020.99|mol2|27|dock1
     RDKit          3D

 20 21  0  0  0  0  0  0  0  0999 V2000
   13.8982   -1.5359   24.9466 C   0  0  0  0  0  0  0  0  0  0  0  0
   13.0731   -1.0505   23.8462 N   0  0  0  0  0  0  0  0  0  0  0  0
   13.8892   -0.9046   22.6464 C   0  0  0  0  0  0  0  0  0  0  0  0
   11.9475   -1.9498   23.6038 C   0  0  0  0  0  0  0  0  0  0  0  0
   11.0746   -1.5311   22.4332 C   0  0  0  0  0  0  0  0  0  0  0  0
    9.7899   -2.3038   22.3656 C   0  0  0  0  0  0  0  0  0  0  0  0
    9.4356   -3.3909   23.1089 C   0  0  0  0  0  0  0  0  0  0  0  0
    8.1835   -3.8192   22.7599 N   0  0  0  0  0  0  0  0  0  0  0  0
    7.6957   -3.0043   21.7677 C   0  0  0  0  0  0  0  0  0  0  0  0
    6.4855   -3.0194   21.0819 C   0  0  0  0  0  0  0  0  0  0  0  0
    6.2472   -2.0620   20.1101 C   0  0  0  0  0  0  0  0  0  0  0  0
    7.2106   -1.1032   19.8330 C   0  0  0  0  0  0  0  0  0  0  0  0
    8.4197   -1.0848   20.5126 C   0  0  0  0  0  0  0  0  0  0  0  0
    8.6813   -2.0380   21.4943 C   0  0  0  0  0  0  0  0  0  0  0  0
    6.9044    0.1068   18.5929 S   0  0  0  0  0  0  0  0  0  0  0  0
    6.1289   -0.5057   17.5594 O   0  0  0  0  0  0  0  0  0  0  0  0
    8.1483    0.7341   18.2705 O   0  0  0  0  0  0  0  0  0  0  0  0
    5.9638    1.2558   19.2608 N   0  0  0  0  0  0  0  0  0  0  0  0
    6.1245    1.6082   20.6755 C   0  0  0  0  0  0  0  0  0  0  0  0
    4.7815    1.7473   18.5453 C   0  0  0  0  0  0  0  0  0  0  0  0
  1  2  1  0
  2  3  1  0
  2  4  1  0
  4  5  1  0
  5  6  1  0
  6  7  2  0
  7  8  1  0
  8  9  1  0
  9 10  2  0
 10 11  1  0
 11 12  2  0
 12 13  1  0
 13 14  2  0
 12 15  1  0
 15 16  2  0
 15 17  2  0
 15 18  1  0
 18 19  1  0
 18 20  1  0
 14  6  1  0
 14  9  1  0
M  END
