CVD-0003947|dock_bobby27042020.15|mol2|6|dock3
     RDKit          3D

 18 19  0  0  0  0  0  0  0  0999 V2000
    4.5940    0.8978   22.1516 O   0  0  0  0  0  0  0  0  0  0  0  0
    5.5021    0.6835   21.1561 C   0  0  0  0  0  0  0  0  0  0  0  0
    5.1962    1.0560   19.8569 C   0  0  0  0  0  0  0  0  0  0  0  0
    6.1285    0.8300   18.8676 C   0  0  0  0  0  0  0  0  0  0  0  0
    5.7573    1.2930   17.2305 Cl  0  0  0  0  0  0  0  0  0  0  0  0
    7.3484    0.2462   19.1409 C   0  0  0  0  0  0  0  0  0  0  0  0
    7.6580   -0.1288   20.4449 C   0  0  0  0  0  0  0  0  0  0  0  0
    8.9260   -0.7242   20.6667 N   0  0  0  0  0  0  0  0  0  0  0  0
    9.6791   -0.8424   21.8131 C   0  0  0  0  0  0  0  0  0  0  0  0
    9.3413   -0.4150   22.9119 O   0  0  0  0  0  0  0  0  0  0  0  0
   10.8617   -1.5025   21.5675 N   0  0  0  0  0  0  0  0  0  0  0  0
   11.9293   -1.8459   22.4353 C   0  0  0  0  0  0  0  0  0  0  0  0
   11.6302   -2.2168   23.7401 C   0  0  0  0  0  0  0  0  0  0  0  0
   12.6517   -2.5572   24.6093 C   0  0  0  0  0  0  0  0  0  0  0  0
   13.9471   -2.5174   24.1496 C   0  0  0  0  0  0  0  0  0  0  0  0
   14.2682   -2.1663   22.9046 N   0  0  0  0  0  0  0  0  0  0  0  0
   13.2748   -1.8392   22.0721 C   0  0  0  0  0  0  0  0  0  0  0  0
    6.7225    0.0949   21.4548 C   0  0  0  0  0  0  0  0  0  0  0  0
  1  2  1  0
  2  3  2  0
  3  4  1  0
  4  5  1  0
  4  6  2  0
  6  7  1  0
  7  8  1  0
  8  9  1  0
  9 10  2  0
  9 11  1  0
 11 12  1  0
 12 13  2  0
 13 14  1  0
 14 15  2  0
 15 16  1  0
 16 17  2  0
  7 18  2  0
 18  2  1  0
 17 12  1  0
M  END
