CVD-0001530|dock_bobby27042020.80|mol2|44|dock2
     RDKit          3D

 20 22  0  0  0  0  0  0  0  0999 V2000
   13.5821    5.4373   21.3361 C   0  0  0  0  0  0  0  0  0  0  0  0
   13.4512    4.9506   23.0157 S   0  0  0  0  0  0  0  0  0  0  0  0
   12.8374    6.0183   23.7512 O   0  0  0  0  0  0  0  0  0  0  0  0
   14.7334    4.4786   23.4528 O   0  0  0  0  0  0  0  0  0  0  0  0
   12.3358    3.5775   23.0132 C   0  0  0  0  0  0  0  0  0  0  0  0
   10.9702    3.6322   22.8713 C   0  0  0  0  0  0  0  0  0  0  0  0
   10.3828    2.3679   22.9082 C   0  0  0  0  0  0  0  0  0  0  0  0
   11.2837    1.3381   23.0745 C   0  0  0  0  0  0  0  0  0  0  0  0
   10.9984   -0.1280   23.1564 C   0  0  0  0  0  0  0  0  0  0  0  0
   10.6956   -0.7071   21.8654 N   0  0  0  0  0  0  0  0  0  0  0  0
    9.4918   -0.5856   21.2946 C   0  0  0  0  0  0  0  0  0  0  0  0
    8.4732    0.0600   21.8333 N   0  0  0  0  0  0  0  0  0  0  0  0
    7.4510   -0.0762   20.8978 C   0  0  0  0  0  0  0  0  0  0  0  0
    6.1394    0.3968   20.9170 C   0  0  0  0  0  0  0  0  0  0  0  0
    5.3129    0.1157   19.8393 C   0  0  0  0  0  0  0  0  0  0  0  0
    5.7689   -0.6179   18.7612 C   0  0  0  0  0  0  0  0  0  0  0  0
    7.0693   -1.0954   18.7259 C   0  0  0  0  0  0  0  0  0  0  0  0
    7.8985   -0.8145   19.8054 C   0  0  0  0  0  0  0  0  0  0  0  0
    9.2134   -1.1293   20.0861 N   0  0  0  0  0  0  0  0  0  0  0  0
   12.8891    1.9658   23.1859 S   0  0  0  0  0  0  0  0  0  0  0  0
  1  2  1  0
  2  3  2  0
  2  4  2  0
  2  5  1  0
  5  6  2  0
  6  7  1  0
  7  8  2  0
  8  9  1  0
  9 10  1  0
 10 11  1  0
 11 12  2  0
 12 13  1  0
 13 14  2  0
 14 15  1  0
 15 16  2  0
 16 17  1  0
 17 18  2  0
 18 19  1  0
  8 20  1  0
 20  5  1  0
 19 11  1  0
 18 13  1  0
M  END
