CVD-0000664|dock_bobby27042020.97|mol2|45|dock1
     RDKit          3D

 17 17  0  0  0  0  0  0  0  0999 V2000
    9.2991   -7.1638   26.0485 N   0  0  0  0  0  0  0  0  0  0  0  0
    8.9114   -5.9033   26.1626 C   0  0  0  0  0  0  0  0  0  0  0  0
    7.8508   -5.5801   26.7052 O   0  0  0  0  0  0  0  0  0  0  0  0
    9.8408   -4.8624   25.5892 C   0  0  0  0  0  0  0  0  0  0  0  0
    9.9059   -4.9229   24.0726 C   0  0  0  0  0  0  0  0  0  0  0  0
    8.8175   -4.2028   23.4062 N   0  0  0  0  0  0  0  0  0  0  0  0
    7.5783   -4.9653   23.1699 C   0  0  0  0  0  0  0  0  0  0  0  0
    6.3114   -4.3492   23.7787 C   0  0  0  0  0  0  0  0  0  0  0  0
    5.1257   -5.0991   23.1911 C   0  0  0  0  0  0  0  0  0  0  0  0
    5.5795   -5.4889   21.4987 S   0  0  0  0  0  0  0  0  0  0  0  0
    5.0230   -4.5183   20.5952 O   0  0  0  0  0  0  0  0  0  0  0  0
    5.3143   -6.8781   21.2390 O   0  0  0  0  0  0  0  0  0  0  0  0
    7.3416   -5.1982   21.6930 C   0  0  0  0  0  0  0  0  0  0  0  0
    8.9426   -2.9175   23.0008 C   0  0  0  0  0  0  0  0  0  0  0  0
    8.0207   -2.3077   22.4744 O   0  0  0  0  0  0  0  0  0  0  0  0
   10.2834   -2.2419   23.2162 C   0  0  0  0  0  0  0  0  0  0  0  0
   10.1894   -0.5138   22.8526 Cl  0  0  0  0  0  0  0  0  0  0  0  0
  1  2  1  0
  2  3  2  0
  2  4  1  0
  4  5  1  0
  5  6  1  0
  6  7  1  0
  7  8  1  0
  8  9  1  0
  9 10  1  0
 10 11  2  0
 10 12  2  0
 10 13  1  0
  6 14  1  0
 14 15  2  0
 14 16  1  0
 16 17  1  0
 13  7  1  0
M  END
