CVD-0002865|dock_bobby27042020.32|mol2|43|dock1
     RDKit          3D

 30 33  0  0  0  0  0  0  0  0999 V2000
   11.5490    6.5216   26.4827 C   0  0  0  0  0  0  0  0  0  0  0  0
   12.3489    6.8224   25.2493 C   0  0  0  0  0  0  0  0  0  0  0  0
   12.8004    7.9410   25.0250 O   0  0  0  0  0  0  0  0  0  0  0  0
   12.5549    5.7985   24.4186 N   0  0  0  0  0  0  0  0  0  0  0  0
   13.3258    5.9272   23.1903 C   0  0  0  0  0  0  0  0  0  0  0  0
   12.7039    5.1482   22.0485 C   0  0  0  0  0  0  0  0  0  0  0  0
   12.6780    3.6680   22.2938 C   0  0  0  0  0  0  0  0  0  0  0  0
   13.7460    2.8231   22.3768 C   0  0  0  0  0  0  0  0  0  0  0  0
   13.3258    1.5418   22.6101 N   0  0  0  0  0  0  0  0  0  0  0  0
   11.9546    1.5394   22.6825 C   0  0  0  0  0  0  0  0  0  0  0  0
   11.0757    0.4756   22.9038 C   0  0  0  0  0  0  0  0  0  0  0  0
   11.5832   -0.9298   23.1123 C   0  0  0  0  0  0  0  0  0  0  0  0
   10.5472   -1.8605   23.5346 N   0  0  0  0  0  0  0  0  0  0  0  0
    9.8024   -2.5379   22.6651 C   0  0  0  0  0  0  0  0  0  0  0  0
    9.9337   -2.4282   21.4500 O   0  0  0  0  0  0  0  0  0  0  0  0
    8.7555   -3.4563   23.2595 C   0  0  0  0  0  0  0  0  0  0  0  0
    7.7023   -3.9080   22.2927 C   0  0  0  0  0  0  0  0  0  0  0  0
    7.1188   -5.1390   22.2247 C   0  0  0  0  0  0  0  0  0  0  0  0
    6.1984   -5.1804   21.2112 N   0  0  0  0  0  0  0  0  0  0  0  0
    6.1710   -3.9616   20.5992 C   0  0  0  0  0  0  0  0  0  0  0  0
    5.4046   -3.5881   19.5607 N   0  0  0  0  0  0  0  0  0  0  0  0
    5.5593   -2.3274   19.1331 C   0  0  0  0  0  0  0  0  0  0  0  0
    6.4410   -1.4285   19.6942 C   0  0  0  0  0  0  0  0  0  0  0  0
    7.2240   -1.8304   20.7649 C   0  0  0  0  0  0  0  0  0  0  0  0
    7.1011   -3.1317   21.2476 C   0  0  0  0  0  0  0  0  0  0  0  0
    9.7141    0.7559   22.9312 C   0  0  0  0  0  0  0  0  0  0  0  0
    9.2923    2.0513   22.7400 C   0  0  0  0  0  0  0  0  0  0  0  0
    7.9547    2.2970   22.7709 F   0  0  0  0  0  0  0  0  0  0  0  0
   10.1377    3.1138   22.5195 C   0  0  0  0  0  0  0  0  0  0  0  0
   11.5084    2.8593   22.4889 C   0  0  0  0  0  0  0  0  0  0  0  0
  1  2  1  0
  2  3  2  0
  2  4  1  0
  4  5  1  0
  5  6  1  0
  6  7  1  0
  7  8  2  0
  8  9  1  0
  9 10  1  0
 10 11  2  0
 11 12  1  0
 12 13  1  0
 13 14  1  0
 14 15  2  0
 14 16  1  0
 16 17  1  0
 17 18  2  0
 18 19  1  0
 19 20  1  0
 20 21  2  0
 21 22  1  0
 22 23  2  0
 23 24  1  0
 24 25  2  0
 11 26  1  0
 26 27  2  0
 27 28  1  0
 27 29  1  0
 29 30  2  0
 30  7  1  0
 30 10  1  0
 25 17  1  0
 25 20  1  0
M  END
