CVD-0002246|dock_bobby27042020.64|mol2|10|dock2
     RDKit          3D

 43 48  0  0  0  0  0  0  0  0999 V2000
    9.4171    3.9562   23.4240 F   0  0  0  0  0  0  0  0  0  0  0  0
   10.7554    4.0360   23.2449 C   0  0  0  0  0  0  0  0  0  0  0  0
   11.3002    5.2951   23.3349 C   0  0  0  0  0  0  0  0  0  0  0  0
   12.6597    5.4483   23.1412 C   0  0  0  0  0  0  0  0  0  0  0  0
   13.4379    4.3469   22.8703 C   0  0  0  0  0  0  0  0  0  0  0  0
   12.8714    3.0853   22.7971 C   0  0  0  0  0  0  0  0  0  0  0  0
   11.4998    2.8899   22.9811 C   0  0  0  0  0  0  0  0  0  0  0  0
   10.8949    1.5315   22.9074 C   0  0  0  0  0  0  0  0  0  0  0  0
   11.5205    0.3362   23.2186 C   0  0  0  0  0  0  0  0  0  0  0  0
   10.6407   -0.7427   23.0261 C   0  0  0  0  0  0  0  0  0  0  0  0
   10.9775   -2.1931   23.2529 C   0  0  0  0  0  0  0  0  0  0  0  0
    9.8917   -3.0631   22.8561 N   0  0  0  0  0  0  0  0  0  0  0  0
    8.7760   -3.1484   23.5318 C   0  0  0  0  0  0  0  0  0  0  0  0
    7.6616   -3.9398   23.2606 C   0  0  0  0  0  0  0  0  0  0  0  0
    7.6222   -4.8232   22.0674 C   0  0  0  0  0  0  0  0  0  0  0  0
    8.3448   -6.4066   22.3863 Cl  0  0  0  0  0  0  0  0  0  0  0  0
    6.5440   -3.9549   24.0622 N   0  0  0  0  0  0  0  0  0  0  0  0
    5.7859   -5.2121   24.1977 C   0  0  0  0  0  0  0  0  0  0  0  0
    4.3254   -4.8735   23.8320 C   0  0  0  0  0  0  0  0  0  0  0  0
    3.4811   -6.1415   23.8570 C   0  0  0  0  0  0  0  0  0  0  0  0
    2.9133   -6.6394   22.6926 C   0  0  0  0  0  0  0  0  0  0  0  0
    2.1439   -7.7906   22.7165 C   0  0  0  0  0  0  0  0  0  0  0  0
    1.9322   -8.4574   23.9043 C   0  0  0  0  0  0  0  0  0  0  0  0
    2.4892   -7.9736   25.0686 C   0  0  0  0  0  0  0  0  0  0  0  0
    3.2588   -6.8225   25.0458 C   0  0  0  0  0  0  0  0  0  0  0  0
    3.7902   -3.8066   24.7579 C   0  0  0  0  0  0  0  0  0  0  0  0
    2.4610   -3.7661   25.1810 C   0  0  0  0  0  0  0  0  0  0  0  0
    1.9952   -2.7577   26.0060 C   0  0  0  0  0  0  0  0  0  0  0  0
    2.8572   -1.7671   26.4236 C   0  0  0  0  0  0  0  0  0  0  0  0
    4.1784   -1.7945   26.0119 C   0  0  0  0  0  0  0  0  0  0  0  0
    4.6540   -2.8066   25.1815 C   0  0  0  0  0  0  0  0  0  0  0  0
    6.0713   -2.7194   24.6851 C   0  0  0  0  0  0  0  0  0  0  0  0
    9.4409   -0.2082   22.5856 C   0  0  0  0  0  0  0  0  0  0  0  0
    9.5728    1.1729   22.5126 N   0  0  0  0  0  0  0  0  0  0  0  0
    8.2246    2.0721   22.0079 S   0  0  0  0  0  0  0  0  0  0  0  0
    7.5213    2.4886   23.1815 O   0  0  0  0  0  0  0  0  0  0  0  0
    8.7559    3.0672   21.1290 O   0  0  0  0  0  0  0  0  0  0  0  0
    7.2174    1.0044   21.0370 C   0  0  0  0  0  0  0  0  0  0  0  0
    7.7533    0.3305   19.9529 C   0  0  0  0  0  0  0  0  0  0  0  0
    6.9264   -0.5030   19.2198 C   0  0  0  0  0  0  0  0  0  0  0  0
    5.6088   -0.6286   19.5982 C   0  0  0  0  0  0  0  0  0  0  0  0
    5.0797    0.0129   20.6410 N   0  0  0  0  0  0  0  0  0  0  0  0
    5.8833    0.8157   21.3445 C   0  0  0  0  0  0  0  0  0  0  0  0
  1  2  1  0
  2  3  2  0
  3  4  1  0
  4  5  2  0
  5  6  1  0
  6  7  2  0
  7  8  1  0
  8  9  2  0
  9 10  1  0
 10 11  1  0
 11 12  1  0
 12 13  1  0
 13 14  2  0
 14 15  1  0
 15 16  1  0
 14 17  1  0
 17 18  1  0
 18 19  1  0
 19 20  1  0
 20 21  2  0
 21 22  1  0
 22 23  2  0
 23 24  1  0
 24 25  2  0
 19 26  1  0
 26 27  2  0
 27 28  1  0
 28 29  2  0
 29 30  1  0
 30 31  2  0
 31 32  1  0
 10 33  2  0
 33 34  1  0
 34 35  1  0
 35 36  2  0
 35 37  2  0
 35 38  1  0
 38 39  2  0
 39 40  1  0
 40 41  2  0
 41 42  1  0
 42 43  2  0
  7  2  1  0
 34  8  1  0
 43 38  1  0
 32 17  1  0
 25 20  1  0
 31 26  1  0
M  END
