CVD-0001797|dock_bobby27042020.22|mol2|39|dock2
     RDKit          3D

 23 25  0  0  0  0  0  0  0  0999 V2000
    7.3749    0.1985   18.9437 C   0  0  0  0  0  0  0  0  0  0  0  0
    7.0420   -0.8820   19.8576 N   0  0  0  0  0  0  0  0  0  0  0  0
    7.6483   -0.7944   21.1889 C   0  0  0  0  0  0  0  0  0  0  0  0
    9.1646   -0.8639   21.1472 C   0  0  0  0  0  0  0  0  0  0  0  0
    9.8107   -1.8565   22.1101 C   0  0  0  0  0  0  0  0  0  0  0  0
    9.5000   -1.6769   23.5457 N   0  0  0  0  0  0  0  0  0  0  0  0
    9.6758   -2.7791   24.4523 C   0  0  0  0  0  0  0  0  0  0  0  0
   10.6163   -3.7873   24.1673 C   0  0  0  0  0  0  0  0  0  0  0  0
   10.8405   -4.8476   25.0313 C   0  0  0  0  0  0  0  0  0  0  0  0
   10.1491   -4.9571   26.2080 C   0  0  0  0  0  0  0  0  0  0  0  0
    9.2248   -3.9857   26.5102 C   0  0  0  0  0  0  0  0  0  0  0  0
    8.9755   -2.9079   25.6649 C   0  0  0  0  0  0  0  0  0  0  0  0
    7.9266   -1.9617   26.1921 C   0  0  0  0  0  0  0  0  0  0  0  0
    7.5537   -0.7377   25.4135 C   0  0  0  0  0  0  0  0  0  0  0  0
    8.7252    0.1130   25.0353 C   0  0  0  0  0  0  0  0  0  0  0  0
    8.8534    1.3869   25.5759 C   0  0  0  0  0  0  0  0  0  0  0  0
    9.9069    2.2058   25.2338 C   0  0  0  0  0  0  0  0  0  0  0  0
   10.8404    1.7431   24.3414 C   0  0  0  0  0  0  0  0  0  0  0  0
   10.7359    0.4757   23.7870 C   0  0  0  0  0  0  0  0  0  0  0  0
    9.6705   -0.3728   24.1229 C   0  0  0  0  0  0  0  0  0  0  0  0
    6.2701   -1.9163   19.4839 C   0  0  0  0  0  0  0  0  0  0  0  0
    5.7671   -1.9204   18.0702 C   0  0  0  0  0  0  0  0  0  0  0  0
    5.9990   -2.8210   20.2654 O   0  0  0  0  0  0  0  0  0  0  0  0
  1  2  1  0
  2  3  1  0
  3  4  1  0
  4  5  1  0
  5  6  1  0
  6  7  1  0
  7  8  2  0
  8  9  1  0
  9 10  2  0
 10 11  1  0
 11 12  2  0
 12 13  1  0
 13 14  1  0
 14 15  1  0
 15 16  2  0
 16 17  1  0
 17 18  2  0
 18 19  1  0
 19 20  2  0
  2 21  1  0
 21 22  1  0
 21 23  2  0
 20  6  1  0
 12  7  1  0
 20 15  1  0
M  END
