CVD-0002930|dock_bobby27042020.4|mol2|6|dock2
     RDKit          3D

 43 47  0  0  0  0  0  0  0  0999 V2000
   13.6200   -1.9225   20.8838 N   0  0  0  0  0  0  0  0  0  0  0  0
   13.3445   -1.5044   22.4044 S   0  0  0  0  0  0  0  0  0  0  0  0
   14.6007   -1.1142   22.9706 O   0  0  0  0  0  0  0  0  0  0  0  0
   12.6147   -2.5761   23.0127 O   0  0  0  0  0  0  0  0  0  0  0  0
   12.2968   -0.0812   22.4128 C   0  0  0  0  0  0  0  0  0  0  0  0
   12.8158    1.1416   22.8080 C   0  0  0  0  0  0  0  0  0  0  0  0
   12.0240    2.2494   22.8144 C   0  0  0  0  0  0  0  0  0  0  0  0
   10.6660    2.1794   22.4221 C   0  0  0  0  0  0  0  0  0  0  0  0
    9.8164    3.3115   22.4154 C   0  0  0  0  0  0  0  0  0  0  0  0
    8.5150    3.1957   22.0289 C   0  0  0  0  0  0  0  0  0  0  0  0
    7.9991    1.9714   21.6391 C   0  0  0  0  0  0  0  0  0  0  0  0
    8.7700    0.8382   21.6263 C   0  0  0  0  0  0  0  0  0  0  0  0
    8.1712   -0.4871   21.2029 C   0  0  0  0  0  0  0  0  0  0  0  0
    7.9819   -1.4483   22.2987 N   0  0  0  0  0  0  0  0  0  0  0  0
    8.0763   -2.8346   21.8317 C   0  0  0  0  0  0  0  0  0  0  0  0
    7.9692   -3.7921   23.0040 C   0  0  0  0  0  0  0  0  0  0  0  0
    6.7090   -3.5844   23.7207 N   0  0  0  0  0  0  0  0  0  0  0  0
    6.5567   -2.1906   24.1497 C   0  0  0  0  0  0  0  0  0  0  0  0
    6.6950   -1.2555   22.9621 C   0  0  0  0  0  0  0  0  0  0  0  0
    7.5385   -1.7421   25.2198 C   0  0  0  0  0  0  0  0  0  0  0  0
    8.4728   -0.7724   24.9017 C   0  0  0  0  0  0  0  0  0  0  0  0
    9.3850   -0.2790   25.7427 N   0  0  0  0  0  0  0  0  0  0  0  0
    9.3785   -0.7672   26.9809 C   0  0  0  0  0  0  0  0  0  0  0  0
    8.4974   -1.7382   27.4098 C   0  0  0  0  0  0  0  0  0  0  0  0
    7.5541   -2.2536   26.5250 C   0  0  0  0  0  0  0  0  0  0  0  0
    6.6197   -3.3212   27.0533 C   0  0  0  0  0  0  0  0  0  0  0  0
    5.3314   -2.7569   27.6276 C   0  0  0  0  0  0  0  0  0  0  0  0
    5.5445   -2.0638   28.8901 N   0  0  0  0  0  0  0  0  0  0  0  0
    5.9854   -0.7909   28.9352 C   0  0  0  0  0  0  0  0  0  0  0  0
    6.2310   -0.1470   27.9185 O   0  0  0  0  0  0  0  0  0  0  0  0
    6.1392   -0.2704   30.1724 N   0  0  0  0  0  0  0  0  0  0  0  0
    6.6884    1.0649   30.4081 C   0  0  0  0  0  0  0  0  0  0  0  0
    8.2092    1.0953   30.1520 C   0  0  0  0  0  0  0  0  0  0  0  0
    8.8251    2.4589   30.4596 C   0  0  0  0  0  0  0  0  0  0  0  0
    8.4922    2.9111   31.8756 C   0  0  0  0  0  0  0  0  0  0  0  0
    6.9890    2.9100   32.1133 C   0  0  0  0  0  0  0  0  0  0  0  0
    6.3883    1.5345   31.8419 C   0  0  0  0  0  0  0  0  0  0  0  0
    5.7668   -4.5378   23.9373 C   0  0  0  0  0  0  0  0  0  0  0  0
    4.7124   -4.2918   24.5102 O   0  0  0  0  0  0  0  0  0  0  0  0
    6.0304   -5.9459   23.4383 C   0  0  0  0  0  0  0  0  0  0  0  0
    5.9990   -6.0147   21.6715 Cl  0  0  0  0  0  0  0  0  0  0  0  0
   10.1355    0.9191   22.0181 C   0  0  0  0  0  0  0  0  0  0  0  0
   10.9962   -0.2076   22.0226 C   0  0  0  0  0  0  0  0  0  0  0  0
  1  2  1  0
  2  3  2  0
  2  4  2  0
  2  5  1  0
  5  6  2  0
  6  7  1  0
  7  8  2  0
  8  9  1  0
  9 10  2  0
 10 11  1  0
 11 12  2  0
 12 13  1  0
 13 14  1  0
 14 15  1  0
 15 16  1  0
 16 17  1  0
 17 18  1  0
 18 19  1  0
 18 20  1  0
 20 21  2  0
 21 22  1  0
 22 23  2  0
 23 24  1  0
 24 25  2  0
 25 26  1  0
 26 27  1  0
 27 28  1  0
 28 29  1  0
 29 30  2  0
 29 31  1  0
 31 32  1  0
 32 33  1  0
 33 34  1  0
 34 35  1  0
 35 36  1  0
 36 37  1  0
 17 38  1  0
 38 39  2  0
 38 40  1  0
 40 41  1  0
 12 42  1  0
 42 43  2  0
 43  5  1  0
 42  8  1  0
 19 14  1  0
 25 20  1  0
 37 32  1  0
M  END
