CVD-0002713|dock_bobby27042020.62|mol2|12|dock1
     RDKit          3D

 36 38  0  0  0  0  0  0  0  0999 V2000
   13.4353   -2.1760   22.9384 C   0  0  0  0  0  0  0  0  0  0  0  0
   13.0745   -0.8549   22.2886 C   0  0  0  0  0  0  0  0  0  0  0  0
   11.7041   -0.3321   22.7157 C   0  0  0  0  0  0  0  0  0  0  0  0
   10.6402   -1.0776   22.0590 N   0  0  0  0  0  0  0  0  0  0  0  0
    9.4734   -1.3425   22.6635 C   0  0  0  0  0  0  0  0  0  0  0  0
    9.2324   -0.9711   23.8093 O   0  0  0  0  0  0  0  0  0  0  0  0
    8.3975   -2.1364   21.9175 C   0  0  0  0  0  0  0  0  0  0  0  0
    7.5141   -1.3134   20.9487 C   0  0  0  0  0  0  0  0  0  0  0  0
    6.7463    0.0183   21.8420 S   0  0  0  0  0  0  0  0  0  0  0  0
    6.1392   -0.5045   23.0355 O   0  0  0  0  0  0  0  0  0  0  0  0
    7.7283    1.0542   22.0162 O   0  0  0  0  0  0  0  0  0  0  0  0
    5.4492    0.6673   20.8164 C   0  0  0  0  0  0  0  0  0  0  0  0
    5.8991    1.0740   19.4130 C   0  0  0  0  0  0  0  0  0  0  0  0
    4.5034    1.7446   18.8600 C   0  0  0  0  0  0  0  0  0  0  0  0
    5.3035    0.8324   18.0020 C   0  0  0  0  0  0  0  0  0  0  0  0
    7.6089   -2.9403   22.8649 N   0  0  0  0  0  0  0  0  0  0  0  0
    7.9723   -4.3132   23.2266 C   0  0  0  0  0  0  0  0  0  0  0  0
    7.6915   -4.5181   24.7019 C   0  0  0  0  0  0  0  0  0  0  0  0
    8.3144   -5.5370   25.4091 C   0  0  0  0  0  0  0  0  0  0  0  0
    8.0614   -5.7326   26.7551 C   0  0  0  0  0  0  0  0  0  0  0  0
    7.1771   -4.8939   27.3771 C   0  0  0  0  0  0  0  0  0  0  0  0
    6.9231   -5.0794   28.7007 F   0  0  0  0  0  0  0  0  0  0  0  0
    6.5376   -3.8764   26.7229 C   0  0  0  0  0  0  0  0  0  0  0  0
    6.8018   -3.6943   25.3770 C   0  0  0  0  0  0  0  0  0  0  0  0
    7.1579   -5.3010   22.4149 C   0  0  0  0  0  0  0  0  0  0  0  0
    5.8609   -5.2512   22.7138 F   0  0  0  0  0  0  0  0  0  0  0  0
    7.2667   -5.1075   21.1037 F   0  0  0  0  0  0  0  0  0  0  0  0
    7.5504   -6.5550   22.6334 F   0  0  0  0  0  0  0  0  0  0  0  0
   11.5673    1.1443   22.3578 C   0  0  0  0  0  0  0  0  0  0  0  0
   10.6196    1.5685   21.7193 O   0  0  0  0  0  0  0  0  0  0  0  0
   12.6754    2.0968   22.8473 C   0  0  0  0  0  0  0  0  0  0  0  0
   13.3791    1.8216   23.8180 O   0  0  0  0  0  0  0  0  0  0  0  0
   12.7910    3.2206   22.1303 N   0  0  0  0  0  0  0  0  0  0  0  0
   13.7791    4.2584   22.4254 C   0  0  0  0  0  0  0  0  0  0  0  0
   12.7935    5.3976   23.0842 C   0  0  0  0  0  0  0  0  0  0  0  0
   13.8461    5.7739   22.1052 C   0  0  0  0  0  0  0  0  0  0  0  0
  1  2  1  0
  3  2  1  0
  3  4  1  0
  4  5  1  0
  5  6  2  0
  5  7  1  0
  7  8  1  0
  8  9  1  0
  9 10  2  0
  9 11  2  0
  9 12  1  0
 12 13  1  0
 13 14  1  0
 14 15  1  0
  7 16  1  0
 17 16  1  0
 17 18  1  0
 18 19  2  0
 19 20  1  0
 20 21  2  0
 21 22  1  0
 21 23  1  0
 23 24  2  0
 17 25  1  0
 25 26  1  0
 25 27  1  0
 25 28  1  0
  3 29  1  0
 29 30  2  0
 29 31  1  0
 31 32  2  0
 31 33  1  0
 33 34  1  0
 34 35  1  0
 35 36  1  0
 15 13  1  0
 24 18  1  0
 36 34  1  0
M  END
