CVD-0000074|dock_bobby27042020.71|mol2|30|dock2
     RDKit          3D

 13 13  0  0  0  0  0  0  0  0999 V2000
    5.5613    0.4693   19.0240 Br  0  0  0  0  0  0  0  0  0  0  0  0
    7.3881   -0.1950   19.1221 C   0  0  0  0  0  0  0  0  0  0  0  0
    7.7571   -0.5664   20.5337 C   0  0  0  0  0  0  0  0  0  0  0  0
    9.1225   -1.0654   20.6117 N   0  0  0  0  0  0  0  0  0  0  0  0
    9.7889   -1.1296   21.7813 C   0  0  0  0  0  0  0  0  0  0  0  0
    9.2725   -0.7690   22.8350 O   0  0  0  0  0  0  0  0  0  0  0  0
   11.0607   -1.6282   21.6400 N   0  0  0  0  0  0  0  0  0  0  0  0
   12.0710   -1.8532   22.6076 C   0  0  0  0  0  0  0  0  0  0  0  0
   11.8186   -2.1049   23.9524 C   0  0  0  0  0  0  0  0  0  0  0  0
   12.8828   -2.3111   24.8135 C   0  0  0  0  0  0  0  0  0  0  0  0
   14.1627   -2.2609   24.3114 C   0  0  0  0  0  0  0  0  0  0  0  0
   14.4354   -2.0221   23.0288 N   0  0  0  0  0  0  0  0  0  0  0  0
   13.4016   -1.8243   22.2059 C   0  0  0  0  0  0  0  0  0  0  0  0
  1  2  1  0
  2  3  1  0
  3  4  1  0
  4  5  1  0
  5  6  2  0
  5  7  1  0
  7  8  1  0
  8  9  2  0
  9 10  1  0
 10 11  2  0
 11 12  1  0
 12 13  2  0
 13  8  1  0
M  END
