CVD-0003405|dock_bobby27042020.16|mol2|38|dock1
     RDKit          3D

 18 19  0  0  0  0  0  0  0  0999 V2000
    3.3224    1.9530   20.7835 C   0  0  0  0  0  0  0  0  0  0  0  0
    4.2909    0.8887   20.9355 N   0  0  0  0  0  0  0  0  0  0  0  0
    5.3662    0.7087   20.1041 C   0  0  0  0  0  0  0  0  0  0  0  0
    5.3001    1.0103   18.7483 C   0  0  0  0  0  0  0  0  0  0  0  0
    6.3272    0.8499   17.9108 N   0  0  0  0  0  0  0  0  0  0  0  0
    7.4740    0.3734   18.4027 C   0  0  0  0  0  0  0  0  0  0  0  0
    7.6533    0.0361   19.7426 C   0  0  0  0  0  0  0  0  0  0  0  0
    8.8610   -0.4716   20.2855 N   0  0  0  0  0  0  0  0  0  0  0  0
    9.4424   -0.2851   21.5191 C   0  0  0  0  0  0  0  0  0  0  0  0
    8.9644    0.4069   22.4117 O   0  0  0  0  0  0  0  0  0  0  0  0
   10.6291   -0.9753   21.6211 N   0  0  0  0  0  0  0  0  0  0  0  0
   11.5555   -1.0754   22.6903 C   0  0  0  0  0  0  0  0  0  0  0  0
   11.2374   -0.8043   24.0197 C   0  0  0  0  0  0  0  0  0  0  0  0
   12.2027   -0.9264   25.0058 C   0  0  0  0  0  0  0  0  0  0  0  0
   13.4848   -1.3162   24.6873 C   0  0  0  0  0  0  0  0  0  0  0  0
   13.8095   -1.5865   23.3766 C   0  0  0  0  0  0  0  0  0  0  0  0
   12.8534   -1.4679   22.3823 C   0  0  0  0  0  0  0  0  0  0  0  0
    6.5688    0.2136   20.5945 C   0  0  0  0  0  0  0  0  0  0  0  0
  1  2  1  0
  2  3  1  0
  3  4  2  0
  4  5  1  0
  5  6  2  0
  6  7  1  0
  7  8  1  0
  8  9  1  0
  9 10  2  0
  9 11  1  0
 11 12  1  0
 12 13  2  0
 13 14  1  0
 14 15  2  0
 15 16  1  0
 16 17  2  0
  7 18  2  0
 18  3  1  0
 17 12  1  0
M  END
