CVD-0000967|dock_bobby27042020.11|mol2|17|dock2
     RDKit          3D

 30 33  0  0  0  0  0  0  0  0999 V2000
    8.0870    0.3708   20.0053 N   0  0  0  0  0  0  0  0  0  0  0  0
    7.9717    0.8844   21.5174 S   0  0  0  0  0  0  0  0  0  0  0  0
    7.3663   -0.1836   22.2549 O   0  0  0  0  0  0  0  0  0  0  0  0
    7.2927    2.1448   21.5107 O   0  0  0  0  0  0  0  0  0  0  0  0
    9.5930    1.1490   22.1964 C   0  0  0  0  0  0  0  0  0  0  0  0
   10.1520    2.3911   21.9167 C   0  0  0  0  0  0  0  0  0  0  0  0
   11.4582    2.6803   22.2713 C   0  0  0  0  0  0  0  0  0  0  0  0
   12.1982    1.7068   22.9190 C   0  0  0  0  0  0  0  0  0  0  0  0
   11.6422    0.4879   23.2586 C   0  0  0  0  0  0  0  0  0  0  0  0
   10.3116    0.2002   22.9554 C   0  0  0  0  0  0  0  0  0  0  0  0
    9.7645   -1.0205   23.4237 N   0  0  0  0  0  0  0  0  0  0  0  0
    9.7430   -2.1912   22.5344 C   0  0  0  0  0  0  0  0  0  0  0  0
    8.6996   -3.2001   23.0005 C   0  0  0  0  0  0  0  0  0  0  0  0
    8.8561   -3.5378   24.4070 N   0  0  0  0  0  0  0  0  0  0  0  0
    8.9323   -2.3554   25.2778 C   0  0  0  0  0  0  0  0  0  0  0  0
   10.0415   -1.4461   24.8194 C   0  0  0  0  0  0  0  0  0  0  0  0
    8.8872   -4.7696   24.9828 C   0  0  0  0  0  0  0  0  0  0  0  0
    8.7296   -5.7546   24.2632 O   0  0  0  0  0  0  0  0  0  0  0  0
    9.0890   -5.0257   26.4442 C   0  0  0  0  0  0  0  0  0  0  0  0
   10.0950   -5.6619   26.9906 C   0  0  0  0  0  0  0  0  0  0  0  0
   12.0657    4.0404   21.9568 C   0  0  0  0  0  0  0  0  0  0  0  0
   13.4976    4.1037   22.2144 N   0  0  0  0  0  0  0  0  0  0  0  0
   13.8596    5.0348   23.1175 C   0  0  0  0  0  0  0  0  0  0  0  0
   15.0009    5.2585   23.5070 O   0  0  0  0  0  0  0  0  0  0  0  0
   12.6179    5.7296   23.5226 C   0  0  0  0  0  0  0  0  0  0  0  0
   12.4092    6.7894   24.4041 C   0  0  0  0  0  0  0  0  0  0  0  0
   11.1201    7.2639   24.5972 C   0  0  0  0  0  0  0  0  0  0  0  0
   10.0562    6.6951   23.9258 C   0  0  0  0  0  0  0  0  0  0  0  0
   10.2667    5.6414   23.0499 C   0  0  0  0  0  0  0  0  0  0  0  0
   11.5555    5.1548   22.8462 C   0  0  0  0  0  0  0  0  0  0  0  0
  1  2  1  0
  2  3  2  0
  2  4  2  0
  2  5  1  0
  5  6  2  0
  6  7  1  0
  7  8  2  0
  8  9  1  0
  9 10  2  0
 10 11  1  0
 11 12  1  0
 12 13  1  0
 13 14  1  0
 14 15  1  0
 15 16  1  0
 14 17  1  0
 17 18  2  0
 17 19  1  0
 19 20  2  0
  7 21  1  0
 21 22  1  0
 22 23  1  0
 23 24  2  0
 23 25  1  0
 25 26  2  0
 26 27  1  0
 27 28  2  0
 28 29  1  0
 29 30  2  0
 10  5  1  0
 16 11  1  0
 30 21  1  0
 30 25  1  0
M  END
