CVD-0000202|dock_bobby27042020.57|mol2|1|dock3
     RDKit          3D

 25 28  0  0  0  0  0  0  0  0999 V2000
    9.4140    6.4653   22.5903 C   0  0  0  0  0  0  0  0  0  0  0  0
    9.3182    5.0488   22.7269 O   0  0  0  0  0  0  0  0  0  0  0  0
   10.4502    4.2726   22.7597 C   0  0  0  0  0  0  0  0  0  0  0  0
   11.7190    4.8324   22.6622 C   0  0  0  0  0  0  0  0  0  0  0  0
   12.8423    4.0240   22.6983 C   0  0  0  0  0  0  0  0  0  0  0  0
   12.6851    2.6501   22.8330 C   0  0  0  0  0  0  0  0  0  0  0  0
   13.6074    1.6343   22.8958 N   0  0  0  0  0  0  0  0  0  0  0  0
   12.9460    0.4441   23.0311 C   0  0  0  0  0  0  0  0  0  0  0  0
   11.5987    0.6499   23.0593 C   0  0  0  0  0  0  0  0  0  0  0  0
   10.5115   -0.3827   23.1950 C   0  0  0  0  0  0  0  0  0  0  0  0
   10.4844   -1.0515   24.5604 C   0  0  0  0  0  0  0  0  0  0  0  0
    9.3119   -2.0152   24.6441 C   0  0  0  0  0  0  0  0  0  0  0  0
    9.4396   -3.0715   23.6349 N   0  0  0  0  0  0  0  0  0  0  0  0
    9.3847   -2.4550   22.3051 C   0  0  0  0  0  0  0  0  0  0  0  0
   10.5282   -1.4615   22.1195 C   0  0  0  0  0  0  0  0  0  0  0  0
    8.5152   -4.2162   23.8421 C   0  0  0  0  0  0  0  0  0  0  0  0
    7.0540   -3.7988   23.6955 C   0  0  0  0  0  0  0  0  0  0  0  0
    8.7550   -4.8551   25.1786 C   0  0  0  0  0  0  0  0  0  0  0  0
   10.0357   -5.1793   25.6342 C   0  0  0  0  0  0  0  0  0  0  0  0
   10.2459   -5.7497   26.8232 N   0  0  0  0  0  0  0  0  0  0  0  0
    9.1639   -5.9976   27.5610 C   0  0  0  0  0  0  0  0  0  0  0  0
    7.8941   -5.6823   27.1206 C   0  0  0  0  0  0  0  0  0  0  0  0
    7.6775   -5.1105   25.9295 N   0  0  0  0  0  0  0  0  0  0  0  0
   11.4083    2.0699   22.9327 C   0  0  0  0  0  0  0  0  0  0  0  0
   10.2903    2.9010   22.8943 C   0  0  0  0  0  0  0  0  0  0  0  0
  1  2  1  0
  2  3  1  0
  3  4  2  0
  4  5  1  0
  5  6  2  0
  6  7  1  0
  7  8  1  0
  8  9  2  0
  9 10  1  0
 10 11  1  0
 11 12  1  0
 12 13  1  0
 13 14  1  0
 14 15  1  0
 13 16  1  0
 16 17  1  0
 16 18  1  0
 18 19  2  0
 19 20  1  0
 20 21  2  0
 21 22  1  0
 22 23  2  0
  9 24  1  0
 24 25  2  0
 25  3  1  0
 24  6  1  0
 15 10  1  0
 23 18  1  0
M  END
