CVD-0002204|dock_bobby27042020.35|mol2|17|dock1
     RDKit          3D

 23 25  0  0  0  0  0  0  0  0999 V2000
    6.6911   -6.3970   22.3505 C   0  0  0  0  0  0  0  0  0  0  0  0
    6.8762   -5.4423   21.2129 C   0  0  0  0  0  0  0  0  0  0  0  0
    6.6948   -4.0649   21.6395 N   0  0  0  0  0  0  0  0  0  0  0  0
    6.6070   -3.0403   20.7751 C   0  0  0  0  0  0  0  0  0  0  0  0
    5.9119   -3.2631   19.6419 N   0  0  0  0  0  0  0  0  0  0  0  0
    5.8064   -2.2596   18.7635 C   0  0  0  0  0  0  0  0  0  0  0  0
    6.3731   -1.0053   18.9565 C   0  0  0  0  0  0  0  0  0  0  0  0
    7.0886   -0.7872   20.1282 C   0  0  0  0  0  0  0  0  0  0  0  0
    7.2220   -1.8050   21.0651 C   0  0  0  0  0  0  0  0  0  0  0  0
    8.0048   -1.5349   22.3316 C   0  0  0  0  0  0  0  0  0  0  0  0
    9.1663   -0.5433   22.1135 C   0  0  0  0  0  0  0  0  0  0  0  0
   10.3044   -0.7516   23.0833 C   0  0  0  0  0  0  0  0  0  0  0  0
   10.2565   -0.2183   24.3648 C   0  0  0  0  0  0  0  0  0  0  0  0
   11.2999   -0.4042   25.2577 C   0  0  0  0  0  0  0  0  0  0  0  0
   12.4178   -1.1360   24.8719 C   0  0  0  0  0  0  0  0  0  0  0  0
   13.6661   -1.4818   25.6302 C   0  0  0  0  0  0  0  0  0  0  0  0
   14.3911   -2.2603   24.6495 N   0  0  0  0  0  0  0  0  0  0  0  0
   13.7626   -2.3942   23.4672 C   0  0  0  0  0  0  0  0  0  0  0  0
   14.1960   -3.0174   22.5035 O   0  0  0  0  0  0  0  0  0  0  0  0
   12.4781   -1.6726   23.5984 C   0  0  0  0  0  0  0  0  0  0  0  0
   11.4259   -1.4826   22.7043 C   0  0  0  0  0  0  0  0  0  0  0  0
    6.2267    0.0411   17.9750 C   0  0  0  0  0  0  0  0  0  0  0  0
    6.1429    0.8671   17.1904 N   0  0  0  0  0  0  0  0  0  0  0  0
  1  2  1  0
  2  3  1  0
  3  4  1  0
  4  5  2  0
  5  6  1  0
  6  7  2  0
  7  8  1  0
  8  9  2  0
  9 10  1  0
 10 11  1  0
 11 12  1  0
 12 13  2  0
 13 14  1  0
 14 15  2  0
 15 16  1  0
 16 17  1  0
 17 18  1  0
 18 19  2  0
 18 20  1  0
 20 21  2  0
  7 22  1  0
 22 23  3  0
  9  4  1  0
 21 12  1  0
 20 15  1  0
M  END
