CVD-0002614|dock_bobby27042020.48|mol2|4|dock3
     RDKit          3D

 24 26  0  0  0  0  0  0  0  0999 V2000
    8.5967    2.6548   22.3579 C   0  0  0  0  0  0  0  0  0  0  0  0
    9.9839    2.9399   22.0594 N   0  0  0  0  0  0  0  0  0  0  0  0
   10.9827    2.0993   22.3631 C   0  0  0  0  0  0  0  0  0  0  0  0
   10.6382    0.8055   22.4511 N   0  0  0  0  0  0  0  0  0  0  0  0
   11.6376   -0.0679   22.5826 C   0  0  0  0  0  0  0  0  0  0  0  0
   11.2272   -1.5173   22.6510 C   0  0  0  0  0  0  0  0  0  0  0  0
    9.7707   -1.7018   22.7403 N   0  0  0  0  0  0  0  0  0  0  0  0
    9.1704   -1.6971   21.4030 C   0  0  0  0  0  0  0  0  0  0  0  0
    7.6637   -1.8465   21.5031 C   0  0  0  0  0  0  0  0  0  0  0  0
    7.3179   -3.0825   22.2086 N   0  0  0  0  0  0  0  0  0  0  0  0
    7.9531   -3.1451   23.5287 C   0  0  0  0  0  0  0  0  0  0  0  0
    9.4549   -2.9661   23.4001 C   0  0  0  0  0  0  0  0  0  0  0  0
    6.4906   -4.0138   21.6904 C   0  0  0  0  0  0  0  0  0  0  0  0
    5.9722   -3.8712   20.5901 O   0  0  0  0  0  0  0  0  0  0  0  0
    6.2211   -5.2461   22.5329 C   0  0  0  0  0  0  0  0  0  0  0  0
    5.1201   -6.3513   21.6999 Cl  0  0  0  0  0  0  0  0  0  0  0  0
   12.9420    0.2041   22.6642 N   0  0  0  0  0  0  0  0  0  0  0  0
   13.2592    1.5017   22.6779 C   0  0  0  0  0  0  0  0  0  0  0  0
   12.3288    2.5394   22.5684 C   0  0  0  0  0  0  0  0  0  0  0  0
   12.8123    3.9413   22.6791 C   0  0  0  0  0  0  0  0  0  0  0  0
   14.0183    4.4805   22.1518 C   0  0  0  0  0  0  0  0  0  0  0  0
   14.2089    5.8059   22.4035 C   0  0  0  0  0  0  0  0  0  0  0  0
   12.9013    6.4222   23.2933 S   0  0  0  0  0  0  0  0  0  0  0  0
   12.1018    4.9227   23.3276 C   0  0  0  0  0  0  0  0  0  0  0  0
  1  2  1  0
  2  3  1  0
  3  4  2  0
  4  5  1  0
  5  6  1  0
  6  7  1  0
  7  8  1  0
  8  9  1  0
  9 10  1  0
 10 11  1  0
 11 12  1  0
 10 13  1  0
 13 14  2  0
 13 15  1  0
 15 16  1  0
  5 17  2  0
 17 18  1  0
 18 19  2  0
 19 20  1  0
 20 21  1  0
 21 22  2  0
 22 23  1  0
 23 24  1  0
 19  3  1  0
 24 20  2  0
 12  7  1  0
M  END
