CVD-0000648|dock_bobby27042020.26|mol2|35|dock1
     RDKit          3D

 20 21  0  0  0  0  0  0  0  0999 V2000
    6.8758   -2.7347   22.2315 C   0  0  0  0  0  0  0  0  0  0  0  0
    7.4972   -1.5551   22.9793 C   0  0  0  0  0  0  0  0  0  0  0  0
    7.1669   -1.7060   24.4633 C   0  0  0  0  0  0  0  0  0  0  0  0
    6.8275   -0.2930   22.4682 C   0  0  0  0  0  0  0  0  0  0  0  0
    7.1237   -0.0962   21.0474 N   0  0  0  0  0  0  0  0  0  0  0  0
    8.5680   -0.0777   20.7958 C   0  0  0  0  0  0  0  0  0  0  0  0
    9.2142   -1.3384   21.3408 C   0  0  0  0  0  0  0  0  0  0  0  0
    8.9461   -1.4812   22.7694 N   0  0  0  0  0  0  0  0  0  0  0  0
    9.8105   -2.4876   23.4017 C   0  0  0  0  0  0  0  0  0  0  0  0
   11.0030   -1.8795   24.1012 C   0  0  0  0  0  0  0  0  0  0  0  0
   11.0198   -0.5339   24.4332 C   0  0  0  0  0  0  0  0  0  0  0  0
   12.1123    0.0224   25.0774 C   0  0  0  0  0  0  0  0  0  0  0  0
   13.2064   -0.7629   25.4001 C   0  0  0  0  0  0  0  0  0  0  0  0
   13.1836   -2.0998   25.0690 C   0  0  0  0  0  0  0  0  0  0  0  0
   14.5514   -3.1007   25.4688 Cl  0  0  0  0  0  0  0  0  0  0  0  0
   12.1008   -2.6652   24.4272 C   0  0  0  0  0  0  0  0  0  0  0  0
    6.1604    0.0428   20.1131 C   0  0  0  0  0  0  0  0  0  0  0  0
    4.9694    0.0177   20.3971 O   0  0  0  0  0  0  0  0  0  0  0  0
    6.6275    0.2384   18.6841 C   0  0  0  0  0  0  0  0  0  0  0  0
    5.2539    0.5197   17.6064 Cl  0  0  0  0  0  0  0  0  0  0  0  0
  1  2  1  0
  2  3  1  0
  2  4  1  0
  4  5  1  0
  5  6  1  0
  6  7  1  0
  7  8  1  0
  8  9  1  0
  9 10  1  0
 10 11  2  0
 11 12  1  0
 12 13  2  0
 13 14  1  0
 14 15  1  0
 14 16  2  0
  5 17  1  0
 17 18  2  0
 17 19  1  0
 19 20  1  0
  8  2  1  0
 16 10  1  0
M  END
