CVD-0003748|dock_bobby27042020.72|mol2|45|dock2
     RDKit          3D

 21 22  0  0  0  0  0  0  0  0999 V2000
    5.4282   -2.1867   18.4036 F   0  0  0  0  0  0  0  0  0  0  0  0
    5.4380   -0.8853   18.7730 C   0  0  0  0  0  0  0  0  0  0  0  0
    4.9096    0.0281   17.8923 C   0  0  0  0  0  0  0  0  0  0  0  0
    4.9140    1.3677   18.2395 C   0  0  0  0  0  0  0  0  0  0  0  0
    5.4455    1.7752   19.4508 C   0  0  0  0  0  0  0  0  0  0  0  0
    5.9644    0.8292   20.3033 C   0  0  0  0  0  0  0  0  0  0  0  0
    6.4798    1.2774   21.4707 F   0  0  0  0  0  0  0  0  0  0  0  0
    5.9782   -0.5389   20.0132 C   0  0  0  0  0  0  0  0  0  0  0  0
    6.6382   -1.7828   21.1139 S   0  0  0  0  0  0  0  0  0  0  0  0
    6.2660   -3.0740   20.6215 O   0  0  0  0  0  0  0  0  0  0  0  0
    6.3381   -1.4589   22.4750 O   0  0  0  0  0  0  0  0  0  0  0  0
    8.2722   -1.6971   20.9751 N   0  0  0  0  0  0  0  0  0  0  0  0
    9.1229   -1.4128   22.0380 C   0  0  0  0  0  0  0  0  0  0  0  0
    8.6678   -1.2081   23.1595 O   0  0  0  0  0  0  0  0  0  0  0  0
   10.4530   -1.3913   21.6954 N   0  0  0  0  0  0  0  0  0  0  0  0
   11.6075   -1.1444   22.4799 C   0  0  0  0  0  0  0  0  0  0  0  0
   11.5114   -0.2036   23.4991 C   0  0  0  0  0  0  0  0  0  0  0  0
   12.6045    0.0813   24.2996 C   0  0  0  0  0  0  0  0  0  0  0  0
   13.8027   -0.5660   24.0945 C   0  0  0  0  0  0  0  0  0  0  0  0
   13.9102   -1.5002   23.0878 C   0  0  0  0  0  0  0  0  0  0  0  0
   12.8238   -1.7939   22.2802 C   0  0  0  0  0  0  0  0  0  0  0  0
  1  2  1  0
  2  3  2  0
  3  4  1  0
  4  5  2  0
  5  6  1  0
  6  7  1  0
  6  8  2  0
  8  9  1  0
  9 10  2  0
  9 11  2  0
  9 12  1  0
 12 13  1  0
 13 14  2  0
 13 15  1  0
 15 16  1  0
 16 17  2  0
 17 18  1  0
 18 19  2  0
 19 20  1  0
 20 21  2  0
  8  2  1  0
 21 16  1  0
M  END
