CVD-0000426|dock_bobby27042020.41|mol2|30|dock3
     RDKit          3D

 26 29  0  0  0  0  0  0  0  0999 V2000
   14.1287    5.5308   21.6691 C   0  0  0  0  0  0  0  0  0  0  0  0
   12.8407    4.7835   21.9267 C   0  0  0  0  0  0  0  0  0  0  0  0
   13.0861    3.3704   22.4235 C   0  0  0  0  0  0  0  0  0  0  0  0
   11.8639    2.5212   22.6190 C   0  0  0  0  0  0  0  0  0  0  0  0
   10.5753    2.9679   22.6787 C   0  0  0  0  0  0  0  0  0  0  0  0
    9.7103    1.9268   22.8742 N   0  0  0  0  0  0  0  0  0  0  0  0
   10.4415    0.7685   22.9467 C   0  0  0  0  0  0  0  0  0  0  0  0
   10.0285   -0.5529   23.1461 C   0  0  0  0  0  0  0  0  0  0  0  0
    8.6547   -0.7321   23.3111 O   0  0  0  0  0  0  0  0  0  0  0  0
    7.8694   -1.3482   22.3765 C   0  0  0  0  0  0  0  0  0  0  0  0
    7.4581   -0.6156   21.2746 C   0  0  0  0  0  0  0  0  0  0  0  0
    6.6540   -1.2430   20.3311 C   0  0  0  0  0  0  0  0  0  0  0  0
    6.3002   -2.5695   20.5368 C   0  0  0  0  0  0  0  0  0  0  0  0
    6.7655   -3.2001   21.6722 C   0  0  0  0  0  0  0  0  0  0  0  0
    7.5406   -2.6094   22.5913 N   0  0  0  0  0  0  0  0  0  0  0  0
    6.1928   -0.5117   19.1448 C   0  0  0  0  0  0  0  0  0  0  0  0
    5.8035   -0.9528   17.9167 C   0  0  0  0  0  0  0  0  0  0  0  0
    5.4496    0.1008   17.1120 N   0  0  0  0  0  0  0  0  0  0  0  0
    5.6262    1.1758   17.8565 C   0  0  0  0  0  0  0  0  0  0  0  0
    6.0716    0.8581   19.0853 N   0  0  0  0  0  0  0  0  0  0  0  0
   10.9689   -1.5694   23.1780 C   0  0  0  0  0  0  0  0  0  0  0  0
   12.2880   -1.2413   22.9996 C   0  0  0  0  0  0  0  0  0  0  0  0
   13.2104   -2.2305   23.0233 F   0  0  0  0  0  0  0  0  0  0  0  0
   12.7166    0.0583   22.7958 C   0  0  0  0  0  0  0  0  0  0  0  0
   14.3957    0.3718   22.5617 Cl  0  0  0  0  0  0  0  0  0  0  0  0
   11.7978    1.1016   22.7777 C   0  0  0  0  0  0  0  0  0  0  0  0
  1  2  1  0
  2  3  1  0
  3  4  1  0
  4  5  2  0
  5  6  1  0
  6  7  1  0
  7  8  2  0
  8  9  1  0
  9 10  1  0
 10 11  2  0
 11 12  1  0
 12 13  2  0
 13 14  1  0
 14 15  2  0
 12 16  1  0
 16 17  2  0
 17 18  1  0
 18 19  2  0
 19 20  1  0
  8 21  1  0
 21 22  2  0
 22 23  1  0
 22 24  1  0
 24 25  1  0
 24 26  2  0
 26  4  1  0
 26  7  1  0
 15 10  1  0
 20 16  1  0
M  END
