CVD-0003992|dock_bobby27042020.43|mol2|27|dock2
     RDKit          3D

 21 21  0  0  0  0  0  0  0  0999 V2000
    8.7369    6.6671   22.8152 C   0  0  0  0  0  0  0  0  0  0  0  0
   10.0014    6.7656   23.6188 C   0  0  0  0  0  0  0  0  0  0  0  0
   10.0373    7.4122   24.6611 O   0  0  0  0  0  0  0  0  0  0  0  0
   11.1199    6.1223   23.1507 N   0  0  0  0  0  0  0  0  0  0  0  0
   12.3695    6.0332   23.6438 C   0  0  0  0  0  0  0  0  0  0  0  0
   12.7809    6.5383   24.6686 O   0  0  0  0  0  0  0  0  0  0  0  0
   13.4501    5.0456   22.6306 S   0  0  0  0  0  0  0  0  0  0  0  0
   13.3460    5.5686   21.2990 O   0  0  0  0  0  0  0  0  0  0  0  0
   14.7264    5.0433   23.2855 O   0  0  0  0  0  0  0  0  0  0  0  0
   12.7604    3.4124   22.6757 C   0  0  0  0  0  0  0  0  0  0  0  0
   11.5106    3.2513   21.8231 C   0  0  0  0  0  0  0  0  0  0  0  0
   11.4981    3.5302   20.6433 O   0  0  0  0  0  0  0  0  0  0  0  0
   10.2935    2.7239   22.5379 C   0  0  0  0  0  0  0  0  0  0  0  0
   10.3198    1.2269   22.7353 C   0  0  0  0  0  0  0  0  0  0  0  0
   11.2470    0.8922   23.8049 O   0  0  0  0  0  0  0  0  0  0  0  0
   11.9466   -0.2623   23.7829 C   0  0  0  0  0  0  0  0  0  0  0  0
   11.4760   -1.3525   23.1780 C   0  0  0  0  0  0  0  0  0  0  0  0
   12.2276   -2.6211   23.0609 C   0  0  0  0  0  0  0  0  0  0  0  0
   13.5849   -2.5656   23.6461 C   0  0  0  0  0  0  0  0  0  0  0  0
   14.0627   -1.4875   24.2417 C   0  0  0  0  0  0  0  0  0  0  0  0
   13.2989   -0.2379   24.4081 C   0  0  0  0  0  0  0  0  0  0  0  0
  1  2  1  0
  2  3  2  0
  2  4  1  0
  4  5  1  0
  5  6  2  0
  5  7  1  0
  7  8  2  0
  7  9  2  0
  7 10  1  0
 10 11  1  0
 11 12  2  0
 11 13  1  0
 13 14  1  0
 14 15  1  0
 15 16  1  0
 16 17  2  0
 17 18  1  0
 18 19  1  0
 19 20  2  0
 20 21  1  0
 21 16  1  0
M  END
