CVD-0001597|dock_bobby27042020.94|mol2|41|dock3
     RDKit          3D

 17 18  0  0  0  0  0  0  0  0999 V2000
    6.4211   -3.1559   22.1933 C   0  0  0  0  0  0  0  0  0  0  0  0
    7.6629   -2.3155   21.9449 C   0  0  0  0  0  0  0  0  0  0  0  0
    7.8870   -1.4056   23.1280 C   0  0  0  0  0  0  0  0  0  0  0  0
    9.0657   -0.5689   22.9116 N   0  0  0  0  0  0  0  0  0  0  0  0
   10.2947   -1.3338   22.9006 C   0  0  0  0  0  0  0  0  0  0  0  0
   11.4708   -0.4893   22.8592 N   0  0  0  0  0  0  0  0  0  0  0  0
   12.6771   -1.1364   22.2998 C   0  0  0  0  0  0  0  0  0  0  0  0
   13.1070   -2.3772   23.0683 C   0  0  0  0  0  0  0  0  0  0  0  0
   14.1199   -2.1277   24.2009 C   0  0  0  0  0  0  0  0  0  0  0  0
   13.8496   -0.8842   24.8566 O   0  0  0  0  0  0  0  0  0  0  0  0
   12.4830   -0.6134   25.1498 C   0  0  0  0  0  0  0  0  0  0  0  0
   11.8138    0.2324   24.0936 C   0  0  0  0  0  0  0  0  0  0  0  0
    8.8213    0.2647   21.7392 C   0  0  0  0  0  0  0  0  0  0  0  0
    8.6529   -0.5917   20.5124 C   0  0  0  0  0  0  0  0  0  0  0  0
    7.5599   -1.5488   20.7017 N   0  0  0  0  0  0  0  0  0  0  0  0
    6.5875   -1.7053   19.8126 C   0  0  0  0  0  0  0  0  0  0  0  0
    5.7763   -1.8809   19.0216 N   0  0  0  0  0  0  0  0  0  0  0  0
  1  2  1  0
  2  3  1  0
  3  4  1  0
  4  5  1  0
  5  6  1  0
  6  7  1  0
  7  8  1  0
  8  9  1  0
  9 10  1  0
 10 11  1  0
 11 12  1  0
  4 13  1  0
 13 14  1  0
 14 15  1  0
 15 16  1  0
 16 17  3  0
 15  2  1  0
 12  6  1  0
M  END
