CVD-0000794|dock_bobby27042020.97|mol2|26|dock1
     RDKit          3D

 25 27  0  0  0  0  0  0  0  0999 V2000
   13.9390    5.5881   21.7534 C   0  0  0  0  0  0  0  0  0  0  0  0
   13.1489    5.4845   23.0320 C   0  0  0  0  0  0  0  0  0  0  0  0
   11.8836    4.6599   22.8969 C   0  0  0  0  0  0  0  0  0  0  0  0
   11.9244    3.2758   22.9446 C   0  0  0  0  0  0  0  0  0  0  0  0
   10.7732    2.5011   22.8104 C   0  0  0  0  0  0  0  0  0  0  0  0
   10.8473    1.1561   23.0958 N   0  0  0  0  0  0  0  0  0  0  0  0
   11.9913    0.2925   22.8215 C   0  0  0  0  0  0  0  0  0  0  0  0
   12.7406   -0.0693   24.1203 C   0  0  0  0  0  0  0  0  0  0  0  0
   13.9012   -1.0316   23.8750 C   0  0  0  0  0  0  0  0  0  0  0  0
   13.4394   -2.2805   23.1353 C   0  0  0  0  0  0  0  0  0  0  0  0
   12.7288   -1.9195   21.8388 C   0  0  0  0  0  0  0  0  0  0  0  0
   11.5474   -0.9899   22.0973 C   0  0  0  0  0  0  0  0  0  0  0  0
    9.5613    3.1073   22.4160 C   0  0  0  0  0  0  0  0  0  0  0  0
    8.3044    2.6959   21.9251 N   0  0  0  0  0  0  0  0  0  0  0  0
    7.4574    3.7864   22.0000 C   0  0  0  0  0  0  0  0  0  0  0  0
    8.1292    4.9026   22.3649 C   0  0  0  0  0  0  0  0  0  0  0  0
    7.5779    6.2916   22.5597 C   0  0  0  0  0  0  0  0  0  0  0  0
    7.9016    6.8801   23.8641 N   0  0  0  0  0  0  0  0  0  0  0  0
    7.1513    8.1158   24.0562 C   0  0  0  0  0  0  0  0  0  0  0  0
    7.5796    5.9527   24.9436 C   0  0  0  0  0  0  0  0  0  0  0  0
    9.4997    4.5138   22.5194 C   0  0  0  0  0  0  0  0  0  0  0  0
   10.6503    5.2670   22.7371 C   0  0  0  0  0  0  0  0  0  0  0  0
    7.8403    1.4750   21.3916 C   0  0  0  0  0  0  0  0  0  0  0  0
    6.4169    1.3061   20.9505 C   0  0  0  0  0  0  0  0  0  0  0  0
    8.6228    0.5356   21.3032 O   0  0  0  0  0  0  0  0  0  0  0  0
  1  2  1  0
  2  3  1  0
  3  4  2  0
  4  5  1  0
  5  6  1  0
  6  7  1  0
  7  8  1  0
  8  9  1  0
  9 10  1  0
 10 11  1  0
 11 12  1  0
  5 13  2  0
 13 14  1  0
 14 15  1  0
 15 16  2  0
 16 17  1  0
 17 18  1  0
 18 19  1  0
 18 20  1  0
 16 21  1  0
 21 22  2  0
 14 23  1  0
 23 24  1  0
 23 25  2  0
 22  3  1  0
 12  7  1  0
 21 13  1  0
M  END
