CVD-0000216|dock_bobby27042020.56|mol2|40|dock2
     RDKit          3D

 27 29  0  0  0  0  0  0  0  0999 V2000
    5.9024    1.3988   17.8865 O   0  0  0  0  0  0  0  0  0  0  0  0
    5.9417    0.1645   18.4666 C   0  0  0  0  0  0  0  0  0  0  0  0
    5.5616   -0.9546   17.7426 C   0  0  0  0  0  0  0  0  0  0  0  0
    5.6040   -2.2029   18.3371 C   0  0  0  0  0  0  0  0  0  0  0  0
    6.0259   -2.3332   19.6544 C   0  0  0  0  0  0  0  0  0  0  0  0
    6.0659   -3.5613   20.2334 O   0  0  0  0  0  0  0  0  0  0  0  0
    6.4113   -1.2150   20.3957 C   0  0  0  0  0  0  0  0  0  0  0  0
    6.8712   -1.3563   21.8278 C   0  0  0  0  0  0  0  0  0  0  0  0
    8.1721   -2.0289   21.9645 N   0  0  0  0  0  0  0  0  0  0  0  0
    9.2307   -1.3055   21.2052 C   0  0  0  0  0  0  0  0  0  0  0  0
   10.6078   -1.3821   21.8405 C   0  0  0  0  0  0  0  0  0  0  0  0
   10.7188   -0.8157   23.1767 N   0  0  0  0  0  0  0  0  0  0  0  0
   10.4785   -1.7335   24.2871 C   0  0  0  0  0  0  0  0  0  0  0  0
    9.5044   -2.8382   23.9272 C   0  0  0  0  0  0  0  0  0  0  0  0
    8.1383   -2.4250   23.4059 C   0  0  0  0  0  0  0  0  0  0  0  0
    9.3661   -3.7709   25.1224 C   0  0  0  0  0  0  0  0  0  0  0  0
    8.3622   -3.4940   26.0508 C   0  0  0  0  0  0  0  0  0  0  0  0
    8.1692   -4.2899   27.1701 C   0  0  0  0  0  0  0  0  0  0  0  0
    7.1762   -3.9865   28.0553 O   0  0  0  0  0  0  0  0  0  0  0  0
    8.9794   -5.3886   27.3909 C   0  0  0  0  0  0  0  0  0  0  0  0
    9.9795   -5.6844   26.4860 C   0  0  0  0  0  0  0  0  0  0  0  0
   10.1784   -4.8924   25.3611 C   0  0  0  0  0  0  0  0  0  0  0  0
   11.1872   -5.2690   24.5299 O   0  0  0  0  0  0  0  0  0  0  0  0
   11.0440    0.4683   23.4031 C   0  0  0  0  0  0  0  0  0  0  0  0
   11.2711    1.4556   21.9357 Cl  0  0  0  0  0  0  0  0  0  0  0  0
   11.1896    1.0048   24.4664 O   0  0  0  0  0  0  0  0  0  0  0  0
    6.3627    0.0321   19.7822 C   0  0  0  0  0  0  0  0  0  0  0  0
  1  2  1  0
  2  3  2  0
  3  4  1  0
  4  5  2  0
  5  6  1  0
  5  7  1  0
  7  8  1  0
  8  9  1  0
  9 10  1  0
 10 11  1  0
 11 12  1  0
 12 13  1  0
 13 14  1  0
 14 15  1  0
 14 16  1  0
 16 17  2  0
 17 18  1  0
 18 19  1  0
 18 20  2  0
 20 21  1  0
 21 22  2  0
 22 23  1  0
 12 24  1  0
 24 25  1  0
 24 26  2  0
  7 27  2  0
 27  2  1  0
 15  9  1  0
 22 16  1  0
M  END
