CVD-0002868|dock_bobby27042020.90|mol2|1|dock1
     RDKit          3D

 32 36  0  0  0  0  0  0  0  0999 V2000
    3.3152    1.8219   19.7196 O   0  0  0  0  0  0  0  0  0  0  0  0
    4.5893    1.7330   20.1755 C   0  0  0  0  0  0  0  0  0  0  0  0
    5.0264    2.4926   21.2299 C   0  0  0  0  0  0  0  0  0  0  0  0
    6.3303    2.3878   21.6823 C   0  0  0  0  0  0  0  0  0  0  0  0
    7.2208    1.5289   21.1000 C   0  0  0  0  0  0  0  0  0  0  0  0
    6.8177    0.7168   19.9957 C   0  0  0  0  0  0  0  0  0  0  0  0
    7.6610   -0.1990   19.3197 C   0  0  0  0  0  0  0  0  0  0  0  0
    7.1682   -0.9248   18.2770 C   0  0  0  0  0  0  0  0  0  0  0  0
    5.8527   -0.7457   17.9063 C   0  0  0  0  0  0  0  0  0  0  0  0
    5.0117    0.0900   18.4910 N   0  0  0  0  0  0  0  0  0  0  0  0
    5.4818    0.8294   19.5384 C   0  0  0  0  0  0  0  0  0  0  0  0
    8.8676    1.4834   21.7664 S   0  0  0  0  0  0  0  0  0  0  0  0
    8.8917    2.3040   22.9372 O   0  0  0  0  0  0  0  0  0  0  0  0
    9.7828    1.7356   20.6971 O   0  0  0  0  0  0  0  0  0  0  0  0
    9.1449   -0.0443   22.2631 N   0  0  0  0  0  0  0  0  0  0  0  0
   10.5472   -0.4717   22.3687 C   0  0  0  0  0  0  0  0  0  0  0  0
   10.6072   -1.9659   22.3159 C   0  0  0  0  0  0  0  0  0  0  0  0
    9.7646   -2.5493   23.3468 N   0  0  0  0  0  0  0  0  0  0  0  0
    8.3761   -2.0787   23.3218 C   0  0  0  0  0  0  0  0  0  0  0  0
    8.3270   -0.5800   23.3614 C   0  0  0  0  0  0  0  0  0  0  0  0
   10.2668   -3.4667   24.1964 C   0  0  0  0  0  0  0  0  0  0  0  0
   11.3980   -3.9133   24.0444 O   0  0  0  0  0  0  0  0  0  0  0  0
    9.5051   -3.9947   25.3552 C   0  0  0  0  0  0  0  0  0  0  0  0
    8.6834   -3.4792   26.3291 C   0  0  0  0  0  0  0  0  0  0  0  0
    8.2710   -4.5684   27.1615 C   0  0  0  0  0  0  0  0  0  0  0  0
    7.4516   -4.6820   28.2924 C   0  0  0  0  0  0  0  0  0  0  0  0
    7.2716   -5.9238   28.8512 C   0  0  0  0  0  0  0  0  0  0  0  0
    6.4743   -6.0238   29.9489 F   0  0  0  0  0  0  0  0  0  0  0  0
    7.8530   -7.0630   28.3600 C   0  0  0  0  0  0  0  0  0  0  0  0
    8.6661   -6.9701   27.2427 C   0  0  0  0  0  0  0  0  0  0  0  0
    8.8717   -5.7282   26.6495 C   0  0  0  0  0  0  0  0  0  0  0  0
    9.6198   -5.3564   25.5484 N   0  0  0  0  0  0  0  0  0  0  0  0
  1  2  1  0
  2  3  2  0
  3  4  1  0
  4  5  2  0
  5  6  1  0
  6  7  2  0
  7  8  1  0
  8  9  2  0
  9 10  1  0
 10 11  2  0
  5 12  1  0
 12 13  2  0
 12 14  2  0
 12 15  1  0
 15 16  1  0
 16 17  1  0
 17 18  1  0
 18 19  1  0
 19 20  1  0
 18 21  1  0
 21 22  2  0
 21 23  1  0
 23 24  2  0
 24 25  1  0
 25 26  2  0
 26 27  1  0
 27 28  1  0
 27 29  2  0
 29 30  1  0
 30 31  2  0
 31 32  1  0
 11  2  1  0
 20 15  1  0
 32 23  1  0
 11  6  1  0
 31 25  1  0
M  END
