CVD-0002910|dock_bobby27042020.89|mol2|36|dock3
     RDKit          3D

 24 26  0  0  0  0  0  0  0  0999 V2000
    5.2773   -0.9447   17.7767 C   0  0  0  0  0  0  0  0  0  0  0  0
    6.3913    0.0013   17.7421 N   0  0  0  0  0  0  0  0  0  0  0  0
    6.1398    1.1692   18.5915 C   0  0  0  0  0  0  0  0  0  0  0  0
    6.0181    0.7461   20.0436 C   0  0  0  0  0  0  0  0  0  0  0  0
    7.2342    0.0561   20.4791 N   0  0  0  0  0  0  0  0  0  0  0  0
    7.5469   -1.0840   19.6116 C   0  0  0  0  0  0  0  0  0  0  0  0
    6.5214   -2.1989   19.7054 C   0  0  0  0  0  0  0  0  0  0  0  0
    6.7954   -3.0113   20.8697 O   0  0  0  0  0  0  0  0  0  0  0  0
    6.1064   -4.1493   20.9878 C   0  0  0  0  0  0  0  0  0  0  0  0
    6.4984   -4.9115   22.2091 C   0  0  0  0  0  0  0  0  0  0  0  0
    5.2669   -4.4813   20.1970 O   0  0  0  0  0  0  0  0  0  0  0  0
    7.6359   -0.6359   18.1640 C   0  0  0  0  0  0  0  0  0  0  0  0
    8.0317    0.4195   21.5101 C   0  0  0  0  0  0  0  0  0  0  0  0
    7.7522    1.3730   22.2256 O   0  0  0  0  0  0  0  0  0  0  0  0
    9.3006   -0.3707   21.7782 C   0  0  0  0  0  0  0  0  0  0  0  0
   10.1161    0.1699   22.9144 C   0  0  0  0  0  0  0  0  0  0  0  0
   10.3095   -0.4037   24.1367 C   0  0  0  0  0  0  0  0  0  0  0  0
   11.1152    0.3833   24.9159 N   0  0  0  0  0  0  0  0  0  0  0  0
   11.4606    1.4930   24.2017 C   0  0  0  0  0  0  0  0  0  0  0  0
   12.2391    2.5116   24.6040 N   0  0  0  0  0  0  0  0  0  0  0  0
   12.4339    3.4955   23.7152 C   0  0  0  0  0  0  0  0  0  0  0  0
   11.8884    3.5065   22.4493 C   0  0  0  0  0  0  0  0  0  0  0  0
   11.0878    2.4477   22.0505 C   0  0  0  0  0  0  0  0  0  0  0  0
   10.8540    1.3992   22.9378 C   0  0  0  0  0  0  0  0  0  0  0  0
  1  2  1  0
  2  3  1  0
  3  4  1  0
  4  5  1  0
  5  6  1  0
  6  7  1  0
  7  8  1  0
  8  9  1  0
  9 10  1  0
  9 11  2  0
  6 12  1  0
  5 13  1  0
 13 14  2  0
 13 15  1  0
 15 16  1  0
 16 17  2  0
 17 18  1  0
 18 19  1  0
 19 20  2  0
 20 21  1  0
 21 22  2  0
 22 23  1  0
 23 24  2  0
 12  2  1  0
 24 16  1  0
 24 19  1  0
M  END
