CVD-0002977|dock_bobby27042020.89|mol2|26|dock2
     RDKit          3D

 27 29  0  0  0  0  0  0  0  0999 V2000
    6.6000   -7.4385   29.6854 C   0  0  0  0  0  0  0  0  0  0  0  0
    7.1993   -6.2693   28.9605 C   0  0  0  0  0  0  0  0  0  0  0  0
    7.1043   -5.1228   29.3872 O   0  0  0  0  0  0  0  0  0  0  0  0
    7.8558   -6.5509   27.8334 N   0  0  0  0  0  0  0  0  0  0  0  0
    8.5063   -5.5277   27.0274 C   0  0  0  0  0  0  0  0  0  0  0  0
    8.8385   -6.0300   25.6366 C   0  0  0  0  0  0  0  0  0  0  0  0
    9.6414   -5.0483   24.8345 C   0  0  0  0  0  0  0  0  0  0  0  0
   10.9790   -4.8006   24.9279 C   0  0  0  0  0  0  0  0  0  0  0  0
   11.3491   -3.8363   24.0308 N   0  0  0  0  0  0  0  0  0  0  0  0
   10.2377   -3.4367   23.3296 C   0  0  0  0  0  0  0  0  0  0  0  0
   10.0949   -2.4846   22.3114 C   0  0  0  0  0  0  0  0  0  0  0  0
   11.1922   -1.7811   21.8726 N   0  0  0  0  0  0  0  0  0  0  0  0
   12.0238   -0.9233   22.7100 C   0  0  0  0  0  0  0  0  0  0  0  0
   12.7956    0.1198   21.9049 C   0  0  0  0  0  0  0  0  0  0  0  0
   13.5728    1.0722   22.7912 C   0  0  0  0  0  0  0  0  0  0  0  0
   12.6962    1.6754   23.8001 N   0  0  0  0  0  0  0  0  0  0  0  0
   12.0451    0.6882   24.6537 C   0  0  0  0  0  0  0  0  0  0  0  0
   11.2082   -0.2373   23.7985 C   0  0  0  0  0  0  0  0  0  0  0  0
   12.5543    2.9978   24.0297 C   0  0  0  0  0  0  0  0  0  0  0  0
   11.7929    3.4235   24.8892 O   0  0  0  0  0  0  0  0  0  0  0  0
   13.3751    3.9405   23.1709 C   0  0  0  0  0  0  0  0  0  0  0  0
   13.1446    5.6203   23.6736 Cl  0  0  0  0  0  0  0  0  0  0  0  0
    8.8277   -2.2822   21.7726 C   0  0  0  0  0  0  0  0  0  0  0  0
    7.7739   -3.0199   22.2581 C   0  0  0  0  0  0  0  0  0  0  0  0
    6.5446   -2.8052   21.7165 F   0  0  0  0  0  0  0  0  0  0  0  0
    7.8812   -3.9599   23.2544 C   0  0  0  0  0  0  0  0  0  0  0  0
    9.1409   -4.1788   23.8082 C   0  0  0  0  0  0  0  0  0  0  0  0
  1  2  1  0
  2  3  2  0
  2  4  1  0
  4  5  1  0
  5  6  1  0
  6  7  1  0
  7  8  2  0
  8  9  1  0
  9 10  1  0
 10 11  2  0
 11 12  1  0
 12 13  1  0
 13 14  1  0
 14 15  1  0
 15 16  1  0
 16 17  1  0
 17 18  1  0
 16 19  1  0
 19 20  2  0
 19 21  1  0
 21 22  1  0
 11 23  1  0
 23 24  2  0
 24 25  1  0
 24 26  1  0
 26 27  2  0
 27  7  1  0
 27 10  1  0
 18 13  1  0
M  END
