CVD-0000748|dock_bobby27042020.55|mol2|5|dock2
     RDKit          3D

 19 21  0  0  0  0  0  0  0  0999 V2000
   13.4226    5.3170   22.1849 C   0  0  0  0  0  0  0  0  0  0  0  0
   13.1727    3.8456   22.3296 C   0  0  0  0  0  0  0  0  0  0  0  0
   14.0750    2.8386   22.3777 C   0  0  0  0  0  0  0  0  0  0  0  0
   13.5147    1.5712   22.5186 C   0  0  0  0  0  0  0  0  0  0  0  0
   12.1636    1.5968   22.5802 C   0  0  0  0  0  0  0  0  0  0  0  0
   11.2888    0.5095   22.7197 N   0  0  0  0  0  0  0  0  0  0  0  0
   11.5804   -0.8175   22.5528 C   0  0  0  0  0  0  0  0  0  0  0  0
   12.6822   -1.2626   22.2480 O   0  0  0  0  0  0  0  0  0  0  0  0
   10.4077   -1.7522   22.7620 C   0  0  0  0  0  0  0  0  0  0  0  0
    9.1895   -1.3448   21.9904 C   0  0  0  0  0  0  0  0  0  0  0  0
    7.9489   -1.0033   22.4446 C   0  0  0  0  0  0  0  0  0  0  0  0
    7.1488   -0.6978   21.2994 C   0  0  0  0  0  0  0  0  0  0  0  0
    5.8308   -0.2913   21.0440 C   0  0  0  0  0  0  0  0  0  0  0  0
    5.4200   -0.0916   19.7355 C   0  0  0  0  0  0  0  0  0  0  0  0
    6.3220   -0.2988   18.7120 C   0  0  0  0  0  0  0  0  0  0  0  0
    7.5929   -0.6870   18.8958 N   0  0  0  0  0  0  0  0  0  0  0  0
    7.9765   -0.8765   20.1696 C   0  0  0  0  0  0  0  0  0  0  0  0
    9.2085   -1.2688   20.6157 N   0  0  0  0  0  0  0  0  0  0  0  0
   11.5643    3.2337   22.4609 S   0  0  0  0  0  0  0  0  0  0  0  0
  1  2  1  0
  2  3  2  0
  3  4  1  0
  4  5  2  0
  5  6  1  0
  6  7  1  0
  7  8  2  0
  7  9  1  0
  9 10  1  0
 10 11  2  0
 11 12  1  0
 12 13  2  0
 13 14  1  0
 14 15  2  0
 15 16  1  0
 16 17  2  0
 17 18  1  0
  5 19  1  0
 19  2  1  0
 18 10  1  0
 17 12  1  0
M  END
