CVD-0000518|dock_bobby27042020.41|mol2|16|dock3
     RDKit          3D

 23 24  0  0  0  0  0  0  0  0999 V2000
   13.7226    6.1726   21.7256 O   0  0  0  0  0  0  0  0  0  0  0  0
   12.8003    5.1055   21.5904 C   0  0  0  0  0  0  0  0  0  0  0  0
   13.2881    3.8756   22.1937 N   0  0  0  0  0  0  0  0  0  0  0  0
   12.4882    2.9659   22.7846 C   0  0  0  0  0  0  0  0  0  0  0  0
   11.2707    3.1102   22.8585 O   0  0  0  0  0  0  0  0  0  0  0  0
   13.1179    1.8864   23.2890 N   0  0  0  0  0  0  0  0  0  0  0  0
   12.3851    0.8204   23.9560 C   0  0  0  0  0  0  0  0  0  0  0  0
   12.6100   -0.5435   23.3463 C   0  0  0  0  0  0  0  0  0  0  0  0
   13.7286   -1.2766   23.7300 C   0  0  0  0  0  0  0  0  0  0  0  0
   13.9378   -2.5253   23.1884 C   0  0  0  0  0  0  0  0  0  0  0  0
   13.1177   -3.0824   22.3022 N   0  0  0  0  0  0  0  0  0  0  0  0
   12.0439   -2.3829   21.9234 C   0  0  0  0  0  0  0  0  0  0  0  0
   11.7305   -1.1116   22.4049 C   0  0  0  0  0  0  0  0  0  0  0  0
   10.5860   -0.3668   22.0013 N   0  0  0  0  0  0  0  0  0  0  0  0
    9.3234   -0.7739   21.7192 C   0  0  0  0  0  0  0  0  0  0  0  0
    8.9174   -1.9296   21.7679 O   0  0  0  0  0  0  0  0  0  0  0  0
    8.4181    0.3732   21.3205 C   0  0  0  0  0  0  0  0  0  0  0  0
    7.1079   -0.0181   20.6247 C   0  0  0  0  0  0  0  0  0  0  0  0
    7.3802   -0.7315   19.2845 C   0  0  0  0  0  0  0  0  0  0  0  0
    6.0944   -1.0696   18.5323 C   0  0  0  0  0  0  0  0  0  0  0  0
    5.2254    0.1659   18.3362 C   0  0  0  0  0  0  0  0  0  0  0  0
    4.9331    0.8483   19.6648 C   0  0  0  0  0  0  0  0  0  0  0  0
    6.2225    1.2178   20.3909 C   0  0  0  0  0  0  0  0  0  0  0  0
  1  2  1  0
  2  3  1  0
  3  4  1  0
  4  5  2  0
  4  6  1  0
  6  7  1  0
  7  8  1  0
  8  9  2  0
  9 10  1  0
 10 11  2  0
 11 12  1  0
 12 13  2  0
 13 14  1  0
 14 15  1  0
 15 16  2  0
 15 17  1  0
 17 18  1  0
 18 19  1  0
 19 20  1  0
 20 21  1  0
 21 22  1  0
 22 23  1  0
 13  8  1  0
 23 18  1  0
M  END
