CVD-0003908|dock_bobby27042020.72|mol2|22|dock2
     RDKit          3D

 24 26  0  0  0  0  0  0  0  0999 V2000
   13.1851    5.0463   21.7645 C   0  0  0  0  0  0  0  0  0  0  0  0
   12.0389    4.2521   22.0636 O   0  0  0  0  0  0  0  0  0  0  0  0
   12.1891    2.9715   22.5344 C   0  0  0  0  0  0  0  0  0  0  0  0
   13.4383    2.4032   22.7382 C   0  0  0  0  0  0  0  0  0  0  0  0
   13.5312    1.1072   23.2144 C   0  0  0  0  0  0  0  0  0  0  0  0
   12.4002    0.3571   23.4940 C   0  0  0  0  0  0  0  0  0  0  0  0
   12.5151   -1.0545   24.0165 C   0  0  0  0  0  0  0  0  0  0  0  0
   12.2532   -2.1180   22.9302 C   0  0  0  0  0  0  0  0  0  0  0  0
   10.7893   -2.2591   22.5894 C   0  0  0  0  0  0  0  0  0  0  0  0
    9.9357   -3.0058   23.3831 C   0  0  0  0  0  0  0  0  0  0  0  0
    8.6074   -3.1046   23.0241 C   0  0  0  0  0  0  0  0  0  0  0  0
    8.0832   -2.5167   21.9412 N   0  0  0  0  0  0  0  0  0  0  0  0
    8.9037   -1.7914   21.1640 C   0  0  0  0  0  0  0  0  0  0  0  0
   10.2625   -1.6441   21.4616 C   0  0  0  0  0  0  0  0  0  0  0  0
    8.3789   -1.0991   19.9230 C   0  0  0  0  0  0  0  0  0  0  0  0
    8.8016   -1.5259   18.8622 O   0  0  0  0  0  0  0  0  0  0  0  0
    7.4975   -0.0708   19.9417 N   0  0  0  0  0  0  0  0  0  0  0  0
    6.9588    0.6040   18.7586 C   0  0  0  0  0  0  0  0  0  0  0  0
    5.5623    0.1359   18.4369 C   0  0  0  0  0  0  0  0  0  0  0  0
    4.3922    0.4491   19.7841 S   0  0  0  0  0  0  0  0  0  0  0  0
    5.3515   -0.2923   21.1188 C   0  0  0  0  0  0  0  0  0  0  0  0
    6.7708    0.2077   21.1848 C   0  0  0  0  0  0  0  0  0  0  0  0
   11.1611    0.9406   23.2860 C   0  0  0  0  0  0  0  0  0  0  0  0
   11.0505    2.2347   22.8105 C   0  0  0  0  0  0  0  0  0  0  0  0
  1  2  1  0
  2  3  1  0
  3  4  2  0
  4  5  1  0
  5  6  2  0
  6  7  1  0
  7  8  1  0
  8  9  1  0
  9 10  2  0
 10 11  1  0
 11 12  2  0
 12 13  1  0
 13 14  2  0
 13 15  1  0
 15 16  2  0
 15 17  1  0
 17 18  1  0
 18 19  1  0
 19 20  1  0
 20 21  1  0
 21 22  1  0
  6 23  1  0
 23 24  2  0
 24  3  1  0
 14  9  1  0
 22 17  1  0
M  END
