CVD-0001726|dock_bobby27042020.37|mol2|20|dock2
     RDKit          3D

 25 27  0  0  0  0  0  0  0  0999 V2000
    5.2622    1.5583   17.4580 C   0  0  0  0  0  0  0  0  0  0  0  0
    5.7460    1.2757   18.8773 C   0  0  0  0  0  0  0  0  0  0  0  0
    6.8284    0.2060   18.9579 C   0  0  0  0  0  0  0  0  0  0  0  0
    7.1929   -0.1514   20.3854 C   0  0  0  0  0  0  0  0  0  0  0  0
    6.0205   -0.5836   21.1556 N   0  0  0  0  0  0  0  0  0  0  0  0
    6.4012   -0.9700   22.5021 C   0  0  0  0  0  0  0  0  0  0  0  0
    7.6547   -1.7180   22.6024 N   0  0  0  0  0  0  0  0  0  0  0  0
    8.8411   -0.9892   22.7488 C   0  0  0  0  0  0  0  0  0  0  0  0
    8.7551    0.1922   23.0539 O   0  0  0  0  0  0  0  0  0  0  0  0
   10.0532   -1.6127   22.5688 N   0  0  0  0  0  0  0  0  0  0  0  0
   11.3744   -1.1040   22.6764 C   0  0  0  0  0  0  0  0  0  0  0  0
   12.3252   -1.5655   21.7748 C   0  0  0  0  0  0  0  0  0  0  0  0
   13.6270   -1.1025   21.8470 C   0  0  0  0  0  0  0  0  0  0  0  0
   13.9466   -0.1877   22.8224 C   0  0  0  0  0  0  0  0  0  0  0  0
   13.0598    0.2785   23.7010 N   0  0  0  0  0  0  0  0  0  0  0  0
   11.8028   -0.1689   23.6182 C   0  0  0  0  0  0  0  0  0  0  0  0
    7.5392   -3.1519   22.5167 C   0  0  0  0  0  0  0  0  0  0  0  0
    8.1460   -3.9767   23.4576 C   0  0  0  0  0  0  0  0  0  0  0  0
    8.0410   -5.3544   23.3635 C   0  0  0  0  0  0  0  0  0  0  0  0
    7.3309   -5.9349   22.3277 C   0  0  0  0  0  0  0  0  0  0  0  0
    6.7343   -5.1151   21.3969 C   0  0  0  0  0  0  0  0  0  0  0  0
    5.8379   -5.8289   20.0856 Cl  0  0  0  0  0  0  0  0  0  0  0  0
    6.8279   -3.7408   21.4757 C   0  0  0  0  0  0  0  0  0  0  0  0
    5.0292    0.4954   21.1740 C   0  0  0  0  0  0  0  0  0  0  0  0
    4.5821    0.8505   19.7657 C   0  0  0  0  0  0  0  0  0  0  0  0
  1  2  1  0
  2  3  1  0
  3  4  1  0
  4  5  1  0
  5  6  1  0
  6  7  1  0
  7  8  1  0
  8  9  2  0
  8 10  1  0
 10 11  1  0
 11 12  2  0
 12 13  1  0
 13 14  2  0
 14 15  1  0
 15 16  2  0
  7 17  1  0
 17 18  2  0
 18 19  1  0
 19 20  2  0
 20 21  1  0
 21 22  1  0
 21 23  2  0
  5 24  1  0
 24 25  1  0
 25  2  1  0
 16 11  1  0
 23 17  1  0
M  END
