CVD-0003262|dock_bobby27042020.74|mol2|25|dock2
     RDKit          3D

 35 35  0  0  0  0  0  0  0  0999 V2000
    5.6106    1.6487   19.6804 N   0  0  0  0  0  0  0  0  0  0  0  0
    5.7213    0.2156   19.3439 C   0  0  0  0  0  0  0  0  0  0  0  0
    5.2907   -0.0345   17.9390 C   0  0  0  0  0  0  0  0  0  0  0  0
    6.1253    0.7415   17.0862 O   0  0  0  0  0  0  0  0  0  0  0  0
    7.1515   -0.2493   19.5843 C   0  0  0  0  0  0  0  0  0  0  0  0
    7.9217   -0.3980   18.6394 O   0  0  0  0  0  0  0  0  0  0  0  0
    7.5038   -0.4889   20.8510 N   0  0  0  0  0  0  0  0  0  0  0  0
    8.8391   -0.9473   21.1983 C   0  0  0  0  0  0  0  0  0  0  0  0
    9.6530    0.1982   21.8202 C   0  0  0  0  0  0  0  0  0  0  0  0
   10.9708   -0.2471   22.4069 C   0  0  0  0  0  0  0  0  0  0  0  0
   11.4724    0.3450   23.5557 C   0  0  0  0  0  0  0  0  0  0  0  0
   12.6795   -0.0662   24.0959 C   0  0  0  0  0  0  0  0  0  0  0  0
   13.3992   -1.0757   23.4938 C   0  0  0  0  0  0  0  0  0  0  0  0
   12.9115   -1.6741   22.3521 C   0  0  0  0  0  0  0  0  0  0  0  0
   11.7043   -1.2625   21.8125 C   0  0  0  0  0  0  0  0  0  0  0  0
    8.7729   -2.1219   22.1701 C   0  0  0  0  0  0  0  0  0  0  0  0
    9.5442   -2.1835   23.1238 O   0  0  0  0  0  0  0  0  0  0  0  0
    7.8465   -3.0522   21.9218 N   0  0  0  0  0  0  0  0  0  0  0  0
    7.6871   -4.2176   22.7767 C   0  0  0  0  0  0  0  0  0  0  0  0
    6.8896   -5.3051   22.0598 C   0  0  0  0  0  0  0  0  0  0  0  0
    6.8566   -6.5102   22.8147 O   0  0  0  0  0  0  0  0  0  0  0  0
    6.9824   -3.8453   24.0780 C   0  0  0  0  0  0  0  0  0  0  0  0
    6.2508   -2.8601   24.1292 O   0  0  0  0  0  0  0  0  0  0  0  0
    7.2070   -4.6393   25.1287 N   0  0  0  0  0  0  0  0  0  0  0  0
    6.5918   -4.3868   26.4215 C   0  0  0  0  0  0  0  0  0  0  0  0
    5.1932   -5.0098   26.4651 C   0  0  0  0  0  0  0  0  0  0  0  0
    5.1676   -6.5286   26.3578 C   0  0  0  0  0  0  0  0  0  0  0  0
    3.7959   -7.0468   25.9722 C   0  0  0  0  0  0  0  0  0  0  0  0
    3.6362   -7.1502   24.5281 N   0  0  0  0  0  0  0  0  0  0  0  0
    2.9806   -6.2870   23.7596 C   0  0  0  0  0  0  0  0  0  0  0  0
    2.8890   -6.4696   22.4374 N   0  0  0  0  0  0  0  0  0  0  0  0
    2.4053   -5.2262   24.2998 N   0  0  0  0  0  0  0  0  0  0  0  0
    7.4712   -4.9557   27.5250 C   0  0  0  0  0  0  0  0  0  0  0  0
    7.8847   -6.1749   27.2890 O   0  0  0  0  0  0  0  0  0  0  0  0
    7.7483   -4.3298   28.5243 O   0  0  0  0  0  0  0  0  0  0  0  0
  2  1  1  0
  2  3  1  0
  3  4  1  0
  2  5  1  0
  5  6  2  0
  5  7  1  0
  7  8  1  0
  8  9  1  0
  9 10  1  0
 10 11  2  0
 11 12  1  0
 12 13  2  0
 13 14  1  0
 14 15  2  0
  8 16  1  0
 16 17  2  0
 16 18  1  0
 18 19  1  0
 19 20  1  0
 20 21  1  0
 19 22  1  0
 22 23  2  0
 22 24  1  0
 24 25  1  0
 25 26  1  0
 26 27  1  0
 27 28  1  0
 28 29  1  0
 29 30  1  0
 30 31  1  0
 30 32  2  0
 25 33  1  0
 33 34  1  0
 33 35  2  0
 15 10  1  0
M  END
