CVD-0001793|dock_bobby27042020.80|mol2|6|dock3
     RDKit          3D

 31 34  0  0  0  0  0  0  0  0999 V2000
    6.9833   -3.8335   27.2406 C   0  0  0  0  0  0  0  0  0  0  0  0
    7.5156   -2.5170   26.7531 C   0  0  0  0  0  0  0  0  0  0  0  0
    7.9399   -1.6898   27.5521 O   0  0  0  0  0  0  0  0  0  0  0  0
    7.5178   -2.2288   25.4245 N   0  0  0  0  0  0  0  0  0  0  0  0
    8.0024   -0.9467   24.9346 C   0  0  0  0  0  0  0  0  0  0  0  0
    9.4781   -0.8919   24.5812 C   0  0  0  0  0  0  0  0  0  0  0  0
    9.8776   -1.8362   23.4998 N   0  0  0  0  0  0  0  0  0  0  0  0
   10.0409   -1.0922   22.2418 C   0  0  0  0  0  0  0  0  0  0  0  0
   10.8401    0.1804   22.3957 C   0  0  0  0  0  0  0  0  0  0  0  0
   12.2216    0.1241   22.5743 C   0  0  0  0  0  0  0  0  0  0  0  0
   12.9785    1.2494   22.7137 C   0  0  0  0  0  0  0  0  0  0  0  0
   12.3863    2.5334   22.6814 C   0  0  0  0  0  0  0  0  0  0  0  0
   13.1735    3.6456   22.8246 N   0  0  0  0  0  0  0  0  0  0  0  0
   12.5805    4.8307   22.7884 C   0  0  0  0  0  0  0  0  0  0  0  0
   11.2132    5.0171   22.6147 C   0  0  0  0  0  0  0  0  0  0  0  0
   10.4153    3.9234   22.4709 C   0  0  0  0  0  0  0  0  0  0  0  0
   10.9852    2.6271   22.5002 C   0  0  0  0  0  0  0  0  0  0  0  0
   10.2470    1.4334   22.3609 C   0  0  0  0  0  0  0  0  0  0  0  0
    8.9148    1.5252   22.1878 F   0  0  0  0  0  0  0  0  0  0  0  0
   13.4699    6.0311   22.9481 C   0  0  0  0  0  0  0  0  0  0  0  0
   14.5767    6.0564   22.2181 N   0  0  0  0  0  0  0  0  0  0  0  0
   13.1565    6.9348   23.7310 O   0  0  0  0  0  0  0  0  0  0  0  0
    9.2019   -3.0846   23.0302 C   0  0  0  0  0  0  0  0  0  0  0  0
    7.6868   -2.9756   23.0703 C   0  0  0  0  0  0  0  0  0  0  0  0
    7.0088   -3.1532   24.4149 C   0  0  0  0  0  0  0  0  0  0  0  0
    7.0529   -3.9699   22.1168 C   0  0  0  0  0  0  0  0  0  0  0  0
    7.1920   -5.3360   22.3119 C   0  0  0  0  0  0  0  0  0  0  0  0
    6.6045   -6.2264   21.4300 C   0  0  0  0  0  0  0  0  0  0  0  0
    5.8884   -5.7222   20.3685 C   0  0  0  0  0  0  0  0  0  0  0  0
    5.7336   -4.4161   20.1492 N   0  0  0  0  0  0  0  0  0  0  0  0
    6.3103   -3.5771   21.0149 C   0  0  0  0  0  0  0  0  0  0  0  0
  1  2  1  0
  2  3  2  0
  2  4  1  0
  4  5  1  0
  5  6  1  0
  6  7  1  0
  7  8  1  0
  8  9  1  0
  9 10  2  0
 10 11  1  0
 11 12  2  0
 12 13  1  0
 13 14  2  0
 14 15  1  0
 15 16  2  0
 16 17  1  0
 17 18  2  0
 18 19  1  0
 14 20  1  0
 20 21  1  0
 20 22  2  0
  7 23  1  0
 23 24  1  0
 24 25  1  0
 24 26  1  0
 26 27  2  0
 27 28  1  0
 28 29  2  0
 29 30  1  0
 30 31  2  0
 25  4  1  0
 31 26  1  0
 18  9  1  0
 17 12  1  0
M  END
