CVD-0002599|dock_bobby27042020.62|mol2|30|dock2
     RDKit          3D

 21 22  0  0  0  0  0  0  0  0999 V2000
   13.6901   -1.2964   23.3513 N   0  0  0  0  0  0  0  0  0  0  0  0
   12.2633   -0.9296   23.4610 C   0  0  0  0  0  0  0  0  0  0  0  0
   11.4961   -1.5583   22.2932 C   0  0  0  0  0  0  0  0  0  0  0  0
   10.0389   -1.3773   22.3606 N   0  0  0  0  0  0  0  0  0  0  0  0
    9.3604   -2.6766   22.3637 C   0  0  0  0  0  0  0  0  0  0  0  0
    7.8592   -2.4851   22.4749 C   0  0  0  0  0  0  0  0  0  0  0  0
    7.3657   -1.6592   21.3707 N   0  0  0  0  0  0  0  0  0  0  0  0
    8.0680   -0.3739   21.3037 C   0  0  0  0  0  0  0  0  0  0  0  0
    9.5672   -0.5960   21.2202 C   0  0  0  0  0  0  0  0  0  0  0  0
    6.3663   -2.0516   20.5533 C   0  0  0  0  0  0  0  0  0  0  0  0
    5.8048   -3.1303   20.6966 O   0  0  0  0  0  0  0  0  0  0  0  0
    5.9709   -1.0998   19.4409 C   0  0  0  0  0  0  0  0  0  0  0  0
    5.3009    0.4027   20.0893 Cl  0  0  0  0  0  0  0  0  0  0  0  0
   12.0635    0.5825   23.4886 C   0  0  0  0  0  0  0  0  0  0  0  0
   11.2230    1.0805   24.2322 O   0  0  0  0  0  0  0  0  0  0  0  0
   12.8618    1.3238   22.6676 N   0  0  0  0  0  0  0  0  0  0  0  0
   12.9194    2.7212   22.4814 C   0  0  0  0  0  0  0  0  0  0  0  0
   11.7291    3.5168   22.4766 C   0  0  0  0  0  0  0  0  0  0  0  0
   11.9776    4.8425   22.2839 C   0  0  0  0  0  0  0  0  0  0  0  0
   13.6444    5.1109   22.1111 S   0  0  0  0  0  0  0  0  0  0  0  0
   14.0327    3.4663   22.2925 C   0  0  0  0  0  0  0  0  0  0  0  0
  1  2  1  0
  2  3  1  0
  3  4  1  0
  4  5  1  0
  5  6  1  0
  6  7  1  0
  7  8  1  0
  8  9  1  0
  7 10  1  0
 10 11  2  0
 10 12  1  0
 12 13  1  0
  2 14  1  0
 14 15  2  0
 14 16  1  0
 16 17  1  0
 17 18  1  0
 18 19  2  0
 19 20  1  0
 20 21  1  0
  9  4  1  0
 21 17  2  0
M  END
