CVD-0002178|dock_bobby27042020.64|mol2|21|dock3
     RDKit          3D

 25 27  0  0  0  0  0  0  0  0999 V2000
   14.8207   -3.0208   24.6772 O   0  0  0  0  0  0  0  0  0  0  0  0
   13.6157   -2.3333   24.3258 C   0  0  0  0  0  0  0  0  0  0  0  0
   13.7405   -1.5241   23.0523 C   0  0  0  0  0  0  0  0  0  0  0  0
   12.4697   -0.7642   22.7452 C   0  0  0  0  0  0  0  0  0  0  0  0
   12.0963    0.1137   23.8572 N   0  0  0  0  0  0  0  0  0  0  0  0
   11.8953   -0.6621   25.0746 C   0  0  0  0  0  0  0  0  0  0  0  0
   13.1664   -1.4022   25.4453 C   0  0  0  0  0  0  0  0  0  0  0  0
   10.9857    1.0236   23.5224 C   0  0  0  0  0  0  0  0  0  0  0  0
   11.5457    2.3486   23.1004 C   0  0  0  0  0  0  0  0  0  0  0  0
   10.8301    3.5849   23.0878 C   0  0  0  0  0  0  0  0  0  0  0  0
   11.5546    4.6574   22.6632 C   0  0  0  0  0  0  0  0  0  0  0  0
   13.1320    4.1726   22.2692 S   0  0  0  0  0  0  0  0  0  0  0  0
   12.8252    2.5497   22.6691 C   0  0  0  0  0  0  0  0  0  0  0  0
    9.8355    0.3733   22.3341 S   0  0  0  0  0  0  0  0  0  0  0  0
   10.5319    0.2034   21.0907 O   0  0  0  0  0  0  0  0  0  0  0  0
    9.2091   -0.7672   22.9358 O   0  0  0  0  0  0  0  0  0  0  0  0
    8.6661    1.4570   22.0854 N   0  0  0  0  0  0  0  0  0  0  0  0
    7.4179    1.3740   22.8532 C   0  0  0  0  0  0  0  0  0  0  0  0
    6.4380    0.4282   22.1822 C   0  0  0  0  0  0  0  0  0  0  0  0
    6.2709    0.7094   20.7086 C   0  0  0  0  0  0  0  0  0  0  0  0
    5.1357    1.3467   20.2319 C   0  0  0  0  0  0  0  0  0  0  0  0
    4.9833    1.6076   18.8803 C   0  0  0  0  0  0  0  0  0  0  0  0
    5.9654    1.2347   17.9883 C   0  0  0  0  0  0  0  0  0  0  0  0
    7.0998    0.6014   18.4484 C   0  0  0  0  0  0  0  0  0  0  0  0
    7.2512    0.3410   19.8001 C   0  0  0  0  0  0  0  0  0  0  0  0
  1  2  1  0
  2  3  1  0
  3  4  1  0
  4  5  1  0
  5  6  1  0
  6  7  1  0
  5  8  1  0
  8  9  1  0
  9 10  1  0
 10 11  2  0
 11 12  1  0
 12 13  1  0
  8 14  1  0
 14 15  2  0
 14 16  2  0
 14 17  1  0
 17 18  1  0
 18 19  1  0
 19 20  1  0
 20 21  2  0
 21 22  1  0
 22 23  2  0
 23 24  1  0
 24 25  2  0
  7  2  1  0
 13  9  2  0
 25 20  1  0
M  END
