CVD-0001247|dock_bobby27042020.67|mol2|40|dock2
     RDKit          3D

 22 24  0  0  0  0  0  0  0  0999 V2000
   13.5391   -0.0431   22.4866 C   0  0  0  0  0  0  0  0  0  0  0  0
   13.4301   -1.4057   21.8770 C   0  0  0  0  0  0  0  0  0  0  0  0
   12.0423   -1.8128   21.7326 N   0  0  0  0  0  0  0  0  0  0  0  0
   11.3258   -2.3321   22.7436 C   0  0  0  0  0  0  0  0  0  0  0  0
   11.9011   -3.3342   23.4378 N   0  0  0  0  0  0  0  0  0  0  0  0
   11.2126   -3.8721   24.4508 C   0  0  0  0  0  0  0  0  0  0  0  0
    9.9413   -3.4533   24.8237 C   0  0  0  0  0  0  0  0  0  0  0  0
    9.3585   -2.4188   24.1009 C   0  0  0  0  0  0  0  0  0  0  0  0
   10.0402   -1.8335   23.0403 C   0  0  0  0  0  0  0  0  0  0  0  0
    9.3852   -0.7020   22.2684 C   0  0  0  0  0  0  0  0  0  0  0  0
    8.4143   -1.1596   21.1991 C   0  0  0  0  0  0  0  0  0  0  0  0
    8.0947   -2.5035   21.0556 C   0  0  0  0  0  0  0  0  0  0  0  0
    7.2051   -2.9282   20.0814 C   0  0  0  0  0  0  0  0  0  0  0  0
    6.6182   -1.9991   19.2290 C   0  0  0  0  0  0  0  0  0  0  0  0
    5.6394   -2.1875   18.1069 C   0  0  0  0  0  0  0  0  0  0  0  0
    5.4468   -0.8243   17.6622 N   0  0  0  0  0  0  0  0  0  0  0  0
    6.1653    0.0905   18.3386 C   0  0  0  0  0  0  0  0  0  0  0  0
    6.1468    1.2992   18.1287 O   0  0  0  0  0  0  0  0  0  0  0  0
    6.9282   -0.6576   19.3614 C   0  0  0  0  0  0  0  0  0  0  0  0
    7.8234   -0.2358   20.3428 C   0  0  0  0  0  0  0  0  0  0  0  0
    9.2436   -4.0690   25.9255 C   0  0  0  0  0  0  0  0  0  0  0  0
    8.6917   -4.5275   26.8142 N   0  0  0  0  0  0  0  0  0  0  0  0
  1  2  1  0
  2  3  1  0
  3  4  1  0
  4  5  2  0
  5  6  1  0
  6  7  2  0
  7  8  1  0
  8  9  2  0
  9 10  1  0
 10 11  1  0
 11 12  2  0
 12 13  1  0
 13 14  2  0
 14 15  1  0
 15 16  1  0
 16 17  1  0
 17 18  2  0
 17 19  1  0
 19 20  2  0
  7 21  1  0
 21 22  3  0
  9  4  1  0
 20 11  1  0
 19 14  1  0
M  END
