CVD-0002994|dock_bobby27042020.46|mol2|38|dock1
     RDKit          3D

 33 36  0  0  0  0  0  0  0  0999 V2000
    5.2342   -0.7047   17.8579 Cl  0  0  0  0  0  0  0  0  0  0  0  0
    6.1361   -1.4185   19.2011 C   0  0  0  0  0  0  0  0  0  0  0  0
    5.9228   -2.9188   19.2668 C   0  0  0  0  0  0  0  0  0  0  0  0
    5.0326   -3.4407   18.6070 O   0  0  0  0  0  0  0  0  0  0  0  0
    6.7380   -3.6523   20.0614 N   0  0  0  0  0  0  0  0  0  0  0  0
    6.5384   -5.1037   20.1278 C   0  0  0  0  0  0  0  0  0  0  0  0
    6.0369   -5.4908   21.4997 C   0  0  0  0  0  0  0  0  0  0  0  0
    6.9549   -4.9582   22.5631 C   0  0  0  0  0  0  0  0  0  0  0  0
    7.0102   -5.5683   23.8123 C   0  0  0  0  0  0  0  0  0  0  0  0
    7.8590   -5.1013   24.7979 C   0  0  0  0  0  0  0  0  0  0  0  0
    8.6686   -4.0091   24.5410 C   0  0  0  0  0  0  0  0  0  0  0  0
    8.6361   -3.3754   23.2978 C   0  0  0  0  0  0  0  0  0  0  0  0
    9.5522   -2.2041   23.0228 C   0  0  0  0  0  0  0  0  0  0  0  0
   11.2049   -2.3389   23.7103 S   0  0  0  0  0  0  0  0  0  0  0  0
   11.5324   -3.7360   23.8023 O   0  0  0  0  0  0  0  0  0  0  0  0
   11.2613   -1.5674   24.9227 O   0  0  0  0  0  0  0  0  0  0  0  0
   12.3438   -1.6019   22.5518 C   0  0  0  0  0  0  0  0  0  0  0  0
   12.6108   -0.1603   22.8299 C   0  0  0  0  0  0  0  0  0  0  0  0
   11.7298    0.7550   23.3094 C   0  0  0  0  0  0  0  0  0  0  0  0
   12.2969    2.0494   23.4681 C   0  0  0  0  0  0  0  0  0  0  0  0
   11.6476    3.1557   23.9270 N   0  0  0  0  0  0  0  0  0  0  0  0
   12.0316    4.4899   24.1557 C   0  0  0  0  0  0  0  0  0  0  0  0
   11.3679    5.2885   25.0857 C   0  0  0  0  0  0  0  0  0  0  0  0
   11.7894    6.5931   25.2687 C   0  0  0  0  0  0  0  0  0  0  0  0
   12.8585    7.0891   24.5317 C   0  0  0  0  0  0  0  0  0  0  0  0
   13.4570    6.2166   23.6279 C   0  0  0  0  0  0  0  0  0  0  0  0
   13.0605    4.9528   23.4402 N   0  0  0  0  0  0  0  0  0  0  0  0
   13.3116    8.4453   24.7085 C   0  0  0  0  0  0  0  0  0  0  0  0
   13.6571    9.5656   24.8206 C   0  0  0  0  0  0  0  0  0  0  0  0
   13.5992    2.0741   23.1032 C   0  0  0  0  0  0  0  0  0  0  0  0
   14.1397    0.5398   22.5696 S   0  0  0  0  0  0  0  0  0  0  0  0
    7.7702   -3.8572   22.3023 C   0  0  0  0  0  0  0  0  0  0  0  0
    7.7590   -3.1371   20.9694 C   0  0  0  0  0  0  0  0  0  0  0  0
  1  2  1  0
  2  3  1  0
  3  4  2  0
  3  5  1  0
  5  6  1  0
  6  7  1  0
  7  8  1  0
  8  9  2  0
  9 10  1  0
 10 11  2  0
 11 12  1  0
 12 13  1  0
 13 14  1  0
 14 15  2  0
 14 16  2  0
 14 17  1  0
 17 18  1  0
 18 19  2  0
 19 20  1  0
 20 21  1  0
 21 22  1  0
 22 23  2  0
 23 24  1  0
 24 25  2  0
 25 26  1  0
 26 27  2  0
 25 28  1  0
 28 29  3  0
 20 30  2  0
 30 31  1  0
 12 32  2  0
 32 33  1  0
 33  5  1  0
 32  8  1  0
 31 18  1  0
 27 22  1  0
M  END
