CVD-0000544|dock_bobby27042020.69|mol2|49|dock3
     RDKit          3D

 22 24  0  0  0  0  0  0  0  0999 V2000
   13.0955   -2.1507   21.1967 C   0  0  0  0  0  0  0  0  0  0  0  0
   12.7131   -1.3499   22.4149 C   0  0  0  0  0  0  0  0  0  0  0  0
   13.6452   -1.2159   23.4395 C   0  0  0  0  0  0  0  0  0  0  0  0
   13.3237   -0.4930   24.5660 C   0  0  0  0  0  0  0  0  0  0  0  0
   12.1451    0.0988   24.7364 N   0  0  0  0  0  0  0  0  0  0  0  0
   11.2411   -0.0236   23.7594 C   0  0  0  0  0  0  0  0  0  0  0  0
   11.4579   -0.7315   22.5766 C   0  0  0  0  0  0  0  0  0  0  0  0
   10.5006   -0.8676   21.5318 N   0  0  0  0  0  0  0  0  0  0  0  0
    9.1822   -0.4804   21.4963 C   0  0  0  0  0  0  0  0  0  0  0  0
    8.5687    0.0771   22.4013 O   0  0  0  0  0  0  0  0  0  0  0  0
    8.5976   -0.7860   20.3154 N   0  0  0  0  0  0  0  0  0  0  0  0
    7.2162   -0.4700   20.0594 C   0  0  0  0  0  0  0  0  0  0  0  0
    6.7378   -0.8477   18.6396 C   0  0  0  0  0  0  0  0  0  0  0  0
    5.5828   -1.6340   19.2319 C   0  0  0  0  0  0  0  0  0  0  0  0
    6.1708   -1.4441   20.6323 C   0  0  0  0  0  0  0  0  0  0  0  0
    6.9499    0.8861   20.3627 O   0  0  0  0  0  0  0  0  0  0  0  0
    5.6334    1.3858   20.4441 C   0  0  0  0  0  0  0  0  0  0  0  0
    5.0032    1.3877   21.6764 C   0  0  0  0  0  0  0  0  0  0  0  0
    3.7107    1.8733   21.7815 C   0  0  0  0  0  0  0  0  0  0  0  0
    3.0545    2.3518   20.6680 C   0  0  0  0  0  0  0  0  0  0  0  0
    3.6864    2.3484   19.4429 C   0  0  0  0  0  0  0  0  0  0  0  0
    4.9791    1.8665   19.3206 C   0  0  0  0  0  0  0  0  0  0  0  0
  1  2  1  0
  2  3  2  0
  3  4  1  0
  4  5  2  0
  5  6  1  0
  6  7  2  0
  7  8  1  0
  8  9  1  0
  9 10  2  0
  9 11  1  0
 11 12  1  0
 12 13  1  0
 13 14  1  0
 14 15  1  0
 12 16  1  0
 16 17  1  0
 17 18  2  0
 18 19  1  0
 19 20  2  0
 20 21  1  0
 21 22  2  0
  7  2  1  0
 15 12  1  0
 22 17  1  0
M  END
