CVD-0002684|dock_bobby27042020.47|mol2|37|dock3
     RDKit          3D

 33 35  0  0  0  0  0  0  0  0999 V2000
    7.2965   -3.5254   21.7449 C   0  0  0  0  0  0  0  0  0  0  0  0
    7.9257   -2.8028   22.8444 N   0  0  0  0  0  0  0  0  0  0  0  0
    7.9897   -3.6327   24.0455 C   0  0  0  0  0  0  0  0  0  0  0  0
    9.1791   -2.1260   22.4414 C   0  0  0  0  0  0  0  0  0  0  0  0
   10.2313   -1.8694   23.5456 C   0  0  0  0  0  0  0  0  0  0  0  0
   11.4576   -1.0694   23.1670 C   0  0  0  0  0  0  0  0  0  0  0  0
   11.7999    0.1082   23.8168 C   0  0  0  0  0  0  0  0  0  0  0  0
   12.9389    0.8117   23.4614 C   0  0  0  0  0  0  0  0  0  0  0  0
   13.7443    0.3586   22.4396 C   0  0  0  0  0  0  0  0  0  0  0  0
   13.4070   -0.7969   21.7700 C   0  0  0  0  0  0  0  0  0  0  0  0
   12.2707   -1.5021   22.1292 C   0  0  0  0  0  0  0  0  0  0  0  0
    8.8631   -0.8590   21.6496 C   0  0  0  0  0  0  0  0  0  0  0  0
    9.0070   -0.8233   20.4315 O   0  0  0  0  0  0  0  0  0  0  0  0
    8.4161    0.1848   22.3557 N   0  0  0  0  0  0  0  0  0  0  0  0
    8.0649    1.4491   21.7275 C   0  0  0  0  0  0  0  0  0  0  0  0
    6.5429    1.5722   21.5591 C   0  0  0  0  0  0  0  0  0  0  0  0
    6.0316    0.9493   20.2828 C   0  0  0  0  0  0  0  0  0  0  0  0
    5.9082   -0.4265   20.1654 C   0  0  0  0  0  0  0  0  0  0  0  0
    5.4360   -0.9981   18.9957 C   0  0  0  0  0  0  0  0  0  0  0  0
    5.0807   -0.2000   17.9297 C   0  0  0  0  0  0  0  0  0  0  0  0
    5.1972    1.1694   18.0336 C   0  0  0  0  0  0  0  0  0  0  0  0
    5.6695    1.7405   19.2036 C   0  0  0  0  0  0  0  0  0  0  0  0
    8.5631    2.6066   22.5877 C   0  0  0  0  0  0  0  0  0  0  0  0
    7.7946    3.1823   23.3352 O   0  0  0  0  0  0  0  0  0  0  0  0
   10.0540    2.9537   22.4333 C   0  0  0  0  0  0  0  0  0  0  0  0
   10.7463    1.9905   22.1239 O   0  0  0  0  0  0  0  0  0  0  0  0
   10.5985    4.1785   22.6078 N   0  0  0  0  0  0  0  0  0  0  0  0
    9.8157    5.3434   23.0260 C   0  0  0  0  0  0  0  0  0  0  0  0
   10.4343    5.9845   24.2544 C   0  0  0  0  0  0  0  0  0  0  0  0
   11.8193    6.3776   23.9784 N   0  0  0  0  0  0  0  0  0  0  0  0
   12.4075    7.0317   25.1461 C   0  0  0  0  0  0  0  0  0  0  0  0
   12.5885    5.1902   23.6158 C   0  0  0  0  0  0  0  0  0  0  0  0
   12.0046    4.5274   22.3814 C   0  0  0  0  0  0  0  0  0  0  0  0
  1  2  1  0
  2  3  1  0
  2  4  1  0
  4  5  1  0
  5  6  1  0
  6  7  2  0
  7  8  1  0
  8  9  2  0
  9 10  1  0
 10 11  2  0
  4 12  1  0
 12 13  2  0
 12 14  1  0
 14 15  1  0
 15 16  1  0
 16 17  1  0
 17 18  2  0
 18 19  1  0
 19 20  2  0
 20 21  1  0
 21 22  2  0
 15 23  1  0
 23 24  2  0
 23 25  1  0
 25 26  2  0
 25 27  1  0
 27 28  1  0
 28 29  1  0
 29 30  1  0
 30 31  1  0
 30 32  1  0
 32 33  1  0
 11  6  1  0
 22 17  1  0
 33 27  1  0
M  END
