CVD-0003580|dock_bobby27042020.73|mol2|21|dock1
     RDKit          3D

 22 23  0  0  0  0  0  0  0  0999 V2000
    6.0679   -0.5907   22.3159 C   0  0  0  0  0  0  0  0  0  0  0  0
    6.9750    0.2745   21.4488 C   0  0  0  0  0  0  0  0  0  0  0  0
    6.5906    0.0720   20.0483 N   0  0  0  0  0  0  0  0  0  0  0  0
    5.4254    0.4887   19.5478 C   0  0  0  0  0  0  0  0  0  0  0  0
    4.5745    1.0756   20.2090 O   0  0  0  0  0  0  0  0  0  0  0  0
    5.2228    0.1704   18.0828 C   0  0  0  0  0  0  0  0  0  0  0  0
    5.5321   -1.5263   17.6924 Cl  0  0  0  0  0  0  0  0  0  0  0  0
    8.4405   -0.0552   21.6674 C   0  0  0  0  0  0  0  0  0  0  0  0
    8.8764   -1.3742   21.6328 C   0  0  0  0  0  0  0  0  0  0  0  0
   10.1832   -1.7019   21.8319 C   0  0  0  0  0  0  0  0  0  0  0  0
   11.1513   -0.7013   22.0821 C   0  0  0  0  0  0  0  0  0  0  0  0
   12.5209   -0.9813   22.2964 C   0  0  0  0  0  0  0  0  0  0  0  0
   13.4069    0.0249   22.5324 C   0  0  0  0  0  0  0  0  0  0  0  0
   12.9991    1.3534   22.5707 C   0  0  0  0  0  0  0  0  0  0  0  0
   13.9728    2.3703   22.8226 N   0  0  0  0  0  0  0  0  0  0  0  0
   13.6528    3.9659   22.8980 S   0  0  0  0  0  0  0  0  0  0  0  0
   13.2583    4.4831   21.2718 C   0  0  0  0  0  0  0  0  0  0  0  0
   14.8549    4.6249   23.3063 O   0  0  0  0  0  0  0  0  0  0  0  0
   12.4831    4.1181   23.7069 O   0  0  0  0  0  0  0  0  0  0  0  0
   11.6767    1.6665   22.3675 C   0  0  0  0  0  0  0  0  0  0  0  0
   10.7249    0.6498   22.1193 C   0  0  0  0  0  0  0  0  0  0  0  0
    9.3562    0.9341   21.9060 C   0  0  0  0  0  0  0  0  0  0  0  0
  1  2  1  0
  2  3  1  0
  3  4  1  0
  4  5  2  0
  4  6  1  0
  6  7  1  0
  2  8  1  0
  8  9  2  0
  9 10  1  0
 10 11  2  0
 11 12  1  0
 12 13  2  0
 13 14  1  0
 14 15  1  0
 15 16  1  0
 16 17  1  0
 16 18  2  0
 16 19  2  0
 14 20  2  0
 20 21  1  0
 21 22  2  0
 22  8  1  0
 21 11  1  0
M  END
