CVD-0001912|dock_bobby27042020.51|mol2|4|dock3
     RDKit          3D

 39 41  0  0  0  0  0  0  0  0999 V2000
    2.5620    2.9155   19.4884 C   0  0  0  0  0  0  0  0  0  0  0  0
    3.2913    1.7220   20.0865 C   0  0  0  0  0  0  0  0  0  0  0  0
    4.7160    1.5783   19.6278 C   0  0  0  0  0  0  0  0  0  0  0  0
    5.2673    2.3419   18.8586 O   0  0  0  0  0  0  0  0  0  0  0  0
    5.2840    0.4927   20.1710 O   0  0  0  0  0  0  0  0  0  0  0  0
    6.6605    0.1981   19.9016 C   0  0  0  0  0  0  0  0  0  0  0  0
    7.1948   -0.7111   20.8588 O   0  0  0  0  0  0  0  0  0  0  0  0
    7.1492   -0.7110   22.4450 P   0  0  0  0  0  0  0  0  0  0  0  0
    5.8137   -0.5377   23.0882 O   0  0  0  0  0  0  0  0  0  0  0  0
    7.9040   -2.2489   22.9779 C   0  0  0  0  0  0  0  0  0  0  0  0
    7.1410   -3.5457   22.7167 C   0  0  0  0  0  0  0  0  0  0  0  0
    7.8911   -4.7696   23.2133 C   0  0  0  0  0  0  0  0  0  0  0  0
    7.3246   -6.0795   22.6810 C   0  0  0  0  0  0  0  0  0  0  0  0
    5.8939   -6.3328   23.0907 C   0  0  0  0  0  0  0  0  0  0  0  0
    4.9212   -6.6049   22.1410 C   0  0  0  0  0  0  0  0  0  0  0  0
    3.6080   -6.8342   22.5161 C   0  0  0  0  0  0  0  0  0  0  0  0
    3.2509   -6.7932   23.8466 C   0  0  0  0  0  0  0  0  0  0  0  0
    4.2072   -6.5225   24.8013 C   0  0  0  0  0  0  0  0  0  0  0  0
    5.5202   -6.2935   24.4252 C   0  0  0  0  0  0  0  0  0  0  0  0
    8.2669    0.6929   22.7847 C   0  0  0  0  0  0  0  0  0  0  0  0
    9.6659    0.4668   22.2482 C   0  0  0  0  0  0  0  0  0  0  0  0
    9.7751   -0.0406   21.1391 O   0  0  0  0  0  0  0  0  0  0  0  0
   10.7749    0.7927   22.9478 N   0  0  0  0  0  0  0  0  0  0  0  0
   10.8386    1.5625   24.1968 C   0  0  0  0  0  0  0  0  0  0  0  0
   12.2824    2.0134   24.2493 C   0  0  0  0  0  0  0  0  0  0  0  0
   13.0429    0.9304   23.5309 C   0  0  0  0  0  0  0  0  0  0  0  0
   12.1053    0.5321   22.3851 C   0  0  0  0  0  0  0  0  0  0  0  0
   12.2862   -0.9284   22.0002 C   0  0  0  0  0  0  0  0  0  0  0  0
   11.7302   -1.7517   22.8522 O   0  0  0  0  0  0  0  0  0  0  0  0
   12.8849   -1.2792   21.0073 O   0  0  0  0  0  0  0  0  0  0  0  0
   12.4150    3.3202   23.4498 C   0  0  0  0  0  0  0  0  0  0  0  0
   13.8223    3.5846   22.9147 C   0  0  0  0  0  0  0  0  0  0  0  0
   13.8791    4.8891   22.1200 C   0  0  0  0  0  0  0  0  0  0  0  0
   13.3938    6.0609   22.9509 C   0  0  0  0  0  0  0  0  0  0  0  0
   12.0046    5.8135   23.5022 C   0  0  0  0  0  0  0  0  0  0  0  0
   11.9381    4.5083   24.2885 C   0  0  0  0  0  0  0  0  0  0  0  0
    6.6853   -0.3941   18.5110 C   0  0  0  0  0  0  0  0  0  0  0  0
    5.9114   -1.7072   18.4899 C   0  0  0  0  0  0  0  0  0  0  0  0
    8.1254   -0.6278   18.0698 C   0  0  0  0  0  0  0  0  0  0  0  0
  1  2  1  0
  2  3  1  0
  3  4  2  0
  3  5  1  0
  6  5  1  0
  6  7  1  0
  7  8  1  0
  8  9  2  0
  8 10  1  0
 10 11  1  0
 11 12  1  0
 12 13  1  0
 13 14  1  0
 14 15  2  0
 15 16  1  0
 16 17  2  0
 17 18  1  0
 18 19  2  0
  8 20  1  0
 20 21  1  0
 21 22  2  0
 21 23  1  0
 23 24  1  0
 24 25  1  0
 25 26  1  0
 26 27  1  0
 27 28  1  0
 28 29  1  0
 28 30  2  0
 25 31  1  0
 31 32  1  0
 32 33  1  0
 33 34  1  0
 34 35  1  0
 35 36  1  0
  6 37  1  0
 37 38  1  0
 37 39  1  0
 19 14  1  0
 27 23  1  0
 36 31  1  0
M  END
