CVD-0001849|dock_bobby27042020.65|mol2|40|dock3
     RDKit          3D

 15 15  0  0  0  0  0  0  0  0999 V2000
   10.0516   -2.1857   22.5256 C   0  0  0  0  0  0  0  0  0  0  0  0
   11.1129   -1.3543   21.8522 C   0  0  0  0  0  0  0  0  0  0  0  0
   11.9506   -0.6149   22.7989 N   0  0  0  0  0  0  0  0  0  0  0  0
   12.7169   -1.4450   23.7309 C   0  0  0  0  0  0  0  0  0  0  0  0
   13.7659   -2.2871   23.0513 C   0  0  0  0  0  0  0  0  0  0  0  0
   12.0380    0.7694   22.7912 C   0  0  0  0  0  0  0  0  0  0  0  0
   10.8912    1.5565   22.8297 C   0  0  0  0  0  0  0  0  0  0  0  0
   10.9736    2.9376   22.8219 C   0  0  0  0  0  0  0  0  0  0  0  0
   12.2139    3.5492   22.7770 C   0  0  0  0  0  0  0  0  0  0  0  0
   13.3672    2.7859   22.7371 C   0  0  0  0  0  0  0  0  0  0  0  0
   13.2748    1.4054   22.7451 C   0  0  0  0  0  0  0  0  0  0  0  0
   12.3251    5.3128   22.7604 S   0  0  0  0  0  0  0  0  0  0  0  0
   10.8518    5.9123   22.5785 N   0  0  0  0  0  0  0  0  0  0  0  0
   12.7934    5.7240   24.0497 O   0  0  0  0  0  0  0  0  0  0  0  0
   13.0789    5.6828   21.6003 O   0  0  0  0  0  0  0  0  0  0  0  0
  1  2  1  0
  2  3  1  0
  3  4  1  0
  4  5  1  0
  3  6  1  0
  6  7  2  0
  7  8  1  0
  8  9  2  0
  9 10  1  0
 10 11  2  0
  9 12  1  0
 12 13  1  0
 12 14  2  0
 12 15  2  0
 11  6  1  0
M  END
