CVD-0001860|dock_bobby27042020.8|mol2|15|dock3
     RDKit          3D

 16 16  0  0  0  0  0  0  0  0999 V2000
    8.5305   -2.6636   22.9881 C   0  0  0  0  0  0  0  0  0  0  0  0
    9.2929   -1.4336   22.9769 O   0  0  0  0  0  0  0  0  0  0  0  0
   10.4765   -1.4903   22.3692 C   0  0  0  0  0  0  0  0  0  0  0  0
   10.8690   -2.5026   21.8132 O   0  0  0  0  0  0  0  0  0  0  0  0
   11.2563   -0.2031   22.4416 C   0  0  0  0  0  0  0  0  0  0  0  0
   10.5408    0.9938   22.5689 C   0  0  0  0  0  0  0  0  0  0  0  0
   11.1794    2.2184   22.6429 C   0  0  0  0  0  0  0  0  0  0  0  0
   12.5601    2.2681   22.5919 C   0  0  0  0  0  0  0  0  0  0  0  0
   13.2943    1.1019   22.4643 C   0  0  0  0  0  0  0  0  0  0  0  0
   12.6643   -0.1357   22.3883 C   0  0  0  0  0  0  0  0  0  0  0  0
   13.5339   -1.3750   22.2517 C   0  0  0  0  0  0  0  0  0  0  0  0
   13.8476   -1.8427   20.9190 N   0  0  0  0  0  0  0  0  0  0  0  0
   13.3959    3.8227   22.6788 S   0  0  0  0  0  0  0  0  0  0  0  0
   12.7886    4.7886   21.5558 N   0  0  0  0  0  0  0  0  0  0  0  0
   13.0860    4.4044   23.9503 O   0  0  0  0  0  0  0  0  0  0  0  0
   14.7679    3.5901   22.3404 O   0  0  0  0  0  0  0  0  0  0  0  0
  1  2  1  0
  2  3  1  0
  3  4  2  0
  3  5  1  0
  5  6  2  0
  6  7  1  0
  7  8  2  0
  8  9  1  0
  9 10  2  0
 10 11  1  0
 11 12  1  0
  8 13  1  0
 13 14  1  0
 13 15  2  0
 13 16  2  0
 10  5  1  0
M  END
