CVD-0000777|dock_bobby27042020.40|mol2|27|dock2
     RDKit          3D

 31 34  0  0  0  0  0  0  0  0999 V2000
    8.8186   -0.1377   27.1301 F   0  0  0  0  0  0  0  0  0  0  0  0
    8.6597   -0.6160   25.8666 C   0  0  0  0  0  0  0  0  0  0  0  0
    7.7291   -1.5814   25.6206 C   0  0  0  0  0  0  0  0  0  0  0  0
    7.5484   -2.0700   24.3893 N   0  0  0  0  0  0  0  0  0  0  0  0
    8.2940   -1.6000   23.3760 C   0  0  0  0  0  0  0  0  0  0  0  0
    7.9971   -2.2188   22.0295 C   0  0  0  0  0  0  0  0  0  0  0  0
    7.6085   -1.2166   21.0482 N   0  0  0  0  0  0  0  0  0  0  0  0
    6.5771   -0.3907   21.3025 C   0  0  0  0  0  0  0  0  0  0  0  0
    5.9953   -0.4660   22.3780 O   0  0  0  0  0  0  0  0  0  0  0  0
    6.1719    0.5285   20.3744 N   0  0  0  0  0  0  0  0  0  0  0  0
    5.3649    1.7050   20.7184 C   0  0  0  0  0  0  0  0  0  0  0  0
    4.2265    1.8564   19.7302 C   0  0  0  0  0  0  0  0  0  0  0  0
    4.6899    1.9229   18.3967 O   0  0  0  0  0  0  0  0  0  0  0  0
    5.4088    0.7344   18.0660 C   0  0  0  0  0  0  0  0  0  0  0  0
    6.6040    0.5455   18.9734 C   0  0  0  0  0  0  0  0  0  0  0  0
    9.2778   -0.6050   23.5707 C   0  0  0  0  0  0  0  0  0  0  0  0
    9.4454   -0.1123   24.8625 C   0  0  0  0  0  0  0  0  0  0  0  0
   10.1617   -0.0441   22.4568 C   0  0  0  0  0  0  0  0  0  0  0  0
   11.3501   -0.9120   22.2096 C   0  0  0  0  0  0  0  0  0  0  0  0
   12.3031   -0.8482   23.3453 N   0  0  0  0  0  0  0  0  0  0  0  0
   12.6743    0.4882   23.8510 C   0  0  0  0  0  0  0  0  0  0  0  0
   11.8033    1.6416   23.3439 C   0  0  0  0  0  0  0  0  0  0  0  0
   12.2025    2.9567   23.5590 C   0  0  0  0  0  0  0  0  0  0  0  0
   11.4240    4.0178   23.1337 C   0  0  0  0  0  0  0  0  0  0  0  0
   10.2340    3.7713   22.4864 C   0  0  0  0  0  0  0  0  0  0  0  0
    9.8313    2.4655   22.2692 C   0  0  0  0  0  0  0  0  0  0  0  0
   10.6008    1.3791   22.6897 C   0  0  0  0  0  0  0  0  0  0  0  0
   12.7863   -1.9619   23.9453 C   0  0  0  0  0  0  0  0  0  0  0  0
   12.4624   -3.0817   23.5696 O   0  0  0  0  0  0  0  0  0  0  0  0
   13.7544   -1.8079   25.1051 C   0  0  0  0  0  0  0  0  0  0  0  0
   14.5611   -3.3410   25.4625 Cl  0  0  0  0  0  0  0  0  0  0  0  0
  1  2  1  0
  2  3  2  0
  3  4  1  0
  4  5  2  0
  5  6  1  0
  6  7  1  0
  7  8  1  0
  8  9  2  0
  8 10  1  0
 10 11  1  0
 11 12  1  0
 12 13  1  0
 13 14  1  0
 14 15  1  0
  5 16  1  0
 16 17  2  0
 18 16  1  0
 18 19  1  0
 19 20  1  0
 20 21  1  0
 21 22  1  0
 22 23  2  0
 23 24  1  0
 24 25  2  0
 25 26  1  0
 26 27  2  0
 20 28  1  0
 28 29  2  0
 28 30  1  0
 30 31  1  0
 17  2  1  0
 27 18  1  0
 15 10  1  0
 27 22  1  0
M  END
