CVD-0003498|dock_bobby27042020.87|mol2|40|dock2
     RDKit          3D

 26 29  0  0  0  0  0  0  0  0999 V2000
    9.0635    1.0065   24.4193 C   0  0  0  0  0  0  0  0  0  0  0  0
    9.8305    0.6164   23.2382 N   0  0  0  0  0  0  0  0  0  0  0  0
    9.6829   -0.7872   22.7601 C   0  0  0  0  0  0  0  0  0  0  0  0
   11.0315   -1.5151   22.6631 C   0  0  0  0  0  0  0  0  0  0  0  0
   12.0924   -0.9388   23.5871 C   0  0  0  0  0  0  0  0  0  0  0  0
   12.2477    0.5240   23.2726 C   0  0  0  0  0  0  0  0  0  0  0  0
   13.4815    1.1376   23.0893 C   0  0  0  0  0  0  0  0  0  0  0  0
   13.5713    2.4596   22.7011 C   0  0  0  0  0  0  0  0  0  0  0  0
   12.4067    3.1777   22.4933 C   0  0  0  0  0  0  0  0  0  0  0  0
   11.1572    2.5976   22.6667 C   0  0  0  0  0  0  0  0  0  0  0  0
   11.0820    1.2623   23.0589 C   0  0  0  0  0  0  0  0  0  0  0  0
   12.5030    4.8827   22.0389 S   0  0  0  0  0  0  0  0  0  0  0  0
   14.0254    5.3590   22.1758 N   0  0  0  0  0  0  0  0  0  0  0  0
   12.1530    4.9765   20.6533 O   0  0  0  0  0  0  0  0  0  0  0  0
   11.7396    5.6244   22.9970 O   0  0  0  0  0  0  0  0  0  0  0  0
    9.0123   -0.8024   21.4300 C   0  0  0  0  0  0  0  0  0  0  0  0
    9.1012   -1.7511   20.3910 C   0  0  0  0  0  0  0  0  0  0  0  0
    8.2870   -1.2729   19.4053 C   0  0  0  0  0  0  0  0  0  0  0  0
    7.7546   -0.1235   19.8573 N   0  0  0  0  0  0  0  0  0  0  0  0
    6.8437    0.7826   19.1648 C   0  0  0  0  0  0  0  0  0  0  0  0
    5.3846    0.4020   19.3795 C   0  0  0  0  0  0  0  0  0  0  0  0
    4.5778    1.5187   18.7721 C   0  0  0  0  0  0  0  0  0  0  0  0
    4.5852    2.5628   19.8547 C   0  0  0  0  0  0  0  0  0  0  0  0
    4.7618    1.8898   21.0932 O   0  0  0  0  0  0  0  0  0  0  0  0
    5.0123    0.5134   20.8455 C   0  0  0  0  0  0  0  0  0  0  0  0
    8.1966    0.1904   21.0980 N   0  0  0  0  0  0  0  0  0  0  0  0
  1  2  1  0
  2  3  1  0
  3  4  1  0
  4  5  1  0
  5  6  1  0
  6  7  2  0
  7  8  1  0
  8  9  2  0
  9 10  1  0
 10 11  2  0
  9 12  1  0
 12 13  1  0
 12 14  2  0
 12 15  2  0
  3 16  1  0
 16 17  1  0
 17 18  2  0
 18 19  1  0
 19 20  1  0
 21 20  1  0
 21 22  1  0
 22 23  1  0
 23 24  1  0
 24 25  1  0
 19 26  1  0
 11  2  1  0
 26 16  2  0
 11  6  1  0
 25 21  1  0
M  END
