CVD-0000975|dock_bobby27042020.96|mol2|44|dock2
     RDKit          3D

 14 14  0  0  0  0  0  0  0  0999 V2000
   10.7718   -0.7016   23.3649 C   0  0  0  0  0  0  0  0  0  0  0  0
   12.0004    0.1068   23.3853 N   0  0  0  0  0  0  0  0  0  0  0  0
   12.0026    1.5015   22.9842 C   0  0  0  0  0  0  0  0  0  0  0  0
   13.1971    2.1076   23.0559 N   0  0  0  0  0  0  0  0  0  0  0  0
   13.2765    3.3771   22.6407 C   0  0  0  0  0  0  0  0  0  0  0  0
   12.1826    4.0639   22.1641 C   0  0  0  0  0  0  0  0  0  0  0  0
   10.9725    3.5009   22.1064 N   0  0  0  0  0  0  0  0  0  0  0  0
   10.8661    2.2308   22.5412 C   0  0  0  0  0  0  0  0  0  0  0  0
    9.5101    1.7238   22.5132 C   0  0  0  0  0  0  0  0  0  0  0  0
    8.4328    1.3485   22.4565 N   0  0  0  0  0  0  0  0  0  0  0  0
   13.4286   -0.6422   23.7154 S   0  0  0  0  0  0  0  0  0  0  0  0
   13.4176   -2.2160   22.9364 C   0  0  0  0  0  0  0  0  0  0  0  0
   13.5043   -0.8349   25.1308 O   0  0  0  0  0  0  0  0  0  0  0  0
   14.4592    0.1249   23.0870 O   0  0  0  0  0  0  0  0  0  0  0  0
  1  2  1  0
  2  3  1  0
  3  4  2  0
  4  5  1  0
  5  6  2  0
  6  7  1  0
  7  8  2  0
  8  9  1  0
  9 10  3  0
  2 11  1  0
 11 12  1  0
 11 13  2  0
 11 14  2  0
  8  3  1  0
M  END
