CVD-0003071|dock_bobby27042020.32|mol2|12|dock1
     RDKit          3D

 19 20  0  0  0  0  0  0  0  0999 V2000
   12.7154    4.1953   21.8966 C   0  0  0  0  0  0  0  0  0  0  0  0
   12.1928    3.2734   22.9534 C   0  0  0  0  0  0  0  0  0  0  0  0
   12.4746    1.8706   22.6333 N   0  0  0  0  0  0  0  0  0  0  0  0
   12.1344    0.9579   23.7253 C   0  0  0  0  0  0  0  0  0  0  0  0
   11.7414   -0.4720   23.2930 C   0  0  0  0  0  0  0  0  0  0  0  0
   12.8840   -1.0708   22.4736 C   0  0  0  0  0  0  0  0  0  0  0  0
   14.1188   -1.2911   23.3293 C   0  0  0  0  0  0  0  0  0  0  0  0
   13.8126   -2.1470   24.5411 C   0  0  0  0  0  0  0  0  0  0  0  0
   12.6838   -1.5477   25.3637 C   0  0  0  0  0  0  0  0  0  0  0  0
   11.4389   -1.3292   24.5177 C   0  0  0  0  0  0  0  0  0  0  0  0
   10.4715   -0.1751   22.4958 C   0  0  0  0  0  0  0  0  0  0  0  0
   10.0991    0.9785   22.3315 O   0  0  0  0  0  0  0  0  0  0  0  0
    9.8269   -1.2653   22.0084 N   0  0  0  0  0  0  0  0  0  0  0  0
    8.6303   -1.3757   21.2562 C   0  0  0  0  0  0  0  0  0  0  0  0
    8.1800   -0.4204   20.3498 C   0  0  0  0  0  0  0  0  0  0  0  0
    6.9934   -0.6371   19.6706 C   0  0  0  0  0  0  0  0  0  0  0  0
    6.2911   -1.7950   19.9127 C   0  0  0  0  0  0  0  0  0  0  0  0
    6.6963   -2.7276   20.7742 N   0  0  0  0  0  0  0  0  0  0  0  0
    7.8428   -2.5090   21.4245 C   0  0  0  0  0  0  0  0  0  0  0  0
  1  2  1  0
  2  3  1  0
  3  4  1  0
  4  5  1  0
  5  6  1  0
  6  7  1  0
  7  8  1  0
  8  9  1  0
  9 10  1  0
  5 11  1  0
 11 12  2  0
 11 13  1  0
 13 14  1  0
 14 15  2  0
 15 16  1  0
 16 17  2  0
 17 18  1  0
 18 19  2  0
 10  5  1  0
 19 14  1  0
M  END
