CVD-0000570|dock_bobby27042020.83|mol2|52|dock1
     RDKit          3D

 22 24  0  0  0  0  0  0  0  0999 V2000
    8.1432   -1.5499   18.1704 C   0  0  0  0  0  0  0  0  0  0  0  0
    7.2585   -1.0403   19.2791 C   0  0  0  0  0  0  0  0  0  0  0  0
    5.8952   -0.9109   19.0320 C   0  0  0  0  0  0  0  0  0  0  0  0
    5.0617   -0.4451   20.0237 C   0  0  0  0  0  0  0  0  0  0  0  0
    5.4945   -0.1031   21.2335 N   0  0  0  0  0  0  0  0  0  0  0  0
    6.8024   -0.2221   21.4826 C   0  0  0  0  0  0  0  0  0  0  0  0
    7.7375   -0.6819   20.5543 C   0  0  0  0  0  0  0  0  0  0  0  0
    9.1319   -0.8110   20.8105 N   0  0  0  0  0  0  0  0  0  0  0  0
    9.8838   -0.2989   21.8415 C   0  0  0  0  0  0  0  0  0  0  0  0
    9.4647    0.3918   22.7654 O   0  0  0  0  0  0  0  0  0  0  0  0
   11.1887   -0.6415   21.7408 N   0  0  0  0  0  0  0  0  0  0  0  0
   12.2243   -0.2563   22.6836 C   0  0  0  0  0  0  0  0  0  0  0  0
   12.2980   -1.0052   24.0109 C   0  0  0  0  0  0  0  0  0  0  0  0
   13.3470   -1.2482   22.9695 C   0  0  0  0  0  0  0  0  0  0  0  0
   12.5538    1.1836   22.6818 C   0  0  0  0  0  0  0  0  0  0  0  0
   12.7850    2.3504   22.5810 C   0  0  0  0  0  0  0  0  0  0  0  0
   13.1160    3.7501   22.5329 C   0  0  0  0  0  0  0  0  0  0  0  0
   12.3439    4.6772   23.2257 C   0  0  0  0  0  0  0  0  0  0  0  0
   12.7000    6.0124   23.1503 C   0  0  0  0  0  0  0  0  0  0  0  0
   13.7951    6.3840   22.4013 C   0  0  0  0  0  0  0  0  0  0  0  0
   14.5016    5.3995   21.7484 C   0  0  0  0  0  0  0  0  0  0  0  0
   14.1887    4.0975   21.7967 N   0  0  0  0  0  0  0  0  0  0  0  0
  1  2  1  0
  2  3  2  0
  3  4  1  0
  4  5  2  0
  5  6  1  0
  6  7  2  0
  7  8  1  0
  8  9  1  0
  9 10  2  0
  9 11  1  0
 11 12  1  0
 12 13  1  0
 13 14  1  0
 12 15  1  0
 15 16  3  0
 16 17  1  0
 17 18  2  0
 18 19  1  0
 19 20  2  0
 20 21  1  0
 21 22  2  0
  7  2  1  0
 14 12  1  0
 22 17  1  0
M  END
