CVD-0002570|dock_bobby27042020.5|mol2|15|dock2
     RDKit          3D

 34 38  0  0  0  0  0  0  0  0999 V2000
   10.1764    2.2943   22.6947 O   0  0  0  0  0  0  0  0  0  0  0  0
   11.2345    1.6739   22.7045 C   0  0  0  0  0  0  0  0  0  0  0  0
   12.4804    2.2562   22.6484 N   0  0  0  0  0  0  0  0  0  0  0  0
   12.8651    3.6189   22.5702 C   0  0  0  0  0  0  0  0  0  0  0  0
   14.0336    3.9194   21.8792 C   0  0  0  0  0  0  0  0  0  0  0  0
   14.4680    5.2289   21.7638 C   0  0  0  0  0  0  0  0  0  0  0  0
   13.7451    6.2528   22.3342 C   0  0  0  0  0  0  0  0  0  0  0  0
   12.5857    5.9685   23.0215 C   0  0  0  0  0  0  0  0  0  0  0  0
   12.1409    4.6622   23.1437 C   0  0  0  0  0  0  0  0  0  0  0  0
   11.3267    0.3027   22.7732 N   0  0  0  0  0  0  0  0  0  0  0  0
   10.3130   -0.6858   22.8454 C   0  0  0  0  0  0  0  0  0  0  0  0
    8.9514   -0.4337   22.7106 C   0  0  0  0  0  0  0  0  0  0  0  0
    8.0385   -1.4708   22.7971 C   0  0  0  0  0  0  0  0  0  0  0  0
    8.5216   -2.7555   23.0201 C   0  0  0  0  0  0  0  0  0  0  0  0
    9.8218   -3.0242   23.1528 N   0  0  0  0  0  0  0  0  0  0  0  0
   10.6830   -2.0059   23.0654 C   0  0  0  0  0  0  0  0  0  0  0  0
    7.6679   -3.8296   23.1177 N   0  0  0  0  0  0  0  0  0  0  0  0
    6.7507   -3.9222   24.2631 C   0  0  0  0  0  0  0  0  0  0  0  0
    6.2853   -5.3600   24.4631 C   0  0  0  0  0  0  0  0  0  0  0  0
    5.7510   -5.9366   23.2389 N   0  0  0  0  0  0  0  0  0  0  0  0
    6.6557   -5.7866   22.0893 C   0  0  0  0  0  0  0  0  0  0  0  0
    7.0022   -4.3349   21.8900 C   0  0  0  0  0  0  0  0  0  0  0  0
    4.5936   -6.6066   23.0626 C   0  0  0  0  0  0  0  0  0  0  0  0
    4.2595   -7.0401   21.9672 O   0  0  0  0  0  0  0  0  0  0  0  0
    3.7012   -6.8015   24.2754 C   0  0  0  0  0  0  0  0  0  0  0  0
    2.5309   -7.7037   24.0210 C   0  0  0  0  0  0  0  0  0  0  0  0
    2.1706   -8.8082   24.7358 C   0  0  0  0  0  0  0  0  0  0  0  0
    1.0442   -9.3788   24.2051 N   0  0  0  0  0  0  0  0  0  0  0  0
    0.6526   -8.6437   23.1248 C   0  0  0  0  0  0  0  0  0  0  0  0
   -0.4053   -8.8674   22.3270 N   0  0  0  0  0  0  0  0  0  0  0  0
   -0.5841   -7.9987   21.3222 C   0  0  0  0  0  0  0  0  0  0  0  0
    0.2428   -6.9225   21.0810 C   0  0  0  0  0  0  0  0  0  0  0  0
    1.3294   -6.7064   21.9138 C   0  0  0  0  0  0  0  0  0  0  0  0
    1.5594   -7.5813   22.9735 C   0  0  0  0  0  0  0  0  0  0  0  0
  1  2  2  0
  2  3  1  0
  3  4  1  0
  4  5  2  0
  5  6  1  0
  6  7  2  0
  7  8  1  0
  8  9  2  0
  2 10  1  0
 10 11  1  0
 11 12  2  0
 12 13  1  0
 13 14  2  0
 14 15  1  0
 15 16  2  0
 14 17  1  0
 17 18  1  0
 18 19  1  0
 19 20  1  0
 20 21  1  0
 21 22  1  0
 20 23  1  0
 23 24  2  0
 23 25  1  0
 25 26  1  0
 26 27  2  0
 27 28  1  0
 28 29  1  0
 29 30  2  0
 30 31  1  0
 31 32  2  0
 32 33  1  0
 33 34  2  0
  9  4  1  0
 16 11  1  0
 22 17  1  0
 34 26  1  0
 34 29  1  0
M  END
