CVD-0001213|dock_bobby27042020.96|mol2|7|dock1
     RDKit          3D

 26 29  0  0  0  0  0  0  0  0999 V2000
    6.6002   -4.8765   21.2129 C   0  0  0  0  0  0  0  0  0  0  0  0
    6.0597   -3.9150   20.1955 C   0  0  0  0  0  0  0  0  0  0  0  0
    5.3372   -4.2872   19.2761 O   0  0  0  0  0  0  0  0  0  0  0  0
    6.4000   -2.6347   20.3645 N   0  0  0  0  0  0  0  0  0  0  0  0
    5.9514   -1.5656   19.4830 C   0  0  0  0  0  0  0  0  0  0  0  0
    7.0936   -0.6934   18.9986 C   0  0  0  0  0  0  0  0  0  0  0  0
    7.6290    0.2419   20.0442 C   0  0  0  0  0  0  0  0  0  0  0  0
    7.1330    1.4688   20.3764 C   0  0  0  0  0  0  0  0  0  0  0  0
    7.8781    2.0342   21.3749 N   0  0  0  0  0  0  0  0  0  0  0  0
    8.8881    1.1657   21.7075 C   0  0  0  0  0  0  0  0  0  0  0  0
    9.9106    1.2698   22.6570 C   0  0  0  0  0  0  0  0  0  0  0  0
    9.9663    2.4266   23.4335 O   0  0  0  0  0  0  0  0  0  0  0  0
   10.9141    3.4253   23.2030 C   0  0  0  0  0  0  0  0  0  0  0  0
   11.7300    3.3859   22.0813 C   0  0  0  0  0  0  0  0  0  0  0  0
   12.6645    4.3841   21.8741 C   0  0  0  0  0  0  0  0  0  0  0  0
   12.8014    5.4394   22.7876 C   0  0  0  0  0  0  0  0  0  0  0  0
   13.6046    6.5999   22.9231 C   0  0  0  0  0  0  0  0  0  0  0  0
   13.3002    7.2650   24.0202 N   0  0  0  0  0  0  0  0  0  0  0  0
   12.2985    6.5615   24.6241 N   0  0  0  0  0  0  0  0  0  0  0  0
   11.9644    5.4509   23.9140 C   0  0  0  0  0  0  0  0  0  0  0  0
   11.0211    4.4516   24.1310 C   0  0  0  0  0  0  0  0  0  0  0  0
   10.8211    0.2378   22.8096 C   0  0  0  0  0  0  0  0  0  0  0  0
   10.6772   -0.8603   21.9934 C   0  0  0  0  0  0  0  0  0  0  0  0
   11.5722   -1.8748   22.1360 F   0  0  0  0  0  0  0  0  0  0  0  0
    9.6931   -1.0061   21.0439 C   0  0  0  0  0  0  0  0  0  0  0  0
    8.7678    0.0255   20.8922 C   0  0  0  0  0  0  0  0  0  0  0  0
  1  2  1  0
  2  3  2  0
  2  4  1  0
  4  5  1  0
  5  6  1  0
  6  7  1  0
  7  8  2  0
  8  9  1  0
  9 10  1  0
 10 11  2  0
 11 12  1  0
 12 13  1  0
 13 14  2  0
 14 15  1  0
 15 16  2  0
 16 17  1  0
 17 18  2  0
 18 19  1  0
 19 20  1  0
 20 21  2  0
 11 22  1  0
 22 23  2  0
 23 24  1  0
 23 25  1  0
 25 26  2  0
 26  7  1  0
 26 10  1  0
 21 13  1  0
 20 16  1  0
M  END
