CVD-0001920|dock_bobby27042020.36|mol2|32|dock2
     RDKit          3D

 29 32  0  0  0  0  0  0  0  0999 V2000
   11.2526    2.1651   21.2598 O   0  0  0  0  0  0  0  0  0  0  0  0
   11.2922    2.4091   22.4461 C   0  0  0  0  0  0  0  0  0  0  0  0
   10.6050    1.5170   23.4549 C   0  0  0  0  0  0  0  0  0  0  0  0
   10.4290    0.0714   22.9822 C   0  0  0  0  0  0  0  0  0  0  0  0
    9.3053   -0.0614   21.9393 C   0  0  0  0  0  0  0  0  0  0  0  0
    8.9890   -1.5589   21.6162 C   0  0  0  0  0  0  0  0  0  0  0  0
    8.7306   -2.3064   22.8372 N   0  0  0  0  0  0  0  0  0  0  0  0
    8.3601   -3.6297   22.5956 N   0  0  0  0  0  0  0  0  0  0  0  0
    7.0755   -4.0341   23.0214 C   0  0  0  0  0  0  0  0  0  0  0  0
    6.6340   -5.3366   22.8165 C   0  0  0  0  0  0  0  0  0  0  0  0
    5.3708   -5.7136   23.2415 C   0  0  0  0  0  0  0  0  0  0  0  0
    4.5459   -4.8044   23.8680 C   0  0  0  0  0  0  0  0  0  0  0  0
    4.9786   -3.5120   24.0737 C   0  0  0  0  0  0  0  0  0  0  0  0
    6.2392   -3.1221   23.6536 C   0  0  0  0  0  0  0  0  0  0  0  0
    9.8694   -2.2495   23.7512 C   0  0  0  0  0  0  0  0  0  0  0  0
   10.1297   -0.8164   24.1890 C   0  0  0  0  0  0  0  0  0  0  0  0
    9.5996   -3.1614   24.9302 C   0  0  0  0  0  0  0  0  0  0  0  0
    8.6283   -2.8402   25.8679 C   0  0  0  0  0  0  0  0  0  0  0  0
    8.3799   -3.6760   26.9440 C   0  0  0  0  0  0  0  0  0  0  0  0
    9.0982   -4.8427   27.0949 C   0  0  0  0  0  0  0  0  0  0  0  0
   10.0650   -5.1748   26.1702 C   0  0  0  0  0  0  0  0  0  0  0  0
   10.3143   -4.3398   25.0938 C   0  0  0  0  0  0  0  0  0  0  0  0
   12.0212    3.6050   22.9890 C   0  0  0  0  0  0  0  0  0  0  0  0
   11.1063    4.5300   23.7127 C   0  0  0  0  0  0  0  0  0  0  0  0
   11.7818    5.8442   24.1842 C   0  0  0  0  0  0  0  0  0  0  0  0
   13.0100    6.2563   23.3687 C   0  0  0  0  0  0  0  0  0  0  0  0
   13.6401    7.2726   23.6442 O   0  0  0  0  0  0  0  0  0  0  0  0
   13.3952    5.4805   22.3458 N   0  0  0  0  0  0  0  0  0  0  0  0
   12.7017    4.3294   21.8273 C   0  0  0  0  0  0  0  0  0  0  0  0
  1  2  2  0
  2  3  1  0
  4  3  1  0
  4  5  1  0
  5  6  1  0
  6  7  1  0
  7  8  1  0
  8  9  1  0
  9 10  2  0
 10 11  1  0
 11 12  2  0
 12 13  1  0
 13 14  2  0
  7 15  1  0
 15 16  1  0
 15 17  1  0
 17 18  2  0
 18 19  1  0
 19 20  2  0
 20 21  1  0
 21 22  2  0
 23  2  1  0
 23 24  1  0
 24 25  1  0
 25 26  1  0
 26 27  2  0
 26 28  1  0
 28 29  1  0
 16  4  1  0
 22 17  1  0
 29 23  1  0
 14  9  1  0
M  END
