CVD-0001686|dock_bobby27042020.9|mol2|2|dock1
     RDKit          3D

 32 34  0  0  0  0  0  0  0  0999 V2000
    4.9228   -8.1048   29.3060 C   0  0  0  0  0  0  0  0  0  0  0  0
    6.0068   -7.7104   28.4252 N   0  0  0  0  0  0  0  0  0  0  0  0
    6.3078   -6.4183   28.2163 C   0  0  0  0  0  0  0  0  0  0  0  0
    5.6856   -5.5074   28.7563 O   0  0  0  0  0  0  0  0  0  0  0  0
    7.3370   -6.1955   27.3749 N   0  0  0  0  0  0  0  0  0  0  0  0
    7.7836   -4.8467   27.0472 C   0  0  0  0  0  0  0  0  0  0  0  0
    7.1159   -4.3051   25.7905 C   0  0  0  0  0  0  0  0  0  0  0  0
    7.5066   -5.1426   24.4980 C   0  0  0  0  0  0  0  0  0  0  0  0
    6.2856   -5.9130   24.0075 C   0  0  0  0  0  0  0  0  0  0  0  0
    5.5542   -6.8694   25.3275 Cl  0  0  0  0  0  0  0  0  0  0  0  0
    8.1385   -4.1826   23.4488 C   0  0  0  0  0  0  0  0  0  0  0  0
    7.3690   -2.8863   23.7335 C   0  0  0  0  0  0  0  0  0  0  0  0
    7.9197   -1.6161   23.0983 C   0  0  0  0  0  0  0  0  0  0  0  0
    9.2882   -1.3118   23.5512 N   0  0  0  0  0  0  0  0  0  0  0  0
    9.3253   -1.0507   25.0104 C   0  0  0  0  0  0  0  0  0  0  0  0
    8.8735   -2.3043   25.7258 C   0  0  0  0  0  0  0  0  0  0  0  0
    7.5177   -2.8595   25.2873 C   0  0  0  0  0  0  0  0  0  0  0  0
   10.5556   -1.3304   22.5281 S   0  0  0  0  0  0  0  0  0  0  0  0
   11.4892   -2.2818   23.0460 O   0  0  0  0  0  0  0  0  0  0  0  0
   10.0188   -1.4915   21.2125 O   0  0  0  0  0  0  0  0  0  0  0  0
   11.3272    0.2696   22.6033 C   0  0  0  0  0  0  0  0  0  0  0  0
   10.4969    1.3751   22.6787 C   0  0  0  0  0  0  0  0  0  0  0  0
   10.9898    2.6746   22.7442 C   0  0  0  0  0  0  0  0  0  0  0  0
    9.9825    3.7926   22.8246 C   0  0  0  0  0  0  0  0  0  0  0  0
   12.3856    2.8570   22.7348 C   0  0  0  0  0  0  0  0  0  0  0  0
   13.2095    1.7262   22.6607 C   0  0  0  0  0  0  0  0  0  0  0  0
   12.7173    0.4254   22.5953 C   0  0  0  0  0  0  0  0  0  0  0  0
   13.6870   -0.7244   22.5200 C   0  0  0  0  0  0  0  0  0  0  0  0
   13.0425    4.2110   22.8006 C   0  0  0  0  0  0  0  0  0  0  0  0
   12.7767    5.0575   23.6376 O   0  0  0  0  0  0  0  0  0  0  0  0
   13.9556    4.4157   21.8530 O   0  0  0  0  0  0  0  0  0  0  0  0
   14.3865    5.7861   21.6783 C   0  0  0  0  0  0  0  0  0  0  0  0
  1  2  1  0
  2  3  1  0
  3  4  2  0
  3  5  1  0
  5  6  1  0
  6  7  1  0
  7  8  1  0
  8  9  1  0
  9 10  1  0
  8 11  1  0
 11 12  1  0
 12 13  1  0
 13 14  1  0
 14 15  1  0
 15 16  1  0
 16 17  1  0
 14 18  1  0
 18 19  2  0
 18 20  2  0
 18 21  1  0
 21 22  2  0
 22 23  1  0
 23 24  1  0
 23 25  2  0
 25 26  1  0
 26 27  2  0
 27 28  1  0
 25 29  1  0
 29 30  2  0
 29 31  1  0
 31 32  1  0
 17  7  1  0
 27 21  1  0
 17 12  1  0
M  END
