CVD-0001505|dock_bobby27042020.66|mol2|49|dock3
     RDKit          3D

 19 20  0  0  0  0  0  0  0  0999 V2000
    6.4582   -0.2637   19.0240 C   0  0  0  0  0  0  0  0  0  0  0  0
    7.0235   -0.7039   20.3380 C   0  0  0  0  0  0  0  0  0  0  0  0
    8.4530   -0.4528   20.4129 N   0  0  0  0  0  0  0  0  0  0  0  0
    8.9747    0.6014   21.0617 C   0  0  0  0  0  0  0  0  0  0  0  0
    8.2597    1.7435   21.0289 N   0  0  0  0  0  0  0  0  0  0  0  0
    8.7540    2.8109   21.6653 C   0  0  0  0  0  0  0  0  0  0  0  0
    9.9603    2.8021   22.3544 C   0  0  0  0  0  0  0  0  0  0  0  0
   10.6871    1.6174   22.3803 C   0  0  0  0  0  0  0  0  0  0  0  0
   10.2096    0.4834   21.7329 C   0  0  0  0  0  0  0  0  0  0  0  0
   11.0306   -0.7848   21.7815 C   0  0  0  0  0  0  0  0  0  0  0  0
   12.1138   -0.7389   22.7749 N   0  0  0  0  0  0  0  0  0  0  0  0
   11.5796   -0.8678   24.1360 C   0  0  0  0  0  0  0  0  0  0  0  0
   12.6730   -0.7689   25.1816 C   0  0  0  0  0  0  0  0  0  0  0  0
   13.7814   -1.7935   24.9726 C   0  0  0  0  0  0  0  0  0  0  0  0
   14.8868   -1.6403   25.8671 O   0  0  0  0  0  0  0  0  0  0  0  0
   14.2485   -1.7081   23.5238 C   0  0  0  0  0  0  0  0  0  0  0  0
   13.0957   -1.8005   22.5380 C   0  0  0  0  0  0  0  0  0  0  0  0
   10.4482    3.9825   23.0239 C   0  0  0  0  0  0  0  0  0  0  0  0
   10.8046    4.9216   23.5680 N   0  0  0  0  0  0  0  0  0  0  0  0
  1  2  1  0
  2  3  1  0
  3  4  1  0
  4  5  2  0
  5  6  1  0
  6  7  2  0
  7  8  1  0
  8  9  2  0
  9 10  1  0
 10 11  1  0
 11 12  1  0
 12 13  1  0
 13 14  1  0
 14 15  1  0
 14 16  1  0
 16 17  1  0
  7 18  1  0
 18 19  3  0
  9  4  1  0
 17 11  1  0
M  END
