CVD-0003407|dock_bobby27042020.88|mol2|9|dock1
     RDKit          3D

 19 21  0  0  0  0  0  0  0  0999 V2000
    9.9740    0.4383   23.2130 O   0  0  0  0  0  0  0  0  0  0  0  0
   10.2411   -0.1992   22.1997 C   0  0  0  0  0  0  0  0  0  0  0  0
   11.3467   -1.0044   22.0503 N   0  0  0  0  0  0  0  0  0  0  0  0
   12.4044   -1.3037   22.9462 C   0  0  0  0  0  0  0  0  0  0  0  0
   12.6725   -0.5689   24.0995 C   0  0  0  0  0  0  0  0  0  0  0  0
   13.7266   -0.9268   24.9240 C   0  0  0  0  0  0  0  0  0  0  0  0
   14.5207   -2.0096   24.6165 C   0  0  0  0  0  0  0  0  0  0  0  0
   14.2640   -2.7422   23.4791 C   0  0  0  0  0  0  0  0  0  0  0  0
   13.2134   -2.3942   22.6471 C   0  0  0  0  0  0  0  0  0  0  0  0
    9.4687   -0.1999   21.0618 N   0  0  0  0  0  0  0  0  0  0  0  0
    8.2572    0.4900   20.8015 C   0  0  0  0  0  0  0  0  0  0  0  0
    7.8139    1.6660   21.4067 C   0  0  0  0  0  0  0  0  0  0  0  0
    6.6590    2.2771   21.1233 N   0  0  0  0  0  0  0  0  0  0  0  0
    5.8560    1.7465   20.2014 C   0  0  0  0  0  0  0  0  0  0  0  0
    6.1819    0.5816   19.5284 C   0  0  0  0  0  0  0  0  0  0  0  0
    5.5584   -0.1659   18.5581 N   0  0  0  0  0  0  0  0  0  0  0  0
    6.3457   -1.2472   18.2471 C   0  0  0  0  0  0  0  0  0  0  0  0
    7.4757   -1.2277   18.9928 C   0  0  0  0  0  0  0  0  0  0  0  0
    7.3994   -0.0620   19.8279 C   0  0  0  0  0  0  0  0  0  0  0  0
  1  2  2  0
  2  3  1  0
  3  4  1  0
  4  5  2  0
  5  6  1  0
  6  7  2  0
  7  8  1  0
  8  9  2  0
  2 10  1  0
 10 11  1  0
 11 12  2  0
 12 13  1  0
 13 14  2  0
 14 15  1  0
 15 16  1  0
 16 17  1  0
 17 18  2  0
 18 19  1  0
  9  4  1  0
 19 11  1  0
 19 15  2  0
M  END
