CVD-0000089|dock_bobby27042020.99|mol2|40|dock2
     RDKit          3D

 17 17  0  0  0  0  0  0  0  0999 V2000
    6.2020    0.8441   17.9515 C   0  0  0  0  0  0  0  0  0  0  0  0
    7.4140    0.1317   18.5178 C   0  0  0  0  0  0  0  0  0  0  0  0
    7.2337   -0.2992   19.9577 C   0  0  0  0  0  0  0  0  0  0  0  0
    6.0862   -1.2876   20.0985 C   0  0  0  0  0  0  0  0  0  0  0  0
    8.4758   -0.9098   20.4246 N   0  0  0  0  0  0  0  0  0  0  0  0
    8.7927   -1.0395   21.7147 C   0  0  0  0  0  0  0  0  0  0  0  0
    8.0681   -0.6568   22.6281 O   0  0  0  0  0  0  0  0  0  0  0  0
   10.1101   -1.7021   22.0298 C   0  0  0  0  0  0  0  0  0  0  0  0
   11.1480   -0.7308   22.1149 O   0  0  0  0  0  0  0  0  0  0  0  0
   12.1420   -1.0034   23.0412 C   0  0  0  0  0  0  0  0  0  0  0  0
   11.8983   -0.7081   24.3858 C   0  0  0  0  0  0  0  0  0  0  0  0
   10.5835   -0.1223   24.8280 C   0  0  0  0  0  0  0  0  0  0  0  0
   12.9053   -0.9750   25.3102 C   0  0  0  0  0  0  0  0  0  0  0  0
   14.1148   -1.5167   24.9107 C   0  0  0  0  0  0  0  0  0  0  0  0
   14.3322   -1.8075   23.5746 C   0  0  0  0  0  0  0  0  0  0  0  0
   13.3516   -1.5635   22.6157 C   0  0  0  0  0  0  0  0  0  0  0  0
   13.5981   -1.9077   21.1704 C   0  0  0  0  0  0  0  0  0  0  0  0
  1  2  1  0
  2  3  1  0
  3  4  1  0
  3  5  1  0
  5  6  1  0
  6  7  2  0
  6  8  1  0
  8  9  1  0
  9 10  1  0
 10 11  2  0
 11 12  1  0
 11 13  1  0
 13 14  2  0
 14 15  1  0
 15 16  2  0
 16 17  1  0
 16 10  1  0
M  END
