CVD-0000845|dock_bobby27042020.97|mol2|18|dock3
     RDKit          3D

 19 21  0  0  0  0  0  0  0  0999 V2000
   12.4791   -1.9172   21.2284 O   0  0  0  0  0  0  0  0  0  0  0  0
   11.4031   -1.9737   21.8111 C   0  0  0  0  0  0  0  0  0  0  0  0
   10.3231   -1.9556   21.0255 N   0  0  0  0  0  0  0  0  0  0  0  0
    8.9472   -1.9721   21.5546 C   0  0  0  0  0  0  0  0  0  0  0  0
    8.9192   -1.5265   22.9959 C   0  0  0  0  0  0  0  0  0  0  0  0
    9.9666   -2.2830   23.7604 C   0  0  0  0  0  0  0  0  0  0  0  0
   11.2745   -2.0377   23.1359 N   0  0  0  0  0  0  0  0  0  0  0  0
   12.3722   -1.8373   24.0493 C   0  0  0  0  0  0  0  0  0  0  0  0
   13.5263   -2.6043   23.9091 C   0  0  0  0  0  0  0  0  0  0  0  0
   14.5948   -2.4362   24.7738 C   0  0  0  0  0  0  0  0  0  0  0  0
   14.5313   -1.5124   25.7921 C   0  0  0  0  0  0  0  0  0  0  0  0
   13.3993   -0.7434   25.9402 C   0  0  0  0  0  0  0  0  0  0  0  0
   12.3309   -0.8922   25.0717 C   0  0  0  0  0  0  0  0  0  0  0  0
    8.0536   -1.0818   20.7135 C   0  0  0  0  0  0  0  0  0  0  0  0
    6.8312   -1.5188   20.2269 C   0  0  0  0  0  0  0  0  0  0  0  0
    6.0497   -0.6664   19.4666 C   0  0  0  0  0  0  0  0  0  0  0  0
    6.5173    0.6040   19.2155 C   0  0  0  0  0  0  0  0  0  0  0  0
    7.6878    1.0552   19.6693 N   0  0  0  0  0  0  0  0  0  0  0  0
    8.4258    0.2154   20.4012 C   0  0  0  0  0  0  0  0  0  0  0  0
  1  2  2  0
  2  3  1  0
  3  4  1  0
  4  5  1  0
  5  6  1  0
  6  7  1  0
  7  8  1  0
  8  9  2  0
  9 10  1  0
 10 11  2  0
 11 12  1  0
 12 13  2  0
  4 14  1  0
 14 15  2  0
 15 16  1  0
 16 17  2  0
 17 18  1  0
 18 19  2  0
  7  2  1  0
 13  8  1  0
 19 14  1  0
M  END
