CVD-0001838|dock_bobby27042020.22|mol2|33|dock2
     RDKit          3D

 28 31  0  0  0  0  0  0  0  0999 V2000
    3.4959   -7.0666   24.4952 C   0  0  0  0  0  0  0  0  0  0  0  0
    4.6618   -6.1967   24.5913 N   0  0  0  0  0  0  0  0  0  0  0  0
    5.0405   -5.2372   23.7387 C   0  0  0  0  0  0  0  0  0  0  0  0
    6.2154   -4.7074   24.2267 C   0  0  0  0  0  0  0  0  0  0  0  0
    6.9898   -3.6662   23.6730 N   0  0  0  0  0  0  0  0  0  0  0  0
    6.7020   -2.9746   22.5147 C   0  0  0  0  0  0  0  0  0  0  0  0
    5.6762   -3.1222   21.6904 N   0  0  0  0  0  0  0  0  0  0  0  0
    5.8317   -2.1831   20.6719 N   0  0  0  0  0  0  0  0  0  0  0  0
    6.9355   -1.5049   20.9110 C   0  0  0  0  0  0  0  0  0  0  0  0
    7.4182   -0.3928   20.0166 C   0  0  0  0  0  0  0  0  0  0  0  0
    7.1007   -0.6985   18.5499 C   0  0  0  0  0  0  0  0  0  0  0  0
    6.4279    0.5779   18.0506 C   0  0  0  0  0  0  0  0  0  0  0  0
    6.0356    1.3355   19.2446 C   0  0  0  0  0  0  0  0  0  0  0  0
    5.2445    2.2645   19.3757 O   0  0  0  0  0  0  0  0  0  0  0  0
    6.7317    0.8571   20.2745 N   0  0  0  0  0  0  0  0  0  0  0  0
    7.5313   -1.9641   22.0523 N   0  0  0  0  0  0  0  0  0  0  0  0
    8.7609   -1.5045   22.7156 C   0  0  0  0  0  0  0  0  0  0  0  0
    9.9609   -2.3601   22.3429 C   0  0  0  0  0  0  0  0  0  0  0  0
   11.2422   -1.7896   22.7862 N   0  0  0  0  0  0  0  0  0  0  0  0
   12.1757   -1.5686   21.6926 C   0  0  0  0  0  0  0  0  0  0  0  0
   13.4170   -0.7512   22.1801 C   0  0  0  0  0  0  0  0  0  0  0  0
   14.0710   -1.3916   23.4172 C   0  0  0  0  0  0  0  0  0  0  0  0
   13.0108   -1.6795   24.4787 C   0  0  0  0  0  0  0  0  0  0  0  0
   12.4770   -0.3778   25.0849 C   0  0  0  0  0  0  0  0  0  0  0  0
   13.6248   -2.5006   25.6140 C   0  0  0  0  0  0  0  0  0  0  0  0
   11.8738   -2.5032   23.8938 C   0  0  0  0  0  0  0  0  0  0  0  0
    6.4687   -5.4345   25.3904 C   0  0  0  0  0  0  0  0  0  0  0  0
    5.5347   -6.3446   25.6154 N   0  0  0  0  0  0  0  0  0  0  0  0
  1  2  1  0
  2  3  1  0
  3  4  2  0
  4  5  1  0
  5  6  1  0
  6  7  2  0
  7  8  1  0
  8  9  2  0
  9 10  1  0
 10 11  1  0
 11 12  1  0
 12 13  1  0
 13 14  2  0
 13 15  1  0
  9 16  1  0
 16 17  1  0
 17 18  1  0
 18 19  1  0
 19 20  1  0
 20 21  1  0
 21 22  1  0
 22 23  1  0
 23 24  1  0
 23 25  1  0
 23 26  1  0
  4 27  1  0
 27 28  2  0
 28  2  1  0
 16  6  1  0
 26 19  1  0
 15 10  1  0
M  END
