CVD-0001152|dock_bobby27042020.82|mol2|3|dock3
     RDKit          3D

 34 35  0  0  0  0  0  0  0  0999 V2000
   13.6480   -1.4919   22.4384 C   0  0  0  0  0  0  0  0  0  0  0  0
   12.3059   -1.1767   23.0732 C   0  0  0  0  0  0  0  0  0  0  0  0
   12.5155   -0.4730   24.4039 C   0  0  0  0  0  0  0  0  0  0  0  0
   11.4131   -2.4166   23.1835 C   0  0  0  0  0  0  0  0  0  0  0  0
    9.8862   -2.3053   23.3073 C   0  0  0  0  0  0  0  0  0  0  0  0
    9.2783   -1.5609   22.2142 N   0  0  0  0  0  0  0  0  0  0  0  0
    8.9338   -1.1660   20.9836 C   0  0  0  0  0  0  0  0  0  0  0  0
    9.3318   -1.7218   19.9629 O   0  0  0  0  0  0  0  0  0  0  0  0
    7.9911    0.0327   20.9022 C   0  0  0  0  0  0  0  0  0  0  0  0
    6.5280   -0.4292   20.8073 C   0  0  0  0  0  0  0  0  0  0  0  0
    5.5999    0.6038   20.2143 C   0  0  0  0  0  0  0  0  0  0  0  0
    4.5301    1.0981   20.9445 C   0  0  0  0  0  0  0  0  0  0  0  0
    3.6806    2.0477   20.4017 C   0  0  0  0  0  0  0  0  0  0  0  0
    3.8917    2.5148   19.1224 C   0  0  0  0  0  0  0  0  0  0  0  0
    4.9523    2.0326   18.3860 C   0  0  0  0  0  0  0  0  0  0  0  0
    5.8016    1.0830   18.9292 C   0  0  0  0  0  0  0  0  0  0  0  0
    8.1638    0.8882   22.0648 N   0  0  0  0  0  0  0  0  0  0  0  0
    8.9124    2.0014   21.9947 C   0  0  0  0  0  0  0  0  0  0  0  0
    9.4899    2.3812   20.9979 O   0  0  0  0  0  0  0  0  0  0  0  0
    8.9286    2.6257   23.1904 O   0  0  0  0  0  0  0  0  0  0  0  0
    9.4456    3.9835   23.2379 C   0  0  0  0  0  0  0  0  0  0  0  0
   10.8893    4.0002   22.8248 C   0  0  0  0  0  0  0  0  0  0  0  0
   11.4845    5.1704   22.3799 C   0  0  0  0  0  0  0  0  0  0  0  0
   12.8150    5.1851   21.9959 C   0  0  0  0  0  0  0  0  0  0  0  0
   13.5645    4.0296   22.0518 C   0  0  0  0  0  0  0  0  0  0  0  0
   12.9836    2.8593   22.4911 C   0  0  0  0  0  0  0  0  0  0  0  0
   11.6531    2.8446   22.8751 C   0  0  0  0  0  0  0  0  0  0  0  0
    9.2125   -3.6619   23.4931 C   0  0  0  0  0  0  0  0  0  0  0  0
    8.7133   -4.2454   22.5346 O   0  0  0  0  0  0  0  0  0  0  0  0
    9.2028   -4.1573   24.7304 N   0  0  0  0  0  0  0  0  0  0  0  0
    8.5919   -5.4357   25.0237 C   0  0  0  0  0  0  0  0  0  0  0  0
    9.0420   -6.0717   26.3237 C   0  0  0  0  0  0  0  0  0  0  0  0
   10.1854   -6.7385   26.3151 N   0  0  0  0  0  0  0  0  0  0  0  0
    8.3375   -5.9570   27.3308 O   0  0  0  0  0  0  0  0  0  0  0  0
  1  2  1  0
  2  3  1  0
  2  4  1  0
  5  4  1  0
  5  6  1  0
  6  7  1  0
  7  8  2  0
  7  9  1  0
  9 10  1  0
 10 11  1  0
 11 12  2  0
 12 13  1  0
 13 14  2  0
 14 15  1  0
 15 16  2  0
  9 17  1  0
 17 18  1  0
 18 19  2  0
 18 20  1  0
 20 21  1  0
 21 22  1  0
 22 23  2  0
 23 24  1  0
 24 25  2  0
 25 26  1  0
 26 27  2  0
  5 28  1  0
 28 29  2  0
 28 30  1  0
 30 31  1  0
 31 32  1  0
 32 33  1  0
 32 34  2  0
 16 11  1  0
 27 22  1  0
M  END
