CVD-0003729|dock_bobby27042020.72|mol2|48|dock1
     RDKit          3D

 27 29  0  0  0  0  0  0  0  0999 V2000
   13.8359   -0.2221   23.3891 O   0  0  0  0  0  0  0  0  0  0  0  0
   12.4859   -0.1582   22.9204 C   0  0  0  0  0  0  0  0  0  0  0  0
   12.1676   -1.2881   21.9603 C   0  0  0  0  0  0  0  0  0  0  0  0
   10.7153   -1.2600   21.4772 C   0  0  0  0  0  0  0  0  0  0  0  0
    9.7765   -1.2877   22.6789 C   0  0  0  0  0  0  0  0  0  0  0  0
   10.0450   -0.1187   23.6135 C   0  0  0  0  0  0  0  0  0  0  0  0
   11.5040   -0.1679   24.0815 C   0  0  0  0  0  0  0  0  0  0  0  0
    8.3612   -1.3139   22.2570 N   0  0  0  0  0  0  0  0  0  0  0  0
    7.7908   -0.0091   21.8634 C   0  0  0  0  0  0  0  0  0  0  0  0
    6.6605   -0.0319   20.8396 C   0  0  0  0  0  0  0  0  0  0  0  0
    6.2612    1.3973   20.4183 C   0  0  0  0  0  0  0  0  0  0  0  0
    5.1802    1.4063   19.3390 C   0  0  0  0  0  0  0  0  0  0  0  0
    5.5912    0.5681   18.1354 C   0  0  0  0  0  0  0  0  0  0  0  0
    5.9537   -0.8503   18.5519 C   0  0  0  0  0  0  0  0  0  0  0  0
    7.0610   -0.8514   19.6009 C   0  0  0  0  0  0  0  0  0  0  0  0
    7.5000   -2.2889   22.9636 C   0  0  0  0  0  0  0  0  0  0  0  0
    7.8026   -3.7427   22.6049 C   0  0  0  0  0  0  0  0  0  0  0  0
    6.8915   -4.6847   23.4118 C   0  0  0  0  0  0  0  0  0  0  0  0
    6.9143   -4.3453   24.9386 C   0  0  0  0  0  0  0  0  0  0  0  0
    6.6230   -2.9370   25.1581 N   0  0  0  0  0  0  0  0  0  0  0  0
    6.4929   -2.5505   26.5478 C   0  0  0  0  0  0  0  0  0  0  0  0
    7.6844   -1.9363   27.0771 O   0  0  0  0  0  0  0  0  0  0  0  0
    7.7034   -1.5285   28.3423 C   0  0  0  0  0  0  0  0  0  0  0  0
    6.8358   -1.7138   29.1704 O   0  0  0  0  0  0  0  0  0  0  0  0
    8.9292   -0.8120   28.6632 C   0  0  0  0  0  0  0  0  0  0  0  0
    9.8880   -0.2011   28.9713 C   0  0  0  0  0  0  0  0  0  0  0  0
    7.5820   -2.0776   24.4676 C   0  0  0  0  0  0  0  0  0  0  0  0
  1  2  1  0
  2  3  1  0
  3  4  1  0
  4  5  1  0
  5  6  1  0
  6  7  1  0
  5  8  1  0
  8  9  1  0
  9 10  1  0
 10 11  1  0
 11 12  1  0
 12 13  1  0
 13 14  1  0
 14 15  1  0
  8 16  1  0
 16 17  1  0
 17 18  1  0
 18 19  1  0
 19 20  1  0
 20 21  1  0
 21 22  1  0
 22 23  1  0
 23 24  2  0
 23 25  1  0
 25 26  3  0
 20 27  1  0
  7  2  1  0
 15 10  1  0
 27 16  1  0
M  END
