CVD-0003560|dock_bobby27042020.59|mol2|24|dock2
     RDKit          3D

 27 29  0  0  0  0  0  0  0  0999 V2000
   12.4088    6.6444   25.4955 C   0  0  0  0  0  0  0  0  0  0  0  0
   12.7363    5.7180   24.3615 C   0  0  0  0  0  0  0  0  0  0  0  0
   12.4857    4.5178   24.4104 O   0  0  0  0  0  0  0  0  0  0  0  0
   13.3007    6.2780   23.2897 N   0  0  0  0  0  0  0  0  0  0  0  0
   13.6608    5.5151   22.1037 C   0  0  0  0  0  0  0  0  0  0  0  0
   13.9891    4.0683   22.4185 C   0  0  0  0  0  0  0  0  0  0  0  0
   12.7964    3.1563   22.3970 C   0  0  0  0  0  0  0  0  0  0  0  0
   11.4875    3.5252   22.2945 C   0  0  0  0  0  0  0  0  0  0  0  0
   10.6770    2.4236   22.3092 N   0  0  0  0  0  0  0  0  0  0  0  0
   11.4611    1.3020   22.4225 C   0  0  0  0  0  0  0  0  0  0  0  0
   11.1081   -0.0528   22.4820 C   0  0  0  0  0  0  0  0  0  0  0  0
    9.7865   -0.4193   22.4304 N   0  0  0  0  0  0  0  0  0  0  0  0
    9.3099   -1.6707   21.8749 C   0  0  0  0  0  0  0  0  0  0  0  0
    7.9555   -1.5222   21.2093 C   0  0  0  0  0  0  0  0  0  0  0  0
    7.0501   -2.3073   21.4709 O   0  0  0  0  0  0  0  0  0  0  0  0
    7.8746   -0.4783   20.3493 N   0  0  0  0  0  0  0  0  0  0  0  0
    6.7633    0.0909   19.6800 C   0  0  0  0  0  0  0  0  0  0  0  0
    6.8363    0.6858   18.4246 C   0  0  0  0  0  0  0  0  0  0  0  0
    5.6884    1.2128   17.8581 C   0  0  0  0  0  0  0  0  0  0  0  0
    4.5058    1.1320   18.5567 C   0  0  0  0  0  0  0  0  0  0  0  0
    4.4054    0.5682   19.7604 N   0  0  0  0  0  0  0  0  0  0  0  0
    5.5188    0.0625   20.2986 C   0  0  0  0  0  0  0  0  0  0  0  0
   12.1261   -0.9952   22.5927 C   0  0  0  0  0  0  0  0  0  0  0  0
   13.4294   -0.5600   22.6383 C   0  0  0  0  0  0  0  0  0  0  0  0
   14.4093   -1.4976   22.7443 F   0  0  0  0  0  0  0  0  0  0  0  0
   13.8071    0.7599   22.5838 C   0  0  0  0  0  0  0  0  0  0  0  0
   12.8045    1.7220   22.4763 C   0  0  0  0  0  0  0  0  0  0  0  0
  1  2  1  0
  2  3  2  0
  2  4  1  0
  4  5  1  0
  5  6  1  0
  6  7  1  0
  7  8  2  0
  8  9  1  0
  9 10  1  0
 10 11  2  0
 11 12  1  0
 12 13  1  0
 13 14  1  0
 14 15  2  0
 14 16  1  0
 16 17  1  0
 17 18  2  0
 18 19  1  0
 19 20  2  0
 20 21  1  0
 21 22  2  0
 11 23  1  0
 23 24  2  0
 24 25  1  0
 24 26  1  0
 26 27  2  0
 27  7  1  0
 27 10  1  0
 22 17  1  0
M  END
