CVD-0003708|dock_bobby27042020.1|mol2|14|dock3
     RDKit          3D

 33 37  0  0  0  0  0  0  0  0999 V2000
   10.2362   -7.2141   26.1918 F   0  0  0  0  0  0  0  0  0  0  0  0
    9.9524   -6.1449   25.4135 C   0  0  0  0  0  0  0  0  0  0  0  0
   10.9543   -5.2784   25.0657 C   0  0  0  0  0  0  0  0  0  0  0  0
   10.6590   -4.1936   24.2611 C   0  0  0  0  0  0  0  0  0  0  0  0
    9.3516   -3.9451   23.8303 C   0  0  0  0  0  0  0  0  0  0  0  0
    9.0279   -2.8245   23.0117 N   0  0  0  0  0  0  0  0  0  0  0  0
    9.7649   -2.1474   22.0930 C   0  0  0  0  0  0  0  0  0  0  0  0
   10.9164   -2.3982   21.7526 O   0  0  0  0  0  0  0  0  0  0  0  0
    9.0041   -0.9913   21.4920 C   0  0  0  0  0  0  0  0  0  0  0  0
    7.9019   -1.3775   20.8288 N   0  0  0  0  0  0  0  0  0  0  0  0
    7.1624   -0.4152   20.2612 C   0  0  0  0  0  0  0  0  0  0  0  0
    7.5203    0.9296   20.3533 C   0  0  0  0  0  0  0  0  0  0  0  0
    8.6128    1.3321   21.0087 N   0  0  0  0  0  0  0  0  0  0  0  0
    9.3647    0.3760   21.5840 C   0  0  0  0  0  0  0  0  0  0  0  0
   10.4942    0.7462   22.2662 N   0  0  0  0  0  0  0  0  0  0  0  0
   11.1240    1.9832   22.5191 C   0  0  0  0  0  0  0  0  0  0  0  0
   11.4057    2.9726   21.5781 C   0  0  0  0  0  0  0  0  0  0  0  0
   12.0061    4.1276   21.8772 N   0  0  0  0  0  0  0  0  0  0  0  0
   12.3342    4.2991   23.1515 C   0  0  0  0  0  0  0  0  0  0  0  0
   12.1277    3.4472   24.1473 N   0  0  0  0  0  0  0  0  0  0  0  0
   11.5257    2.3037   23.8115 C   0  0  0  0  0  0  0  0  0  0  0  0
    5.9237   -0.8380   19.5139 C   0  0  0  0  0  0  0  0  0  0  0  0
    6.2997   -1.2381   18.1307 C   0  0  0  0  0  0  0  0  0  0  0  0
    5.7732   -2.2555   19.0631 C   0  0  0  0  0  0  0  0  0  0  0  0
    8.3142   -4.8383   24.2291 C   0  0  0  0  0  0  0  0  0  0  0  0
    6.8718   -4.5865   23.8371 C   0  0  0  0  0  0  0  0  0  0  0  0
    6.2580   -3.6964   24.4009 O   0  0  0  0  0  0  0  0  0  0  0  0
    6.2734   -5.3397   22.8940 N   0  0  0  0  0  0  0  0  0  0  0  0
    4.9919   -5.1586   22.2237 C   0  0  0  0  0  0  0  0  0  0  0  0
    5.4014   -6.2435   21.2416 C   0  0  0  0  0  0  0  0  0  0  0  0
    6.7814   -6.2806   21.9216 C   0  0  0  0  0  0  0  0  0  0  0  0
    8.6654   -5.9515   24.9825 C   0  0  0  0  0  0  0  0  0  0  0  0
    7.7520   -6.8868   25.2988 F   0  0  0  0  0  0  0  0  0  0  0  0
  1  2  1  0
  2  3  2  0
  3  4  1  0
  4  5  2  0
  5  6  1  0
  6  7  1  0
  7  8  2  0
  7  9  1  0
  9 10  2  0
 10 11  1  0
 11 12  2  0
 12 13  1  0
 13 14  2  0
 14 15  1  0
 15 16  1  0
 16 17  2  0
 17 18  1  0
 18 19  2  0
 19 20  1  0
 20 21  2  0
 11 22  1  0
 22 23  1  0
 23 24  1  0
  5 25  1  0
 25 26  1  0
 26 27  2  0
 26 28  1  0
 28 29  1  0
 29 30  1  0
 30 31  1  0
 25 32  2  0
 32 33  1  0
 32  2  1  0
 14  9  1  0
 21 16  1  0
 24 22  1  0
 31 28  1  0
M  END
