CVD-0000869|dock_bobby27042020.40|mol2|13|dock2
     RDKit          3D

 27 30  0  0  0  0  0  0  0  0999 V2000
    5.8169    1.2272   17.7136 Cl  0  0  0  0  0  0  0  0  0  0  0  0
    6.1569   -0.2600   18.6080 C   0  0  0  0  0  0  0  0  0  0  0  0
    7.3806   -0.0929   19.4887 C   0  0  0  0  0  0  0  0  0  0  0  0
    8.2075    0.7690   19.2177 O   0  0  0  0  0  0  0  0  0  0  0  0
    7.5420   -0.9119   20.5577 N   0  0  0  0  0  0  0  0  0  0  0  0
    6.6273   -2.0101   20.9215 C   0  0  0  0  0  0  0  0  0  0  0  0
    7.1241   -2.9560   22.0130 C   0  0  0  0  0  0  0  0  0  0  0  0
    6.2351   -3.8332   22.6257 C   0  0  0  0  0  0  0  0  0  0  0  0
    6.6843   -4.7664   23.5417 C   0  0  0  0  0  0  0  0  0  0  0  0
    8.0267   -4.8225   23.8460 C   0  0  0  0  0  0  0  0  0  0  0  0
    8.9079   -3.9479   23.2340 C   0  0  0  0  0  0  0  0  0  0  0  0
    8.4841   -2.9957   22.3062 C   0  0  0  0  0  0  0  0  0  0  0  0
    9.4376   -2.0465   21.6205 C   0  0  0  0  0  0  0  0  0  0  0  0
    8.7648   -0.7364   21.3801 C   0  0  0  0  0  0  0  0  0  0  0  0
    8.4528    0.0394   22.6714 C   0  0  0  0  0  0  0  0  0  0  0  0
    7.6489    1.3000   22.4641 C   0  0  0  0  0  0  0  0  0  0  0  0
    8.2578    2.4847   22.0847 C   0  0  0  0  0  0  0  0  0  0  0  0
    7.4947    3.6241   21.8987 C   0  0  0  0  0  0  0  0  0  0  0  0
    6.1357    3.5416   22.0988 C   0  0  0  0  0  0  0  0  0  0  0  0
    5.5196    2.4161   22.4629 N   0  0  0  0  0  0  0  0  0  0  0  0
    6.2777    1.3291   22.6363 C   0  0  0  0  0  0  0  0  0  0  0  0
   10.7440   -1.8694   22.3860 C   0  0  0  0  0  0  0  0  0  0  0  0
   10.7628   -1.7350   23.7683 C   0  0  0  0  0  0  0  0  0  0  0  0
   11.9571   -1.5693   24.4500 C   0  0  0  0  0  0  0  0  0  0  0  0
   13.1510   -1.5455   23.7624 C   0  0  0  0  0  0  0  0  0  0  0  0
   13.1511   -1.6891   22.3919 C   0  0  0  0  0  0  0  0  0  0  0  0
   11.9570   -1.8510   21.7097 C   0  0  0  0  0  0  0  0  0  0  0  0
  1  2  1  0
  2  3  1  0
  3  4  2  0
  3  5  1  0
  5  6  1  0
  6  7  1  0
  7  8  2  0
  8  9  1  0
  9 10  2  0
 10 11  1  0
 11 12  2  0
 12 13  1  0
 13 14  1  0
 14 15  1  0
 15 16  1  0
 16 17  2  0
 17 18  1  0
 18 19  2  0
 19 20  1  0
 20 21  2  0
 13 22  1  0
 22 23  2  0
 23 24  1  0
 24 25  2  0
 25 26  1  0
 26 27  2  0
 14  5  1  0
 21 16  1  0
 27 22  1  0
 12  7  1  0
M  END
