CVD-0003356|dock_bobby27042020.16|mol2|45|dock3
     RDKit          3D

 24 26  0  0  0  0  0  0  0  0999 V2000
    9.6948   -6.2228   27.0274 O   0  0  0  0  0  0  0  0  0  0  0  0
    9.9292   -4.9569   26.4007 C   0  0  0  0  0  0  0  0  0  0  0  0
    8.6965   -4.0795   26.3495 C   0  0  0  0  0  0  0  0  0  0  0  0
    8.9655   -2.7778   25.6282 C   0  0  0  0  0  0  0  0  0  0  0  0
    9.4614   -3.0179   24.2707 N   0  0  0  0  0  0  0  0  0  0  0  0
   10.6932   -3.7959   24.3075 C   0  0  0  0  0  0  0  0  0  0  0  0
   10.4532   -5.1337   24.9809 C   0  0  0  0  0  0  0  0  0  0  0  0
    9.5396   -1.7939   23.4665 C   0  0  0  0  0  0  0  0  0  0  0  0
    9.1163   -2.1113   22.0991 N   0  0  0  0  0  0  0  0  0  0  0  0
    8.6894   -0.9002   21.3793 C   0  0  0  0  0  0  0  0  0  0  0  0
    8.3027   -1.2283   19.9607 C   0  0  0  0  0  0  0  0  0  0  0  0
    7.2497   -2.2483   19.9338 N   0  0  0  0  0  0  0  0  0  0  0  0
    7.6073   -3.4420   20.6979 C   0  0  0  0  0  0  0  0  0  0  0  0
    7.9915   -3.0480   22.1042 C   0  0  0  0  0  0  0  0  0  0  0  0
    6.1265   -2.2149   19.1890 C   0  0  0  0  0  0  0  0  0  0  0  0
    5.2903   -3.1082   19.2355 O   0  0  0  0  0  0  0  0  0  0  0  0
    5.9496   -1.0064   18.2908 C   0  0  0  0  0  0  0  0  0  0  0  0
    5.5468    0.4375   19.2288 Cl  0  0  0  0  0  0  0  0  0  0  0  0
   10.9244   -1.1642   23.4956 C   0  0  0  0  0  0  0  0  0  0  0  0
   11.2854   -0.2950   24.5161 C   0  0  0  0  0  0  0  0  0  0  0  0
   12.5434    0.2835   24.5417 C   0  0  0  0  0  0  0  0  0  0  0  0
   13.4555    0.0021   23.5473 C   0  0  0  0  0  0  0  0  0  0  0  0
   13.1102   -0.8572   22.5263 C   0  0  0  0  0  0  0  0  0  0  0  0
   11.8526   -1.4364   22.4998 C   0  0  0  0  0  0  0  0  0  0  0  0
  1  2  1  0
  2  3  1  0
  3  4  1  0
  4  5  1  0
  5  6  1  0
  6  7  1  0
  5  8  1  0
  8  9  1  0
  9 10  1  0
 10 11  1  0
 11 12  1  0
 12 13  1  0
 13 14  1  0
 12 15  1  0
 15 16  2  0
 15 17  1  0
 17 18  1  0
  8 19  1  0
 19 20  2  0
 20 21  1  0
 21 22  2  0
 22 23  1  0
 23 24  2  0
  7  2  1  0
 14  9  1  0
 24 19  1  0
M  END
