CVD-0001025|dock_bobby27042020.96|mol2|36|dock3
     RDKit          3D

 34 38  0  0  0  0  0  0  0  0999 V2000
    0.9296  -10.6717   25.0390 C   0  0  0  0  0  0  0  0  0  0  0  0
    1.4268   -9.5791   25.8094 O   0  0  0  0  0  0  0  0  0  0  0  0
    2.3112   -8.6876   25.2551 C   0  0  0  0  0  0  0  0  0  0  0  0
    2.3134   -8.4015   23.8971 C   0  0  0  0  0  0  0  0  0  0  0  0
    3.2263   -7.4944   23.3883 C   0  0  0  0  0  0  0  0  0  0  0  0
    4.1450   -6.8618   24.2168 C   0  0  0  0  0  0  0  0  0  0  0  0
    4.1311   -7.1578   25.5739 C   0  0  0  0  0  0  0  0  0  0  0  0
    3.2219   -8.0634   26.0904 C   0  0  0  0  0  0  0  0  0  0  0  0
    5.1124   -5.8984   23.6682 C   0  0  0  0  0  0  0  0  0  0  0  0
    5.1465   -5.4271   22.4560 N   0  0  0  0  0  0  0  0  0  0  0  0
    6.2396   -4.5669   22.4590 C   0  0  0  0  0  0  0  0  0  0  0  0
    6.7987   -3.7633   21.4688 C   0  0  0  0  0  0  0  0  0  0  0  0
    7.9129   -2.9968   21.7731 C   0  0  0  0  0  0  0  0  0  0  0  0
    8.4854   -3.0119   23.0446 C   0  0  0  0  0  0  0  0  0  0  0  0
    9.6234   -2.1961   23.2649 N   0  0  0  0  0  0  0  0  0  0  0  0
   10.6926   -1.9204   22.4775 C   0  0  0  0  0  0  0  0  0  0  0  0
   10.8805   -2.3612   21.3473 O   0  0  0  0  0  0  0  0  0  0  0  0
   11.6866   -0.9805   23.1278 C   0  0  0  0  0  0  0  0  0  0  0  0
   11.1947    0.4603   23.0654 C   0  0  0  0  0  0  0  0  0  0  0  0
   12.2121    1.3975   23.6829 C   0  0  0  0  0  0  0  0  0  0  0  0
   13.4960    1.2592   23.0007 N   0  0  0  0  0  0  0  0  0  0  0  0
   14.0338   -0.0946   23.0803 C   0  0  0  0  0  0  0  0  0  0  0  0
   13.0540   -1.0824   22.4557 C   0  0  0  0  0  0  0  0  0  0  0  0
   14.2813    2.2789   22.5815 C   0  0  0  0  0  0  0  0  0  0  0  0
   15.3477    2.0200   22.0506 O   0  0  0  0  0  0  0  0  0  0  0  0
   13.9478    3.7419   22.7037 C   0  0  0  0  0  0  0  0  0  0  0  0
   13.4868    4.1889   23.9388 C   0  0  0  0  0  0  0  0  0  0  0  0
   13.1739    5.5211   24.1497 C   0  0  0  0  0  0  0  0  0  0  0  0
   13.3121    6.4354   23.1297 C   0  0  0  0  0  0  0  0  0  0  0  0
   13.7488    6.0123   21.8941 C   0  0  0  0  0  0  0  0  0  0  0  0
   14.0508    4.6784   21.6746 C   0  0  0  0  0  0  0  0  0  0  0  0
    7.9233   -3.8179   24.0351 C   0  0  0  0  0  0  0  0  0  0  0  0
    6.8134   -4.5719   23.7061 C   0  0  0  0  0  0  0  0  0  0  0  0
    6.0942   -5.4333   24.5096 O   0  0  0  0  0  0  0  0  0  0  0  0
  1  2  1  0
  2  3  1  0
  3  4  2  0
  4  5  1  0
  5  6  2  0
  6  7  1  0
  7  8  2  0
  6  9  1  0
  9 10  2  0
 10 11  1  0
 11 12  2  0
 12 13  1  0
 13 14  2  0
 14 15  1  0
 15 16  1  0
 16 17  2  0
 16 18  1  0
 18 19  1  0
 19 20  1  0
 20 21  1  0
 21 22  1  0
 22 23  1  0
 21 24  1  0
 24 25  2  0
 24 26  1  0
 26 27  2  0
 27 28  1  0
 28 29  2  0
 29 30  1  0
 30 31  2  0
 14 32  1  0
 32 33  2  0
 33 34  1  0
  8  3  1  0
 34  9  1  0
 33 11  1  0
 23 18  1  0
 31 26  1  0
M  END
