CVD-0000706|dock_bobby27042020.55|mol2|11|dock1
     RDKit          3D

 17 18  0  0  0  0  0  0  0  0999 V2000
    5.6404    1.3811   17.3633 Cl  0  0  0  0  0  0  0  0  0  0  0  0
    6.1142    0.6172   18.8548 C   0  0  0  0  0  0  0  0  0  0  0  0
    5.1940    0.4443   19.8647 C   0  0  0  0  0  0  0  0  0  0  0  0
    5.5192   -0.1366   21.0219 N   0  0  0  0  0  0  0  0  0  0  0  0
    6.7781   -0.5536   21.1814 C   0  0  0  0  0  0  0  0  0  0  0  0
    7.7705   -0.4201   20.2171 C   0  0  0  0  0  0  0  0  0  0  0  0
    9.0689   -0.9061   20.5137 N   0  0  0  0  0  0  0  0  0  0  0  0
    9.7692   -0.9196   21.6981 C   0  0  0  0  0  0  0  0  0  0  0  0
    9.3404   -0.4779   22.7589 O   0  0  0  0  0  0  0  0  0  0  0  0
   11.0105   -1.4919   21.5380 N   0  0  0  0  0  0  0  0  0  0  0  0
   12.0555   -1.7147   22.4703 C   0  0  0  0  0  0  0  0  0  0  0  0
   11.7208   -1.9646   23.7952 C   0  0  0  0  0  0  0  0  0  0  0  0
   12.7201   -2.1855   24.7264 C   0  0  0  0  0  0  0  0  0  0  0  0
   14.0294   -2.1504   24.3072 C   0  0  0  0  0  0  0  0  0  0  0  0
   14.3843   -1.9135   23.0445 N   0  0  0  0  0  0  0  0  0  0  0  0
   13.4121   -1.7013   22.1519 C   0  0  0  0  0  0  0  0  0  0  0  0
    7.4155    0.1881   19.0153 C   0  0  0  0  0  0  0  0  0  0  0  0
  1  2  1  0
  2  3  2  0
  3  4  1  0
  4  5  2  0
  5  6  1  0
  6  7  1  0
  7  8  1  0
  8  9  2  0
  8 10  1  0
 10 11  1  0
 11 12  2  0
 12 13  1  0
 13 14  2  0
 14 15  1  0
 15 16  2  0
  6 17  2  0
 17  2  1  0
 16 11  1  0
M  END
