CVD-0002002|dock_bobby27042020.36|mol2|17|dock3
     RDKit          3D

 19 21  0  0  0  0  0  0  0  0999 V2000
   13.9004   -2.0602   23.5639 C   0  0  0  0  0  0  0  0  0  0  0  0
   12.9705   -1.8703   22.3683 C   0  0  0  0  0  0  0  0  0  0  0  0
   13.7652   -1.9134   21.0771 C   0  0  0  0  0  0  0  0  0  0  0  0
   14.3046   -0.7629   20.7626 O   0  0  0  0  0  0  0  0  0  0  0  0
   13.8831   -2.9156   20.4069 O   0  0  0  0  0  0  0  0  0  0  0  0
   12.2287   -0.5418   22.4304 C   0  0  0  0  0  0  0  0  0  0  0  0
   10.8513   -0.4996   22.2435 C   0  0  0  0  0  0  0  0  0  0  0  0
   10.1476    0.6907   22.2965 C   0  0  0  0  0  0  0  0  0  0  0  0
   10.8418    1.8715   22.5444 C   0  0  0  0  0  0  0  0  0  0  0  0
   12.2376    1.8330   22.7355 C   0  0  0  0  0  0  0  0  0  0  0  0
   12.9328    0.6299   22.6796 C   0  0  0  0  0  0  0  0  0  0  0  0
   12.7145    3.1144   22.9659 N   0  0  0  0  0  0  0  0  0  0  0  0
   11.6674    3.9961   22.9311 C   0  0  0  0  0  0  0  0  0  0  0  0
   11.7202    5.3243   23.1078 N   0  0  0  0  0  0  0  0  0  0  0  0
   10.5272    5.9287   23.0171 C   0  0  0  0  0  0  0  0  0  0  0  0
    9.3653    5.2171   22.7631 C   0  0  0  0  0  0  0  0  0  0  0  0
    7.8516    6.0660   22.6586 Cl  0  0  0  0  0  0  0  0  0  0  0  0
    9.2860    3.9018   22.5844 N   0  0  0  0  0  0  0  0  0  0  0  0
   10.4619    3.2702   22.6692 C   0  0  0  0  0  0  0  0  0  0  0  0
  2  1  1  0
  2  3  1  0
  3  4  1  0
  3  5  2  0
  2  6  1  0
  6  7  2  0
  7  8  1  0
  8  9  2  0
  9 10  1  0
 10 11  2  0
 10 12  1  0
 12 13  1  0
 13 14  2  0
 14 15  1  0
 15 16  2  0
 16 17  1  0
 16 18  1  0
 18 19  2  0
 11  6  1  0
 19 13  1  0
 19  9  1  0
M  END
