CVD-0000543|dock_bobby27042020.84|mol2|3|dock1
     RDKit          3D

 27 29  0  0  0  0  0  0  0  0999 V2000
    6.4998   -0.9894   18.0794 C   0  0  0  0  0  0  0  0  0  0  0  0
    6.2391    0.3122   18.7933 C   0  0  0  0  0  0  0  0  0  0  0  0
    5.1638    1.0919   18.3781 C   0  0  0  0  0  0  0  0  0  0  0  0
    4.8986    2.2844   19.0130 C   0  0  0  0  0  0  0  0  0  0  0  0
    5.6279    2.7453   20.0249 N   0  0  0  0  0  0  0  0  0  0  0  0
    6.6629    2.0045   20.4333 C   0  0  0  0  0  0  0  0  0  0  0  0
    7.0234    0.7822   19.8647 C   0  0  0  0  0  0  0  0  0  0  0  0
    8.1232   -0.0132   20.2939 N   0  0  0  0  0  0  0  0  0  0  0  0
    8.5765   -0.2666   21.5666 C   0  0  0  0  0  0  0  0  0  0  0  0
    8.0907    0.1684   22.6063 O   0  0  0  0  0  0  0  0  0  0  0  0
    9.6586   -1.0781   21.5653 N   0  0  0  0  0  0  0  0  0  0  0  0
   10.2908   -1.4844   22.7936 C   0  0  0  0  0  0  0  0  0  0  0  0
   10.8360   -0.2375   23.5340 C   0  0  0  0  0  0  0  0  0  0  0  0
   12.2793   -0.3074   23.5057 C   0  0  0  0  0  0  0  0  0  0  0  0
   12.7201   -1.5448   22.8770 C   0  0  0  0  0  0  0  0  0  0  0  0
   11.5227   -2.3635   22.5465 C   0  0  0  0  0  0  0  0  0  0  0  0
    9.3235   -2.1235   23.6075 O   0  0  0  0  0  0  0  0  0  0  0  0
    8.5132   -3.1888   23.1586 C   0  0  0  0  0  0  0  0  0  0  0  0
    7.3760   -2.9624   22.4002 C   0  0  0  0  0  0  0  0  0  0  0  0
    6.6055   -4.0295   21.9738 C   0  0  0  0  0  0  0  0  0  0  0  0
    6.9777   -5.3197   22.3131 C   0  0  0  0  0  0  0  0  0  0  0  0
    8.1135   -5.5514   23.0709 C   0  0  0  0  0  0  0  0  0  0  0  0
    8.8807   -4.4805   23.4936 C   0  0  0  0  0  0  0  0  0  0  0  0
    5.9987   -6.6853   21.7645 S   0  0  0  0  0  0  0  0  0  0  0  0
    4.5867   -6.6602   22.8022 C   0  0  0  0  0  0  0  0  0  0  0  0
    5.5764   -6.4244   20.4174 O   0  0  0  0  0  0  0  0  0  0  0  0
    6.7286   -7.8946   22.0207 O   0  0  0  0  0  0  0  0  0  0  0  0
  1  2  1  0
  2  3  2  0
  3  4  1  0
  4  5  2  0
  5  6  1  0
  6  7  2  0
  7  8  1  0
  8  9  1  0
  9 10  2  0
  9 11  1  0
 11 12  1  0
 12 13  1  0
 13 14  1  0
 14 15  1  0
 15 16  1  0
 12 17  1  0
 17 18  1  0
 18 19  2  0
 19 20  1  0
 20 21  2  0
 21 22  1  0
 22 23  2  0
 21 24  1  0
 24 25  1  0
 24 26  2  0
 24 27  2  0
  7  2  1  0
 16 12  1  0
 23 18  1  0
M  END
