CVD-0002411|dock_bobby27042020.34|mol2|25|dock3
     RDKit          3D

 26 29  0  0  0  0  0  0  0  0999 V2000
   11.2628   -4.0904   24.9204 F   0  0  0  0  0  0  0  0  0  0  0  0
   10.1825   -4.3119   24.1376 C   0  0  0  0  0  0  0  0  0  0  0  0
    9.7574   -3.3289   23.2851 C   0  0  0  0  0  0  0  0  0  0  0  0
    8.6217   -3.5322   22.5004 C   0  0  0  0  0  0  0  0  0  0  0  0
    8.2034   -2.4362   21.6087 C   0  0  0  0  0  0  0  0  0  0  0  0
    8.8810   -1.4290   21.4957 O   0  0  0  0  0  0  0  0  0  0  0  0
    7.0316   -2.6217   20.8707 N   0  0  0  0  0  0  0  0  0  0  0  0
    6.2590   -3.7731   20.8914 C   0  0  0  0  0  0  0  0  0  0  0  0
    5.2258   -3.8792   20.2577 O   0  0  0  0  0  0  0  0  0  0  0  0
    6.6936   -4.9794   21.7009 C   0  0  0  0  0  0  0  0  0  0  0  0
    5.4976   -5.3988   22.5486 C   0  0  0  0  0  0  0  0  0  0  0  0
    4.9778   -4.5471   23.5133 C   0  0  0  0  0  0  0  0  0  0  0  0
    3.8896   -4.9273   24.2809 C   0  0  0  0  0  0  0  0  0  0  0  0
    3.3073   -6.1625   24.0930 C   0  0  0  0  0  0  0  0  0  0  0  0
    3.8123   -7.0180   23.1375 C   0  0  0  0  0  0  0  0  0  0  0  0
    4.9005   -6.6388   22.3694 C   0  0  0  0  0  0  0  0  0  0  0  0
    7.9098   -4.7333   22.5748 C   0  0  0  0  0  0  0  0  0  0  0  0
    8.3781   -5.7070   23.4562 C   0  0  0  0  0  0  0  0  0  0  0  0
    9.5011   -5.5073   24.2328 C   0  0  0  0  0  0  0  0  0  0  0  0
   10.0390   -6.7531   25.3107 Cl  0  0  0  0  0  0  0  0  0  0  0  0
    6.5730   -1.5219   20.0406 C   0  0  0  0  0  0  0  0  0  0  0  0
    6.1324   -1.7478   18.7409 C   0  0  0  0  0  0  0  0  0  0  0  0
    5.6954   -0.6973   17.9512 C   0  0  0  0  0  0  0  0  0  0  0  0
    5.6912    0.5889   18.4438 C   0  0  0  0  0  0  0  0  0  0  0  0
    6.1251    0.8272   19.7290 C   0  0  0  0  0  0  0  0  0  0  0  0
    6.5639   -0.2178   20.5248 C   0  0  0  0  0  0  0  0  0  0  0  0
  1  2  1  0
  2  3  2  0
  3  4  1  0
  4  5  1  0
  5  6  2  0
  5  7  1  0
  7  8  1  0
  8  9  2  0
  8 10  1  0
 10 11  1  0
 11 12  2  0
 12 13  1  0
 13 14  2  0
 14 15  1  0
 15 16  2  0
 10 17  1  0
 17 18  1  0
 18 19  2  0
 19 20  1  0
  7 21  1  0
 21 22  2  0
 22 23  1  0
 23 24  2  0
 24 25  1  0
 25 26  2  0
 19  2  1  0
 26 21  1  0
 17  4  2  0
 16 11  1  0
M  END
