CVD-0003490|dock_bobby27042020.2|mol2|1|dock2
     RDKit          3D

 23 25  0  0  0  0  0  0  0  0999 V2000
   -1.1151    1.9514   21.0378 Cl  0  0  0  0  0  0  0  0  0  0  0  0
    0.4689    2.2804   20.3232 C   0  0  0  0  0  0  0  0  0  0  0  0
    1.5775    1.9725   21.3109 C   0  0  0  0  0  0  0  0  0  0  0  0
    1.3322    1.5704   22.4413 O   0  0  0  0  0  0  0  0  0  0  0  0
    2.8420    2.1688   20.8849 N   0  0  0  0  0  0  0  0  0  0  0  0
    4.0126    1.9124   21.7269 C   0  0  0  0  0  0  0  0  0  0  0  0
    4.9758    0.9742   21.0237 C   0  0  0  0  0  0  0  0  0  0  0  0
    5.3914    1.5435   19.7385 N   0  0  0  0  0  0  0  0  0  0  0  0
    6.3515    0.6608   19.0741 C   0  0  0  0  0  0  0  0  0  0  0  0
    7.5130    0.3195   19.9528 C   0  0  0  0  0  0  0  0  0  0  0  0
    7.8916   -0.8761   20.4860 C   0  0  0  0  0  0  0  0  0  0  0  0
    8.9988   -0.6084   21.1972 N   0  0  0  0  0  0  0  0  0  0  0  0
    9.8473   -1.5287   21.9622 C   0  0  0  0  0  0  0  0  0  0  0  0
   11.2009   -0.9344   22.2691 C   0  0  0  0  0  0  0  0  0  0  0  0
   12.3455   -1.4300   21.6643 C   0  0  0  0  0  0  0  0  0  0  0  0
   13.5868   -0.8828   21.9434 C   0  0  0  0  0  0  0  0  0  0  0  0
   13.6970    0.1670   22.8297 C   0  0  0  0  0  0  0  0  0  0  0  0
   12.5664    0.6698   23.4368 C   0  0  0  0  0  0  0  0  0  0  0  0
   11.3252    0.1225   23.1576 C   0  0  0  0  0  0  0  0  0  0  0  0
    9.3222    0.6920   21.1040 N   0  0  0  0  0  0  0  0  0  0  0  0
    8.4063    1.2614   20.3522 N   0  0  0  0  0  0  0  0  0  0  0  0
    4.2116    1.7392   18.9001 C   0  0  0  0  0  0  0  0  0  0  0  0
    3.2283    2.6836   19.5675 C   0  0  0  0  0  0  0  0  0  0  0  0
  1  2  1  0
  2  3  1  0
  3  4  2  0
  3  5  1  0
  5  6  1  0
  6  7  1  0
  7  8  1  0
  8  9  1  0
  9 10  1  0
 10 11  2  0
 11 12  1  0
 12 13  1  0
 13 14  1  0
 14 15  2  0
 15 16  1  0
 16 17  2  0
 17 18  1  0
 18 19  2  0
 12 20  1  0
 20 21  2  0
  8 22  1  0
 22 23  1  0
 23  5  1  0
 21 10  1  0
 19 14  1  0
M  END
