CVD-0001711|dock_bobby27042020.51|mol2|33|dock2
     RDKit          3D

 28 30  0  0  0  0  0  0  0  0999 V2000
    8.2165   -3.4114   20.1123 O   0  0  0  0  0  0  0  0  0  0  0  0
    8.0162   -2.5258   20.9345 C   0  0  0  0  0  0  0  0  0  0  0  0
    6.9251   -1.5023   20.7525 C   0  0  0  0  0  0  0  0  0  0  0  0
    7.0016   -0.8012   19.3986 C   0  0  0  0  0  0  0  0  0  0  0  0
    6.3647    0.5911   19.3816 C   0  0  0  0  0  0  0  0  0  0  0  0
    4.9522    0.6616   19.9956 C   0  0  0  0  0  0  0  0  0  0  0  0
    4.1610    1.5964   19.0900 C   0  0  0  0  0  0  0  0  0  0  0  0
    4.9424    1.6086   17.8680 N   0  0  0  0  0  0  0  0  0  0  0  0
    6.1810    1.1231   17.9843 C   0  0  0  0  0  0  0  0  0  0  0  0
    7.0151    1.0832   17.0841 O   0  0  0  0  0  0  0  0  0  0  0  0
    8.8944   -2.4344   22.2026 C   0  0  0  0  0  0  0  0  0  0  0  0
    8.3929   -2.4724   23.3253 O   0  0  0  0  0  0  0  0  0  0  0  0
   10.2018   -2.3147   21.9772 N   0  0  0  0  0  0  0  0  0  0  0  0
   11.1683   -2.2167   23.0610 C   0  0  0  0  0  0  0  0  0  0  0  0
   12.1178   -1.0526   22.9107 C   0  0  0  0  0  0  0  0  0  0  0  0
   13.2831   -1.1795   22.1726 C   0  0  0  0  0  0  0  0  0  0  0  0
   14.1557   -0.1127   22.0511 C   0  0  0  0  0  0  0  0  0  0  0  0
   13.8684    1.0939   22.6662 C   0  0  0  0  0  0  0  0  0  0  0  0
   12.6923    1.2563   23.3929 C   0  0  0  0  0  0  0  0  0  0  0  0
   11.8373    0.1658   23.5162 C   0  0  0  0  0  0  0  0  0  0  0  0
   12.3009    2.5360   24.0769 C   0  0  0  0  0  0  0  0  0  0  0  0
   12.1585    2.4576   25.2851 O   0  0  0  0  0  0  0  0  0  0  0  0
   12.0999    3.7229   23.4525 N   0  0  0  0  0  0  0  0  0  0  0  0
   11.7476    4.9799   24.1167 C   0  0  0  0  0  0  0  0  0  0  0  0
   12.9426    5.8870   24.2642 C   0  0  0  0  0  0  0  0  0  0  0  0
   13.6797    6.3369   22.6715 S   0  0  0  0  0  0  0  0  0  0  0  0
   13.8366    4.6726   21.9957 C   0  0  0  0  0  0  0  0  0  0  0  0
   12.5613    3.8745   22.0686 C   0  0  0  0  0  0  0  0  0  0  0  0
  1  2  2  0
  2  3  1  0
  3  4  1  0
  5  4  1  0
  5  6  1  0
  6  7  1  0
  7  8  1  0
  8  9  1  0
  9 10  2  0
  2 11  1  0
 11 12  2  0
 11 13  1  0
 13 14  1  0
 14 15  1  0
 15 16  2  0
 16 17  1  0
 17 18  2  0
 18 19  1  0
 19 20  2  0
 19 21  1  0
 21 22  2  0
 21 23  1  0
 23 24  1  0
 24 25  1  0
 25 26  1  0
 26 27  1  0
 27 28  1  0
  9  5  1  0
 20 15  1  0
 28 23  1  0
M  END
