CVD-0003740|dock_bobby27042020.1|mol2|9|dock3
     RDKit          3D

 20 21  0  0  0  0  0  0  0  0999 V2000
   14.0412    5.1244   22.4210 Cl  0  0  0  0  0  0  0  0  0  0  0  0
   13.3114    3.5479   22.5412 C   0  0  0  0  0  0  0  0  0  0  0  0
   11.9536    3.4486   22.7526 C   0  0  0  0  0  0  0  0  0  0  0  0
   11.3717    2.1970   22.8479 C   0  0  0  0  0  0  0  0  0  0  0  0
   12.1616    1.0652   22.7280 C   0  0  0  0  0  0  0  0  0  0  0  0
   13.5266    1.1742   22.5176 C   0  0  0  0  0  0  0  0  0  0  0  0
   14.1046    2.4277   22.4229 C   0  0  0  0  0  0  0  0  0  0  0  0
   11.4246   -0.5286   22.8550 S   0  0  0  0  0  0  0  0  0  0  0  0
   10.5893   -0.5444   24.0166 O   0  0  0  0  0  0  0  0  0  0  0  0
   12.4537   -1.5114   22.7032 O   0  0  0  0  0  0  0  0  0  0  0  0
   10.4328   -0.6762   21.5546 N   0  0  0  0  0  0  0  0  0  0  0  0
    9.1497   -0.1427   21.4982 C   0  0  0  0  0  0  0  0  0  0  0  0
    8.6919    0.4750   22.4551 O   0  0  0  0  0  0  0  0  0  0  0  0
    8.5004   -0.3796   20.3110 N   0  0  0  0  0  0  0  0  0  0  0  0
    7.2045   -0.0073   19.8739 C   0  0  0  0  0  0  0  0  0  0  0  0
    7.0476    0.3537   18.5404 C   0  0  0  0  0  0  0  0  0  0  0  0
    5.8064    0.7272   18.0535 C   0  0  0  0  0  0  0  0  0  0  0  0
    4.7104    0.7453   18.8871 C   0  0  0  0  0  0  0  0  0  0  0  0
    4.8534    0.3897   20.2104 C   0  0  0  0  0  0  0  0  0  0  0  0
    6.0899    0.0142   20.7093 C   0  0  0  0  0  0  0  0  0  0  0  0
  1  2  1  0
  2  3  2  0
  3  4  1  0
  4  5  2  0
  5  6  1  0
  6  7  2  0
  5  8  1  0
  8  9  2  0
  8 10  2  0
  8 11  1  0
 11 12  1  0
 12 13  2  0
 12 14  1  0
 14 15  1  0
 15 16  2  0
 16 17  1  0
 17 18  2  0
 18 19  1  0
 19 20  2  0
  7  2  1  0
 20 15  1  0
M  END
