CVD-0000199|dock_bobby27042020.99|mol2|23|dock1
     RDKit          3D

 22 26  0  0  0  0  0  0  0  0999 V2000
    8.6168   -1.3780   22.3036 C   0  0  0  0  0  0  0  0  0  0  0  0
    9.6694   -2.2870   22.9254 C   0  0  0  0  0  0  0  0  0  0  0  0
   11.0781   -1.7131   23.1933 C   0  0  0  0  0  0  0  0  0  0  0  0
   10.9492   -0.3381   23.8409 C   0  0  0  0  0  0  0  0  0  0  0  0
   12.3551    0.2284   24.0996 C   0  0  0  0  0  0  0  0  0  0  0  0
   13.0981    0.3505   22.7737 C   0  0  0  0  0  0  0  0  0  0  0  0
   13.2207   -1.0255   22.1283 C   0  0  0  0  0  0  0  0  0  0  0  0
   13.9803   -1.9607   23.0614 C   0  0  0  0  0  0  0  0  0  0  0  0
   13.2349   -2.0865   24.3831 C   0  0  0  0  0  0  0  0  0  0  0  0
   13.1121   -0.7117   25.0350 C   0  0  0  0  0  0  0  0  0  0  0  0
   11.8312   -2.6591   24.1243 C   0  0  0  0  0  0  0  0  0  0  0  0
   11.8180   -1.5978   21.8628 C   0  0  0  0  0  0  0  0  0  0  0  0
    7.2173   -2.2631   21.5598 S   0  0  0  0  0  0  0  0  0  0  0  0
    6.5160   -1.0424   20.5262 C   0  0  0  0  0  0  0  0  0  0  0  0
    7.0629   -0.7923   19.3035 N   0  0  0  0  0  0  0  0  0  0  0  0
    6.2787    0.1714   18.8284 C   0  0  0  0  0  0  0  0  0  0  0  0
    6.3421    0.8157   17.6488 N   0  0  0  0  0  0  0  0  0  0  0  0
    5.4150    1.7391   17.4514 C   0  0  0  0  0  0  0  0  0  0  0  0
    4.4089    2.0696   18.3699 C   0  0  0  0  0  0  0  0  0  0  0  0
    4.3576    1.4157   19.5481 C   0  0  0  0  0  0  0  0  0  0  0  0
    5.3135    0.4617   19.7550 N   0  0  0  0  0  0  0  0  0  0  0  0
    5.4594   -0.3234   20.8655 N   0  0  0  0  0  0  0  0  0  0  0  0
  1  2  1  0
  2  3  1  0
  3  4  1  0
  4  5  1  0
  5  6  1  0
  6  7  1  0
  7  8  1  0
  8  9  1  0
  9 10  1  0
  9 11  1  0
  7 12  1  0
  1 13  1  0
 13 14  1  0
 14 15  1  0
 15 16  2  0
 16 17  1  0
 17 18  2  0
 18 19  1  0
 19 20  2  0
 20 21  1  0
 21 22  1  0
 11  3  1  0
 22 14  2  0
 12  3  1  0
 21 16  1  0
 10  5  1  0
M  END
