CVD-0003303|dock_bobby27042020.74|mol2|19|dock3
     RDKit          3D

 16 17  0  0  0  0  0  0  0  0999 V2000
    9.0546   -0.1814   22.4811 O   0  0  0  0  0  0  0  0  0  0  0  0
    9.5573   -0.7927   21.5442 C   0  0  0  0  0  0  0  0  0  0  0  0
   10.8469   -1.5692   21.7218 C   0  0  0  0  0  0  0  0  0  0  0  0
   11.5818   -1.1830   22.9856 C   0  0  0  0  0  0  0  0  0  0  0  0
   12.0169   -2.1519   23.8763 C   0  0  0  0  0  0  0  0  0  0  0  0
   12.6929   -1.7986   25.0322 C   0  0  0  0  0  0  0  0  0  0  0  0
   12.9423   -0.4718   25.3101 C   0  0  0  0  0  0  0  0  0  0  0  0
   12.5163    0.5013   24.4320 C   0  0  0  0  0  0  0  0  0  0  0  0
   11.8403    0.1477   23.2762 C   0  0  0  0  0  0  0  0  0  0  0  0
    9.0511   -0.8617   20.2891 N   0  0  0  0  0  0  0  0  0  0  0  0
    7.8822   -0.2947   19.7238 C   0  0  0  0  0  0  0  0  0  0  0  0
    6.7946    0.1471   20.4704 C   0  0  0  0  0  0  0  0  0  0  0  0
    5.6998    0.6863   19.8170 C   0  0  0  0  0  0  0  0  0  0  0  0
    5.7206    0.7694   18.4439 C   0  0  0  0  0  0  0  0  0  0  0  0
    6.7478    0.3549   17.7024 N   0  0  0  0  0  0  0  0  0  0  0  0
    7.7996   -0.1641   18.3424 C   0  0  0  0  0  0  0  0  0  0  0  0
  1  2  2  0
  2  3  1  0
  3  4  1  0
  4  5  2  0
  5  6  1  0
  6  7  2  0
  7  8  1  0
  8  9  2  0
  2 10  1  0
 10 11  1  0
 11 12  2  0
 12 13  1  0
 13 14  2  0
 14 15  1  0
 15 16  2  0
  9  4  1  0
 16 11  1  0
M  END
