CVD-0003736|dock_bobby27042020.72|mol2|47|dock2
     RDKit          3D

 26 28  0  0  0  0  0  0  0  0999 V2000
   15.1334   -2.4117   24.9786 O   0  0  0  0  0  0  0  0  0  0  0  0
   13.8369   -2.0936   24.4650 C   0  0  0  0  0  0  0  0  0  0  0  0
   12.9965   -1.3429   25.4797 C   0  0  0  0  0  0  0  0  0  0  0  0
   11.6181   -0.9588   24.9354 C   0  0  0  0  0  0  0  0  0  0  0  0
   11.7829   -0.1434   23.6568 C   0  0  0  0  0  0  0  0  0  0  0  0
   12.5681   -0.9166   22.6091 C   0  0  0  0  0  0  0  0  0  0  0  0
   13.9416   -1.2906   23.1778 C   0  0  0  0  0  0  0  0  0  0  0  0
   10.4499    0.3023   23.1129 N   0  0  0  0  0  0  0  0  0  0  0  0
   10.0985    1.6013   22.7245 C   0  0  0  0  0  0  0  0  0  0  0  0
    8.9839    1.7935   22.2699 O   0  0  0  0  0  0  0  0  0  0  0  0
   10.9713    2.8204   22.8007 C   0  0  0  0  0  0  0  0  0  0  0  0
   12.2866    2.7225   22.3586 C   0  0  0  0  0  0  0  0  0  0  0  0
   13.1346    3.8162   22.4006 C   0  0  0  0  0  0  0  0  0  0  0  0
   12.6821    5.0261   22.8797 C   0  0  0  0  0  0  0  0  0  0  0  0
   11.3784    5.1443   23.3093 C   0  0  0  0  0  0  0  0  0  0  0  0
   10.5253    4.0540   23.2644 C   0  0  0  0  0  0  0  0  0  0  0  0
    9.2737   -0.8775   22.9159 S   0  0  0  0  0  0  0  0  0  0  0  0
    8.4375   -0.8502   24.0768 O   0  0  0  0  0  0  0  0  0  0  0  0
    9.9164   -2.1112   22.5839 O   0  0  0  0  0  0  0  0  0  0  0  0
    8.3134   -0.3939   21.5224 C   0  0  0  0  0  0  0  0  0  0  0  0
    8.7831   -0.6498   20.2444 C   0  0  0  0  0  0  0  0  0  0  0  0
    8.0281   -0.2663   19.1503 C   0  0  0  0  0  0  0  0  0  0  0  0
    6.8203    0.3655   19.3510 C   0  0  0  0  0  0  0  0  0  0  0  0
    5.8719    0.8468   17.9722 Cl  0  0  0  0  0  0  0  0  0  0  0  0
    6.3463    0.6249   20.6183 C   0  0  0  0  0  0  0  0  0  0  0  0
    7.0982    0.2430   21.7151 C   0  0  0  0  0  0  0  0  0  0  0  0
  1  2  1  0
  2  3  1  0
  3  4  1  0
  4  5  1  0
  5  6  1  0
  6  7  1  0
  5  8  1  0
  8  9  1  0
  9 10  2  0
  9 11  1  0
 11 12  2  0
 12 13  1  0
 13 14  2  0
 14 15  1  0
 15 16  2  0
  8 17  1  0
 17 18  2  0
 17 19  2  0
 17 20  1  0
 20 21  2  0
 21 22  1  0
 22 23  2  0
 23 24  1  0
 23 25  1  0
 25 26  2  0
  7  2  1  0
 16 11  1  0
 26 20  1  0
M  END
