CVD-0003755|dock_bobby27042020.72|mol2|44|dock2
     RDKit          3D

 23 26  0  0  0  0  0  0  0  0999 V2000
    8.4357    3.6134   22.1577 C   0  0  0  0  0  0  0  0  0  0  0  0
    9.7852    4.0562   22.6582 C   0  0  0  0  0  0  0  0  0  0  0  0
   10.0299    5.3856   23.0009 C   0  0  0  0  0  0  0  0  0  0  0  0
   11.2814    5.7644   23.4550 C   0  0  0  0  0  0  0  0  0  0  0  0
   12.3133    4.9200   23.5951 N   0  0  0  0  0  0  0  0  0  0  0  0
   12.0582    3.6448   23.2586 C   0  0  0  0  0  0  0  0  0  0  0  0
   12.9058    2.5720   23.2954 N   0  0  0  0  0  0  0  0  0  0  0  0
   12.2008    1.4976   22.8673 C   0  0  0  0  0  0  0  0  0  0  0  0
   12.7925    0.1185   22.7591 C   0  0  0  0  0  0  0  0  0  0  0  0
   12.0295   -0.9983   23.5145 C   0  0  0  0  0  0  0  0  0  0  0  0
   12.0078   -0.6593   25.0045 C   0  0  0  0  0  0  0  0  0  0  0  0
   13.4017   -0.7212   25.6038 C   0  0  0  0  0  0  0  0  0  0  0  0
   14.0538   -2.0669   25.3619 C   0  0  0  0  0  0  0  0  0  0  0  0
   14.0863   -2.4014   23.8797 C   0  0  0  0  0  0  0  0  0  0  0  0
   12.6938   -2.3493   23.2704 C   0  0  0  0  0  0  0  0  0  0  0  0
   10.6636   -0.9144   22.8180 C   0  0  0  0  0  0  0  0  0  0  0  0
    9.5070   -0.5005   23.4728 C   0  0  0  0  0  0  0  0  0  0  0  0
    8.3022   -0.4558   22.7935 C   0  0  0  0  0  0  0  0  0  0  0  0
    8.2817   -0.8214   21.4677 C   0  0  0  0  0  0  0  0  0  0  0  0
    9.3704   -1.2140   20.8068 N   0  0  0  0  0  0  0  0  0  0  0  0
   10.5220   -1.2499   21.4840 C   0  0  0  0  0  0  0  0  0  0  0  0
   10.9549    1.7985   22.5496 N   0  0  0  0  0  0  0  0  0  0  0  0
   10.8520    3.1594   22.7964 C   0  0  0  0  0  0  0  0  0  0  0  0
  1  2  1  0
  2  3  2  0
  3  4  1  0
  4  5  2  0
  5  6  1  0
  6  7  1  0
  7  8  1  0
  8  9  1  0
  9 10  1  0
 10 11  1  0
 11 12  1  0
 12 13  1  0
 13 14  1  0
 14 15  1  0
 10 16  1  0
 16 17  2  0
 17 18  1  0
 18 19  2  0
 19 20  1  0
 20 21  2  0
  8 22  2  0
 22 23  1  0
 23  2  1  0
 23  6  2  0
 15 10  1  0
 21 16  1  0
M  END
