CVD-0002429|dock_bobby27042020.77|mol2|22|dock1
     RDKit          3D

 21 23  0  0  0  0  0  0  0  0999 V2000
   13.8381   -0.7660   26.2336 O   0  0  0  0  0  0  0  0  0  0  0  0
   14.0480   -1.8682   25.3342 S   0  0  0  0  0  0  0  0  0  0  0  0
   14.9234   -2.9314   25.7477 O   0  0  0  0  0  0  0  0  0  0  0  0
   12.4647   -2.5347   24.6642 C   0  0  0  0  0  0  0  0  0  0  0  0
   12.9158   -2.0079   23.2351 C   0  0  0  0  0  0  0  0  0  0  0  0
   14.2892   -1.3799   23.5843 C   0  0  0  0  0  0  0  0  0  0  0  0
   12.0028   -1.0517   22.6758 O   0  0  0  0  0  0  0  0  0  0  0  0
   10.7187   -1.5269   22.2438 C   0  0  0  0  0  0  0  0  0  0  0  0
    9.8100   -0.4411   21.7311 C   0  0  0  0  0  0  0  0  0  0  0  0
    8.4904   -1.0064   21.2858 C   0  0  0  0  0  0  0  0  0  0  0  0
    7.6136    0.0719   20.8269 N   0  0  0  0  0  0  0  0  0  0  0  0
    6.3150   -0.4566   20.3853 C   0  0  0  0  0  0  0  0  0  0  0  0
    5.4147    0.5971   19.7863 C   0  0  0  0  0  0  0  0  0  0  0  0
    5.7044    1.1577   18.5520 C   0  0  0  0  0  0  0  0  0  0  0  0
    4.8771    2.1219   18.0009 C   0  0  0  0  0  0  0  0  0  0  0  0
    3.7500    2.5358   18.6778 C   0  0  0  0  0  0  0  0  0  0  0  0
    3.4499    1.9852   19.9054 C   0  0  0  0  0  0  0  0  0  0  0  0
    4.2775    1.0211   20.4562 C   0  0  0  0  0  0  0  0  0  0  0  0
    7.4504    1.0396   21.9089 C   0  0  0  0  0  0  0  0  0  0  0  0
    8.7936    1.5602   22.3485 C   0  0  0  0  0  0  0  0  0  0  0  0
    9.6484    0.5111   22.7695 O   0  0  0  0  0  0  0  0  0  0  0  0
  1  2  2  0
  2  3  2  0
  2  4  1  0
  4  5  1  0
  5  6  1  0
  5  7  1  0
  7  8  1  0
  8  9  1  0
  9 10  1  0
 10 11  1  0
 11 12  1  0
 12 13  1  0
 13 14  2  0
 14 15  1  0
 15 16  2  0
 16 17  1  0
 17 18  2  0
 11 19  1  0
 19 20  1  0
 20 21  1  0
  6  2  1  0
 21  9  1  0
 18 13  1  0
M  END
