CVD-0002704|dock_bobby27042020.90|mol2|25|dock2
     RDKit          3D

 24 26  0  0  0  0  0  0  0  0999 V2000
    6.3786   -5.5090   21.1612 C   0  0  0  0  0  0  0  0  0  0  0  0
    6.5041   -4.0185   21.2803 C   0  0  0  0  0  0  0  0  0  0  0  0
    5.7512   -3.2539   20.6852 O   0  0  0  0  0  0  0  0  0  0  0  0
    7.4928   -3.5726   22.0578 N   0  0  0  0  0  0  0  0  0  0  0  0
    7.7538   -2.1545   22.2597 C   0  0  0  0  0  0  0  0  0  0  0  0
    8.5680   -1.5651   21.1245 C   0  0  0  0  0  0  0  0  0  0  0  0
    9.0658   -0.1779   21.4097 C   0  0  0  0  0  0  0  0  0  0  0  0
    8.4169    0.9843   21.1161 C   0  0  0  0  0  0  0  0  0  0  0  0
    9.1624    2.0618   21.5052 N   0  0  0  0  0  0  0  0  0  0  0  0
   10.3324    1.6132   22.0676 C   0  0  0  0  0  0  0  0  0  0  0  0
   11.4159    2.3399   22.5981 C   0  0  0  0  0  0  0  0  0  0  0  0
   12.4676    1.5938   23.1345 C   0  0  0  0  0  0  0  0  0  0  0  0
   12.4722    0.2018   23.1283 C   0  0  0  0  0  0  0  0  0  0  0  0
   13.5862   -0.5254   23.6783 C   0  0  0  0  0  0  0  0  0  0  0  0
   14.4566   -1.0985   24.1461 N   0  0  0  0  0  0  0  0  0  0  0  0
   11.3750   -0.4705   22.5809 C   0  0  0  0  0  0  0  0  0  0  0  0
   11.3890   -2.1945   22.6016 Cl  0  0  0  0  0  0  0  0  0  0  0  0
   10.2928    0.2059   22.0351 C   0  0  0  0  0  0  0  0  0  0  0  0
   11.4774    3.8212   22.6129 C   0  0  0  0  0  0  0  0  0  0  0  0
   10.3022    4.5362   22.8093 N   0  0  0  0  0  0  0  0  0  0  0  0
   10.6556    5.7691   22.7834 C   0  0  0  0  0  0  0  0  0  0  0  0
   11.9799    5.9720   22.5836 O   0  0  0  0  0  0  0  0  0  0  0  0
   12.5009    4.7221   22.4666 C   0  0  0  0  0  0  0  0  0  0  0  0
   13.9680    4.6866   22.2185 C   0  0  0  0  0  0  0  0  0  0  0  0
  1  2  1  0
  2  3  2  0
  2  4  1  0
  4  5  1  0
  5  6  1  0
  6  7  1  0
  7  8  2  0
  8  9  1  0
  9 10  1  0
 10 11  2  0
 11 12  1  0
 12 13  2  0
 13 14  1  0
 14 15  3  0
 13 16  1  0
 16 17  1  0
 16 18  2  0
 11 19  1  0
 19 20  1  0
 20 21  2  0
 21 22  1  0
 22 23  1  0
 23 24  1  0
 18  7  1  0
 23 19  2  0
 18 10  1  0
M  END
