CVD-0001008|dock_bobby27042020.39|mol2|34|dock3
     RDKit          3D

 33 37  0  0  0  0  0  0  0  0999 V2000
   14.2783    6.4110   21.8029 C   0  0  0  0  0  0  0  0  0  0  0  0
   12.9201    6.1569   22.1565 O   0  0  0  0  0  0  0  0  0  0  0  0
   12.4832    4.8692   22.3435 C   0  0  0  0  0  0  0  0  0  0  0  0
   13.3556    3.7899   22.3491 C   0  0  0  0  0  0  0  0  0  0  0  0
   12.8639    2.5107   22.5419 C   0  0  0  0  0  0  0  0  0  0  0  0
   11.5056    2.2868   22.7307 C   0  0  0  0  0  0  0  0  0  0  0  0
   10.6442    3.3765   22.7226 C   0  0  0  0  0  0  0  0  0  0  0  0
   11.1277    4.6582   22.5306 C   0  0  0  0  0  0  0  0  0  0  0  0
   10.9905    0.9237   22.9350 C   0  0  0  0  0  0  0  0  0  0  0  0
   10.6610    0.0652   22.0144 N   0  0  0  0  0  0  0  0  0  0  0  0
   10.2414   -1.0517   22.7294 C   0  0  0  0  0  0  0  0  0  0  0  0
    9.7669   -2.2975   22.3266 C   0  0  0  0  0  0  0  0  0  0  0  0
    9.4162   -3.2296   23.2915 C   0  0  0  0  0  0  0  0  0  0  0  0
    9.5272   -2.9623   24.6584 C   0  0  0  0  0  0  0  0  0  0  0  0
   10.0062   -1.7087   25.0478 C   0  0  0  0  0  0  0  0  0  0  0  0
   10.3470   -0.7917   24.0729 C   0  0  0  0  0  0  0  0  0  0  0  0
   10.8327    0.4906   24.2297 O   0  0  0  0  0  0  0  0  0  0  0  0
    9.1482   -3.9781   25.6782 C   0  0  0  0  0  0  0  0  0  0  0  0
    8.0325   -3.8168   26.4932 C   0  0  0  0  0  0  0  0  0  0  0  0
    7.7003   -4.7695   27.4391 C   0  0  0  0  0  0  0  0  0  0  0  0
    8.5126   -5.8953   27.5688 C   0  0  0  0  0  0  0  0  0  0  0  0
    8.3248   -6.9505   28.4801 N   0  0  0  0  0  0  0  0  0  0  0  0
    7.3081   -7.3233   29.3050 C   0  0  0  0  0  0  0  0  0  0  0  0
    6.2718   -6.6667   29.3447 O   0  0  0  0  0  0  0  0  0  0  0  0
    7.3929   -8.5389   30.1844 C   0  0  0  0  0  0  0  0  0  0  0  0
    6.6863   -8.5513   31.3824 C   0  0  0  0  0  0  0  0  0  0  0  0
    6.7241   -9.6466   32.2269 C   0  0  0  0  0  0  0  0  0  0  0  0
    7.4729  -10.7287   31.8547 C   0  0  0  0  0  0  0  0  0  0  0  0
    7.5190  -11.8066   32.6834 F   0  0  0  0  0  0  0  0  0  0  0  0
    8.1770  -10.7713   30.6830 C   0  0  0  0  0  0  0  0  0  0  0  0
    8.1277   -9.6713   29.8453 C   0  0  0  0  0  0  0  0  0  0  0  0
    9.5762   -6.0827   26.7821 N   0  0  0  0  0  0  0  0  0  0  0  0
    9.8783   -5.1431   25.8791 C   0  0  0  0  0  0  0  0  0  0  0  0
  1  2  1  0
  2  3  1  0
  3  4  2  0
  4  5  1  0
  5  6  2  0
  6  7  1  0
  7  8  2  0
  6  9  1  0
  9 10  2  0
 10 11  1  0
 11 12  2  0
 12 13  1  0
 13 14  2  0
 14 15  1  0
 15 16  2  0
 16 17  1  0
 14 18  1  0
 18 19  2  0
 19 20  1  0
 20 21  2  0
 21 22  1  0
 22 23  1  0
 23 24  2  0
 23 25  1  0
 25 26  2  0
 26 27  1  0
 27 28  2  0
 28 29  1  0
 28 30  1  0
 30 31  2  0
 21 32  1  0
 32 33  2  0
  8  3  1  0
 17  9  1  0
 33 18  1  0
 16 11  1  0
 31 25  1  0
M  END
