CVD-0003206|dock_bobby27042020.74|mol2|33|dock3
     RDKit          3D

 19 21  0  0  0  0  0  0  0  0999 V2000
    9.8785   -0.5597   20.6329 O   0  0  0  0  0  0  0  0  0  0  0  0
    9.1933   -1.4401   21.1427 C   0  0  0  0  0  0  0  0  0  0  0  0
    7.7893   -1.6234   20.7760 C   0  0  0  0  0  0  0  0  0  0  0  0
    7.0927   -2.6479   21.3414 C   0  0  0  0  0  0  0  0  0  0  0  0
    7.6414   -3.4926   22.2381 N   0  0  0  0  0  0  0  0  0  0  0  0
    8.9261   -3.3522   22.6248 C   0  0  0  0  0  0  0  0  0  0  0  0
    9.7352   -2.3704   22.1349 C   0  0  0  0  0  0  0  0  0  0  0  0
   11.1403   -2.2714   22.6118 C   0  0  0  0  0  0  0  0  0  0  0  0
   12.1765   -1.8826   21.7653 C   0  0  0  0  0  0  0  0  0  0  0  0
   13.4602   -1.7819   22.2744 C   0  0  0  0  0  0  0  0  0  0  0  0
   13.6998   -2.0759   23.5972 C   0  0  0  0  0  0  0  0  0  0  0  0
   12.6308   -2.4674   24.3666 C   0  0  0  0  0  0  0  0  0  0  0  0
   11.3799   -2.5709   23.9000 N   0  0  0  0  0  0  0  0  0  0  0  0
    7.0867   -0.7372   19.8027 C   0  0  0  0  0  0  0  0  0  0  0  0
    5.8368   -0.2114   20.1182 C   0  0  0  0  0  0  0  0  0  0  0  0
    5.1697    0.6027   19.2200 C   0  0  0  0  0  0  0  0  0  0  0  0
    5.7641    0.8701   18.0101 C   0  0  0  0  0  0  0  0  0  0  0  0
    6.9583    0.3881   17.6691 N   0  0  0  0  0  0  0  0  0  0  0  0
    7.6001   -0.3737   18.5605 C   0  0  0  0  0  0  0  0  0  0  0  0
  1  2  2  0
  2  3  1  0
  3  4  2  0
  4  5  1  0
  5  6  1  0
  6  7  2  0
  7  8  1  0
  8  9  2  0
  9 10  1  0
 10 11  2  0
 11 12  1  0
 12 13  2  0
  3 14  1  0
 14 15  2  0
 15 16  1  0
 16 17  2  0
 17 18  1  0
 18 19  2  0
  7  2  1  0
 13  8  1  0
 19 14  1  0
M  END
