CVD-0002460|dock_bobby27042020.34|mol2|18|dock3
     RDKit          3D

 26 28  0  0  0  0  0  0  0  0999 V2000
    9.0228   -0.9716   20.8400 C   0  0  0  0  0  0  0  0  0  0  0  0
   10.4050   -1.1090   21.4256 C   0  0  0  0  0  0  0  0  0  0  0  0
   10.4662   -0.6172   22.8150 N   0  0  0  0  0  0  0  0  0  0  0  0
   10.3729   -1.3836   23.9436 C   0  0  0  0  0  0  0  0  0  0  0  0
   10.1823   -2.8627   23.9530 C   0  0  0  0  0  0  0  0  0  0  0  0
    9.6715   -3.3425   25.2391 N   0  0  0  0  0  0  0  0  0  0  0  0
    9.8097   -4.7999   25.3448 C   0  0  0  0  0  0  0  0  0  0  0  0
    9.3370   -5.3141   26.6904 C   0  0  0  0  0  0  0  0  0  0  0  0
    7.8986   -4.9173   26.9998 C   0  0  0  0  0  0  0  0  0  0  0  0
    7.4688   -5.2793   28.3149 O   0  0  0  0  0  0  0  0  0  0  0  0
    7.7572   -3.4145   26.7844 C   0  0  0  0  0  0  0  0  0  0  0  0
    8.2645   -2.9754   25.4209 C   0  0  0  0  0  0  0  0  0  0  0  0
   10.4865   -0.6364   25.0257 N   0  0  0  0  0  0  0  0  0  0  0  0
   10.6517    0.6406   24.5647 C   0  0  0  0  0  0  0  0  0  0  0  0
   10.6383    0.7177   23.1961 C   0  0  0  0  0  0  0  0  0  0  0  0
   10.7811    1.9092   22.3716 C   0  0  0  0  0  0  0  0  0  0  0  0
   10.3679    1.9133   21.2186 O   0  0  0  0  0  0  0  0  0  0  0  0
   11.4590    3.1552   22.9030 C   0  0  0  0  0  0  0  0  0  0  0  0
   10.5333    3.9098   23.6803 O   0  0  0  0  0  0  0  0  0  0  0  0
   10.9565    4.9725   24.4411 C   0  0  0  0  0  0  0  0  0  0  0  0
   10.1527    5.4013   25.4830 C   0  0  0  0  0  0  0  0  0  0  0  0
   10.5510    6.4690   26.2674 C   0  0  0  0  0  0  0  0  0  0  0  0
   11.7480    7.1269   26.0362 C   0  0  0  0  0  0  0  0  0  0  0  0
   12.1725    8.2945   26.8933 C   0  0  0  0  0  0  0  0  0  0  0  0
   12.5406    6.6831   24.9902 C   0  0  0  0  0  0  0  0  0  0  0  0
   12.1600    5.6161   24.1955 C   0  0  0  0  0  0  0  0  0  0  0  0
  1  2  1  0
  2  3  1  0
  3  4  1  0
  4  5  1  0
  5  6  1  0
  6  7  1  0
  7  8  1  0
  8  9  1  0
  9 10  1  0
  9 11  1  0
 11 12  1  0
  4 13  2  0
 13 14  1  0
 14 15  2  0
 15 16  1  0
 16 17  2  0
 16 18  1  0
 18 19  1  0
 19 20  1  0
 20 21  2  0
 21 22  1  0
 22 23  2  0
 23 24  1  0
 23 25  1  0
 25 26  2  0
 15  3  1  0
 26 20  1  0
 12  6  1  0
M  END
