CVD-0003531|dock_bobby27042020.16|mol2|20|dock3
     RDKit          3D

 23 26  0  0  0  0  0  0  0  0999 V2000
   11.4408   -4.9484   24.8457 O   0  0  0  0  0  0  0  0  0  0  0  0
   10.3237   -4.5568   25.5119 C   0  0  0  0  0  0  0  0  0  0  0  0
    9.9413   -5.2199   26.6715 C   0  0  0  0  0  0  0  0  0  0  0  0
    8.8016   -4.8199   27.3492 C   0  0  0  0  0  0  0  0  0  0  0  0
    8.0491   -3.7670   26.8731 C   0  0  0  0  0  0  0  0  0  0  0  0
    8.4307   -3.1064   25.7170 C   0  0  0  0  0  0  0  0  0  0  0  0
    9.5727   -3.4886   25.0190 C   0  0  0  0  0  0  0  0  0  0  0  0
    9.9801   -2.7651   23.7568 C   0  0  0  0  0  0  0  0  0  0  0  0
   10.9844   -1.7157   23.9856 N   0  0  0  0  0  0  0  0  0  0  0  0
   10.4347   -0.6721   24.8505 C   0  0  0  0  0  0  0  0  0  0  0  0
   11.4977    0.3530   25.2034 C   0  0  0  0  0  0  0  0  0  0  0  0
   12.0870    0.9250   23.9839 N   0  0  0  0  0  0  0  0  0  0  0  0
   12.5190   -0.0727   22.9949 C   0  0  0  0  0  0  0  0  0  0  0  0
   11.4130   -1.0821   22.7374 C   0  0  0  0  0  0  0  0  0  0  0  0
   12.4134    2.2258   23.8771 C   0  0  0  0  0  0  0  0  0  0  0  0
   11.9118    3.1757   24.6399 N   0  0  0  0  0  0  0  0  0  0  0  0
   12.5253    4.3375   24.1787 C   0  0  0  0  0  0  0  0  0  0  0  0
   12.3894    5.6593   24.6013 C   0  0  0  0  0  0  0  0  0  0  0  0
   13.1281    6.6438   23.9621 C   0  0  0  0  0  0  0  0  0  0  0  0
   13.9858    6.3333   22.9246 C   0  0  0  0  0  0  0  0  0  0  0  0
   14.1330    5.0250   22.4920 C   0  0  0  0  0  0  0  0  0  0  0  0
   13.3934    4.0374   23.1317 C   0  0  0  0  0  0  0  0  0  0  0  0
   13.3040    2.6706   22.9561 N   0  0  0  0  0  0  0  0  0  0  0  0
  1  2  1  0
  2  3  2  0
  3  4  1  0
  4  5  2  0
  5  6  1  0
  6  7  2  0
  7  8  1  0
  8  9  1  0
  9 10  1  0
 10 11  1  0
 11 12  1  0
 12 13  1  0
 13 14  1  0
 12 15  1  0
 15 16  2  0
 16 17  1  0
 17 18  2  0
 18 19  1  0
 19 20  2  0
 20 21  1  0
 21 22  2  0
 22 23  1  0
  7  2  1  0
 14  9  1  0
 23 15  1  0
 22 17  1  0
M  END
