CVD-0002059|dock_bobby27042020.50|mol2|25|dock3
     RDKit          3D

 34 37  0  0  0  0  0  0  0  0999 V2000
    5.4503   -5.9383   22.0677 C   0  0  0  0  0  0  0  0  0  0  0  0
    6.3280   -5.1502   21.1465 C   0  0  0  0  0  0  0  0  0  0  0  0
    6.3838   -3.7505   21.5331 N   0  0  0  0  0  0  0  0  0  0  0  0
    6.2628   -2.7227   20.6497 C   0  0  0  0  0  0  0  0  0  0  0  0
    6.7153   -1.4488   20.9893 C   0  0  0  0  0  0  0  0  0  0  0  0
    6.5755   -0.4209   20.0596 C   0  0  0  0  0  0  0  0  0  0  0  0
    7.0108    0.8504   20.3573 N   0  0  0  0  0  0  0  0  0  0  0  0
    7.0442    1.4125   21.6940 C   0  0  0  0  0  0  0  0  0  0  0  0
    8.4364    1.6262   22.2270 C   0  0  0  0  0  0  0  0  0  0  0  0
    9.2013    2.7940   22.0554 C   0  0  0  0  0  0  0  0  0  0  0  0
   10.4301    2.6458   22.6698 C   0  0  0  0  0  0  0  0  0  0  0  0
   11.5116    3.6597   22.6993 C   0  0  0  0  0  0  0  0  0  0  0  0
   12.7416    3.2880   22.1533 C   0  0  0  0  0  0  0  0  0  0  0  0
   13.7927    4.1870   22.0865 C   0  0  0  0  0  0  0  0  0  0  0  0
   13.6440    5.4694   22.5656 C   0  0  0  0  0  0  0  0  0  0  0  0
   12.4501    5.8557   23.1476 C   0  0  0  0  0  0  0  0  0  0  0  0
   11.4280    4.9399   23.2293 C   0  0  0  0  0  0  0  0  0  0  0  0
   10.3104    5.3321   23.8784 F   0  0  0  0  0  0  0  0  0  0  0  0
   10.4191    1.3533   23.2618 N   0  0  0  0  0  0  0  0  0  0  0  0
    9.2022    0.7459   22.9779 C   0  0  0  0  0  0  0  0  0  0  0  0
   11.5608    0.5205   24.2006 S   0  0  0  0  0  0  0  0  0  0  0  0
   10.7934   -0.3693   25.0155 O   0  0  0  0  0  0  0  0  0  0  0  0
   12.4036    1.4896   24.8287 O   0  0  0  0  0  0  0  0  0  0  0  0
   12.4960   -0.4643   23.0809 C   0  0  0  0  0  0  0  0  0  0  0  0
   11.8660   -1.1442   22.0527 C   0  0  0  0  0  0  0  0  0  0  0  0
   12.6400   -1.9037   21.1925 C   0  0  0  0  0  0  0  0  0  0  0  0
   14.0011   -1.9513   21.3932 C   0  0  0  0  0  0  0  0  0  0  0  0
   14.6213   -1.3004   22.3784 N   0  0  0  0  0  0  0  0  0  0  0  0
   13.8684   -0.5688   23.2050 C   0  0  0  0  0  0  0  0  0  0  0  0
    5.9806   -0.7183   18.8189 C   0  0  0  0  0  0  0  0  0  0  0  0
    5.5609   -2.0327   18.5801 C   0  0  0  0  0  0  0  0  0  0  0  0
    5.6985   -3.0155   19.4750 N   0  0  0  0  0  0  0  0  0  0  0  0
    5.7933    0.2809   17.7986 C   0  0  0  0  0  0  0  0  0  0  0  0
    5.6719    1.0906   17.0021 N   0  0  0  0  0  0  0  0  0  0  0  0
  1  2  1  0
  2  3  1  0
  3  4  1  0
  4  5  2  0
  5  6  1  0
  6  7  1  0
  7  8  1  0
  8  9  1  0
  9 10  1  0
 10 11  2  0
 11 12  1  0
 12 13  2  0
 13 14  1  0
 14 15  2  0
 15 16  1  0
 16 17  2  0
 17 18  1  0
 11 19  1  0
 19 20  1  0
 19 21  1  0
 21 22  2  0
 21 23  2  0
 21 24  1  0
 24 25  2  0
 25 26  1  0
 26 27  2  0
 27 28  1  0
 28 29  2  0
  6 30  2  0
 30 31  1  0
 31 32  2  0
 30 33  1  0
 33 34  3  0
 32  4  1  0
 20  9  2  0
 29 24  1  0
 17 12  1  0
M  END
