CVD-0001405|dock_bobby27042020.38|mol2|16|dock3
     RDKit          3D

 18 19  0  0  0  0  0  0  0  0999 V2000
    5.4792   -1.5322   17.9339 Cl  0  0  0  0  0  0  0  0  0  0  0  0
    5.7354   -0.1873   19.0532 C   0  0  0  0  0  0  0  0  0  0  0  0
    7.0740   -0.2784   19.7524 C   0  0  0  0  0  0  0  0  0  0  0  0
    7.9333    0.5764   19.5653 O   0  0  0  0  0  0  0  0  0  0  0  0
    7.1873   -1.3556   20.5671 N   0  0  0  0  0  0  0  0  0  0  0  0
    8.2492   -1.7994   21.3942 C   0  0  0  0  0  0  0  0  0  0  0  0
    8.0691   -2.9874   22.0922 C   0  0  0  0  0  0  0  0  0  0  0  0
    9.0676   -3.4752   22.9165 C   0  0  0  0  0  0  0  0  0  0  0  0
   10.2573   -2.7834   23.0539 C   0  0  0  0  0  0  0  0  0  0  0  0
   10.4467   -1.5956   22.3612 C   0  0  0  0  0  0  0  0  0  0  0  0
    9.4477   -1.0999   21.5309 C   0  0  0  0  0  0  0  0  0  0  0  0
   11.6782   -0.8514   22.4857 N   0  0  0  0  0  0  0  0  0  0  0  0
   11.8176    0.5471   22.9414 C   0  0  0  0  0  0  0  0  0  0  0  0
   13.0088    0.5099   23.9033 C   0  0  0  0  0  0  0  0  0  0  0  0
   14.0861   -0.3060   23.2037 C   0  0  0  0  0  0  0  0  0  0  0  0
   13.1796   -1.5121   22.2404 S   0  0  0  0  0  0  0  0  0  0  0  0
   13.2411   -2.7936   22.8683 O   0  0  0  0  0  0  0  0  0  0  0  0
   13.5482   -1.4351   20.8626 O   0  0  0  0  0  0  0  0  0  0  0  0
  1  2  1  0
  2  3  1  0
  3  4  2  0
  3  5  1  0
  5  6  1  0
  6  7  2  0
  7  8  1  0
  8  9  2  0
  9 10  1  0
 10 11  2  0
 10 12  1  0
 12 13  1  0
 13 14  1  0
 14 15  1  0
 15 16  1  0
 16 17  2  0
 16 18  2  0
 11  6  1  0
 16 12  1  0
M  END
