CVD-0001366|dock_bobby27042020.95|mol2|32|dock1
     RDKit          3D

 45 49  0  0  0  0  0  0  0  0999 V2000
    9.9227    0.0931   21.2640 O   0  0  0  0  0  0  0  0  0  0  0  0
   10.2751   -0.6663   22.1614 C   0  0  0  0  0  0  0  0  0  0  0  0
   11.7233   -0.8164   22.5616 C   0  0  0  0  0  0  0  0  0  0  0  0
   12.1516    0.1631   23.6525 C   0  0  0  0  0  0  0  0  0  0  0  0
   12.2267    1.5910   23.1672 C   0  0  0  0  0  0  0  0  0  0  0  0
   13.4371    2.1519   22.7981 C   0  0  0  0  0  0  0  0  0  0  0  0
   13.4927    3.4595   22.3524 C   0  0  0  0  0  0  0  0  0  0  0  0
   12.3375    4.2179   22.2682 C   0  0  0  0  0  0  0  0  0  0  0  0
   11.1038    3.6840   22.6405 C   0  0  0  0  0  0  0  0  0  0  0  0
   11.0752    2.3640   23.0883 C   0  0  0  0  0  0  0  0  0  0  0  0
    9.8468    4.4579   22.5751 C   0  0  0  0  0  0  0  0  0  0  0  0
    9.7560    5.7776   22.9314 C   0  0  0  0  0  0  0  0  0  0  0  0
    8.5239    6.4457   22.8411 C   0  0  0  0  0  0  0  0  0  0  0  0
    7.4010    5.8060   22.4031 C   0  0  0  0  0  0  0  0  0  0  0  0
    7.4555    4.4297   22.0214 C   0  0  0  0  0  0  0  0  0  0  0  0
    6.4953    3.7627   21.6103 O   0  0  0  0  0  0  0  0  0  0  0  0
    8.6961    3.8325   22.1329 N   0  0  0  0  0  0  0  0  0  0  0  0
    9.4093   -1.4163   22.8467 N   0  0  0  0  0  0  0  0  0  0  0  0
    7.9823   -1.3817   22.5720 C   0  0  0  0  0  0  0  0  0  0  0  0
    7.7354   -1.8071   21.1208 C   0  0  0  0  0  0  0  0  0  0  0  0
    7.1947   -0.7266   20.1716 C   0  0  0  0  0  0  0  0  0  0  0  0
    5.8173   -0.1551   20.5626 C   0  0  0  0  0  0  0  0  0  0  0  0
    5.0562    0.0045   19.2529 C   0  0  0  0  0  0  0  0  0  0  0  0
    5.7852   -0.8578   18.3425 N   0  0  0  0  0  0  0  0  0  0  0  0
    6.9907   -1.2410   18.7704 C   0  0  0  0  0  0  0  0  0  0  0  0
    7.7824   -1.9332   18.1360 O   0  0  0  0  0  0  0  0  0  0  0  0
    7.2939   -2.3093   23.5731 C   0  0  0  0  0  0  0  0  0  0  0  0
    6.6024   -1.8192   24.4491 O   0  0  0  0  0  0  0  0  0  0  0  0
    7.5044   -3.8294   23.4225 C   0  0  0  0  0  0  0  0  0  0  0  0
    8.6471   -4.2290   23.6133 O   0  0  0  0  0  0  0  0  0  0  0  0
    6.5115   -4.6855   23.1018 N   0  0  0  0  0  0  0  0  0  0  0  0
    5.1678   -4.1896   22.8532 C   0  0  0  0  0  0  0  0  0  0  0  0
    4.1696   -4.9303   23.6863 C   0  0  0  0  0  0  0  0  0  0  0  0
    4.2998   -6.3704   23.4224 N   0  0  0  0  0  0  0  0  0  0  0  0
    5.6426   -6.8672   23.7573 C   0  0  0  0  0  0  0  0  0  0  0  0
    6.6560   -6.1343   22.9290 C   0  0  0  0  0  0  0  0  0  0  0  0
    3.0165   -7.3113   23.7770 S   0  0  0  0  0  0  0  0  0  0  0  0
    2.3296   -6.6702   24.8549 O   0  0  0  0  0  0  0  0  0  0  0  0
    3.5195   -8.6396   23.9427 O   0  0  0  0  0  0  0  0  0  0  0  0
    1.9578   -7.2999   22.3717 C   0  0  0  0  0  0  0  0  0  0  0  0
    1.0072   -6.3008   22.2392 C   0  0  0  0  0  0  0  0  0  0  0  0
    0.1819   -6.2978   21.1272 C   0  0  0  0  0  0  0  0  0  0  0  0
    0.3056   -7.2759   20.1635 C   0  0  0  0  0  0  0  0  0  0  0  0
    1.2555   -8.2653   20.3023 C   0  0  0  0  0  0  0  0  0  0  0  0
    2.0904   -8.2856   21.4072 C   0  0  0  0  0  0  0  0  0  0  0  0
  1  2  2  0
  2  3  1  0
  3  4  1  0
  4  5  1  0
  5  6  2  0
  6  7  1  0
  7  8  2  0
  8  9  1  0
  9 10  2  0
  9 11  1  0
 11 12  2  0
 12 13  1  0
 13 14  2  0
 14 15  1  0
 15 16  2  0
 15 17  1  0
  2 18  1  0
 18 19  1  0
 19 20  1  0
 21 20  1  0
 21 22  1  0
 22 23  1  0
 23 24  1  0
 24 25  1  0
 25 26  2  0
 19 27  1  0
 27 28  2  0
 27 29  1  0
 29 30  2  0
 29 31  1  0
 31 32  1  0
 32 33  1  0
 33 34  1  0
 34 35  1  0
 35 36  1  0
 34 37  1  0
 37 38  2  0
 37 39  2  0
 37 40  1  0
 40 41  2  0
 41 42  1  0
 42 43  2  0
 43 44  1  0
 44 45  2  0
 10  5  1  0
 17 11  1  0
 25 21  1  0
 36 31  1  0
 45 40  1  0
M  END
