CVD-0003202|dock_bobby27042020.31|mol2|35|dock1
     RDKit          3D

 22 23  0  0  0  0  0  0  0  0999 V2000
   13.8610    4.3664   21.9747 C   0  0  0  0  0  0  0  0  0  0  0  0
   12.4498    4.1036   22.4863 C   0  0  0  0  0  0  0  0  0  0  0  0
   12.3268    4.6757   23.8307 N   0  0  0  0  0  0  0  0  0  0  0  0
   12.7340    5.9230   24.0897 C   0  0  0  0  0  0  0  0  0  0  0  0
   12.5728    6.3876   25.5073 C   0  0  0  0  0  0  0  0  0  0  0  0
   13.2247    6.6402   23.2233 O   0  0  0  0  0  0  0  0  0  0  0  0
   12.1477    2.6164   22.5097 C   0  0  0  0  0  0  0  0  0  0  0  0
   13.1241    1.7148   22.9286 C   0  0  0  0  0  0  0  0  0  0  0  0
   12.8590    0.3586   22.9506 C   0  0  0  0  0  0  0  0  0  0  0  0
   14.1046   -0.7365   23.4814 Cl  0  0  0  0  0  0  0  0  0  0  0  0
   11.6365   -0.1543   22.5645 C   0  0  0  0  0  0  0  0  0  0  0  0
   10.6343    0.7146   22.1380 C   0  0  0  0  0  0  0  0  0  0  0  0
    9.2855    0.5482   21.6773 C   0  0  0  0  0  0  0  0  0  0  0  0
    8.5508   -0.7520   21.5294 C   0  0  0  0  0  0  0  0  0  0  0  0
    7.0671   -0.5690   21.2804 C   0  0  0  0  0  0  0  0  0  0  0  0
    6.7961   -0.1127   19.9247 N   0  0  0  0  0  0  0  0  0  0  0  0
    5.5921    0.3110   19.5352 C   0  0  0  0  0  0  0  0  0  0  0  0
    5.4813    0.7660   18.1097 C   0  0  0  0  0  0  0  0  0  0  0  0
    4.6352    0.3412   20.3027 O   0  0  0  0  0  0  0  0  0  0  0  0
    8.8167    1.8003   21.4057 C   0  0  0  0  0  0  0  0  0  0  0  0
    9.7791    2.7384   21.6646 N   0  0  0  0  0  0  0  0  0  0  0  0
   10.9049    2.0950   22.1161 C   0  0  0  0  0  0  0  0  0  0  0  0
  1  2  1  0
  2  3  1  0
  3  4  1  0
  4  5  1  0
  4  6  2  0
  2  7  1  0
  7  8  2  0
  8  9  1  0
  9 10  1  0
  9 11  2  0
 11 12  1  0
 12 13  1  0
 13 14  1  0
 14 15  1  0
 15 16  1  0
 16 17  1  0
 17 18  1  0
 17 19  2  0
 13 20  2  0
 20 21  1  0
 21 22  1  0
 22  7  1  0
 22 12  2  0
M  END
