CVD-0000949|dock_bobby27042020.97|mol2|3|dock3
     RDKit          3D

 19 22  0  0  0  0  0  0  0  0999 V2000
    8.7892    1.0775   20.2080 O   0  0  0  0  0  0  0  0  0  0  0  0
    8.6527   -0.0527   20.6380 C   0  0  0  0  0  0  0  0  0  0  0  0
    9.4235   -0.5133   21.9055 C   0  0  0  0  0  0  0  0  0  0  0  0
    9.1890   -1.9602   22.2427 C   0  0  0  0  0  0  0  0  0  0  0  0
    9.8548   -2.7081   23.2380 C   0  0  0  0  0  0  0  0  0  0  0  0
    9.3045   -3.9358   23.4869 C   0  0  0  0  0  0  0  0  0  0  0  0
    7.9249   -4.2018   22.4785 S   0  0  0  0  0  0  0  0  0  0  0  0
    8.1173   -2.6399   21.7335 C   0  0  0  0  0  0  0  0  0  0  0  0
    7.3407   -2.2023   20.5945 C   0  0  0  0  0  0  0  0  0  0  0  0
    6.3434   -2.9883   20.0167 C   0  0  0  0  0  0  0  0  0  0  0  0
    5.6460   -2.5311   18.9116 C   0  0  0  0  0  0  0  0  0  0  0  0
    5.9311   -1.2955   18.3730 C   0  0  0  0  0  0  0  0  0  0  0  0
    6.9174   -0.5006   18.9324 C   0  0  0  0  0  0  0  0  0  0  0  0
    7.6305   -0.9447   20.0459 C   0  0  0  0  0  0  0  0  0  0  0  0
    9.6999   -4.9626   24.4418 C   0  0  0  0  0  0  0  0  0  0  0  0
   10.7156   -4.9971   25.2304 N   0  0  0  0  0  0  0  0  0  0  0  0
   10.6236   -6.1945   25.9265 N   0  0  0  0  0  0  0  0  0  0  0  0
    9.5724   -6.7687   25.5004 C   0  0  0  0  0  0  0  0  0  0  0  0
    8.9142   -6.0600   24.5505 O   0  0  0  0  0  0  0  0  0  0  0  0
  1  2  2  0
  2  3  1  0
  3  4  1  0
  4  5  1  0
  5  6  2  0
  6  7  1  0
  7  8  1  0
  8  9  1  0
  9 10  2  0
 10 11  1  0
 11 12  2  0
 12 13  1  0
 13 14  2  0
  6 15  1  0
 15 16  2  0
 16 17  1  0
 17 18  2  0
 18 19  1  0
 14  2  1  0
 19 15  1  0
  8  4  2  0
 14  9  1  0
M  END
