CVD-0003313|dock_bobby27042020.31|mol2|19|dock1
     RDKit          3D

 24 26  0  0  0  0  0  0  0  0999 V2000
    5.5510   -0.1846   18.1271 C   0  0  0  0  0  0  0  0  0  0  0  0
    5.4378   -0.0629   19.5395 O   0  0  0  0  0  0  0  0  0  0  0  0
    6.4011   -0.8239   20.2745 C   0  0  0  0  0  0  0  0  0  0  0  0
    7.8449   -0.4233   19.9970 C   0  0  0  0  0  0  0  0  0  0  0  0
    8.8352   -1.1491   20.8864 C   0  0  0  0  0  0  0  0  0  0  0  0
    8.5377   -0.9492   22.3098 N   0  0  0  0  0  0  0  0  0  0  0  0
    9.5403   -1.6174   23.1523 C   0  0  0  0  0  0  0  0  0  0  0  0
   10.9297   -1.0480   22.9880 C   0  0  0  0  0  0  0  0  0  0  0  0
   12.0414   -1.8822   22.9487 C   0  0  0  0  0  0  0  0  0  0  0  0
   13.2917   -1.3279   22.8012 C   0  0  0  0  0  0  0  0  0  0  0  0
   14.3611   -2.1679   22.7652 F   0  0  0  0  0  0  0  0  0  0  0  0
   13.5288    0.0225   22.6878 C   0  0  0  0  0  0  0  0  0  0  0  0
   12.4306    0.8809   22.7256 C   0  0  0  0  0  0  0  0  0  0  0  0
   12.2611    2.3035   22.6437 C   0  0  0  0  0  0  0  0  0  0  0  0
   13.3528    3.3319   22.4777 C   0  0  0  0  0  0  0  0  0  0  0  0
   12.8550    4.6767   22.6706 N   0  0  0  0  0  0  0  0  0  0  0  0
   12.8770    5.2598   23.8707 C   0  0  0  0  0  0  0  0  0  0  0  0
   12.3489    6.6629   23.9331 C   0  0  0  0  0  0  0  0  0  0  0  0
   13.3177    4.6872   24.8625 O   0  0  0  0  0  0  0  0  0  0  0  0
   10.9213    2.5387   22.7454 C   0  0  0  0  0  0  0  0  0  0  0  0
   10.2396    1.3602   22.8855 N   0  0  0  0  0  0  0  0  0  0  0  0
   11.1457    0.3283   22.8758 C   0  0  0  0  0  0  0  0  0  0  0  0
    7.1890   -1.4450   22.5965 C   0  0  0  0  0  0  0  0  0  0  0  0
    6.1483   -0.7042   21.7734 C   0  0  0  0  0  0  0  0  0  0  0  0
  1  2  1  0
  2  3  1  0
  3  4  1  0
  4  5  1  0
  5  6  1  0
  6  7  1  0
  7  8  1  0
  8  9  2  0
  9 10  1  0
 10 11  1  0
 10 12  2  0
 12 13  1  0
 13 14  1  0
 14 15  1  0
 15 16  1  0
 16 17  1  0
 17 18  1  0
 17 19  2  0
 14 20  2  0
 20 21  1  0
 21 22  1  0
  6 23  1  0
 23 24  1  0
 24  3  1  0
 22  8  1  0
 22 13  2  0
M  END
