CVD-0002264|dock_bobby27042020.78|mol2|7|dock3
     RDKit          3D

 25 27  0  0  0  0  0  0  0  0999 V2000
    8.8063    6.1841   23.1169 F   0  0  0  0  0  0  0  0  0  0  0  0
   10.0245    6.1188   23.7331 C   0  0  0  0  0  0  0  0  0  0  0  0
   10.3850    6.7766   24.8179 C   0  0  0  0  0  0  0  0  0  0  0  0
   11.7297    6.6324   25.4291 C   0  0  0  0  0  0  0  0  0  0  0  0
   12.6909    6.0063   24.4336 C   0  0  0  0  0  0  0  0  0  0  0  0
   12.1470    4.8281   23.7701 N   0  0  0  0  0  0  0  0  0  0  0  0
   13.1396    4.1712   22.9158 C   0  0  0  0  0  0  0  0  0  0  0  0
   12.8036    2.7360   22.6408 C   0  0  0  0  0  0  0  0  0  0  0  0
   11.7644    2.3988   21.9539 N   0  0  0  0  0  0  0  0  0  0  0  0
   11.6315    1.0194   21.8076 N   0  0  0  0  0  0  0  0  0  0  0  0
   12.5962    0.3964   22.3979 C   0  0  0  0  0  0  0  0  0  0  0  0
   13.7584    1.3913   23.1938 S   0  0  0  0  0  0  0  0  0  0  0  0
   12.7073   -1.3794   22.3979 S   0  0  0  0  0  0  0  0  0  0  0  0
   13.7711   -1.6911   21.4945 O   0  0  0  0  0  0  0  0  0  0  0  0
   12.7797   -1.7531   23.7763 O   0  0  0  0  0  0  0  0  0  0  0  0
   11.3403   -1.9676   21.7881 N   0  0  0  0  0  0  0  0  0  0  0  0
   10.3057   -2.4561   22.7075 C   0  0  0  0  0  0  0  0  0  0  0  0
    9.4440   -1.3086   23.2028 C   0  0  0  0  0  0  0  0  0  0  0  0
    8.3574   -0.9301   22.2257 C   0  0  0  0  0  0  0  0  0  0  0  0
    7.0199   -1.0823   22.5576 C   0  0  0  0  0  0  0  0  0  0  0  0
    6.0228   -0.7379   21.6604 C   0  0  0  0  0  0  0  0  0  0  0  0
    6.3512   -0.2376   20.4190 C   0  0  0  0  0  0  0  0  0  0  0  0
    7.6767   -0.0821   20.0752 C   0  0  0  0  0  0  0  0  0  0  0  0
    8.6731   -0.4268   20.9731 C   0  0  0  0  0  0  0  0  0  0  0  0
   10.9446    5.1940   23.0240 C   0  0  0  0  0  0  0  0  0  0  0  0
  1  2  1  0
  2  3  2  0
  3  4  1  0
  4  5  1  0
  5  6  1  0
  6  7  1  0
  7  8  1  0
  8  9  2  0
  9 10  1  0
 10 11  2  0
 11 12  1  0
 11 13  1  0
 13 14  2  0
 13 15  2  0
 13 16  1  0
 16 17  1  0
 17 18  1  0
 18 19  1  0
 19 20  2  0
 20 21  1  0
 21 22  2  0
 22 23  1  0
 23 24  2  0
  6 25  1  0
 25  2  1  0
 12  8  1  0
 24 19  1  0
M  END
