CVD-0001973|dock_bobby27042020.50|mol2|38|dock1
     RDKit          3D

 17 18  0  0  0  0  0  0  0  0999 V2000
   10.5056   -0.5015   21.3153 O   0  0  0  0  0  0  0  0  0  0  0  0
   11.5065   -0.5612   22.2322 C   0  0  0  0  0  0  0  0  0  0  0  0
   12.2095   -1.7456   22.3811 C   0  0  0  0  0  0  0  0  0  0  0  0
   13.2189   -1.8191   23.3195 C   0  0  0  0  0  0  0  0  0  0  0  0
   14.0992   -3.3107   23.5011 Cl  0  0  0  0  0  0  0  0  0  0  0  0
   13.5465   -0.7432   24.1154 C   0  0  0  0  0  0  0  0  0  0  0  0
   12.8509    0.4434   23.9679 C   0  0  0  0  0  0  0  0  0  0  0  0
   11.8359    0.5453   23.0261 C   0  0  0  0  0  0  0  0  0  0  0  0
   11.1289    1.7357   22.8625 O   0  0  0  0  0  0  0  0  0  0  0  0
   11.7803    2.9660   22.7820 C   0  0  0  0  0  0  0  0  0  0  0  0
   13.1184    3.0794   22.4202 C   0  0  0  0  0  0  0  0  0  0  0  0
   13.7261    4.3211   22.3541 C   0  0  0  0  0  0  0  0  0  0  0  0
   12.9946    5.4498   22.6520 C   0  0  0  0  0  0  0  0  0  0  0  0
   13.7614    7.0110   22.5677 Cl  0  0  0  0  0  0  0  0  0  0  0  0
   11.6666    5.3706   23.0162 C   0  0  0  0  0  0  0  0  0  0  0  0
   11.0702    4.1259   23.0784 C   0  0  0  0  0  0  0  0  0  0  0  0
    9.4020    4.0158   23.5357 Cl  0  0  0  0  0  0  0  0  0  0  0  0
  1  2  1  0
  2  3  2  0
  3  4  1  0
  4  5  1  0
  4  6  2  0
  6  7  1  0
  7  8  2  0
  8  9  1  0
  9 10  1  0
 10 11  2  0
 11 12  1  0
 12 13  2  0
 13 14  1  0
 13 15  1  0
 15 16  2  0
 16 17  1  0
  8  2  1  0
 16 10  1  0
M  END
