CVD-0001016|dock_bobby27042020.25|mol2|21|dock3
     RDKit          3D

 18 19  0  0  0  0  0  0  0  0999 V2000
   14.0607   -2.8644   25.3794 C   0  0  0  0  0  0  0  0  0  0  0  0
   13.8569   -2.3746   23.9800 C   0  0  0  0  0  0  0  0  0  0  0  0
   12.4883   -1.9163   23.7661 N   0  0  0  0  0  0  0  0  0  0  0  0
   11.7697   -1.7620   22.6205 C   0  0  0  0  0  0  0  0  0  0  0  0
   12.4635   -2.0947   21.5276 N   0  0  0  0  0  0  0  0  0  0  0  0
   10.4883   -1.3247   22.5362 N   0  0  0  0  0  0  0  0  0  0  0  0
   10.0325   -0.3922   21.5010 C   0  0  0  0  0  0  0  0  0  0  0  0
    8.7329   -0.8252   20.8835 C   0  0  0  0  0  0  0  0  0  0  0  0
    7.6492   -1.0053   21.9523 C   0  0  0  0  0  0  0  0  0  0  0  0
    6.3148   -1.4447   21.3370 C   0  0  0  0  0  0  0  0  0  0  0  0
    5.6583   -0.4052   20.4613 C   0  0  0  0  0  0  0  0  0  0  0  0
    5.7896   -0.4548   19.0822 C   0  0  0  0  0  0  0  0  0  0  0  0
    5.1900    0.5007   18.2787 C   0  0  0  0  0  0  0  0  0  0  0  0
    4.4525    1.5178   18.8455 C   0  0  0  0  0  0  0  0  0  0  0  0
    4.3152    1.5796   20.2156 C   0  0  0  0  0  0  0  0  0  0  0  0
    4.9150    0.6238   21.0185 C   0  0  0  0  0  0  0  0  0  0  0  0
    8.1533   -1.9717   22.9942 C   0  0  0  0  0  0  0  0  0  0  0  0
    9.4786   -1.5546   23.5954 C   0  0  0  0  0  0  0  0  0  0  0  0
  1  2  1  0
  2  3  1  0
  3  4  1  0
  4  5  2  0
  4  6  1  0
  6  7  1  0
  7  8  1  0
  8  9  1  0
  9 10  1  0
 10 11  1  0
 11 12  2  0
 12 13  1  0
 13 14  2  0
 14 15  1  0
 15 16  2  0
  9 17  1  0
 17 18  1  0
 18  6  1  0
 16 11  1  0
M  END
