CVD-0003293|dock_bobby27042020.31|mol2|22|dock1
     RDKit          3D

 16 17  0  0  0  0  0  0  0  0999 V2000
    9.1213   -0.9284   21.1717 C   0  0  0  0  0  0  0  0  0  0  0  0
   10.1614   -0.0746   21.7414 N   0  0  0  0  0  0  0  0  0  0  0  0
   10.1703    1.3073   21.7538 C   0  0  0  0  0  0  0  0  0  0  0  0
    9.1854    2.0189   21.2540 O   0  0  0  0  0  0  0  0  0  0  0  0
   11.3453    1.7467   22.3581 C   0  0  0  0  0  0  0  0  0  0  0  0
   11.7721    3.1724   22.5909 C   0  0  0  0  0  0  0  0  0  0  0  0
   12.8645    3.6164   21.6349 C   0  0  0  0  0  0  0  0  0  0  0  0
   13.4641    4.9517   22.0004 C   0  0  0  0  0  0  0  0  0  0  0  0
   14.3654    4.9455   22.9698 N   0  0  0  0  0  0  0  0  0  0  0  0
   13.1215    5.9844   21.4173 O   0  0  0  0  0  0  0  0  0  0  0  0
   12.0896    0.5737   22.7224 C   0  0  0  0  0  0  0  0  0  0  0  0
   13.3168    0.3548   23.3456 C   0  0  0  0  0  0  0  0  0  0  0  0
   13.7662   -0.9401   23.5485 C   0  0  0  0  0  0  0  0  0  0  0  0
   13.0130   -2.0224   23.1404 C   0  0  0  0  0  0  0  0  0  0  0  0
   11.7869   -1.8416   22.5205 C   0  0  0  0  0  0  0  0  0  0  0  0
   11.3358   -0.5418   22.3205 C   0  0  0  0  0  0  0  0  0  0  0  0
  1  2  1  0
  2  3  1  0
  3  4  1  0
  3  5  2  0
  5  6  1  0
  6  7  1  0
  7  8  1  0
  8  9  1  0
  8 10  2  0
  5 11  1  0
 11 12  2  0
 12 13  1  0
 13 14  2  0
 14 15  1  0
 15 16  2  0
 16  2  1  0
 16 11  1  0
M  END
