CVD-0003340|dock_bobby27042020.45|mol2|34|dock3
     RDKit          3D

 22 23  0  0  0  0  0  0  0  0999 V2000
    6.6064   -4.9682   20.8980 Cl  0  0  0  0  0  0  0  0  0  0  0  0
    7.2758   -3.5578   21.7286 C   0  0  0  0  0  0  0  0  0  0  0  0
    6.9340   -2.2799   20.9818 C   0  0  0  0  0  0  0  0  0  0  0  0
    5.9500   -2.3455   20.2617 O   0  0  0  0  0  0  0  0  0  0  0  0
    7.7007   -1.0909   21.1313 N   0  0  0  0  0  0  0  0  0  0  0  0
    7.2960    0.1167   20.3656 C   0  0  0  0  0  0  0  0  0  0  0  0
    7.5243   -0.0947   18.8675 C   0  0  0  0  0  0  0  0  0  0  0  0
    5.9377    0.2861   18.0630 S   0  0  0  0  0  0  0  0  0  0  0  0
    6.0674    1.4028   17.1678 O   0  0  0  0  0  0  0  0  0  0  0  0
    5.3174   -0.9001   17.5397 O   0  0  0  0  0  0  0  0  0  0  0  0
    5.1317    0.8125   19.5305 C   0  0  0  0  0  0  0  0  0  0  0  0
    5.9241    0.6531   20.5975 C   0  0  0  0  0  0  0  0  0  0  0  0
    8.9068   -1.0033   21.9670 C   0  0  0  0  0  0  0  0  0  0  0  0
   10.0142   -1.5784   21.5038 C   0  0  0  0  0  0  0  0  0  0  0  0
   11.3752   -1.4389   22.2247 C   0  0  0  0  0  0  0  0  0  0  0  0
   11.1331   -0.9627   23.6309 N   0  0  0  0  0  0  0  0  0  0  0  0
    9.9654   -0.3162   23.9862 C   0  0  0  0  0  0  0  0  0  0  0  0
    8.8757   -0.3164   23.2290 C   0  0  0  0  0  0  0  0  0  0  0  0
   12.1011   -1.1641   24.5765 C   0  0  0  0  0  0  0  0  0  0  0  0
   11.9160   -0.7954   25.7294 O   0  0  0  0  0  0  0  0  0  0  0  0
   13.3974   -1.8388   24.1695 C   0  0  0  0  0  0  0  0  0  0  0  0
   14.6195   -1.7131   25.4413 Cl  0  0  0  0  0  0  0  0  0  0  0  0
  1  2  1  0
  2  3  1  0
  3  4  2  0
  3  5  1  0
  5  6  1  0
  6  7  1  0
  7  8  1  0
  8  9  2  0
  8 10  2  0
  8 11  1  0
 11 12  2  0
  5 13  1  0
 13 14  2  0
 14 15  1  0
 15 16  1  0
 16 17  1  0
 17 18  2  0
 16 19  1  0
 19 20  2  0
 19 21  1  0
 21 22  1  0
 12  6  1  0
 18 13  1  0
M  END
