CVD-0002391|dock_bobby27042020.6|mol2|9|dock3
     RDKit          3D

 26 29  0  0  0  0  0  0  0  0999 V2000
   11.1885    5.1859   22.1418 F   0  0  0  0  0  0  0  0  0  0  0  0
   11.2115    3.8428   22.3017 C   0  0  0  0  0  0  0  0  0  0  0  0
   10.0738    3.1203   22.0593 C   0  0  0  0  0  0  0  0  0  0  0  0
   10.0870    1.7363   22.2298 C   0  0  0  0  0  0  0  0  0  0  0  0
   11.2557    1.0988   22.6720 C   0  0  0  0  0  0  0  0  0  0  0  0
   12.4091    1.8538   22.8812 C   0  0  0  0  0  0  0  0  0  0  0  0
   12.3775    3.2238   22.7033 C   0  0  0  0  0  0  0  0  0  0  0  0
   13.8129    4.1527   22.9885 Cl  0  0  0  0  0  0  0  0  0  0  0  0
   11.2089   -0.3030   22.8773 N   0  0  0  0  0  0  0  0  0  0  0  0
   12.3604   -1.0108   23.3900 C   0  0  0  0  0  0  0  0  0  0  0  0
   12.9191   -0.6579   24.6131 C   0  0  0  0  0  0  0  0  0  0  0  0
   14.0237   -1.3382   25.0978 C   0  0  0  0  0  0  0  0  0  0  0  0
   14.5793   -2.3698   24.3725 C   0  0  0  0  0  0  0  0  0  0  0  0
   14.0325   -2.7254   23.1587 C   0  0  0  0  0  0  0  0  0  0  0  0
   12.9279   -2.0518   22.6646 C   0  0  0  0  0  0  0  0  0  0  0  0
   10.0679   -1.0699   22.6231 C   0  0  0  0  0  0  0  0  0  0  0  0
   10.0719   -2.2732   22.8331 O   0  0  0  0  0  0  0  0  0  0  0  0
    8.9294   -0.4008   22.1473 N   0  0  0  0  0  0  0  0  0  0  0  0
    7.7434   -1.1916   21.8702 C   0  0  0  0  0  0  0  0  0  0  0  0
    7.0558   -1.0852   20.6685 C   0  0  0  0  0  0  0  0  0  0  0  0
    5.9355   -1.8685   20.4856 C   0  0  0  0  0  0  0  0  0  0  0  0
    5.4893   -2.7102   21.3980 N   0  0  0  0  0  0  0  0  0  0  0  0
    6.1496   -2.8209   22.5639 N   0  0  0  0  0  0  0  0  0  0  0  0
    7.2348   -2.0951   22.7912 C   0  0  0  0  0  0  0  0  0  0  0  0
    8.8607    0.9895   21.9278 C   0  0  0  0  0  0  0  0  0  0  0  0
    7.8632    1.5480   21.5037 O   0  0  0  0  0  0  0  0  0  0  0  0
  1  2  1  0
  2  3  2  0
  3  4  1  0
  4  5  2  0
  5  6  1  0
  6  7  2  0
  7  8  1  0
  5  9  1  0
  9 10  1  0
 10 11  2  0
 11 12  1  0
 12 13  2  0
 13 14  1  0
 14 15  2  0
  9 16  1  0
 16 17  2  0
 16 18  1  0
 18 19  1  0
 19 20  2  0
 20 21  1  0
 21 22  2  0
 22 23  1  0
 23 24  2  0
 18 25  1  0
 25 26  2  0
  7  2  1  0
 15 10  1  0
 24 19  1  0
 25  4  1  0
M  END
