CVD-0002603|dock_bobby27042020.5|mol2|10|dock3
     RDKit          3D

 21 22  0  0  0  0  0  0  0  0999 V2000
   12.1639   -1.9479   20.9359 N   0  0  0  0  0  0  0  0  0  0  0  0
   11.5485   -1.1572   21.8742 C   0  0  0  0  0  0  0  0  0  0  0  0
   10.0459   -1.4136   21.9182 C   0  0  0  0  0  0  0  0  0  0  0  0
    9.2910   -0.1399   21.5696 C   0  0  0  0  0  0  0  0  0  0  0  0
    7.9088   -0.3785   21.1342 N   0  0  0  0  0  0  0  0  0  0  0  0
    7.7988   -0.2407   19.6790 C   0  0  0  0  0  0  0  0  0  0  0  0
    6.3782   -0.5286   19.2301 C   0  0  0  0  0  0  0  0  0  0  0  0
    5.4381    0.3753   19.8964 N   0  0  0  0  0  0  0  0  0  0  0  0
    5.5653    0.3049   21.3554 C   0  0  0  0  0  0  0  0  0  0  0  0
    7.0004    0.5702   21.7728 C   0  0  0  0  0  0  0  0  0  0  0  0
    4.5574    1.1419   19.2215 C   0  0  0  0  0  0  0  0  0  0  0  0
    4.4866    1.1205   17.9992 O   0  0  0  0  0  0  0  0  0  0  0  0
    3.6595    2.0396   20.0503 C   0  0  0  0  0  0  0  0  0  0  0  0
    2.5608    2.9931   19.0448 Cl  0  0  0  0  0  0  0  0  0  0  0  0
   12.1542   -1.4019   23.1810 N   0  0  0  0  0  0  0  0  0  0  0  0
   13.1505   -2.4759   23.1559 C   0  0  0  0  0  0  0  0  0  0  0  0
   13.5939   -2.8424   24.5545 C   0  0  0  0  0  0  0  0  0  0  0  0
   14.1475   -1.6456   25.2985 C   0  0  0  0  0  0  0  0  0  0  0  0
   14.5239   -1.9445   26.6454 O   0  0  0  0  0  0  0  0  0  0  0  0
   13.1123   -0.5285   25.2508 C   0  0  0  0  0  0  0  0  0  0  0  0
   12.7005   -0.2141   23.8252 C   0  0  0  0  0  0  0  0  0  0  0  0
  1  2  1  0
  2  3  1  0
  3  4  1  0
  4  5  1  0
  5  6  1  0
  6  7  1  0
  7  8  1  0
  8  9  1  0
  9 10  1  0
  8 11  1  0
 11 12  2  0
 11 13  1  0
 13 14  1  0
  2 15  1  0
 15 16  1  0
 16 17  1  0
 17 18  1  0
 18 19  1  0
 18 20  1  0
 20 21  1  0
 10  5  1  0
 21 15  1  0
M  END
