CVD-0002099|dock_bobby27042020.93|mol2|3|dock2
     RDKit          3D

 20 22  0  0  0  0  0  0  0  0999 V2000
   10.3778   -2.1926   21.5691 N   0  0  0  0  0  0  0  0  0  0  0  0
    9.5311   -1.1615   22.2094 C   0  0  0  0  0  0  0  0  0  0  0  0
    8.2792   -0.8430   21.4031 C   0  0  0  0  0  0  0  0  0  0  0  0
    8.6014    0.2370   20.5414 O   0  0  0  0  0  0  0  0  0  0  0  0
    7.5359    0.5527   19.6197 C   0  0  0  0  0  0  0  0  0  0  0  0
    7.4842   -0.6420   18.6317 C   0  0  0  0  0  0  0  0  0  0  0  0
    7.1452   -1.8937   19.4244 C   0  0  0  0  0  0  0  0  0  0  0  0
    6.4693   -2.9881   18.8699 C   0  0  0  0  0  0  0  0  0  0  0  0
    5.7530   -2.8558   17.7082 O   0  0  0  0  0  0  0  0  0  0  0  0
    6.3723   -4.1942   19.5594 C   0  0  0  0  0  0  0  0  0  0  0  0
    5.6785   -5.2219   19.0048 O   0  0  0  0  0  0  0  0  0  0  0  0
    6.9472   -4.3323   20.8164 C   0  0  0  0  0  0  0  0  0  0  0  0
    7.6161   -3.2589   21.3732 C   0  0  0  0  0  0  0  0  0  0  0  0
    7.7178   -2.0466   20.6891 C   0  0  0  0  0  0  0  0  0  0  0  0
    6.3057    0.8697   20.4685 C   0  0  0  0  0  0  0  0  0  0  0  0
    5.0851    1.3080   19.6592 C   0  0  0  0  0  0  0  0  0  0  0  0
    3.8895    1.5948   20.5673 C   0  0  0  0  0  0  0  0  0  0  0  0
    4.2340    2.6310   21.6194 C   0  0  0  0  0  0  0  0  0  0  0  0
    5.4500    2.2218   22.4249 C   0  0  0  0  0  0  0  0  0  0  0  0
    6.6446    1.9248   21.5243 C   0  0  0  0  0  0  0  0  0  0  0  0
  1  2  1  0
  2  3  1  0
  3  4  1  0
  4  5  1  0
  5  6  1  0
  6  7  1  0
  7  8  2  0
  8  9  1  0
  8 10  1  0
 10 11  1  0
 10 12  2  0
 12 13  1  0
 13 14  2  0
  5 15  1  0
 15 16  1  0
 16 17  1  0
 17 18  1  0
 18 19  1  0
 19 20  1  0
 14  3  1  0
 20 15  1  0
 14  7  1  0
M  END
