CVD-0000270|dock_bobby27042020.56|mol2|32|dock1
     RDKit          3D

 19 20  0  0  0  0  0  0  0  0999 V2000
    8.4857    0.3880   23.0043 O   0  0  0  0  0  0  0  0  0  0  0  0
    9.3663    0.0936   22.2015 C   0  0  0  0  0  0  0  0  0  0  0  0
    9.1422   -0.8284   21.2633 N   0  0  0  0  0  0  0  0  0  0  0  0
    7.8678   -1.5059   21.1606 C   0  0  0  0  0  0  0  0  0  0  0  0
    7.1232   -1.1065   19.9139 C   0  0  0  0  0  0  0  0  0  0  0  0
    7.3695    0.0252   19.0960 C   0  0  0  0  0  0  0  0  0  0  0  0
    6.5861    0.1683   18.0396 N   0  0  0  0  0  0  0  0  0  0  0  0
    5.4975   -1.0856   17.9907 S   0  0  0  0  0  0  0  0  0  0  0  0
    6.0848   -1.8200   19.3881 C   0  0  0  0  0  0  0  0  0  0  0  0
   10.7102    0.7705   22.2667 C   0  0  0  0  0  0  0  0  0  0  0  0
   10.6822    2.1607   22.1138 C   0  0  0  0  0  0  0  0  0  0  0  0
   11.8426    2.9127   22.1521 C   0  0  0  0  0  0  0  0  0  0  0  0
   13.0589    2.3015   22.3433 C   0  0  0  0  0  0  0  0  0  0  0  0
   13.1266    0.9295   22.4984 C   0  0  0  0  0  0  0  0  0  0  0  0
   11.9672    0.1585   22.4623 C   0  0  0  0  0  0  0  0  0  0  0  0
   11.9765   -1.2081   22.6108 O   0  0  0  0  0  0  0  0  0  0  0  0
   13.2070   -1.9285   22.4949 C   0  0  0  0  0  0  0  0  0  0  0  0
   13.8587   -1.6676   21.2055 C   0  0  0  0  0  0  0  0  0  0  0  0
   14.3313   -1.4577   20.1941 N   0  0  0  0  0  0  0  0  0  0  0  0
  1  2  2  0
  2  3  1  0
  3  4  1  0
  4  5  1  0
  5  6  1  0
  6  7  2  0
  7  8  1  0
  8  9  1  0
  2 10  1  0
 10 11  2  0
 11 12  1  0
 12 13  2  0
 13 14  1  0
 14 15  2  0
 15 16  1  0
 16 17  1  0
 17 18  1  0
 18 19  3  0
  9  5  2  0
 15 10  1  0
M  END
