CVD-0001531|dock_bobby27042020.66|mol2|45|dock1
     RDKit          3D

 22 24  0  0  0  0  0  0  0  0999 V2000
    9.3941   -5.1078   27.7397 C   0  0  0  0  0  0  0  0  0  0  0  0
    9.0737   -5.6406   26.3675 C   0  0  0  0  0  0  0  0  0  0  0  0
    9.2031   -4.6028   25.2696 C   0  0  0  0  0  0  0  0  0  0  0  0
    8.1242   -3.8204   24.8941 C   0  0  0  0  0  0  0  0  0  0  0  0
    8.2458   -2.8748   23.8919 C   0  0  0  0  0  0  0  0  0  0  0  0
    9.4458   -2.6730   23.2268 C   0  0  0  0  0  0  0  0  0  0  0  0
    9.4982   -1.6243   22.1346 C   0  0  0  0  0  0  0  0  0  0  0  0
    9.6957   -0.2134   22.5115 N   0  0  0  0  0  0  0  0  0  0  0  0
   10.5383   -0.0691   23.6986 C   0  0  0  0  0  0  0  0  0  0  0  0
   10.6846    1.3817   24.0685 C   0  0  0  0  0  0  0  0  0  0  0  0
   11.2727    2.1434   22.9627 N   0  0  0  0  0  0  0  0  0  0  0  0
   11.4696    3.5499   23.3385 C   0  0  0  0  0  0  0  0  0  0  0  0
   12.4820    4.2610   22.4571 C   0  0  0  0  0  0  0  0  0  0  0  0
   12.8497    5.6101   23.0078 C   0  0  0  0  0  0  0  0  0  0  0  0
   12.2739    6.2795   24.0595 C   0  0  0  0  0  0  0  0  0  0  0  0
   12.8783    7.5091   24.2850 C   0  0  0  0  0  0  0  0  0  0  0  0
   13.8798    7.8533   23.4938 N   0  0  0  0  0  0  0  0  0  0  0  0
   14.1001    6.6037   22.4078 S   0  0  0  0  0  0  0  0  0  0  0  0
   10.4301    1.9991   21.7757 C   0  0  0  0  0  0  0  0  0  0  0  0
   10.2838    0.5483   21.4058 C   0  0  0  0  0  0  0  0  0  0  0  0
   10.5274   -3.4534   23.6129 C   0  0  0  0  0  0  0  0  0  0  0  0
   10.4060   -4.4020   24.6132 C   0  0  0  0  0  0  0  0  0  0  0  0
  1  2  1  0
  2  3  1  0
  3  4  2  0
  4  5  1  0
  5  6  2  0
  6  7  1  0
  7  8  1  0
  8  9  1  0
  9 10  1  0
 10 11  1  0
 11 12  1  0
 12 13  1  0
 13 14  1  0
 14 15  2  0
 15 16  1  0
 16 17  2  0
 17 18  1  0
 11 19  1  0
 19 20  1  0
  6 21  1  0
 21 22  2  0
 22  3  1  0
 20  8  1  0
 18 14  1  0
M  END
