CVD-0002771|dock_bobby27042020.18|mol2|38|dock2
     RDKit          3D

 23 25  0  0  0  0  0  0  0  0999 V2000
   10.8601    5.6000   22.5817 N   0  0  0  0  0  0  0  0  0  0  0  0
   12.1656    4.6750   22.5250 S   0  0  0  0  0  0  0  0  0  0  0  0
   12.7904    4.9018   21.2565 O   0  0  0  0  0  0  0  0  0  0  0  0
   12.9145    4.9258   23.7197 O   0  0  0  0  0  0  0  0  0  0  0  0
   11.6556    2.9835   22.5672 C   0  0  0  0  0  0  0  0  0  0  0  0
   10.4168    2.6228   22.0694 C   0  0  0  0  0  0  0  0  0  0  0  0
    9.9837    1.2945   22.1146 C   0  0  0  0  0  0  0  0  0  0  0  0
    8.6212    0.9899   21.5380 C   0  0  0  0  0  0  0  0  0  0  0  0
    7.6211    1.6192   21.8671 O   0  0  0  0  0  0  0  0  0  0  0  0
    8.4933    0.0022   20.6376 N   0  0  0  0  0  0  0  0  0  0  0  0
    7.2086   -0.3202   20.0264 C   0  0  0  0  0  0  0  0  0  0  0  0
    6.8732    0.4132   18.8292 C   0  0  0  0  0  0  0  0  0  0  0  0
    7.2991   -1.0169   18.7366 C   0  0  0  0  0  0  0  0  0  0  0  0
    8.5612   -1.2812   18.1777 F   0  0  0  0  0  0  0  0  0  0  0  0
   10.8222    0.3220   22.6971 C   0  0  0  0  0  0  0  0  0  0  0  0
   10.2451   -1.4614   22.9474 Br  0  0  0  0  0  0  0  0  0  0  0  0
   12.1137    0.6826   23.1183 C   0  0  0  0  0  0  0  0  0  0  0  0
   12.4989    2.0211   23.0885 C   0  0  0  0  0  0  0  0  0  0  0  0
   13.1724   -0.2623   23.6261 C   0  0  0  0  0  0  0  0  0  0  0  0
   13.8469    0.0991   24.5748 O   0  0  0  0  0  0  0  0  0  0  0  0
   13.4036   -1.4558   23.0453 N   0  0  0  0  0  0  0  0  0  0  0  0
   13.7148   -2.8843   23.0730 C   0  0  0  0  0  0  0  0  0  0  0  0
   13.4020   -2.2447   21.7862 C   0  0  0  0  0  0  0  0  0  0  0  0
  1  2  1  0
  2  3  2  0
  2  4  2  0
  2  5  1  0
  5  6  2  0
  6  7  1  0
  7  8  1  0
  8  9  2  0
  8 10  1  0
 11 10  1  0
 11 12  1  0
 12 13  1  0
 13 14  1  0
  7 15  2  0
 15 16  1  0
 15 17  1  0
 17 18  2  0
 17 19  1  0
 19 20  2  0
 19 21  1  0
 21 22  1  0
 22 23  1  0
 18  5  1  0
 23 21  1  0
 13 11  1  0
M  END
