CVD-0000731|dock_bobby27042020.97|mol2|35|dock2
     RDKit          3D

 22 24  0  0  0  0  0  0  0  0999 V2000
   10.9710    1.9981   23.1153 N   0  0  0  0  0  0  0  0  0  0  0  0
    9.9906    1.7141   22.2729 C   0  0  0  0  0  0  0  0  0  0  0  0
   10.0325    2.0358   21.0832 O   0  0  0  0  0  0  0  0  0  0  0  0
    8.8143    0.9637   22.8684 C   0  0  0  0  0  0  0  0  0  0  0  0
    7.6526    0.9454   21.9015 C   0  0  0  0  0  0  0  0  0  0  0  0
    7.2673   -0.5118   21.8112 C   0  0  0  0  0  0  0  0  0  0  0  0
    6.1722   -1.0020   20.8937 C   0  0  0  0  0  0  0  0  0  0  0  0
    5.9157   -0.0864   19.7182 C   0  0  0  0  0  0  0  0  0  0  0  0
    4.9383    0.8934   19.7664 C   0  0  0  0  0  0  0  0  0  0  0  0
    4.7287    1.7116   18.6702 C   0  0  0  0  0  0  0  0  0  0  0  0
    5.5088    1.5211   17.5524 C   0  0  0  0  0  0  0  0  0  0  0  0
    6.4566    0.5857   17.4751 N   0  0  0  0  0  0  0  0  0  0  0  0
    6.6407   -0.1924   18.5460 C   0  0  0  0  0  0  0  0  0  0  0  0
    8.0129   -1.2694   22.6242 C   0  0  0  0  0  0  0  0  0  0  0  0
    9.0676   -0.4527   23.3318 C   0  0  0  0  0  0  0  0  0  0  0  0
   10.4746   -0.9414   23.0232 C   0  0  0  0  0  0  0  0  0  0  0  0
   10.8585   -1.2216   21.7194 C   0  0  0  0  0  0  0  0  0  0  0  0
   12.1403   -1.6635   21.4379 C   0  0  0  0  0  0  0  0  0  0  0  0
   13.0603   -1.8317   22.4590 C   0  0  0  0  0  0  0  0  0  0  0  0
   12.6709   -1.5497   23.7511 C   0  0  0  0  0  0  0  0  0  0  0  0
   13.9194   -1.7737   25.1648 Br  0  0  0  0  0  0  0  0  0  0  0  0
   11.3977   -1.1091   24.0447 C   0  0  0  0  0  0  0  0  0  0  0  0
  1  2  1  0
  2  3  2  0
  4  2  1  0
  4  5  1  0
  5  6  1  0
  6  7  1  0
  7  8  1  0
  8  9  2  0
  9 10  1  0
 10 11  2  0
 11 12  1  0
 12 13  2  0
  6 14  2  0
 14 15  1  0
 15 16  1  0
 16 17  2  0
 17 18  1  0
 18 19  2  0
 19 20  1  0
 20 21  1  0
 20 22  2  0
 15  4  1  0
 22 16  1  0
 13  8  1  0
M  END
