CVD-0003047|dock_bobby27042020.3|mol2|24|dock2
     RDKit          3D

 27 29  0  0  0  0  0  0  0  0999 V2000
    7.4564   -7.0044   28.9176 Cl  0  0  0  0  0  0  0  0  0  0  0  0
    7.4086   -6.1293   27.3815 C   0  0  0  0  0  0  0  0  0  0  0  0
    8.7817   -5.6006   27.0137 C   0  0  0  0  0  0  0  0  0  0  0  0
    9.7220   -5.6850   27.7938 O   0  0  0  0  0  0  0  0  0  0  0  0
    8.9259   -5.0407   25.7939 N   0  0  0  0  0  0  0  0  0  0  0  0
    7.8737   -4.8759   24.7862 C   0  0  0  0  0  0  0  0  0  0  0  0
    7.8989   -3.4826   24.2137 C   0  0  0  0  0  0  0  0  0  0  0  0
    9.2211   -3.1742   23.6445 N   0  0  0  0  0  0  0  0  0  0  0  0
   10.2065   -3.2770   24.7219 C   0  0  0  0  0  0  0  0  0  0  0  0
   10.2478   -4.6765   25.2877 C   0  0  0  0  0  0  0  0  0  0  0  0
    9.2408   -1.8245   23.0370 C   0  0  0  0  0  0  0  0  0  0  0  0
    8.5857   -1.8603   21.6530 C   0  0  0  0  0  0  0  0  0  0  0  0
    8.6579   -0.5202   20.9238 C   0  0  0  0  0  0  0  0  0  0  0  0
    7.5842   -0.3571   19.8753 C   0  0  0  0  0  0  0  0  0  0  0  0
    6.9998    0.8786   19.6441 C   0  0  0  0  0  0  0  0  0  0  0  0
    6.0170    1.0294   18.6801 C   0  0  0  0  0  0  0  0  0  0  0  0
    5.6069   -0.0545   17.9343 C   0  0  0  0  0  0  0  0  0  0  0  0
    6.1801   -1.2887   18.1526 C   0  0  0  0  0  0  0  0  0  0  0  0
    7.1628   -1.4385   19.1168 C   0  0  0  0  0  0  0  0  0  0  0  0
   10.6279   -1.2165   22.9637 C   0  0  0  0  0  0  0  0  0  0  0  0
   11.0251   -0.2073   23.8323 C   0  0  0  0  0  0  0  0  0  0  0  0
   12.2987    0.3323   23.7590 C   0  0  0  0  0  0  0  0  0  0  0  0
   13.1964   -0.1289   22.8117 C   0  0  0  0  0  0  0  0  0  0  0  0
   12.8124   -1.1371   21.9346 C   0  0  0  0  0  0  0  0  0  0  0  0
   11.5304   -1.6758   22.0155 C   0  0  0  0  0  0  0  0  0  0  0  0
   13.7355   -1.6279   20.9413 C   0  0  0  0  0  0  0  0  0  0  0  0
   14.4556   -1.9934   20.1334 N   0  0  0  0  0  0  0  0  0  0  0  0
  1  2  1  0
  2  3  1  0
  3  4  2  0
  3  5  1  0
  5  6  1  0
  6  7  1  0
  7  8  1  0
  8  9  1  0
  9 10  1  0
  8 11  1  0
 11 12  1  0
 12 13  1  0
 13 14  1  0
 14 15  2  0
 15 16  1  0
 16 17  2  0
 17 18  1  0
 18 19  2  0
 11 20  1  0
 20 21  2  0
 21 22  1  0
 22 23  2  0
 23 24  1  0
 24 25  2  0
 24 26  1  0
 26 27  3  0
 10  5  1  0
 19 14  1  0
 25 20  1  0
M  END
