CVD-0001997|dock_bobby27042020.7|mol2|41|dock2
     RDKit          3D

 20 22  0  0  0  0  0  0  0  0999 V2000
    3.7768    1.6370   20.4357 C   0  0  0  0  0  0  0  0  0  0  0  0
    4.6420    0.6422   19.8388 O   0  0  0  0  0  0  0  0  0  0  0  0
    5.5954    0.1531   20.6272 C   0  0  0  0  0  0  0  0  0  0  0  0
    5.7649    0.4901   21.7701 O   0  0  0  0  0  0  0  0  0  0  0  0
    6.4469   -0.8831   19.9141 C   0  0  0  0  0  0  0  0  0  0  0  0
    6.8167   -0.3949   18.5159 C   0  0  0  0  0  0  0  0  0  0  0  0
    7.6762   -1.1701   20.7654 C   0  0  0  0  0  0  0  0  0  0  0  0
    7.8865   -2.4412   21.2880 C   0  0  0  0  0  0  0  0  0  0  0  0
    8.9951   -2.7342   22.0630 C   0  0  0  0  0  0  0  0  0  0  0  0
    9.9239   -1.7304   22.3253 C   0  0  0  0  0  0  0  0  0  0  0  0
    9.7100   -0.4446   21.7949 C   0  0  0  0  0  0  0  0  0  0  0  0
    8.5936   -0.1581   21.0171 C   0  0  0  0  0  0  0  0  0  0  0  0
   10.7513    0.3779   22.1826 N   0  0  0  0  0  0  0  0  0  0  0  0
   11.6364   -0.3515   22.9552 C   0  0  0  0  0  0  0  0  0  0  0  0
   12.8222    0.0429   23.5651 C   0  0  0  0  0  0  0  0  0  0  0  0
   13.5435   -0.8843   24.2979 C   0  0  0  0  0  0  0  0  0  0  0  0
   13.0801   -2.1789   24.4132 C   0  0  0  0  0  0  0  0  0  0  0  0
   14.0045   -3.3273   25.3401 Cl  0  0  0  0  0  0  0  0  0  0  0  0
   11.9058   -2.5945   23.8170 C   0  0  0  0  0  0  0  0  0  0  0  0
   11.1675   -1.6740   23.0758 C   0  0  0  0  0  0  0  0  0  0  0  0
  1  2  1  0
  2  3  1  0
  3  4  2  0
  3  5  1  0
  5  6  1  0
  5  7  1  0
  7  8  2  0
  8  9  1  0
  9 10  2  0
 10 11  1  0
 11 12  2  0
 11 13  1  0
 13 14  1  0
 14 15  2  0
 15 16  1  0
 16 17  2  0
 17 18  1  0
 17 19  1  0
 19 20  2  0
 12  7  1  0
 20 14  1  0
 20 10  1  0
M  END
