CVD-0002232|dock_bobby27042020.92|mol2|17|dock1
     RDKit          3D

 11 11  0  0  0  0  0  0  0  0999 V2000
   11.5050    2.9363   22.1793 C   0  0  0  0  0  0  0  0  0  0  0  0
   12.0723    2.1681   23.3366 C   0  0  0  0  0  0  0  0  0  0  0  0
   12.2985    2.7211   24.4074 O   0  0  0  0  0  0  0  0  0  0  0  0
   12.2925    0.8549   23.0663 N   0  0  0  0  0  0  0  0  0  0  0  0
   12.8105   -0.1919   23.8787 C   0  0  0  0  0  0  0  0  0  0  0  0
   12.7594   -0.1952   25.2727 C   0  0  0  0  0  0  0  0  0  0  0  0
   13.2455   -1.1776   26.0377 N   0  0  0  0  0  0  0  0  0  0  0  0
   13.8120   -2.2139   25.4262 C   0  0  0  0  0  0  0  0  0  0  0  0
   13.9163   -2.3138   24.0569 C   0  0  0  0  0  0  0  0  0  0  0  0
   13.4142   -1.2978   23.2494 C   0  0  0  0  0  0  0  0  0  0  0  0
   13.5439   -1.4371   21.7543 C   0  0  0  0  0  0  0  0  0  0  0  0
  1  2  1  0
  2  3  2  0
  2  4  1  0
  4  5  1  0
  5  6  2  0
  6  7  1  0
  7  8  2  0
  8  9  1  0
  9 10  2  0
 10 11  1  0
 10  5  1  0
M  END
