CVD-0001931|dock_bobby27042020.8|mol2|2|dock2
     RDKit          3D

 24 26  0  0  0  0  0  0  0  0999 V2000
    6.6570    2.8913   23.9012 N   0  0  0  0  0  0  0  0  0  0  0  0
    6.2837    2.1615   22.6676 C   0  0  0  0  0  0  0  0  0  0  0  0
    7.1008    0.8959   22.4370 C   0  0  0  0  0  0  0  0  0  0  0  0
    7.3356    0.3256   23.7146 O   0  0  0  0  0  0  0  0  0  0  0  0
    8.0159   -0.9457   23.6384 C   0  0  0  0  0  0  0  0  0  0  0  0
    6.9778   -1.9252   23.0311 C   0  0  0  0  0  0  0  0  0  0  0  0
    6.6263   -1.4323   21.6364 C   0  0  0  0  0  0  0  0  0  0  0  0
    6.2140   -2.2870   20.6063 C   0  0  0  0  0  0  0  0  0  0  0  0
    6.4986   -3.6280   20.6565 O   0  0  0  0  0  0  0  0  0  0  0  0
    5.6723   -1.7801   19.4279 C   0  0  0  0  0  0  0  0  0  0  0  0
    5.3462   -2.6363   18.4248 O   0  0  0  0  0  0  0  0  0  0  0  0
    5.5318   -0.4089   19.2536 C   0  0  0  0  0  0  0  0  0  0  0  0
    5.9362    0.4432   20.2638 C   0  0  0  0  0  0  0  0  0  0  0  0
    6.4800   -0.0572   21.4472 C   0  0  0  0  0  0  0  0  0  0  0  0
    9.3258   -0.7036   22.8889 C   0  0  0  0  0  0  0  0  0  0  0  0
   10.1401    0.4761   23.4375 C   0  0  0  0  0  0  0  0  0  0  0  0
   11.3775    0.7661   22.5955 C   0  0  0  0  0  0  0  0  0  0  0  0
   12.2737   -0.4482   22.4573 C   0  0  0  0  0  0  0  0  0  0  0  0
   12.8767   -0.7353   23.8315 C   0  0  0  0  0  0  0  0  0  0  0  0
   13.9864   -1.7894   23.8581 C   0  0  0  0  0  0  0  0  0  0  0  0
   14.7608   -1.8290   25.1061 C   0  0  0  0  0  0  0  0  0  0  0  0
   15.3975   -2.7646   25.4886 O   0  0  0  0  0  0  0  0  0  0  0  0
   11.4816   -1.6477   21.9571 C   0  0  0  0  0  0  0  0  0  0  0  0
   10.2484   -1.9251   22.8033 C   0  0  0  0  0  0  0  0  0  0  0  0
  1  2  1  0
  2  3  1  0
  3  4  1  0
  4  5  1  0
  5  6  1  0
  6  7  1  0
  7  8  2  0
  8  9  1  0
  8 10  1  0
 10 11  1  0
 10 12  2  0
 12 13  1  0
 13 14  2  0
  5 15  1  0
 15 16  1  0
 16 17  1  0
 17 18  1  0
 18 19  1  0
 19 20  1  0
 20 21  1  0
 21 22  2  0
 18 23  1  0
 23 24  1  0
 14  3  1  0
 24 15  1  0
 14  7  1  0
M  END
