CVD-0000818|dock_bobby27042020.54|mol2|37|dock3
     RDKit          3D

 31 34  0  0  0  0  0  0  0  0999 V2000
    4.6900   -5.9559   22.5222 C   0  0  0  0  0  0  0  0  0  0  0  0
    5.8963   -6.2531   21.6699 C   0  0  0  0  0  0  0  0  0  0  0  0
    6.9982   -5.2195   21.7988 C   0  0  0  0  0  0  0  0  0  0  0  0
    7.1428   -4.2156   20.8528 C   0  0  0  0  0  0  0  0  0  0  0  0
    8.1419   -3.2456   20.9438 C   0  0  0  0  0  0  0  0  0  0  0  0
    8.2236   -2.2685   19.9726 N   0  0  0  0  0  0  0  0  0  0  0  0
    7.0988   -1.4795   19.4743 C   0  0  0  0  0  0  0  0  0  0  0  0
    6.2814   -0.8786   20.6361 C   0  0  0  0  0  0  0  0  0  0  0  0
    5.1406    0.0116   20.1469 C   0  0  0  0  0  0  0  0  0  0  0  0
    5.6482    1.0971   19.2067 C   0  0  0  0  0  0  0  0  0  0  0  0
    6.4270    0.4972   18.0449 C   0  0  0  0  0  0  0  0  0  0  0  0
    7.5880   -0.3581   18.5419 C   0  0  0  0  0  0  0  0  0  0  0  0
    9.0423   -3.2901   22.0289 C   0  0  0  0  0  0  0  0  0  0  0  0
   10.1547   -2.5042   22.4345 N   0  0  0  0  0  0  0  0  0  0  0  0
   10.6479   -3.0608   23.6221 C   0  0  0  0  0  0  0  0  0  0  0  0
    9.9155   -4.1409   23.9860 C   0  0  0  0  0  0  0  0  0  0  0  0
   10.1122   -5.0165   25.1966 C   0  0  0  0  0  0  0  0  0  0  0  0
    9.5331   -4.4656   26.4269 N   0  0  0  0  0  0  0  0  0  0  0  0
    9.7143   -5.3892   27.5419 C   0  0  0  0  0  0  0  0  0  0  0  0
    8.1085   -4.2146   26.2411 C   0  0  0  0  0  0  0  0  0  0  0  0
    8.8940   -4.3098   22.9924 C   0  0  0  0  0  0  0  0  0  0  0  0
    7.8789   -5.2534   22.8665 C   0  0  0  0  0  0  0  0  0  0  0  0
   10.8417   -1.1410   21.6715 S   0  0  0  0  0  0  0  0  0  0  0  0
    9.7363   -0.4907   21.0590 O   0  0  0  0  0  0  0  0  0  0  0  0
   11.9188   -1.6733   20.9121 O   0  0  0  0  0  0  0  0  0  0  0  0
   11.4284   -0.2025   22.8352 N   0  0  0  0  0  0  0  0  0  0  0  0
   12.8728    0.1424   22.9065 C   0  0  0  0  0  0  0  0  0  0  0  0
   13.0223    1.5467   23.3371 C   0  0  0  0  0  0  0  0  0  0  0  0
   12.3017    1.7994   24.6676 C   0  0  0  0  0  0  0  0  0  0  0  0
   10.8615    1.4009   24.5501 C   0  0  0  0  0  0  0  0  0  0  0  0
   10.7059    0.0211   24.1039 C   0  0  0  0  0  0  0  0  0  0  0  0
  1  2  1  0
  2  3  1  0
  3  4  2  0
  4  5  1  0
  5  6  1  0
  6  7  1  0
  7  8  1  0
  8  9  1  0
  9 10  1  0
 10 11  1  0
 11 12  1  0
  5 13  2  0
 13 14  1  0
 14 15  1  0
 15 16  2  0
 16 17  1  0
 17 18  1  0
 18 19  1  0
 18 20  1  0
 16 21  1  0
 21 22  2  0
 14 23  1  0
 23 24  2  0
 23 25  2  0
 23 26  1  0
 26 27  1  0
 27 28  1  0
 28 29  1  0
 29 30  1  0
 30 31  1  0
 22  3  1  0
 31 26  1  0
 12  7  1  0
 21 13  1  0
M  END
