CVD-0000635|dock_bobby27042020.26|mol2|37|dock3
     RDKit          3D

 21 23  0  0  0  0  0  0  0  0999 V2000
    7.8794   -2.6303   21.6881 C   0  0  0  0  0  0  0  0  0  0  0  0
    9.3152   -2.2894   21.9111 C   0  0  0  0  0  0  0  0  0  0  0  0
   10.2094   -2.2175   20.9465 N   0  0  0  0  0  0  0  0  0  0  0  0
   11.4386   -1.8760   21.4496 C   0  0  0  0  0  0  0  0  0  0  0  0
   11.5042   -1.6812   22.7897 C   0  0  0  0  0  0  0  0  0  0  0  0
    9.9428   -1.9319   23.4873 S   0  0  0  0  0  0  0  0  0  0  0  0
   12.7379   -1.2948   23.6088 C   0  0  0  0  0  0  0  0  0  0  0  0
   13.1744    0.0918   23.0776 C   0  0  0  0  0  0  0  0  0  0  0  0
   12.0950    1.1534   23.0201 C   0  0  0  0  0  0  0  0  0  0  0  0
   10.9215    0.8592   22.8178 O   0  0  0  0  0  0  0  0  0  0  0  0
   12.5640    2.4101   23.2125 N   0  0  0  0  0  0  0  0  0  0  0  0
   11.8979    3.6605   23.2366 C   0  0  0  0  0  0  0  0  0  0  0  0
   10.5929    3.8542   22.7950 C   0  0  0  0  0  0  0  0  0  0  0  0
   10.0366    5.1200   22.8631 C   0  0  0  0  0  0  0  0  0  0  0  0
   10.7940    6.1520   23.3673 C   0  0  0  0  0  0  0  0  0  0  0  0
   12.0460    5.9969   23.7975 N   0  0  0  0  0  0  0  0  0  0  0  0
   12.5739    4.7715   23.7276 C   0  0  0  0  0  0  0  0  0  0  0  0
   12.4886   -1.2459   25.1434 C   0  0  0  0  0  0  0  0  0  0  0  0
   13.6301   -1.9610   25.7898 C   0  0  0  0  0  0  0  0  0  0  0  0
   14.4400   -2.5702   24.7437 C   0  0  0  0  0  0  0  0  0  0  0  0
   13.8871   -2.3074   23.4036 C   0  0  0  0  0  0  0  0  0  0  0  0
  1  2  1  0
  2  3  2  0
  3  4  1  0
  4  5  2  0
  5  6  1  0
  5  7  1  0
  7  8  1  0
  8  9  1  0
  9 10  2  0
  9 11  1  0
 11 12  1  0
 12 13  2  0
 13 14  1  0
 14 15  2  0
 15 16  1  0
 16 17  2  0
  7 18  1  0
 18 19  1  0
 19 20  1  0
 20 21  1  0
  6  2  1  0
 21  7  1  0
 17 12  1  0
M  END
