CVD-0001629|dock_bobby27042020.37|mol2|34|dock1
     RDKit          3D

 18 19  0  0  0  0  0  0  0  0999 V2000
   11.7158    0.7166   23.0810 C   0  0  0  0  0  0  0  0  0  0  0  0
   12.2071   -0.6350   22.5872 C   0  0  0  0  0  0  0  0  0  0  0  0
   11.1033   -1.3525   21.8326 C   0  0  0  0  0  0  0  0  0  0  0  0
    9.9901   -1.6620   22.7346 N   0  0  0  0  0  0  0  0  0  0  0  0
    8.7969   -2.1910   22.1056 C   0  0  0  0  0  0  0  0  0  0  0  0
    8.0792   -1.2041   21.3250 N   0  0  0  0  0  0  0  0  0  0  0  0
    6.8108   -1.6505   20.7098 C   0  0  0  0  0  0  0  0  0  0  0  0
    6.5697   -1.0595   19.3287 C   0  0  0  0  0  0  0  0  0  0  0  0
    5.7772    0.2606   19.3108 C   0  0  0  0  0  0  0  0  0  0  0  0
    6.1256    1.0754   20.4351 O   0  0  0  0  0  0  0  0  0  0  0  0
    7.5139    1.1670   20.7374 C   0  0  0  0  0  0  0  0  0  0  0  0
    7.9489    0.1828   21.7961 C   0  0  0  0  0  0  0  0  0  0  0  0
   10.4743   -2.5214   23.8118 C   0  0  0  0  0  0  0  0  0  0  0  0
   11.5739   -1.8307   24.5978 C   0  0  0  0  0  0  0  0  0  0  0  0
   12.6762   -1.4534   23.7076 N   0  0  0  0  0  0  0  0  0  0  0  0
   13.9929   -1.7630   23.7962 C   0  0  0  0  0  0  0  0  0  0  0  0
   14.4713   -2.6215   24.9308 C   0  0  0  0  0  0  0  0  0  0  0  0
   14.7799   -1.3579   22.9480 O   0  0  0  0  0  0  0  0  0  0  0  0
  1  2  1  0
  2  3  1  0
  3  4  1  0
  4  5  1  0
  5  6  1  0
  6  7  1  0
  7  8  1  0
  8  9  1  0
  9 10  1  0
 10 11  1  0
 11 12  1  0
  4 13  1  0
 13 14  1  0
 14 15  1  0
 15 16  1  0
 16 17  1  0
 16 18  2  0
 15  2  1  0
 12  6  1  0
M  END
