CVD-0003585|dock_bobby27042020.1|mol2|32|dock3
     RDKit          3D

 26 28  0  0  0  0  0  0  0  0999 V2000
   14.1482    6.4348   21.8794 C   0  0  0  0  0  0  0  0  0  0  0  0
   13.3206    5.2529   21.6489 N   0  0  0  0  0  0  0  0  0  0  0  0
   12.3980    4.7082   22.8562 S   0  0  0  0  0  0  0  0  0  0  0  0
   11.0850    5.2370   22.6458 O   0  0  0  0  0  0  0  0  0  0  0  0
   13.0886    5.0072   24.0733 O   0  0  0  0  0  0  0  0  0  0  0  0
   12.3033    2.9566   22.7070 C   0  0  0  0  0  0  0  0  0  0  0  0
   13.4740    2.2227   22.5940 C   0  0  0  0  0  0  0  0  0  0  0  0
   13.4222    0.8664   22.4822 C   0  0  0  0  0  0  0  0  0  0  0  0
   12.1834    0.1820   22.4803 C   0  0  0  0  0  0  0  0  0  0  0  0
   12.0744   -1.2239   22.3659 C   0  0  0  0  0  0  0  0  0  0  0  0
   10.8564   -1.8334   22.3704 C   0  0  0  0  0  0  0  0  0  0  0  0
    9.6812   -1.1052   22.4884 C   0  0  0  0  0  0  0  0  0  0  0  0
    8.3458   -1.8121   22.4826 C   0  0  0  0  0  0  0  0  0  0  0  0
    7.5927   -1.6896   21.2244 N   0  0  0  0  0  0  0  0  0  0  0  0
    8.4249   -1.0738   20.1866 C   0  0  0  0  0  0  0  0  0  0  0  0
    7.6575   -0.9874   18.8805 C   0  0  0  0  0  0  0  0  0  0  0  0
    6.4239   -0.2191   19.0617 N   0  0  0  0  0  0  0  0  0  0  0  0
    5.5956   -0.7758   20.1359 C   0  0  0  0  0  0  0  0  0  0  0  0
    6.3964   -0.8751   21.4215 C   0  0  0  0  0  0  0  0  0  0  0  0
    6.1063    0.8472   18.2967 C   0  0  0  0  0  0  0  0  0  0  0  0
    6.8415    1.2270   17.3939 O   0  0  0  0  0  0  0  0  0  0  0  0
    4.8060    1.5656   18.6010 C   0  0  0  0  0  0  0  0  0  0  0  0
    4.8510    2.3080   20.2053 Cl  0  0  0  0  0  0  0  0  0  0  0  0
    9.7514    0.2590   22.5981 C   0  0  0  0  0  0  0  0  0  0  0  0
   10.9910    0.9392   22.5985 C   0  0  0  0  0  0  0  0  0  0  0  0
   11.0840    2.3454   22.7124 C   0  0  0  0  0  0  0  0  0  0  0  0
  1  2  1  0
  2  3  1  0
  3  4  2  0
  3  5  2  0
  3  6  1  0
  6  7  2  0
  7  8  1  0
  8  9  2  0
  9 10  1  0
 10 11  2  0
 11 12  1  0
 12 13  1  0
 13 14  1  0
 14 15  1  0
 15 16  1  0
 16 17  1  0
 17 18  1  0
 18 19  1  0
 17 20  1  0
 20 21  2  0
 20 22  1  0
 22 23  1  0
 12 24  2  0
 24 25  1  0
 25 26  2  0
 26  6  1  0
 25  9  1  0
 19 14  1  0
M  END
