CVD-0001509|dock_bobby27042020.95|mol2|8|dock3
     RDKit          3D

 33 36  0  0  0  0  0  0  0  0999 V2000
   12.2958    4.6356   23.4515 C   0  0  0  0  0  0  0  0  0  0  0  0
   11.9384    3.2128   23.1767 C   0  0  0  0  0  0  0  0  0  0  0  0
   12.6449    2.1987   23.5852 N   0  0  0  0  0  0  0  0  0  0  0  0
   12.1084    0.9828   23.2009 C   0  0  0  0  0  0  0  0  0  0  0  0
   10.9401    1.1238   22.4853 C   0  0  0  0  0  0  0  0  0  0  0  0
   10.1194    0.1290   21.9814 N   0  0  0  0  0  0  0  0  0  0  0  0
    8.7517    0.1999   21.9444 C   0  0  0  0  0  0  0  0  0  0  0  0
    8.1212    1.1699   22.3625 O   0  0  0  0  0  0  0  0  0  0  0  0
    8.0996   -1.0469   21.3355 C   0  0  0  0  0  0  0  0  0  0  0  0
    7.7285   -0.9053   20.1759 O   0  0  0  0  0  0  0  0  0  0  0  0
    7.9315   -2.2166   21.9849 N   0  0  0  0  0  0  0  0  0  0  0  0
    7.2443   -3.3926   21.4576 C   0  0  0  0  0  0  0  0  0  0  0  0
    6.2994   -3.9509   22.5018 C   0  0  0  0  0  0  0  0  0  0  0  0
    7.0556   -4.2949   23.7791 C   0  0  0  0  0  0  0  0  0  0  0  0
    7.8072   -3.0618   24.2752 C   0  0  0  0  0  0  0  0  0  0  0  0
    8.7143   -2.5098   23.1805 C   0  0  0  0  0  0  0  0  0  0  0  0
    6.1126   -4.8175   24.8417 C   0  0  0  0  0  0  0  0  0  0  0  0
    4.9111   -4.5715   24.7893 O   0  0  0  0  0  0  0  0  0  0  0  0
    6.7310   -5.5464   25.8036 N   0  0  0  0  0  0  0  0  0  0  0  0
    6.1972   -6.1913   26.9512 C   0  0  0  0  0  0  0  0  0  0  0  0
    4.9089   -6.7275   27.0026 C   0  0  0  0  0  0  0  0  0  0  0  0
    4.4817   -7.3905   28.1424 C   0  0  0  0  0  0  0  0  0  0  0  0
    5.3130   -7.5366   29.2311 C   0  0  0  0  0  0  0  0  0  0  0  0
    6.5841   -6.9935   29.2076 C   0  0  0  0  0  0  0  0  0  0  0  0
    7.0184   -6.2991   28.0863 C   0  0  0  0  0  0  0  0  0  0  0  0
    8.2501   -5.7225   28.1117 O   0  0  0  0  0  0  0  0  0  0  0  0
   10.5371    2.7868   22.2544 S   0  0  0  0  0  0  0  0  0  0  0  0
   12.8662   -0.2167   23.6227 C   0  0  0  0  0  0  0  0  0  0  0  0
   13.2527   -0.3309   24.9547 C   0  0  0  0  0  0  0  0  0  0  0  0
   13.9310   -1.4501   25.4069 C   0  0  0  0  0  0  0  0  0  0  0  0
   14.2374   -2.4731   24.5369 C   0  0  0  0  0  0  0  0  0  0  0  0
   13.8849   -2.3664   23.2095 C   0  0  0  0  0  0  0  0  0  0  0  0
   13.2232   -1.2404   22.7479 C   0  0  0  0  0  0  0  0  0  0  0  0
  1  2  1  0
  2  3  2  0
  3  4  1  0
  4  5  2  0
  5  6  1  0
  6  7  1  0
  7  8  2  0
  7  9  1  0
  9 10  2  0
  9 11  1  0
 11 12  1  0
 12 13  1  0
 13 14  1  0
 14 15  1  0
 15 16  1  0
 14 17  1  0
 17 18  2  0
 17 19  1  0
 19 20  1  0
 20 21  2  0
 21 22  1  0
 22 23  2  0
 23 24  1  0
 24 25  2  0
 25 26  1  0
  5 27  1  0
  4 28  1  0
 28 29  2  0
 29 30  1  0
 30 31  2  0
 31 32  1  0
 32 33  2  0
 27  2  1  0
 33 28  1  0
 16 11  1  0
 25 20  1  0
M  END
