CVD-0002776|dock_bobby27042020.47|mol2|23|dock2
     RDKit          3D

 23 24  0  0  0  0  0  0  0  0999 V2000
    9.0651   -2.9039   26.2992 C   0  0  0  0  0  0  0  0  0  0  0  0
    9.4871   -4.2263   25.8377 N   0  0  0  0  0  0  0  0  0  0  0  0
    9.2336   -5.3116   26.7811 C   0  0  0  0  0  0  0  0  0  0  0  0
   10.0219   -4.4773   24.6321 C   0  0  0  0  0  0  0  0  0  0  0  0
   10.3358   -5.6102   24.3097 O   0  0  0  0  0  0  0  0  0  0  0  0
   10.2324   -3.3696   23.6354 C   0  0  0  0  0  0  0  0  0  0  0  0
   11.5561   -3.0176   23.3759 C   0  0  0  0  0  0  0  0  0  0  0  0
   11.8523   -2.0629   22.4195 C   0  0  0  0  0  0  0  0  0  0  0  0
   10.8290   -1.4239   21.7421 C   0  0  0  0  0  0  0  0  0  0  0  0
    9.4955   -1.7001   22.0427 C   0  0  0  0  0  0  0  0  0  0  0  0
    8.5058   -0.8557   21.2880 C   0  0  0  0  0  0  0  0  0  0  0  0
    7.5118   -0.4354   21.8728 O   0  0  0  0  0  0  0  0  0  0  0  0
    8.6955   -0.5860   19.9889 N   0  0  0  0  0  0  0  0  0  0  0  0
    7.7720    0.2424   19.2216 C   0  0  0  0  0  0  0  0  0  0  0  0
    8.0248    0.3280   17.8029 C   0  0  0  0  0  0  0  0  0  0  0  0
    6.8897   -0.5010   18.3126 C   0  0  0  0  0  0  0  0  0  0  0  0
    7.0131   -1.8976   18.2137 F   0  0  0  0  0  0  0  0  0  0  0  0
    9.1851   -2.7014   22.9823 C   0  0  0  0  0  0  0  0  0  0  0  0
    7.4051   -3.1878   23.3997 Br  0  0  0  0  0  0  0  0  0  0  0  0
   13.5359   -1.6677   22.0562 S   0  0  0  0  0  0  0  0  0  0  0  0
   13.7498   -1.7663   20.4727 N   0  0  0  0  0  0  0  0  0  0  0  0
   14.3521   -2.6794   22.6574 O   0  0  0  0  0  0  0  0  0  0  0  0
   13.7440   -0.3002   22.4273 O   0  0  0  0  0  0  0  0  0  0  0  0
  1  2  1  0
  2  3  1  0
  2  4  1  0
  4  5  2  0
  4  6  1  0
  6  7  2  0
  7  8  1  0
  8  9  2  0
  9 10  1  0
 10 11  1  0
 11 12  2  0
 11 13  1  0
 14 13  1  0
 14 15  1  0
 15 16  1  0
 16 17  1  0
 10 18  2  0
 18 19  1  0
  8 20  1  0
 20 21  1  0
 20 22  2  0
 20 23  2  0
 18  6  1  0
 16 14  1  0
M  END
