CVD-0001215|dock_bobby27042020.67|mol2|45|dock1
     RDKit          3D

 25 27  0  0  0  0  0  0  0  0999 V2000
    8.5483   -3.6555   23.1793 C   0  0  0  0  0  0  0  0  0  0  0  0
    8.5682   -2.2069   23.0579 N   0  0  0  0  0  0  0  0  0  0  0  0
    7.3455   -1.5738   22.5875 C   0  0  0  0  0  0  0  0  0  0  0  0
    7.4906   -0.8710   21.2486 C   0  0  0  0  0  0  0  0  0  0  0  0
    8.5891   -0.7852   20.7104 O   0  0  0  0  0  0  0  0  0  0  0  0
    6.3169   -0.3948   20.7651 N   0  0  0  0  0  0  0  0  0  0  0  0
    6.0357    0.3045   19.5583 C   0  0  0  0  0  0  0  0  0  0  0  0
    6.6634    0.0468   18.3393 C   0  0  0  0  0  0  0  0  0  0  0  0
    6.3983    0.7046   17.2063 N   0  0  0  0  0  0  0  0  0  0  0  0
    5.4786    1.6643   17.2498 C   0  0  0  0  0  0  0  0  0  0  0  0
    4.7983    2.0020   18.3981 C   0  0  0  0  0  0  0  0  0  0  0  0
    5.0640    1.3235   19.5837 C   0  0  0  0  0  0  0  0  0  0  0  0
    4.3046    1.7188   20.8242 C   0  0  0  0  0  0  0  0  0  0  0  0
    9.7284   -1.5019   23.3065 C   0  0  0  0  0  0  0  0  0  0  0  0
   10.9066   -2.0575   23.6704 C   0  0  0  0  0  0  0  0  0  0  0  0
   11.8673   -1.0746   23.8388 N   0  0  0  0  0  0  0  0  0  0  0  0
   13.2000   -1.3154   24.2157 C   0  0  0  0  0  0  0  0  0  0  0  0
   13.5759   -2.7471   24.4611 C   0  0  0  0  0  0  0  0  0  0  0  0
   14.0087   -0.4041   24.3495 O   0  0  0  0  0  0  0  0  0  0  0  0
   11.2819    0.1745   23.5707 C   0  0  0  0  0  0  0  0  0  0  0  0
   11.8089    1.4625   23.5929 C   0  0  0  0  0  0  0  0  0  0  0  0
   10.9765    2.5247   23.2793 C   0  0  0  0  0  0  0  0  0  0  0  0
    9.6527    2.3150   22.9529 C   0  0  0  0  0  0  0  0  0  0  0  0
    9.1229    1.0355   22.9295 C   0  0  0  0  0  0  0  0  0  0  0  0
    9.9367   -0.0553   23.2366 C   0  0  0  0  0  0  0  0  0  0  0  0
  1  2  1  0
  2  3  1  0
  3  4  1  0
  4  5  2  0
  4  6  1  0
  6  7  1  0
  7  8  2  0
  8  9  1  0
  9 10  2  0
 10 11  1  0
 11 12  2  0
 12 13  1  0
  2 14  1  0
 14 15  2  0
 15 16  1  0
 16 17  1  0
 17 18  1  0
 17 19  2  0
 16 20  1  0
 20 21  2  0
 21 22  1  0
 22 23  2  0
 23 24  1  0
 24 25  2  0
 12  7  1  0
 25 14  1  0
 25 20  1  0
M  END
