CVD-0001104|dock_bobby27042020.82|mol2|11|dock2
     RDKit          3D

 26 29  0  0  0  0  0  0  0  0999 V2000
   13.7544    0.1008   22.7691 O   0  0  0  0  0  0  0  0  0  0  0  0
   13.4397   -0.7565   23.8696 C   0  0  0  0  0  0  0  0  0  0  0  0
   13.0842   -2.1748   23.4196 C   0  0  0  0  0  0  0  0  0  0  0  0
   11.7320   -2.2451   22.7038 C   0  0  0  0  0  0  0  0  0  0  0  0
   10.6487   -1.6864   23.6156 C   0  0  0  0  0  0  0  0  0  0  0  0
   10.9542   -0.2544   24.0446 C   0  0  0  0  0  0  0  0  0  0  0  0
   12.3180   -0.1904   24.7318 C   0  0  0  0  0  0  0  0  0  0  0  0
    9.3066   -1.7830   22.9827 N   0  0  0  0  0  0  0  0  0  0  0  0
    8.9490   -1.0906   21.8148 C   0  0  0  0  0  0  0  0  0  0  0  0
    9.8208   -0.5056   21.1862 O   0  0  0  0  0  0  0  0  0  0  0  0
    7.6385   -1.0685   21.3948 N   0  0  0  0  0  0  0  0  0  0  0  0
    7.0383   -0.4450   20.2682 C   0  0  0  0  0  0  0  0  0  0  0  0
    5.7433    0.0369   20.4138 C   0  0  0  0  0  0  0  0  0  0  0  0
    5.1093    0.6512   19.3484 C   0  0  0  0  0  0  0  0  0  0  0  0
    5.7879    0.7689   18.1587 C   0  0  0  0  0  0  0  0  0  0  0  0
    7.0300    0.3198   17.9832 N   0  0  0  0  0  0  0  0  0  0  0  0
    7.6350   -0.2700   19.0192 C   0  0  0  0  0  0  0  0  0  0  0  0
    8.3427   -2.6324   23.6475 C   0  0  0  0  0  0  0  0  0  0  0  0
    7.9177   -2.3140   24.9395 C   0  0  0  0  0  0  0  0  0  0  0  0
    7.0078   -3.1252   25.5989 C   0  0  0  0  0  0  0  0  0  0  0  0
    6.5042   -4.2638   24.9971 C   0  0  0  0  0  0  0  0  0  0  0  0
    6.9000   -4.6178   23.6998 C   0  0  0  0  0  0  0  0  0  0  0  0
    6.5865   -5.6883   22.8053 C   0  0  0  0  0  0  0  0  0  0  0  0
    7.2907   -5.4742   21.6685 C   0  0  0  0  0  0  0  0  0  0  0  0
    8.0403   -4.3290   21.7845 N   0  0  0  0  0  0  0  0  0  0  0  0
    7.8242   -3.7841   23.0284 C   0  0  0  0  0  0  0  0  0  0  0  0
  1  2  1  0
  2  3  1  0
  3  4  1  0
  4  5  1  0
  5  6  1  0
  6  7  1  0
  5  8  1  0
  8  9  1  0
  9 10  2  0
  9 11  1  0
 11 12  1  0
 12 13  2  0
 13 14  1  0
 14 15  2  0
 15 16  1  0
 16 17  2  0
  8 18  1  0
 18 19  2  0
 19 20  1  0
 20 21  2  0
 21 22  1  0
 22 23  1  0
 23 24  2  0
 24 25  1  0
 25 26  1  0
  7  2  1  0
 17 12  1  0
 26 18  1  0
 26 22  2  0
M  END
