CVD-0003468|dock_bobby27042020.16|mol2|29|dock1
     RDKit          3D

 26 28  0  0  0  0  0  0  0  0999 V2000
    4.6871    1.7646   18.4597 C   0  0  0  0  0  0  0  0  0  0  0  0
    5.7886    1.2033   19.2398 N   0  0  0  0  0  0  0  0  0  0  0  0
    6.6598    0.3785   18.3942 C   0  0  0  0  0  0  0  0  0  0  0  0
    7.8408   -0.1710   19.1698 C   0  0  0  0  0  0  0  0  0  0  0  0
    7.4185   -0.9714   20.3959 C   0  0  0  0  0  0  0  0  0  0  0  0
    6.4357   -0.1313   21.2038 C   0  0  0  0  0  0  0  0  0  0  0  0
    5.2899    0.3942   20.3551 C   0  0  0  0  0  0  0  0  0  0  0  0
    8.5145   -1.3946   21.2179 O   0  0  0  0  0  0  0  0  0  0  0  0
    8.1913   -2.3136   22.2633 C   0  0  0  0  0  0  0  0  0  0  0  0
    9.4311   -2.7534   23.0004 C   0  0  0  0  0  0  0  0  0  0  0  0
    9.4709   -3.8902   23.4585 O   0  0  0  0  0  0  0  0  0  0  0  0
   10.4089   -1.8167   23.0755 N   0  0  0  0  0  0  0  0  0  0  0  0
   11.6981   -1.8737   23.6748 C   0  0  0  0  0  0  0  0  0  0  0  0
   12.2361   -3.0444   24.2162 C   0  0  0  0  0  0  0  0  0  0  0  0
   13.4984   -3.0240   24.7826 C   0  0  0  0  0  0  0  0  0  0  0  0
   14.1951   -1.8420   24.7977 C   0  0  0  0  0  0  0  0  0  0  0  0
   13.7114   -0.7052   24.2899 N   0  0  0  0  0  0  0  0  0  0  0  0
   12.4887   -0.7080   23.7378 C   0  0  0  0  0  0  0  0  0  0  0  0
   12.0221    0.6191   23.1854 C   0  0  0  0  0  0  0  0  0  0  0  0
   13.0732    1.6256   23.2110 N   0  0  0  0  0  0  0  0  0  0  0  0
   12.7914    2.9408   23.1271 C   0  0  0  0  0  0  0  0  0  0  0  0
   11.6409    3.3586   23.0252 O   0  0  0  0  0  0  0  0  0  0  0  0
   13.8581    3.7693   23.1626 N   0  0  0  0  0  0  0  0  0  0  0  0
   13.7426    5.2184   22.9978 C   0  0  0  0  0  0  0  0  0  0  0  0
   13.0072    5.2708   21.5282 C   0  0  0  0  0  0  0  0  0  0  0  0
   14.1336    6.1850   21.8503 C   0  0  0  0  0  0  0  0  0  0  0  0
  1  2  1  0
  2  3  1  0
  3  4  1  0
  4  5  1  0
  5  6  1  0
  6  7  1  0
  5  8  1  0
  8  9  1  0
  9 10  1  0
 10 11  2  0
 10 12  1  0
 12 13  1  0
 13 14  2  0
 14 15  1  0
 15 16  2  0
 16 17  1  0
 17 18  2  0
 18 19  1  0
 19 20  1  0
 20 21  1  0
 21 22  2  0
 21 23  1  0
 23 24  1  0
 24 25  1  0
 25 26  1  0
  7  2  1  0
 18 13  1  0
 26 24  1  0
M  END
