CVD-0002835|dock_bobby27042020.75|mol2|41|dock3
     RDKit          3D

 24 26  0  0  0  0  0  0  0  0999 V2000
   13.2488   -1.9086   20.7448 N   0  0  0  0  0  0  0  0  0  0  0  0
   13.0217   -1.7266   22.0361 C   0  0  0  0  0  0  0  0  0  0  0  0
   13.9303   -1.6651   22.8693 O   0  0  0  0  0  0  0  0  0  0  0  0
   11.5709   -1.6036   22.4591 C   0  0  0  0  0  0  0  0  0  0  0  0
   11.0096   -0.2024   22.3456 C   0  0  0  0  0  0  0  0  0  0  0  0
   11.8749    0.8408   22.6704 C   0  0  0  0  0  0  0  0  0  0  0  0
   11.4804    2.1650   22.6040 C   0  0  0  0  0  0  0  0  0  0  0  0
   10.1999    2.4723   22.2079 C   0  0  0  0  0  0  0  0  0  0  0  0
    9.3242    1.4521   21.8838 C   0  0  0  0  0  0  0  0  0  0  0  0
    9.6998    0.1098   21.9452 C   0  0  0  0  0  0  0  0  0  0  0  0
    8.6600   -0.9467   21.5729 C   0  0  0  0  0  0  0  0  0  0  0  0
    8.1834   -1.6907   22.7756 C   0  0  0  0  0  0  0  0  0  0  0  0
    7.3559   -0.8236   23.6505 N   0  0  0  0  0  0  0  0  0  0  0  0
    6.2746   -0.0444   23.0147 C   0  0  0  0  0  0  0  0  0  0  0  0
    6.3368    0.0232   21.4858 C   0  0  0  0  0  0  0  0  0  0  0  0
    5.2579    0.5319   20.7696 C   0  0  0  0  0  0  0  0  0  0  0  0
    5.2980    0.6282   19.3904 C   0  0  0  0  0  0  0  0  0  0  0  0
    6.4224    0.2146   18.7120 C   0  0  0  0  0  0  0  0  0  0  0  0
    7.4998   -0.2926   19.4171 C   0  0  0  0  0  0  0  0  0  0  0  0
    7.4811   -0.3989   20.8086 C   0  0  0  0  0  0  0  0  0  0  0  0
    7.5536   -0.6814   24.9839 C   0  0  0  0  0  0  0  0  0  0  0  0
    6.8454    0.0517   25.6630 O   0  0  0  0  0  0  0  0  0  0  0  0
    8.6790   -1.4585   25.6402 C   0  0  0  0  0  0  0  0  0  0  0  0
    8.6954   -1.1983   27.3893 Cl  0  0  0  0  0  0  0  0  0  0  0  0
  1  2  1  0
  2  3  2  0
  2  4  1  0
  4  5  1  0
  5  6  2  0
  6  7  1  0
  7  8  2  0
  8  9  1  0
  9 10  2  0
 10 11  1  0
 11 12  1  0
 12 13  1  0
 13 14  1  0
 14 15  1  0
 15 16  2  0
 16 17  1  0
 17 18  2  0
 18 19  1  0
 19 20  2  0
 13 21  1  0
 21 22  2  0
 21 23  1  0
 23 24  1  0
 10  5  1  0
 20 11  1  0
 20 15  1  0
M  END
