CVD-0004076|dock_bobby27042020.28|mol2|43|dock1
     RDKit          3D

 23 26  0  0  0  0  0  0  0  0999 V2000
    6.0848   -1.5135   20.5588 C   0  0  0  0  0  0  0  0  0  0  0  0
    7.4462   -1.0918   21.0384 C   0  0  0  0  0  0  0  0  0  0  0  0
    8.3909   -2.0680   21.4447 C   0  0  0  0  0  0  0  0  0  0  0  0
    9.6160   -1.7249   21.8837 C   0  0  0  0  0  0  0  0  0  0  0  0
    9.9802   -0.3905   21.9455 N   0  0  0  0  0  0  0  0  0  0  0  0
   11.1549    0.2472   22.3558 C   0  0  0  0  0  0  0  0  0  0  0  0
   10.8999    1.5999   22.1899 C   0  0  0  0  0  0  0  0  0  0  0  0
    9.6183    1.8023   21.7156 N   0  0  0  0  0  0  0  0  0  0  0  0
    9.0830    0.5982   21.5680 C   0  0  0  0  0  0  0  0  0  0  0  0
    7.8016    0.2223   21.1091 C   0  0  0  0  0  0  0  0  0  0  0  0
   11.7140    2.8152   22.4102 C   0  0  0  0  0  0  0  0  0  0  0  0
   11.0697    4.0335   22.5985 C   0  0  0  0  0  0  0  0  0  0  0  0
   11.7839    5.1947   22.8339 C   0  0  0  0  0  0  0  0  0  0  0  0
   13.1487    5.1206   22.8745 C   0  0  0  0  0  0  0  0  0  0  0  0
   13.8571    6.2554   23.1214 F   0  0  0  0  0  0  0  0  0  0  0  0
   13.8304    3.9517   22.6753 C   0  0  0  0  0  0  0  0  0  0  0  0
   13.1055    2.7999   22.4254 C   0  0  0  0  0  0  0  0  0  0  0  0
   12.3419   -0.4930   22.8533 C   0  0  0  0  0  0  0  0  0  0  0  0
   12.8668   -1.5856   22.1712 C   0  0  0  0  0  0  0  0  0  0  0  0
   13.9663   -2.2397   22.6910 C   0  0  0  0  0  0  0  0  0  0  0  0
   14.5743   -1.8873   23.8231 N   0  0  0  0  0  0  0  0  0  0  0  0
   14.0696   -0.8372   24.4699 C   0  0  0  0  0  0  0  0  0  0  0  0
   12.9735   -0.1191   24.0345 C   0  0  0  0  0  0  0  0  0  0  0  0
  1  2  1  0
  2  3  1  0
  3  4  2  0
  4  5  1  0
  5  6  1  0
  6  7  2  0
  7  8  1  0
  8  9  2  0
  9 10  1  0
  7 11  1  0
 11 12  2  0
 12 13  1  0
 13 14  2  0
 14 15  1  0
 14 16  1  0
 16 17  2  0
  6 18  1  0
 18 19  2  0
 19 20  1  0
 20 21  2  0
 21 22  1  0
 22 23  2  0
 10  2  2  0
 17 11  1  0
 23 18  1  0
  9  5  1  0
M  END
