CVD-0002120|dock_bobby27042020.21|mol2|28|dock1
     RDKit          3D

 21 23  0  0  0  0  0  0  0  0999 V2000
   10.1117    2.4926   22.5517 C   0  0  0  0  0  0  0  0  0  0  0  0
    9.6666    1.1192   23.0308 C   0  0  0  0  0  0  0  0  0  0  0  0
    9.1029    0.2963   21.8260 C   0  0  0  0  0  0  0  0  0  0  0  0
    8.6718   -1.1177   22.2536 C   0  0  0  0  0  0  0  0  0  0  0  0
    9.7927   -1.7887   23.0456 C   0  0  0  0  0  0  0  0  0  0  0  0
   10.2340   -0.9082   24.2046 C   0  0  0  0  0  0  0  0  0  0  0  0
   10.7175    0.3802   23.7131 N   0  0  0  0  0  0  0  0  0  0  0  0
   11.9274    0.2046   22.8977 C   0  0  0  0  0  0  0  0  0  0  0  0
   12.9304   -0.7450   23.5086 C   0  0  0  0  0  0  0  0  0  0  0  0
   13.3512   -1.8709   22.8179 C   0  0  0  0  0  0  0  0  0  0  0  0
   14.2686   -2.7434   23.3791 C   0  0  0  0  0  0  0  0  0  0  0  0
   14.7748   -2.5002   24.6379 C   0  0  0  0  0  0  0  0  0  0  0  0
   14.3634   -1.3849   25.3356 C   0  0  0  0  0  0  0  0  0  0  0  0
   13.4459   -0.5125   24.7741 C   0  0  0  0  0  0  0  0  0  0  0  0
    7.9658    1.0194   21.3046 O   0  0  0  0  0  0  0  0  0  0  0  0
    7.2024    0.4548   20.3307 C   0  0  0  0  0  0  0  0  0  0  0  0
    5.8568    0.8168   20.3353 C   0  0  0  0  0  0  0  0  0  0  0  0
    5.0534    0.2615   19.3548 C   0  0  0  0  0  0  0  0  0  0  0  0
    5.6020   -0.6054   18.4351 C   0  0  0  0  0  0  0  0  0  0  0  0
    6.9458   -0.8885   18.5286 C   0  0  0  0  0  0  0  0  0  0  0  0
    7.7558   -0.3713   19.4624 N   0  0  0  0  0  0  0  0  0  0  0  0
  1  2  1  0
  2  3  1  0
  3  4  1  0
  4  5  1  0
  5  6  1  0
  6  7  1  0
  7  8  1  0
  8  9  1  0
  9 10  2  0
 10 11  1  0
 11 12  2  0
 12 13  1  0
 13 14  2  0
  3 15  1  0
 15 16  1  0
 16 17  2  0
 17 18  1  0
 18 19  2  0
 19 20  1  0
 20 21  2  0
  7  2  1  0
 14  9  1  0
 21 16  1  0
M  END
