CVD-0002498|dock_bobby27042020.34|mol2|12|dock2
     RDKit          3D

 31 33  0  0  0  0  0  0  0  0999 V2000
    9.7150   -5.6938   25.9122 C   0  0  0  0  0  0  0  0  0  0  0  0
    8.6988   -4.5752   25.8352 C   0  0  0  0  0  0  0  0  0  0  0  0
    7.4316   -5.1380   25.4415 O   0  0  0  0  0  0  0  0  0  0  0  0
    7.0003   -4.5519   24.1961 C   0  0  0  0  0  0  0  0  0  0  0  0
    6.2751   -5.5940   23.3623 C   0  0  0  0  0  0  0  0  0  0  0  0
    4.9462   -5.9748   23.8635 N   0  0  0  0  0  0  0  0  0  0  0  0
    5.0280   -7.2132   24.6435 C   0  0  0  0  0  0  0  0  0  0  0  0
    3.6617   -7.5792   25.1926 C   0  0  0  0  0  0  0  0  0  0  0  0
    2.6959   -7.7309   24.1021 N   0  0  0  0  0  0  0  0  0  0  0  0
    2.6344   -6.5281   23.2658 C   0  0  0  0  0  0  0  0  0  0  0  0
    4.0177   -6.1712   22.7532 C   0  0  0  0  0  0  0  0  0  0  0  0
    1.9505   -8.8423   23.9346 C   0  0  0  0  0  0  0  0  0  0  0  0
    2.0315   -9.7986   24.6953 O   0  0  0  0  0  0  0  0  0  0  0  0
    0.9975   -8.8478   22.7552 C   0  0  0  0  0  0  0  0  0  0  0  0
    1.8429   -8.8522   21.2020 Cl  0  0  0  0  0  0  0  0  0  0  0  0
    8.2728   -4.0097   23.5610 C   0  0  0  0  0  0  0  0  0  0  0  0
    8.0371   -2.9480   22.6419 O   0  0  0  0  0  0  0  0  0  0  0  0
    9.0466   -3.5165   24.7636 C   0  0  0  0  0  0  0  0  0  0  0  0
   10.4397   -3.4049   24.4635 O   0  0  0  0  0  0  0  0  0  0  0  0
   10.8854   -2.4498   23.4938 C   0  0  0  0  0  0  0  0  0  0  0  0
   10.6349   -1.0230   23.9146 C   0  0  0  0  0  0  0  0  0  0  0  0
   11.3108   -0.0129   23.0088 C   0  0  0  0  0  0  0  0  0  0  0  0
   10.8202    1.3315   23.2637 N   0  0  0  0  0  0  0  0  0  0  0  0
   11.5042    2.4658   22.9486 C   0  0  0  0  0  0  0  0  0  0  0  0
   10.8560    3.6959   22.8418 C   0  0  0  0  0  0  0  0  0  0  0  0
   11.6078    4.8111   22.5187 C   0  0  0  0  0  0  0  0  0  0  0  0
   12.9761    4.6839   22.3096 C   0  0  0  0  0  0  0  0  0  0  0  0
   13.5309    3.4143   22.4388 C   0  0  0  0  0  0  0  0  0  0  0  0
   12.8188    2.3256   22.7505 N   0  0  0  0  0  0  0  0  0  0  0  0
   13.7905    5.8251   21.9715 C   0  0  0  0  0  0  0  0  0  0  0  0
   14.4342    6.7387   21.7355 N   0  0  0  0  0  0  0  0  0  0  0  0
  1  2  1  0
  2  3  1  0
  3  4  1  0
  4  5  1  0
  5  6  1  0
  6  7  1  0
  7  8  1  0
  8  9  1  0
  9 10  1  0
 10 11  1  0
  9 12  1  0
 12 13  2  0
 12 14  1  0
 14 15  1  0
  4 16  1  0
 16 17  1  0
 16 18  1  0
 18 19  1  0
 19 20  1  0
 20 21  1  0
 21 22  1  0
 22 23  1  0
 23 24  1  0
 24 25  2  0
 25 26  1  0
 26 27  2  0
 27 28  1  0
 28 29  2  0
 27 30  1  0
 30 31  3  0
 18  2  1  0
 29 24  1  0
 11  6  1  0
M  END
