CVD-0003864|dock_bobby27042020.15|mol2|18|dock1
     RDKit          3D

 24 26  0  0  0  0  0  0  0  0999 V2000
   13.5783    5.7002   21.5135 N   0  0  0  0  0  0  0  0  0  0  0  0
   13.5142    5.0486   22.9745 S   0  0  0  0  0  0  0  0  0  0  0  0
   12.6700    5.8846   23.7742 O   0  0  0  0  0  0  0  0  0  0  0  0
   14.8639    4.8226   23.3969 O   0  0  0  0  0  0  0  0  0  0  0  0
   12.7288    3.4705   22.8499 C   0  0  0  0  0  0  0  0  0  0  0  0
   13.4936    2.3328   22.6646 C   0  0  0  0  0  0  0  0  0  0  0  0
   12.8741    1.0989   22.5746 C   0  0  0  0  0  0  0  0  0  0  0  0
   11.4905    0.9800   22.6638 C   0  0  0  0  0  0  0  0  0  0  0  0
   10.7422    2.1383   22.8508 C   0  0  0  0  0  0  0  0  0  0  0  0
   11.3519    3.3765   22.9465 C   0  0  0  0  0  0  0  0  0  0  0  0
   10.8733   -0.2601   22.5693 N   0  0  0  0  0  0  0  0  0  0  0  0
   11.4116   -1.4672   23.2035 C   0  0  0  0  0  0  0  0  0  0  0  0
   10.3477   -2.2530   23.9163 C   0  0  0  0  0  0  0  0  0  0  0  0
    9.2024   -2.6170   22.9650 C   0  0  0  0  0  0  0  0  0  0  0  0
    8.1120   -3.4203   23.6757 C   0  0  0  0  0  0  0  0  0  0  0  0
    8.7072   -4.9499   24.4501 S   0  0  0  0  0  0  0  0  0  0  0  0
    7.6451   -5.0930   25.9283 C   0  0  0  0  0  0  0  0  0  0  0  0
    6.2047   -5.4881   25.5435 C   0  0  0  0  0  0  0  0  0  0  0  0
    5.3087   -5.6867   26.7646 C   0  0  0  0  0  0  0  0  0  0  0  0
    5.9155   -6.6859   27.7412 C   0  0  0  0  0  0  0  0  0  0  0  0
    7.3248   -6.2748   28.1425 C   0  0  0  0  0  0  0  0  0  0  0  0
    8.2230   -6.1172   26.9199 C   0  0  0  0  0  0  0  0  0  0  0  0
    8.6745   -1.3518   22.3371 C   0  0  0  0  0  0  0  0  0  0  0  0
    9.7501   -0.5417   21.6454 C   0  0  0  0  0  0  0  0  0  0  0  0
  1  2  1  0
  2  3  2  0
  2  4  2  0
  2  5  1  0
  5  6  2  0
  6  7  1  0
  7  8  2  0
  8  9  1  0
  9 10  2  0
  8 11  1  0
 11 12  1  0
 12 13  1  0
 13 14  1  0
 14 15  1  0
 15 16  1  0
 16 17  1  0
 17 18  1  0
 18 19  1  0
 19 20  1  0
 20 21  1  0
 21 22  1  0
 14 23  1  0
 23 24  1  0
 10  5  1  0
 24 11  1  0
 22 17  1  0
M  END
