CVD-0000509|dock_bobby27042020.70|mol2|2|dock2
     RDKit          3D

 39 41  0  0  0  0  0  0  0  0999 V2000
    6.3320   -0.9516   18.1126 C   0  0  0  0  0  0  0  0  0  0  0  0
    5.8616    0.4637   17.9911 C   0  0  0  0  0  0  0  0  0  0  0  0
    6.0227    1.0173   16.9166 O   0  0  0  0  0  0  0  0  0  0  0  0
    5.2358    1.1653   19.1528 C   0  0  0  0  0  0  0  0  0  0  0  0
    4.0525    1.8757   18.9157 C   0  0  0  0  0  0  0  0  0  0  0  0
    3.3944    2.5577   19.9185 C   0  0  0  0  0  0  0  0  0  0  0  0
    3.9310    2.5245   21.1702 C   0  0  0  0  0  0  0  0  0  0  0  0
    3.2931    3.1920   22.1695 F   0  0  0  0  0  0  0  0  0  0  0  0
    5.0850    1.8504   21.4748 C   0  0  0  0  0  0  0  0  0  0  0  0
    5.7657    1.1543   20.4724 C   0  0  0  0  0  0  0  0  0  0  0  0
    6.9683    0.4381   20.7313 N   0  0  0  0  0  0  0  0  0  0  0  0
    7.3405   -0.3132   21.8212 C   0  0  0  0  0  0  0  0  0  0  0  0
    6.6752   -0.5217   22.8313 O   0  0  0  0  0  0  0  0  0  0  0  0
    8.5780   -0.8371   21.6814 N   0  0  0  0  0  0  0  0  0  0  0  0
    9.1904   -1.5924   22.7621 C   0  0  0  0  0  0  0  0  0  0  0  0
   10.7009   -1.7479   22.5228 C   0  0  0  0  0  0  0  0  0  0  0  0
   11.4836   -0.4600   22.6176 C   0  0  0  0  0  0  0  0  0  0  0  0
   12.8699   -0.4635   22.6252 C   0  0  0  0  0  0  0  0  0  0  0  0
   13.5888    0.7162   22.7005 C   0  0  0  0  0  0  0  0  0  0  0  0
   12.9205    1.9280   22.7686 C   0  0  0  0  0  0  0  0  0  0  0  0
   13.6229    3.0955   22.8404 O   0  0  0  0  0  0  0  0  0  0  0  0
   11.5352    1.9475   22.7636 C   0  0  0  0  0  0  0  0  0  0  0  0
   10.8295    0.7598   22.6916 C   0  0  0  0  0  0  0  0  0  0  0  0
    8.5290   -2.9605   22.9061 C   0  0  0  0  0  0  0  0  0  0  0  0
    8.1721   -3.5762   21.9056 O   0  0  0  0  0  0  0  0  0  0  0  0
    8.3703   -3.4137   24.1546 N   0  0  0  0  0  0  0  0  0  0  0  0
    7.7568   -4.6946   24.5061 C   0  0  0  0  0  0  0  0  0  0  0  0
    6.4313   -4.9039   23.7638 C   0  0  0  0  0  0  0  0  0  0  0  0
    5.6011   -6.0007   24.2719 N   0  0  0  0  0  0  0  0  0  0  0  0
    4.5921   -6.5964   23.0242 S   0  0  0  0  0  0  0  0  0  0  0  0
    5.4631   -7.1215   21.8810 N   0  0  0  0  0  0  0  0  0  0  0  0
    3.8140   -7.7325   23.5623 O   0  0  0  0  0  0  0  0  0  0  0  0
    3.7956   -5.4664   22.5004 O   0  0  0  0  0  0  0  0  0  0  0  0
    7.5774   -4.8307   26.0064 C   0  0  0  0  0  0  0  0  0  0  0  0
    8.0812   -5.9393   26.6726 C   0  0  0  0  0  0  0  0  0  0  0  0
    7.9197   -6.0796   28.0409 C   0  0  0  0  0  0  0  0  0  0  0  0
    7.2514   -5.1135   28.7615 C   0  0  0  0  0  0  0  0  0  0  0  0
    6.7452   -4.0069   28.1144 C   0  0  0  0  0  0  0  0  0  0  0  0
    6.9071   -3.8653   26.7462 C   0  0  0  0  0  0  0  0  0  0  0  0
  1  2  1  0
  2  3  2  0
  2  4  1  0
  4  5  2  0
  5  6  1  0
  6  7  2  0
  7  8  1  0
  7  9  1  0
  9 10  2  0
 10 11  1  0
 11 12  1  0
 12 13  2  0
 12 14  1  0
 14 15  1  0
 15 16  1  0
 16 17  1  0
 17 18  2  0
 18 19  1  0
 19 20  2  0
 20 21  1  0
 20 22  1  0
 22 23  2  0
 15 24  1  0
 24 25  2  0
 24 26  1  0
 26 27  1  0
 27 28  1  0
 28 29  1  0
 29 30  1  0
 30 31  1  0
 30 32  2  0
 30 33  2  0
 27 34  1  0
 34 35  2  0
 35 36  1  0
 36 37  2  0
 37 38  1  0
 38 39  2  0
 10  4  1  0
 23 17  1  0
 39 34  1  0
M  END
