CVD-0000092|dock_bobby27042020.57|mol2|18|dock3
     RDKit          3D

 16 16  0  0  0  0  0  0  0  0999 V2000
    4.1323    1.9169   18.8874 C   0  0  0  0  0  0  0  0  0  0  0  0
    5.2117    1.4712   17.9280 C   0  0  0  0  0  0  0  0  0  0  0  0
    6.4640    0.8855   18.5681 C   0  0  0  0  0  0  0  0  0  0  0  0
    6.3056   -0.3773   19.4133 C   0  0  0  0  0  0  0  0  0  0  0  0
    5.7438   -1.5550   18.6285 C   0  0  0  0  0  0  0  0  0  0  0  0
    7.6155   -0.7636   19.9319 N   0  0  0  0  0  0  0  0  0  0  0  0
    7.7831   -1.5110   21.0249 C   0  0  0  0  0  0  0  0  0  0  0  0
    6.8504   -1.9427   21.6955 O   0  0  0  0  0  0  0  0  0  0  0  0
    9.2025   -1.8295   21.4219 C   0  0  0  0  0  0  0  0  0  0  0  0
    9.8613   -0.6623   21.9021 O   0  0  0  0  0  0  0  0  0  0  0  0
   11.0884   -0.7591   22.5116 C   0  0  0  0  0  0  0  0  0  0  0  0
   11.4124    0.1791   23.4770 C   0  0  0  0  0  0  0  0  0  0  0  0
   12.6399    0.1150   24.1141 C   0  0  0  0  0  0  0  0  0  0  0  0
   13.5393   -0.8774   23.7918 C   0  0  0  0  0  0  0  0  0  0  0  0
   13.2156   -1.8104   22.8309 C   0  0  0  0  0  0  0  0  0  0  0  0
   11.9918   -1.7606   22.1838 C   0  0  0  0  0  0  0  0  0  0  0  0
  1  2  1  0
  2  3  1  0
  3  4  1  0
  4  5  1  0
  4  6  1  0
  6  7  1  0
  7  8  2  0
  7  9  1  0
  9 10  1  0
 10 11  1  0
 11 12  2  0
 12 13  1  0
 13 14  2  0
 14 15  1  0
 15 16  2  0
 16 11  1  0
M  END
