CVD-0001062|dock_bobby27042020.39|mol2|26|dock2
     RDKit          3D

 25 28  0  0  0  0  0  0  0  0999 V2000
    5.6477   -3.4353   19.2765 O   0  0  0  0  0  0  0  0  0  0  0  0
    5.9350   -4.4221   19.9511 N   0  0  0  0  0  0  0  0  0  0  0  0
    5.4767   -5.5240   19.7015 O   0  0  0  0  0  0  0  0  0  0  0  0
    6.8510   -4.2277   21.0700 C   0  0  0  0  0  0  0  0  0  0  0  0
    6.9651   -5.2592   21.9915 C   0  0  0  0  0  0  0  0  0  0  0  0
    7.8155   -5.1172   23.0590 C   0  0  0  0  0  0  0  0  0  0  0  0
    7.9001   -6.1498   23.9405 F   0  0  0  0  0  0  0  0  0  0  0  0
    8.5689   -4.0165   23.2822 C   0  0  0  0  0  0  0  0  0  0  0  0
    8.4836   -2.9425   22.3688 C   0  0  0  0  0  0  0  0  0  0  0  0
    9.2374   -1.7591   22.5314 C   0  0  0  0  0  0  0  0  0  0  0  0
    9.1457   -0.7215   21.6361 C   0  0  0  0  0  0  0  0  0  0  0  0
    9.9698    0.4813   21.8811 C   0  0  0  0  0  0  0  0  0  0  0  0
   10.3823    1.3550   21.0091 N   0  0  0  0  0  0  0  0  0  0  0  0
   11.1136    2.2805   21.7467 C   0  0  0  0  0  0  0  0  0  0  0  0
   11.7974    3.4364   21.3714 C   0  0  0  0  0  0  0  0  0  0  0  0
   12.4391    4.1546   22.3630 C   0  0  0  0  0  0  0  0  0  0  0  0
   13.3780    5.7333   21.8792 Br  0  0  0  0  0  0  0  0  0  0  0  0
   12.4256    3.7711   23.6909 C   0  0  0  0  0  0  0  0  0  0  0  0
   11.7452    2.6233   24.0560 C   0  0  0  0  0  0  0  0  0  0  0  0
   11.1000    1.8990   23.0674 C   0  0  0  0  0  0  0  0  0  0  0  0
   10.3641    0.7364   23.1726 O   0  0  0  0  0  0  0  0  0  0  0  0
    8.2634   -0.9251   20.5703 C   0  0  0  0  0  0  0  0  0  0  0  0
    8.0340    0.2908   19.3533 Cl  0  0  0  0  0  0  0  0  0  0  0  0
    7.5452   -1.9876   20.3674 N   0  0  0  0  0  0  0  0  0  0  0  0
    7.6227   -3.0309   21.2474 C   0  0  0  0  0  0  0  0  0  0  0  0
  1  2  1  0
  2  3  2  0
  2  4  1  0
  4  5  2  0
  5  6  1  0
  6  7  1  0
  6  8  2  0
  8  9  1  0
  9 10  2  0
 10 11  1  0
 11 12  1  0
 12 13  2  0
 13 14  1  0
 14 15  2  0
 15 16  1  0
 16 17  1  0
 16 18  2  0
 18 19  1  0
 19 20  2  0
 20 21  1  0
 11 22  2  0
 22 23  1  0
 22 24  1  0
 24 25  2  0
 25  4  1  0
 25  9  1  0
 21 12  1  0
 20 14  1  0
M  CHG  2   1  -1   2   1
M  END
