CVD-0003967|dock_bobby27042020.0|mol2|18|dock1
     RDKit          3D

 26 27  0  0  0  0  0  0  0  0999 V2000
    5.1896    1.8879   19.5450 C   0  0  0  0  0  0  0  0  0  0  0  0
    5.1879    0.4403   19.9306 C   0  0  0  0  0  0  0  0  0  0  0  0
    4.6893    0.0702   20.9853 O   0  0  0  0  0  0  0  0  0  0  0  0
    5.8320   -0.5602   18.9586 C   0  0  0  0  0  0  0  0  0  0  0  0
    6.2781   -0.1903   17.8769 O   0  0  0  0  0  0  0  0  0  0  0  0
    5.9313   -2.0547   19.3241 C   0  0  0  0  0  0  0  0  0  0  0  0
    5.6413   -2.9483   18.5291 O   0  0  0  0  0  0  0  0  0  0  0  0
    6.3704   -2.2696   20.6087 N   0  0  0  0  0  0  0  0  0  0  0  0
    6.5515   -3.5065   21.1968 C   0  0  0  0  0  0  0  0  0  0  0  0
    7.3797   -3.8304   22.1876 C   0  0  0  0  0  0  0  0  0  0  0  0
    7.2816   -5.1745   22.5034 O   0  0  0  0  0  0  0  0  0  0  0  0
    6.2101   -5.6881   21.6942 C   0  0  0  0  0  0  0  0  0  0  0  0
    5.8707   -4.6093   20.7692 O   0  0  0  0  0  0  0  0  0  0  0  0
    8.3301   -3.0085   22.9023 C   0  0  0  0  0  0  0  0  0  0  0  0
    8.2889   -3.0021   24.1288 O   0  0  0  0  0  0  0  0  0  0  0  0
    9.3748   -2.1571   22.1442 C   0  0  0  0  0  0  0  0  0  0  0  0
    9.6032   -2.3601   20.9556 O   0  0  0  0  0  0  0  0  0  0  0  0
   10.1225   -1.0779   22.8379 C   0  0  0  0  0  0  0  0  0  0  0  0
    9.5884   -0.3758   23.6879 O   0  0  0  0  0  0  0  0  0  0  0  0
   11.5829   -0.8459   22.4789 C   0  0  0  0  0  0  0  0  0  0  0  0
   12.5235   -1.0815   23.6356 C   0  0  0  0  0  0  0  0  0  0  0  0
   12.9253   -0.0889   24.4531 C   0  0  0  0  0  0  0  0  0  0  0  0
   13.7654   -0.2557   25.4910 O   0  0  0  0  0  0  0  0  0  0  0  0
   14.2955   -1.5322   25.6821 C   0  0  0  0  0  0  0  0  0  0  0  0
   13.9777   -2.5687   24.9291 C   0  0  0  0  0  0  0  0  0  0  0  0
   12.9787   -2.5230   23.8028 C   0  0  0  0  0  0  0  0  0  0  0  0
  1  2  1  0
  2  3  2  0
  2  4  1  0
  4  5  2  0
  4  6  1  0
  6  7  2  0
  6  8  1  0
  8  9  1  0
  9 10  2  0
 10 11  1  0
 11 12  1  0
 12 13  1  0
 10 14  1  0
 14 15  2  0
 14 16  1  0
 16 17  2  0
 16 18  1  0
 18 19  2  0
 18 20  1  0
 20 21  1  0
 21 22  2  0
 22 23  1  0
 23 24  1  0
 24 25  2  0
 25 26  1  0
 13  9  1  0
 26 21  1  0
M  END
