CVD-0002495|dock_bobby27042020.77|mol2|12|dock3
     RDKit          3D

 30 32  0  0  0  0  0  0  0  0999 V2000
   13.9712    5.2114   21.7417 C   0  0  0  0  0  0  0  0  0  0  0  0
   12.9407    4.2376   22.2211 C   0  0  0  0  0  0  0  0  0  0  0  0
   13.5530    3.0198   22.7252 N   0  0  0  0  0  0  0  0  0  0  0  0
   12.8961    1.8100   22.8430 C   0  0  0  0  0  0  0  0  0  0  0  0
   11.5239    1.7841   23.0464 C   0  0  0  0  0  0  0  0  0  0  0  0
   10.8422    0.5858   23.1625 C   0  0  0  0  0  0  0  0  0  0  0  0
   11.5205   -0.6316   23.0951 C   0  0  0  0  0  0  0  0  0  0  0  0
   10.8683   -1.8700   23.2138 N   0  0  0  0  0  0  0  0  0  0  0  0
    9.6601   -2.3396   22.6564 C   0  0  0  0  0  0  0  0  0  0  0  0
    9.0497   -3.5345   23.0330 C   0  0  0  0  0  0  0  0  0  0  0  0
    7.8513   -3.9429   22.4661 C   0  0  0  0  0  0  0  0  0  0  0  0
    7.1930   -5.2294   22.9016 C   0  0  0  0  0  0  0  0  0  0  0  0
    7.2684   -3.1444   21.4953 C   0  0  0  0  0  0  0  0  0  0  0  0
    7.8593   -1.9587   21.0840 C   0  0  0  0  0  0  0  0  0  0  0  0
    7.2152   -1.1103   20.0141 C   0  0  0  0  0  0  0  0  0  0  0  0
    6.5684    0.0953   20.5500 N   0  0  0  0  0  0  0  0  0  0  0  0
    5.6721   -0.2526   21.6566 C   0  0  0  0  0  0  0  0  0  0  0  0
    5.0385    1.0000   22.2329 C   0  0  0  0  0  0  0  0  0  0  0  0
    4.3028    1.7252   21.1947 N   0  0  0  0  0  0  0  0  0  0  0  0
    5.1585    2.0358   20.0454 C   0  0  0  0  0  0  0  0  0  0  0  0
    5.7989    0.7693   19.5073 C   0  0  0  0  0  0  0  0  0  0  0  0
    3.0065    2.0739   21.3253 C   0  0  0  0  0  0  0  0  0  0  0  0
    2.3652    1.8080   22.3341 O   0  0  0  0  0  0  0  0  0  0  0  0
    2.3760    2.8083   20.1581 C   0  0  0  0  0  0  0  0  0  0  0  0
    0.6672    3.1670   20.4392 Cl  0  0  0  0  0  0  0  0  0  0  0  0
    9.0553   -1.5685   21.6696 C   0  0  0  0  0  0  0  0  0  0  0  0
   12.9161   -0.6038   22.8888 C   0  0  0  0  0  0  0  0  0  0  0  0
   13.5883    0.6084   22.7611 C   0  0  0  0  0  0  0  0  0  0  0  0
   13.6909   -1.8158   22.8081 C   0  0  0  0  0  0  0  0  0  0  0  0
   14.3322   -2.7581   22.7336 N   0  0  0  0  0  0  0  0  0  0  0  0
  1  2  1  0
  2  3  1  0
  3  4  1  0
  4  5  2  0
  5  6  1  0
  6  7  2  0
  7  8  1  0
  8  9  1  0
  9 10  2  0
 10 11  1  0
 11 12  1  0
 11 13  2  0
 13 14  1  0
 14 15  1  0
 15 16  1  0
 16 17  1  0
 17 18  1  0
 18 19  1  0
 19 20  1  0
 20 21  1  0
 19 22  1  0
 22 23  2  0
 22 24  1  0
 24 25  1  0
 14 26  2  0
  7 27  1  0
 27 28  2  0
 27 29  1  0
 29 30  3  0
 28  4  1  0
 26  9  1  0
 21 16  1  0
M  END
