CVD-0001389|dock_bobby27042020.24|mol2|8|dock3
     RDKit          3D

 14 14  0  0  0  0  0  0  0  0999 V2000
    9.3538    1.0231   22.6580 C   0  0  0  0  0  0  0  0  0  0  0  0
   10.5707    1.9110   22.6797 C   0  0  0  0  0  0  0  0  0  0  0  0
   10.4094    3.2875   22.5466 C   0  0  0  0  0  0  0  0  0  0  0  0
   11.4871    4.1496   22.5559 C   0  0  0  0  0  0  0  0  0  0  0  0
   12.7696    3.6376   22.7007 C   0  0  0  0  0  0  0  0  0  0  0  0
   12.9667    2.2646   22.8351 C   0  0  0  0  0  0  0  0  0  0  0  0
   11.8720    1.3990   22.8247 C   0  0  0  0  0  0  0  0  0  0  0  0
   12.0773   -0.0078   22.9618 N   0  0  0  0  0  0  0  0  0  0  0  0
   13.5220   -0.7408   23.1370 S   0  0  0  0  0  0  0  0  0  0  0  0
   13.2438   -2.4630   22.9802 C   0  0  0  0  0  0  0  0  0  0  0  0
   13.9838   -0.4706   24.4637 O   0  0  0  0  0  0  0  0  0  0  0  0
   14.3343   -0.3237   22.0361 O   0  0  0  0  0  0  0  0  0  0  0  0
   13.9058    4.5257   22.7127 C   0  0  0  0  0  0  0  0  0  0  0  0
   14.7939    5.2431   22.7498 N   0  0  0  0  0  0  0  0  0  0  0  0
  1  2  1  0
  2  3  2  0
  3  4  1  0
  4  5  2  0
  5  6  1  0
  6  7  2  0
  7  8  1  0
  8  9  1  0
  9 10  1  0
  9 11  2  0
  9 12  2  0
  5 13  1  0
 13 14  3  0
  7  2  1  0
M  END
