CVD-0003582|dock_bobby27042020.44|mol2|47|dock2
     RDKit          3D

 23 24  0  0  0  0  0  0  0  0999 V2000
    8.3228   -0.8477   20.2506 C   0  0  0  0  0  0  0  0  0  0  0  0
    8.6672   -0.8434   21.7353 C   0  0  0  0  0  0  0  0  0  0  0  0
    8.4157   -2.1896   22.2615 N   0  0  0  0  0  0  0  0  0  0  0  0
    8.2642   -2.4571   23.5609 C   0  0  0  0  0  0  0  0  0  0  0  0
    8.3194   -1.6081   24.4452 O   0  0  0  0  0  0  0  0  0  0  0  0
    8.0236   -3.9179   23.8722 C   0  0  0  0  0  0  0  0  0  0  0  0
    7.7404   -4.1932   25.5959 Cl  0  0  0  0  0  0  0  0  0  0  0  0
   10.1203   -0.4472   21.9459 C   0  0  0  0  0  0  0  0  0  0  0  0
   11.0730   -1.4663   21.9318 C   0  0  0  0  0  0  0  0  0  0  0  0
   12.4230   -1.2168   22.1078 C   0  0  0  0  0  0  0  0  0  0  0  0
   12.8745    0.0748   22.3077 C   0  0  0  0  0  0  0  0  0  0  0  0
   11.9665    1.1313   22.3330 C   0  0  0  0  0  0  0  0  0  0  0  0
   12.1251    2.5431   22.5148 C   0  0  0  0  0  0  0  0  0  0  0  0
   13.4184    3.2708   22.7376 C   0  0  0  0  0  0  0  0  0  0  0  0
   13.2428    4.7727   22.8414 C   0  0  0  0  0  0  0  0  0  0  0  0
   12.6006    5.1593   24.0895 N   0  0  0  0  0  0  0  0  0  0  0  0
   12.6641    6.3999   24.5771 C   0  0  0  0  0  0  0  0  0  0  0  0
   11.9331    6.6416   25.8650 C   0  0  0  0  0  0  0  0  0  0  0  0
   13.2720    7.2945   23.9979 O   0  0  0  0  0  0  0  0  0  0  0  0
   10.8820    3.0709   22.4432 C   0  0  0  0  0  0  0  0  0  0  0  0
    9.9473    2.0975   22.2322 N   0  0  0  0  0  0  0  0  0  0  0  0
    8.5281    2.4058   22.1053 C   0  0  0  0  0  0  0  0  0  0  0  0
   10.5931    0.8654   22.1534 C   0  0  0  0  0  0  0  0  0  0  0  0
  1  2  1  0
  2  3  1  0
  3  4  1  0
  4  5  2  0
  4  6  1  0
  6  7  1  0
  2  8  1  0
  8  9  2  0
  9 10  1  0
 10 11  2  0
 11 12  1  0
 12 13  1  0
 13 14  1  0
 14 15  1  0
 15 16  1  0
 16 17  1  0
 17 18  1  0
 17 19  2  0
 13 20  2  0
 20 21  1  0
 21 22  1  0
 21 23  1  0
 23  8  1  0
 23 12  2  0
M  END
