CVD-0003652|dock_bobby27042020.44|mol2|37|dock3
     RDKit          3D

 21 21  0  0  0  0  0  0  0  0999 V2000
   14.2244    6.1599   21.2883 C   0  0  0  0  0  0  0  0  0  0  0  0
   13.1984    5.2031   21.6968 N   0  0  0  0  0  0  0  0  0  0  0  0
   13.3708    4.4411   23.1093 S   0  0  0  0  0  0  0  0  0  0  0  0
   14.7734    4.2288   23.2975 O   0  0  0  0  0  0  0  0  0  0  0  0
   12.6386    5.1959   24.0798 O   0  0  0  0  0  0  0  0  0  0  0  0
   12.6025    2.8641   22.9621 C   0  0  0  0  0  0  0  0  0  0  0  0
   11.2224    2.7625   23.0246 C   0  0  0  0  0  0  0  0  0  0  0  0
   10.6280    1.5182   22.9129 C   0  0  0  0  0  0  0  0  0  0  0  0
   11.3884    0.3698   22.7408 C   0  0  0  0  0  0  0  0  0  0  0  0
   12.7697    0.4962   22.6830 C   0  0  0  0  0  0  0  0  0  0  0  0
   13.3823    1.7319   22.7927 C   0  0  0  0  0  0  0  0  0  0  0  0
   10.7263   -0.9904   22.6240 C   0  0  0  0  0  0  0  0  0  0  0  0
   11.7506   -2.1170   22.6889 C   0  0  0  0  0  0  0  0  0  0  0  0
    9.9915   -1.1123   21.3611 N   0  0  0  0  0  0  0  0  0  0  0  0
    8.7119   -0.6965   21.2381 C   0  0  0  0  0  0  0  0  0  0  0  0
    8.0675   -0.2607   22.1885 O   0  0  0  0  0  0  0  0  0  0  0  0
    8.2193   -0.8066   19.9830 N   0  0  0  0  0  0  0  0  0  0  0  0
    6.8536   -0.4290   19.5565 C   0  0  0  0  0  0  0  0  0  0  0  0
    5.9077   -0.5570   20.7422 C   0  0  0  0  0  0  0  0  0  0  0  0
    6.4100   -1.3618   18.4386 C   0  0  0  0  0  0  0  0  0  0  0  0
    6.8673    1.0083   19.0552 C   0  0  0  0  0  0  0  0  0  0  0  0
  1  2  1  0
  2  3  1  0
  3  4  2  0
  3  5  2  0
  3  6  1  0
  6  7  2  0
  7  8  1  0
  8  9  2  0
  9 10  1  0
 10 11  2  0
  9 12  1  0
 12 13  1  0
 12 14  1  0
 14 15  1  0
 15 16  2  0
 15 17  1  0
 17 18  1  0
 18 19  1  0
 18 20  1  0
 18 21  1  0
 11  6  1  0
M  END
