CVD-0001651|dock_bobby27042020.23|mol2|16|dock2
     RDKit          3D

 18 19  0  0  0  0  0  0  0  0999 V2000
    8.0105    0.6776   21.3803 F   0  0  0  0  0  0  0  0  0  0  0  0
    9.2460    0.2499   21.7356 C   0  0  0  0  0  0  0  0  0  0  0  0
    9.6691    1.0048   22.7783 F   0  0  0  0  0  0  0  0  0  0  0  0
    9.2374   -1.2384   22.0742 C   0  0  0  0  0  0  0  0  0  0  0  0
    8.1511   -1.8541   21.5898 N   0  0  0  0  0  0  0  0  0  0  0  0
    7.9276   -3.1279   21.9566 C   0  0  0  0  0  0  0  0  0  0  0  0
    8.7869   -3.8468   22.7753 C   0  0  0  0  0  0  0  0  0  0  0  0
    9.9471   -3.2307   23.2049 C   0  0  0  0  0  0  0  0  0  0  0  0
   10.2234   -1.9156   22.8308 C   0  0  0  0  0  0  0  0  0  0  0  0
   11.4583   -1.3370   23.2247 N   0  0  0  0  0  0  0  0  0  0  0  0
   11.8602   -1.2415   24.6327 C   0  0  0  0  0  0  0  0  0  0  0  0
   12.8656   -2.3384   25.0506 C   0  0  0  0  0  0  0  0  0  0  0  0
   14.2669   -2.0509   24.4673 C   0  0  0  0  0  0  0  0  0  0  0  0
   14.1626   -2.0232   23.0437 O   0  0  0  0  0  0  0  0  0  0  0  0
   13.7827   -0.7663   22.4827 C   0  0  0  0  0  0  0  0  0  0  0  0
   12.2697   -0.7084   22.1702 C   0  0  0  0  0  0  0  0  0  0  0  0
    6.7131   -3.7320   21.4444 C   0  0  0  0  0  0  0  0  0  0  0  0
    5.7774   -4.2290   21.0175 N   0  0  0  0  0  0  0  0  0  0  0  0
  1  2  1  0
  2  3  1  0
  2  4  1  0
  4  5  2  0
  5  6  1  0
  6  7  2  0
  7  8  1  0
  8  9  2  0
  9 10  1  0
 10 11  1  0
 11 12  1  0
 12 13  1  0
 13 14  1  0
 14 15  1  0
 15 16  1  0
  6 17  1  0
 17 18  3  0
  9  4  1  0
 16 10  1  0
M  END
