CVD-0001795|dock_bobby27042020.51|mol2|21|dock1
     RDKit          3D

 31 34  0  0  0  0  0  0  0  0999 V2000
    7.2323   -5.9360   22.4451 C   0  0  0  0  0  0  0  0  0  0  0  0
    6.7598   -4.9588   21.4089 C   0  0  0  0  0  0  0  0  0  0  0  0
    6.6259   -5.3067   20.2407 O   0  0  0  0  0  0  0  0  0  0  0  0
    6.5015   -3.6853   21.8063 N   0  0  0  0  0  0  0  0  0  0  0  0
    6.5844   -3.1878   23.1718 C   0  0  0  0  0  0  0  0  0  0  0  0
    7.9614   -2.7361   23.6254 C   0  0  0  0  0  0  0  0  0  0  0  0
    8.5246   -1.6125   22.8249 N   0  0  0  0  0  0  0  0  0  0  0  0
    8.4263   -0.3253   23.5294 C   0  0  0  0  0  0  0  0  0  0  0  0
    9.6622    0.5323   23.3873 C   0  0  0  0  0  0  0  0  0  0  0  0
   10.9218   -0.0629   23.4045 C   0  0  0  0  0  0  0  0  0  0  0  0
   12.0634    0.6708   23.2820 C   0  0  0  0  0  0  0  0  0  0  0  0
   12.0138    2.0766   23.1323 C   0  0  0  0  0  0  0  0  0  0  0  0
   13.1840    2.7783   23.0120 N   0  0  0  0  0  0  0  0  0  0  0  0
   13.1200    4.0954   22.8726 C   0  0  0  0  0  0  0  0  0  0  0  0
   11.9221    4.8073   22.8417 C   0  0  0  0  0  0  0  0  0  0  0  0
   10.7484    4.1269   22.9598 C   0  0  0  0  0  0  0  0  0  0  0  0
   10.7519    2.7188   23.1112 C   0  0  0  0  0  0  0  0  0  0  0  0
    9.5928    1.8942   23.2441 C   0  0  0  0  0  0  0  0  0  0  0  0
    7.8939    2.7296   23.2197 Br  0  0  0  0  0  0  0  0  0  0  0  0
   14.4570    4.7791   22.7480 C   0  0  0  0  0  0  0  0  0  0  0  0
   14.6415    5.7113   21.8197 N   0  0  0  0  0  0  0  0  0  0  0  0
   15.3619    4.4513   23.5237 O   0  0  0  0  0  0  0  0  0  0  0  0
    8.1814   -1.1664   21.4397 C   0  0  0  0  0  0  0  0  0  0  0  0
    6.7003   -1.3114   21.1327 C   0  0  0  0  0  0  0  0  0  0  0  0
    6.1924   -2.6953   20.7781 C   0  0  0  0  0  0  0  0  0  0  0  0
    6.3720   -0.4070   19.9610 C   0  0  0  0  0  0  0  0  0  0  0  0
    5.3052    0.4772   20.0214 C   0  0  0  0  0  0  0  0  0  0  0  0
    5.0223    1.2975   18.9433 C   0  0  0  0  0  0  0  0  0  0  0  0
    5.8208    1.2109   17.8258 C   0  0  0  0  0  0  0  0  0  0  0  0
    6.8549    0.3740   17.7326 N   0  0  0  0  0  0  0  0  0  0  0  0
    7.1076   -0.4074   18.7868 C   0  0  0  0  0  0  0  0  0  0  0  0
  1  2  1  0
  2  3  2  0
  2  4  1  0
  4  5  1  0
  5  6  1  0
  6  7  1  0
  7  8  1  0
  8  9  1  0
  9 10  2  0
 10 11  1  0
 11 12  2  0
 12 13  1  0
 13 14  2  0
 14 15  1  0
 15 16  2  0
 16 17  1  0
 17 18  2  0
 18 19  1  0
 14 20  1  0
 20 21  1  0
 20 22  2  0
  7 23  1  0
 23 24  1  0
 24 25  1  0
 24 26  1  0
 26 27  2  0
 27 28  1  0
 28 29  2  0
 29 30  1  0
 30 31  2  0
 25  4  1  0
 31 26  1  0
 18  9  1  0
 17 12  1  0
M  END
