CVD-0003286|dock_bobby27042020.31|mol2|23|dock3
     RDKit          3D

 23 24  0  0  0  0  0  0  0  0999 V2000
    5.5262   -6.8797   21.7432 C   0  0  0  0  0  0  0  0  0  0  0  0
    6.0955   -5.5598   21.3130 C   0  0  0  0  0  0  0  0  0  0  0  0
    5.9207   -5.1393   20.1746 O   0  0  0  0  0  0  0  0  0  0  0  0
    6.8174   -4.9109   22.2889 N   0  0  0  0  0  0  0  0  0  0  0  0
    7.4743   -3.6763   22.1712 C   0  0  0  0  0  0  0  0  0  0  0  0
    8.5931   -3.2342   22.8016 C   0  0  0  0  0  0  0  0  0  0  0  0
    9.1811   -1.9265   22.5949 C   0  0  0  0  0  0  0  0  0  0  0  0
    8.4519   -0.8307   22.1790 C   0  0  0  0  0  0  0  0  0  0  0  0
    9.2648    0.2644   22.0695 N   0  0  0  0  0  0  0  0  0  0  0  0
   10.5456   -0.0955   22.4127 C   0  0  0  0  0  0  0  0  0  0  0  0
   11.7315    0.6640   22.4603 C   0  0  0  0  0  0  0  0  0  0  0  0
   11.7215    2.0879   22.1061 C   0  0  0  0  0  0  0  0  0  0  0  0
   12.5710    3.0056   22.5445 C   0  0  0  0  0  0  0  0  0  0  0  0
   12.5456    4.3453   22.1987 N   0  0  0  0  0  0  0  0  0  0  0  0
   13.6078    5.4404   22.7595 S   0  0  0  0  0  0  0  0  0  0  0  0
   12.8523    6.2140   24.1376 C   0  0  0  0  0  0  0  0  0  0  0  0
   13.8025    6.4181   21.7335 O   0  0  0  0  0  0  0  0  0  0  0  0
   14.7450    4.7120   23.2306 O   0  0  0  0  0  0  0  0  0  0  0  0
   12.9162    0.0254   22.8534 C   0  0  0  0  0  0  0  0  0  0  0  0
   12.8763   -1.3097   23.1757 C   0  0  0  0  0  0  0  0  0  0  0  0
   14.0365   -1.9105   23.5547 F   0  0  0  0  0  0  0  0  0  0  0  0
   11.7347   -2.0748   23.1385 C   0  0  0  0  0  0  0  0  0  0  0  0
   10.5419   -1.4637   22.7505 C   0  0  0  0  0  0  0  0  0  0  0  0
  1  2  1  0
  2  3  2  0
  2  4  1  0
  4  5  1  0
  5  6  2  0
  6  7  1  0
  7  8  2  0
  8  9  1  0
  9 10  1  0
 10 11  2  0
 11 12  1  0
 12 13  2  0
 13 14  1  0
 14 15  1  0
 15 16  1  0
 15 17  2  0
 15 18  2  0
 11 19  1  0
 19 20  2  0
 20 21  1  0
 20 22  1  0
 22 23  2  0
 23  7  1  0
 23 10  1  0
M  END
