CVD-0000175|dock_bobby27042020.42|mol2|27|dock1
     RDKit          3D

 24 26  0  0  0  0  0  0  0  0999 V2000
    2.0799    3.0731   18.9354 C   0  0  0  0  0  0  0  0  0  0  0  0
    2.6262    2.0410   19.8777 C   0  0  0  0  0  0  0  0  0  0  0  0
    1.9380    1.5746   20.7786 O   0  0  0  0  0  0  0  0  0  0  0  0
    3.9122    1.6468   19.7083 N   0  0  0  0  0  0  0  0  0  0  0  0
    4.4991    0.6577   20.5975 C   0  0  0  0  0  0  0  0  0  0  0  0
    5.1145   -0.4578   19.8128 C   0  0  0  0  0  0  0  0  0  0  0  0
    6.0897    0.1028   18.8668 N   0  0  0  0  0  0  0  0  0  0  0  0
    5.4596    1.0394   17.9246 C   0  0  0  0  0  0  0  0  0  0  0  0
    4.8379    2.1656   18.6963 C   0  0  0  0  0  0  0  0  0  0  0  0
    7.2430   -0.9021   18.3033 S   0  0  0  0  0  0  0  0  0  0  0  0
    8.1508   -0.0950   17.5490 O   0  0  0  0  0  0  0  0  0  0  0  0
    6.5607   -1.9881   17.6709 O   0  0  0  0  0  0  0  0  0  0  0  0
    8.1070   -1.5381   19.6978 C   0  0  0  0  0  0  0  0  0  0  0  0
    7.6546   -2.6890   20.3198 C   0  0  0  0  0  0  0  0  0  0  0  0
    8.3503   -3.1745   21.4132 C   0  0  0  0  0  0  0  0  0  0  0  0
    9.4784   -2.5178   21.8761 C   0  0  0  0  0  0  0  0  0  0  0  0
    9.9450   -1.3615   21.2556 C   0  0  0  0  0  0  0  0  0  0  0  0
    9.2395   -0.8796   20.1517 C   0  0  0  0  0  0  0  0  0  0  0  0
   11.1590   -0.6578   21.7513 C   0  0  0  0  0  0  0  0  0  0  0  0
   12.3065   -1.3621   22.1083 C   0  0  0  0  0  0  0  0  0  0  0  0
   13.4340   -0.7053   22.5721 C   0  0  0  0  0  0  0  0  0  0  0  0
   13.4413    0.6676   22.6839 C   0  0  0  0  0  0  0  0  0  0  0  0
   12.3182    1.3840   22.3337 C   0  0  0  0  0  0  0  0  0  0  0  0
   11.1875    0.7293   21.8744 C   0  0  0  0  0  0  0  0  0  0  0  0
  1  2  1  0
  2  3  2  0
  2  4  1  0
  4  5  1  0
  5  6  1  0
  6  7  1  0
  7  8  1  0
  8  9  1  0
  7 10  1  0
 10 11  2  0
 10 12  2  0
 10 13  1  0
 13 14  2  0
 14 15  1  0
 15 16  2  0
 16 17  1  0
 17 18  2  0
 17 19  1  0
 19 20  2  0
 20 21  1  0
 21 22  2  0
 22 23  1  0
 23 24  2  0
  9  4  1  0
 18 13  1  0
 24 19  1  0
M  END
