CVD-0002096|dock_bobby27042020.64|mol2|39|dock3
     RDKit          3D

 22 24  0  0  0  0  0  0  0  0999 V2000
   10.1804   -1.8570   21.3491 N   0  0  0  0  0  0  0  0  0  0  0  0
    9.4375   -0.6770   21.8447 C   0  0  0  0  0  0  0  0  0  0  0  0
    8.0451   -0.4697   21.2566 C   0  0  0  0  0  0  0  0  0  0  0  0
    8.1065    0.4126   20.1420 O   0  0  0  0  0  0  0  0  0  0  0  0
    6.8601    0.5158   19.4226 C   0  0  0  0  0  0  0  0  0  0  0  0
    6.6616   -0.8435   18.6994 C   0  0  0  0  0  0  0  0  0  0  0  0
    6.6194   -1.9299   19.7581 C   0  0  0  0  0  0  0  0  0  0  0  0
    5.9270   -3.1330   19.5541 C   0  0  0  0  0  0  0  0  0  0  0  0
    5.2158   -3.3726   18.4103 O   0  0  0  0  0  0  0  0  0  0  0  0
    6.0137   -4.1663   20.4855 C   0  0  0  0  0  0  0  0  0  0  0  0
    5.3785   -5.3398   20.2306 O   0  0  0  0  0  0  0  0  0  0  0  0
    6.7856   -4.0203   21.6282 C   0  0  0  0  0  0  0  0  0  0  0  0
    7.4699   -2.8381   21.8356 C   0  0  0  0  0  0  0  0  0  0  0  0
    7.3979   -1.7906   20.9174 C   0  0  0  0  0  0  0  0  0  0  0  0
    5.7959    0.8938   20.4540 C   0  0  0  0  0  0  0  0  0  0  0  0
    6.1677    2.1266   21.2915 C   0  0  0  0  0  0  0  0  0  0  0  0
    5.1329    2.3831   22.3765 C   0  0  0  0  0  0  0  0  0  0  0  0
    3.7218    2.5073   21.8117 C   0  0  0  0  0  0  0  0  0  0  0  0
    3.3984    1.2809   20.9813 C   0  0  0  0  0  0  0  0  0  0  0  0
    4.4013    1.1024   19.8398 C   0  0  0  0  0  0  0  0  0  0  0  0
    2.0053    1.3599   20.4209 C   0  0  0  0  0  0  0  0  0  0  0  0
    1.1015    0.6346   20.7147 O   0  0  0  0  0  0  0  0  0  0  0  0
  1  2  1  0
  2  3  1  0
  3  4  1  0
  4  5  1  0
  5  6  1  0
  6  7  1  0
  7  8  2  0
  8  9  1  0
  8 10  1  0
 10 11  1  0
 10 12  2  0
 12 13  1  0
 13 14  2  0
  5 15  1  0
 15 16  1  0
 16 17  1  0
 17 18  1  0
 18 19  1  0
 19 20  1  0
 19 21  1  0
 21 22  2  0
 14  3  1  0
 20 15  1  0
 14  7  1  0
M  END
