CVD-0000759|dock_bobby27042020.97|mol2|31|dock3
     RDKit          3D

 17 18  0  0  0  0  0  0  0  0999 V2000
    8.8706    0.0730   22.3802 O   0  0  0  0  0  0  0  0  0  0  0  0
    9.2752   -0.4717   21.3572 C   0  0  0  0  0  0  0  0  0  0  0  0
   10.5069   -1.1308   21.3236 N   0  0  0  0  0  0  0  0  0  0  0  0
   11.3689   -1.2413   22.3811 C   0  0  0  0  0  0  0  0  0  0  0  0
   11.9494   -2.3476   22.8554 N   0  0  0  0  0  0  0  0  0  0  0  0
   12.7042   -1.8613   23.9158 C   0  0  0  0  0  0  0  0  0  0  0  0
   12.5478   -0.5319   24.0258 C   0  0  0  0  0  0  0  0  0  0  0  0
   11.6890   -0.1253   23.0405 O   0  0  0  0  0  0  0  0  0  0  0  0
   13.5298   -2.6804   24.7646 C   0  0  0  0  0  0  0  0  0  0  0  0
   14.2175   -3.2991   25.4384 N   0  0  0  0  0  0  0  0  0  0  0  0
    8.6136   -0.5139   20.1543 N   0  0  0  0  0  0  0  0  0  0  0  0
    7.3589    0.0218   19.7702 C   0  0  0  0  0  0  0  0  0  0  0  0
    7.2070    0.5127   18.4798 C   0  0  0  0  0  0  0  0  0  0  0  0
    5.9899    1.0397   18.0855 C   0  0  0  0  0  0  0  0  0  0  0  0
    4.9571    1.0613   18.9935 C   0  0  0  0  0  0  0  0  0  0  0  0
    5.0704    0.5983   20.2384 N   0  0  0  0  0  0  0  0  0  0  0  0
    6.2498    0.0911   20.6105 C   0  0  0  0  0  0  0  0  0  0  0  0
  1  2  2  0
  2  3  1  0
  3  4  1  0
  4  5  2  0
  5  6  1  0
  6  7  2  0
  7  8  1  0
  6  9  1  0
  9 10  3  0
  2 11  1  0
 11 12  1  0
 12 13  2  0
 13 14  1  0
 14 15  2  0
 15 16  1  0
 16 17  2  0
  8  4  1  0
 17 12  1  0
M  END
