CVD-0002262|dock_bobby27042020.6|mol2|28|dock3
     RDKit          3D

 26 28  0  0  0  0  0  0  0  0999 V2000
   12.6852    6.2111   24.8811 C   0  0  0  0  0  0  0  0  0  0  0  0
   13.4339    5.6338   23.4070 S   0  0  0  0  0  0  0  0  0  0  0  0
   13.7158    6.7659   22.5794 O   0  0  0  0  0  0  0  0  0  0  0  0
   14.5123    4.7659   23.7673 O   0  0  0  0  0  0  0  0  0  0  0  0
   12.3523    4.7415   22.6297 N   0  0  0  0  0  0  0  0  0  0  0  0
   12.1812    3.3293   22.9916 C   0  0  0  0  0  0  0  0  0  0  0  0
   13.0112    2.4394   22.0838 C   0  0  0  0  0  0  0  0  0  0  0  0
   12.8126    0.9699   22.3664 C   0  0  0  0  0  0  0  0  0  0  0  0
   13.8290    0.2081   22.9214 C   0  0  0  0  0  0  0  0  0  0  0  0
   13.6412   -1.1389   23.1818 C   0  0  0  0  0  0  0  0  0  0  0  0
   12.4287   -1.7395   22.8889 C   0  0  0  0  0  0  0  0  0  0  0  0
   11.3963   -0.9929   22.3333 C   0  0  0  0  0  0  0  0  0  0  0  0
   11.5991    0.3585   22.0773 C   0  0  0  0  0  0  0  0  0  0  0  0
   10.1025   -1.6154   22.0169 C   0  0  0  0  0  0  0  0  0  0  0  0
    9.3047   -1.1747   21.0905 N   0  0  0  0  0  0  0  0  0  0  0  0
    8.1410   -1.9337   20.9825 N   0  0  0  0  0  0  0  0  0  0  0  0
    8.0961   -2.9115   21.8238 C   0  0  0  0  0  0  0  0  0  0  0  0
    6.9343   -3.8612   21.8796 C   0  0  0  0  0  0  0  0  0  0  0  0
    7.2420   -5.2259   22.3251 N   0  0  0  0  0  0  0  0  0  0  0  0
    6.4076   -6.2690   21.7421 C   0  0  0  0  0  0  0  0  0  0  0  0
    4.9941   -6.2882   22.2978 C   0  0  0  0  0  0  0  0  0  0  0  0
    5.0280   -6.2165   23.7798 C   0  0  0  0  0  0  0  0  0  0  0  0
    6.0951   -5.8220   24.4469 C   0  0  0  0  0  0  0  0  0  0  0  0
    6.2055   -5.7054   25.8042 F   0  0  0  0  0  0  0  0  0  0  0  0
    7.3574   -5.4360   23.7670 C   0  0  0  0  0  0  0  0  0  0  0  0
    9.4981   -3.0119   22.8499 S   0  0  0  0  0  0  0  0  0  0  0  0
  1  2  1  0
  2  3  2  0
  2  4  2  0
  2  5  1  0
  5  6  1  0
  6  7  1  0
  7  8  1  0
  8  9  2  0
  9 10  1  0
 10 11  2  0
 11 12  1  0
 12 13  2  0
 12 14  1  0
 14 15  2  0
 15 16  1  0
 16 17  2  0
 17 18  1  0
 18 19  1  0
 19 20  1  0
 20 21  1  0
 21 22  1  0
 22 23  2  0
 23 24  1  0
 23 25  1  0
 17 26  1  0
 13  8  1  0
 26 14  1  0
 25 19  1  0
M  END
