CVD-0000466|dock_bobby27042020.12|mol2|47|dock1
     RDKit          3D

 22 23  0  0  0  0  0  0  0  0999 V2000
    4.8233    0.7619   17.8730 C   0  0  0  0  0  0  0  0  0  0  0  0
    5.3110   -0.2973   18.8174 C   0  0  0  0  0  0  0  0  0  0  0  0
    5.3369   -1.4836   18.5050 O   0  0  0  0  0  0  0  0  0  0  0  0
    5.6991    0.1239   20.0227 N   0  0  0  0  0  0  0  0  0  0  0  0
    6.1803   -0.7841   21.0541 C   0  0  0  0  0  0  0  0  0  0  0  0
    7.5766   -1.2916   20.7537 C   0  0  0  0  0  0  0  0  0  0  0  0
    8.6529   -0.4460   21.3687 C   0  0  0  0  0  0  0  0  0  0  0  0
    8.7217    0.9163   21.3960 C   0  0  0  0  0  0  0  0  0  0  0  0
    9.8536    1.3252   22.0473 N   0  0  0  0  0  0  0  0  0  0  0  0
   10.5457    0.2127   22.4584 C   0  0  0  0  0  0  0  0  0  0  0  0
   11.7524    0.1239   23.1582 C   0  0  0  0  0  0  0  0  0  0  0  0
   12.5242    1.3512   23.5894 C   0  0  0  0  0  0  0  0  0  0  0  0
   13.4215    1.8912   22.4903 C   0  0  0  0  0  0  0  0  0  0  0  0
   14.0411    3.1563   22.9024 N   0  0  0  0  0  0  0  0  0  0  0  0
   13.2323    4.5295   22.7272 S   0  0  0  0  0  0  0  0  0  0  0  0
   14.1355    5.5400   21.6183 C   0  0  0  0  0  0  0  0  0  0  0  0
   13.2188    5.1737   24.0043 O   0  0  0  0  0  0  0  0  0  0  0  0
   11.9821    4.2038   22.1133 O   0  0  0  0  0  0  0  0  0  0  0  0
   12.2319   -1.1510   23.4454 C   0  0  0  0  0  0  0  0  0  0  0  0
   11.5357   -2.2849   23.0529 C   0  0  0  0  0  0  0  0  0  0  0  0
   10.3388   -2.1806   22.3600 C   0  0  0  0  0  0  0  0  0  0  0  0
    9.8227   -0.9228   22.0501 C   0  0  0  0  0  0  0  0  0  0  0  0
  1  2  1  0
  2  3  2  0
  2  4  1  0
  4  5  1  0
  5  6  1  0
  6  7  1  0
  7  8  2  0
  8  9  1  0
  9 10  1  0
 10 11  2  0
 11 12  1  0
 12 13  1  0
 13 14  1  0
 14 15  1  0
 15 16  1  0
 15 17  2  0
 15 18  2  0
 11 19  1  0
 19 20  2  0
 20 21  1  0
 21 22  2  0
 22  7  1  0
 22 10  1  0
M  END
