CVD-0000734|dock_bobby27042020.55|mol2|7|dock2
     RDKit          3D

 23 25  0  0  0  0  0  0  0  0999 V2000
    7.9985   -3.9559   22.5095 N   0  0  0  0  0  0  0  0  0  0  0  0
    7.8924   -2.7326   22.0151 C   0  0  0  0  0  0  0  0  0  0  0  0
    7.2208   -2.4932   21.0093 O   0  0  0  0  0  0  0  0  0  0  0  0
    8.6427   -1.6555   22.7785 C   0  0  0  0  0  0  0  0  0  0  0  0
   10.1029   -2.0336   22.8770 C   0  0  0  0  0  0  0  0  0  0  0  0
   10.5483   -2.3688   24.1795 O   0  0  0  0  0  0  0  0  0  0  0  0
   10.8377   -0.8089   22.3871 C   0  0  0  0  0  0  0  0  0  0  0  0
   12.3416   -0.7790   22.2636 C   0  0  0  0  0  0  0  0  0  0  0  0
   13.0830   -1.1520   23.5275 C   0  0  0  0  0  0  0  0  0  0  0  0
   13.6024   -2.4225   23.7111 C   0  0  0  0  0  0  0  0  0  0  0  0
   14.2724   -2.7299   24.8822 C   0  0  0  0  0  0  0  0  0  0  0  0
   14.4014   -1.7493   25.8394 C   0  0  0  0  0  0  0  0  0  0  0  0
   13.9114   -0.5175   25.6923 N   0  0  0  0  0  0  0  0  0  0  0  0
   13.2682   -0.2441   24.5531 C   0  0  0  0  0  0  0  0  0  0  0  0
    9.9931    0.1862   22.0914 C   0  0  0  0  0  0  0  0  0  0  0  0
    8.5540   -0.2374   22.2627 C   0  0  0  0  0  0  0  0  0  0  0  0
    7.7640   -0.0625   20.9743 C   0  0  0  0  0  0  0  0  0  0  0  0
    8.2676   -0.5229   19.7657 C   0  0  0  0  0  0  0  0  0  0  0  0
    7.5477   -0.3679   18.5932 C   0  0  0  0  0  0  0  0  0  0  0  0
    6.3093    0.2509   18.6130 C   0  0  0  0  0  0  0  0  0  0  0  0
    5.8143    0.7041   19.8159 C   0  0  0  0  0  0  0  0  0  0  0  0
    4.2576    1.4838   19.8568 Cl  0  0  0  0  0  0  0  0  0  0  0  0
    6.5224    0.5555   20.9911 C   0  0  0  0  0  0  0  0  0  0  0  0
  1  2  1  0
  2  3  2  0
  4  2  1  0
  4  5  1  0
  5  6  1  0
  5  7  1  0
  7  8  1  0
  8  9  1  0
  9 10  2  0
 10 11  1  0
 11 12  2  0
 12 13  1  0
 13 14  2  0
  7 15  2  0
 15 16  1  0
 16 17  1  0
 17 18  2  0
 18 19  1  0
 19 20  2  0
 20 21  1  0
 21 22  1  0
 21 23  2  0
 16  4  1  0
 23 17  1  0
 14  9  1  0
M  END
