CVD-0001940|dock_bobby27042020.36|mol2|26|dock1
     RDKit          3D

 22 24  0  0  0  0  0  0  0  0999 V2000
   13.6057   -1.6596   21.5303 C   0  0  0  0  0  0  0  0  0  0  0  0
   12.2029   -1.2473   21.4350 N   0  0  0  0  0  0  0  0  0  0  0  0
   11.3517   -1.7332   22.5263 C   0  0  0  0  0  0  0  0  0  0  0  0
    9.8891   -1.5587   22.2120 C   0  0  0  0  0  0  0  0  0  0  0  0
    9.3405   -0.5949   21.3504 C   0  0  0  0  0  0  0  0  0  0  0  0
    7.9652   -0.7420   21.3215 C   0  0  0  0  0  0  0  0  0  0  0  0
    6.9919    0.0710   20.5426 C   0  0  0  0  0  0  0  0  0  0  0  0
    7.1693    0.3029   19.1735 C   0  0  0  0  0  0  0  0  0  0  0  0
    6.2476    1.0355   18.4443 C   0  0  0  0  0  0  0  0  0  0  0  0
    5.1443    1.5826   19.0579 C   0  0  0  0  0  0  0  0  0  0  0  0
    4.9508    1.3978   20.4137 C   0  0  0  0  0  0  0  0  0  0  0  0
    5.8658    0.6512   21.1174 C   0  0  0  0  0  0  0  0  0  0  0  0
    5.6164    0.4920   22.4375 F   0  0  0  0  0  0  0  0  0  0  0  0
    7.6523   -1.7984   22.1673 N   0  0  0  0  0  0  0  0  0  0  0  0
    6.3555   -2.3692   22.5542 C   0  0  0  0  0  0  0  0  0  0  0  0
    6.3216   -3.8752   22.4522 C   0  0  0  0  0  0  0  0  0  0  0  0
    5.4828   -4.6214   23.2654 C   0  0  0  0  0  0  0  0  0  0  0  0
    5.4493   -6.0025   23.1697 C   0  0  0  0  0  0  0  0  0  0  0  0
    6.2537   -6.6530   22.2589 C   0  0  0  0  0  0  0  0  0  0  0  0
    7.0913   -5.9226   21.4436 C   0  0  0  0  0  0  0  0  0  0  0  0
    7.1246   -4.5414   21.5395 C   0  0  0  0  0  0  0  0  0  0  0  0
    8.8117   -2.2778   22.7038 C   0  0  0  0  0  0  0  0  0  0  0  0
  1  2  1  0
  2  3  1  0
  3  4  1  0
  4  5  1  0
  5  6  2  0
  6  7  1  0
  7  8  2  0
  8  9  1  0
  9 10  2  0
 10 11  1  0
 11 12  2  0
 12 13  1  0
  6 14  1  0
 14 15  1  0
 15 16  1  0
 16 17  2  0
 17 18  1  0
 18 19  2  0
 19 20  1  0
 20 21  2  0
 14 22  1  0
 22  4  2  0
 12  7  1  0
 21 16  1  0
M  END
