CVD-0003494|dock_bobby27042020.45|mol2|12|dock1
     RDKit          3D

 32 33  0  0  0  0  0  0  0  0999 V2000
   13.8706   -1.6728   20.8872 C   0  0  0  0  0  0  0  0  0  0  0  0
   13.9483   -1.0299   22.2486 C   0  0  0  0  0  0  0  0  0  0  0  0
   12.8387   -1.4042   23.1313 N   0  0  0  0  0  0  0  0  0  0  0  0
   13.1740   -2.2837   24.2543 C   0  0  0  0  0  0  0  0  0  0  0  0
   13.8701   -1.5635   25.3802 C   0  0  0  0  0  0  0  0  0  0  0  0
   11.4869   -1.0430   22.8897 C   0  0  0  0  0  0  0  0  0  0  0  0
   10.5503   -2.0472   22.6646 C   0  0  0  0  0  0  0  0  0  0  0  0
    9.2282   -1.7907   22.3065 C   0  0  0  0  0  0  0  0  0  0  0  0
    8.2949   -2.8286   22.0360 N   0  0  0  0  0  0  0  0  0  0  0  0
    8.2167   -4.0856   22.5509 C   0  0  0  0  0  0  0  0  0  0  0  0
    9.0106   -4.5216   23.3962 O   0  0  0  0  0  0  0  0  0  0  0  0
    7.1168   -4.9689   22.0769 C   0  0  0  0  0  0  0  0  0  0  0  0
    7.0251   -6.2667   22.2325 C   0  0  0  0  0  0  0  0  0  0  0  0
    8.8212   -0.4509   22.1950 C   0  0  0  0  0  0  0  0  0  0  0  0
    7.4989   -0.1463   21.8395 N   0  0  0  0  0  0  0  0  0  0  0  0
    6.9289    0.4552   20.7545 C   0  0  0  0  0  0  0  0  0  0  0  0
    7.5986    0.4401   19.5919 N   0  0  0  0  0  0  0  0  0  0  0  0
    6.9829    1.0414   18.5663 C   0  0  0  0  0  0  0  0  0  0  0  0
    5.7443    1.6442   18.6599 C   0  0  0  0  0  0  0  0  0  0  0  0
    5.1353    1.6020   19.9084 C   0  0  0  0  0  0  0  0  0  0  0  0
    5.7224    1.0087   20.9570 N   0  0  0  0  0  0  0  0  0  0  0  0
    3.7840    2.2149   20.1678 C   0  0  0  0  0  0  0  0  0  0  0  0
    2.9698    2.4589   19.1471 N   0  0  0  0  0  0  0  0  0  0  0  0
    3.4643    2.4775   21.3326 O   0  0  0  0  0  0  0  0  0  0  0  0
    9.7459    0.5562   22.4617 C   0  0  0  0  0  0  0  0  0  0  0  0
   11.0563    0.2982   22.8583 C   0  0  0  0  0  0  0  0  0  0  0  0
   11.8688    1.3496   23.2234 N   0  0  0  0  0  0  0  0  0  0  0  0
   11.6695    2.7302   22.8126 C   0  0  0  0  0  0  0  0  0  0  0  0
   12.9709    3.4980   22.9302 C   0  0  0  0  0  0  0  0  0  0  0  0
   12.8429    4.9059   22.5610 N   0  0  0  0  0  0  0  0  0  0  0  0
   12.4593    5.7156   23.7121 C   0  0  0  0  0  0  0  0  0  0  0  0
   14.0974    5.4056   22.0102 C   0  0  0  0  0  0  0  0  0  0  0  0
  1  2  1  0
  2  3  1  0
  3  4  1  0
  4  5  1  0
  3  6  1  0
  6  7  2  0
  7  8  1  0
  8  9  1  0
  9 10  1  0
 10 11  2  0
 10 12  1  0
 12 13  2  0
  8 14  2  0
 14 15  1  0
 15 16  1  0
 16 17  2  0
 17 18  1  0
 18 19  2  0
 19 20  1  0
 20 21  2  0
 20 22  1  0
 22 23  1  0
 22 24  2  0
 14 25  1  0
 25 26  2  0
 26 27  1  0
 27 28  1  0
 28 29  1  0
 29 30  1  0
 30 31  1  0
 30 32  1  0
 26  6  1  0
 21 16  1  0
M  END
