CVD-0003703|dock_bobby27042020.73|mol2|3|dock3
     RDKit          3D

 27 29  0  0  0  0  0  0  0  0999 V2000
    6.7663   -8.2994   21.8956 F   0  0  0  0  0  0  0  0  0  0  0  0
    6.2547   -7.0452   22.0215 C   0  0  0  0  0  0  0  0  0  0  0  0
    5.3645   -6.7995   23.0308 C   0  0  0  0  0  0  0  0  0  0  0  0
    4.8528   -5.5181   23.1466 C   0  0  0  0  0  0  0  0  0  0  0  0
    5.2414   -4.5285   22.2586 C   0  0  0  0  0  0  0  0  0  0  0  0
    6.1441   -4.8009   21.2424 C   0  0  0  0  0  0  0  0  0  0  0  0
    6.5690   -3.7196   20.2775 C   0  0  0  0  0  0  0  0  0  0  0  0
    6.8878   -2.4407   20.9295 N   0  0  0  0  0  0  0  0  0  0  0  0
    7.0725   -1.3866   19.9278 C   0  0  0  0  0  0  0  0  0  0  0  0
    7.3604   -0.0608   20.6074 C   0  0  0  0  0  0  0  0  0  0  0  0
    8.5503   -0.1680   21.4544 N   0  0  0  0  0  0  0  0  0  0  0  0
    8.4211   -1.2551   22.4299 C   0  0  0  0  0  0  0  0  0  0  0  0
    8.1071   -2.5619   21.7243 C   0  0  0  0  0  0  0  0  0  0  0  0
    9.6033    0.6647   21.3435 C   0  0  0  0  0  0  0  0  0  0  0  0
    9.6980    1.4367   20.4092 O   0  0  0  0  0  0  0  0  0  0  0  0
   10.6932    0.6367   22.4284 C   0  0  0  0  0  0  0  0  0  0  0  0
   11.6716   -0.8566   22.2015 Cl  0  0  0  0  0  0  0  0  0  0  0  0
   11.5917    1.8636   22.3885 C   0  0  0  0  0  0  0  0  0  0  0  0
   10.8985    3.1948   22.6810 C   0  0  0  0  0  0  0  0  0  0  0  0
   11.8548    4.3884   22.6256 C   0  0  0  0  0  0  0  0  0  0  0  0
   12.8446    4.4226   23.6896 N   0  0  0  0  0  0  0  0  0  0  0  0
   14.0898    4.6177   23.2302 C   0  0  0  0  0  0  0  0  0  0  0  0
   15.1068    4.7704   23.9016 O   0  0  0  0  0  0  0  0  0  0  0  0
   14.0307    4.6254   21.8506 N   0  0  0  0  0  0  0  0  0  0  0  0
   12.7575    4.4438   21.3977 C   0  0  0  0  0  0  0  0  0  0  0  0
   12.4114    4.4063   20.2200 O   0  0  0  0  0  0  0  0  0  0  0  0
    6.6589   -6.0857   21.1263 C   0  0  0  0  0  0  0  0  0  0  0  0
  1  2  1  0
  2  3  2  0
  3  4  1  0
  4  5  2  0
  5  6  1  0
  6  7  1  0
  7  8  1  0
  8  9  1  0
  9 10  1  0
 10 11  1  0
 11 12  1  0
 12 13  1  0
 11 14  1  0
 14 15  2  0
 14 16  1  0
 16 17  1  0
 16 18  1  0
 18 19  1  0
 19 20  1  0
 20 21  1  0
 21 22  1  0
 22 23  2  0
 22 24  1  0
 24 25  1  0
 25 26  2  0
  6 27  2  0
 27  2  1  0
 13  8  1  0
 25 20  1  0
M  END
