CVD-0001539|dock_bobby27042020.52|mol2|20|dock2
     RDKit          3D

 20 23  0  0  0  0  0  0  0  0999 V2000
   13.1779    0.5291   23.2486 C   0  0  0  0  0  0  0  0  0  0  0  0
   11.7865   -0.0436   23.5311 C   0  0  0  0  0  0  0  0  0  0  0  0
   11.6155   -1.5596   23.4747 C   0  0  0  0  0  0  0  0  0  0  0  0
   10.6558   -1.4103   22.3560 N   0  0  0  0  0  0  0  0  0  0  0  0
    9.3502   -2.0613   22.4743 C   0  0  0  0  0  0  0  0  0  0  0  0
    8.3122   -1.4321   21.6140 C   0  0  0  0  0  0  0  0  0  0  0  0
    7.0355   -1.0722   21.9273 C   0  0  0  0  0  0  0  0  0  0  0  0
    6.4456   -0.5073   20.7510 C   0  0  0  0  0  0  0  0  0  0  0  0
    5.1897    0.0346   20.4370 C   0  0  0  0  0  0  0  0  0  0  0  0
    4.9357    0.5101   19.1611 C   0  0  0  0  0  0  0  0  0  0  0  0
    5.9128    0.4562   18.1873 C   0  0  0  0  0  0  0  0  0  0  0  0
    7.1645   -0.0728   18.4639 C   0  0  0  0  0  0  0  0  0  0  0  0
    7.4227   -0.5513   19.7448 C   0  0  0  0  0  0  0  0  0  0  0  0
    8.5542   -1.1210   20.2976 N   0  0  0  0  0  0  0  0  0  0  0  0
   10.8034    0.0638   22.3745 C   0  0  0  0  0  0  0  0  0  0  0  0
   13.1648    1.9552   22.8236 C   0  0  0  0  0  0  0  0  0  0  0  0
   12.2136    2.8965   22.7593 C   0  0  0  0  0  0  0  0  0  0  0  0
   12.8278    4.0719   22.2655 C   0  0  0  0  0  0  0  0  0  0  0  0
   14.1033    3.7756   22.0617 C   0  0  0  0  0  0  0  0  0  0  0  0
   14.3542    2.4720   22.3953 O   0  0  0  0  0  0  0  0  0  0  0  0
  1  2  1  0
  2  3  1  0
  3  4  1  0
  4  5  1  0
  5  6  1  0
  6  7  2  0
  7  8  1  0
  8  9  2  0
  9 10  1  0
 10 11  2  0
 11 12  1  0
 12 13  2  0
 13 14  1  0
  4 15  1  0
  1 16  1  0
 16 17  2  0
 17 18  1  0
 18 19  2  0
 19 20  1  0
 15  2  1  0
 20 16  1  0
 14  6  1  0
 13  8  1  0
M  END
