CVD-0003489|dock_bobby27042020.16|mol2|26|dock1
     RDKit          3D

 24 26  0  0  0  0  0  0  0  0999 V2000
   13.0234    5.2037   22.0578 Cl  0  0  0  0  0  0  0  0  0  0  0  0
   13.4517    3.5300   22.4357 C   0  0  0  0  0  0  0  0  0  0  0  0
   12.2224    2.6426   22.4037 C   0  0  0  0  0  0  0  0  0  0  0  0
   11.1327    3.0745   22.0493 O   0  0  0  0  0  0  0  0  0  0  0  0
   12.3896    1.3610   22.7895 N   0  0  0  0  0  0  0  0  0  0  0  0
   13.6672    0.7665   23.2061 C   0  0  0  0  0  0  0  0  0  0  0  0
   13.8483   -0.5890   22.5541 C   0  0  0  0  0  0  0  0  0  0  0  0
   12.6732   -1.5015   22.8811 C   0  0  0  0  0  0  0  0  0  0  0  0
   11.3744   -0.8316   22.4708 C   0  0  0  0  0  0  0  0  0  0  0  0
   11.2168    0.5408   23.1070 C   0  0  0  0  0  0  0  0  0  0  0  0
   10.2068   -1.6645   22.8080 N   0  0  0  0  0  0  0  0  0  0  0  0
    9.5386   -1.7638   23.9699 C   0  0  0  0  0  0  0  0  0  0  0  0
    8.5656   -2.6915   23.7459 C   0  0  0  0  0  0  0  0  0  0  0  0
    7.5127   -3.2175   24.6548 C   0  0  0  0  0  0  0  0  0  0  0  0
    7.9490   -4.4321   25.2435 O   0  0  0  0  0  0  0  0  0  0  0  0
    8.0791   -5.5015   24.3091 C   0  0  0  0  0  0  0  0  0  0  0  0
    6.7562   -5.8638   23.6991 C   0  0  0  0  0  0  0  0  0  0  0  0
    6.6519   -6.1322   22.3432 C   0  0  0  0  0  0  0  0  0  0  0  0
    5.4320   -6.4696   21.7809 C   0  0  0  0  0  0  0  0  0  0  0  0
    4.3034   -6.5429   22.5687 C   0  0  0  0  0  0  0  0  0  0  0  0
    4.3943   -6.2795   23.9187 C   0  0  0  0  0  0  0  0  0  0  0  0
    5.6141   -5.9422   24.4809 C   0  0  0  0  0  0  0  0  0  0  0  0
    8.6821   -3.1259   22.4644 N   0  0  0  0  0  0  0  0  0  0  0  0
    9.6910   -2.5071   21.8924 N   0  0  0  0  0  0  0  0  0  0  0  0
  1  2  1  0
  2  3  1  0
  3  4  2  0
  3  5  1  0
  5  6  1  0
  6  7  1  0
  7  8  1  0
  8  9  1  0
  9 10  1  0
  9 11  1  0
 11 12  1  0
 12 13  2  0
 13 14  1  0
 14 15  1  0
 15 16  1  0
 16 17  1  0
 17 18  2  0
 18 19  1  0
 19 20  2  0
 20 21  1  0
 21 22  2  0
 13 23  1  0
 23 24  2  0
 10  5  1  0
 24 11  1  0
 22 17  1  0
M  END
