CVD-0001392|dock_bobby27042020.9|mol2|47|dock1
     RDKit          3D

 16 17  0  0  0  0  0  0  0  0999 V2000
    9.5154    4.3837   22.8437 C   0  0  0  0  0  0  0  0  0  0  0  0
   10.8620    4.8257   23.2039 N   0  0  0  0  0  0  0  0  0  0  0  0
   11.1533    6.1373   23.4971 C   0  0  0  0  0  0  0  0  0  0  0  0
   12.4724    6.1885   23.7671 C   0  0  0  0  0  0  0  0  0  0  0  0
   13.0290    4.9404   23.6477 N   0  0  0  0  0  0  0  0  0  0  0  0
   12.0350    4.1266   23.3019 C   0  0  0  0  0  0  0  0  0  0  0  0
   12.2994    2.6880   23.0847 C   0  0  0  0  0  0  0  0  0  0  0  0
   11.3353    1.6877   23.2064 C   0  0  0  0  0  0  0  0  0  0  0  0
   11.6503    0.3588   22.9827 C   0  0  0  0  0  0  0  0  0  0  0  0
   12.9432    0.0085   22.6344 C   0  0  0  0  0  0  0  0  0  0  0  0
   13.9203    0.9806   22.5132 C   0  0  0  0  0  0  0  0  0  0  0  0
   13.5922    2.3054   22.7375 C   0  0  0  0  0  0  0  0  0  0  0  0
   13.3501   -1.6881   22.3541 S   0  0  0  0  0  0  0  0  0  0  0  0
   13.5538   -1.9079   20.7815 N   0  0  0  0  0  0  0  0  0  0  0  0
   14.6128   -1.9347   22.9832 O   0  0  0  0  0  0  0  0  0  0  0  0
   12.2168   -2.4705   22.7476 O   0  0  0  0  0  0  0  0  0  0  0  0
  1  2  1  0
  2  3  1  0
  3  4  2  0
  4  5  1  0
  5  6  2  0
  6  7  1  0
  7  8  2  0
  8  9  1  0
  9 10  2  0
 10 11  1  0
 11 12  2  0
 10 13  1  0
 13 14  1  0
 13 15  2  0
 13 16  2  0
  6  2  1  0
 12  7  1  0
M  END
