CVD-0003758|dock_bobby27042020.30|mol2|1|dock3
     RDKit          3D

 24 26  0  0  0  0  0  0  0  0999 V2000
    9.5491    1.9448   21.1519 N   0  0  0  0  0  0  0  0  0  0  0  0
    9.0995    0.9122   21.3428 C   0  0  0  0  0  0  0  0  0  0  0  0
    8.5288   -0.3785   21.6270 C   0  0  0  0  0  0  0  0  0  0  0  0
    7.4778   -0.8524   20.8398 C   0  0  0  0  0  0  0  0  0  0  0  0
    6.9174   -2.0911   21.1008 C   0  0  0  0  0  0  0  0  0  0  0  0
    7.3971   -2.8588   22.1402 C   0  0  0  0  0  0  0  0  0  0  0  0
    8.4399   -2.3948   22.9253 C   0  0  0  0  0  0  0  0  0  0  0  0
    9.0262   -1.1544   22.6882 C   0  0  0  0  0  0  0  0  0  0  0  0
   10.1601   -0.6462   23.5442 C   0  0  0  0  0  0  0  0  0  0  0  0
   11.4485   -1.1234   23.0457 N   0  0  0  0  0  0  0  0  0  0  0  0
   12.6199   -0.5057   23.6445 C   0  0  0  0  0  0  0  0  0  0  0  0
   13.8104   -1.1584   22.9466 C   0  0  0  0  0  0  0  0  0  0  0  0
   13.9308   -2.6204   23.3275 C   0  0  0  0  0  0  0  0  0  0  0  0
   14.0360   -2.7943   24.8349 C   0  0  0  0  0  0  0  0  0  0  0  0
   12.8602   -2.1377   25.5402 C   0  0  0  0  0  0  0  0  0  0  0  0
   12.7244   -0.6703   25.1542 C   0  0  0  0  0  0  0  0  0  0  0  0
   12.7078    0.9365   23.3372 C   0  0  0  0  0  0  0  0  0  0  0  0
   12.8558    2.1078   23.1610 C   0  0  0  0  0  0  0  0  0  0  0  0
   13.1209    3.5032   22.9295 C   0  0  0  0  0  0  0  0  0  0  0  0
   12.2823    4.4746   23.4669 C   0  0  0  0  0  0  0  0  0  0  0  0
   12.5764    5.8038   23.2179 C   0  0  0  0  0  0  0  0  0  0  0  0
   13.6772    6.1264   22.4547 C   0  0  0  0  0  0  0  0  0  0  0  0
   14.4518    5.1003   21.9629 C   0  0  0  0  0  0  0  0  0  0  0  0
   14.2001    3.8025   22.1817 N   0  0  0  0  0  0  0  0  0  0  0  0
  1  2  3  0
  2  3  1  0
  3  4  2  0
  4  5  1  0
  5  6  2  0
  6  7  1  0
  7  8  2  0
  8  9  1  0
  9 10  1  0
 10 11  1  0
 11 12  1  0
 12 13  1  0
 13 14  1  0
 14 15  1  0
 15 16  1  0
 11 17  1  0
 17 18  3  0
 18 19  1  0
 19 20  2  0
 20 21  1  0
 21 22  2  0
 22 23  1  0
 23 24  2  0
  8  3  1  0
 16 11  1  0
 24 19  1  0
M  END
