CVD-0003345|dock_bobby27042020.74|mol2|13|dock2
     RDKit          3D

 32 35  0  0  0  0  0  0  0  0999 V2000
    3.6592    2.6960   18.7366 N   0  0  0  0  0  0  0  0  0  0  0  0
    4.7311    1.8002   18.6747 C   0  0  0  0  0  0  0  0  0  0  0  0
    5.0049    0.9727   19.6993 C   0  0  0  0  0  0  0  0  0  0  0  0
    6.0267    0.1103   19.7440 N   0  0  0  0  0  0  0  0  0  0  0  0
    6.1855   -0.8550   20.8312 C   0  0  0  0  0  0  0  0  0  0  0  0
    7.4302   -0.6035   21.6537 C   0  0  0  0  0  0  0  0  0  0  0  0
    7.4596    0.2162   22.5465 O   0  0  0  0  0  0  0  0  0  0  0  0
    8.6360   -1.4415   21.2892 C   0  0  0  0  0  0  0  0  0  0  0  0
    9.1351   -2.2228   22.4139 N   0  0  0  0  0  0  0  0  0  0  0  0
   10.3099   -2.0962   23.1066 C   0  0  0  0  0  0  0  0  0  0  0  0
   10.4219   -2.9590   24.0959 N   0  0  0  0  0  0  0  0  0  0  0  0
    9.2425   -3.6925   24.0535 C   0  0  0  0  0  0  0  0  0  0  0  0
    8.7366   -4.7461   24.8124 C   0  0  0  0  0  0  0  0  0  0  0  0
    7.5243   -5.2528   24.5182 N   0  0  0  0  0  0  0  0  0  0  0  0
    6.8543   -4.7104   23.4981 C   0  0  0  0  0  0  0  0  0  0  0  0
    7.2174   -3.7082   22.6939 N   0  0  0  0  0  0  0  0  0  0  0  0
    8.4289   -3.2489   23.0283 C   0  0  0  0  0  0  0  0  0  0  0  0
    9.4890   -5.3025   25.9077 C   0  0  0  0  0  0  0  0  0  0  0  0
   10.1362   -5.7237   26.7969 C   0  0  0  0  0  0  0  0  0  0  0  0
   11.3347   -1.0715   22.7598 C   0  0  0  0  0  0  0  0  0  0  0  0
   12.7082   -1.4616   23.2747 C   0  0  0  0  0  0  0  0  0  0  0  0
   13.7139   -0.3684   22.9365 C   0  0  0  0  0  0  0  0  0  0  0  0
   13.2512    0.9673   23.4816 C   0  0  0  0  0  0  0  0  0  0  0  0
   11.9126    1.2869   22.9668 N   0  0  0  0  0  0  0  0  0  0  0  0
   10.8930    0.2842   23.2890 C   0  0  0  0  0  0  0  0  0  0  0  0
   11.5350    2.4939   22.4816 C   0  0  0  0  0  0  0  0  0  0  0  0
   10.4025    2.6815   22.0549 O   0  0  0  0  0  0  0  0  0  0  0  0
   12.5422    3.6282   22.4798 C   0  0  0  0  0  0  0  0  0  0  0  0
   11.7598    5.1529   22.0435 Cl  0  0  0  0  0  0  0  0  0  0  0  0
    7.0194    0.0714   18.6465 C   0  0  0  0  0  0  0  0  0  0  0  0
    6.6285    0.8802   17.4953 N   0  0  0  0  0  0  0  0  0  0  0  0
    5.6228    1.6706   17.5507 C   0  0  0  0  0  0  0  0  0  0  0  0
  1  2  1  0
  2  3  2  0
  3  4  1  0
  4  5  1  0
  5  6  1  0
  6  7  2  0
  6  8  1  0
  8  9  1  0
  9 10  1  0
 10 11  2  0
 11 12  1  0
 12 13  2  0
 13 14  1  0
 14 15  2  0
 15 16  1  0
 16 17  2  0
 13 18  1  0
 18 19  3  0
 10 20  1  0
 20 21  1  0
 21 22  1  0
 22 23  1  0
 23 24  1  0
 24 25  1  0
 24 26  1  0
 26 27  2  0
 26 28  1  0
 28 29  1  0
  4 30  1  0
 30 31  1  0
 31 32  2  0
 32  2  1  0
 17  9  1  0
 25 20  1  0
 17 12  1  0
M  END
