CVD-0003214|dock_bobby27042020.60|mol2|28|dock1
     RDKit          3D

 35 39  0  0  0  0  0  0  0  0999 V2000
    5.9242    1.8039   17.7555 F   0  0  0  0  0  0  0  0  0  0  0  0
    6.3905    0.7432   18.4509 C   0  0  0  0  0  0  0  0  0  0  0  0
    7.6113    0.1535   18.3707 C   0  0  0  0  0  0  0  0  0  0  0  0
    7.6578   -0.8890   19.2540 O   0  0  0  0  0  0  0  0  0  0  0  0
    6.4401   -0.9256   19.8773 C   0  0  0  0  0  0  0  0  0  0  0  0
    6.2475   -1.9880   20.8940 C   0  0  0  0  0  0  0  0  0  0  0  0
    7.3856   -2.0955   21.8086 N   0  0  0  0  0  0  0  0  0  0  0  0
    7.5013   -3.2849   22.4775 C   0  0  0  0  0  0  0  0  0  0  0  0
    6.6800   -4.1778   22.3112 O   0  0  0  0  0  0  0  0  0  0  0  0
    8.6403   -3.5408   23.4691 C   0  0  0  0  0  0  0  0  0  0  0  0
    8.2702   -4.4375   24.5498 N   0  0  0  0  0  0  0  0  0  0  0  0
    8.2685   -5.7830   24.3578 N   0  0  0  0  0  0  0  0  0  0  0  0
    7.8936   -6.3713   25.4572 N   0  0  0  0  0  0  0  0  0  0  0  0
    7.6762   -5.3998   26.4079 C   0  0  0  0  0  0  0  0  0  0  0  0
    7.2759   -5.4840   27.7406 C   0  0  0  0  0  0  0  0  0  0  0  0
    7.1464   -4.3146   28.4732 C   0  0  0  0  0  0  0  0  0  0  0  0
    7.4104   -3.0847   27.9037 C   0  0  0  0  0  0  0  0  0  0  0  0
    7.8089   -2.9808   26.5802 C   0  0  0  0  0  0  0  0  0  0  0  0
    7.9287   -4.1514   25.8396 C   0  0  0  0  0  0  0  0  0  0  0  0
    8.2732   -0.9652   21.8908 C   0  0  0  0  0  0  0  0  0  0  0  0
    9.6470   -1.1035   21.7535 C   0  0  0  0  0  0  0  0  0  0  0  0
   10.4859   -0.0079   21.8466 C   0  0  0  0  0  0  0  0  0  0  0  0
    9.9793    1.2673   22.0642 C   0  0  0  0  0  0  0  0  0  0  0  0
   10.9089    2.3362   22.1486 N   0  0  0  0  0  0  0  0  0  0  0  0
   10.7152    3.6697   22.3518 C   0  0  0  0  0  0  0  0  0  0  0  0
    9.6115    4.1785   22.5158 O   0  0  0  0  0  0  0  0  0  0  0  0
   11.9083    4.5884   22.3809 C   0  0  0  0  0  0  0  0  0  0  0  0
   12.9142    4.3876   21.4390 C   0  0  0  0  0  0  0  0  0  0  0  0
   14.0387    5.1948   21.4081 C   0  0  0  0  0  0  0  0  0  0  0  0
   14.1823    6.2191   22.3168 C   0  0  0  0  0  0  0  0  0  0  0  0
   13.1996    6.4354   23.2569 C   0  0  0  0  0  0  0  0  0  0  0  0
   12.0722    5.6316   23.2933 C   0  0  0  0  0  0  0  0  0  0  0  0
    8.5991    1.4115   22.1838 C   0  0  0  0  0  0  0  0  0  0  0  0
    7.7650    0.3105   22.0975 C   0  0  0  0  0  0  0  0  0  0  0  0
    5.6425    0.0515   19.4151 C   0  0  0  0  0  0  0  0  0  0  0  0
  1  2  1  0
  2  3  2  0
  3  4  1  0
  4  5  1  0
  5  6  1  0
  6  7  1  0
  7  8  1  0
  8  9  2  0
  8 10  1  0
 10 11  1  0
 11 12  1  0
 12 13  2  0
 13 14  1  0
 14 15  2  0
 15 16  1  0
 16 17  2  0
 17 18  1  0
 18 19  2  0
  7 20  1  0
 20 21  2  0
 21 22  1  0
 22 23  2  0
 23 24  1  0
 24 25  1  0
 25 26  2  0
 25 27  1  0
 27 28  2  0
 28 29  1  0
 29 30  2  0
 30 31  1  0
 31 32  2  0
 23 33  1  0
 33 34  2  0
  5 35  2  0
 35  2  1  0
 19 11  1  0
 34 20  1  0
 19 14  1  0
 32 27  1  0
M  END
