CVD-0002679|dock_bobby27042020.4|mol2|44|dock1
     RDKit          3D

 28 30  0  0  0  0  0  0  0  0999 V2000
    5.7847   -1.1712   18.4824 N   0  0  0  0  0  0  0  0  0  0  0  0
    6.2248   -1.0734   19.7303 C   0  0  0  0  0  0  0  0  0  0  0  0
    5.4891   -1.1515   20.7207 O   0  0  0  0  0  0  0  0  0  0  0  0
    7.7290   -0.8535   19.8680 C   0  0  0  0  0  0  0  0  0  0  0  0
    8.3693   -0.3711   18.9499 O   0  0  0  0  0  0  0  0  0  0  0  0
    8.3828   -1.2694   21.1826 C   0  0  0  0  0  0  0  0  0  0  0  0
    8.2952   -2.7951   21.3475 C   0  0  0  0  0  0  0  0  0  0  0  0
    8.8226   -3.2800   22.6761 C   0  0  0  0  0  0  0  0  0  0  0  0
   10.1845   -3.2974   22.9343 C   0  0  0  0  0  0  0  0  0  0  0  0
   10.6688   -3.7437   24.1526 C   0  0  0  0  0  0  0  0  0  0  0  0
    9.7962   -4.1785   25.1269 C   0  0  0  0  0  0  0  0  0  0  0  0
    8.4398   -4.1671   24.8829 C   0  0  0  0  0  0  0  0  0  0  0  0
    7.9561   -3.7207   23.6644 C   0  0  0  0  0  0  0  0  0  0  0  0
    9.7648   -0.8121   21.2077 N   0  0  0  0  0  0  0  0  0  0  0  0
   10.2480    0.0156   22.1418 C   0  0  0  0  0  0  0  0  0  0  0  0
    9.5785    0.4698   23.0659 O   0  0  0  0  0  0  0  0  0  0  0  0
   11.7230    0.3845   22.0145 C   0  0  0  0  0  0  0  0  0  0  0  0
   12.6458   -0.5889   22.7812 C   0  0  0  0  0  0  0  0  0  0  0  0
   13.4323    0.2326   23.7439 C   0  0  0  0  0  0  0  0  0  0  0  0
   13.3855    1.6406   23.1996 C   0  0  0  0  0  0  0  0  0  0  0  0
   12.0429    1.6950   22.6246 N   0  0  0  0  0  0  0  0  0  0  0  0
   11.8479    2.8358   21.7203 C   0  0  0  0  0  0  0  0  0  0  0  0
   12.3386    4.1348   22.3131 C   0  0  0  0  0  0  0  0  0  0  0  0
   13.1552    4.9832   21.5817 C   0  0  0  0  0  0  0  0  0  0  0  0
   13.6076    6.1735   22.1263 C   0  0  0  0  0  0  0  0  0  0  0  0
   13.2488    6.5283   23.4090 C   0  0  0  0  0  0  0  0  0  0  0  0
   12.4382    5.6930   24.1472 C   0  0  0  0  0  0  0  0  0  0  0  0
   11.9859    4.5028   23.6023 C   0  0  0  0  0  0  0  0  0  0  0  0
  1  2  1  0
  2  3  2  0
  2  4  1  0
  4  5  2  0
  4  6  1  0
  6  7  1  0
  7  8  1  0
  8  9  2  0
  9 10  1  0
 10 11  2  0
 11 12  1  0
 12 13  2  0
  6 14  1  0
 14 15  1  0
 15 16  2  0
 15 17  1  0
 17 18  1  0
 18 19  1  0
 19 20  1  0
 20 21  1  0
 21 22  1  0
 22 23  1  0
 23 24  2  0
 24 25  1  0
 25 26  2  0
 26 27  1  0
 27 28  2  0
 13  8  1  0
 21 17  1  0
 28 23  1  0
M  END
