CVD-0001197|dock_bobby27042020.24|mol2|37|dock2
     RDKit          3D

 26 28  0  0  0  0  0  0  0  0999 V2000
   11.8542    6.6833   25.5447 C   0  0  0  0  0  0  0  0  0  0  0  0
   12.7570    6.2738   24.4183 C   0  0  0  0  0  0  0  0  0  0  0  0
   13.3968    7.0945   23.7680 O   0  0  0  0  0  0  0  0  0  0  0  0
   12.8108    4.9670   24.1539 N   0  0  0  0  0  0  0  0  0  0  0  0
   13.6266    4.4161   23.0813 C   0  0  0  0  0  0  0  0  0  0  0  0
   13.3700    2.9360   22.8790 C   0  0  0  0  0  0  0  0  0  0  0  0
   11.9424    2.6302   22.5324 C   0  0  0  0  0  0  0  0  0  0  0  0
   10.9199    3.5188   22.3764 C   0  0  0  0  0  0  0  0  0  0  0  0
    9.7618    2.8622   22.0611 N   0  0  0  0  0  0  0  0  0  0  0  0
   10.0198    1.5142   22.0068 C   0  0  0  0  0  0  0  0  0  0  0  0
    9.1717    0.4345   21.7260 C   0  0  0  0  0  0  0  0  0  0  0  0
    7.8472    0.6673   21.4476 N   0  0  0  0  0  0  0  0  0  0  0  0
    7.0706   -0.1900   20.5740 C   0  0  0  0  0  0  0  0  0  0  0  0
    5.9584    0.5365   19.8585 C   0  0  0  0  0  0  0  0  0  0  0  0
    6.0768    0.9145   18.5237 C   0  0  0  0  0  0  0  0  0  0  0  0
    5.0506    1.5786   17.8722 C   0  0  0  0  0  0  0  0  0  0  0  0
    3.8834    1.8783   18.5417 C   0  0  0  0  0  0  0  0  0  0  0  0
    3.7344    1.5149   19.8692 C   0  0  0  0  0  0  0  0  0  0  0  0
    4.7646    0.8454   20.5320 C   0  0  0  0  0  0  0  0  0  0  0  0
    4.5973    0.4720   21.9123 C   0  0  0  0  0  0  0  0  0  0  0  0
    4.4799    0.2053   23.0167 N   0  0  0  0  0  0  0  0  0  0  0  0
    9.7140   -0.8482   21.7415 C   0  0  0  0  0  0  0  0  0  0  0  0
   11.0499   -1.0009   22.0293 C   0  0  0  0  0  0  0  0  0  0  0  0
   11.5574   -2.2631   22.0384 F   0  0  0  0  0  0  0  0  0  0  0  0
   11.9059    0.0367   22.3082 C   0  0  0  0  0  0  0  0  0  0  0  0
   11.3848    1.3286   22.2985 C   0  0  0  0  0  0  0  0  0  0  0  0
  1  2  1  0
  2  3  2  0
  2  4  1  0
  4  5  1  0
  5  6  1  0
  6  7  1  0
  7  8  2  0
  8  9  1  0
  9 10  1  0
 10 11  2  0
 11 12  1  0
 12 13  1  0
 13 14  1  0
 14 15  2  0
 15 16  1  0
 16 17  2  0
 17 18  1  0
 18 19  2  0
 19 20  1  0
 20 21  3  0
 11 22  1  0
 22 23  2  0
 23 24  1  0
 23 25  1  0
 25 26  2  0
 26  7  1  0
 26 10  1  0
 19 14  1  0
M  END
