CVD-0000540|dock_bobby27042020.26|mol2|51|dock2
     RDKit          3D

 28 30  0  0  0  0  0  0  0  0999 V2000
   11.6168    2.1893   22.7070 C   0  0  0  0  0  0  0  0  0  0  0  0
   12.1162    0.7692   22.6340 C   0  0  0  0  0  0  0  0  0  0  0  0
   13.3992    0.4932   23.0971 C   0  0  0  0  0  0  0  0  0  0  0  0
   13.8821   -0.7950   23.0463 C   0  0  0  0  0  0  0  0  0  0  0  0
   13.1762   -1.8160   22.5691 N   0  0  0  0  0  0  0  0  0  0  0  0
   11.9420   -1.5635   22.1223 C   0  0  0  0  0  0  0  0  0  0  0  0
   11.3516   -0.2990   22.1258 C   0  0  0  0  0  0  0  0  0  0  0  0
   10.0380   -0.0216   21.6528 N   0  0  0  0  0  0  0  0  0  0  0  0
    9.1569   -0.8389   20.9857 C   0  0  0  0  0  0  0  0  0  0  0  0
    9.3560   -2.0066   20.6648 O   0  0  0  0  0  0  0  0  0  0  0  0
    7.9955   -0.2058   20.7028 N   0  0  0  0  0  0  0  0  0  0  0  0
    6.6569    0.0340   20.2249 C   0  0  0  0  0  0  0  0  0  0  0  0
    6.2828    1.4339   20.7049 C   0  0  0  0  0  0  0  0  0  0  0  0
    4.9563    1.8745   20.1189 C   0  0  0  0  0  0  0  0  0  0  0  0
    4.9755    1.8198   18.5989 C   0  0  0  0  0  0  0  0  0  0  0  0
    5.3582    0.4320   18.1107 C   0  0  0  0  0  0  0  0  0  0  0  0
    6.6852   -0.0240   18.7041 C   0  0  0  0  0  0  0  0  0  0  0  0
    5.7100   -0.8272   20.8330 O   0  0  0  0  0  0  0  0  0  0  0  0
    6.0921   -2.0359   21.4487 C   0  0  0  0  0  0  0  0  0  0  0  0
    6.4942   -2.0320   22.7725 C   0  0  0  0  0  0  0  0  0  0  0  0
    6.8701   -3.2171   23.3795 C   0  0  0  0  0  0  0  0  0  0  0  0
    6.8406   -4.3963   22.6524 C   0  0  0  0  0  0  0  0  0  0  0  0
    6.4360   -4.4014   21.3273 C   0  0  0  0  0  0  0  0  0  0  0  0
    6.0609   -3.2141   20.7240 C   0  0  0  0  0  0  0  0  0  0  0  0
    7.3144   -5.9124   23.4272 S   0  0  0  0  0  0  0  0  0  0  0  0
    8.7363   -5.6996   24.1312 N   0  0  0  0  0  0  0  0  0  0  0  0
    6.3636   -6.1778   24.4648 O   0  0  0  0  0  0  0  0  0  0  0  0
    7.4962   -6.8837   22.3906 O   0  0  0  0  0  0  0  0  0  0  0  0
  1  2  1  0
  2  3  2  0
  3  4  1  0
  4  5  2  0
  5  6  1  0
  6  7  2  0
  7  8  1  0
  8  9  1  0
  9 10  2  0
  9 11  1  0
 11 12  1  0
 12 13  1  0
 13 14  1  0
 14 15  1  0
 15 16  1  0
 16 17  1  0
 12 18  1  0
 18 19  1  0
 19 20  2  0
 20 21  1  0
 21 22  2  0
 22 23  1  0
 23 24  2  0
 22 25  1  0
 25 26  1  0
 25 27  2  0
 25 28  2  0
  7  2  1  0
 17 12  1  0
 24 19  1  0
M  END
