CVD-0002978|dock_bobby27042020.75|mol2|20|dock2
     RDKit          3D

 25 27  0  0  0  0  0  0  0  0999 V2000
    4.4816    2.1214   17.9553 N   0  0  0  0  0  0  0  0  0  0  0  0
    5.3412    0.7955   17.6977 S   0  0  0  0  0  0  0  0  0  0  0  0
    6.5281    1.1895   16.9997 O   0  0  0  0  0  0  0  0  0  0  0  0
    4.4681   -0.1640   17.0910 O   0  0  0  0  0  0  0  0  0  0  0  0
    5.8412    0.1400   19.2607 C   0  0  0  0  0  0  0  0  0  0  0  0
    4.9151    0.0493   20.2881 C   0  0  0  0  0  0  0  0  0  0  0  0
    5.2864   -0.4493   21.5000 C   0  0  0  0  0  0  0  0  0  0  0  0
    6.6137   -0.8803   21.7352 C   0  0  0  0  0  0  0  0  0  0  0  0
    7.0496   -1.4058   22.9745 C   0  0  0  0  0  0  0  0  0  0  0  0
    8.3397   -1.8062   23.1492 C   0  0  0  0  0  0  0  0  0  0  0  0
    9.2706   -1.7138   22.1252 C   0  0  0  0  0  0  0  0  0  0  0  0
   10.6931   -2.1680   22.3450 C   0  0  0  0  0  0  0  0  0  0  0  0
   11.5750   -1.1557   23.0864 C   0  0  0  0  0  0  0  0  0  0  0  0
   11.0004    0.2590   23.0614 C   0  0  0  0  0  0  0  0  0  0  0  0
   11.9291    1.2695   23.7038 C   0  0  0  0  0  0  0  0  0  0  0  0
   13.2681    1.1953   23.1105 N   0  0  0  0  0  0  0  0  0  0  0  0
   13.8752   -0.1248   23.2359 C   0  0  0  0  0  0  0  0  0  0  0  0
   12.9987   -1.1455   22.5444 C   0  0  0  0  0  0  0  0  0  0  0  0
   13.9588    2.2363   22.5873 C   0  0  0  0  0  0  0  0  0  0  0  0
   15.0739    2.0853   22.1040 O   0  0  0  0  0  0  0  0  0  0  0  0
   13.3192    3.6116   22.6016 C   0  0  0  0  0  0  0  0  0  0  0  0
   14.3824    4.8165   21.8632 Cl  0  0  0  0  0  0  0  0  0  0  0  0
    8.8824   -1.2109   20.9113 C   0  0  0  0  0  0  0  0  0  0  0  0
    7.5552   -0.7821   20.6798 C   0  0  0  0  0  0  0  0  0  0  0  0
    7.1335   -0.2594   19.4355 C   0  0  0  0  0  0  0  0  0  0  0  0
  1  2  1  0
  2  3  2  0
  2  4  2  0
  2  5  1  0
  5  6  2  0
  6  7  1  0
  7  8  2  0
  8  9  1  0
  9 10  2  0
 10 11  1  0
 11 12  1  0
 12 13  1  0
 13 14  1  0
 14 15  1  0
 15 16  1  0
 16 17  1  0
 17 18  1  0
 16 19  1  0
 19 20  2  0
 19 21  1  0
 21 22  1  0
 11 23  2  0
 23 24  1  0
 24 25  2  0
 25  5  1  0
 24  8  1  0
 18 13  1  0
M  END
