CVD-0001353|dock_bobby27042020.81|mol2|22|dock2
     RDKit          3D

 25 27  0  0  0  0  0  0  0  0999 V2000
    6.1602   -6.4264   26.9852 C   0  0  0  0  0  0  0  0  0  0  0  0
    7.4779   -5.7178   27.1068 C   0  0  0  0  0  0  0  0  0  0  0  0
    8.0098   -5.6006   28.2052 O   0  0  0  0  0  0  0  0  0  0  0  0
    8.0679   -5.1964   25.9967 N   0  0  0  0  0  0  0  0  0  0  0  0
    9.3438   -4.4785   26.0384 C   0  0  0  0  0  0  0  0  0  0  0  0
    9.2042   -3.1118   25.3942 C   0  0  0  0  0  0  0  0  0  0  0  0
    8.7450   -3.2484   24.0087 N   0  0  0  0  0  0  0  0  0  0  0  0
    8.6464   -1.9296   23.3674 C   0  0  0  0  0  0  0  0  0  0  0  0
    9.9854   -1.2537   23.1982 C   0  0  0  0  0  0  0  0  0  0  0  0
   11.1477   -2.0015   23.1003 C   0  0  0  0  0  0  0  0  0  0  0  0
   12.3359   -1.3552   22.9451 C   0  0  0  0  0  0  0  0  0  0  0  0
   13.8021   -2.2837   22.8220 Cl  0  0  0  0  0  0  0  0  0  0  0  0
   12.4005    0.0562   22.8823 C   0  0  0  0  0  0  0  0  0  0  0  0
   13.5784    0.8297   22.7238 C   0  0  0  0  0  0  0  0  0  0  0  0
   13.5235    2.1892   22.6754 C   0  0  0  0  0  0  0  0  0  0  0  0
   12.3028    2.8378   22.7801 C   0  0  0  0  0  0  0  0  0  0  0  0
   11.1384    2.1439   22.9360 C   0  0  0  0  0  0  0  0  0  0  0  0
   11.1574    0.7310   22.9904 C   0  0  0  0  0  0  0  0  0  0  0  0
    9.9701    0.0651   23.1462 N   0  0  0  0  0  0  0  0  0  0  0  0
   12.2543    4.6033   22.7211 S   0  0  0  0  0  0  0  0  0  0  0  0
   13.1598    5.0951   21.4958 N   0  0  0  0  0  0  0  0  0  0  0  0
   10.9048    4.9845   22.4301 O   0  0  0  0  0  0  0  0  0  0  0  0
   12.8666    5.0884   23.9216 O   0  0  0  0  0  0  0  0  0  0  0  0
    7.4477   -3.9194   24.0007 C   0  0  0  0  0  0  0  0  0  0  0  0
    7.5511   -5.2975   24.6283 C   0  0  0  0  0  0  0  0  0  0  0  0
  1  2  1  0
  2  3  2  0
  2  4  1  0
  4  5  1  0
  5  6  1  0
  6  7  1  0
  7  8  1  0
  8  9  1  0
  9 10  2  0
 10 11  1  0
 11 12  1  0
 11 13  2  0
 13 14  1  0
 14 15  2  0
 15 16  1  0
 16 17  2  0
 17 18  1  0
 18 19  2  0
 16 20  1  0
 20 21  1  0
 20 22  2  0
 20 23  2  0
  7 24  1  0
 24 25  1  0
 25  4  1  0
 19  9  1  0
 18 13  1  0
M  END
