CVD-0000354|dock_bobby27042020.27|mol2|26|dock2
     RDKit          3D

 30 32  0  0  0  0  0  0  0  0999 V2000
    7.2823   -2.9087   23.1114 C   0  0  0  0  0  0  0  0  0  0  0  0
    7.2013   -1.5532   22.4367 C   0  0  0  0  0  0  0  0  0  0  0  0
    6.7212   -1.6776   21.0977 N   0  0  0  0  0  0  0  0  0  0  0  0
    6.2966   -0.6275   20.3071 C   0  0  0  0  0  0  0  0  0  0  0  0
    6.3148    0.6940   20.7537 C   0  0  0  0  0  0  0  0  0  0  0  0
    5.8809    1.7083   19.9167 C   0  0  0  0  0  0  0  0  0  0  0  0
    5.4367    1.3864   18.6568 C   0  0  0  0  0  0  0  0  0  0  0  0
    5.4005    0.1338   18.1911 N   0  0  0  0  0  0  0  0  0  0  0  0
    5.8196   -0.8198   19.0024 C   0  0  0  0  0  0  0  0  0  0  0  0
    5.7444   -2.4173   18.3280 Cl  0  0  0  0  0  0  0  0  0  0  0  0
    8.4684   -0.9150   22.4867 O   0  0  0  0  0  0  0  0  0  0  0  0
    9.4695   -1.4562   21.6243 C   0  0  0  0  0  0  0  0  0  0  0  0
   10.7780   -0.7680   21.9027 C   0  0  0  0  0  0  0  0  0  0  0  0
   10.8256    0.5469   22.3532 C   0  0  0  0  0  0  0  0  0  0  0  0
   12.0210    1.2022   22.6180 C   0  0  0  0  0  0  0  0  0  0  0  0
   13.2117    0.5126   22.4304 C   0  0  0  0  0  0  0  0  0  0  0  0
   13.1760   -0.7844   21.9879 C   0  0  0  0  0  0  0  0  0  0  0  0
   14.3333   -1.4596   21.8024 F   0  0  0  0  0  0  0  0  0  0  0  0
   11.9836   -1.4148   21.7283 C   0  0  0  0  0  0  0  0  0  0  0  0
   11.9728   -2.6886   21.2946 F   0  0  0  0  0  0  0  0  0  0  0  0
   12.0195    2.6339   23.0955 C   0  0  0  0  0  0  0  0  0  0  0  0
   11.2087    3.4758   22.1488 C   0  0  0  0  0  0  0  0  0  0  0  0
   11.2757    4.8770   22.5606 N   0  0  0  0  0  0  0  0  0  0  0  0
   12.6428    5.3578   22.7506 C   0  0  0  0  0  0  0  0  0  0  0  0
   13.3906    4.4286   23.6596 C   0  0  0  0  0  0  0  0  0  0  0  0
   13.3607    3.0924   23.1868 O   0  0  0  0  0  0  0  0  0  0  0  0
   10.2056    5.6883   22.7479 C   0  0  0  0  0  0  0  0  0  0  0  0
   10.3867    6.8586   23.0800 O   0  0  0  0  0  0  0  0  0  0  0  0
    8.8076    5.2018   22.5641 C   0  0  0  0  0  0  0  0  0  0  0  0
    7.9728    5.8571   21.8017 C   0  0  0  0  0  0  0  0  0  0  0  0
  2  1  1  0
  2  3  1  0
  3  4  1  0
  4  5  2  0
  5  6  1  0
  6  7  2  0
  7  8  1  0
  8  9  2  0
  9 10  1  0
  2 11  1  0
 11 12  1  0
 12 13  1  0
 13 14  2  0
 14 15  1  0
 15 16  2  0
 16 17  1  0
 17 18  1  0
 17 19  2  0
 19 20  1  0
 21 15  1  0
 21 22  1  0
 22 23  1  0
 23 24  1  0
 24 25  1  0
 25 26  1  0
 23 27  1  0
 27 28  2  0
 27 29  1  0
 29 30  2  0
  9  4  1  0
 19 13  1  0
 26 21  1  0
M  END
