CVD-0000210|dock_bobby27042020.42|mol2|22|dock3
     RDKit          3D

 27 29  0  0  0  0  0  0  0  0999 V2000
   14.1565   -2.0356   21.1564 O   0  0  0  0  0  0  0  0  0  0  0  0
   13.2993   -1.4217   22.0223 C   0  0  0  0  0  0  0  0  0  0  0  0
   13.7979   -0.6161   23.0318 C   0  0  0  0  0  0  0  0  0  0  0  0
   12.9228    0.0018   23.9043 C   0  0  0  0  0  0  0  0  0  0  0  0
   11.5524   -0.1832   23.7705 C   0  0  0  0  0  0  0  0  0  0  0  0
   10.7270    0.4431   24.6495 O   0  0  0  0  0  0  0  0  0  0  0  0
   11.0312   -0.9948   22.7554 C   0  0  0  0  0  0  0  0  0  0  0  0
   11.9312   -1.6090   21.8854 C   0  0  0  0  0  0  0  0  0  0  0  0
    9.5372   -1.2147   22.5845 C   0  0  0  0  0  0  0  0  0  0  0  0
    9.2436   -2.7048   22.6322 C   0  0  0  0  0  0  0  0  0  0  0  0
    7.8152   -2.9959   22.9645 N   0  0  0  0  0  0  0  0  0  0  0  0
    7.7413   -4.4265   22.6308 C   0  0  0  0  0  0  0  0  0  0  0  0
    6.4925   -5.1089   23.1366 C   0  0  0  0  0  0  0  0  0  0  0  0
    5.6791   -5.8277   22.2748 C   0  0  0  0  0  0  0  0  0  0  0  0
    4.5324   -6.4504   22.7387 C   0  0  0  0  0  0  0  0  0  0  0  0
    4.1820   -6.3614   24.0754 C   0  0  0  0  0  0  0  0  0  0  0  0
    4.9934   -5.6445   24.9271 C   0  0  0  0  0  0  0  0  0  0  0  0
    4.5661   -5.5228   26.6108 Cl  0  0  0  0  0  0  0  0  0  0  0  0
    6.1383   -5.0199   24.4766 C   0  0  0  0  0  0  0  0  0  0  0  0
    6.5811   -2.2613   22.5670 C   0  0  0  0  0  0  0  0  0  0  0  0
    6.8240   -0.8158   22.1701 C   0  0  0  0  0  0  0  0  0  0  0  0
    7.7063   -0.6139   21.0302 N   0  0  0  0  0  0  0  0  0  0  0  0
    9.1266   -0.4612   21.3344 C   0  0  0  0  0  0  0  0  0  0  0  0
    7.3364   -0.6313   19.7306 C   0  0  0  0  0  0  0  0  0  0  0  0
    8.1440   -0.4402   18.8300 O   0  0  0  0  0  0  0  0  0  0  0  0
    5.8742   -0.8887   19.4208 C   0  0  0  0  0  0  0  0  0  0  0  0
    5.6113   -1.0346   17.6781 Cl  0  0  0  0  0  0  0  0  0  0  0  0
  1  2  1  0
  2  3  2  0
  3  4  1  0
  4  5  2  0
  5  6  1  0
  5  7  1  0
  7  8  2  0
  7  9  1  0
  9 10  1  0
 10 11  1  0
 11 12  1  0
 12 13  1  0
 13 14  2  0
 14 15  1  0
 15 16  2  0
 16 17  1  0
 17 18  1  0
 17 19  2  0
 11 20  1  0
 20 21  1  0
 21 22  1  0
 22 23  1  0
 22 24  1  0
 24 25  2  0
 24 26  1  0
 26 27  1  0
  8  2  1  0
 23  9  1  0
 19 13  1  0
M  END
