CVD-0000896|dock_bobby27042020.54|mol2|25|dock3
     RDKit          3D

 21 22  0  0  0  0  0  0  0  0999 V2000
   10.4044    1.9631   25.8358 O   0  0  0  0  0  0  0  0  0  0  0  0
   10.3312    0.5997   26.2145 C   0  0  0  0  0  0  0  0  0  0  0  0
   10.5250   -0.2961   25.0855 N   0  0  0  0  0  0  0  0  0  0  0  0
   11.5935   -0.2007   24.3033 C   0  0  0  0  0  0  0  0  0  0  0  0
   12.8269    0.9729   24.5497 S   0  0  0  0  0  0  0  0  0  0  0  0
   13.6901    0.3737   23.1969 C   0  0  0  0  0  0  0  0  0  0  0  0
   13.0639   -0.6740   22.5827 C   0  0  0  0  0  0  0  0  0  0  0  0
   13.6149   -1.3228   21.4331 C   0  0  0  0  0  0  0  0  0  0  0  0
   14.0309   -1.8739   20.5204 N   0  0  0  0  0  0  0  0  0  0  0  0
   11.8461   -1.0142   23.2143 C   0  0  0  0  0  0  0  0  0  0  0  0
   10.9512   -2.1365   22.7521 C   0  0  0  0  0  0  0  0  0  0  0  0
    9.5718   -1.7019   22.5197 N   0  0  0  0  0  0  0  0  0  0  0  0
    8.7252   -2.8470   22.1723 C   0  0  0  0  0  0  0  0  0  0  0  0
    7.2897   -2.3975   21.9730 C   0  0  0  0  0  0  0  0  0  0  0  0
    7.2140   -1.3763   20.9261 N   0  0  0  0  0  0  0  0  0  0  0  0
    8.0970   -0.2421   21.2151 C   0  0  0  0  0  0  0  0  0  0  0  0
    9.5193   -0.7242   21.4359 C   0  0  0  0  0  0  0  0  0  0  0  0
    6.3998   -1.4844   19.8564 C   0  0  0  0  0  0  0  0  0  0  0  0
    5.6623   -2.4495   19.7008 O   0  0  0  0  0  0  0  0  0  0  0  0
    6.4452   -0.3526   18.8483 C   0  0  0  0  0  0  0  0  0  0  0  0
    5.2903   -0.6060   17.5330 Cl  0  0  0  0  0  0  0  0  0  0  0  0
  1  2  1  0
  2  3  1  0
  3  4  1  0
  4  5  1  0
  5  6  1  0
  6  7  2  0
  7  8  1  0
  8  9  3  0
  7 10  1  0
 10 11  1  0
 11 12  1  0
 12 13  1  0
 13 14  1  0
 14 15  1  0
 15 16  1  0
 16 17  1  0
 15 18  1  0
 18 19  2  0
 18 20  1  0
 20 21  1  0
 10  4  2  0
 17 12  1  0
M  END
