CVD-0003108|dock_bobby27042020.89|mol2|6|dock1
     RDKit          3D

 31 33  0  0  0  0  0  0  0  0999 V2000
    4.3289   -6.2697   22.5235 C   0  0  0  0  0  0  0  0  0  0  0  0
    5.7127   -5.7205   22.7711 C   0  0  0  0  0  0  0  0  0  0  0  0
    6.8048   -6.5640   22.8942 C   0  0  0  0  0  0  0  0  0  0  0  0
    8.0775   -6.0722   23.1242 C   0  0  0  0  0  0  0  0  0  0  0  0
    8.2751   -4.7039   23.2327 C   0  0  0  0  0  0  0  0  0  0  0  0
    9.5187   -4.1654   23.4586 O   0  0  0  0  0  0  0  0  0  0  0  0
    9.8518   -2.8669   22.9751 C   0  0  0  0  0  0  0  0  0  0  0  0
   11.3579   -2.6571   23.0087 C   0  0  0  0  0  0  0  0  0  0  0  0
   12.0686   -3.4914   23.5555 O   0  0  0  0  0  0  0  0  0  0  0  0
   11.8818   -1.5538   22.4243 N   0  0  0  0  0  0  0  0  0  0  0  0
   11.0583   -0.5348   21.7698 C   0  0  0  0  0  0  0  0  0  0  0  0
   11.3599    0.8381   22.3414 C   0  0  0  0  0  0  0  0  0  0  0  0
   12.7819    1.1544   22.1780 N   0  0  0  0  0  0  0  0  0  0  0  0
   13.0717    2.4996   22.6940 C   0  0  0  0  0  0  0  0  0  0  0  0
   12.5113    3.6214   21.8372 C   0  0  0  0  0  0  0  0  0  0  0  0
   13.2310    4.9396   22.0688 C   0  0  0  0  0  0  0  0  0  0  0  0
   13.1216    5.4406   23.5028 C   0  0  0  0  0  0  0  0  0  0  0  0
   13.5336    6.8825   23.6780 C   0  0  0  0  0  0  0  0  0  0  0  0
   14.0353    7.5119   22.7530 O   0  0  0  0  0  0  0  0  0  0  0  0
   13.2837    7.3604   24.9221 N   0  0  0  0  0  0  0  0  0  0  0  0
   13.5165    8.6491   25.4792 C   0  0  0  0  0  0  0  0  0  0  0  0
   13.6711    9.8136   24.7262 C   0  0  0  0  0  0  0  0  0  0  0  0
   13.8885   11.0230   25.2524 N   0  0  0  0  0  0  0  0  0  0  0  0
   13.9614   11.1167   26.5769 C   0  0  0  0  0  0  0  0  0  0  0  0
   13.8241   10.0335   27.4155 C   0  0  0  0  0  0  0  0  0  0  0  0
   13.5982    8.7690   26.8801 C   0  0  0  0  0  0  0  0  0  0  0  0
   13.4489    7.6049   27.8258 C   0  0  0  0  0  0  0  0  0  0  0  0
   13.5770    0.1534   22.8842 C   0  0  0  0  0  0  0  0  0  0  0  0
   13.3097   -1.2344   22.3302 C   0  0  0  0  0  0  0  0  0  0  0  0
    7.1949   -3.8464   23.1166 C   0  0  0  0  0  0  0  0  0  0  0  0
    5.9298   -4.3573   22.8881 C   0  0  0  0  0  0  0  0  0  0  0  0
  1  2  1  0
  2  3  2  0
  3  4  1  0
  4  5  2  0
  5  6  1  0
  6  7  1  0
  7  8  1  0
  8  9  2  0
  8 10  1  0
 10 11  1  0
 11 12  1  0
 12 13  1  0
 13 14  1  0
 14 15  1  0
 15 16  1  0
 16 17  1  0
 17 18  1  0
 18 19  2  0
 18 20  1  0
 20 21  1  0
 21 22  2  0
 22 23  1  0
 23 24  2  0
 24 25  1  0
 25 26  2  0
 26 27  1  0
 13 28  1  0
 28 29  1  0
  5 30  1  0
 30 31  2  0
 31  2  1  0
 29 10  1  0
 26 21  1  0
M  END
