CVD-0001543|dock_bobby27042020.95|mol2|3|dock1
     RDKit          3D

 15 15  0  0  0  0  0  0  0  0999 V2000
   12.8388   -1.7251   21.6294 C   0  0  0  0  0  0  0  0  0  0  0  0
   12.5269   -1.0816   22.9839 C   0  0  0  0  0  0  0  0  0  0  0  0
   13.6431   -1.4537   23.9642 C   0  0  0  0  0  0  0  0  0  0  0  0
   11.2090   -1.6576   23.5104 C   0  0  0  0  0  0  0  0  0  0  0  0
   12.4325    0.4468   22.8472 C   0  0  0  0  0  0  0  0  0  0  0  0
   11.2178    0.9855   22.8573 N   0  0  0  0  0  0  0  0  0  0  0  0
   11.1122    2.3340   22.7377 C   0  0  0  0  0  0  0  0  0  0  0  0
    9.9147    2.8028   22.7534 O   0  0  0  0  0  0  0  0  0  0  0  0
   12.2730    3.1285   22.6068 C   0  0  0  0  0  0  0  0  0  0  0  0
   13.4974    2.5746   22.5975 N   0  0  0  0  0  0  0  0  0  0  0  0
   13.5370    1.2702   22.7163 C   0  0  0  0  0  0  0  0  0  0  0  0
   14.7608    0.7207   22.7067 F   0  0  0  0  0  0  0  0  0  0  0  0
   12.2610    4.6377   22.4676 C   0  0  0  0  0  0  0  0  0  0  0  0
   13.3614    5.2483   22.0470 N   0  0  0  0  0  0  0  0  0  0  0  0
   11.2332    5.2648   22.7470 O   0  0  0  0  0  0  0  0  0  0  0  0
  1  2  1  0
  2  3  1  0
  2  4  1  0
  2  5  1  0
  5  6  2  0
  6  7  1  0
  7  8  1  0
  7  9  2  0
  9 10  1  0
 10 11  2  0
 11 12  1  0
  9 13  1  0
 13 14  1  0
 13 15  2  0
 11  5  1  0
M  END
