CVD-0000071|dock_bobby27042020.14|mol2|17|dock2
     RDKit          3D

 14 14  0  0  0  0  0  0  0  0999 V2000
   10.4073   -1.0491   22.0626 C   0  0  0  0  0  0  0  0  0  0  0  0
   11.7579   -1.1570   22.7228 C   0  0  0  0  0  0  0  0  0  0  0  0
   12.2637   -2.4245   22.9953 C   0  0  0  0  0  0  0  0  0  0  0  0
   13.4963   -2.5546   23.5949 C   0  0  0  0  0  0  0  0  0  0  0  0
   14.2505   -1.5141   23.9369 N   0  0  0  0  0  0  0  0  0  0  0  0
   13.7759   -0.2914   23.6791 C   0  0  0  0  0  0  0  0  0  0  0  0
   12.5426   -0.0421   23.0762 C   0  0  0  0  0  0  0  0  0  0  0  0
   12.0352    1.2584   22.8000 N   0  0  0  0  0  0  0  0  0  0  0  0
   12.6873    2.4196   22.5450 C   0  0  0  0  0  0  0  0  0  0  0  0
   13.9036    2.5702   22.5033 O   0  0  0  0  0  0  0  0  0  0  0  0
   11.7589    3.5843   22.3013 C   0  0  0  0  0  0  0  0  0  0  0  0
   12.4693    4.8058   21.7357 C   0  0  0  0  0  0  0  0  0  0  0  0
   13.3470    5.5130   22.7346 C   0  0  0  0  0  0  0  0  0  0  0  0
   14.3833    6.9237   21.8834 Br  0  0  0  0  0  0  0  0  0  0  0  0
  1  2  1  0
  2  3  2  0
  3  4  1  0
  4  5  2  0
  5  6  1  0
  6  7  2  0
  7  8  1  0
  8  9  1  0
  9 10  2  0
  9 11  1  0
 11 12  1  0
 12 13  1  0
 13 14  1  0
  7  2  1  0
M  END
