CVD-0001069|dock_bobby27042020.39|mol2|25|dock1
     RDKit          3D

 20 22  0  0  0  0  0  0  0  0999 V2000
   13.5200   -2.3036   21.0767 O   0  0  0  0  0  0  0  0  0  0  0  0
   12.7002   -1.8415   21.8780 C   0  0  0  0  0  0  0  0  0  0  0  0
   11.3748   -1.4368   21.3646 C   0  0  0  0  0  0  0  0  0  0  0  0
   10.2403   -1.4580   22.0620 C   0  0  0  0  0  0  0  0  0  0  0  0
    8.9175   -1.0592   21.5724 C   0  0  0  0  0  0  0  0  0  0  0  0
    7.7690   -1.2214   22.3433 C   0  0  0  0  0  0  0  0  0  0  0  0
    6.5678   -0.8771   21.9413 N   0  0  0  0  0  0  0  0  0  0  0  0
    6.4794   -0.3319   20.6889 C   0  0  0  0  0  0  0  0  0  0  0  0
    5.2242    0.0675   20.1754 C   0  0  0  0  0  0  0  0  0  0  0  0
    5.1412    0.6103   18.9268 C   0  0  0  0  0  0  0  0  0  0  0  0
    6.2687    0.7789   18.1475 C   0  0  0  0  0  0  0  0  0  0  0  0
    7.5000    0.4076   18.6026 C   0  0  0  0  0  0  0  0  0  0  0  0
    7.6352   -0.1594   19.8906 C   0  0  0  0  0  0  0  0  0  0  0  0
    8.8671   -0.5343   20.3544 N   0  0  0  0  0  0  0  0  0  0  0  0
   13.1394   -1.7323   23.3068 C   0  0  0  0  0  0  0  0  0  0  0  0
   12.6889   -0.7586   24.1944 C   0  0  0  0  0  0  0  0  0  0  0  0
   13.1555   -0.7661   25.4942 C   0  0  0  0  0  0  0  0  0  0  0  0
   14.0341   -1.6499   25.9654 N   0  0  0  0  0  0  0  0  0  0  0  0
   14.4770   -2.5663   25.1058 C   0  0  0  0  0  0  0  0  0  0  0  0
   14.0677   -2.6481   23.7897 C   0  0  0  0  0  0  0  0  0  0  0  0
  1  2  2  0
  2  3  1  0
  3  4  2  0
  4  5  1  0
  5  6  2  0
  6  7  1  0
  7  8  2  0
  8  9  1  0
  9 10  2  0
 10 11  1  0
 11 12  2  0
 12 13  1  0
 13 14  2  0
  2 15  1  0
 15 16  2  0
 16 17  1  0
 17 18  2  0
 18 19  1  0
 19 20  2  0
 14  5  1  0
 20 15  1  0
 13  8  1  0
M  END
