CVD-0002069|dock_bobby27042020.7|mol2|30|dock2
     RDKit          3D

 34 37  0  0  0  0  0  0  0  0999 V2000
    6.6126   -3.0707   21.4819 F   0  0  0  0  0  0  0  0  0  0  0  0
    6.9092   -1.8352   21.0258 C   0  0  0  0  0  0  0  0  0  0  0  0
    5.9351   -1.2006   20.2918 C   0  0  0  0  0  0  0  0  0  0  0  0
    6.1606    0.0961   19.8665 C   0  0  0  0  0  0  0  0  0  0  0  0
    7.3417    0.7278   20.1849 C   0  0  0  0  0  0  0  0  0  0  0  0
    8.3202    0.0621   20.9038 C   0  0  0  0  0  0  0  0  0  0  0  0
    8.1387   -1.2592   21.3169 C   0  0  0  0  0  0  0  0  0  0  0  0
    9.2748   -1.8897   22.0329 C   0  0  0  0  0  0  0  0  0  0  0  0
   10.6061   -1.5696   21.8453 C   0  0  0  0  0  0  0  0  0  0  0  0
   11.4131   -2.3527   22.6893 C   0  0  0  0  0  0  0  0  0  0  0  0
   12.9155   -2.2824   22.7678 C   0  0  0  0  0  0  0  0  0  0  0  0
   13.3602   -1.5213   23.9372 N   0  0  0  0  0  0  0  0  0  0  0  0
   13.0100   -0.1007   23.8773 C   0  0  0  0  0  0  0  0  0  0  0  0
   13.5933    0.5634   22.6485 C   0  0  0  0  0  0  0  0  0  0  0  0
   13.8057    1.9841   22.8700 N   0  0  0  0  0  0  0  0  0  0  0  0
   12.8045    2.9056   22.8692 C   0  0  0  0  0  0  0  0  0  0  0  0
   13.0889    4.2637   22.9998 C   0  0  0  0  0  0  0  0  0  0  0  0
   12.0364    5.1610   22.9930 C   0  0  0  0  0  0  0  0  0  0  0  0
   10.7339    4.6943   22.8577 C   0  0  0  0  0  0  0  0  0  0  0  0
   10.5524    3.3200   22.7335 C   0  0  0  0  0  0  0  0  0  0  0  0
   11.5588    2.4386   22.7381 N   0  0  0  0  0  0  0  0  0  0  0  0
    9.6122    5.6005   22.8465 C   0  0  0  0  0  0  0  0  0  0  0  0
    8.7450    6.3440   22.8373 N   0  0  0  0  0  0  0  0  0  0  0  0
   10.5638   -3.1867   23.4011 C   0  0  0  0  0  0  0  0  0  0  0  0
    9.2563   -2.9235   23.0109 N   0  0  0  0  0  0  0  0  0  0  0  0
    8.0031   -3.8297   23.7096 S   0  0  0  0  0  0  0  0  0  0  0  0
    7.0462   -2.8596   24.1432 O   0  0  0  0  0  0  0  0  0  0  0  0
    7.6045   -4.8196   22.7579 O   0  0  0  0  0  0  0  0  0  0  0  0
    8.6594   -4.5954   25.1518 C   0  0  0  0  0  0  0  0  0  0  0  0
    9.0329   -5.9282   25.1284 C   0  0  0  0  0  0  0  0  0  0  0  0
    9.5406   -6.4914   26.2865 C   0  0  0  0  0  0  0  0  0  0  0  0
    9.6523   -5.7058   27.4113 C   0  0  0  0  0  0  0  0  0  0  0  0
    9.2951   -4.4213   27.4486 N   0  0  0  0  0  0  0  0  0  0  0  0
    8.8056   -3.8838   26.3275 C   0  0  0  0  0  0  0  0  0  0  0  0
  1  2  1  0
  2  3  2  0
  3  4  1  0
  4  5  2  0
  5  6  1  0
  6  7  2  0
  7  8  1  0
  8  9  2  0
  9 10  1  0
 10 11  1  0
 11 12  1  0
 12 13  1  0
 13 14  1  0
 14 15  1  0
 15 16  1  0
 16 17  2  0
 17 18  1  0
 18 19  2  0
 19 20  1  0
 20 21  2  0
 19 22  1  0
 22 23  3  0
 10 24  2  0
 24 25  1  0
 25 26  1  0
 26 27  2  0
 26 28  2  0
 26 29  1  0
 29 30  2  0
 30 31  1  0
 31 32  2  0
 32 33  1  0
 33 34  2  0
  7  2  1  0
 25  8  1  0
 34 29  1  0
 21 16  1  0
M  END
