CVD-0003797|dock_bobby27042020.72|mol2|38|dock3
     RDKit          3D

 24 26  0  0  0  0  0  0  0  0999 V2000
    5.1877   -2.8942   23.6744 C   0  0  0  0  0  0  0  0  0  0  0  0
    5.6798   -4.2462   23.2265 C   0  0  0  0  0  0  0  0  0  0  0  0
    4.7847   -5.1201   22.6140 C   0  0  0  0  0  0  0  0  0  0  0  0
    5.1787   -6.3748   22.1869 C   0  0  0  0  0  0  0  0  0  0  0  0
    6.4814   -6.7816   22.3669 C   0  0  0  0  0  0  0  0  0  0  0  0
    7.4009   -5.9419   22.9730 C   0  0  0  0  0  0  0  0  0  0  0  0
    7.0078   -4.6746   23.4031 C   0  0  0  0  0  0  0  0  0  0  0  0
    7.9208   -3.8335   24.0053 N   0  0  0  0  0  0  0  0  0  0  0  0
    8.9898   -3.1253   23.3088 C   0  0  0  0  0  0  0  0  0  0  0  0
    8.4667   -1.8766   22.5904 C   0  0  0  0  0  0  0  0  0  0  0  0
    9.5776   -1.1602   21.8761 C   0  0  0  0  0  0  0  0  0  0  0  0
   10.6753   -0.8051   22.7805 N   0  0  0  0  0  0  0  0  0  0  0  0
   11.2184   -1.9688   23.5190 C   0  0  0  0  0  0  0  0  0  0  0  0
   10.1123   -2.7188   24.2300 C   0  0  0  0  0  0  0  0  0  0  0  0
   11.2768    0.4477   22.7810 C   0  0  0  0  0  0  0  0  0  0  0  0
   10.5297    1.6226   22.7977 C   0  0  0  0  0  0  0  0  0  0  0  0
   11.1433    2.8626   22.8104 C   0  0  0  0  0  0  0  0  0  0  0  0
   12.5238    2.9447   22.7933 C   0  0  0  0  0  0  0  0  0  0  0  0
   13.2881    1.7923   22.7678 C   0  0  0  0  0  0  0  0  0  0  0  0
   12.6649    0.5571   22.7621 C   0  0  0  0  0  0  0  0  0  0  0  0
   13.3131    4.5256   22.8143 S   0  0  0  0  0  0  0  0  0  0  0  0
   12.9852    5.2747   21.4379 N   0  0  0  0  0  0  0  0  0  0  0  0
   12.7121    5.2898   23.8660 O   0  0  0  0  0  0  0  0  0  0  0  0
   14.7267    4.2975   22.8459 O   0  0  0  0  0  0  0  0  0  0  0  0
  1  2  1  0
  2  3  2  0
  3  4  1  0
  4  5  2  0
  5  6  1  0
  6  7  2  0
  7  8  1  0
  8  9  1  0
  9 10  1  0
 10 11  1  0
 11 12  1  0
 12 13  1  0
 13 14  1  0
 12 15  1  0
 15 16  2  0
 16 17  1  0
 17 18  2  0
 18 19  1  0
 19 20  2  0
 18 21  1  0
 21 22  1  0
 21 23  2  0
 21 24  2  0
  7  2  1  0
 14  9  1  0
 20 15  1  0
M  END
