CVD-0000398|dock_bobby27042020.41|mol2|34|dock2
     RDKit          3D

 24 26  0  0  0  0  0  0  0  0999 V2000
   13.7873   -2.0022   21.2695 C   0  0  0  0  0  0  0  0  0  0  0  0
   13.0317   -1.9921   22.5903 C   0  0  0  0  0  0  0  0  0  0  0  0
   11.7139   -1.2507   22.5153 C   0  0  0  0  0  0  0  0  0  0  0  0
   10.4529   -1.7798   22.4463 C   0  0  0  0  0  0  0  0  0  0  0  0
   10.0396   -3.0497   22.4303 F   0  0  0  0  0  0  0  0  0  0  0  0
    9.5424   -0.7812   22.3840 N   0  0  0  0  0  0  0  0  0  0  0  0
   10.1962    0.4330   22.4116 C   0  0  0  0  0  0  0  0  0  0  0  0
    9.7022    1.7424   22.3626 C   0  0  0  0  0  0  0  0  0  0  0  0
    8.3220    1.9177   22.2670 O   0  0  0  0  0  0  0  0  0  0  0  0
    7.6041    1.5405   21.1656 C   0  0  0  0  0  0  0  0  0  0  0  0
    6.3336    2.0671   20.9846 C   0  0  0  0  0  0  0  0  0  0  0  0
    5.5982    1.6832   19.8667 C   0  0  0  0  0  0  0  0  0  0  0  0
    4.2154    2.2355   19.6418 C   0  0  0  0  0  0  0  0  0  0  0  0
    6.2051    0.7904   18.9948 C   0  0  0  0  0  0  0  0  0  0  0  0
    5.3660    0.2570   17.5751 Cl  0  0  0  0  0  0  0  0  0  0  0  0
    7.4823    0.3202   19.2519 C   0  0  0  0  0  0  0  0  0  0  0  0
    8.1788    0.6943   20.3302 N   0  0  0  0  0  0  0  0  0  0  0  0
   10.5734    2.8167   22.3988 C   0  0  0  0  0  0  0  0  0  0  0  0
   11.9358    2.5833   22.5045 C   0  0  0  0  0  0  0  0  0  0  0  0
   12.8934    3.5594   22.5576 O   0  0  0  0  0  0  0  0  0  0  0  0
   12.6511    4.7958   21.8898 C   0  0  0  0  0  0  0  0  0  0  0  0
   12.4373    1.2776   22.5673 C   0  0  0  0  0  0  0  0  0  0  0  0
   14.1381    1.0424   22.7255 Cl  0  0  0  0  0  0  0  0  0  0  0  0
   11.5768    0.1867   22.5057 C   0  0  0  0  0  0  0  0  0  0  0  0
  1  2  1  0
  2  3  1  0
  3  4  2  0
  4  5  1  0
  4  6  1  0
  6  7  1  0
  7  8  2  0
  8  9  1  0
  9 10  1  0
 10 11  2  0
 11 12  1  0
 12 13  1  0
 12 14  2  0
 14 15  1  0
 14 16  1  0
 16 17  2  0
  8 18  1  0
 18 19  2  0
 19 20  1  0
 20 21  1  0
 19 22  1  0
 22 23  1  0
 22 24  2  0
 24  3  1  0
 24  7  1  0
 17 10  1  0
M  END
