CVD-0001143|dock_bobby27042020.39|mol2|13|dock1
     RDKit          3D

 39 42  0  0  0  0  0  0  0  0999 V2000
    7.0172    0.9397   18.3233 O   0  0  0  0  0  0  0  0  0  0  0  0
    6.0028    1.2905   17.5748 C   0  0  0  0  0  0  0  0  0  0  0  0
    6.1009    1.6988   16.4386 O   0  0  0  0  0  0  0  0  0  0  0  0
    4.6700    1.1308   18.2888 C   0  0  0  0  0  0  0  0  0  0  0  0
    4.2535    2.4734   18.8877 C   0  0  0  0  0  0  0  0  0  0  0  0
    3.1044    2.3534   19.8591 C   0  0  0  0  0  0  0  0  0  0  0  0
    1.8252    2.7510   19.4985 C   0  0  0  0  0  0  0  0  0  0  0  0
    0.7684    2.6464   20.3856 C   0  0  0  0  0  0  0  0  0  0  0  0
    0.9840    2.1371   21.6594 C   0  0  0  0  0  0  0  0  0  0  0  0
   -0.0416    2.0269   22.5431 O   0  0  0  0  0  0  0  0  0  0  0  0
    2.2665    1.7354   22.0337 C   0  0  0  0  0  0  0  0  0  0  0  0
    2.4729    1.2382   23.2808 O   0  0  0  0  0  0  0  0  0  0  0  0
    3.3149    1.8457   21.1355 C   0  0  0  0  0  0  0  0  0  0  0  0
    4.8173    0.1589   19.3622 O   0  0  0  0  0  0  0  0  0  0  0  0
    5.2982   -1.0660   19.0880 C   0  0  0  0  0  0  0  0  0  0  0  0
    5.2479   -1.5754   17.9928 O   0  0  0  0  0  0  0  0  0  0  0  0
    5.9026   -1.7233   20.2665 C   0  0  0  0  0  0  0  0  0  0  0  0
    6.1820   -3.0264   20.3258 C   0  0  0  0  0  0  0  0  0  0  0  0
    6.7760   -3.8084   21.4216 C   0  0  0  0  0  0  0  0  0  0  0  0
    6.4565   -5.1769   21.4944 C   0  0  0  0  0  0  0  0  0  0  0  0
    6.9974   -6.0103   22.4554 C   0  0  0  0  0  0  0  0  0  0  0  0
    7.8867   -5.4950   23.3869 C   0  0  0  0  0  0  0  0  0  0  0  0
    8.4032   -6.3024   24.3501 O   0  0  0  0  0  0  0  0  0  0  0  0
    8.2185   -4.1403   23.3343 C   0  0  0  0  0  0  0  0  0  0  0  0
    9.0966   -3.5179   24.1841 O   0  0  0  0  0  0  0  0  0  0  0  0
    9.0817   -2.0912   23.8769 C   0  0  0  0  0  0  0  0  0  0  0  0
    8.3087   -1.9256   22.5369 C   0  0  0  0  0  0  0  0  0  0  0  0
    9.1525   -1.5213   21.3356 C   0  0  0  0  0  0  0  0  0  0  0  0
    9.7342   -2.5080   20.6987 O   0  0  0  0  0  0  0  0  0  0  0  0
    9.2741   -0.3637   21.0002 O   0  0  0  0  0  0  0  0  0  0  0  0
    7.6808   -3.2982   22.3744 C   0  0  0  0  0  0  0  0  0  0  0  0
   10.5004   -1.5848   23.8233 C   0  0  0  0  0  0  0  0  0  0  0  0
   10.8351   -0.3507   24.3649 C   0  0  0  0  0  0  0  0  0  0  0  0
   12.1350    0.1201   24.3155 C   0  0  0  0  0  0  0  0  0  0  0  0
   13.1226   -0.6498   23.7153 C   0  0  0  0  0  0  0  0  0  0  0  0
   14.4050   -0.2060   23.6567 O   0  0  0  0  0  0  0  0  0  0  0  0
   12.7943   -1.8905   23.1677 C   0  0  0  0  0  0  0  0  0  0  0  0
   13.7659   -2.6375   22.5819 O   0  0  0  0  0  0  0  0  0  0  0  0
   11.4892   -2.3517   23.2229 C   0  0  0  0  0  0  0  0  0  0  0  0
  1  2  1  0
  2  3  2  0
  2  4  1  0
  4  5  1  0
  5  6  1  0
  6  7  2  0
  7  8  1  0
  8  9  2  0
  9 10  1  0
  9 11  1  0
 11 12  1  0
 11 13  2  0
  4 14  1  0
 14 15  1  0
 15 16  2  0
 15 17  1  0
 17 18  2  0
 18 19  1  0
 19 20  2  0
 20 21  1  0
 21 22  2  0
 22 23  1  0
 22 24  1  0
 24 25  1  0
 25 26  1  0
 26 27  1  0
 27 28  1  0
 28 29  1  0
 28 30  2  0
 27 31  1  0
 26 32  1  0
 32 33  2  0
 33 34  1  0
 34 35  2  0
 35 36  1  0
 35 37  1  0
 37 38  1  0
 37 39  2  0
 13  6  1  0
 31 19  1  0
 39 32  1  0
 31 24  2  0
M  END
