CVD-0001050|dock_bobby27042020.11|mol2|3|dock1
     RDKit          3D

 34 38  0  0  0  0  0  0  0  0999 V2000
   15.0634    5.3336   23.3091 O   0  0  0  0  0  0  0  0  0  0  0  0
   13.9291    5.7682   23.1197 N   0  0  0  0  0  0  0  0  0  0  0  0
   13.6423    6.9533   23.1239 O   0  0  0  0  0  0  0  0  0  0  0  0
   12.8533    4.7987   22.8733 C   0  0  0  0  0  0  0  0  0  0  0  0
   13.1717    3.5035   22.5096 C   0  0  0  0  0  0  0  0  0  0  0  0
   12.1643    2.5980   22.2382 C   0  0  0  0  0  0  0  0  0  0  0  0
   10.8284    2.9833   22.3312 C   0  0  0  0  0  0  0  0  0  0  0  0
   10.5045    4.2817   22.7842 C   0  0  0  0  0  0  0  0  0  0  0  0
   11.5331    5.1929   23.0110 C   0  0  0  0  0  0  0  0  0  0  0  0
    9.1439    4.7357   23.0451 N   0  0  0  0  0  0  0  0  0  0  0  0
    8.3246    3.8951   23.4108 O   0  0  0  0  0  0  0  0  0  0  0  0
    8.8311    5.8980   22.8533 O   0  0  0  0  0  0  0  0  0  0  0  0
    9.8500    2.0151   21.9266 N   0  0  0  0  0  0  0  0  0  0  0  0
    8.6509    2.5063   21.4339 N   0  0  0  0  0  0  0  0  0  0  0  0
    7.9431    1.4258   21.0885 C   0  0  0  0  0  0  0  0  0  0  0  0
    8.6612    0.2506   21.3541 C   0  0  0  0  0  0  0  0  0  0  0  0
    9.8728    0.6387   21.8906 C   0  0  0  0  0  0  0  0  0  0  0  0
   10.9502   -0.2608   22.3299 C   0  0  0  0  0  0  0  0  0  0  0  0
   11.2713   -1.4123   21.6198 C   0  0  0  0  0  0  0  0  0  0  0  0
   12.2179   -2.2540   21.9659 N   0  0  0  0  0  0  0  0  0  0  0  0
   12.9156   -1.9551   23.1033 C   0  0  0  0  0  0  0  0  0  0  0  0
   13.9528   -2.8044   23.5518 C   0  0  0  0  0  0  0  0  0  0  0  0
   14.6404   -2.4942   24.6884 C   0  0  0  0  0  0  0  0  0  0  0  0
   14.3403   -1.3581   25.4139 C   0  0  0  0  0  0  0  0  0  0  0  0
   13.3471   -0.5114   25.0165 C   0  0  0  0  0  0  0  0  0  0  0  0
   12.6076   -0.7923   23.8447 C   0  0  0  0  0  0  0  0  0  0  0  0
   11.6095    0.0498   23.4362 N   0  0  0  0  0  0  0  0  0  0  0  0
    6.5962    1.5718   20.5149 C   0  0  0  0  0  0  0  0  0  0  0  0
    6.0659    0.5858   19.6905 C   0  0  0  0  0  0  0  0  0  0  0  0
    4.7998    0.7183   19.1485 C   0  0  0  0  0  0  0  0  0  0  0  0
    4.0809    1.8444   19.4435 C   0  0  0  0  0  0  0  0  0  0  0  0
    2.8356    1.9794   18.9131 F   0  0  0  0  0  0  0  0  0  0  0  0
    4.5611    2.8406   20.2492 C   0  0  0  0  0  0  0  0  0  0  0  0
    5.8282    2.6985   20.7863 C   0  0  0  0  0  0  0  0  0  0  0  0
  1  2  1  0
  2  3  2  0
  2  4  1  0
  4  5  2  0
  5  6  1  0
  6  7  2  0
  7  8  1  0
  8  9  2  0
  8 10  1  0
 10 11  1  0
 10 12  2  0
  7 13  1  0
 13 14  1  0
 14 15  2  0
 15 16  1  0
 16 17  2  0
 17 18  1  0
 18 19  2  0
 19 20  1  0
 20 21  2  0
 21 22  1  0
 22 23  2  0
 23 24  1  0
 24 25  2  0
 25 26  1  0
 26 27  2  0
 15 28  1  0
 28 29  2  0
 29 30  1  0
 30 31  2  0
 31 32  1  0
 31 33  1  0
 33 34  2  0
  9  4  1  0
 17 13  1  0
 27 18  1  0
 34 28  1  0
 26 21  1  0
M  CHG  4   1  -1   2   1  10   1  11  -1
M  END
