CVD-0000870|dock_bobby27042020.26|mol2|2|dock3
     RDKit          3D

 27 30  0  0  0  0  0  0  0  0999 V2000
    8.8679    4.1223   22.3850 Cl  0  0  0  0  0  0  0  0  0  0  0  0
    8.6123    2.5209   23.0903 C   0  0  0  0  0  0  0  0  0  0  0  0
    8.8829    1.4258   22.0766 C   0  0  0  0  0  0  0  0  0  0  0  0
    9.4181    1.6905   21.0071 O   0  0  0  0  0  0  0  0  0  0  0  0
    8.5053    0.1671   22.4010 N   0  0  0  0  0  0  0  0  0  0  0  0
    7.7940   -0.2075   23.6398 C   0  0  0  0  0  0  0  0  0  0  0  0
    7.6762   -1.7134   23.8896 C   0  0  0  0  0  0  0  0  0  0  0  0
    6.8190   -2.1811   24.8808 C   0  0  0  0  0  0  0  0  0  0  0  0
    6.7030   -3.5329   25.1475 C   0  0  0  0  0  0  0  0  0  0  0  0
    7.4480   -4.4338   24.4206 C   0  0  0  0  0  0  0  0  0  0  0  0
    8.3016   -3.9735   23.4342 C   0  0  0  0  0  0  0  0  0  0  0  0
    8.4370   -2.6151   23.1454 C   0  0  0  0  0  0  0  0  0  0  0  0
    9.3628   -2.1080   22.0695 C   0  0  0  0  0  0  0  0  0  0  0  0
    8.7738   -0.9055   21.4112 C   0  0  0  0  0  0  0  0  0  0  0  0
    7.5646   -1.2871   20.7171 N   0  0  0  0  0  0  0  0  0  0  0  0
    6.9515   -0.5099   19.7369 C   0  0  0  0  0  0  0  0  0  0  0  0
    5.6717   -0.0025   19.9146 C   0  0  0  0  0  0  0  0  0  0  0  0
    5.1044    0.7659   18.9131 C   0  0  0  0  0  0  0  0  0  0  0  0
    5.8334    1.0013   17.7696 C   0  0  0  0  0  0  0  0  0  0  0  0
    7.0639    0.5255   17.5730 N   0  0  0  0  0  0  0  0  0  0  0  0
    7.6047   -0.2170   18.5438 C   0  0  0  0  0  0  0  0  0  0  0  0
   10.7558   -1.8522   22.6256 C   0  0  0  0  0  0  0  0  0  0  0  0
   11.8620   -1.8113   21.7881 C   0  0  0  0  0  0  0  0  0  0  0  0
   13.1280   -1.5755   22.2975 C   0  0  0  0  0  0  0  0  0  0  0  0
   13.3046   -1.3767   23.6499 C   0  0  0  0  0  0  0  0  0  0  0  0
   12.2154   -1.4134   24.4937 C   0  0  0  0  0  0  0  0  0  0  0  0
   10.9491   -1.6492   23.9851 C   0  0  0  0  0  0  0  0  0  0  0  0
  1  2  1  0
  2  3  1  0
  3  4  2  0
  3  5  1  0
  5  6  1  0
  6  7  1  0
  7  8  2  0
  8  9  1  0
  9 10  2  0
 10 11  1  0
 11 12  2  0
 12 13  1  0
 13 14  1  0
 14 15  1  0
 15 16  1  0
 16 17  2  0
 17 18  1  0
 18 19  2  0
 19 20  1  0
 20 21  2  0
 13 22  1  0
 22 23  2  0
 23 24  1  0
 24 25  2  0
 25 26  1  0
 26 27  2  0
 14  5  1  0
 21 16  1  0
 27 22  1  0
 12  7  1  0
M  END
