CVD-0001796|dock_bobby27042020.37|mol2|10|dock3
     RDKit          3D

 32 35  0  0  0  0  0  0  0  0999 V2000
    7.5047   -6.6881   22.5627 C   0  0  0  0  0  0  0  0  0  0  0  0
    7.2905   -5.6361   21.5142 C   0  0  0  0  0  0  0  0  0  0  0  0
    7.3643   -5.9185   20.3233 O   0  0  0  0  0  0  0  0  0  0  0  0
    7.0275   -4.3696   21.9290 N   0  0  0  0  0  0  0  0  0  0  0  0
    6.8730   -3.9406   23.3114 C   0  0  0  0  0  0  0  0  0  0  0  0
    8.1587   -3.5912   24.0399 C   0  0  0  0  0  0  0  0  0  0  0  0
    8.9182   -2.4672   23.4234 N   0  0  0  0  0  0  0  0  0  0  0  0
   10.3632   -2.6378   23.6381 C   0  0  0  0  0  0  0  0  0  0  0  0
   11.1578   -1.3765   23.3922 C   0  0  0  0  0  0  0  0  0  0  0  0
   12.1800   -1.3778   22.4455 C   0  0  0  0  0  0  0  0  0  0  0  0
   12.9242   -0.2650   22.1922 C   0  0  0  0  0  0  0  0  0  0  0  0
   12.6863    0.9441   22.8868 C   0  0  0  0  0  0  0  0  0  0  0  0
   13.4552    2.0418   22.6042 N   0  0  0  0  0  0  0  0  0  0  0  0
   13.1977    3.1418   23.2720 C   0  0  0  0  0  0  0  0  0  0  0  0
   12.2263    3.2958   24.2358 C   0  0  0  0  0  0  0  0  0  0  0  0
   11.4513    2.2156   24.5313 C   0  0  0  0  0  0  0  0  0  0  0  0
   11.6563    0.9857   23.8584 C   0  0  0  0  0  0  0  0  0  0  0  0
   10.9123   -0.2142   24.0771 C   0  0  0  0  0  0  0  0  0  0  0  0
    9.5303   -0.1861   25.3710 Br  0  0  0  0  0  0  0  0  0  0  0  0
   14.2331    4.5481   22.8721 S   0  0  0  0  0  0  0  0  0  0  0  0
   13.3949    5.8652   23.2266 N   0  0  0  0  0  0  0  0  0  0  0  0
   15.3676    4.5142   23.7455 O   0  0  0  0  0  0  0  0  0  0  0  0
   14.4441    4.5428   21.4555 O   0  0  0  0  0  0  0  0  0  0  0  0
    8.8671   -1.9390   22.0256 C   0  0  0  0  0  0  0  0  0  0  0  0
    7.4663   -1.9830   21.4384 C   0  0  0  0  0  0  0  0  0  0  0  0
    6.9685   -3.3172   20.9180 C   0  0  0  0  0  0  0  0  0  0  0  0
    7.4162   -1.0114   20.2756 C   0  0  0  0  0  0  0  0  0  0  0  0
    6.3184   -0.1858   20.0847 C   0  0  0  0  0  0  0  0  0  0  0  0
    6.2916    0.6973   19.0195 C   0  0  0  0  0  0  0  0  0  0  0  0
    7.3722    0.7312   18.1681 C   0  0  0  0  0  0  0  0  0  0  0  0
    8.4446   -0.0464   18.3210 N   0  0  0  0  0  0  0  0  0  0  0  0
    8.4467   -0.8904   19.3572 C   0  0  0  0  0  0  0  0  0  0  0  0
  1  2  1  0
  2  3  2  0
  2  4  1  0
  4  5  1  0
  5  6  1  0
  6  7  1  0
  7  8  1  0
  8  9  1  0
  9 10  2  0
 10 11  1  0
 11 12  2  0
 12 13  1  0
 13 14  2  0
 14 15  1  0
 15 16  2  0
 16 17  1  0
 17 18  2  0
 18 19  1  0
 14 20  1  0
 20 21  1  0
 20 22  2  0
 20 23  2  0
  7 24  1  0
 24 25  1  0
 25 26  1  0
 25 27  1  0
 27 28  2  0
 28 29  1  0
 29 30  2  0
 30 31  1  0
 31 32  2  0
 26  4  1  0
 32 27  1  0
 18  9  1  0
 17 12  1  0
M  END
