CVD-0000103|dock_bobby27042020.99|mol2|38|dock2
     RDKit          3D

 16 17  0  0  0  0  0  0  0  0999 V2000
   14.0018    5.9535   22.4581 C   0  0  0  0  0  0  0  0  0  0  0  0
   13.9788    4.5838   22.8562 O   0  0  0  0  0  0  0  0  0  0  0  0
   12.8410    3.8234   22.7341 C   0  0  0  0  0  0  0  0  0  0  0  0
   11.5961    4.4352   22.6498 C   0  0  0  0  0  0  0  0  0  0  0  0
   10.4600    3.6926   22.5483 C   0  0  0  0  0  0  0  0  0  0  0  0
   10.5069    2.2814   22.5099 C   0  0  0  0  0  0  0  0  0  0  0  0
    9.3193    1.6025   22.4419 N   0  0  0  0  0  0  0  0  0  0  0  0
    9.3804    0.2855   22.4483 C   0  0  0  0  0  0  0  0  0  0  0  0
   10.5537   -0.4404   22.4485 C   0  0  0  0  0  0  0  0  0  0  0  0
   11.7647    0.2105   22.4493 C   0  0  0  0  0  0  0  0  0  0  0  0
   12.9906   -0.6595   22.3497 C   0  0  0  0  0  0  0  0  0  0  0  0
   13.8751   -0.5681   23.1957 O   0  0  0  0  0  0  0  0  0  0  0  0
   13.0929   -1.5386   21.3500 N   0  0  0  0  0  0  0  0  0  0  0  0
   14.2152   -2.3869   21.2341 N   0  0  0  0  0  0  0  0  0  0  0  0
   11.7730    1.6402   22.5483 C   0  0  0  0  0  0  0  0  0  0  0  0
   12.9247    2.4569   22.6953 C   0  0  0  0  0  0  0  0  0  0  0  0
  1  2  1  0
  2  3  1  0
  3  4  2  0
  4  5  1  0
  5  6  2  0
  6  7  1  0
  7  8  2  0
  8  9  1  0
  9 10  2  0
 10 11  1  0
 11 12  2  0
 11 13  1  0
 13 14  1  0
 10 15  1  0
 15 16  2  0
 16  3  1  0
 15  6  1  0
M  END
