CVD-0000307|dock_bobby27042020.27|mol2|33|dock2
     RDKit          3D

 29 31  0  0  0  0  0  0  0  0999 V2000
    4.4454   -7.4039   25.0809 N   0  0  0  0  0  0  0  0  0  0  0  0
    4.2948   -7.0843   23.8055 C   0  0  0  0  0  0  0  0  0  0  0  0
    3.2330   -7.2400   23.1983 O   0  0  0  0  0  0  0  0  0  0  0  0
    5.5139   -6.5054   23.1091 C   0  0  0  0  0  0  0  0  0  0  0  0
    5.8759   -5.1433   23.6880 C   0  0  0  0  0  0  0  0  0  0  0  0
    7.0686   -4.5561   22.9620 C   0  0  0  0  0  0  0  0  0  0  0  0
    6.7813   -4.4516   21.5339 N   0  0  0  0  0  0  0  0  0  0  0  0
    6.4810   -5.7420   20.9233 C   0  0  0  0  0  0  0  0  0  0  0  0
    5.2732   -6.3739   21.6069 C   0  0  0  0  0  0  0  0  0  0  0  0
    7.0296   -3.3755   20.7573 C   0  0  0  0  0  0  0  0  0  0  0  0
    6.6373   -3.3660   19.6063 O   0  0  0  0  0  0  0  0  0  0  0  0
    7.7953   -2.1849   21.3443 C   0  0  0  0  0  0  0  0  0  0  0  0
    9.3256   -2.8289   22.0338 Cl  0  0  0  0  0  0  0  0  0  0  0  0
    8.0177   -0.9798   20.4154 C   0  0  0  0  0  0  0  0  0  0  0  0
    8.8328    0.1143   21.1142 C   0  0  0  0  0  0  0  0  0  0  0  0
    8.2389    0.9758   21.7558 O   0  0  0  0  0  0  0  0  0  0  0  0
   10.1850    0.0486   20.9799 N   0  0  0  0  0  0  0  0  0  0  0  0
   11.2147    0.8779   21.4929 C   0  0  0  0  0  0  0  0  0  0  0  0
   11.0827    2.2528   21.6791 C   0  0  0  0  0  0  0  0  0  0  0  0
   12.1385    2.9916   22.1876 C   0  0  0  0  0  0  0  0  0  0  0  0
   13.3288    2.3802   22.5140 C   0  0  0  0  0  0  0  0  0  0  0  0
   13.4700    1.0225   22.3329 C   0  0  0  0  0  0  0  0  0  0  0  0
   12.4219    0.2734   21.8258 C   0  0  0  0  0  0  0  0  0  0  0  0
    6.7188   -0.3830   19.8877 C   0  0  0  0  0  0  0  0  0  0  0  0
    5.7037    0.0566   20.7287 C   0  0  0  0  0  0  0  0  0  0  0  0
    4.5477    0.5997   20.1951 C   0  0  0  0  0  0  0  0  0  0  0  0
    4.4318    0.6892   18.8273 C   0  0  0  0  0  0  0  0  0  0  0  0
    5.3819    0.2749   17.9893 N   0  0  0  0  0  0  0  0  0  0  0  0
    6.4883   -0.2465   18.5272 C   0  0  0  0  0  0  0  0  0  0  0  0
  1  2  1  0
  2  3  2  0
  2  4  1  0
  4  5  1  0
  5  6  1  0
  6  7  1  0
  7  8  1  0
  8  9  1  0
  7 10  1  0
 10 11  2  0
 10 12  1  0
 12 13  1  0
 12 14  1  0
 14 15  1  0
 15 16  2  0
 15 17  1  0
 17 18  1  0
 18 19  2  0
 19 20  1  0
 20 21  2  0
 21 22  1  0
 22 23  2  0
 14 24  1  0
 24 25  2  0
 25 26  1  0
 26 27  2  0
 27 28  1  0
 28 29  2  0
  9  4  1  0
 23 18  1  0
 29 24  1  0
M  END
