CVD-0001522|dock_bobby27042020.95|mol2|6|dock1
     RDKit          3D

 36 40  0  0  0  0  0  0  0  0999 V2000
   12.1791    7.2678   28.7261 Cl  0  0  0  0  0  0  0  0  0  0  0  0
   11.8000    6.7674   27.1018 C   0  0  0  0  0  0  0  0  0  0  0  0
   10.5025    6.8715   26.6505 C   0  0  0  0  0  0  0  0  0  0  0  0
   10.1991    6.4739   25.3605 C   0  0  0  0  0  0  0  0  0  0  0  0
   11.2026    5.9770   24.5447 C   0  0  0  0  0  0  0  0  0  0  0  0
   12.5051    5.8776   25.0059 C   0  0  0  0  0  0  0  0  0  0  0  0
   12.8044    6.2763   26.2966 C   0  0  0  0  0  0  0  0  0  0  0  0
   10.8205    5.4764   22.9018 S   0  0  0  0  0  0  0  0  0  0  0  0
   12.0499    5.3214   22.1881 O   0  0  0  0  0  0  0  0  0  0  0  0
    9.8085    6.3505   22.3956 O   0  0  0  0  0  0  0  0  0  0  0  0
   10.1490    3.9936   22.9927 N   0  0  0  0  0  0  0  0  0  0  0  0
    8.9071    3.8655   23.7684 C   0  0  0  0  0  0  0  0  0  0  0  0
    8.1806    2.6344   23.3263 C   0  0  0  0  0  0  0  0  0  0  0  0
    9.0365    1.4651   23.4418 N   0  0  0  0  0  0  0  0  0  0  0  0
   10.3218    1.5934   22.7479 C   0  0  0  0  0  0  0  0  0  0  0  0
   11.0359    2.8371   23.1877 C   0  0  0  0  0  0  0  0  0  0  0  0
    8.6110    0.3748   24.1098 C   0  0  0  0  0  0  0  0  0  0  0  0
    7.4932    0.3586   24.6139 O   0  0  0  0  0  0  0  0  0  0  0  0
    9.5493   -0.8422   24.2448 C   0  0  0  0  0  0  0  0  0  0  0  0
   10.5840   -0.7110   24.8900 O   0  0  0  0  0  0  0  0  0  0  0  0
    9.2573   -2.0320   23.6760 N   0  0  0  0  0  0  0  0  0  0  0  0
   10.1370   -3.2208   23.7992 C   0  0  0  0  0  0  0  0  0  0  0  0
    9.3404   -4.4519   24.0756 C   0  0  0  0  0  0  0  0  0  0  0  0
    8.7431   -4.4719   25.4799 C   0  0  0  0  0  0  0  0  0  0  0  0
    7.5287   -3.8742   25.7973 C   0  0  0  0  0  0  0  0  0  0  0  0
    7.0306   -3.9193   27.0891 C   0  0  0  0  0  0  0  0  0  0  0  0
    7.7350   -4.5601   28.0847 C   0  0  0  0  0  0  0  0  0  0  0  0
    8.9402   -5.1571   27.7882 C   0  0  0  0  0  0  0  0  0  0  0  0
    9.4386   -5.1123   26.4971 C   0  0  0  0  0  0  0  0  0  0  0  0
    8.3230   -4.6635   22.9844 C   0  0  0  0  0  0  0  0  0  0  0  0
    7.9686   -5.9435   22.5586 C   0  0  0  0  0  0  0  0  0  0  0  0
    7.0420   -6.1427   21.5505 C   0  0  0  0  0  0  0  0  0  0  0  0
    6.4494   -5.0562   20.9461 C   0  0  0  0  0  0  0  0  0  0  0  0
    6.7871   -3.7781   21.3537 C   0  0  0  0  0  0  0  0  0  0  0  0
    7.7181   -3.5719   22.3669 C   0  0  0  0  0  0  0  0  0  0  0  0
    8.0725   -2.1481   22.8032 C   0  0  0  0  0  0  0  0  0  0  0  0
  1  2  1  0
  2  3  2  0
  3  4  1  0
  4  5  2  0
  5  6  1  0
  6  7  2  0
  5  8  1  0
  8  9  2  0
  8 10  2  0
  8 11  1  0
 11 12  1  0
 12 13  1  0
 13 14  1  0
 14 15  1  0
 15 16  1  0
 14 17  1  0
 17 18  2  0
 17 19  1  0
 19 20  2  0
 19 21  1  0
 21 22  1  0
 22 23  1  0
 23 24  1  0
 24 25  2  0
 25 26  1  0
 26 27  2  0
 27 28  1  0
 28 29  2  0
 23 30  1  0
 30 31  2  0
 31 32  1  0
 32 33  2  0
 33 34  1  0
 34 35  2  0
 35 36  1  0
  7  2  1  0
 16 11  1  0
 36 21  1  0
 29 24  1  0
 35 30  1  0
M  END
