CVD-0002777|dock_bobby27042020.33|mol2|8|dock1
     RDKit          3D

 30 32  0  0  0  0  0  0  0  0999 V2000
   13.7090   -1.9655   20.7263 N   0  0  0  0  0  0  0  0  0  0  0  0
   13.5022   -1.7205   22.2948 S   0  0  0  0  0  0  0  0  0  0  0  0
   14.7877   -1.4181   22.8492 O   0  0  0  0  0  0  0  0  0  0  0  0
   12.7750   -2.8432   22.8065 O   0  0  0  0  0  0  0  0  0  0  0  0
   12.4856   -0.2910   22.5093 C   0  0  0  0  0  0  0  0  0  0  0  0
   13.0672    0.9517   22.6841 C   0  0  0  0  0  0  0  0  0  0  0  0
   12.2817    2.1030   22.7907 C   0  0  0  0  0  0  0  0  0  0  0  0
   12.9996    3.4144   22.9965 C   0  0  0  0  0  0  0  0  0  0  0  0
   13.9987    3.7113   22.3491 O   0  0  0  0  0  0  0  0  0  0  0  0
   12.5305    4.2806   23.9085 N   0  0  0  0  0  0  0  0  0  0  0  0
   13.1739    5.5667   24.1536 C   0  0  0  0  0  0  0  0  0  0  0  0
   13.4105    6.3898   22.9917 C   0  0  0  0  0  0  0  0  0  0  0  0
   12.3103    6.7359   23.9429 C   0  0  0  0  0  0  0  0  0  0  0  0
   10.9894    6.5520   23.4991 F   0  0  0  0  0  0  0  0  0  0  0  0
   10.8800    1.9913   22.7044 C   0  0  0  0  0  0  0  0  0  0  0  0
    9.7943    3.5400   22.6210 Br  0  0  0  0  0  0  0  0  0  0  0  0
   10.2999    0.7098   22.6512 C   0  0  0  0  0  0  0  0  0  0  0  0
   11.1090   -0.4141   22.4996 C   0  0  0  0  0  0  0  0  0  0  0  0
    8.8298    0.4045   22.7356 C   0  0  0  0  0  0  0  0  0  0  0  0
    8.1967    0.7738   23.7201 O   0  0  0  0  0  0  0  0  0  0  0  0
    8.2184   -0.2423   21.7335 N   0  0  0  0  0  0  0  0  0  0  0  0
    6.7966   -0.5837   21.7811 C   0  0  0  0  0  0  0  0  0  0  0  0
    5.8980    0.6510   21.6884 C   0  0  0  0  0  0  0  0  0  0  0  0
    5.9152    1.2900   20.2966 C   0  0  0  0  0  0  0  0  0  0  0  0
    5.5069    0.2527   19.2599 C   0  0  0  0  0  0  0  0  0  0  0  0
    6.4152   -0.9726   19.2984 C   0  0  0  0  0  0  0  0  0  0  0  0
    6.4134   -1.5855   20.6986 C   0  0  0  0  0  0  0  0  0  0  0  0
    5.4566    0.8517   17.8737 C   0  0  0  0  0  0  0  0  0  0  0  0
    4.6299    1.8610   17.7626 O   0  0  0  0  0  0  0  0  0  0  0  0
    6.1236    0.4303   16.9546 O   0  0  0  0  0  0  0  0  0  0  0  0
  1  2  1  0
  2  3  2  0
  2  4  2  0
  2  5  1  0
  5  6  2  0
  6  7  1  0
  7  8  1  0
  8  9  2  0
  8 10  1  0
 11 10  1  0
 11 12  1  0
 12 13  1  0
 13 14  1  0
  7 15  2  0
 15 16  1  0
 15 17  1  0
 17 18  2  0
 17 19  1  0
 19 20  2  0
 19 21  1  0
 22 21  1  0
 22 23  1  0
 23 24  1  0
 24 25  1  0
 25 26  1  0
 26 27  1  0
 25 28  1  0
 28 29  1  0
 28 30  2  0
 18  5  1  0
 27 22  1  0
 13 11  1  0
M  END
