CVD-0003549|dock_bobby27042020.16|mol2|16|dock2
     RDKit          3D

 24 26  0  0  0  0  0  0  0  0999 V2000
   12.8590    5.6356   23.8988 N   0  0  0  0  0  0  0  0  0  0  0  0
   13.5838    4.7186   22.8049 S   0  0  0  0  0  0  0  0  0  0  0  0
   13.3919    5.3463   21.5320 O   0  0  0  0  0  0  0  0  0  0  0  0
   14.9193    4.4845   23.2662 O   0  0  0  0  0  0  0  0  0  0  0  0
   12.7623    3.1549   22.7515 C   0  0  0  0  0  0  0  0  0  0  0  0
   11.3812    3.0994   22.6668 C   0  0  0  0  0  0  0  0  0  0  0  0
   10.7412    1.8731   22.6089 C   0  0  0  0  0  0  0  0  0  0  0  0
   11.4744    0.6868   22.6350 C   0  0  0  0  0  0  0  0  0  0  0  0
   10.8161   -0.5438   22.5200 N   0  0  0  0  0  0  0  0  0  0  0  0
    9.3718   -0.6077   22.4887 C   0  0  0  0  0  0  0  0  0  0  0  0
    8.7129   -0.1298   21.2062 C   0  0  0  0  0  0  0  0  0  0  0  0
    9.2206    0.7672   20.5417 O   0  0  0  0  0  0  0  0  0  0  0  0
    7.5678   -0.7910   20.9102 N   0  0  0  0  0  0  0  0  0  0  0  0
    6.6682   -0.6622   19.8230 C   0  0  0  0  0  0  0  0  0  0  0  0
    6.5901    0.5525   19.1542 C   0  0  0  0  0  0  0  0  0  0  0  0
    5.7163    0.6938   18.0907 C   0  0  0  0  0  0  0  0  0  0  0  0
    4.9443   -0.3844   17.7255 C   0  0  0  0  0  0  0  0  0  0  0  0
    4.9958   -1.5626   18.3467 N   0  0  0  0  0  0  0  0  0  0  0  0
    5.8429   -1.6901   19.3728 C   0  0  0  0  0  0  0  0  0  0  0  0
   11.5394   -1.7798   22.7903 C   0  0  0  0  0  0  0  0  0  0  0  0
   12.9481   -1.6891   22.2312 C   0  0  0  0  0  0  0  0  0  0  0  0
   13.6801   -0.5203   22.8572 C   0  0  0  0  0  0  0  0  0  0  0  0
   12.8806    0.7535   22.7216 C   0  0  0  0  0  0  0  0  0  0  0  0
   13.5087    1.9903   22.7788 C   0  0  0  0  0  0  0  0  0  0  0  0
  1  2  1  0
  2  3  2  0
  2  4  2  0
  2  5  1  0
  5  6  2  0
  6  7  1  0
  7  8  2  0
  8  9  1  0
  9 10  1  0
 10 11  1  0
 11 12  2  0
 11 13  1  0
 13 14  1  0
 14 15  2  0
 15 16  1  0
 16 17  2  0
 17 18  1  0
 18 19  2  0
  9 20  1  0
 20 21  1  0
 21 22  1  0
 22 23  1  0
 23 24  2  0
 24  5  1  0
 23  8  1  0
 19 14  1  0
M  END
