CVD-0001274|dock_bobby27042020.53|mol2|15|dock1
     RDKit          3D

 22 23  0  0  0  0  0  0  0  0999 V2000
   12.8594   -0.2289   21.9501 O   0  0  0  0  0  0  0  0  0  0  0  0
   11.8645   -1.1320   22.4196 C   0  0  0  0  0  0  0  0  0  0  0  0
   10.8073   -0.4451   23.2760 C   0  0  0  0  0  0  0  0  0  0  0  0
   11.3908   -0.1411   24.6487 C   0  0  0  0  0  0  0  0  0  0  0  0
   12.5030    0.7432   24.5741 O   0  0  0  0  0  0  0  0  0  0  0  0
    9.5266   -1.3037   23.3754 C   0  0  0  0  0  0  0  0  0  0  0  0
    9.0954   -1.8286   22.0573 N   0  0  0  0  0  0  0  0  0  0  0  0
    8.6799   -0.7380   21.1601 C   0  0  0  0  0  0  0  0  0  0  0  0
    8.2901   -1.2758   19.8078 C   0  0  0  0  0  0  0  0  0  0  0  0
    7.2278   -2.2783   19.9359 N   0  0  0  0  0  0  0  0  0  0  0  0
    7.5742   -3.3441   20.8742 C   0  0  0  0  0  0  0  0  0  0  0  0
    7.9622   -2.7431   22.2041 C   0  0  0  0  0  0  0  0  0  0  0  0
    6.1014   -2.3492   19.1907 C   0  0  0  0  0  0  0  0  0  0  0  0
    5.2726   -3.2287   19.3885 O   0  0  0  0  0  0  0  0  0  0  0  0
    5.8780   -1.3123   18.1064 C   0  0  0  0  0  0  0  0  0  0  0  0
    5.4884    0.2671   18.8000 Cl  0  0  0  0  0  0  0  0  0  0  0  0
    9.6913   -2.4348   24.3692 C   0  0  0  0  0  0  0  0  0  0  0  0
   10.4067   -3.5757   24.0331 C   0  0  0  0  0  0  0  0  0  0  0  0
   10.5594   -4.6083   24.9432 C   0  0  0  0  0  0  0  0  0  0  0  0
    9.9999   -4.5125   26.1993 C   0  0  0  0  0  0  0  0  0  0  0  0
    9.2879   -3.3845   26.5468 C   0  0  0  0  0  0  0  0  0  0  0  0
    9.1345   -2.3511   25.6376 C   0  0  0  0  0  0  0  0  0  0  0  0
  1  2  1  0
  2  3  1  0
  3  4  1  0
  4  5  1  0
  3  6  1  0
  6  7  1  0
  7  8  1  0
  8  9  1  0
  9 10  1  0
 10 11  1  0
 11 12  1  0
 10 13  1  0
 13 14  2  0
 13 15  1  0
 15 16  1  0
  6 17  1  0
 17 18  2  0
 18 19  1  0
 19 20  2  0
 20 21  1  0
 21 22  2  0
 12  7  1  0
 22 17  1  0
M  END
