CVD-0000378|dock_bobby27042020.56|mol2|16|dock3
     RDKit          3D

 31 33  0  0  0  0  0  0  0  0999 V2000
    4.2058    1.7033   19.6060 C   0  0  0  0  0  0  0  0  0  0  0  0
    4.6579    0.4196   19.2056 O   0  0  0  0  0  0  0  0  0  0  0  0
    6.0633    0.3533   19.1028 C   0  0  0  0  0  0  0  0  0  0  0  0
    6.4564   -1.0196   18.6327 C   0  0  0  0  0  0  0  0  0  0  0  0
    5.7924   -2.0470   19.4178 N   0  0  0  0  0  0  0  0  0  0  0  0
    6.4134   -2.7833   20.3791 C   0  0  0  0  0  0  0  0  0  0  0  0
    7.4508   -2.2270   21.1257 C   0  0  0  0  0  0  0  0  0  0  0  0
    8.0872   -3.0166   22.0816 C   0  0  0  0  0  0  0  0  0  0  0  0
    9.1792   -2.5592   22.8659 N   0  0  0  0  0  0  0  0  0  0  0  0
    9.2335   -1.6864   23.9170 C   0  0  0  0  0  0  0  0  0  0  0  0
    8.1969   -1.0463   24.5191 C   0  0  0  0  0  0  0  0  0  0  0  0
    8.7037   -0.0501   25.8010 S   0  0  0  0  0  0  0  0  0  0  0  0
   10.3407   -0.4454   25.5667 C   0  0  0  0  0  0  0  0  0  0  0  0
   10.5077   -1.3187   24.5399 C   0  0  0  0  0  0  0  0  0  0  0  0
   11.8552   -1.8360   24.1229 C   0  0  0  0  0  0  0  0  0  0  0  0
   12.9861   -1.6898   25.1256 C   0  0  0  0  0  0  0  0  0  0  0  0
   14.1885   -2.1234   24.3449 C   0  0  0  0  0  0  0  0  0  0  0  0
   13.9364   -1.7094   22.8738 C   0  0  0  0  0  0  0  0  0  0  0  0
   12.4608   -1.2170   22.8274 C   0  0  0  0  0  0  0  0  0  0  0  0
   12.2981    0.2881   22.7399 C   0  0  0  0  0  0  0  0  0  0  0  0
   13.2399    1.0457   22.9594 O   0  0  0  0  0  0  0  0  0  0  0  0
   11.0483    0.7188   22.4095 N   0  0  0  0  0  0  0  0  0  0  0  0
   10.6007    2.0135   22.2601 C   0  0  0  0  0  0  0  0  0  0  0  0
   11.3280    3.0046   22.4185 O   0  0  0  0  0  0  0  0  0  0  0  0
    9.1712    2.1280   21.8925 C   0  0  0  0  0  0  0  0  0  0  0  0
    8.5184    3.2572   21.9726 C   0  0  0  0  0  0  0  0  0  0  0  0
    7.6134   -4.3286   22.2801 C   0  0  0  0  0  0  0  0  0  0  0  0
    6.5495   -4.7810   21.4900 C   0  0  0  0  0  0  0  0  0  0  0  0
    5.9693   -4.0311   20.5491 N   0  0  0  0  0  0  0  0  0  0  0  0
    8.1863   -5.2171   23.2584 C   0  0  0  0  0  0  0  0  0  0  0  0
    8.6436   -5.8952   24.0560 N   0  0  0  0  0  0  0  0  0  0  0  0
  1  2  1  0
  2  3  1  0
  3  4  1  0
  4  5  1  0
  5  6  1  0
  6  7  2  0
  7  8  1  0
  8  9  1  0
  9 10  1  0
 10 11  2  0
 11 12  1  0
 12 13  1  0
 13 14  2  0
 15 14  1  0
 15 16  1  0
 16 17  1  0
 17 18  1  0
 18 19  1  0
 19 20  1  0
 20 21  2  0
 20 22  1  0
 22 23  1  0
 23 24  2  0
 23 25  1  0
 25 26  2  0
  8 27  2  0
 27 28  1  0
 28 29  2  0
 27 30  1  0
 30 31  3  0
 29  6  1  0
 14 10  1  0
 19 15  1  0
M  END
