CVD-0002682|dock_bobby27042020.4|mol2|43|dock1
     RDKit          3D

 32 35  0  0  0  0  0  0  0  0999 V2000
    9.1651   -1.9466   19.8928 O   0  0  0  0  0  0  0  0  0  0  0  0
    8.3594   -1.9648   20.8196 C   0  0  0  0  0  0  0  0  0  0  0  0
    8.7003   -1.7029   22.0846 N   0  0  0  0  0  0  0  0  0  0  0  0
   10.0673   -1.3742   22.4543 C   0  0  0  0  0  0  0  0  0  0  0  0
   10.2320   -1.3199   23.9812 C   0  0  0  0  0  0  0  0  0  0  0  0
    9.9833   -2.6440   24.6624 C   0  0  0  0  0  0  0  0  0  0  0  0
    8.8809   -2.8224   25.4838 C   0  0  0  0  0  0  0  0  0  0  0  0
    8.6499   -4.0379   26.1060 C   0  0  0  0  0  0  0  0  0  0  0  0
    9.5188   -5.0903   25.9130 C   0  0  0  0  0  0  0  0  0  0  0  0
   10.6179   -4.9272   25.0976 C   0  0  0  0  0  0  0  0  0  0  0  0
   10.8482   -3.7114   24.4757 C   0  0  0  0  0  0  0  0  0  0  0  0
   10.4398   -0.0199   21.8597 C   0  0  0  0  0  0  0  0  0  0  0  0
    9.6855    0.5379   21.0816 O   0  0  0  0  0  0  0  0  0  0  0  0
   11.8001    0.5488   22.2972 C   0  0  0  0  0  0  0  0  0  0  0  0
   12.7650   -0.1209   21.9472 O   0  0  0  0  0  0  0  0  0  0  0  0
   11.9497    1.6868   23.0049 N   0  0  0  0  0  0  0  0  0  0  0  0
   10.9225    2.6120   23.4584 C   0  0  0  0  0  0  0  0  0  0  0  0
   11.2699    4.0594   23.1293 C   0  0  0  0  0  0  0  0  0  0  0  0
   12.6183    4.3909   23.6129 N   0  0  0  0  0  0  0  0  0  0  0  0
   13.6158    3.4685   23.0129 C   0  0  0  0  0  0  0  0  0  0  0  0
   13.2999    2.0626   23.4498 C   0  0  0  0  0  0  0  0  0  0  0  0
   12.9642    5.7199   23.8116 C   0  0  0  0  0  0  0  0  0  0  0  0
   12.8041    6.3261   25.0537 C   0  0  0  0  0  0  0  0  0  0  0  0
   13.1435    7.6561   25.2381 C   0  0  0  0  0  0  0  0  0  0  0  0
   13.6531    8.3969   24.1956 C   0  0  0  0  0  0  0  0  0  0  0  0
   13.8245    7.8070   22.9636 C   0  0  0  0  0  0  0  0  0  0  0  0
   13.4839    6.4791   22.7672 C   0  0  0  0  0  0  0  0  0  0  0  0
    6.8925   -2.2962   20.5614 C   0  0  0  0  0  0  0  0  0  0  0  0
    6.0565   -1.0368   20.3857 C   0  0  0  0  0  0  0  0  0  0  0  0
    5.5892   -1.0445   19.0003 C   0  0  0  0  0  0  0  0  0  0  0  0
    6.1451   -2.1609   18.3390 C   0  0  0  0  0  0  0  0  0  0  0  0
    6.7229   -3.0674   19.3264 N   0  0  0  0  0  0  0  0  0  0  0  0
  1  2  2  0
  2  3  1  0
  3  4  1  0
  4  5  1  0
  5  6  1  0
  6  7  2  0
  7  8  1  0
  8  9  2  0
  9 10  1  0
 10 11  2  0
  4 12  1  0
 12 13  2  0
 12 14  1  0
 14 15  2  0
 14 16  1  0
 16 17  1  0
 17 18  1  0
 18 19  1  0
 19 20  1  0
 20 21  1  0
 19 22  1  0
 22 23  2  0
 23 24  1  0
 24 25  2  0
 25 26  1  0
 26 27  2  0
  2 28  1  0
 28 29  1  0
 29 30  1  0
 30 31  1  0
 31 32  1  0
 11  6  1  0
 21 16  1  0
 27 22  1  0
 32 28  1  0
M  END
