CVD-0003094|dock_bobby27042020.3|mol2|17|dock3
     RDKit          3D

 34 36  0  0  0  0  0  0  0  0999 V2000
    8.4113   -5.6835   27.6683 C   0  0  0  0  0  0  0  0  0  0  0  0
    9.9151   -5.6938   26.7709 S   0  0  0  0  0  0  0  0  0  0  0  0
   10.8895   -4.9721   27.5295 O   0  0  0  0  0  0  0  0  0  0  0  0
   10.2017   -7.0453   26.4006 O   0  0  0  0  0  0  0  0  0  0  0  0
    9.6764   -4.8753   25.4132 N   0  0  0  0  0  0  0  0  0  0  0  0
    8.7505   -5.3929   24.4005 C   0  0  0  0  0  0  0  0  0  0  0  0
    7.6565   -4.3668   24.0799 C   0  0  0  0  0  0  0  0  0  0  0  0
    8.1868   -3.3289   23.0815 C   0  0  0  0  0  0  0  0  0  0  0  0
    7.0882   -2.4631   22.4674 C   0  0  0  0  0  0  0  0  0  0  0  0
    7.5916   -1.5495   21.3418 C   0  0  0  0  0  0  0  0  0  0  0  0
    8.3913   -0.3627   21.8962 C   0  0  0  0  0  0  0  0  0  0  0  0
    8.6649    0.7143   20.8598 C   0  0  0  0  0  0  0  0  0  0  0  0
    9.0913    1.9661   21.4688 N   0  0  0  0  0  0  0  0  0  0  0  0
   10.3934    2.2512   21.6673 C   0  0  0  0  0  0  0  0  0  0  0  0
   11.2896    1.4748   21.3472 O   0  0  0  0  0  0  0  0  0  0  0  0
   10.6476    3.4474   22.2416 N   0  0  0  0  0  0  0  0  0  0  0  0
   11.9963    3.8809   22.6070 C   0  0  0  0  0  0  0  0  0  0  0  0
   11.9536    5.0044   23.6630 C   0  0  0  0  0  0  0  0  0  0  0  0
   13.3449    5.5292   24.0125 C   0  0  0  0  0  0  0  0  0  0  0  0
   14.1011    5.9690   22.7655 C   0  0  0  0  0  0  0  0  0  0  0  0
   14.1680    4.8467   21.7396 C   0  0  0  0  0  0  0  0  0  0  0  0
   12.7729    4.3556   21.3671 C   0  0  0  0  0  0  0  0  0  0  0  0
    6.4312   -1.0591   20.4983 C   0  0  0  0  0  0  0  0  0  0  0  0
    5.4609   -0.2213   21.0278 C   0  0  0  0  0  0  0  0  0  0  0  0
    4.4243    0.2019   20.2195 C   0  0  0  0  0  0  0  0  0  0  0  0
    4.2933   -0.1482   18.9394 N   0  0  0  0  0  0  0  0  0  0  0  0
    5.2313   -0.9527   18.4381 C   0  0  0  0  0  0  0  0  0  0  0  0
    6.3038   -1.4271   19.1673 C   0  0  0  0  0  0  0  0  0  0  0  0
    6.4302   -5.0713   23.5336 C   0  0  0  0  0  0  0  0  0  0  0  0
    6.5439   -6.0095   22.5170 C   0  0  0  0  0  0  0  0  0  0  0  0
    5.4231   -6.6506   22.0162 C   0  0  0  0  0  0  0  0  0  0  0  0
    4.1749   -6.3614   22.5247 C   0  0  0  0  0  0  0  0  0  0  0  0
    4.0467   -5.4311   23.5337 C   0  0  0  0  0  0  0  0  0  0  0  0
    5.1670   -4.7896   24.0350 C   0  0  0  0  0  0  0  0  0  0  0  0
  1  2  1  0
  2  3  2  0
  2  4  2  0
  2  5  1  0
  5  6  1  0
  6  7  1  0
  7  8  1  0
  8  9  1  0
  9 10  1  0
 10 11  1  0
 11 12  1  0
 12 13  1  0
 13 14  1  0
 14 15  2  0
 14 16  1  0
 16 17  1  0
 17 18  1  0
 18 19  1  0
 19 20  1  0
 20 21  1  0
 21 22  1  0
 10 23  1  0
 23 24  2  0
 24 25  1  0
 25 26  2  0
 26 27  1  0
 27 28  2  0
  7 29  1  0
 29 30  2  0
 30 31  1  0
 31 32  2  0
 32 33  1  0
 33 34  2  0
 22 17  1  0
 28 23  1  0
 34 29  1  0
M  END
