CVD-0001889|dock_bobby27042020.79|mol2|32|dock2
     RDKit          3D

 32 35  0  0  0  0  0  0  0  0999 V2000
   13.8311    5.6533   22.3353 C   0  0  0  0  0  0  0  0  0  0  0  0
   12.5459    5.6779   22.9533 O   0  0  0  0  0  0  0  0  0  0  0  0
   11.6631    4.6459   22.7545 C   0  0  0  0  0  0  0  0  0  0  0  0
   10.2899    4.8359   22.7832 C   0  0  0  0  0  0  0  0  0  0  0  0
    9.4434    3.7611   22.5765 C   0  0  0  0  0  0  0  0  0  0  0  0
    9.9440    2.4869   22.3392 C   0  0  0  0  0  0  0  0  0  0  0  0
    9.0197    1.4321   22.1358 N   0  0  0  0  0  0  0  0  0  0  0  0
    7.8412    1.1511   22.7444 C   0  0  0  0  0  0  0  0  0  0  0  0
    7.3135    1.7960   23.6457 O   0  0  0  0  0  0  0  0  0  0  0  0
    7.1602   -0.1160   22.1934 C   0  0  0  0  0  0  0  0  0  0  0  0
    7.9979   -1.3401   22.3025 N   0  0  0  0  0  0  0  0  0  0  0  0
    7.3973   -2.5480   21.9870 C   0  0  0  0  0  0  0  0  0  0  0  0
    6.2178   -2.5879   21.6393 O   0  0  0  0  0  0  0  0  0  0  0  0
    8.1537   -3.8337   22.0467 C   0  0  0  0  0  0  0  0  0  0  0  0
    7.6768   -4.9110   21.4816 C   0  0  0  0  0  0  0  0  0  0  0  0
    9.3860   -1.3065   22.6640 C   0  0  0  0  0  0  0  0  0  0  0  0
   10.3875   -1.7758   21.8192 C   0  0  0  0  0  0  0  0  0  0  0  0
   11.7224   -1.7375   22.1877 C   0  0  0  0  0  0  0  0  0  0  0  0
   12.1055   -1.2169   23.4241 C   0  0  0  0  0  0  0  0  0  0  0  0
   13.3886   -1.1016   23.9536 N   0  0  0  0  0  0  0  0  0  0  0  0
   13.3435   -0.5658   25.1269 C   0  0  0  0  0  0  0  0  0  0  0  0
   11.7788   -0.1367   25.7393 S   0  0  0  0  0  0  0  0  0  0  0  0
   11.0949   -0.7404   24.2646 C   0  0  0  0  0  0  0  0  0  0  0  0
    9.7569   -0.7806   23.8967 C   0  0  0  0  0  0  0  0  0  0  0  0
    6.7419    0.1370   20.7521 C   0  0  0  0  0  0  0  0  0  0  0  0
    5.5868    0.8370   20.4397 C   0  0  0  0  0  0  0  0  0  0  0  0
    5.2439    1.0402   19.1143 C   0  0  0  0  0  0  0  0  0  0  0  0
    6.0711    0.5335   18.1374 C   0  0  0  0  0  0  0  0  0  0  0  0
    7.1882   -0.1452   18.4045 N   0  0  0  0  0  0  0  0  0  0  0  0
    7.4997   -0.3296   19.6909 C   0  0  0  0  0  0  0  0  0  0  0  0
   11.3241    2.3093   22.3128 C   0  0  0  0  0  0  0  0  0  0  0  0
   12.1736    3.3817   22.5191 C   0  0  0  0  0  0  0  0  0  0  0  0
  1  2  1  0
  2  3  1  0
  3  4  2  0
  4  5  1  0
  5  6  2  0
  6  7  1  0
  7  8  1  0
  8  9  2  0
  8 10  1  0
 10 11  1  0
 11 12  1  0
 12 13  2  0
 12 14  1  0
 14 15  2  0
 11 16  1  0
 16 17  2  0
 17 18  1  0
 18 19  2  0
 19 20  1  0
 20 21  2  0
 21 22  1  0
 22 23  1  0
 23 24  2  0
 10 25  1  0
 25 26  2  0
 26 27  1  0
 27 28  2  0
 28 29  1  0
 29 30  2  0
  6 31  1  0
 31 32  2  0
 32  3  1  0
 24 16  1  0
 30 25  1  0
 23 19  1  0
M  END
