CVD-0002948|dock_bobby27042020.46|mol2|45|dock1
     RDKit          3D

 21 23  0  0  0  0  0  0  0  0999 V2000
   14.5715   -2.5401   23.6444 Br  0  0  0  0  0  0  0  0  0  0  0  0
   13.2309   -1.2293   23.3403 C   0  0  0  0  0  0  0  0  0  0  0  0
   13.4942    0.0836   23.6607 C   0  0  0  0  0  0  0  0  0  0  0  0
   12.5111    1.0265   23.4229 C   0  0  0  0  0  0  0  0  0  0  0  0
   11.2965    0.6524   22.8730 C   0  0  0  0  0  0  0  0  0  0  0  0
   11.0227   -0.6806   22.5668 C   0  0  0  0  0  0  0  0  0  0  0  0
   12.0221   -1.6221   22.8061 C   0  0  0  0  0  0  0  0  0  0  0  0
    9.7187   -1.1266   21.9964 C   0  0  0  0  0  0  0  0  0  0  0  0
    9.1882   -2.3202   22.3799 C   0  0  0  0  0  0  0  0  0  0  0  0
    8.0140   -2.7874   21.8913 N   0  0  0  0  0  0  0  0  0  0  0  0
    7.2723   -2.1124   20.9791 C   0  0  0  0  0  0  0  0  0  0  0  0
    6.1450   -2.6854   20.5535 C   0  0  0  0  0  0  0  0  0  0  0  0
    7.7409   -0.8824   20.5483 N   0  0  0  0  0  0  0  0  0  0  0  0
    8.9611   -0.3260   21.0292 C   0  0  0  0  0  0  0  0  0  0  0  0
    9.2873    0.7846   20.6271 O   0  0  0  0  0  0  0  0  0  0  0  0
    6.9961   -0.0869   19.5956 C   0  0  0  0  0  0  0  0  0  0  0  0
    5.8106    0.5417   19.9532 C   0  0  0  0  0  0  0  0  0  0  0  0
    5.1300    1.2903   19.0092 C   0  0  0  0  0  0  0  0  0  0  0  0
    5.6556    1.3850   17.7412 C   0  0  0  0  0  0  0  0  0  0  0  0
    6.7912    0.7900   17.3737 N   0  0  0  0  0  0  0  0  0  0  0  0
    7.4412    0.0690   18.2926 C   0  0  0  0  0  0  0  0  0  0  0  0
  1  2  1  0
  2  3  2  0
  3  4  1  0
  4  5  2  0
  5  6  1  0
  6  7  2  0
  6  8  1  0
  8  9  2  0
  9 10  1  0
 10 11  1  0
 11 12  2  0
 11 13  1  0
 13 14  1  0
 14 15  2  0
 13 16  1  0
 16 17  2  0
 17 18  1  0
 18 19  2  0
 19 20  1  0
 20 21  2  0
  7  2  1  0
 14  8  1  0
 21 16  1  0
M  END
