CVD-0002070|dock_bobby27042020.93|mol2|9|dock1
     RDKit          3D

 34 37  0  0  0  0  0  0  0  0999 V2000
    9.3728    0.4843   22.0593 C   0  0  0  0  0  0  0  0  0  0  0  0
   10.2199   -0.5435   22.8022 C   0  0  0  0  0  0  0  0  0  0  0  0
   11.5676    0.0473   23.1330 C   0  0  0  0  0  0  0  0  0  0  0  0
   12.1223    0.7546   21.9950 N   0  0  0  0  0  0  0  0  0  0  0  0
   12.5728    2.0378   22.0723 C   0  0  0  0  0  0  0  0  0  0  0  0
   13.3634    2.4745   23.1359 C   0  0  0  0  0  0  0  0  0  0  0  0
   13.7837    3.7922   23.1472 C   0  0  0  0  0  0  0  0  0  0  0  0
   13.4155    4.6441   22.1124 C   0  0  0  0  0  0  0  0  0  0  0  0
   12.6258    4.1156   21.0960 C   0  0  0  0  0  0  0  0  0  0  0  0
   12.2106    2.8443   21.0694 N   0  0  0  0  0  0  0  0  0  0  0  0
   13.8359    6.0234   22.0928 C   0  0  0  0  0  0  0  0  0  0  0  0
   14.1446    7.1231   22.0992 N   0  0  0  0  0  0  0  0  0  0  0  0
   10.3873   -1.7986   21.9405 C   0  0  0  0  0  0  0  0  0  0  0  0
    9.0893   -2.4432   21.5351 C   0  0  0  0  0  0  0  0  0  0  0  0
    8.4595   -3.5066   22.2051 C   0  0  0  0  0  0  0  0  0  0  0  0
    7.2803   -3.8532   21.5680 C   0  0  0  0  0  0  0  0  0  0  0  0
    6.3409   -4.9343   21.9745 C   0  0  0  0  0  0  0  0  0  0  0  0
    6.7613   -6.2639   22.0693 C   0  0  0  0  0  0  0  0  0  0  0  0
    5.8916   -7.2711   22.4524 C   0  0  0  0  0  0  0  0  0  0  0  0
    4.5829   -6.9842   22.7644 C   0  0  0  0  0  0  0  0  0  0  0  0
    4.1311   -5.6806   22.6882 C   0  0  0  0  0  0  0  0  0  0  0  0
    5.0069   -4.6974   22.2930 C   0  0  0  0  0  0  0  0  0  0  0  0
    4.4977   -3.4463   22.2186 F   0  0  0  0  0  0  0  0  0  0  0  0
    7.1733   -2.9584   20.4638 N   0  0  0  0  0  0  0  0  0  0  0  0
    8.2778   -2.1159   20.4606 C   0  0  0  0  0  0  0  0  0  0  0  0
    6.0134   -2.7505   19.2422 S   0  0  0  0  0  0  0  0  0  0  0  0
    6.7099   -3.0284   18.0246 O   0  0  0  0  0  0  0  0  0  0  0  0
    4.8770   -3.5472   19.5877 O   0  0  0  0  0  0  0  0  0  0  0  0
    5.5805   -1.0449   19.2168 C   0  0  0  0  0  0  0  0  0  0  0  0
    5.5962   -0.3362   18.0278 C   0  0  0  0  0  0  0  0  0  0  0  0
    5.2534    1.0046   18.0543 C   0  0  0  0  0  0  0  0  0  0  0  0
    4.9131    1.5775   19.2589 C   0  0  0  0  0  0  0  0  0  0  0  0
    4.8954    0.9074   20.4121 N   0  0  0  0  0  0  0  0  0  0  0  0
    5.2275   -0.3864   20.3794 C   0  0  0  0  0  0  0  0  0  0  0  0
  1  2  1  0
  2  3  1  0
  3  4  1  0
  4  5  1  0
  5  6  2  0
  6  7  1  0
  7  8  2  0
  8  9  1  0
  9 10  2  0
  8 11  1  0
 11 12  3  0
  2 13  1  0
 13 14  1  0
 14 15  1  0
 15 16  2  0
 16 17  1  0
 17 18  2  0
 18 19  1  0
 19 20  2  0
 20 21  1  0
 21 22  2  0
 22 23  1  0
 16 24  1  0
 24 25  1  0
 24 26  1  0
 26 27  2  0
 26 28  2  0
 26 29  1  0
 29 30  2  0
 30 31  1  0
 31 32  2  0
 32 33  1  0
 33 34  2  0
 10  5  1  0
 25 14  2  0
 34 29  1  0
 22 17  1  0
M  END
