CVD-0003960|dock_bobby27042020.15|mol2|4|dock2
     RDKit          3D

 22 23  0  0  0  0  0  0  0  0999 V2000
   11.5141    6.5205   26.3368 C   0  0  0  0  0  0  0  0  0  0  0  0
   12.4129    6.5031   25.1353 C   0  0  0  0  0  0  0  0  0  0  0  0
   12.9578    7.5199   24.7173 O   0  0  0  0  0  0  0  0  0  0  0  0
   12.5720    5.3205   24.5379 N   0  0  0  0  0  0  0  0  0  0  0  0
   13.3983    5.1450   23.3521 C   0  0  0  0  0  0  0  0  0  0  0  0
   12.5777    4.7153   22.1492 C   0  0  0  0  0  0  0  0  0  0  0  0
   11.9474    3.3553   22.3280 C   0  0  0  0  0  0  0  0  0  0  0  0
   12.6854    2.1968   22.1428 C   0  0  0  0  0  0  0  0  0  0  0  0
   12.1072    0.9502   22.3039 C   0  0  0  0  0  0  0  0  0  0  0  0
   10.7728    0.8237   22.6557 C   0  0  0  0  0  0  0  0  0  0  0  0
   10.1404   -0.5370   22.8275 C   0  0  0  0  0  0  0  0  0  0  0  0
    8.7352   -0.5872   22.3986 N   0  0  0  0  0  0  0  0  0  0  0  0
    8.2137   -1.9526   22.5101 C   0  0  0  0  0  0  0  0  0  0  0  0
    6.7517   -1.9909   22.1054 C   0  0  0  0  0  0  0  0  0  0  0  0
    6.5865   -1.4964   20.7369 N   0  0  0  0  0  0  0  0  0  0  0  0
    7.1532   -0.1535   20.5773 C   0  0  0  0  0  0  0  0  0  0  0  0
    8.6067   -0.1394   21.0143 C   0  0  0  0  0  0  0  0  0  0  0  0
    5.9537   -2.2096   19.7658 C   0  0  0  0  0  0  0  0  0  0  0  0
    5.8388   -1.6410   18.3812 C   0  0  0  0  0  0  0  0  0  0  0  0
    5.4894   -3.3171   20.0123 O   0  0  0  0  0  0  0  0  0  0  0  0
   10.0334    1.9816   22.8381 C   0  0  0  0  0  0  0  0  0  0  0  0
   10.6120    3.2279   22.6768 C   0  0  0  0  0  0  0  0  0  0  0  0
  1  2  1  0
  2  3  2  0
  2  4  1  0
  4  5  1  0
  5  6  1  0
  6  7  1  0
  7  8  2  0
  8  9  1  0
  9 10  2  0
 10 11  1  0
 11 12  1  0
 12 13  1  0
 13 14  1  0
 14 15  1  0
 15 16  1  0
 16 17  1  0
 15 18  1  0
 18 19  1  0
 18 20  2  0
 10 21  1  0
 21 22  2  0
 22  7  1  0
 17 12  1  0
M  END
