CVD-0002058|dock_bobby27042020.65|mol2|6|dock3
     RDKit          3D

 34 37  0  0  0  0  0  0  0  0999 V2000
    6.5501   -6.0603   22.1755 C   0  0  0  0  0  0  0  0  0  0  0  0
    6.1985   -5.2970   23.3759 N   0  0  0  0  0  0  0  0  0  0  0  0
    7.3102   -4.5399   23.9612 C   0  0  0  0  0  0  0  0  0  0  0  0
    7.7625   -3.4248   23.0554 C   0  0  0  0  0  0  0  0  0  0  0  0
    6.9243   -2.6585   22.2277 C   0  0  0  0  0  0  0  0  0  0  0  0
    7.6644   -1.7272   21.5194 C   0  0  0  0  0  0  0  0  0  0  0  0
    7.1343   -0.7389   20.5401 C   0  0  0  0  0  0  0  0  0  0  0  0
    7.8564   -0.3922   19.3949 C   0  0  0  0  0  0  0  0  0  0  0  0
    7.3637    0.5222   18.4791 C   0  0  0  0  0  0  0  0  0  0  0  0
    6.1339    1.1087   18.6687 C   0  0  0  0  0  0  0  0  0  0  0  0
    5.3874    0.7874   19.7863 C   0  0  0  0  0  0  0  0  0  0  0  0
    5.9003   -0.1128   20.6900 C   0  0  0  0  0  0  0  0  0  0  0  0
    5.1303   -0.3688   21.7722 F   0  0  0  0  0  0  0  0  0  0  0  0
    9.0142   -1.9253   21.9335 N   0  0  0  0  0  0  0  0  0  0  0  0
    9.0531   -2.9609   22.8587 C   0  0  0  0  0  0  0  0  0  0  0  0
   10.4798   -1.1709   21.5280 S   0  0  0  0  0  0  0  0  0  0  0  0
   10.1743    0.0905   20.9271 O   0  0  0  0  0  0  0  0  0  0  0  0
   11.2088   -2.1465   20.7786 O   0  0  0  0  0  0  0  0  0  0  0  0
   11.3719   -0.9197   23.0453 C   0  0  0  0  0  0  0  0  0  0  0  0
   12.5374   -1.6484   23.2240 C   0  0  0  0  0  0  0  0  0  0  0  0
   13.2484   -1.4722   24.3994 C   0  0  0  0  0  0  0  0  0  0  0  0
   12.7740   -0.5865   25.3411 C   0  0  0  0  0  0  0  0  0  0  0  0
   11.6512    0.1295   25.1961 N   0  0  0  0  0  0  0  0  0  0  0  0
   10.9483   -0.0250   24.0653 C   0  0  0  0  0  0  0  0  0  0  0  0
    9.6786    0.7746   23.8955 C   0  0  0  0  0  0  0  0  0  0  0  0
    9.7391    1.7040   22.7851 N   0  0  0  0  0  0  0  0  0  0  0  0
   10.6892    2.6715   22.6712 C   0  0  0  0  0  0  0  0  0  0  0  0
   12.0406    2.3361   22.6084 C   0  0  0  0  0  0  0  0  0  0  0  0
   12.9677    3.3559   22.4931 C   0  0  0  0  0  0  0  0  0  0  0  0
   12.5367    4.6767   22.4431 C   0  0  0  0  0  0  0  0  0  0  0  0
   11.1663    4.9095   22.5131 C   0  0  0  0  0  0  0  0  0  0  0  0
   10.2563    3.9353   22.6248 N   0  0  0  0  0  0  0  0  0  0  0  0
   13.4749    5.7654   22.3231 C   0  0  0  0  0  0  0  0  0  0  0  0
   14.2217    6.6201   22.1956 N   0  0  0  0  0  0  0  0  0  0  0  0
  1  2  1  0
  2  3  1  0
  3  4  1  0
  4  5  1  0
  5  6  2  0
  6  7  1  0
  7  8  2  0
  8  9  1  0
  9 10  2  0
 10 11  1  0
 11 12  2  0
 12 13  1  0
  6 14  1  0
 14 15  1  0
 14 16  1  0
 16 17  2  0
 16 18  2  0
 16 19  1  0
 19 20  2  0
 20 21  1  0
 21 22  2  0
 22 23  1  0
 23 24  2  0
 24 25  1  0
 25 26  1  0
 26 27  1  0
 27 28  2  0
 28 29  1  0
 29 30  2  0
 30 31  1  0
 31 32  2  0
 30 33  1  0
 33 34  3  0
 15  4  2  0
 24 19  1  0
 32 27  1  0
 12  7  1  0
M  END
