CVD-0003818|dock_bobby27042020.72|mol2|35|dock2
     RDKit          3D

 26 28  0  0  0  0  0  0  0  0999 V2000
    6.2157   -5.4732   23.0744 C   0  0  0  0  0  0  0  0  0  0  0  0
    7.0984   -4.5443   23.7693 N   0  0  0  0  0  0  0  0  0  0  0  0
    7.0142   -3.1605   23.3403 C   0  0  0  0  0  0  0  0  0  0  0  0
    8.3308   -2.5797   22.8396 C   0  0  0  0  0  0  0  0  0  0  0  0
    9.2388   -2.1542   23.9990 C   0  0  0  0  0  0  0  0  0  0  0  0
   10.5333   -1.5866   23.4897 C   0  0  0  0  0  0  0  0  0  0  0  0
   10.3194   -0.4636   22.5720 N   0  0  0  0  0  0  0  0  0  0  0  0
    9.4360   -0.8053   21.4331 C   0  0  0  0  0  0  0  0  0  0  0  0
    8.1325   -1.3994   21.9224 C   0  0  0  0  0  0  0  0  0  0  0  0
   11.0402    0.7237   22.6508 C   0  0  0  0  0  0  0  0  0  0  0  0
   12.4255    0.7200   22.7882 C   0  0  0  0  0  0  0  0  0  0  0  0
   13.1458    1.8992   22.8594 C   0  0  0  0  0  0  0  0  0  0  0  0
   12.4814    3.1112   22.8094 C   0  0  0  0  0  0  0  0  0  0  0  0
   11.1050    3.1433   22.6786 C   0  0  0  0  0  0  0  0  0  0  0  0
   10.3978    1.9571   22.5943 C   0  0  0  0  0  0  0  0  0  0  0  0
   13.3939    4.6218   22.9023 S   0  0  0  0  0  0  0  0  0  0  0  0
   13.0381    5.5092   21.6181 N   0  0  0  0  0  0  0  0  0  0  0  0
   12.9250    5.3346   24.0527 O   0  0  0  0  0  0  0  0  0  0  0  0
   14.7838    4.2879   22.8144 O   0  0  0  0  0  0  0  0  0  0  0  0
    7.8395   -4.9524   24.8754 C   0  0  0  0  0  0  0  0  0  0  0  0
    7.6805   -4.3402   26.1158 C   0  0  0  0  0  0  0  0  0  0  0  0
    8.4045   -4.7527   27.2201 C   0  0  0  0  0  0  0  0  0  0  0  0
    9.2956   -5.7772   27.0713 C   0  0  0  0  0  0  0  0  0  0  0  0
   10.0089   -6.1875   28.1544 F   0  0  0  0  0  0  0  0  0  0  0  0
    9.4972   -6.4044   25.8747 C   0  0  0  0  0  0  0  0  0  0  0  0
    8.7670   -5.9874   24.7759 C   0  0  0  0  0  0  0  0  0  0  0  0
  1  2  1  0
  2  3  1  0
  3  4  1  0
  4  5  1  0
  5  6  1  0
  6  7  1  0
  7  8  1  0
  8  9  1  0
  7 10  1  0
 10 11  2  0
 11 12  1  0
 12 13  2  0
 13 14  1  0
 14 15  2  0
 13 16  1  0
 16 17  1  0
 16 18  2  0
 16 19  2  0
  2 20  1  0
 20 21  2  0
 21 22  1  0
 22 23  2  0
 23 24  1  0
 23 25  1  0
 25 26  2  0
  9  4  1  0
 15 10  1  0
 26 20  1  0
M  END
