CVD-0002937|dock_bobby27042020.4|mol2|5|dock2
     RDKit          3D

 21 22  0  0  0  0  0  0  0  0999 V2000
    2.7914    2.5911   20.0388 C   0  0  0  0  0  0  0  0  0  0  0  0
    3.6882    1.4414   19.7221 C   0  0  0  0  0  0  0  0  0  0  0  0
    3.8377    0.4714   20.4137 O   0  0  0  0  0  0  0  0  0  0  0  0
    4.3284    1.6274   18.5624 O   0  0  0  0  0  0  0  0  0  0  0  0
    5.1865    0.5646   18.0642 C   0  0  0  0  0  0  0  0  0  0  0  0
    6.1356    0.1177   19.1390 C   0  0  0  0  0  0  0  0  0  0  0  0
    7.0200    1.0109   19.7232 C   0  0  0  0  0  0  0  0  0  0  0  0
    7.8924    0.6002   20.7154 C   0  0  0  0  0  0  0  0  0  0  0  0
    7.9058   -0.7165   21.1528 C   0  0  0  0  0  0  0  0  0  0  0  0
    7.0182   -1.6087   20.5689 C   0  0  0  0  0  0  0  0  0  0  0  0
    6.1461   -1.1973   19.5768 C   0  0  0  0  0  0  0  0  0  0  0  0
    8.8544   -1.1637   22.2360 C   0  0  0  0  0  0  0  0  0  0  0  0
   10.0695   -1.8873   21.7034 C   0  0  0  0  0  0  0  0  0  0  0  0
   11.0012   -2.1985   22.8541 C   0  0  0  0  0  0  0  0  0  0  0  0
   11.3166   -0.9527   23.5830 N   0  0  0  0  0  0  0  0  0  0  0  0
   10.1248   -0.2484   24.0471 C   0  0  0  0  0  0  0  0  0  0  0  0
    9.2577    0.0087   22.9651 O   0  0  0  0  0  0  0  0  0  0  0  0
   12.5687   -0.5035   23.8018 C   0  0  0  0  0  0  0  0  0  0  0  0
   12.7878    0.5375   24.4084 O   0  0  0  0  0  0  0  0  0  0  0  0
   13.6959   -1.3541   23.2500 C   0  0  0  0  0  0  0  0  0  0  0  0
   13.6933   -1.3111   21.4822 Cl  0  0  0  0  0  0  0  0  0  0  0  0
  1  2  1  0
  2  3  2  0
  2  4  1  0
  4  5  1  0
  5  6  1  0
  6  7  2  0
  7  8  1  0
  8  9  2  0
  9 10  1  0
 10 11  2  0
  9 12  1  0
 12 13  1  0
 13 14  1  0
 14 15  1  0
 15 16  1  0
 16 17  1  0
 15 18  1  0
 18 19  2  0
 18 20  1  0
 20 21  1  0
 11  6  1  0
 17 12  1  0
M  END
