CVD-0002585|dock_bobby27042020.76|mol2|37|dock1
     RDKit          3D

 37 40  0  0  0  0  0  0  0  0999 V2000
    6.3538   -5.5166   20.3915 C   0  0  0  0  0  0  0  0  0  0  0  0
    5.7644   -4.2629   20.8284 N   0  0  0  0  0  0  0  0  0  0  0  0
    6.5016   -3.1308   20.4749 N   0  0  0  0  0  0  0  0  0  0  0  0
    7.6479   -2.7274   21.2434 C   0  0  0  0  0  0  0  0  0  0  0  0
    8.4287   -1.5919   20.9308 C   0  0  0  0  0  0  0  0  0  0  0  0
    9.4525   -1.4845   21.8547 C   0  0  0  0  0  0  0  0  0  0  0  0
   10.5048   -0.4316   21.8851 C   0  0  0  0  0  0  0  0  0  0  0  0
   11.8263   -0.7331   22.2262 C   0  0  0  0  0  0  0  0  0  0  0  0
   12.8075    0.2439   22.2504 C   0  0  0  0  0  0  0  0  0  0  0  0
   12.5065    1.5457   21.9239 C   0  0  0  0  0  0  0  0  0  0  0  0
   11.2125    1.8822   21.5753 C   0  0  0  0  0  0  0  0  0  0  0  0
   10.2506    0.9001   21.5700 C   0  0  0  0  0  0  0  0  0  0  0  0
    9.0007    1.2983   21.2393 F   0  0  0  0  0  0  0  0  0  0  0  0
    9.2706   -2.5807   22.7462 N   0  0  0  0  0  0  0  0  0  0  0  0
    8.1656   -3.3227   22.3457 C   0  0  0  0  0  0  0  0  0  0  0  0
   10.1085   -3.1049   24.1262 S   0  0  0  0  0  0  0  0  0  0  0  0
   10.6030   -1.9427   24.7971 O   0  0  0  0  0  0  0  0  0  0  0  0
   11.0416   -4.0741   23.6416 O   0  0  0  0  0  0  0  0  0  0  0  0
    8.9557   -3.9578   25.1463 C   0  0  0  0  0  0  0  0  0  0  0  0
    7.7303   -3.3876   25.4462 C   0  0  0  0  0  0  0  0  0  0  0  0
    6.8560   -4.0911   26.2565 C   0  0  0  0  0  0  0  0  0  0  0  0
    7.2397   -5.3252   26.7308 C   0  0  0  0  0  0  0  0  0  0  0  0
    8.4173   -5.8856   26.4516 N   0  0  0  0  0  0  0  0  0  0  0  0
    9.2568   -5.2011   25.6692 C   0  0  0  0  0  0  0  0  0  0  0  0
    6.0076   -2.2678   19.0990 S   0  0  0  0  0  0  0  0  0  0  0  0
    7.1958   -2.0431   18.3357 O   0  0  0  0  0  0  0  0  0  0  0  0
    4.9199   -3.0118   18.5438 O   0  0  0  0  0  0  0  0  0  0  0  0
    5.3982   -0.7149   19.6585 C   0  0  0  0  0  0  0  0  0  0  0  0
    5.4091   -0.4203   21.0120 C   0  0  0  0  0  0  0  0  0  0  0  0
    4.9244    0.8003   21.4475 C   0  0  0  0  0  0  0  0  0  0  0  0
    4.4259    1.7331   20.5438 C   0  0  0  0  0  0  0  0  0  0  0  0
    4.4222    1.4166   19.1900 C   0  0  0  0  0  0  0  0  0  0  0  0
    4.9043    0.1994   18.7428 C   0  0  0  0  0  0  0  0  0  0  0  0
    3.9010    3.0545   21.0083 C   0  0  0  0  0  0  0  0  0  0  0  0
    4.0511    3.4650   22.1469 O   0  0  0  0  0  0  0  0  0  0  0  0
    3.2589    3.7282   20.0557 O   0  0  0  0  0  0  0  0  0  0  0  0
    2.6562    4.9787   20.4650 C   0  0  0  0  0  0  0  0  0  0  0  0
  1  2  1  0
  2  3  1  0
  3  4  1  0
  4  5  1  0
  5  6  2  0
  6  7  1  0
  7  8  2  0
  8  9  1  0
  9 10  2  0
 10 11  1  0
 11 12  2  0
 12 13  1  0
  6 14  1  0
 14 15  1  0
 14 16  1  0
 16 17  2  0
 16 18  2  0
 16 19  1  0
 19 20  2  0
 20 21  1  0
 21 22  2  0
 22 23  1  0
 23 24  2  0
  3 25  1  0
 25 26  2  0
 25 27  2  0
 25 28  1  0
 28 29  2  0
 29 30  1  0
 30 31  2  0
 31 32  1  0
 32 33  2  0
 31 34  1  0
 34 35  2  0
 34 36  1  0
 36 37  1  0
 15  4  2  0
 24 19  1  0
 33 28  1  0
 12  7  1  0
M  END
