CVD-0003481|dock_bobby27042020.30|mol2|43|dock3
     RDKit          3D

 26 29  0  0  0  0  0  0  0  0999 V2000
   11.5937   -0.2840   21.5706 O   0  0  0  0  0  0  0  0  0  0  0  0
   11.0672   -1.3198   21.9710 C   0  0  0  0  0  0  0  0  0  0  0  0
   11.7769   -2.3795   22.3687 N   0  0  0  0  0  0  0  0  0  0  0  0
   13.2358   -2.3698   22.4773 C   0  0  0  0  0  0  0  0  0  0  0  0
   13.4001   -1.5778   23.9088 C   0  0  0  0  0  0  0  0  0  0  0  0
   14.2131   -2.7846   23.6073 C   0  0  0  0  0  0  0  0  0  0  0  0
    9.5472   -1.4615   22.0464 C   0  0  0  0  0  0  0  0  0  0  0  0
    9.2413   -1.5827   23.5291 C   0  0  0  0  0  0  0  0  0  0  0  0
    9.7780   -0.4394   24.3864 C   0  0  0  0  0  0  0  0  0  0  0  0
    9.1595    0.8851   24.0035 C   0  0  0  0  0  0  0  0  0  0  0  0
    9.6301    1.3599   22.6927 N   0  0  0  0  0  0  0  0  0  0  0  0
   10.6825    2.3469   22.6936 C   0  0  0  0  0  0  0  0  0  0  0  0
   11.9957    2.0102   23.0105 C   0  0  0  0  0  0  0  0  0  0  0  0
   12.9915    2.9725   23.0154 C   0  0  0  0  0  0  0  0  0  0  0  0
   12.6956    4.2817   22.7075 C   0  0  0  0  0  0  0  0  0  0  0  0
   11.4006    4.6303   22.3941 C   0  0  0  0  0  0  0  0  0  0  0  0
   10.3997    3.6732   22.3866 C   0  0  0  0  0  0  0  0  0  0  0  0
    9.1982    0.9320   21.4877 C   0  0  0  0  0  0  0  0  0  0  0  0
    9.0889    1.5998   20.4724 O   0  0  0  0  0  0  0  0  0  0  0  0
    8.8076   -0.3648   21.3704 N   0  0  0  0  0  0  0  0  0  0  0  0
    7.6291   -0.8434   20.7022 C   0  0  0  0  0  0  0  0  0  0  0  0
    7.6230   -1.2164   19.3621 C   0  0  0  0  0  0  0  0  0  0  0  0
    6.4537   -1.6750   18.7816 C   0  0  0  0  0  0  0  0  0  0  0  0
    5.3214   -1.7534   19.5575 C   0  0  0  0  0  0  0  0  0  0  0  0
    5.2973   -1.4095   20.8447 N   0  0  0  0  0  0  0  0  0  0  0  0
    6.4333   -0.9667   21.3927 C   0  0  0  0  0  0  0  0  0  0  0  0
  1  2  2  0
  2  3  1  0
  3  4  1  0
  4  5  1  0
  5  6  1  0
  2  7  1  0
  7  8  1  0
  8  9  1  0
  9 10  1  0
 10 11  1  0
 11 12  1  0
 12 13  2  0
 13 14  1  0
 14 15  2  0
 15 16  1  0
 16 17  2  0
 11 18  1  0
 18 19  2  0
 18 20  1  0
 20 21  1  0
 21 22  2  0
 22 23  1  0
 23 24  2  0
 24 25  1  0
 25 26  2  0
  6  4  1  0
 20  7  1  0
 26 21  1  0
 17 12  1  0
M  END
