CVD-0003950|dock_bobby27042020.72|mol2|16|dock1
     RDKit          3D

 29 31  0  0  0  0  0  0  0  0999 V2000
   13.9679    5.6121   21.9139 C   0  0  0  0  0  0  0  0  0  0  0  0
   12.9865    4.6500   22.5689 C   0  0  0  0  0  0  0  0  0  0  0  0
   12.5697    3.5283   21.6144 C   0  0  0  0  0  0  0  0  0  0  0  0
   11.8792    2.4951   22.3617 N   0  0  0  0  0  0  0  0  0  0  0  0
   12.4403    1.2578   22.6160 C   0  0  0  0  0  0  0  0  0  0  0  0
   13.8087    1.1252   22.8190 C   0  0  0  0  0  0  0  0  0  0  0  0
   14.4073   -0.0426   23.0677 N   0  0  0  0  0  0  0  0  0  0  0  0
   13.6387   -1.1336   23.1220 C   0  0  0  0  0  0  0  0  0  0  0  0
   12.2686   -1.1271   22.9390 C   0  0  0  0  0  0  0  0  0  0  0  0
   11.4454   -2.3906   23.0074 C   0  0  0  0  0  0  0  0  0  0  0  0
    9.9522   -2.1221   22.9531 C   0  0  0  0  0  0  0  0  0  0  0  0
    9.5296   -1.6710   21.6349 N   0  0  0  0  0  0  0  0  0  0  0  0
    8.3603   -1.0280   21.4461 C   0  0  0  0  0  0  0  0  0  0  0  0
    7.5996   -0.7950   22.3809 O   0  0  0  0  0  0  0  0  0  0  0  0
    8.1507   -0.6887   20.1316 N   0  0  0  0  0  0  0  0  0  0  0  0
    7.0685   -0.0156   19.5113 C   0  0  0  0  0  0  0  0  0  0  0  0
    5.8303   -0.0557   20.1424 C   0  0  0  0  0  0  0  0  0  0  0  0
    4.7353    0.5827   19.5854 C   0  0  0  0  0  0  0  0  0  0  0  0
    4.8610    1.2665   18.3965 C   0  0  0  0  0  0  0  0  0  0  0  0
    6.0828    1.3132   17.7618 C   0  0  0  0  0  0  0  0  0  0  0  0
    7.1857    0.6784   18.3091 C   0  0  0  0  0  0  0  0  0  0  0  0
   11.6723    0.0999   22.6809 C   0  0  0  0  0  0  0  0  0  0  0  0
   11.7975    5.3539   23.0824 N   0  0  0  0  0  0  0  0  0  0  0  0
   11.6010    5.9301   24.3372 C   0  0  0  0  0  0  0  0  0  0  0  0
   12.6335    6.1083   25.2537 C   0  0  0  0  0  0  0  0  0  0  0  0
   12.3799    6.6867   26.4866 C   0  0  0  0  0  0  0  0  0  0  0  0
   11.1063    7.0919   26.8204 C   0  0  0  0  0  0  0  0  0  0  0  0
   10.0778    6.9202   25.9206 C   0  0  0  0  0  0  0  0  0  0  0  0
   10.3200    6.3431   24.6854 C   0  0  0  0  0  0  0  0  0  0  0  0
  1  2  1  0
  2  3  1  0
  3  4  1  0
  4  5  1  0
  5  6  2  0
  6  7  1  0
  7  8  2  0
  8  9  1  0
  9 10  1  0
 10 11  1  0
 11 12  1  0
 12 13  1  0
 13 14  2  0
 13 15  1  0
 15 16  1  0
 16 17  2  0
 17 18  1  0
 18 19  2  0
 19 20  1  0
 20 21  2  0
  9 22  2  0
  2 23  1  0
 23 24  1  0
 24 25  2  0
 25 26  1  0
 26 27  2  0
 27 28  1  0
 28 29  2  0
 22  5  1  0
 29 24  1  0
 21 16  1  0
M  END
