CVD-0000894|dock_bobby27042020.83|mol2|4|dock2
     RDKit          3D

 22 23  0  0  0  0  0  0  0  0999 V2000
    7.1264   -0.1477   18.8981 O   0  0  0  0  0  0  0  0  0  0  0  0
    5.7414   -0.4288   18.7968 C   0  0  0  0  0  0  0  0  0  0  0  0
    5.4771   -1.8462   18.6990 N   0  0  0  0  0  0  0  0  0  0  0  0
    5.8945   -2.7179   19.6572 C   0  0  0  0  0  0  0  0  0  0  0  0
    6.5082   -2.2469   20.8168 C   0  0  0  0  0  0  0  0  0  0  0  0
    6.9277   -3.1557   21.7821 C   0  0  0  0  0  0  0  0  0  0  0  0
    7.5934   -2.6842   23.0532 C   0  0  0  0  0  0  0  0  0  0  0  0
    8.5565   -1.5992   22.8199 N   0  0  0  0  0  0  0  0  0  0  0  0
    8.9417   -0.9741   24.0886 C   0  0  0  0  0  0  0  0  0  0  0  0
    9.9043    0.1719   23.8386 C   0  0  0  0  0  0  0  0  0  0  0  0
   11.0928   -0.3041   23.1276 N   0  0  0  0  0  0  0  0  0  0  0  0
   10.7367   -0.9886   21.8808 C   0  0  0  0  0  0  0  0  0  0  0  0
    9.7536   -2.1113   22.1580 C   0  0  0  0  0  0  0  0  0  0  0  0
   12.3466   -0.0956   23.5778 C   0  0  0  0  0  0  0  0  0  0  0  0
   12.5689    0.5165   24.6149 O   0  0  0  0  0  0  0  0  0  0  0  0
   13.4722   -0.6538   22.7293 C   0  0  0  0  0  0  0  0  0  0  0  0
   13.4540   -2.4220   22.7447 Cl  0  0  0  0  0  0  0  0  0  0  0  0
    6.7044   -4.5189   21.5326 C   0  0  0  0  0  0  0  0  0  0  0  0
    6.0800   -4.8997   20.3384 C   0  0  0  0  0  0  0  0  0  0  0  0
    5.6826   -4.0158   19.4172 N   0  0  0  0  0  0  0  0  0  0  0  0
    7.1095   -5.5173   22.4873 C   0  0  0  0  0  0  0  0  0  0  0  0
    7.4633   -6.2973   23.2431 N   0  0  0  0  0  0  0  0  0  0  0  0
  1  2  1  0
  2  3  1  0
  3  4  1  0
  4  5  2  0
  5  6  1  0
  6  7  1  0
  7  8  1  0
  8  9  1  0
  9 10  1  0
 10 11  1  0
 11 12  1  0
 12 13  1  0
 11 14  1  0
 14 15  2  0
 14 16  1  0
 16 17  1  0
  6 18  2  0
 18 19  1  0
 19 20  2  0
 18 21  1  0
 21 22  3  0
 20  4  1  0
 13  8  1  0
M  END
