CVD-0003735|dock_bobby27042020.87|mol2|4|dock3
     RDKit          3D

 27 29  0  0  0  0  0  0  0  0999 V2000
    4.9835   -3.3808   26.6671 O   0  0  0  0  0  0  0  0  0  0  0  0
    6.4101   -3.4147   26.7620 C   0  0  0  0  0  0  0  0  0  0  0  0
    7.0315   -2.0183   26.6931 C   0  0  0  0  0  0  0  0  0  0  0  0
    6.9276   -1.3946   25.2982 C   0  0  0  0  0  0  0  0  0  0  0  0
    7.5798   -2.3206   24.2814 C   0  0  0  0  0  0  0  0  0  0  0  0
    6.9487   -3.7097   24.2956 C   0  0  0  0  0  0  0  0  0  0  0  0
    7.0319   -4.3113   25.6982 C   0  0  0  0  0  0  0  0  0  0  0  0
    7.5506   -1.7325   22.9197 N   0  0  0  0  0  0  0  0  0  0  0  0
    6.3334   -0.9614   22.6187 C   0  0  0  0  0  0  0  0  0  0  0  0
    6.1296   -0.7196   21.1412 C   0  0  0  0  0  0  0  0  0  0  0  0
    6.0428    0.5794   20.6476 C   0  0  0  0  0  0  0  0  0  0  0  0
    5.8540    0.8227   19.2971 C   0  0  0  0  0  0  0  0  0  0  0  0
    5.7471   -0.2284   18.4115 C   0  0  0  0  0  0  0  0  0  0  0  0
    5.8284   -1.5317   18.8713 C   0  0  0  0  0  0  0  0  0  0  0  0
    6.0188   -1.7842   20.2310 C   0  0  0  0  0  0  0  0  0  0  0  0
    6.1009   -3.1440   20.6964 C   0  0  0  0  0  0  0  0  0  0  0  0
    6.1555   -4.2123   21.0971 N   0  0  0  0  0  0  0  0  0  0  0  0
    8.7307   -0.9980   22.4111 C   0  0  0  0  0  0  0  0  0  0  0  0
    9.8794   -1.9536   22.1123 C   0  0  0  0  0  0  0  0  0  0  0  0
   11.0953   -1.1899   21.6294 C   0  0  0  0  0  0  0  0  0  0  0  0
   11.4917   -0.2005   22.6279 N   0  0  0  0  0  0  0  0  0  0  0  0
   10.4398    0.7708   22.9079 C   0  0  0  0  0  0  0  0  0  0  0  0
    9.1918    0.0560   23.4152 C   0  0  0  0  0  0  0  0  0  0  0  0
   12.7549    0.0215   23.0616 C   0  0  0  0  0  0  0  0  0  0  0  0
   12.9977    0.8652   23.9155 O   0  0  0  0  0  0  0  0  0  0  0  0
   13.8792   -0.8081   22.4710 C   0  0  0  0  0  0  0  0  0  0  0  0
   13.8324   -2.4822   23.0387 Cl  0  0  0  0  0  0  0  0  0  0  0  0
  1  2  1  0
  2  3  1  0
  3  4  1  0
  4  5  1  0
  5  6  1  0
  6  7  1  0
  5  8  1  0
  8  9  1  0
  9 10  1  0
 10 11  2  0
 11 12  1  0
 12 13  2  0
 13 14  1  0
 14 15  2  0
 15 16  1  0
 16 17  3  0
  8 18  1  0
 18 19  1  0
 19 20  1  0
 20 21  1  0
 21 22  1  0
 22 23  1  0
 21 24  1  0
 24 25  2  0
 24 26  1  0
 26 27  1  0
  7  2  1  0
 15 10  1  0
 23 18  1  0
M  END
