CVD-0002837|dock_bobby27042020.32|mol2|47|dock2
     RDKit          3D

 25 27  0  0  0  0  0  0  0  0999 V2000
   11.5752   -2.0491   21.6383 O   0  0  0  0  0  0  0  0  0  0  0  0
   12.9187   -1.7464   21.9735 C   0  0  0  0  0  0  0  0  0  0  0  0
   13.1004   -1.4278   23.4388 C   0  0  0  0  0  0  0  0  0  0  0  0
   14.0941   -2.0782   24.1659 C   0  0  0  0  0  0  0  0  0  0  0  0
   14.2766   -1.7637   25.4970 C   0  0  0  0  0  0  0  0  0  0  0  0
   13.5510   -0.8551   26.1465 N   0  0  0  0  0  0  0  0  0  0  0  0
   12.5903   -0.2412   25.4508 C   0  0  0  0  0  0  0  0  0  0  0  0
   12.3048   -0.4810   24.1082 C   0  0  0  0  0  0  0  0  0  0  0  0
   11.1800    0.3016   23.5221 C   0  0  0  0  0  0  0  0  0  0  0  0
    9.8381   -0.0317   23.6885 C   0  0  0  0  0  0  0  0  0  0  0  0
    8.8495    0.7442   23.0983 C   0  0  0  0  0  0  0  0  0  0  0  0
    7.3909    0.3931   23.2655 C   0  0  0  0  0  0  0  0  0  0  0  0
    6.8629   -0.4814   22.1309 C   0  0  0  0  0  0  0  0  0  0  0  0
    6.4050    0.3301   20.9475 C   0  0  0  0  0  0  0  0  0  0  0  0
    5.3398    1.1994   20.8657 C   0  0  0  0  0  0  0  0  0  0  0  0
    4.2028    1.6486   22.0643 Cl  0  0  0  0  0  0  0  0  0  0  0  0
    5.2843    1.7036   19.6294 N   0  0  0  0  0  0  0  0  0  0  0  0
    6.2714    1.2222   18.8241 N   0  0  0  0  0  0  0  0  0  0  0  0
    6.9617    0.3852   19.6048 C   0  0  0  0  0  0  0  0  0  0  0  0
    8.1347   -0.3477   19.0709 C   0  0  0  0  0  0  0  0  0  0  0  0
    8.8870   -0.9431   19.9589 O   0  0  0  0  0  0  0  0  0  0  0  0
    8.3628   -0.3791   17.8757 O   0  0  0  0  0  0  0  0  0  0  0  0
    9.2443    1.8473   22.3610 C   0  0  0  0  0  0  0  0  0  0  0  0
   10.5913    2.1236   22.2472 C   0  0  0  0  0  0  0  0  0  0  0  0
   11.5525    1.3804   22.8102 N   0  0  0  0  0  0  0  0  0  0  0  0
  1  2  1  0
  2  3  1  0
  3  4  2  0
  4  5  1  0
  5  6  2  0
  6  7  1  0
  7  8  2  0
  8  9  1  0
  9 10  2  0
 10 11  1  0
 11 12  1  0
 12 13  1  0
 13 14  1  0
 14 15  2  0
 15 16  1  0
 15 17  1  0
 17 18  1  0
 18 19  2  0
 19 20  1  0
 20 21  1  0
 20 22  2  0
 11 23  2  0
 23 24  1  0
 24 25  2  0
  8  3  1  0
 25  9  1  0
 19 14  1  0
M  END
