CVD-0002672|dock_bobby27042020.19|mol2|7|dock1
     RDKit          3D

 20 21  0  0  0  0  0  0  0  0999 V2000
   12.0116   -1.6717   21.6825 C   0  0  0  0  0  0  0  0  0  0  0  0
   11.9345   -2.4554   22.9179 N   0  0  0  0  0  0  0  0  0  0  0  0
   13.1536   -2.2969   23.7181 C   0  0  0  0  0  0  0  0  0  0  0  0
   13.5222   -0.8780   24.0937 C   0  0  0  0  0  0  0  0  0  0  0  0
   13.8917   -0.0872   22.9757 O   0  0  0  0  0  0  0  0  0  0  0  0
   10.7065   -2.2136   23.6835 C   0  0  0  0  0  0  0  0  0  0  0  0
    9.4335   -2.7591   23.0546 C   0  0  0  0  0  0  0  0  0  0  0  0
    8.5150   -1.6986   22.4724 C   0  0  0  0  0  0  0  0  0  0  0  0
    7.2565   -2.2795   21.8590 C   0  0  0  0  0  0  0  0  0  0  0  0
    6.4089   -1.2529   21.2696 N   0  0  0  0  0  0  0  0  0  0  0  0
    6.6889   -0.6659   20.0891 C   0  0  0  0  0  0  0  0  0  0  0  0
    7.7815   -1.0069   19.3901 N   0  0  0  0  0  0  0  0  0  0  0  0
    7.9932   -0.3775   18.2220 C   0  0  0  0  0  0  0  0  0  0  0  0
    7.2853    0.5424   17.6370 N   0  0  0  0  0  0  0  0  0  0  0  0
    6.1650    0.8884   18.3591 N   0  0  0  0  0  0  0  0  0  0  0  0
    5.2212    1.8132   18.0271 C   0  0  0  0  0  0  0  0  0  0  0  0
    5.3449    2.4943   16.8793 F   0  0  0  0  0  0  0  0  0  0  0  0
    4.2746    1.8878   18.9606 C   0  0  0  0  0  0  0  0  0  0  0  0
    4.5904    0.9756   19.9667 C   0  0  0  0  0  0  0  0  0  0  0  0
    5.8032    0.3406   19.5717 C   0  0  0  0  0  0  0  0  0  0  0  0
  1  2  1  0
  2  3  1  0
  3  4  1  0
  4  5  1  0
  2  6  1  0
  6  7  1  0
  7  8  1  0
  8  9  1  0
  9 10  1  0
 10 11  1  0
 11 12  2  0
 12 13  1  0
 13 14  2  0
 14 15  1  0
 15 16  1  0
 16 17  1  0
 16 18  2  0
 18 19  1  0
 19 20  2  0
 20 11  1  0
 20 15  1  0
M  END
