CVD-0002351|dock_bobby27042020.20|mol2|24|dock3
     RDKit          3D

 27 30  0  0  0  0  0  0  0  0999 V2000
   13.4082   -1.7064   20.7225 N   0  0  0  0  0  0  0  0  0  0  0  0
   13.1870   -1.2406   21.8669 C   0  0  0  0  0  0  0  0  0  0  0  0
   14.0537   -1.2402   22.8559 N   0  0  0  0  0  0  0  0  0  0  0  0
   11.8496   -0.6480   22.1583 C   0  0  0  0  0  0  0  0  0  0  0  0
   10.7832   -1.6990   22.4479 C   0  0  0  0  0  0  0  0  0  0  0  0
   11.0921   -2.4124   23.6607 O   0  0  0  0  0  0  0  0  0  0  0  0
    9.9521   -2.4202   24.5330 C   0  0  0  0  0  0  0  0  0  0  0  0
    8.7366   -2.0833   23.6495 C   0  0  0  0  0  0  0  0  0  0  0  0
    8.1202   -3.1613   22.9511 O   0  0  0  0  0  0  0  0  0  0  0  0
    9.4317   -1.0554   22.7087 C   0  0  0  0  0  0  0  0  0  0  0  0
    8.6346   -0.6109   21.5048 C   0  0  0  0  0  0  0  0  0  0  0  0
    8.1775    0.6907   21.3653 C   0  0  0  0  0  0  0  0  0  0  0  0
    7.4531    1.0603   20.2471 C   0  0  0  0  0  0  0  0  0  0  0  0
    7.2052    0.0899   19.2812 C   0  0  0  0  0  0  0  0  0  0  0  0
    7.6359   -1.1818   19.3861 N   0  0  0  0  0  0  0  0  0  0  0  0
    8.3333   -1.4977   20.4839 C   0  0  0  0  0  0  0  0  0  0  0  0
    6.4512    0.4164   18.0867 C   0  0  0  0  0  0  0  0  0  0  0  0
    5.8898    0.6825   17.1281 N   0  0  0  0  0  0  0  0  0  0  0  0
    9.8867   -3.6630   25.2941 N   0  0  0  0  0  0  0  0  0  0  0  0
   10.7830   -4.7008   25.2621 C   0  0  0  0  0  0  0  0  0  0  0  0
   10.4890   -5.6907   26.0701 N   0  0  0  0  0  0  0  0  0  0  0  0
    9.3153   -5.2768   26.6913 C   0  0  0  0  0  0  0  0  0  0  0  0
    8.4710   -5.8226   27.6424 C   0  0  0  0  0  0  0  0  0  0  0  0
    7.3815   -5.1761   28.0659 N   0  0  0  0  0  0  0  0  0  0  0  0
    7.1490   -3.9809   27.5286 C   0  0  0  0  0  0  0  0  0  0  0  0
    7.8605   -3.3233   26.6084 N   0  0  0  0  0  0  0  0  0  0  0  0
    8.9362   -4.0195   26.2216 C   0  0  0  0  0  0  0  0  0  0  0  0
  1  2  1  0
  2  3  2  0
  2  4  1  0
  4  5  1  0
  5  6  1  0
  6  7  1  0
  7  8  1  0
  8  9  1  0
  8 10  1  0
 10 11  1  0
 11 12  2  0
 12 13  1  0
 13 14  2  0
 14 15  1  0
 15 16  2  0
 14 17  1  0
 17 18  3  0
  7 19  1  0
 19 20  1  0
 20 21  2  0
 21 22  1  0
 22 23  2  0
 23 24  1  0
 24 25  2  0
 25 26  1  0
 26 27  2  0
 10  5  1  0
 16 11  1  0
 27 19  1  0
 27 22  1  0
M  END
