CVD-0000677|dock_bobby27042020.12|mol2|16|dock2
     RDKit          3D

 24 26  0  0  0  0  0  0  0  0999 V2000
   13.8102    5.3747   21.4568 C   0  0  0  0  0  0  0  0  0  0  0  0
   13.7141    4.9510   23.1532 S   0  0  0  0  0  0  0  0  0  0  0  0
   15.0056    4.5002   23.5708 O   0  0  0  0  0  0  0  0  0  0  0  0
   13.1162    6.0476   23.8502 O   0  0  0  0  0  0  0  0  0  0  0  0
   12.7145    3.7050   23.2948 N   0  0  0  0  0  0  0  0  0  0  0  0
   13.0886    2.3987   22.7425 C   0  0  0  0  0  0  0  0  0  0  0  0
   12.3532    1.2532   23.4406 C   0  0  0  0  0  0  0  0  0  0  0  0
   10.9079    1.1377   22.9662 C   0  0  0  0  0  0  0  0  0  0  0  0
   10.4615    2.1257   22.4175 O   0  0  0  0  0  0  0  0  0  0  0  0
   10.1307    0.0150   23.1434 N   0  0  0  0  0  0  0  0  0  0  0  0
   10.2732   -0.8698   24.3052 C   0  0  0  0  0  0  0  0  0  0  0  0
    8.9317   -1.0441   24.9709 C   0  0  0  0  0  0  0  0  0  0  0  0
    8.0040   -1.6506   24.0697 O   0  0  0  0  0  0  0  0  0  0  0  0
    8.0205   -1.1401   22.7917 C   0  0  0  0  0  0  0  0  0  0  0  0
    6.9539   -1.5031   21.9827 C   0  0  0  0  0  0  0  0  0  0  0  0
    6.9308   -1.0170   20.6944 C   0  0  0  0  0  0  0  0  0  0  0  0
    7.8731   -0.2232   20.1917 N   0  0  0  0  0  0  0  0  0  0  0  0
    8.8998    0.1238   20.9768 C   0  0  0  0  0  0  0  0  0  0  0  0
    9.0346   -0.3032   22.2958 C   0  0  0  0  0  0  0  0  0  0  0  0
   13.0368   -0.0973   23.3485 C   0  0  0  0  0  0  0  0  0  0  0  0
   12.8835   -1.0556   22.3536 C   0  0  0  0  0  0  0  0  0  0  0  0
   13.6910   -2.1892   22.6139 C   0  0  0  0  0  0  0  0  0  0  0  0
   14.4121   -2.0871   23.7434 C   0  0  0  0  0  0  0  0  0  0  0  0
   14.1426   -0.6047   24.5451 S   0  0  0  0  0  0  0  0  0  0  0  0
  1  2  1  0
  2  3  2  0
  2  4  2  0
  2  5  1  0
  5  6  1  0
  7  6  1  0
  7  8  1  0
  8  9  2  0
  8 10  1  0
 10 11  1  0
 11 12  1  0
 12 13  1  0
 13 14  1  0
 14 15  2  0
 15 16  1  0
 16 17  2  0
 17 18  1  0
 18 19  2  0
  7 20  1  0
 20 21  2  0
 21 22  1  0
 22 23  2  0
 23 24  1  0
 19 10  1  0
 24 20  1  0
 19 14  1  0
M  END
