CVD-0001871|dock_bobby27042020.36|mol2|39|dock2
     RDKit          3D

 29 30  0  0  0  0  0  0  0  0999 V2000
   13.8327   -0.5431   22.2410 C   0  0  0  0  0  0  0  0  0  0  0  0
   12.5925   -0.0134   22.7838 N   0  0  0  0  0  0  0  0  0  0  0  0
   12.6626    0.6824   24.0581 C   0  0  0  0  0  0  0  0  0  0  0  0
   11.3078   -0.2793   22.1915 C   0  0  0  0  0  0  0  0  0  0  0  0
   10.9770   -1.5918   21.8423 C   0  0  0  0  0  0  0  0  0  0  0  0
    9.7667   -1.8852   21.2412 C   0  0  0  0  0  0  0  0  0  0  0  0
    8.8385   -0.8925   20.9674 C   0  0  0  0  0  0  0  0  0  0  0  0
    9.1753    0.4062   21.3279 C   0  0  0  0  0  0  0  0  0  0  0  0
   10.3723    0.7407   21.9560 C   0  0  0  0  0  0  0  0  0  0  0  0
   10.5263    2.1921   22.3337 C   0  0  0  0  0  0  0  0  0  0  0  0
    7.5822   -1.1911   20.3344 N   0  0  0  0  0  0  0  0  0  0  0  0
    6.4981   -1.8054   21.1470 C   0  0  0  0  0  0  0  0  0  0  0  0
    5.9205   -0.7453   22.1042 C   0  0  0  0  0  0  0  0  0  0  0  0
    5.7068   -0.9989   23.2868 O   0  0  0  0  0  0  0  0  0  0  0  0
    5.6804    0.4472   21.5447 N   0  0  0  0  0  0  0  0  0  0  0  0
    5.1308    1.6370   22.2315 C   0  0  0  0  0  0  0  0  0  0  0  0
    6.0034    1.9645   23.4349 C   0  0  0  0  0  0  0  0  0  0  0  0
    5.1264    2.8097   21.2611 C   0  0  0  0  0  0  0  0  0  0  0  0
    3.7096    1.3368   22.6866 C   0  0  0  0  0  0  0  0  0  0  0  0
    6.9365   -3.0779   21.8642 C   0  0  0  0  0  0  0  0  0  0  0  0
    6.6343   -4.3534   21.4051 C   0  0  0  0  0  0  0  0  0  0  0  0
    7.0749   -5.4606   22.1094 C   0  0  0  0  0  0  0  0  0  0  0  0
    7.8058   -5.2623   23.2585 C   0  0  0  0  0  0  0  0  0  0  0  0
    8.1111   -4.0525   23.7289 N   0  0  0  0  0  0  0  0  0  0  0  0
    7.6773   -2.9980   23.0322 C   0  0  0  0  0  0  0  0  0  0  0  0
    7.3398   -0.8159   19.0145 C   0  0  0  0  0  0  0  0  0  0  0  0
    8.2385   -0.3081   18.3451 O   0  0  0  0  0  0  0  0  0  0  0  0
    6.0282   -0.9537   18.3080 C   0  0  0  0  0  0  0  0  0  0  0  0
    5.3454    0.0389   17.7987 C   0  0  0  0  0  0  0  0  0  0  0  0
  1  2  1  0
  2  3  1  0
  2  4  1  0
  4  5  2  0
  5  6  1  0
  6  7  2  0
  7  8  1  0
  8  9  2  0
  9 10  1  0
  7 11  1  0
 11 12  1  0
 12 13  1  0
 13 14  2  0
 13 15  1  0
 15 16  1  0
 16 17  1  0
 16 18  1  0
 16 19  1  0
 12 20  1  0
 20 21  2  0
 21 22  1  0
 22 23  2  0
 23 24  1  0
 24 25  2  0
 11 26  1  0
 26 27  2  0
 26 28  1  0
 28 29  2  0
  9  4  1  0
 25 20  1  0
M  END
