CVD-0000766|dock_bobby27042020.97|mol2|30|dock3
     RDKit          3D

 21 23  0  0  0  0  0  0  0  0999 V2000
   10.4208    1.5155   30.1293 C   0  0  0  0  0  0  0  0  0  0  0  0
    9.4852    1.4110   29.0062 N   0  0  0  0  0  0  0  0  0  0  0  0
    9.7462    0.2376   28.1731 C   0  0  0  0  0  0  0  0  0  0  0  0
    8.7025    0.0559   27.0892 C   0  0  0  0  0  0  0  0  0  0  0  0
    9.0283   -0.9807   26.1082 N   0  0  0  0  0  0  0  0  0  0  0  0
    9.5030   -0.4572   24.8093 C   0  0  0  0  0  0  0  0  0  0  0  0
   10.2794   -1.5771   24.0840 C   0  0  0  0  0  0  0  0  0  0  0  0
    9.4428   -2.8534   23.9733 C   0  0  0  0  0  0  0  0  0  0  0  0
    9.0295   -3.2491   25.3697 C   0  0  0  0  0  0  0  0  0  0  0  0
    8.8647   -4.5823   25.6221 F   0  0  0  0  0  0  0  0  0  0  0  0
    8.8427   -2.3096   26.3020 C   0  0  0  0  0  0  0  0  0  0  0  0
   10.8433   -1.1371   22.7442 C   0  0  0  0  0  0  0  0  0  0  0  0
   10.4137   -1.7322   21.4387 C   0  0  0  0  0  0  0  0  0  0  0  0
   11.7675   -2.0524   21.9943 C   0  0  0  0  0  0  0  0  0  0  0  0
   11.1947    0.3469   22.7065 C   0  0  0  0  0  0  0  0  0  0  0  0
   12.4841    0.7828   22.9874 C   0  0  0  0  0  0  0  0  0  0  0  0
   12.8091    2.1272   22.9563 C   0  0  0  0  0  0  0  0  0  0  0  0
   11.8329    3.0461   22.6409 C   0  0  0  0  0  0  0  0  0  0  0  0
   12.2335    4.7404   22.5993 Cl  0  0  0  0  0  0  0  0  0  0  0  0
   10.5451    2.6480   22.3578 C   0  0  0  0  0  0  0  0  0  0  0  0
   10.2336    1.3004   22.3925 C   0  0  0  0  0  0  0  0  0  0  0  0
  1  2  1  0
  2  3  1  0
  3  4  1  0
  4  5  1  0
  5  6  1  0
  6  7  1  0
  7  8  1  0
  8  9  1  0
  9 10  1  0
  9 11  2  0
  7 12  1  0
 12 13  1  0
 13 14  1  0
 12 15  1  0
 15 16  2  0
 16 17  1  0
 17 18  2  0
 18 19  1  0
 18 20  1  0
 20 21  2  0
 11  5  1  0
 14 12  1  0
 21 15  1  0
M  END
