CVD-0000778|dock_bobby27042020.26|mol2|16|dock3
     RDKit          3D

 22 24  0  0  0  0  0  0  0  0999 V2000
    7.3565   -5.5995   22.0868 C   0  0  0  0  0  0  0  0  0  0  0  0
    7.4669   -5.0927   23.4155 O   0  0  0  0  0  0  0  0  0  0  0  0
    7.9066   -3.8108   23.6335 C   0  0  0  0  0  0  0  0  0  0  0  0
    7.6619   -3.2462   24.8737 C   0  0  0  0  0  0  0  0  0  0  0  0
    8.0883   -1.9554   25.1349 C   0  0  0  0  0  0  0  0  0  0  0  0
    8.7560   -1.2336   24.1614 C   0  0  0  0  0  0  0  0  0  0  0  0
    9.0067   -1.7912   22.9163 C   0  0  0  0  0  0  0  0  0  0  0  0
    8.5773   -3.0847   22.6570 C   0  0  0  0  0  0  0  0  0  0  0  0
    9.7394   -0.9926   21.8467 C   0  0  0  0  0  0  0  0  0  0  0  0
   11.1637   -1.4327   21.7820 C   0  0  0  0  0  0  0  0  0  0  0  0
   11.8897   -1.0792   23.0270 N   0  0  0  0  0  0  0  0  0  0  0  0
   11.7472    0.3006   23.5326 C   0  0  0  0  0  0  0  0  0  0  0  0
   10.6301    1.1206   22.8804 C   0  0  0  0  0  0  0  0  0  0  0  0
   10.5578    2.4918   23.1040 C   0  0  0  0  0  0  0  0  0  0  0  0
    9.5434    3.2524   22.5517 C   0  0  0  0  0  0  0  0  0  0  0  0
    8.5886    2.6451   21.7674 C   0  0  0  0  0  0  0  0  0  0  0  0
    8.6548    1.2817   21.5411 C   0  0  0  0  0  0  0  0  0  0  0  0
    9.6696    0.4940   22.0882 C   0  0  0  0  0  0  0  0  0  0  0  0
   12.6224   -1.9833   23.7198 C   0  0  0  0  0  0  0  0  0  0  0  0
   12.7278   -3.1438   23.3430 O   0  0  0  0  0  0  0  0  0  0  0  0
   13.3290   -1.5352   24.9873 C   0  0  0  0  0  0  0  0  0  0  0  0
   14.4732   -2.7586   25.5554 Cl  0  0  0  0  0  0  0  0  0  0  0  0
  1  2  1  0
  2  3  1  0
  3  4  2  0
  4  5  1  0
  5  6  2  0
  6  7  1  0
  7  8  2  0
  9  7  1  0
  9 10  1  0
 10 11  1  0
 11 12  1  0
 12 13  1  0
 13 14  2  0
 14 15  1  0
 15 16  2  0
 16 17  1  0
 17 18  2  0
 11 19  1  0
 19 20  2  0
 19 21  1  0
 21 22  1  0
  8  3  1  0
 18  9  1  0
 18 13  1  0
M  END
