CVD-0002922|dock_bobby27042020.18|mol2|16|dock1
     RDKit          3D

 27 29  0  0  0  0  0  0  0  0999 V2000
    7.5664   -3.2852   22.5971 C   0  0  0  0  0  0  0  0  0  0  0  0
    7.0190   -2.1525   21.7791 C   0  0  0  0  0  0  0  0  0  0  0  0
    5.8193   -1.8995   21.7745 O   0  0  0  0  0  0  0  0  0  0  0  0
    7.8933   -1.4198   21.0502 N   0  0  0  0  0  0  0  0  0  0  0  0
    9.3163   -1.7192   21.0272 C   0  0  0  0  0  0  0  0  0  0  0  0
   10.0390   -1.0879   22.1747 C   0  0  0  0  0  0  0  0  0  0  0  0
   11.3723   -0.8860   22.3710 C   0  0  0  0  0  0  0  0  0  0  0  0
   11.4655   -0.2862   23.5690 N   0  0  0  0  0  0  0  0  0  0  0  0
   12.6558    0.1815   24.2644 C   0  0  0  0  0  0  0  0  0  0  0  0
   13.4026    1.2209   23.4463 C   0  0  0  0  0  0  0  0  0  0  0  0
   14.3908    0.9076   22.7908 O   0  0  0  0  0  0  0  0  0  0  0  0
   12.8711    2.4639   23.5375 N   0  0  0  0  0  0  0  0  0  0  0  0
   13.2668    3.6891   22.9467 C   0  0  0  0  0  0  0  0  0  0  0  0
   14.2921    3.8032   22.0136 C   0  0  0  0  0  0  0  0  0  0  0  0
   14.6003    5.0499   21.4966 C   0  0  0  0  0  0  0  0  0  0  0  0
   13.8802    6.1420   21.9231 C   0  0  0  0  0  0  0  0  0  0  0  0
   12.8930    6.0633   22.8153 N   0  0  0  0  0  0  0  0  0  0  0  0
   12.6032    4.8559   23.3084 C   0  0  0  0  0  0  0  0  0  0  0  0
   10.2463   -0.0962   24.1004 N   0  0  0  0  0  0  0  0  0  0  0  0
    9.3751   -0.5973   23.2530 N   0  0  0  0  0  0  0  0  0  0  0  0
    7.4531   -0.2720   20.2382 C   0  0  0  0  0  0  0  0  0  0  0  0
    6.6202    0.7562   21.0158 C   0  0  0  0  0  0  0  0  0  0  0  0
    5.9593    1.6616   19.9878 C   0  0  0  0  0  0  0  0  0  0  0  0
    5.5691    0.6117   18.5852 S   0  0  0  0  0  0  0  0  0  0  0  0
    6.0290    1.2395   17.3761 O   0  0  0  0  0  0  0  0  0  0  0  0
    4.1961    0.1882   18.6430 O   0  0  0  0  0  0  0  0  0  0  0  0
    6.6461   -0.7492   19.0496 C   0  0  0  0  0  0  0  0  0  0  0  0
  1  2  1  0
  2  3  2  0
  2  4  1  0
  4  5  1  0
  5  6  1  0
  6  7  2  0
  7  8  1  0
  8  9  1  0
  9 10  1  0
 10 11  2  0
 10 12  1  0
 12 13  1  0
 13 14  2  0
 14 15  1  0
 15 16  2  0
 16 17  1  0
 17 18  2  0
  8 19  1  0
 19 20  2  0
  4 21  1  0
 21 22  1  0
 22 23  1  0
 23 24  1  0
 24 25  2  0
 24 26  2  0
 24 27  1  0
 20  6  1  0
 27 21  1  0
 18 13  1  0
M  END
