CVD-0003078|dock_bobby27042020.32|mol2|11|dock1
     RDKit          3D

 22 24  0  0  0  0  0  0  0  0999 V2000
   11.5224   -1.6651   21.2836 N   0  0  0  0  0  0  0  0  0  0  0  0
   11.0960   -2.2922   22.3680 C   0  0  0  0  0  0  0  0  0  0  0  0
   10.2681   -3.2050   22.3278 O   0  0  0  0  0  0  0  0  0  0  0  0
   11.6889   -1.8326   23.6841 C   0  0  0  0  0  0  0  0  0  0  0  0
   13.2039   -1.8106   23.7833 C   0  0  0  0  0  0  0  0  0  0  0  0
   13.4469   -1.1523   25.1064 C   0  0  0  0  0  0  0  0  0  0  0  0
   12.2968   -0.1361   25.3152 C   0  0  0  0  0  0  0  0  0  0  0  0
   11.2916   -0.4019   24.1570 C   0  0  0  0  0  0  0  0  0  0  0  0
   11.3147    0.6097   23.0733 N   0  0  0  0  0  0  0  0  0  0  0  0
   12.5413    1.4301   22.9498 C   0  0  0  0  0  0  0  0  0  0  0  0
   12.3141    2.7769   23.5905 C   0  0  0  0  0  0  0  0  0  0  0  0
   11.1723    3.4881   22.9136 C   0  0  0  0  0  0  0  0  0  0  0  0
   10.0357    2.5898   22.4771 C   0  0  0  0  0  0  0  0  0  0  0  0
    8.8866    3.1543   21.9324 C   0  0  0  0  0  0  0  0  0  0  0  0
    7.8485    2.3738   21.4646 C   0  0  0  0  0  0  0  0  0  0  0  0
    7.9618    0.9964   21.5433 C   0  0  0  0  0  0  0  0  0  0  0  0
    9.0914    0.3959   22.0799 C   0  0  0  0  0  0  0  0  0  0  0  0
   10.1292    1.2002   22.5471 C   0  0  0  0  0  0  0  0  0  0  0  0
    6.6304   -0.0232   20.9864 S   0  0  0  0  0  0  0  0  0  0  0  0
    7.0355   -0.6598   19.5743 N   0  0  0  0  0  0  0  0  0  0  0  0
    6.5016   -1.1043   21.9169 O   0  0  0  0  0  0  0  0  0  0  0  0
    5.5040    0.8311   20.7581 O   0  0  0  0  0  0  0  0  0  0  0  0
  1  2  1  0
  2  3  2  0
  4  2  1  0
  4  5  1  0
  5  6  1  0
  6  7  1  0
  7  8  1  0
  8  9  1  0
  9 10  1  0
 10 11  1  0
 11 12  1  0
 12 13  1  0
 13 14  2  0
 14 15  1  0
 15 16  2  0
 16 17  1  0
 17 18  2  0
 16 19  1  0
 19 20  1  0
 19 21  2  0
 19 22  2  0
  8  4  1  0
 18  9  1  0
 18 13  1  0
M  END
