CVD-0003945|dock_bobby27042020.43|mol2|34|dock3
     RDKit          3D

 19 20  0  0  0  0  0  0  0  0999 V2000
    5.8409    1.4544   17.0620 Cl  0  0  0  0  0  0  0  0  0  0  0  0
    6.2023    1.0774   18.7232 C   0  0  0  0  0  0  0  0  0  0  0  0
    7.3779    0.4199   19.0222 C   0  0  0  0  0  0  0  0  0  0  0  0
    7.6813    0.1115   20.3452 C   0  0  0  0  0  0  0  0  0  0  0  0
    8.9035   -0.5648   20.5911 N   0  0  0  0  0  0  0  0  0  0  0  0
    9.6259   -0.7294   21.7512 C   0  0  0  0  0  0  0  0  0  0  0  0
    9.2981   -0.2795   22.8441 O   0  0  0  0  0  0  0  0  0  0  0  0
   10.7670   -1.4656   21.5285 N   0  0  0  0  0  0  0  0  0  0  0  0
   11.7900   -1.8724   22.4218 C   0  0  0  0  0  0  0  0  0  0  0  0
   11.5948   -2.1361   23.7744 C   0  0  0  0  0  0  0  0  0  0  0  0
   12.6723   -2.5276   24.5505 C   0  0  0  0  0  0  0  0  0  0  0  0
   13.9091   -2.6450   23.9598 C   0  0  0  0  0  0  0  0  0  0  0  0
   14.1271   -2.3996   22.6681 N   0  0  0  0  0  0  0  0  0  0  0  0
   13.0808   -2.0223   21.9278 C   0  0  0  0  0  0  0  0  0  0  0  0
    6.7851    0.4754   21.3498 C   0  0  0  0  0  0  0  0  0  0  0  0
    5.6027    1.1390   21.0293 C   0  0  0  0  0  0  0  0  0  0  0  0
    5.3067    1.4437   19.7043 C   0  0  0  0  0  0  0  0  0  0  0  0
    4.6819    1.5114   22.0749 C   0  0  0  0  0  0  0  0  0  0  0  0
    3.9600    1.8384   22.8975 N   0  0  0  0  0  0  0  0  0  0  0  0
  1  2  1  0
  2  3  2  0
  3  4  1  0
  4  5  1  0
  5  6  1  0
  6  7  2  0
  6  8  1  0
  8  9  1  0
  9 10  2  0
 10 11  1  0
 11 12  2  0
 12 13  1  0
 13 14  2  0
  4 15  2  0
 15 16  1  0
 16 17  2  0
 16 18  1  0
 18 19  3  0
 17  2  1  0
 14  9  1  0
M  END
