CVD-0000963|dock_bobby27042020.97|mol2|1|dock3
     RDKit          3D

 39 44  0  0  0  0  0  0  0  0999 V2000
    5.2330    1.5593   23.2982 C   0  0  0  0  0  0  0  0  0  0  0  0
    6.5347    2.2662   23.0506 C   0  0  0  0  0  0  0  0  0  0  0  0
    6.4989    3.3457   22.4784 O   0  0  0  0  0  0  0  0  0  0  0  0
    7.7071    1.6782   23.4525 N   0  0  0  0  0  0  0  0  0  0  0  0
    9.0066    2.3275   23.6388 C   0  0  0  0  0  0  0  0  0  0  0  0
    9.8774    1.7413   22.6218 C   0  0  0  0  0  0  0  0  0  0  0  0
   11.1014    2.6309   22.7664 C   0  0  0  0  0  0  0  0  0  0  0  0
   10.4680    3.9879   22.9044 C   0  0  0  0  0  0  0  0  0  0  0  0
   10.9909    5.0622   22.6391 O   0  0  0  0  0  0  0  0  0  0  0  0
    9.2166    3.7733   23.4346 N   0  0  0  0  0  0  0  0  0  0  0  0
    8.3509    4.8140   23.9292 C   0  0  0  0  0  0  0  0  0  0  0  0
    7.8760    4.6828   25.2261 C   0  0  0  0  0  0  0  0  0  0  0  0
    7.1159    5.6004   25.8305 N   0  0  0  0  0  0  0  0  0  0  0  0
    6.8196    6.6968   25.1359 C   0  0  0  0  0  0  0  0  0  0  0  0
    7.2093    6.8952   23.8283 C   0  0  0  0  0  0  0  0  0  0  0  0
    7.9651    5.9258   23.1747 C   0  0  0  0  0  0  0  0  0  0  0  0
    8.2868    6.1264   21.7165 C   0  0  0  0  0  0  0  0  0  0  0  0
   10.0286    0.2795   22.8150 N   0  0  0  0  0  0  0  0  0  0  0  0
    9.2209   -0.2144   23.9393 C   0  0  0  0  0  0  0  0  0  0  0  0
    7.7749    0.2127   23.7156 C   0  0  0  0  0  0  0  0  0  0  0  0
    7.2731   -0.6261   22.5554 C   0  0  0  0  0  0  0  0  0  0  0  0
    7.1682   -0.0849   21.2845 C   0  0  0  0  0  0  0  0  0  0  0  0
    6.7079   -0.8582   20.2350 C   0  0  0  0  0  0  0  0  0  0  0  0
    6.3494   -2.1795   20.4423 C   0  0  0  0  0  0  0  0  0  0  0  0
    6.4433   -2.7473   21.7107 C   0  0  0  0  0  0  0  0  0  0  0  0
    6.9061   -1.9485   22.7557 C   0  0  0  0  0  0  0  0  0  0  0  0
    6.0657   -4.1233   21.9090 N   0  0  0  0  0  0  0  0  0  0  0  0
    6.6181   -5.1948   21.0766 C   0  0  0  0  0  0  0  0  0  0  0  0
    6.0041   -6.4565   21.6316 C   0  0  0  0  0  0  0  0  0  0  0  0
    4.9624   -6.0389   22.6385 C   0  0  0  0  0  0  0  0  0  0  0  0
    5.1059   -4.5544   22.7930 C   0  0  0  0  0  0  0  0  0  0  0  0
    4.5012   -3.8053   23.5484 O   0  0  0  0  0  0  0  0  0  0  0  0
   11.2051   -0.4907   22.3915 C   0  0  0  0  0  0  0  0  0  0  0  0
   10.8850   -1.5429   21.5369 O   0  0  0  0  0  0  0  0  0  0  0  0
   11.9875   -1.0087   23.5569 C   0  0  0  0  0  0  0  0  0  0  0  0
   12.0474   -2.3262   23.9965 C   0  0  0  0  0  0  0  0  0  0  0  0
   12.8878   -2.4486   25.1293 C   0  0  0  0  0  0  0  0  0  0  0  0
   13.4321   -1.2846   25.5219 C   0  0  0  0  0  0  0  0  0  0  0  0
   12.9458    0.0155   24.5292 S   0  0  0  0  0  0  0  0  0  0  0  0
  1  2  1  0
  2  3  2  0
  2  4  1  0
  4  5  1  0
  5  6  1  0
  6  7  1  0
  7  8  1  0
  8  9  2  0
  8 10  1  0
 10 11  1  0
 11 12  2  0
 12 13  1  0
 13 14  2  0
 14 15  1  0
 15 16  2  0
 16 17  1  0
  6 18  1  0
 18 19  1  0
 19 20  1  0
 20 21  1  0
 21 22  2  0
 22 23  1  0
 23 24  2  0
 24 25  1  0
 25 26  2  0
 25 27  1  0
 27 28  1  0
 28 29  1  0
 29 30  1  0
 30 31  1  0
 31 32  2  0
 18 33  1  0
 33 34  1  0
 33 35  1  0
 35 36  2  0
 36 37  1  0
 37 38  2  0
 38 39  1  0
 20  4  1  0
 26 21  1  0
 31 27  1  0
 39 35  1  0
 10  5  1  0
 16 11  1  0
M  END
