CVD-0000830|dock_bobby27042020.54|mol2|35|dock3
     RDKit          3D

 29 31  0  0  0  0  0  0  0  0999 V2000
    6.4629   -6.8632   28.8487 Cl  0  0  0  0  0  0  0  0  0  0  0  0
    7.6049   -5.9667   27.8389 C   0  0  0  0  0  0  0  0  0  0  0  0
    7.2561   -6.0929   26.3682 C   0  0  0  0  0  0  0  0  0  0  0  0
    6.2661   -6.7134   26.0015 O   0  0  0  0  0  0  0  0  0  0  0  0
    8.0777   -5.4872   25.4856 N   0  0  0  0  0  0  0  0  0  0  0  0
    7.8490   -5.5153   24.0393 C   0  0  0  0  0  0  0  0  0  0  0  0
    7.8308   -4.1056   23.4782 C   0  0  0  0  0  0  0  0  0  0  0  0
    9.0934   -3.4238   23.7781 N   0  0  0  0  0  0  0  0  0  0  0  0
    9.0968   -2.0709   23.2020 C   0  0  0  0  0  0  0  0  0  0  0  0
   10.4813   -1.4812   23.0677 C   0  0  0  0  0  0  0  0  0  0  0  0
   11.5947   -2.2856   23.2910 C   0  0  0  0  0  0  0  0  0  0  0  0
   12.8849   -1.7753   23.1734 C   0  0  0  0  0  0  0  0  0  0  0  0
   13.0634   -0.4416   22.8274 C   0  0  0  0  0  0  0  0  0  0  0  0
   11.9592    0.3597   22.6041 C   0  0  0  0  0  0  0  0  0  0  0  0
   10.6633   -0.1374   22.7169 C   0  0  0  0  0  0  0  0  0  0  0  0
    9.4857    0.7722   22.4675 C   0  0  0  0  0  0  0  0  0  0  0  0
    8.7430    0.4367   21.2616 N   0  0  0  0  0  0  0  0  0  0  0  0
    7.5251    0.9665   21.0462 C   0  0  0  0  0  0  0  0  0  0  0  0
    7.0456    1.7755   21.8313 O   0  0  0  0  0  0  0  0  0  0  0  0
    6.8236    0.5929   19.9382 N   0  0  0  0  0  0  0  0  0  0  0  0
    5.7172    1.3868   19.3911 C   0  0  0  0  0  0  0  0  0  0  0  0
    4.5426    0.4841   19.0734 C   0  0  0  0  0  0  0  0  0  0  0  0
    4.9043   -0.5652   18.1984 O   0  0  0  0  0  0  0  0  0  0  0  0
    5.9311   -1.3643   18.7867 C   0  0  0  0  0  0  0  0  0  0  0  0
    7.1674   -0.5427   19.0770 C   0  0  0  0  0  0  0  0  0  0  0  0
   14.0231   -2.6287   23.4100 C   0  0  0  0  0  0  0  0  0  0  0  0
   14.9055   -3.3312   23.5906 N   0  0  0  0  0  0  0  0  0  0  0  0
    9.2700   -3.3633   25.2267 C   0  0  0  0  0  0  0  0  0  0  0  0
    9.3046   -4.7588   25.8230 C   0  0  0  0  0  0  0  0  0  0  0  0
  1  2  1  0
  2  3  1  0
  3  4  2  0
  3  5  1  0
  5  6  1  0
  6  7  1  0
  7  8  1  0
  8  9  1  0
  9 10  1  0
 10 11  2  0
 11 12  1  0
 12 13  2  0
 13 14  1  0
 14 15  2  0
 15 16  1  0
 16 17  1  0
 17 18  1  0
 18 19  2  0
 18 20  1  0
 20 21  1  0
 21 22  1  0
 22 23  1  0
 23 24  1  0
 24 25  1  0
 12 26  1  0
 26 27  3  0
  8 28  1  0
 28 29  1  0
 29  5  1  0
 15 10  1  0
 25 20  1  0
M  END
