CVD-0003055|dock_bobby27042020.89|mol2|14|dock2
     RDKit          3D

 35 38  0  0  0  0  0  0  0  0999 V2000
    5.6507    0.4606   18.8393 Cl  0  0  0  0  0  0  0  0  0  0  0  0
    5.9273   -1.1403   18.1405 C   0  0  0  0  0  0  0  0  0  0  0  0
    6.0754   -2.2067   19.2082 C   0  0  0  0  0  0  0  0  0  0  0  0
    5.1986   -3.0383   19.4059 O   0  0  0  0  0  0  0  0  0  0  0  0
    7.2209   -2.1933   19.9203 N   0  0  0  0  0  0  0  0  0  0  0  0
    8.3228   -1.2375   19.7717 C   0  0  0  0  0  0  0  0  0  0  0  0
    8.7731   -0.7314   21.1174 C   0  0  0  0  0  0  0  0  0  0  0  0
    9.1643   -1.8484   21.9928 N   0  0  0  0  0  0  0  0  0  0  0  0
    7.9960   -2.7133   22.1630 C   0  0  0  0  0  0  0  0  0  0  0  0
    7.5453   -3.2830   20.8390 C   0  0  0  0  0  0  0  0  0  0  0  0
    9.6506   -1.3604   23.2928 C   0  0  0  0  0  0  0  0  0  0  0  0
    9.4976   -2.3491   24.4311 C   0  0  0  0  0  0  0  0  0  0  0  0
    8.6023   -2.3209   25.4927 C   0  0  0  0  0  0  0  0  0  0  0  0
    8.7348   -3.3970   26.3666 C   0  0  0  0  0  0  0  0  0  0  0  0
    9.7150   -4.2371   25.9852 C   0  0  0  0  0  0  0  0  0  0  0  0
   10.2501   -5.8096   26.8477 Br  0  0  0  0  0  0  0  0  0  0  0  0
   10.5101   -3.7445   24.5470 S   0  0  0  0  0  0  0  0  0  0  0  0
   11.0892   -0.8727   23.1571 C   0  0  0  0  0  0  0  0  0  0  0  0
   11.8805   -1.3000   22.0904 C   0  0  0  0  0  0  0  0  0  0  0  0
   13.2016   -0.8811   21.9579 C   0  0  0  0  0  0  0  0  0  0  0  0
   13.7413   -0.0167   22.9016 C   0  0  0  0  0  0  0  0  0  0  0  0
   12.9586    0.4173   23.9548 C   0  0  0  0  0  0  0  0  0  0  0  0
   11.6356    0.0070   24.1003 C   0  0  0  0  0  0  0  0  0  0  0  0
   10.8164    0.5192   25.2600 C   0  0  0  0  0  0  0  0  0  0  0  0
    9.8348    1.5233   24.8761 N   0  0  0  0  0  0  0  0  0  0  0  0
   10.2400    2.7288   24.4364 C   0  0  0  0  0  0  0  0  0  0  0  0
   11.4383    2.9655   24.3408 O   0  0  0  0  0  0  0  0  0  0  0  0
    9.3294    3.6914   24.0975 N   0  0  0  0  0  0  0  0  0  0  0  0
    7.9293    3.3866   23.7803 C   0  0  0  0  0  0  0  0  0  0  0  0
    7.5117    4.1268   22.5259 C   0  0  0  0  0  0  0  0  0  0  0  0
    7.7215    5.5198   22.6402 O   0  0  0  0  0  0  0  0  0  0  0  0
    9.1034    5.7914   22.8758 C   0  0  0  0  0  0  0  0  0  0  0  0
    9.5820    5.1346   24.1516 C   0  0  0  0  0  0  0  0  0  0  0  0
   13.9981   -1.3435   20.8483 C   0  0  0  0  0  0  0  0  0  0  0  0
   14.6032   -1.7283   19.9591 N   0  0  0  0  0  0  0  0  0  0  0  0
  1  2  1  0
  2  3  1  0
  3  4  2  0
  3  5  1  0
  5  6  1  0
  6  7  1  0
  7  8  1  0
  8  9  1  0
  9 10  1  0
  8 11  1  0
 11 12  1  0
 12 13  2  0
 13 14  1  0
 14 15  2  0
 15 16  1  0
 15 17  1  0
 11 18  1  0
 18 19  2  0
 19 20  1  0
 20 21  2  0
 21 22  1  0
 22 23  2  0
 23 24  1  0
 24 25  1  0
 25 26  1  0
 26 27  2  0
 26 28  1  0
 28 29  1  0
 29 30  1  0
 30 31  1  0
 31 32  1  0
 32 33  1  0
 20 34  1  0
 34 35  3  0
 10  5  1  0
 17 12  1  0
 23 18  1  0
 33 28  1  0
M  END
