CVD-0001226|dock_bobby27042020.10|mol2|23|dock2
     RDKit          3D

 21 22  0  0  0  0  0  0  0  0999 V2000
    4.5152    1.4677   20.8884 C   0  0  0  0  0  0  0  0  0  0  0  0
    5.4067    1.2511   19.6926 C   0  0  0  0  0  0  0  0  0  0  0  0
    4.9934    1.7452   18.4589 C   0  0  0  0  0  0  0  0  0  0  0  0
    5.7854    1.5602   17.3481 C   0  0  0  0  0  0  0  0  0  0  0  0
    6.9507    0.9207   17.3858 N   0  0  0  0  0  0  0  0  0  0  0  0
    7.3577    0.4401   18.5649 C   0  0  0  0  0  0  0  0  0  0  0  0
    6.6377    0.5694   19.7529 C   0  0  0  0  0  0  0  0  0  0  0  0
    7.0684    0.0590   21.0096 N   0  0  0  0  0  0  0  0  0  0  0  0
    8.3148   -0.0519   21.5319 C   0  0  0  0  0  0  0  0  0  0  0  0
    9.3587    0.2868   20.9849 O   0  0  0  0  0  0  0  0  0  0  0  0
    8.3305   -0.6503   22.9245 C   0  0  0  0  0  0  0  0  0  0  0  0
    9.7345   -0.8821   23.4356 C   0  0  0  0  0  0  0  0  0  0  0  0
   10.5759   -1.7888   22.8099 C   0  0  0  0  0  0  0  0  0  0  0  0
   11.8631   -2.0061   23.2682 C   0  0  0  0  0  0  0  0  0  0  0  0
   12.3183   -1.3048   24.3724 C   0  0  0  0  0  0  0  0  0  0  0  0
   11.4954   -0.3915   25.0106 C   0  0  0  0  0  0  0  0  0  0  0  0
   10.2115   -0.1886   24.5369 C   0  0  0  0  0  0  0  0  0  0  0  0
   13.9623   -1.5690   24.9642 S   0  0  0  0  0  0  0  0  0  0  0  0
   14.0181   -2.9965   25.6868 N   0  0  0  0  0  0  0  0  0  0  0  0
   14.2213   -0.5775   25.9647 O   0  0  0  0  0  0  0  0  0  0  0  0
   14.8222   -1.6392   23.8210 O   0  0  0  0  0  0  0  0  0  0  0  0
  1  2  1  0
  2  3  2  0
  3  4  1  0
  4  5  2  0
  5  6  1  0
  6  7  2  0
  7  8  1  0
  8  9  1  0
  9 10  2  0
  9 11  1  0
 11 12  1  0
 12 13  2  0
 13 14  1  0
 14 15  2  0
 15 16  1  0
 16 17  2  0
 15 18  1  0
 18 19  1  0
 18 20  2  0
 18 21  2  0
  7  2  1  0
 17 12  1  0
M  END
