CVD-0001400|dock_bobby27042020.38|mol2|17|dock3
     RDKit          3D

 23 24  0  0  0  0  0  0  0  0999 V2000
   14.6618   -0.8301   20.3968 F   0  0  0  0  0  0  0  0  0  0  0  0
   13.8145   -1.7322   20.8788 C   0  0  0  0  0  0  0  0  0  0  0  0
   13.0740   -2.1245   19.8484 F   0  0  0  0  0  0  0  0  0  0  0  0
   14.5535   -2.7823   21.2179 F   0  0  0  0  0  0  0  0  0  0  0  0
   12.9955   -1.2088   22.0150 C   0  0  0  0  0  0  0  0  0  0  0  0
   13.4339   -0.1231   22.7630 C   0  0  0  0  0  0  0  0  0  0  0  0
   12.6779    0.3680   23.8133 C   0  0  0  0  0  0  0  0  0  0  0  0
   11.4669   -0.2215   24.1327 C   0  0  0  0  0  0  0  0  0  0  0  0
   11.0295   -1.3046   23.3878 C   0  0  0  0  0  0  0  0  0  0  0  0
   11.7790   -1.8024   22.3322 C   0  0  0  0  0  0  0  0  0  0  0  0
    9.4893   -2.0613   23.7763 S   0  0  0  0  0  0  0  0  0  0  0  0
    9.5994   -3.4597   23.4989 O   0  0  0  0  0  0  0  0  0  0  0  0
    9.0951   -1.6221   25.0788 O   0  0  0  0  0  0  0  0  0  0  0  0
    8.3839   -1.4691   22.7346 N   0  0  0  0  0  0  0  0  0  0  0  0
    7.5413   -2.4422   22.0251 C   0  0  0  0  0  0  0  0  0  0  0  0
    6.2981   -1.7572   21.5515 C   0  0  0  0  0  0  0  0  0  0  0  0
    6.6294   -0.6016   20.7341 N   0  0  0  0  0  0  0  0  0  0  0  0
    7.5378    0.3493   21.3824 C   0  0  0  0  0  0  0  0  0  0  0  0
    8.7744   -0.3492   21.8655 C   0  0  0  0  0  0  0  0  0  0  0  0
    6.0843   -0.4565   19.5089 C   0  0  0  0  0  0  0  0  0  0  0  0
    5.3126   -1.2833   19.0394 O   0  0  0  0  0  0  0  0  0  0  0  0
    6.4708    0.7913   18.7392 C   0  0  0  0  0  0  0  0  0  0  0  0
    5.5302    0.9256   17.2477 Cl  0  0  0  0  0  0  0  0  0  0  0  0
  1  2  1  0
  2  3  1  0
  2  4  1  0
  2  5  1  0
  5  6  2  0
  6  7  1  0
  7  8  2  0
  8  9  1  0
  9 10  2  0
  9 11  1  0
 11 12  2  0
 11 13  2  0
 11 14  1  0
 14 15  1  0
 15 16  1  0
 16 17  1  0
 17 18  1  0
 18 19  1  0
 17 20  1  0
 20 21  2  0
 20 22  1  0
 22 23  1  0
 10  5  1  0
 19 14  1  0
M  END
