CVD-0003994|dock_bobby27042020.14|mol2|42|dock1
     RDKit          3D

 19 18  0  0  0  0  0  0  0  0999 V2000
   14.8192   -2.3971   25.8428 O   0  0  0  0  0  0  0  0  0  0  0  0
   14.6165   -1.8332   24.5148 O   0  0  0  0  0  0  0  0  0  0  0  0
   13.3256   -1.9890   24.1346 C   0  0  0  0  0  0  0  0  0  0  0  0
   12.4692   -2.4848   24.8303 O   0  0  0  0  0  0  0  0  0  0  0  0
   13.0579   -1.4671   22.7181 C   0  0  0  0  0  0  0  0  0  0  0  0
   13.9733   -1.3047   21.9206 O   0  0  0  0  0  0  0  0  0  0  0  0
   11.6201   -1.1710   22.3741 C   0  0  0  0  0  0  0  0  0  0  0  0
   11.0621    0.0484   23.0940 C   0  0  0  0  0  0  0  0  0  0  0  0
    9.5803    0.2534   22.8126 C   0  0  0  0  0  0  0  0  0  0  0  0
    9.2484    0.5406   21.3713 C   0  0  0  0  0  0  0  0  0  0  0  0
    9.5734    1.5811   20.8406 O   0  0  0  0  0  0  0  0  0  0  0  0
    8.4756   -0.5127   20.6052 C   0  0  0  0  0  0  0  0  0  0  0  0
    7.7897   -0.0588   19.3255 C   0  0  0  0  0  0  0  0  0  0  0  0
    8.4093   -0.0233   18.2695 O   0  0  0  0  0  0  0  0  0  0  0  0
    6.3627    0.3393   19.3730 C   0  0  0  0  0  0  0  0  0  0  0  0
    5.7312    0.2194   20.4186 O   0  0  0  0  0  0  0  0  0  0  0  0
    5.6396    0.9061   18.1322 C   0  0  0  0  0  0  0  0  0  0  0  0
    4.5165    1.5041   18.4317 O   0  0  0  0  0  0  0  0  0  0  0  0
    6.0648    0.8095   16.9956 O   0  0  0  0  0  0  0  0  0  0  0  0
  1  2  1  0
  2  3  1  0
  3  4  2  0
  3  5  1  0
  5  6  2  0
  5  7  1  0
  7  8  1  0
  8  9  1  0
  9 10  1  0
 10 11  2  0
 10 12  1  0
 12 13  1  0
 13 14  2  0
 13 15  1  0
 15 16  2  0
 15 17  1  0
 17 18  1  0
 17 19  2  0
M  END
