CVD-0000793|dock_bobby27042020.11|mol2|43|dock2
     RDKit          3D

 28 31  0  0  0  0  0  0  0  0999 V2000
    5.7397    0.0768   18.1886 C   0  0  0  0  0  0  0  0  0  0  0  0
    5.5849    0.1240   19.6865 C   0  0  0  0  0  0  0  0  0  0  0  0
    6.8462   -0.2554   20.4378 C   0  0  0  0  0  0  0  0  0  0  0  0
    7.8869    0.6513   20.5766 C   0  0  0  0  0  0  0  0  0  0  0  0
    9.0479    0.3407   21.2754 C   0  0  0  0  0  0  0  0  0  0  0  0
   10.0839    1.2302   21.4384 O   0  0  0  0  0  0  0  0  0  0  0  0
   10.1258    2.3197   22.4023 C   0  0  0  0  0  0  0  0  0  0  0  0
    8.8830    3.2244   22.2752 C   0  0  0  0  0  0  0  0  0  0  0  0
    8.9324    4.4196   23.2252 C   0  0  0  0  0  0  0  0  0  0  0  0
   10.2185    5.2162   23.0478 C   0  0  0  0  0  0  0  0  0  0  0  0
   11.4424    4.3255   23.2057 C   0  0  0  0  0  0  0  0  0  0  0  0
   11.4043    3.1567   22.2265 C   0  0  0  0  0  0  0  0  0  0  0  0
    9.1915   -0.9429   21.8330 C   0  0  0  0  0  0  0  0  0  0  0  0
   10.1958   -1.5784   22.5555 N   0  0  0  0  0  0  0  0  0  0  0  0
    9.7690   -2.8600   22.8272 C   0  0  0  0  0  0  0  0  0  0  0  0
    8.5345   -3.0899   22.3254 C   0  0  0  0  0  0  0  0  0  0  0  0
    7.7365   -4.3653   22.4174 C   0  0  0  0  0  0  0  0  0  0  0  0
    6.3120   -4.1647   22.7093 N   0  0  0  0  0  0  0  0  0  0  0  0
    5.5731   -5.4210   22.6603 C   0  0  0  0  0  0  0  0  0  0  0  0
    6.1498   -3.5563   24.0246 C   0  0  0  0  0  0  0  0  0  0  0  0
    8.1407   -1.8723   21.6807 C   0  0  0  0  0  0  0  0  0  0  0  0
    6.9855   -1.5156   20.9923 C   0  0  0  0  0  0  0  0  0  0  0  0
   11.5029   -1.0980   23.0138 C   0  0  0  0  0  0  0  0  0  0  0  0
   12.5975   -2.0411   22.5714 C   0  0  0  0  0  0  0  0  0  0  0  0
   13.9523   -1.6033   23.1182 C   0  0  0  0  0  0  0  0  0  0  0  0
   13.9240   -1.4735   24.6188 C   0  0  0  0  0  0  0  0  0  0  0  0
   12.8185   -0.5481   25.0691 C   0  0  0  0  0  0  0  0  0  0  0  0
   11.4636   -0.9775   24.5227 C   0  0  0  0  0  0  0  0  0  0  0  0
  1  2  1  0
  2  3  1  0
  3  4  2  0
  4  5  1  0
  5  6  1  0
  6  7  1  0
  7  8  1  0
  8  9  1  0
  9 10  1  0
 10 11  1  0
 11 12  1  0
  5 13  2  0
 13 14  1  0
 14 15  1  0
 15 16  2  0
 16 17  1  0
 17 18  1  0
 18 19  1  0
 18 20  1  0
 16 21  1  0
 21 22  2  0
 14 23  1  0
 23 24  1  0
 24 25  1  0
 25 26  1  0
 26 27  1  0
 27 28  1  0
 22  3  1  0
 28 23  1  0
 12  7  1  0
 21 13  1  0
M  END
