CVD-0001305|dock_bobby27042020.10|mol2|11|dock3
     RDKit          3D

 20 21  0  0  0  0  0  0  0  0999 V2000
    3.5637    1.0579   19.5964 F   0  0  0  0  0  0  0  0  0  0  0  0
    4.4696    1.6704   18.7584 C   0  0  0  0  0  0  0  0  0  0  0  0
    5.4705    0.5406   17.8219 S   0  0  0  0  0  0  0  0  0  0  0  0
    5.7200   -0.8140   18.9155 C   0  0  0  0  0  0  0  0  0  0  0  0
    5.3388   -1.9215   18.6389 O   0  0  0  0  0  0  0  0  0  0  0  0
    6.4443   -0.4388   20.1880 C   0  0  0  0  0  0  0  0  0  0  0  0
    7.8713    0.0051   19.8914 C   0  0  0  0  0  0  0  0  0  0  0  0
    8.6019    0.3419   21.1750 C   0  0  0  0  0  0  0  0  0  0  0  0
    8.5945   -0.8117   22.0706 N   0  0  0  0  0  0  0  0  0  0  0  0
    7.2462   -1.2406   22.4264 C   0  0  0  0  0  0  0  0  0  0  0  0
    6.4673   -1.6095   21.1682 C   0  0  0  0  0  0  0  0  0  0  0  0
    9.6588   -1.2869   22.7517 C   0  0  0  0  0  0  0  0  0  0  0  0
    9.5282   -2.2679   23.4631 O   0  0  0  0  0  0  0  0  0  0  0  0
   11.0281   -0.6585   22.6959 C   0  0  0  0  0  0  0  0  0  0  0  0
   12.0872   -1.4609   22.2686 C   0  0  0  0  0  0  0  0  0  0  0  0
   13.3800   -0.9665   22.2267 C   0  0  0  0  0  0  0  0  0  0  0  0
   13.6422    0.3325   22.6023 C   0  0  0  0  0  0  0  0  0  0  0  0
   12.6082    1.1612   23.0001 C   0  0  0  0  0  0  0  0  0  0  0  0
   11.3282    0.6595   23.0154 C   0  0  0  0  0  0  0  0  0  0  0  0
   10.3372    1.5181   23.3478 F   0  0  0  0  0  0  0  0  0  0  0  0
  1  2  1  0
  2  3  1  0
  3  4  1  0
  4  5  2  0
  4  6  1  0
  6  7  1  0
  7  8  1  0
  8  9  1  0
  9 10  1  0
 10 11  1  0
  9 12  1  0
 12 13  2  0
 12 14  1  0
 14 15  2  0
 15 16  1  0
 16 17  2  0
 17 18  1  0
 18 19  2  0
 19 20  1  0
 11  6  1  0
 19 14  1  0
M  END
