CVD-0001817|dock_bobby27042020.22|mol2|36|dock3
     RDKit          3D

 30 33  0  0  0  0  0  0  0  0999 V2000
    8.9658   -5.9315   26.8924 F   0  0  0  0  0  0  0  0  0  0  0  0
    7.8231   -5.6788   26.1987 C   0  0  0  0  0  0  0  0  0  0  0  0
    6.7406   -5.1887   26.8764 C   0  0  0  0  0  0  0  0  0  0  0  0
    5.5850   -4.9360   26.1567 C   0  0  0  0  0  0  0  0  0  0  0  0
    5.5448   -5.1786   24.7936 C   0  0  0  0  0  0  0  0  0  0  0  0
    6.6538   -5.6770   24.1275 C   0  0  0  0  0  0  0  0  0  0  0  0
    6.6088   -5.9378   22.6389 C   0  0  0  0  0  0  0  0  0  0  0  0
    6.7450   -4.6658   21.8259 C   0  0  0  0  0  0  0  0  0  0  0  0
    5.9627   -4.3946   20.9203 O   0  0  0  0  0  0  0  0  0  0  0  0
    7.7550   -3.8691   22.1648 N   0  0  0  0  0  0  0  0  0  0  0  0
    8.0228   -2.6058   21.4926 C   0  0  0  0  0  0  0  0  0  0  0  0
    7.9503   -1.4372   22.4555 C   0  0  0  0  0  0  0  0  0  0  0  0
    8.4909   -0.1967   21.8771 N   0  0  0  0  0  0  0  0  0  0  0  0
    7.8229    0.5988   20.9884 C   0  0  0  0  0  0  0  0  0  0  0  0
    8.5515    1.6409   20.6590 N   0  0  0  0  0  0  0  0  0  0  0  0
    9.7546    1.5483   21.3516 N   0  0  0  0  0  0  0  0  0  0  0  0
    9.6968    0.4507   22.0727 C   0  0  0  0  0  0  0  0  0  0  0  0
   10.7611    0.1030   22.8731 N   0  0  0  0  0  0  0  0  0  0  0  0
   11.5996    1.1203   23.5214 C   0  0  0  0  0  0  0  0  0  0  0  0
   13.0538    0.9519   23.1280 C   0  0  0  0  0  0  0  0  0  0  0  0
   13.7395   -0.6388   23.5940 S   0  0  0  0  0  0  0  0  0  0  0  0
   12.5058   -1.6544   22.7577 C   0  0  0  0  0  0  0  0  0  0  0  0
   11.1084   -1.2939   23.1990 C   0  0  0  0  0  0  0  0  0  0  0  0
    6.4419    0.3693   20.4316 C   0  0  0  0  0  0  0  0  0  0  0  0
    5.6306    1.6682   20.4377 C   0  0  0  0  0  0  0  0  0  0  0  0
    5.0721    1.7540   19.0191 C   0  0  0  0  0  0  0  0  0  0  0  0
    5.8560    0.8167   18.2064 C   0  0  0  0  0  0  0  0  0  0  0  0
    5.9758    0.7239   16.9887 O   0  0  0  0  0  0  0  0  0  0  0  0
    6.4700   -0.0242   19.0371 N   0  0  0  0  0  0  0  0  0  0  0  0
    7.8138   -5.9294   24.8487 C   0  0  0  0  0  0  0  0  0  0  0  0
  1  2  1  0
  2  3  2  0
  3  4  1  0
  4  5  2  0
  5  6  1  0
  6  7  1  0
  7  8  1  0
  8  9  2  0
  8 10  1  0
 10 11  1  0
 11 12  1  0
 12 13  1  0
 13 14  1  0
 14 15  2  0
 15 16  1  0
 16 17  2  0
 17 18  1  0
 18 19  1  0
 19 20  1  0
 20 21  1  0
 21 22  1  0
 22 23  1  0
 14 24  1  0
 24 25  1  0
 25 26  1  0
 26 27  1  0
 27 28  2  0
 27 29  1  0
  6 30  2  0
 30  2  1  0
 17 13  1  0
 23 18  1  0
 29 24  1  0
M  END
