CVD-0003702|dock_bobby27042020.87|mol2|9|dock1
     RDKit          3D

 20 21  0  0  0  0  0  0  0  0999 V2000
   12.9320   -2.5088   24.2359 C   0  0  0  0  0  0  0  0  0  0  0  0
   12.6258   -1.3602   23.2866 C   0  0  0  0  0  0  0  0  0  0  0  0
   13.8393   -0.4517   23.1527 C   0  0  0  0  0  0  0  0  0  0  0  0
   12.3591   -1.9236   21.9881 O   0  0  0  0  0  0  0  0  0  0  0  0
   11.3685   -0.5794   23.7328 C   0  0  0  0  0  0  0  0  0  0  0  0
   11.0419    0.5784   22.8140 C   0  0  0  0  0  0  0  0  0  0  0  0
   10.4764    0.1337   21.5780 O   0  0  0  0  0  0  0  0  0  0  0  0
    9.2320   -0.5449   21.7609 C   0  0  0  0  0  0  0  0  0  0  0  0
    8.7280   -0.7781   20.4530 N   0  0  0  0  0  0  0  0  0  0  0  0
    7.5186   -0.2690   19.9873 C   0  0  0  0  0  0  0  0  0  0  0  0
    6.4080   -0.1863   20.8219 C   0  0  0  0  0  0  0  0  0  0  0  0
    5.2130    0.3246   20.3364 C   0  0  0  0  0  0  0  0  0  0  0  0
    4.1278    0.4035   21.1596 O   0  0  0  0  0  0  0  0  0  0  0  0
    5.1110    0.7561   19.0223 C   0  0  0  0  0  0  0  0  0  0  0  0
    6.2195    0.6719   18.1932 C   0  0  0  0  0  0  0  0  0  0  0  0
    6.1298    1.0934   16.8987 O   0  0  0  0  0  0  0  0  0  0  0  0
    7.4187    0.1627   18.6693 C   0  0  0  0  0  0  0  0  0  0  0  0
    9.4728   -1.8252   22.5615 C   0  0  0  0  0  0  0  0  0  0  0  0
    8.2547   -2.4453   22.8888 F   0  0  0  0  0  0  0  0  0  0  0  0
   10.1470   -1.4905   23.8872 C   0  0  0  0  0  0  0  0  0  0  0  0
  1  2  1  0
  2  3  1  0
  2  4  1  0
  2  5  1  0
  5  6  1  0
  6  7  1  0
  7  8  1  0
  8  9  1  0
  9 10  1  0
 10 11  2  0
 11 12  1  0
 12 13  1  0
 12 14  2  0
 14 15  1  0
 15 16  1  0
 15 17  2  0
  8 18  1  0
 18 19  1  0
 18 20  1  0
 20  5  1  0
 17 10  1  0
M  END
