CVD-0000474|dock_bobby27042020.70|mol2|7|dock1
     RDKit          3D

 23 25  0  0  0  0  0  0  0  0999 V2000
   14.4046   -1.2982   24.0851 Cl  0  0  0  0  0  0  0  0  0  0  0  0
   12.8098   -1.0315   23.4386 C   0  0  0  0  0  0  0  0  0  0  0  0
   11.9501   -2.0949   23.2922 C   0  0  0  0  0  0  0  0  0  0  0  0
   10.6881   -1.8610   22.7790 C   0  0  0  0  0  0  0  0  0  0  0  0
   10.2665   -0.5855   22.4091 C   0  0  0  0  0  0  0  0  0  0  0  0
    8.8711   -0.3934   21.8598 C   0  0  0  0  0  0  0  0  0  0  0  0
    8.7518   -0.6418   20.4352 N   0  0  0  0  0  0  0  0  0  0  0  0
    7.6273   -0.3020   19.7072 C   0  0  0  0  0  0  0  0  0  0  0  0
    6.4334    0.0504   20.3244 C   0  0  0  0  0  0  0  0  0  0  0  0
    5.3388    0.3815   19.5447 C   0  0  0  0  0  0  0  0  0  0  0  0
    5.4692    0.3515   18.1751 C   0  0  0  0  0  0  0  0  0  0  0  0
    6.6016    0.0180   17.5551 N   0  0  0  0  0  0  0  0  0  0  0  0
    7.6519   -0.3001   18.3175 C   0  0  0  0  0  0  0  0  0  0  0  0
   11.1596    0.4859   22.5622 C   0  0  0  0  0  0  0  0  0  0  0  0
   10.7952    1.8988   22.1759 C   0  0  0  0  0  0  0  0  0  0  0  0
   11.9476    2.7372   21.9105 N   0  0  0  0  0  0  0  0  0  0  0  0
   12.1500    3.9532   22.4888 C   0  0  0  0  0  0  0  0  0  0  0  0
   13.3321    4.6644   22.2835 C   0  0  0  0  0  0  0  0  0  0  0  0
   13.4641    5.8944   22.9056 C   0  0  0  0  0  0  0  0  0  0  0  0
   12.4452    6.3771   23.6973 C   0  0  0  0  0  0  0  0  0  0  0  0
   11.3163    5.6044   23.8415 C   0  0  0  0  0  0  0  0  0  0  0  0
   11.1551    4.4113   23.2550 N   0  0  0  0  0  0  0  0  0  0  0  0
   12.4283    0.2442   23.0807 C   0  0  0  0  0  0  0  0  0  0  0  0
  1  2  1  0
  2  3  2  0
  3  4  1  0
  4  5  2  0
  5  6  1  0
  6  7  1  0
  7  8  1  0
  8  9  2  0
  9 10  1  0
 10 11  2  0
 11 12  1  0
 12 13  2  0
  5 14  1  0
 14 15  1  0
 15 16  1  0
 16 17  1  0
 17 18  2  0
 18 19  1  0
 19 20  2  0
 20 21  1  0
 21 22  2  0
 14 23  2  0
 23  2  1  0
 13  8  1  0
 22 17  1  0
M  END
