CVD-0001084|dock_bobby27042020.25|mol2|11|dock1
     RDKit          3D

 22 23  0  0  0  0  0  0  0  0999 V2000
    5.5550    0.5871   17.9972 C   0  0  0  0  0  0  0  0  0  0  0  0
    5.6087   -0.8592   18.3361 C   0  0  0  0  0  0  0  0  0  0  0  0
    6.6789   -1.0708   19.2644 O   0  0  0  0  0  0  0  0  0  0  0  0
    6.8028   -2.2807   19.9022 C   0  0  0  0  0  0  0  0  0  0  0  0
    6.1912   -3.4587   19.4863 C   0  0  0  0  0  0  0  0  0  0  0  0
    6.3751   -4.6375   20.1908 C   0  0  0  0  0  0  0  0  0  0  0  0
    7.1688   -4.6636   21.3165 C   0  0  0  0  0  0  0  0  0  0  0  0
    7.7893   -3.5058   21.7501 C   0  0  0  0  0  0  0  0  0  0  0  0
    7.6212   -2.2961   21.0560 C   0  0  0  0  0  0  0  0  0  0  0  0
    8.2836   -1.0710   21.5215 C   0  0  0  0  0  0  0  0  0  0  0  0
    8.8864   -0.1588   20.7636 C   0  0  0  0  0  0  0  0  0  0  0  0
    9.5196    1.0368   21.3512 C   0  0  0  0  0  0  0  0  0  0  0  0
    8.8294    2.0517   21.4971 O   0  0  0  0  0  0  0  0  0  0  0  0
   10.9521    1.0443   21.7658 C   0  0  0  0  0  0  0  0  0  0  0  0
   11.5843    2.2557   22.0706 C   0  0  0  0  0  0  0  0  0  0  0  0
   12.9122    2.2790   22.4566 C   0  0  0  0  0  0  0  0  0  0  0  0
   13.8191    4.1182   22.9039 I   0  0  0  0  0  0  0  0  0  0  0  0
   13.6535    1.1198   22.5538 C   0  0  0  0  0  0  0  0  0  0  0  0
   13.0432   -0.0860   22.2560 C   0  0  0  0  0  0  0  0  0  0  0  0
   14.1654   -1.8513   22.4022 I   0  0  0  0  0  0  0  0  0  0  0  0
   11.7047   -0.1577   21.8621 C   0  0  0  0  0  0  0  0  0  0  0  0
   11.2109   -1.4035   21.5939 O   0  0  0  0  0  0  0  0  0  0  0  0
  1  2  1  0
  2  3  1  0
  3  4  1  0
  4  5  2  0
  5  6  1  0
  6  7  2  0
  7  8  1  0
  8  9  2  0
  9 10  1  0
 10 11  2  0
 11 12  1  0
 12 13  2  0
 12 14  1  0
 14 15  2  0
 15 16  1  0
 16 17  1  0
 16 18  2  0
 18 19  1  0
 19 20  1  0
 19 21  2  0
 21 22  1  0
  9  4  1  0
 21 14  1  0
M  END
