CVD-0000821|dock_bobby27042020.11|mol2|39|dock3
     RDKit          3D

 30 33  0  0  0  0  0  0  0  0999 V2000
   13.2189    4.7996   22.8444 C   0  0  0  0  0  0  0  0  0  0  0  0
   12.1798    4.2309   21.5007 S   0  0  0  0  0  0  0  0  0  0  0  0
   11.4088    2.7878   22.1549 C   0  0  0  0  0  0  0  0  0  0  0  0
   10.0279    2.6345   22.0710 C   0  0  0  0  0  0  0  0  0  0  0  0
    9.4097    1.5062   22.5874 C   0  0  0  0  0  0  0  0  0  0  0  0
    8.0559    1.2881   22.5336 O   0  0  0  0  0  0  0  0  0  0  0  0
    7.3240    1.3208   21.2825 C   0  0  0  0  0  0  0  0  0  0  0  0
    5.8463    1.3253   21.5374 C   0  0  0  0  0  0  0  0  0  0  0  0
    4.9714    1.4849   20.3197 C   0  0  0  0  0  0  0  0  0  0  0  0
    4.7821    0.2468   19.4790 C   0  0  0  0  0  0  0  0  0  0  0  0
    5.9747   -0.4534   18.8899 C   0  0  0  0  0  0  0  0  0  0  0  0
    7.3172    0.1952   19.0024 C   0  0  0  0  0  0  0  0  0  0  0  0
    7.8734    0.2549   20.3933 C   0  0  0  0  0  0  0  0  0  0  0  0
   10.1810    0.5134   23.1999 C   0  0  0  0  0  0  0  0  0  0  0  0
    9.8514   -0.7014   23.7875 N   0  0  0  0  0  0  0  0  0  0  0  0
    8.5219   -1.2943   23.9590 C   0  0  0  0  0  0  0  0  0  0  0  0
    8.5620   -2.6351   24.6521 C   0  0  0  0  0  0  0  0  0  0  0  0
    8.5232   -2.7198   26.0353 C   0  0  0  0  0  0  0  0  0  0  0  0
    8.5574   -3.9502   26.6700 C   0  0  0  0  0  0  0  0  0  0  0  0
    8.6299   -5.1099   25.9287 C   0  0  0  0  0  0  0  0  0  0  0  0
    8.6680   -5.0393   24.5527 C   0  0  0  0  0  0  0  0  0  0  0  0
    8.6338   -3.8089   23.9182 C   0  0  0  0  0  0  0  0  0  0  0  0
   11.0028   -1.2699   24.2477 C   0  0  0  0  0  0  0  0  0  0  0  0
   12.0832   -0.4924   23.9758 C   0  0  0  0  0  0  0  0  0  0  0  0
   13.5405   -0.7275   24.2926 C   0  0  0  0  0  0  0  0  0  0  0  0
   14.2983   -1.5773   23.3634 N   0  0  0  0  0  0  0  0  0  0  0  0
   14.0012   -1.3070   21.9600 C   0  0  0  0  0  0  0  0  0  0  0  0
   14.2115   -2.9996   23.6800 C   0  0  0  0  0  0  0  0  0  0  0  0
   11.5741    0.6642   23.2968 C   0  0  0  0  0  0  0  0  0  0  0  0
   12.1758    1.8044   22.7695 C   0  0  0  0  0  0  0  0  0  0  0  0
  1  2  1  0
  2  3  1  0
  3  4  2  0
  4  5  1  0
  5  6  1  0
  6  7  1  0
  7  8  1  0
  8  9  1  0
  9 10  1  0
 10 11  1  0
 11 12  1  0
 12 13  1  0
  5 14  2  0
 14 15  1  0
 15 16  1  0
 16 17  1  0
 17 18  2  0
 18 19  1  0
 19 20  2  0
 20 21  1  0
 21 22  2  0
 15 23  1  0
 23 24  2  0
 24 25  1  0
 25 26  1  0
 26 27  1  0
 26 28  1  0
 24 29  1  0
 29 30  2  0
 30  3  1  0
 13  7  1  0
 29 14  1  0
 22 17  1  0
M  END
