CVD-0002701|dock_bobby27042020.33|mol2|19|dock1
     RDKit          3D

 26 28  0  0  0  0  0  0  0  0999 V2000
   12.1812   -1.8862   21.6208 C   0  0  0  0  0  0  0  0  0  0  0  0
   11.4113   -2.3227   22.7733 N   0  0  0  0  0  0  0  0  0  0  0  0
   12.2509   -2.6354   23.9334 C   0  0  0  0  0  0  0  0  0  0  0  0
   13.0070   -1.4086   24.5148 C   0  0  0  0  0  0  0  0  0  0  0  0
   14.0946   -0.8888   23.6017 C   0  0  0  0  0  0  0  0  0  0  0  0
   13.9194    0.3633   23.2208 N   0  0  0  0  0  0  0  0  0  0  0  0
   12.7317    0.7717   23.8095 C   0  0  0  0  0  0  0  0  0  0  0  0
   12.1478   -0.1546   24.5843 C   0  0  0  0  0  0  0  0  0  0  0  0
   10.8866   -0.0326   25.3897 C   0  0  0  0  0  0  0  0  0  0  0  0
   10.0352   -2.4252   22.8403 C   0  0  0  0  0  0  0  0  0  0  0  0
    9.6062   -3.1246   23.7442 O   0  0  0  0  0  0  0  0  0  0  0  0
    9.1302   -1.8306   21.9986 N   0  0  0  0  0  0  0  0  0  0  0  0
    9.3346   -0.7056   21.0992 C   0  0  0  0  0  0  0  0  0  0  0  0
    8.2442    0.3497   21.2452 C   0  0  0  0  0  0  0  0  0  0  0  0
    6.9124   -0.2628   21.1313 N   0  0  0  0  0  0  0  0  0  0  0  0
    6.7496   -1.3229   22.1588 C   0  0  0  0  0  0  0  0  0  0  0  0
    7.7759   -2.3971   21.9134 C   0  0  0  0  0  0  0  0  0  0  0  0
    5.7987    0.5480   20.7970 C   0  0  0  0  0  0  0  0  0  0  0  0
    5.0267    1.0551   21.8410 C   0  0  0  0  0  0  0  0  0  0  0  0
    3.8331    1.7002   21.5691 C   0  0  0  0  0  0  0  0  0  0  0  0
    3.3943    1.8502   20.2740 C   0  0  0  0  0  0  0  0  0  0  0  0
    4.1801    1.4330   19.2156 C   0  0  0  0  0  0  0  0  0  0  0  0
    5.4223    0.8569   19.4692 C   0  0  0  0  0  0  0  0  0  0  0  0
    6.2642    0.6347   18.3186 N   0  0  0  0  0  0  0  0  0  0  0  0
    7.3489    0.1475   18.4156 O   0  0  0  0  0  0  0  0  0  0  0  0
    5.8933    0.7307   17.1897 O   0  0  0  0  0  0  0  0  0  0  0  0
  1  2  1  0
  2  3  1  0
  3  4  1  0
  4  5  1  0
  5  6  2  0
  6  7  1  0
  7  8  2  0
  8  9  1  0
  2 10  1  0
 10 11  2  0
 10 12  1  0
 12 13  1  0
 13 14  1  0
 14 15  1  0
 15 16  1  0
 16 17  1  0
 15 18  1  0
 18 19  2  0
 19 20  1  0
 20 21  2  0
 21 22  1  0
 22 23  2  0
 23 24  1  0
 24 25  1  0
 24 26  1  0
  8  4  1  0
 17 12  1  0
 23 18  1  0
M  END
