CVD-0002539|dock_bobby27042020.48|mol2|16|dock3
     RDKit          3D

 23 26  0  0  0  0  0  0  0  0999 V2000
    4.8574    1.1439   22.4914 C   0  0  0  0  0  0  0  0  0  0  0  0
    6.3123    1.1707   21.7183 S   0  0  0  0  0  0  0  0  0  0  0  0
    5.8929    2.6558   21.1404 C   0  0  0  0  0  0  0  0  0  0  0  0
    7.7229    0.8816   22.4821 N   0  0  0  0  0  0  0  0  0  0  0  0
    7.8788    1.0881   23.9339 C   0  0  0  0  0  0  0  0  0  0  0  0
    8.3599   -0.2026   24.5539 C   0  0  0  0  0  0  0  0  0  0  0  0
    9.5770   -0.6496   23.8666 N   0  0  0  0  0  0  0  0  0  0  0  0
    9.3763   -0.9248   22.4266 C   0  0  0  0  0  0  0  0  0  0  0  0
    8.9010    0.3518   21.7713 C   0  0  0  0  0  0  0  0  0  0  0  0
   10.5611   -1.3787   21.7253 N   0  0  0  0  0  0  0  0  0  0  0  0
   11.7806   -1.5192   22.3675 C   0  0  0  0  0  0  0  0  0  0  0  0
   12.9075   -1.9477   21.6773 C   0  0  0  0  0  0  0  0  0  0  0  0
   14.1045   -2.0965   22.2544 N   0  0  0  0  0  0  0  0  0  0  0  0
   14.2083   -1.8169   23.5544 C   0  0  0  0  0  0  0  0  0  0  0  0
   13.1546   -1.3859   24.3346 C   0  0  0  0  0  0  0  0  0  0  0  0
   11.9075   -1.2316   23.7343 C   0  0  0  0  0  0  0  0  0  0  0  0
   10.7573   -0.7778   24.5250 C   0  0  0  0  0  0  0  0  0  0  0  0
   10.8585   -0.5289   25.7141 O   0  0  0  0  0  0  0  0  0  0  0  0
    6.1903    0.0421   20.3747 C   0  0  0  0  0  0  0  0  0  0  0  0
    6.0303   -1.3789   20.5085 C   0  0  0  0  0  0  0  0  0  0  0  0
    5.9621   -2.0265   19.3058 C   0  0  0  0  0  0  0  0  0  0  0  0
    6.0893   -0.9365   18.0071 S   0  0  0  0  0  0  0  0  0  0  0  0
    6.2320    0.3696   19.0782 C   0  0  0  0  0  0  0  0  0  0  0  0
  1  2  2  0
  2  3  2  0
  2  4  1  0
  4  5  1  0
  5  6  1  0
  6  7  1  0
  7  8  1  0
  8  9  1  0
  8 10  1  0
 10 11  1  0
 11 12  2  0
 12 13  1  0
 13 14  2  0
 14 15  1  0
 15 16  2  0
 16 17  1  0
 17 18  2  0
  2 19  1  0
 19 20  1  0
 20 21  2  0
 21 22  1  0
 22 23  1  0
  9  4  1  0
 16 11  1  0
 23 19  2  0
 17  7  1  0
M  END
