CVD-0000514|dock_bobby27042020.98|mol2|19|dock1
     RDKit          3D

 18 19  0  0  0  0  0  0  0  0999 V2000
    9.2853   -7.0240   23.4983 O   0  0  0  0  0  0  0  0  0  0  0  0
    8.7974   -5.7166   23.7454 C   0  0  0  0  0  0  0  0  0  0  0  0
    7.7433   -5.2950   22.7481 C   0  0  0  0  0  0  0  0  0  0  0  0
    6.9911   -6.2827   22.1200 C   0  0  0  0  0  0  0  0  0  0  0  0
    6.0343   -5.9192   21.1986 C   0  0  0  0  0  0  0  0  0  0  0  0
    5.7817   -4.6559   20.8685 N   0  0  0  0  0  0  0  0  0  0  0  0
    6.4950   -3.7006   21.4725 C   0  0  0  0  0  0  0  0  0  0  0  0
    7.4882   -3.9504   22.4194 C   0  0  0  0  0  0  0  0  0  0  0  0
    8.2472   -2.9332   23.0635 N   0  0  0  0  0  0  0  0  0  0  0  0
    8.5945   -1.6937   22.6374 C   0  0  0  0  0  0  0  0  0  0  0  0
    8.3032   -1.1894   21.5583 O   0  0  0  0  0  0  0  0  0  0  0  0
    9.4186   -0.9218   23.6433 C   0  0  0  0  0  0  0  0  0  0  0  0
   10.9176   -1.2208   23.5464 C   0  0  0  0  0  0  0  0  0  0  0  0
   11.7553   -0.0655   24.1320 C   0  0  0  0  0  0  0  0  0  0  0  0
   13.2572   -0.3015   23.9843 C   0  0  0  0  0  0  0  0  0  0  0  0
   13.6349   -0.5813   22.5355 C   0  0  0  0  0  0  0  0  0  0  0  0
   12.8284   -1.7424   21.9721 C   0  0  0  0  0  0  0  0  0  0  0  0
   11.3301   -1.4812   22.0877 C   0  0  0  0  0  0  0  0  0  0  0  0
  1  2  1  0
  2  3  1  0
  3  4  2  0
  4  5  1  0
  5  6  2  0
  6  7  1  0
  7  8  2  0
  8  9  1  0
  9 10  1  0
 10 11  2  0
 10 12  1  0
 12 13  1  0
 13 14  1  0
 14 15  1  0
 15 16  1  0
 16 17  1  0
 17 18  1  0
  8  3  1  0
 18 13  1  0
M  END
