CVD-0003979|dock_bobby27042020.29|mol2|12|dock2
     RDKit          3D

 28 28  0  0  0  0  0  0  0  0999 V2000
    3.9259    1.5295   19.9429 C   0  0  0  0  0  0  0  0  0  0  0  0
    4.7357    1.7438   18.7454 N   0  0  0  0  0  0  0  0  0  0  0  0
    5.8001    0.6529   18.2609 S   0  0  0  0  0  0  0  0  0  0  0  0
    5.2251   -0.6429   18.4647 O   0  0  0  0  0  0  0  0  0  0  0  0
    6.2291    1.0251   16.9464 O   0  0  0  0  0  0  0  0  0  0  0  0
    7.2184    0.7848   19.3262 C   0  0  0  0  0  0  0  0  0  0  0  0
    7.2177   -0.2085   20.4812 C   0  0  0  0  0  0  0  0  0  0  0  0
    6.2149   -0.8964   20.6273 O   0  0  0  0  0  0  0  0  0  0  0  0
    8.3253   -0.3447   21.3485 N   0  0  0  0  0  0  0  0  0  0  0  0
    8.1230   -1.3222   22.4304 C   0  0  0  0  0  0  0  0  0  0  0  0
    9.5225    0.3488   21.2350 C   0  0  0  0  0  0  0  0  0  0  0  0
    9.6022    1.3439   20.5349 O   0  0  0  0  0  0  0  0  0  0  0  0
   10.7950   -0.0497   21.9441 C   0  0  0  0  0  0  0  0  0  0  0  0
   11.1599   -1.3999   21.9720 C   0  0  0  0  0  0  0  0  0  0  0  0
   12.2554   -1.8301   22.6991 C   0  0  0  0  0  0  0  0  0  0  0  0
   13.0001   -0.9282   23.4226 C   0  0  0  0  0  0  0  0  0  0  0  0
   12.6803    0.4168   23.3879 C   0  0  0  0  0  0  0  0  0  0  0  0
   11.6122    0.8819   22.6190 C   0  0  0  0  0  0  0  0  0  0  0  0
   11.4501    2.3703   22.6019 C   0  0  0  0  0  0  0  0  0  0  0  0
   12.4530    3.0607   22.4567 O   0  0  0  0  0  0  0  0  0  0  0  0
   10.1021    3.1054   22.7206 C   0  0  0  0  0  0  0  0  0  0  0  0
    9.0566    2.4674   22.7952 O   0  0  0  0  0  0  0  0  0  0  0  0
   10.0241    4.5854   22.7328 C   0  0  0  0  0  0  0  0  0  0  0  0
   11.0383    5.2863   22.8285 O   0  0  0  0  0  0  0  0  0  0  0  0
    8.6832    5.1802   22.6303 C   0  0  0  0  0  0  0  0  0  0  0  0
    8.4990    6.3638   22.0767 C   0  0  0  0  0  0  0  0  0  0  0  0
    7.1636    7.0203   21.9433 C   0  0  0  0  0  0  0  0  0  0  0  0
    6.9615    7.5825   20.6544 O   0  0  0  0  0  0  0  0  0  0  0  0
  1  2  1  0
  2  3  1  0
  3  4  2  0
  3  5  2  0
  3  6  1  0
  6  7  1  0
  7  8  2  0
  7  9  1  0
  9 10  1  0
  9 11  1  0
 11 12  2  0
 11 13  1  0
 13 14  2  0
 14 15  1  0
 15 16  2  0
 16 17  1  0
 17 18  2  0
 18 19  1  0
 19 20  2  0
 19 21  1  0
 21 22  2  0
 21 23  1  0
 23 24  2  0
 23 25  1  0
 25 26  2  0
 26 27  1  0
 27 28  1  0
 18 13  1  0
M  END
