CVD-0001120|dock_bobby27042020.39|mol2|17|dock2
     RDKit          3D

 25 27  0  0  0  0  0  0  0  0999 V2000
   13.8672    5.9336   22.1119 C   0  0  0  0  0  0  0  0  0  0  0  0
   12.9755    4.8616   22.6661 C   0  0  0  0  0  0  0  0  0  0  0  0
   12.6774    4.8157   23.8555 O   0  0  0  0  0  0  0  0  0  0  0  0
   12.5120    3.9707   21.7874 N   0  0  0  0  0  0  0  0  0  0  0  0
   11.6229    2.8824   22.1678 C   0  0  0  0  0  0  0  0  0  0  0  0
   12.2353    1.9993   23.2366 C   0  0  0  0  0  0  0  0  0  0  0  0
   11.7071    0.5949   23.2107 C   0  0  0  0  0  0  0  0  0  0  0  0
   10.6261    0.1316   22.5328 C   0  0  0  0  0  0  0  0  0  0  0  0
   10.4505   -1.2022   22.7563 N   0  0  0  0  0  0  0  0  0  0  0  0
    9.4029   -2.0284   22.1634 C   0  0  0  0  0  0  0  0  0  0  0  0
    8.2239   -1.2187   21.6518 C   0  0  0  0  0  0  0  0  0  0  0  0
    7.2930   -0.9318   22.3970 O   0  0  0  0  0  0  0  0  0  0  0  0
    8.3260   -0.8839   20.3430 N   0  0  0  0  0  0  0  0  0  0  0  0
    7.4524   -0.1539   19.4998 C   0  0  0  0  0  0  0  0  0  0  0  0
    6.2242    0.3536   19.9110 C   0  0  0  0  0  0  0  0  0  0  0  0
    5.4449    1.0539   19.0063 C   0  0  0  0  0  0  0  0  0  0  0  0
    5.9107    1.2275   17.7233 C   0  0  0  0  0  0  0  0  0  0  0  0
    7.0827    0.7531   17.3011 N   0  0  0  0  0  0  0  0  0  0  0  0
    7.8274    0.0784   18.1816 C   0  0  0  0  0  0  0  0  0  0  0  0
   11.4603   -1.6424   23.5975 C   0  0  0  0  0  0  0  0  0  0  0  0
   11.7427   -2.9032   24.1128 C   0  0  0  0  0  0  0  0  0  0  0  0
   12.8360   -3.0455   24.9523 C   0  0  0  0  0  0  0  0  0  0  0  0
   13.6287   -1.9624   25.2719 C   0  0  0  0  0  0  0  0  0  0  0  0
   13.3513   -0.7066   24.7572 C   0  0  0  0  0  0  0  0  0  0  0  0
   12.2610   -0.5303   23.9073 C   0  0  0  0  0  0  0  0  0  0  0  0
  1  2  1  0
  2  3  2  0
  2  4  1  0
  4  5  1  0
  5  6  1  0
  6  7  1  0
  7  8  2  0
  8  9  1  0
  9 10  1  0
 10 11  1  0
 11 12  2  0
 11 13  1  0
 13 14  1  0
 14 15  2  0
 15 16  1  0
 16 17  2  0
 17 18  1  0
 18 19  2  0
  9 20  1  0
 20 21  2  0
 21 22  1  0
 22 23  2  0
 23 24  1  0
 24 25  2  0
 25  7  1  0
 19 14  1  0
 25 20  1  0
M  END
