CVD-0001667|dock_bobby27042020.80|mol2|24|dock3
     RDKit          3D

 53 58  0  0  0  0  0  0  0  0999 V2000
    1.6520    3.6464   19.0624 C   0  0  0  0  0  0  0  0  0  0  0  0
    2.8707    2.8189   19.4046 C   0  0  0  0  0  0  0  0  0  0  0  0
    3.9770    3.3186   18.6488 O   0  0  0  0  0  0  0  0  0  0  0  0
    3.2197    2.8389   20.9065 C   0  0  0  0  0  0  0  0  0  0  0  0
    4.0751    3.9891   21.2186 N   0  0  0  0  0  0  0  0  0  0  0  0
    3.9532    4.6382   22.3780 C   0  0  0  0  0  0  0  0  0  0  0  0
    3.1238    4.2752   23.2079 O   0  0  0  0  0  0  0  0  0  0  0  0
    4.8748    5.8444   22.6059 C   0  0  0  0  0  0  0  0  0  0  0  0
    6.2618    5.5111   22.3200 N   0  0  0  0  0  0  0  0  0  0  0  0
    6.8238    4.4958   22.9874 C   0  0  0  0  0  0  0  0  0  0  0  0
    6.1839    3.8454   23.8093 O   0  0  0  0  0  0  0  0  0  0  0  0
    8.2738    4.1901   22.6813 C   0  0  0  0  0  0  0  0  0  0  0  0
    8.4674    2.7554   22.8793 N   0  0  0  0  0  0  0  0  0  0  0  0
    9.3827    2.0754   22.1731 C   0  0  0  0  0  0  0  0  0  0  0  0
   10.2369    2.7016   21.5508 O   0  0  0  0  0  0  0  0  0  0  0  0
    9.2502    0.5338   22.2516 C   0  0  0  0  0  0  0  0  0  0  0  0
    7.8677    0.1357   21.9940 N   0  0  0  0  0  0  0  0  0  0  0  0
    7.2552    0.5478   20.8704 C   0  0  0  0  0  0  0  0  0  0  0  0
    7.7774    1.2851   20.0391 O   0  0  0  0  0  0  0  0  0  0  0  0
    5.8351    0.0607   20.6299 C   0  0  0  0  0  0  0  0  0  0  0  0
    5.8062   -0.9707   19.4983 C   0  0  0  0  0  0  0  0  0  0  0  0
    6.4550   -0.4609   18.2147 C   0  0  0  0  0  0  0  0  0  0  0  0
    5.6802    0.6618   17.5879 C   0  0  0  0  0  0  0  0  0  0  0  0
    6.4462    1.5747   17.0413 O   0  0  0  0  0  0  0  0  0  0  0  0
    4.4703    0.7214   17.5857 O   0  0  0  0  0  0  0  0  0  0  0  0
    4.9922    1.2355   20.4568 N   0  0  0  0  0  0  0  0  0  0  0  0
    3.9536    1.5437   21.2343 C   0  0  0  0  0  0  0  0  0  0  0  0
    3.6788    0.7722   22.1498 O   0  0  0  0  0  0  0  0  0  0  0  0
    9.6732   -0.0387   23.6189 C   0  0  0  0  0  0  0  0  0  0  0  0
   11.2015   -0.2189   23.7019 C   0  0  0  0  0  0  0  0  0  0  0  0
   11.7199   -1.4798   23.0102 C   0  0  0  0  0  0  0  0  0  0  0  0
   13.2375   -1.6028   23.1428 C   0  0  0  0  0  0  0  0  0  0  0  0
   13.9385   -0.3708   22.6044 C   0  0  0  0  0  0  0  0  0  0  0  0
   13.4297    0.8925   23.2680 C   0  0  0  0  0  0  0  0  0  0  0  0
   11.9143    1.0170   23.1478 C   0  0  0  0  0  0  0  0  0  0  0  0
    8.9650   -1.3328   23.9473 C   0  0  0  0  0  0  0  0  0  0  0  0
    8.4490   -1.5592   25.2159 C   0  0  0  0  0  0  0  0  0  0  0  0
    7.7976   -2.7441   25.5151 C   0  0  0  0  0  0  0  0  0  0  0  0
    7.6530   -3.7176   24.5502 C   0  0  0  0  0  0  0  0  0  0  0  0
    8.1592   -3.5066   23.2856 C   0  0  0  0  0  0  0  0  0  0  0  0
    8.8107   -2.3217   22.9858 C   0  0  0  0  0  0  0  0  0  0  0  0
    9.2022    4.9760   23.6018 C   0  0  0  0  0  0  0  0  0  0  0  0
   10.2290    5.7207   23.0526 C   0  0  0  0  0  0  0  0  0  0  0  0
   11.1064    6.4396   23.7598 N   0  0  0  0  0  0  0  0  0  0  0  0
   10.9919    6.4440   25.0915 C   0  0  0  0  0  0  0  0  0  0  0  0
   10.0002    5.7388   25.7601 C   0  0  0  0  0  0  0  0  0  0  0  0
    9.6620    5.5763   27.0825 N   0  0  0  0  0  0  0  0  0  0  0  0
    8.5634    4.7550   27.1713 C   0  0  0  0  0  0  0  0  0  0  0  0
    8.1676    4.3688   25.9346 C   0  0  0  0  0  0  0  0  0  0  0  0
    9.0764    4.9851   25.0099 C   0  0  0  0  0  0  0  0  0  0  0  0
    4.7053    6.2469   24.0778 C   0  0  0  0  0  0  0  0  0  0  0  0
    3.8216    7.3512   24.5149 C   0  0  0  0  0  0  0  0  0  0  0  0
    5.2833    7.4689   24.7073 C   0  0  0  0  0  0  0  0  0  0  0  0
  1  2  1  0
  2  3  1  0
  2  4  1  0
  4  5  1  0
  5  6  1  0
  6  7  2  0
  6  8  1  0
  8  9  1  0
  9 10  1  0
 10 11  2  0
 10 12  1  0
 12 13  1  0
 13 14  1  0
 14 15  2  0
 14 16  1  0
 16 17  1  0
 17 18  1  0
 18 19  2  0
 18 20  1  0
 20 21  1  0
 21 22  1  0
 22 23  1  0
 23 24  1  0
 23 25  2  0
 20 26  1  0
 26 27  1  0
 27 28  2  0
 16 29  1  0
 29 30  1  0
 30 31  1  0
 31 32  1  0
 32 33  1  0
 33 34  1  0
 34 35  1  0
 29 36  1  0
 36 37  2  0
 37 38  1  0
 38 39  2  0
 39 40  1  0
 40 41  2  0
 12 42  1  0
 42 43  2  0
 43 44  1  0
 44 45  2  0
 45 46  1  0
 46 47  1  0
 47 48  1  0
 48 49  2  0
 49 50  1  0
  8 51  1  0
 51 52  1  0
 52 53  1  0
 27  4  1  0
 35 30  1  0
 41 36  1  0
 50 42  1  0
 53 51  1  0
 50 46  2  0
M  END
