CVD-0001190|dock_bobby27042020.24|mol2|38|dock1
     RDKit          3D

 19 20  0  0  0  0  0  0  0  0999 V2000
   14.1552    8.8565   22.6792 O   0  0  0  0  0  0  0  0  0  0  0  0
   14.2478    7.8405   21.9182 N   0  0  0  0  0  0  0  0  0  0  0  0
   14.6895    7.8885   20.7789 O   0  0  0  0  0  0  0  0  0  0  0  0
   13.8104    6.5941   22.4358 C   0  0  0  0  0  0  0  0  0  0  0  0
   13.1833    6.3627   23.6115 C   0  0  0  0  0  0  0  0  0  0  0  0
   12.8794    5.0467   23.8459 N   0  0  0  0  0  0  0  0  0  0  0  0
   13.2770    4.2928   22.8495 C   0  0  0  0  0  0  0  0  0  0  0  0
   13.0950    2.9216   22.8275 N   0  0  0  0  0  0  0  0  0  0  0  0
   11.8810    2.2616   22.8576 C   0  0  0  0  0  0  0  0  0  0  0  0
   10.8053    2.8516   22.9050 O   0  0  0  0  0  0  0  0  0  0  0  0
   11.8642    0.7582   22.8320 C   0  0  0  0  0  0  0  0  0  0  0  0
   10.7703    0.1252   22.2490 C   0  0  0  0  0  0  0  0  0  0  0  0
   10.6902   -1.2561   22.1914 C   0  0  0  0  0  0  0  0  0  0  0  0
   11.7057   -2.0342   22.7174 C   0  0  0  0  0  0  0  0  0  0  0  0
   12.8064   -1.4208   23.3038 C   0  0  0  0  0  0  0  0  0  0  0  0
   12.8851   -0.0309   23.3607 C   0  0  0  0  0  0  0  0  0  0  0  0
   13.8723   -2.2198   23.8561 C   0  0  0  0  0  0  0  0  0  0  0  0
   14.6960   -2.8625   24.3179 N   0  0  0  0  0  0  0  0  0  0  0  0
   14.0529    5.1359   21.5501 S   0  0  0  0  0  0  0  0  0  0  0  0
  1  2  1  0
  2  3  2  0
  2  4  1  0
  4  5  2  0
  5  6  1  0
  6  7  2  0
  7  8  1  0
  8  9  1  0
  9 10  2  0
  9 11  1  0
 11 12  2  0
 12 13  1  0
 13 14  2  0
 14 15  1  0
 15 16  2  0
 15 17  1  0
 17 18  3  0
  7 19  1  0
 19  4  1  0
 16 11  1  0
M  CHG  2   1  -1   2   1
M  END
