CVD-0001902|dock_bobby27042020.93|mol2|37|dock2
     RDKit          3D

 34 36  0  0  0  0  0  0  0  0999 V2000
    6.9219    2.8508   24.1703 C   0  0  0  0  0  0  0  0  0  0  0  0
    7.4478    3.2592   22.8187 C   0  0  0  0  0  0  0  0  0  0  0  0
    8.7761    3.9770   22.8469 C   0  0  0  0  0  0  0  0  0  0  0  0
    8.8129    5.3593   22.6942 C   0  0  0  0  0  0  0  0  0  0  0  0
   10.0130    6.0448   22.7195 C   0  0  0  0  0  0  0  0  0  0  0  0
   11.1969    5.3447   22.8615 C   0  0  0  0  0  0  0  0  0  0  0  0
   11.2141    3.9568   22.9833 C   0  0  0  0  0  0  0  0  0  0  0  0
   12.5536    3.2685   23.0318 C   0  0  0  0  0  0  0  0  0  0  0  0
    9.9820    3.2832   23.0282 C   0  0  0  0  0  0  0  0  0  0  0  0
    9.8759    1.8669   23.2487 N   0  0  0  0  0  0  0  0  0  0  0  0
    9.6661    0.9081   22.3126 C   0  0  0  0  0  0  0  0  0  0  0  0
    9.5305    1.0926   21.1060 O   0  0  0  0  0  0  0  0  0  0  0  0
    9.6249   -0.5156   22.9021 C   0  0  0  0  0  0  0  0  0  0  0  0
    8.6711   -1.3643   22.1444 N   0  0  0  0  0  0  0  0  0  0  0  0
    8.6999   -2.7184   22.4427 C   0  0  0  0  0  0  0  0  0  0  0  0
    9.4712   -3.1610   23.2929 O   0  0  0  0  0  0  0  0  0  0  0  0
    7.8188   -3.6941   21.7376 C   0  0  0  0  0  0  0  0  0  0  0  0
    7.8324   -4.9597   22.0626 C   0  0  0  0  0  0  0  0  0  0  0  0
    7.8343   -0.7708   21.1419 C   0  0  0  0  0  0  0  0  0  0  0  0
    6.6102   -0.1952   21.4634 C   0  0  0  0  0  0  0  0  0  0  0  0
    5.8169    0.3762   20.4844 C   0  0  0  0  0  0  0  0  0  0  0  0
    6.2227    0.3906   19.1569 C   0  0  0  0  0  0  0  0  0  0  0  0
    7.4475   -0.1788   18.8364 C   0  0  0  0  0  0  0  0  0  0  0  0
    8.2436   -0.7500   19.8133 C   0  0  0  0  0  0  0  0  0  0  0  0
    5.3651    1.0097   18.1001 C   0  0  0  0  0  0  0  0  0  0  0  0
    6.0700    1.6570   17.1790 F   0  0  0  0  0  0  0  0  0  0  0  0
    4.5039    1.8947   18.5891 F   0  0  0  0  0  0  0  0  0  0  0  0
    4.6358    0.1168   17.4406 F   0  0  0  0  0  0  0  0  0  0  0  0
   11.0131   -1.1370   22.9687 C   0  0  0  0  0  0  0  0  0  0  0  0
   11.6598   -1.3628   24.1746 C   0  0  0  0  0  0  0  0  0  0  0  0
   12.9224   -1.9297   24.1828 C   0  0  0  0  0  0  0  0  0  0  0  0
   13.5040   -2.2552   22.9783 C   0  0  0  0  0  0  0  0  0  0  0  0
   12.9103   -2.0509   21.8014 N   0  0  0  0  0  0  0  0  0  0  0  0
   11.6917   -1.5025   21.8174 C   0  0  0  0  0  0  0  0  0  0  0  0
  1  2  1  0
  2  3  1  0
  3  4  2  0
  4  5  1  0
  5  6  2  0
  6  7  1  0
  7  8  1  0
  7  9  2  0
  9 10  1  0
 10 11  1  0
 11 12  2  0
 11 13  1  0
 13 14  1  0
 14 15  1  0
 15 16  2  0
 15 17  1  0
 17 18  2  0
 14 19  1  0
 19 20  2  0
 20 21  1  0
 21 22  2  0
 22 23  1  0
 23 24  2  0
 22 25  1  0
 25 26  1  0
 25 27  1  0
 25 28  1  0
 13 29  1  0
 29 30  2  0
 30 31  1  0
 31 32  2  0
 32 33  1  0
 33 34  2  0
  9  3  1  0
 24 19  1  0
 34 29  1  0
M  END
