CVD-0003362|dock_bobby27042020.31|mol2|12|dock1
     RDKit          3D

 37 41  0  0  0  0  0  0  0  0999 V2000
    2.1719   -6.0499   25.4503 C   0  0  0  0  0  0  0  0  0  0  0  0
    3.3044   -5.7932   24.5624 N   0  0  0  0  0  0  0  0  0  0  0  0
    4.5897   -6.0250   25.2213 C   0  0  0  0  0  0  0  0  0  0  0  0
    5.7259   -5.7158   24.2852 C   0  0  0  0  0  0  0  0  0  0  0  0
    5.6452   -6.5437   23.0782 N   0  0  0  0  0  0  0  0  0  0  0  0
    6.7843   -6.2854   22.1851 C   0  0  0  0  0  0  0  0  0  0  0  0
    7.3096   -4.8723   22.2725 C   0  0  0  0  0  0  0  0  0  0  0  0
    6.7818   -3.8653   21.4819 C   0  0  0  0  0  0  0  0  0  0  0  0
    7.2607   -2.5690   21.5549 C   0  0  0  0  0  0  0  0  0  0  0  0
    8.2947   -2.2341   22.4296 C   0  0  0  0  0  0  0  0  0  0  0  0
    8.8206   -3.2526   23.2197 C   0  0  0  0  0  0  0  0  0  0  0  0
    8.3367   -4.5461   23.1414 C   0  0  0  0  0  0  0  0  0  0  0  0
    8.8727   -0.8510   22.5712 C   0  0  0  0  0  0  0  0  0  0  0  0
    8.0821    0.0740   22.7245 O   0  0  0  0  0  0  0  0  0  0  0  0
   10.2252   -0.6898   22.5237 N   0  0  0  0  0  0  0  0  0  0  0  0
   11.0240    0.4784   22.6279 C   0  0  0  0  0  0  0  0  0  0  0  0
   12.3789    0.4744   22.9398 C   0  0  0  0  0  0  0  0  0  0  0  0
   13.0658    1.6697   23.0176 C   0  0  0  0  0  0  0  0  0  0  0  0
   12.4529    2.9009   22.8031 C   0  0  0  0  0  0  0  0  0  0  0  0
   13.2897    4.1486   22.9265 C   0  0  0  0  0  0  0  0  0  0  0  0
   11.0805    2.9159   22.4912 C   0  0  0  0  0  0  0  0  0  0  0  0
   10.4429    4.1504   22.2784 N   0  0  0  0  0  0  0  0  0  0  0  0
   10.1267    5.2146   23.0745 C   0  0  0  0  0  0  0  0  0  0  0  0
    9.1353    6.0350   22.6942 N   0  0  0  0  0  0  0  0  0  0  0  0
    8.8771    7.0525   23.5249 C   0  0  0  0  0  0  0  0  0  0  0  0
    9.5645    7.2696   24.7014 C   0  0  0  0  0  0  0  0  0  0  0  0
   10.5696    6.3652   25.0071 C   0  0  0  0  0  0  0  0  0  0  0  0
   10.8564    5.3321   24.1965 N   0  0  0  0  0  0  0  0  0  0  0  0
   11.3914    6.4752   26.2410 C   0  0  0  0  0  0  0  0  0  0  0  0
   10.8519    6.2468   27.5017 C   0  0  0  0  0  0  0  0  0  0  0  0
   11.6498    6.3591   28.6267 C   0  0  0  0  0  0  0  0  0  0  0  0
   12.9729    6.6985   28.4614 C   0  0  0  0  0  0  0  0  0  0  0  0
   13.5244    6.9247   27.2685 N   0  0  0  0  0  0  0  0  0  0  0  0
   12.7381    6.8115   26.1937 C   0  0  0  0  0  0  0  0  0  0  0  0
   10.3994    1.7001   22.3992 C   0  0  0  0  0  0  0  0  0  0  0  0
    4.3600   -6.3118   22.4193 C   0  0  0  0  0  0  0  0  0  0  0  0
    3.2238   -6.6211   23.3554 C   0  0  0  0  0  0  0  0  0  0  0  0
  1  2  1  0
  2  3  1  0
  3  4  1  0
  4  5  1  0
  5  6  1  0
  6  7  1  0
  7  8  2  0
  8  9  1  0
  9 10  2  0
 10 11  1  0
 11 12  2  0
 10 13  1  0
 13 14  2  0
 13 15  1  0
 15 16  1  0
 16 17  2  0
 17 18  1  0
 18 19  2  0
 19 20  1  0
 19 21  1  0
 21 22  1  0
 22 23  1  0
 23 24  2  0
 24 25  1  0
 25 26  2  0
 26 27  1  0
 27 28  2  0
 27 29  1  0
 29 30  2  0
 30 31  1  0
 31 32  2  0
 32 33  1  0
 33 34  2  0
 21 35  2  0
  5 36  1  0
 36 37  1  0
 37  2  1  0
 12  7  1  0
 35 16  1  0
 28 23  1  0
 34 29  1  0
M  END
