CVD-0002664|dock_bobby27042020.33|mol2|26|dock2
     RDKit          3D

 28 31  0  0  0  0  0  0  0  0999 V2000
    3.9951    3.1482   21.1047 C   0  0  0  0  0  0  0  0  0  0  0  0
    4.8531    2.0625   20.5220 C   0  0  0  0  0  0  0  0  0  0  0  0
    6.1031    1.6657   20.8375 C   0  0  0  0  0  0  0  0  0  0  0  0
    6.5584    0.6087   20.0278 N   0  0  0  0  0  0  0  0  0  0  0  0
    7.8731   -0.0226   20.2194 C   0  0  0  0  0  0  0  0  0  0  0  0
    7.8790   -1.1856   21.1883 C   0  0  0  0  0  0  0  0  0  0  0  0
    6.6946   -1.6918   21.6691 C   0  0  0  0  0  0  0  0  0  0  0  0
    6.5928   -2.7062   22.5289 N   0  0  0  0  0  0  0  0  0  0  0  0
    7.7503   -3.2264   22.9100 C   0  0  0  0  0  0  0  0  0  0  0  0
    8.9695   -2.8465   22.5304 N   0  0  0  0  0  0  0  0  0  0  0  0
    9.0459   -1.8222   21.6667 C   0  0  0  0  0  0  0  0  0  0  0  0
   10.2632   -1.4038   21.2568 N   0  0  0  0  0  0  0  0  0  0  0  0
   11.3403   -0.7102   21.9747 C   0  0  0  0  0  0  0  0  0  0  0  0
   10.9909   -0.5318   23.4664 C   0  0  0  0  0  0  0  0  0  0  0  0
   12.1231    0.1222   24.2562 C   0  0  0  0  0  0  0  0  0  0  0  0
   13.4322   -0.6364   24.0802 C   0  0  0  0  0  0  0  0  0  0  0  0
   13.7889   -0.7821   22.6079 C   0  0  0  0  0  0  0  0  0  0  0  0
   12.6695   -1.4715   21.8345 C   0  0  0  0  0  0  0  0  0  0  0  0
    5.6177    0.2202   19.0881 C   0  0  0  0  0  0  0  0  0  0  0  0
    4.1709    1.1536   19.2273 S   0  0  0  0  0  0  0  0  0  0  0  0
    5.6279   -0.7382   18.1059 C   0  0  0  0  0  0  0  0  0  0  0  0
    6.6113   -1.5685   17.7767 O   0  0  0  0  0  0  0  0  0  0  0  0
    6.9021    2.2861   21.9270 C   0  0  0  0  0  0  0  0  0  0  0  0
    7.1686    3.6481   21.9497 C   0  0  0  0  0  0  0  0  0  0  0  0
    7.8826    4.2477   22.9057 N   0  0  0  0  0  0  0  0  0  0  0  0
    8.3401    3.4507   23.8646 C   0  0  0  0  0  0  0  0  0  0  0  0
    8.1643    2.1380   23.9652 N   0  0  0  0  0  0  0  0  0  0  0  0
    7.4477    1.5755   22.9887 C   0  0  0  0  0  0  0  0  0  0  0  0
  1  2  1  0
  2  3  2  0
  3  4  1  0
  4  5  1  0
  5  6  1  0
  6  7  2  0
  7  8  1  0
  8  9  2  0
  9 10  1  0
 10 11  2  0
 11 12  1  0
 12 13  1  0
 13 14  1  0
 14 15  1  0
 15 16  1  0
 16 17  1  0
 17 18  1  0
  4 19  1  0
 19 20  1  0
 19 21  2  0
 21 22  1  0
  3 23  1  0
 23 24  2  0
 24 25  1  0
 25 26  2  0
 26 27  1  0
 27 28  2  0
 20  2  1  0
 28 23  1  0
 11  6  1  0
 18 13  1  0
M  END
