CVD-0002874|dock_bobby27042020.4|mol2|14|dock3
     RDKit          3D

 28 31  0  0  0  0  0  0  0  0999 V2000
    5.6180   -2.3536   18.7819 O   0  0  0  0  0  0  0  0  0  0  0  0
    6.1659   -2.9129   19.7247 C   0  0  0  0  0  0  0  0  0  0  0  0
    6.9300   -2.3243   20.6969 N   0  0  0  0  0  0  0  0  0  0  0  0
    7.2196   -0.8857   20.7309 C   0  0  0  0  0  0  0  0  0  0  0  0
    8.5393   -0.5638   20.0499 C   0  0  0  0  0  0  0  0  0  0  0  0
    9.6822   -0.8766   20.9085 N   0  0  0  0  0  0  0  0  0  0  0  0
   10.1419   -2.1374   21.0625 N   0  0  0  0  0  0  0  0  0  0  0  0
   11.1418   -2.0590   21.8888 N   0  0  0  0  0  0  0  0  0  0  0  0
   11.3498   -0.7838   22.3064 N   0  0  0  0  0  0  0  0  0  0  0  0
   10.4380   -0.0635   21.6898 C   0  0  0  0  0  0  0  0  0  0  0  0
   10.2864    1.6959   21.9176 S   0  0  0  0  0  0  0  0  0  0  0  0
   11.1734    2.3295   20.9851 O   0  0  0  0  0  0  0  0  0  0  0  0
    8.8892    2.0188   21.8878 O   0  0  0  0  0  0  0  0  0  0  0  0
   10.9082    1.9353   23.5731 C   0  0  0  0  0  0  0  0  0  0  0  0
   11.2389    3.3778   23.8444 C   0  0  0  0  0  0  0  0  0  0  0  0
   10.2566    4.2618   24.2630 C   0  0  0  0  0  0  0  0  0  0  0  0
   10.5617    5.5888   24.5159 C   0  0  0  0  0  0  0  0  0  0  0  0
   11.8523    6.0454   24.3537 C   0  0  0  0  0  0  0  0  0  0  0  0
   12.8379    5.1755   23.9391 C   0  0  0  0  0  0  0  0  0  0  0  0
   12.5330    3.8484   23.6863 C   0  0  0  0  0  0  0  0  0  0  0  0
    7.4173   -3.2524   21.6212 C   0  0  0  0  0  0  0  0  0  0  0  0
    8.2256   -3.0615   22.7372 C   0  0  0  0  0  0  0  0  0  0  0  0
    8.5725   -4.1639   23.5039 C   0  0  0  0  0  0  0  0  0  0  0  0
    8.1299   -5.4300   23.1761 C   0  0  0  0  0  0  0  0  0  0  0  0
    7.3249   -5.6308   22.0672 C   0  0  0  0  0  0  0  0  0  0  0  0
    6.9646   -4.5388   21.2818 C   0  0  0  0  0  0  0  0  0  0  0  0
    6.1393   -4.4242   20.0634 C   0  0  0  0  0  0  0  0  0  0  0  0
    5.5545   -5.3019   19.4380 O   0  0  0  0  0  0  0  0  0  0  0  0
  1  2  2  0
  2  3  1  0
  3  4  1  0
  4  5  1  0
  5  6  1  0
  6  7  1  0
  7  8  2  0
  8  9  1  0
  9 10  2  0
 10 11  1  0
 11 12  2  0
 11 13  2  0
 11 14  1  0
 14 15  1  0
 15 16  2  0
 16 17  1  0
 17 18  2  0
 18 19  1  0
 19 20  2  0
  3 21  1  0
 21 22  2  0
 22 23  1  0
 23 24  2  0
 24 25  1  0
 25 26  2  0
 26 27  1  0
 27 28  2  0
 27  2  1  0
 10  6  1  0
 20 15  1  0
 26 21  1  0
M  END
