CVD-0003899|dock_bobby27042020.0|mol2|28|dock3
     RDKit          3D

 30 33  0  0  0  0  0  0  0  0999 V2000
    7.3829   -0.9980   19.3340 O   0  0  0  0  0  0  0  0  0  0  0  0
    7.4102    0.4186   19.3092 C   0  0  0  0  0  0  0  0  0  0  0  0
    6.0579    1.0178   19.6073 C   0  0  0  0  0  0  0  0  0  0  0  0
    5.2968    1.5780   18.5868 C   0  0  0  0  0  0  0  0  0  0  0  0
    4.0652    2.1198   18.8935 C   0  0  0  0  0  0  0  0  0  0  0  0
    3.5579    2.1373   20.1258 N   0  0  0  0  0  0  0  0  0  0  0  0
    4.3035    1.5961   21.0940 C   0  0  0  0  0  0  0  0  0  0  0  0
    5.5410    1.0308   20.9071 C   0  0  0  0  0  0  0  0  0  0  0  0
    6.2925    0.4456   22.0820 C   0  0  0  0  0  0  0  0  0  0  0  0
    7.0348    1.5172   22.9073 C   0  0  0  0  0  0  0  0  0  0  0  0
    8.0612    0.9278   23.8442 C   0  0  0  0  0  0  0  0  0  0  0  0
    7.7691    0.6906   25.1773 C   0  0  0  0  0  0  0  0  0  0  0  0
    8.7451    0.1528   25.9924 C   0  0  0  0  0  0  0  0  0  0  0  0
    9.9775   -0.1590   25.5705 N   0  0  0  0  0  0  0  0  0  0  0  0
   10.2659    0.0695   24.2842 C   0  0  0  0  0  0  0  0  0  0  0  0
    9.3354    0.6110   23.3932 C   0  0  0  0  0  0  0  0  0  0  0  0
   11.6969   -0.3091   23.8641 C   0  0  0  0  0  0  0  0  0  0  0  0
   11.7837   -1.1994   22.6250 C   0  0  0  0  0  0  0  0  0  0  0  0
   13.2277   -1.4864   22.2532 C   0  0  0  0  0  0  0  0  0  0  0  0
   13.9925   -2.0919   23.4121 C   0  0  0  0  0  0  0  0  0  0  0  0
   13.9167   -1.2032   24.6425 C   0  0  0  0  0  0  0  0  0  0  0  0
   12.4741   -0.9147   25.0283 C   0  0  0  0  0  0  0  0  0  0  0  0
   12.2329    1.0229   23.5310 C   0  0  0  0  0  0  0  0  0  0  0  0
   12.6142    2.1270   23.2847 C   0  0  0  0  0  0  0  0  0  0  0  0
   12.9938    3.4889   23.0165 C   0  0  0  0  0  0  0  0  0  0  0  0
   12.2205    4.5402   23.4986 C   0  0  0  0  0  0  0  0  0  0  0  0
   12.6243    5.8333   23.2159 C   0  0  0  0  0  0  0  0  0  0  0  0
   13.7665    6.0435   22.4746 C   0  0  0  0  0  0  0  0  0  0  0  0
   14.4706    4.9442   22.0380 C   0  0  0  0  0  0  0  0  0  0  0  0
   14.1123    3.6781   22.2907 N   0  0  0  0  0  0  0  0  0  0  0  0
  1  2  1  0
  2  3  1  0
  3  4  2  0
  4  5  1  0
  5  6  2  0
  6  7  1  0
  7  8  2  0
  8  9  1  0
  9 10  1  0
 10 11  1  0
 11 12  2  0
 12 13  1  0
 13 14  2  0
 14 15  1  0
 15 16  2  0
 15 17  1  0
 17 18  1  0
 18 19  1  0
 19 20  1  0
 20 21  1  0
 21 22  1  0
 17 23  1  0
 23 24  3  0
 24 25  1  0
 25 26  2  0
 26 27  1  0
 27 28  2  0
 28 29  1  0
 29 30  2  0
  8  3  1  0
 16 11  1  0
 22 17  1  0
 30 25  1  0
M  END
