CVD-0003443|dock_bobby27042020.73|mol2|42|dock3
     RDKit          3D

 20 22  0  0  0  0  0  0  0  0999 V2000
    9.9803    2.5115   21.4896 F   0  0  0  0  0  0  0  0  0  0  0  0
   11.0858    1.8393   21.8040 C   0  0  0  0  0  0  0  0  0  0  0  0
   12.0938    2.6438   22.1947 N   0  0  0  0  0  0  0  0  0  0  0  0
   13.2474    2.1184   22.5358 C   0  0  0  0  0  0  0  0  0  0  0  0
   13.4842    0.7181   22.5111 C   0  0  0  0  0  0  0  0  0  0  0  0
   14.5524   -0.0202   22.8085 N   0  0  0  0  0  0  0  0  0  0  0  0
   14.1553   -1.3181   22.5827 C   0  0  0  0  0  0  0  0  0  0  0  0
   12.8732   -1.3841   22.1559 C   0  0  0  0  0  0  0  0  0  0  0  0
   12.4211   -0.0706   22.1034 N   0  0  0  0  0  0  0  0  0  0  0  0
   11.1851    0.4731   21.7365 C   0  0  0  0  0  0  0  0  0  0  0  0
   10.2052   -0.4614   21.3456 N   0  0  0  0  0  0  0  0  0  0  0  0
    9.0111   -0.8361   21.9036 C   0  0  0  0  0  0  0  0  0  0  0  0
    8.5203   -0.3959   22.9361 O   0  0  0  0  0  0  0  0  0  0  0  0
    8.2846   -1.8976   21.1073 C   0  0  0  0  0  0  0  0  0  0  0  0
    7.6866   -1.3729   19.7974 C   0  0  0  0  0  0  0  0  0  0  0  0
    7.1223    0.0519   19.9737 C   0  0  0  0  0  0  0  0  0  0  0  0
    6.4539    0.5754   18.7039 C   0  0  0  0  0  0  0  0  0  0  0  0
    5.3842   -0.3865   18.2031 C   0  0  0  0  0  0  0  0  0  0  0  0
    5.9534   -1.7834   18.0003 C   0  0  0  0  0  0  0  0  0  0  0  0
    6.5838   -2.3142   19.2838 C   0  0  0  0  0  0  0  0  0  0  0  0
  1  2  1  0
  2  3  1  0
  3  4  2  0
  4  5  1  0
  5  6  2  0
  6  7  1  0
  7  8  2  0
  8  9  1  0
  9 10  1  0
 10 11  1  0
 11 12  1  0
 12 13  2  0
 12 14  1  0
 14 15  1  0
 15 16  1  0
 16 17  1  0
 17 18  1  0
 18 19  1  0
 19 20  1  0
 10  2  2  0
 20 15  1  0
  9  5  1  0
M  END
