CVD-0001425|dock_bobby27042020.24|mol2|1|dock1
     RDKit          3D

 32 36  0  0  0  0  0  0  0  0999 V2000
    0.7079    4.4528   17.8827 C   0  0  0  0  0  0  0  0  0  0  0  0
    1.8694    3.6044   18.2892 C   0  0  0  0  0  0  0  0  0  0  0  0
    2.9771    3.5146   17.5334 N   0  0  0  0  0  0  0  0  0  0  0  0
    3.9166    2.6916   18.0737 N   0  0  0  0  0  0  0  0  0  0  0  0
    3.3837    2.2414   19.2180 C   0  0  0  0  0  0  0  0  0  0  0  0
    2.0590    2.8113   19.3958 C   0  0  0  0  0  0  0  0  0  0  0  0
    1.0901    2.5878   20.5213 C   0  0  0  0  0  0  0  0  0  0  0  0
    4.1071    1.3252   20.0770 C   0  0  0  0  0  0  0  0  0  0  0  0
    4.3100    1.4368   21.4354 C   0  0  0  0  0  0  0  0  0  0  0  0
    5.0416    0.3753   21.8944 N   0  0  0  0  0  0  0  0  0  0  0  0
    5.3322   -0.4545   20.8387 C   0  0  0  0  0  0  0  0  0  0  0  0
    6.0546   -1.6581   20.8177 C   0  0  0  0  0  0  0  0  0  0  0  0
    6.1924   -2.2963   19.5860 C   0  0  0  0  0  0  0  0  0  0  0  0
    5.6421   -1.7652   18.4296 C   0  0  0  0  0  0  0  0  0  0  0  0
    4.9322   -0.5752   18.4650 C   0  0  0  0  0  0  0  0  0  0  0  0
    4.7666    0.0988   19.6742 C   0  0  0  0  0  0  0  0  0  0  0  0
    6.6578   -2.2488   22.0779 C   0  0  0  0  0  0  0  0  0  0  0  0
    6.0562   -3.6259   22.4053 C   0  0  0  0  0  0  0  0  0  0  0  0
    7.0501   -4.2697   23.3531 C   0  0  0  0  0  0  0  0  0  0  0  0
    7.1313   -5.7741   23.1700 C   0  0  0  0  0  0  0  0  0  0  0  0
    7.3926   -6.1395   21.8208 O   0  0  0  0  0  0  0  0  0  0  0  0
    8.4123   -3.6454   23.0352 C   0  0  0  0  0  0  0  0  0  0  0  0
    8.1485   -2.5808   21.9684 C   0  0  0  0  0  0  0  0  0  0  0  0
    9.0042   -1.3382   22.1254 C   0  0  0  0  0  0  0  0  0  0  0  0
    8.4961   -0.2377   22.3194 O   0  0  0  0  0  0  0  0  0  0  0  0
   10.3328   -1.5895   22.0278 N   0  0  0  0  0  0  0  0  0  0  0  0
   11.4497   -0.7219   22.1138 C   0  0  0  0  0  0  0  0  0  0  0  0
   11.3799    0.6551   21.9280 C   0  0  0  0  0  0  0  0  0  0  0  0
   12.5344    1.4114   22.0346 C   0  0  0  0  0  0  0  0  0  0  0  0
   13.7203    0.7760   22.3224 C   0  0  0  0  0  0  0  0  0  0  0  0
   13.8180   -0.5406   22.5057 N   0  0  0  0  0  0  0  0  0  0  0  0
   12.6982   -1.2617   22.4006 C   0  0  0  0  0  0  0  0  0  0  0  0
  1  2  1  0
  2  3  1  0
  3  4  1  0
  4  5  2  0
  5  6  1  0
  6  7  1  0
  5  8  1  0
  8  9  2  0
  9 10  1  0
 10 11  1  0
 11 12  2  0
 12 13  1  0
 13 14  2  0
 14 15  1  0
 15 16  2  0
 12 17  1  0
 17 18  1  0
 18 19  1  0
 19 20  1  0
 20 21  1  0
 19 22  1  0
 22 23  1  0
 23 24  1  0
 24 25  2  0
 24 26  1  0
 26 27  1  0
 27 28  2  0
 28 29  1  0
 29 30  2  0
 30 31  1  0
 31 32  2  0
  6  2  2  0
 16  8  1  0
 23 17  1  0
 32 27  1  0
 16 11  1  0
M  END
