CVD-0003537|dock_bobby27042020.30|mol2|35|dock3
     RDKit          3D

 18 19  0  0  0  0  0  0  0  0999 V2000
    7.5403    1.1600   23.3324 N   0  0  0  0  0  0  0  0  0  0  0  0
    8.4022    0.4368   23.0794 C   0  0  0  0  0  0  0  0  0  0  0  0
    9.4866   -0.2784   22.8272 N   0  0  0  0  0  0  0  0  0  0  0  0
    9.8130   -0.8578   21.6592 C   0  0  0  0  0  0  0  0  0  0  0  0
    9.0758   -0.8871   20.5036 N   0  0  0  0  0  0  0  0  0  0  0  0
    7.7831   -0.4229   20.1475 C   0  0  0  0  0  0  0  0  0  0  0  0
    6.6675   -0.5772   20.9651 C   0  0  0  0  0  0  0  0  0  0  0  0
    5.4346   -0.0874   20.5675 C   0  0  0  0  0  0  0  0  0  0  0  0
    5.2928    0.5360   19.3472 C   0  0  0  0  0  0  0  0  0  0  0  0
    6.3845    0.6687   18.5175 C   0  0  0  0  0  0  0  0  0  0  0  0
    7.6235    0.1911   18.9104 C   0  0  0  0  0  0  0  0  0  0  0  0
   11.0083   -1.5054   21.5224 N   0  0  0  0  0  0  0  0  0  0  0  0
   12.0682   -1.7590   22.4338 C   0  0  0  0  0  0  0  0  0  0  0  0
   11.7253   -2.1165   23.7320 C   0  0  0  0  0  0  0  0  0  0  0  0
   12.7148   -2.3761   24.6634 C   0  0  0  0  0  0  0  0  0  0  0  0
   14.0287   -2.2719   24.2729 C   0  0  0  0  0  0  0  0  0  0  0  0
   14.3945   -1.9316   23.0377 N   0  0  0  0  0  0  0  0  0  0  0  0
   13.4311   -1.6819   22.1451 C   0  0  0  0  0  0  0  0  0  0  0  0
  1  2  3  0
  2  3  1  0
  3  4  2  0
  4  5  1  0
  5  6  1  0
  6  7  2  0
  7  8  1  0
  8  9  2  0
  9 10  1  0
 10 11  2  0
  4 12  1  0
 12 13  1  0
 13 14  2  0
 14 15  1  0
 15 16  2  0
 16 17  1  0
 17 18  2  0
 11  6  1  0
 18 13  1  0
M  END
