CVD-0001923|dock_bobby27042020.36|mol2|31|dock2
     RDKit          3D

 22 24  0  0  0  0  0  0  0  0999 V2000
   14.6140   -1.8441   25.6745 C   0  0  0  0  0  0  0  0  0  0  0  0
   13.7434   -1.8571   24.4966 N   0  0  0  0  0  0  0  0  0  0  0  0
   12.3104   -1.6343   24.8054 C   0  0  0  0  0  0  0  0  0  0  0  0
   11.4123   -2.5448   23.9526 C   0  0  0  0  0  0  0  0  0  0  0  0
   11.4968   -2.1590   22.4784 C   0  0  0  0  0  0  0  0  0  0  0  0
   11.1144   -0.6949   22.2731 C   0  0  0  0  0  0  0  0  0  0  0  0
   11.9429    0.2342   23.1434 C   0  0  0  0  0  0  0  0  0  0  0  0
   11.8963   -0.1768   24.6193 C   0  0  0  0  0  0  0  0  0  0  0  0
   11.6023    1.7079   22.9264 C   0  0  0  0  0  0  0  0  0  0  0  0
   10.1129    2.0895   23.1387 C   0  0  0  0  0  0  0  0  0  0  0  0
    9.9862    3.5887   22.9376 C   0  0  0  0  0  0  0  0  0  0  0  0
    8.7767    4.1746   22.5344 C   0  0  0  0  0  0  0  0  0  0  0  0
    7.6805    3.4221   22.2144 O   0  0  0  0  0  0  0  0  0  0  0  0
    8.6393    5.5610   22.4970 C   0  0  0  0  0  0  0  0  0  0  0  0
    7.4590    6.0961   22.0899 O   0  0  0  0  0  0  0  0  0  0  0  0
    9.6960    6.3833   22.8574 C   0  0  0  0  0  0  0  0  0  0  0  0
   10.8898    5.8135   23.2553 C   0  0  0  0  0  0  0  0  0  0  0  0
   11.0506    4.4284   23.3004 C   0  0  0  0  0  0  0  0  0  0  0  0
   12.4030    3.8505   23.6370 C   0  0  0  0  0  0  0  0  0  0  0  0
   13.3966    4.0609   22.5013 C   0  0  0  0  0  0  0  0  0  0  0  0
   13.8679    5.4603   22.4035 N   0  0  0  0  0  0  0  0  0  0  0  0
   12.3547    2.4542   23.9053 O   0  0  0  0  0  0  0  0  0  0  0  0
  1  2  1  0
  2  3  1  0
  3  4  1  0
  4  5  1  0
  5  6  1  0
  6  7  1  0
  7  8  1  0
  7  9  1  0
  9 10  1  0
 10 11  1  0
 11 12  2  0
 12 13  1  0
 12 14  1  0
 14 15  1  0
 14 16  2  0
 16 17  1  0
 17 18  2  0
 18 19  1  0
 19 20  1  0
 20 21  1  0
 19 22  1  0
  8  3  1  0
 22  9  1  0
 18 11  1  0
M  END
