CVD-0003163|dock_bobby27042020.88|mol2|44|dock1
     RDKit          3D

 22 24  0  0  0  0  0  0  0  0999 V2000
    9.0854   -3.6799   23.3766 C   0  0  0  0  0  0  0  0  0  0  0  0
    8.3855   -2.8861   22.3205 C   0  0  0  0  0  0  0  0  0  0  0  0
    7.2265   -3.2850   21.6976 C   0  0  0  0  0  0  0  0  0  0  0  0
    6.5539   -4.5873   22.0327 C   0  0  0  0  0  0  0  0  0  0  0  0
    6.5907   -2.4680   20.7066 C   0  0  0  0  0  0  0  0  0  0  0  0
    5.5460   -2.8084   20.1626 O   0  0  0  0  0  0  0  0  0  0  0  0
    7.2274   -1.2333   20.3971 N   0  0  0  0  0  0  0  0  0  0  0  0
    6.6126   -0.3821   19.3943 C   0  0  0  0  0  0  0  0  0  0  0  0
    5.3145    0.0921   19.5387 C   0  0  0  0  0  0  0  0  0  0  0  0
    4.7669    0.8995   18.5575 C   0  0  0  0  0  0  0  0  0  0  0  0
    5.5323    1.2087   17.4576 C   0  0  0  0  0  0  0  0  0  0  0  0
    6.7791    0.7680   17.2915 N   0  0  0  0  0  0  0  0  0  0  0  0
    7.2983   -0.0075   18.2484 C   0  0  0  0  0  0  0  0  0  0  0  0
    8.4132   -0.7998   21.0055 C   0  0  0  0  0  0  0  0  0  0  0  0
    8.9617    0.2519   20.7140 O   0  0  0  0  0  0  0  0  0  0  0  0
    8.9665   -1.6510   21.9673 N   0  0  0  0  0  0  0  0  0  0  0  0
   10.1879   -1.1946   22.5952 C   0  0  0  0  0  0  0  0  0  0  0  0
   11.4168   -1.5035   22.0242 C   0  0  0  0  0  0  0  0  0  0  0  0
   12.5906   -1.0742   22.6210 C   0  0  0  0  0  0  0  0  0  0  0  0
   12.5510   -0.3389   23.7857 C   0  0  0  0  0  0  0  0  0  0  0  0
   11.3367   -0.0298   24.3594 C   0  0  0  0  0  0  0  0  0  0  0  0
   10.1569   -0.4539   23.7711 C   0  0  0  0  0  0  0  0  0  0  0  0
  1  2  1  0
  2  3  2  0
  3  4  1  0
  3  5  1  0
  5  6  2  0
  5  7  1  0
  7  8  1  0
  8  9  2  0
  9 10  1  0
 10 11  2  0
 11 12  1  0
 12 13  2  0
  7 14  1  0
 14 15  2  0
 14 16  1  0
 16 17  1  0
 17 18  2  0
 18 19  1  0
 19 20  2  0
 20 21  1  0
 21 22  2  0
 16  2  1  0
 22 17  1  0
 13  8  1  0
M  END
