CVD-0001217|dock_bobby27042020.39|mol2|2|dock2
     RDKit          3D

 22 24  0  0  0  0  0  0  0  0999 V2000
    9.7937    3.8787   22.8731 C   0  0  0  0  0  0  0  0  0  0  0  0
   11.2837    3.6714   22.7817 C   0  0  0  0  0  0  0  0  0  0  0  0
   12.1016    4.7888   22.6441 C   0  0  0  0  0  0  0  0  0  0  0  0
   13.4669    4.6311   22.5613 C   0  0  0  0  0  0  0  0  0  0  0  0
   14.0644    3.4440   22.6065 N   0  0  0  0  0  0  0  0  0  0  0  0
   13.2893    2.3631   22.7396 C   0  0  0  0  0  0  0  0  0  0  0  0
   11.8978    2.4049   22.8331 C   0  0  0  0  0  0  0  0  0  0  0  0
   11.0701    1.2560   22.9756 N   0  0  0  0  0  0  0  0  0  0  0  0
   11.2997   -0.0388   22.6447 C   0  0  0  0  0  0  0  0  0  0  0  0
   12.3225   -0.4809   22.1325 O   0  0  0  0  0  0  0  0  0  0  0  0
   10.1416   -0.9503   22.9719 C   0  0  0  0  0  0  0  0  0  0  0  0
   10.0337   -2.1222   22.0162 C   0  0  0  0  0  0  0  0  0  0  0  0
    9.4167   -1.7359   20.7577 N   0  0  0  0  0  0  0  0  0  0  0  0
    8.1239   -1.2601   20.6446 C   0  0  0  0  0  0  0  0  0  0  0  0
    7.1968   -1.4595   21.6645 C   0  0  0  0  0  0  0  0  0  0  0  0
    5.9015   -0.9854   21.5514 C   0  0  0  0  0  0  0  0  0  0  0  0
    5.5264   -0.2997   20.4021 C   0  0  0  0  0  0  0  0  0  0  0  0
    4.3580    0.2722   20.0068 N   0  0  0  0  0  0  0  0  0  0  0  0
    4.4689    0.8432   18.7724 N   0  0  0  0  0  0  0  0  0  0  0  0
    5.7110    0.6329   18.3834 C   0  0  0  0  0  0  0  0  0  0  0  0
    6.4443   -0.0855   19.3618 C   0  0  0  0  0  0  0  0  0  0  0  0
    7.7525   -0.5731   19.4925 C   0  0  0  0  0  0  0  0  0  0  0  0
  1  2  1  0
  2  3  2  0
  3  4  1  0
  4  5  2  0
  5  6  1  0
  6  7  2  0
  7  8  1  0
  8  9  1  0
  9 10  2  0
  9 11  1  0
 11 12  1  0
 12 13  1  0
 13 14  1  0
 14 15  2  0
 15 16  1  0
 16 17  2  0
 17 18  1  0
 18 19  1  0
 19 20  2  0
 20 21  1  0
 21 22  2  0
  7  2  1  0
 22 14  1  0
 21 17  1  0
M  END
