CVD-0003825|dock_bobby27042020.72|mol2|34|dock2
     RDKit          3D

 25 27  0  0  0  0  0  0  0  0999 V2000
    5.6654   -2.9828   23.0238 C   0  0  0  0  0  0  0  0  0  0  0  0
    7.0494   -2.6383   23.3127 N   0  0  0  0  0  0  0  0  0  0  0  0
    7.5942   -1.5138   22.5243 C   0  0  0  0  0  0  0  0  0  0  0  0
    9.0460   -1.7001   22.2124 C   0  0  0  0  0  0  0  0  0  0  0  0
    9.6517   -0.5177   21.4738 C   0  0  0  0  0  0  0  0  0  0  0  0
    9.3802    0.7165   22.1939 N   0  0  0  0  0  0  0  0  0  0  0  0
    7.9696    0.9707   22.4598 C   0  0  0  0  0  0  0  0  0  0  0  0
    7.3855   -0.1953   23.2524 C   0  0  0  0  0  0  0  0  0  0  0  0
   10.3608    1.6814   22.3991 C   0  0  0  0  0  0  0  0  0  0  0  0
   10.1007    3.0273   22.1578 C   0  0  0  0  0  0  0  0  0  0  0  0
   11.0659    3.9968   22.3647 C   0  0  0  0  0  0  0  0  0  0  0  0
   12.3223    3.6272   22.8090 C   0  0  0  0  0  0  0  0  0  0  0  0
   12.6100    2.2958   23.0485 C   0  0  0  0  0  0  0  0  0  0  0  0
   11.6319    1.3374   22.8511 C   0  0  0  0  0  0  0  0  0  0  0  0
   13.5656    4.8573   23.0614 S   0  0  0  0  0  0  0  0  0  0  0  0
   13.5986    5.8157   21.7794 N   0  0  0  0  0  0  0  0  0  0  0  0
   13.1564    5.6566   24.1771 O   0  0  0  0  0  0  0  0  0  0  0  0
   14.8282    4.1839   23.1191 O   0  0  0  0  0  0  0  0  0  0  0  0
    7.7714   -3.4099   24.2388 C   0  0  0  0  0  0  0  0  0  0  0  0
    8.1008   -2.9294   25.5031 C   0  0  0  0  0  0  0  0  0  0  0  0
    8.8179   -3.7017   26.3994 C   0  0  0  0  0  0  0  0  0  0  0  0
    9.2344   -4.9816   26.0816 C   0  0  0  0  0  0  0  0  0  0  0  0
   10.0137   -5.8200   27.0654 C   0  0  0  0  0  0  0  0  0  0  0  0
    8.9032   -5.4651   24.8290 C   0  0  0  0  0  0  0  0  0  0  0  0
    8.1882   -4.7024   23.9226 C   0  0  0  0  0  0  0  0  0  0  0  0
  1  2  1  0
  2  3  1  0
  3  4  1  0
  4  5  1  0
  5  6  1  0
  6  7  1  0
  7  8  1  0
  6  9  1  0
  9 10  2  0
 10 11  1  0
 11 12  2  0
 12 13  1  0
 13 14  2  0
 12 15  1  0
 15 16  1  0
 15 17  2  0
 15 18  2  0
  2 19  1  0
 19 20  2  0
 20 21  1  0
 21 22  2  0
 22 23  1  0
 22 24  1  0
 24 25  2  0
  8  3  1  0
 14  9  1  0
 25 19  1  0
M  END
