CVD-0001100|dock_bobby27042020.53|mol2|42|dock3
     RDKit          3D

 17 18  0  0  0  0  0  0  0  0999 V2000
   12.7822    4.5154   22.2848 C   0  0  0  0  0  0  0  0  0  0  0  0
   11.3739    4.1679   22.6690 C   0  0  0  0  0  0  0  0  0  0  0  0
   10.5131    5.0279   22.8270 O   0  0  0  0  0  0  0  0  0  0  0  0
   11.1165    2.8704   22.8451 N   0  0  0  0  0  0  0  0  0  0  0  0
    9.8039    2.3762   23.2356 C   0  0  0  0  0  0  0  0  0  0  0  0
    9.8687    0.9590   23.7693 C   0  0  0  0  0  0  0  0  0  0  0  0
   10.5518    0.0086   22.8302 C   0  0  0  0  0  0  0  0  0  0  0  0
   10.1643   -0.3316   21.5677 C   0  0  0  0  0  0  0  0  0  0  0  0
   11.0436   -1.2288   21.0252 N   0  0  0  0  0  0  0  0  0  0  0  0
   12.0328   -1.4908   21.9411 C   0  0  0  0  0  0  0  0  0  0  0  0
   13.1453   -2.3229   21.8737 C   0  0  0  0  0  0  0  0  0  0  0  0
   13.9936   -2.3977   22.9649 C   0  0  0  0  0  0  0  0  0  0  0  0
   13.7381   -1.6518   24.1130 C   0  0  0  0  0  0  0  0  0  0  0  0
   12.6226   -0.8184   24.1787 C   0  0  0  0  0  0  0  0  0  0  0  0
   11.7553   -0.7280   23.0913 C   0  0  0  0  0  0  0  0  0  0  0  0
   14.6294   -1.7384   25.2434 C   0  0  0  0  0  0  0  0  0  0  0  0
   15.3547   -1.8278   26.1214 N   0  0  0  0  0  0  0  0  0  0  0  0
  1  2  1  0
  2  3  2  0
  2  4  1  0
  4  5  1  0
  5  6  1  0
  6  7  1  0
  7  8  2  0
  8  9  1  0
  9 10  1  0
 10 11  2  0
 11 12  1  0
 12 13  2  0
 13 14  1  0
 14 15  2  0
 13 16  1  0
 16 17  3  0
 15  7  1  0
 15 10  1  0
M  END
