CVD-0003598|dock_bobby27042020.16|mol2|9|dock3
     RDKit          3D

 27 30  0  0  0  0  0  0  0  0999 V2000
   12.2154    1.4814   23.6781 C   0  0  0  0  0  0  0  0  0  0  0  0
   12.4603    0.4238   22.6969 N   0  0  0  0  0  0  0  0  0  0  0  0
   13.8380   -0.0422   22.7321 C   0  0  0  0  0  0  0  0  0  0  0  0
   13.7723   -1.3182   21.9210 C   0  0  0  0  0  0  0  0  0  0  0  0
   12.4558   -1.9360   22.3793 C   0  0  0  0  0  0  0  0  0  0  0  0
   11.6303   -0.7775   22.9319 C   0  0  0  0  0  0  0  0  0  0  0  0
   10.2820   -0.5880   22.2347 C   0  0  0  0  0  0  0  0  0  0  0  0
    9.4474   -1.8339   22.2195 C   0  0  0  0  0  0  0  0  0  0  0  0
    9.4681   -2.8324   23.1488 C   0  0  0  0  0  0  0  0  0  0  0  0
    8.5770   -3.8155   22.8158 N   0  0  0  0  0  0  0  0  0  0  0  0
    7.9504   -3.4664   21.6451 C   0  0  0  0  0  0  0  0  0  0  0  0
    6.9766   -4.1178   20.8962 C   0  0  0  0  0  0  0  0  0  0  0  0
    6.5125   -3.5191   19.7377 C   0  0  0  0  0  0  0  0  0  0  0  0
    6.9967   -2.2892   19.3146 C   0  0  0  0  0  0  0  0  0  0  0  0
    6.4800   -1.6497   18.0485 C   0  0  0  0  0  0  0  0  0  0  0  0
    5.2526   -0.7764   18.3108 C   0  0  0  0  0  0  0  0  0  0  0  0
    5.6595    0.9175   18.6506 S   0  0  0  0  0  0  0  0  0  0  0  0
    6.1217    1.5184   17.4289 O   0  0  0  0  0  0  0  0  0  0  0  0
    6.5205    0.9634   19.8010 O   0  0  0  0  0  0  0  0  0  0  0  0
    4.1255    1.6697   19.0876 C   0  0  0  0  0  0  0  0  0  0  0  0
    3.6411    2.7238   18.3302 C   0  0  0  0  0  0  0  0  0  0  0  0
    2.4379    3.3110   18.6846 C   0  0  0  0  0  0  0  0  0  0  0  0
    1.7329    2.8529   19.7773 C   0  0  0  0  0  0  0  0  0  0  0  0
    2.2239    1.8046   20.5262 C   0  0  0  0  0  0  0  0  0  0  0  0
    3.4253    1.2040   20.1884 C   0  0  0  0  0  0  0  0  0  0  0  0
    7.9721   -1.6509   20.0717 C   0  0  0  0  0  0  0  0  0  0  0  0
    8.4689   -2.2218   21.2423 C   0  0  0  0  0  0  0  0  0  0  0  0
  1  2  1  0
  2  3  1  0
  3  4  1  0
  4  5  1  0
  5  6  1  0
  6  7  1  0
  7  8  1  0
  8  9  2  0
  9 10  1  0
 10 11  1  0
 11 12  2  0
 12 13  1  0
 13 14  2  0
 14 15  1  0
 15 16  1  0
 16 17  1  0
 17 18  2  0
 17 19  2  0
 17 20  1  0
 20 21  2  0
 21 22  1  0
 22 23  2  0
 23 24  1  0
 24 25  2  0
 14 26  1  0
 26 27  2  0
  6  2  1  0
 27  8  1  0
 27 11  1  0
 25 20  1  0
M  END
