CVD-0000681|dock_bobby27042020.55|mol2|15|dock2
     RDKit          3D

 25 27  0  0  0  0  0  0  0  0999 V2000
    4.9501    0.3305   18.6223 C   0  0  0  0  0  0  0  0  0  0  0  0
    5.8545   -1.1692   18.6144 S   0  0  0  0  0  0  0  0  0  0  0  0
    6.9932   -0.9964   17.7664 O   0  0  0  0  0  0  0  0  0  0  0  0
    4.9445   -2.2348   18.3273 O   0  0  0  0  0  0  0  0  0  0  0  0
    6.4074   -1.4113   20.0997 N   0  0  0  0  0  0  0  0  0  0  0  0
    7.2096   -0.3758   20.7591 C   0  0  0  0  0  0  0  0  0  0  0  0
    8.4469   -0.9369   21.4721 C   0  0  0  0  0  0  0  0  0  0  0  0
    9.1897    0.2214   22.1315 C   0  0  0  0  0  0  0  0  0  0  0  0
    8.6031    1.2566   22.3830 O   0  0  0  0  0  0  0  0  0  0  0  0
   10.5110    0.0892   22.4312 N   0  0  0  0  0  0  0  0  0  0  0  0
   11.1863   -1.2139   22.6391 C   0  0  0  0  0  0  0  0  0  0  0  0
   12.6681   -0.8525   22.8832 C   0  0  0  0  0  0  0  0  0  0  0  0
   12.7200    0.6378   22.6919 C   0  0  0  0  0  0  0  0  0  0  0  0
   13.7948    1.5181   22.7315 C   0  0  0  0  0  0  0  0  0  0  0  0
   13.5497    2.8488   22.4541 C   0  0  0  0  0  0  0  0  0  0  0  0
   12.3449    3.3370   22.1513 N   0  0  0  0  0  0  0  0  0  0  0  0
   11.3093    2.4883   22.1133 C   0  0  0  0  0  0  0  0  0  0  0  0
   11.4584    1.1356   22.3772 C   0  0  0  0  0  0  0  0  0  0  0  0
    8.0493   -1.9650   22.5202 C   0  0  0  0  0  0  0  0  0  0  0  0
    7.5442   -1.5673   23.7502 C   0  0  0  0  0  0  0  0  0  0  0  0
    7.1830   -2.4959   24.7101 C   0  0  0  0  0  0  0  0  0  0  0  0
    7.3368   -3.8237   24.4178 C   0  0  0  0  0  0  0  0  0  0  0  0
    6.9836   -4.7432   25.3561 F   0  0  0  0  0  0  0  0  0  0  0  0
    7.8311   -4.2649   23.2206 C   0  0  0  0  0  0  0  0  0  0  0  0
    8.1876   -3.3234   22.2717 C   0  0  0  0  0  0  0  0  0  0  0  0
  1  2  1  0
  2  3  2  0
  2  4  2  0
  2  5  1  0
  5  6  1  0
  7  6  1  0
  7  8  1  0
  8  9  2  0
  8 10  1  0
 10 11  1  0
 11 12  1  0
 12 13  1  0
 13 14  2  0
 14 15  1  0
 15 16  2  0
 16 17  1  0
 17 18  2  0
  7 19  1  0
 19 20  2  0
 20 21  1  0
 21 22  2  0
 22 23  1  0
 22 24  1  0
 24 25  2  0
 18 10  1  0
 25 19  1  0
 18 13  1  0
M  END
