CVD-0002935|dock_bobby27042020.32|mol2|33|dock2
     RDKit          3D

 21 23  0  0  0  0  0  0  0  0999 V2000
   13.3289    3.7271   22.5149 C   0  0  0  0  0  0  0  0  0  0  0  0
   12.7959    2.3504   22.7597 C   0  0  0  0  0  0  0  0  0  0  0  0
   13.5490    1.4929   23.1893 O   0  0  0  0  0  0  0  0  0  0  0  0
   11.3658    2.0170   22.5249 C   0  0  0  0  0  0  0  0  0  0  0  0
   10.4918    3.1059   22.4611 C   0  0  0  0  0  0  0  0  0  0  0  0
    9.1797    2.9782   22.0391 C   0  0  0  0  0  0  0  0  0  0  0  0
    8.6784    1.7382   21.6464 C   0  0  0  0  0  0  0  0  0  0  0  0
    7.3478    1.6093   21.1126 C   0  0  0  0  0  0  0  0  0  0  0  0
    6.3045    1.4874   20.6636 N   0  0  0  0  0  0  0  0  0  0  0  0
    9.5109    0.6286   21.7950 C   0  0  0  0  0  0  0  0  0  0  0  0
    9.2840   -0.6890   21.4774 N   0  0  0  0  0  0  0  0  0  0  0  0
   10.3087   -1.4433   21.9665 C   0  0  0  0  0  0  0  0  0  0  0  0
   10.3870   -2.6647   21.9085 O   0  0  0  0  0  0  0  0  0  0  0  0
   11.2096   -0.5900   22.5581 N   0  0  0  0  0  0  0  0  0  0  0  0
   12.3437   -1.0343   23.3341 C   0  0  0  0  0  0  0  0  0  0  0  0
   13.1662   -2.0400   22.8462 C   0  0  0  0  0  0  0  0  0  0  0  0
   14.2590   -2.4455   23.5915 C   0  0  0  0  0  0  0  0  0  0  0  0
   14.4958   -1.8301   24.7988 C   0  0  0  0  0  0  0  0  0  0  0  0
   13.7217   -0.8613   25.2885 N   0  0  0  0  0  0  0  0  0  0  0  0
   12.6649   -0.4814   24.5634 C   0  0  0  0  0  0  0  0  0  0  0  0
   10.8030    0.7355   22.3371 C   0  0  0  0  0  0  0  0  0  0  0  0
  1  2  1  0
  2  3  2  0
  2  4  1  0
  4  5  2  0
  5  6  1  0
  6  7  2  0
  7  8  1  0
  8  9  3  0
  7 10  1  0
 10 11  1  0
 11 12  1  0
 12 13  2  0
 12 14  1  0
 14 15  1  0
 15 16  2  0
 16 17  1  0
 17 18  2  0
 18 19  1  0
 19 20  2  0
 14 21  1  0
 21  4  1  0
 21 10  2  0
 20 15  1  0
M  END
