CVD-0002455|dock_bobby27042020.5|mol2|33|dock3
     RDKit          3D

 21 23  0  0  0  0  0  0  0  0999 V2000
   13.2222    5.2417   23.0674 C   0  0  0  0  0  0  0  0  0  0  0  0
   12.1940    4.1392   23.1430 C   0  0  0  0  0  0  0  0  0  0  0  0
   10.8692    4.3736   22.8123 C   0  0  0  0  0  0  0  0  0  0  0  0
    9.9195    3.3692   22.8747 C   0  0  0  0  0  0  0  0  0  0  0  0
   10.2920    2.0949   23.2721 C   0  0  0  0  0  0  0  0  0  0  0  0
    9.3753    1.0669   23.3473 O   0  0  0  0  0  0  0  0  0  0  0  0
    8.8650    0.4135   22.1579 C   0  0  0  0  0  0  0  0  0  0  0  0
    9.9247   -0.4462   21.4660 C   0  0  0  0  0  0  0  0  0  0  0  0
   10.2763   -1.7050   22.2642 C   0  0  0  0  0  0  0  0  0  0  0  0
    9.0114   -2.5142   22.5138 C   0  0  0  0  0  0  0  0  0  0  0  0
    7.9516   -1.6950   23.2446 C   0  0  0  0  0  0  0  0  0  0  0  0
    7.6290   -0.4271   22.4542 C   0  0  0  0  0  0  0  0  0  0  0  0
    9.3096   -3.7681   23.2371 N   0  0  0  0  0  0  0  0  0  0  0  0
    8.2963   -4.8046   23.0236 C   0  0  0  0  0  0  0  0  0  0  0  0
    8.7417   -6.1305   23.5988 C   0  0  0  0  0  0  0  0  0  0  0  0
    9.0621   -6.0218   25.0745 C   0  0  0  0  0  0  0  0  0  0  0  0
    9.5420   -7.2468   25.6391 O   0  0  0  0  0  0  0  0  0  0  0  0
   10.0697   -4.8949   25.2663 C   0  0  0  0  0  0  0  0  0  0  0  0
    9.5719   -3.5965   24.6605 C   0  0  0  0  0  0  0  0  0  0  0  0
   11.6110    1.8428   23.6074 C   0  0  0  0  0  0  0  0  0  0  0  0
   12.5465    2.8596   23.5400 C   0  0  0  0  0  0  0  0  0  0  0  0
  1  2  1  0
  2  3  2  0
  3  4  1  0
  4  5  2  0
  5  6  1  0
  6  7  1  0
  7  8  1  0
  8  9  1  0
  9 10  1  0
 10 11  1  0
 11 12  1  0
 10 13  1  0
 13 14  1  0
 14 15  1  0
 15 16  1  0
 16 17  1  0
 16 18  1  0
 18 19  1  0
  5 20  1  0
 20 21  2  0
 21  2  1  0
 12  7  1  0
 19 13  1  0
M  END
