CVD-0000254|dock_bobby27042020.99|mol2|15|dock1
     RDKit          3D

 27 30  0  0  0  0  0  0  0  0999 V2000
    5.3733    0.6143   18.0113 C   0  0  0  0  0  0  0  0  0  0  0  0
    5.5285   -1.1184   18.4359 S   0  0  0  0  0  0  0  0  0  0  0  0
    6.0782   -0.9843   20.1481 C   0  0  0  0  0  0  0  0  0  0  0  0
    6.3859   -2.3161   20.7498 C   0  0  0  0  0  0  0  0  0  0  0  0
    5.8509   -3.4268   20.2825 N   0  0  0  0  0  0  0  0  0  0  0  0
    6.3530   -4.4397   21.0945 C   0  0  0  0  0  0  0  0  0  0  0  0
    6.1311   -5.8157   21.0658 C   0  0  0  0  0  0  0  0  0  0  0  0
    6.7610   -6.6110   22.0113 C   0  0  0  0  0  0  0  0  0  0  0  0
    7.5941   -6.0626   22.9676 C   0  0  0  0  0  0  0  0  0  0  0  0
    7.8299   -4.6974   23.0111 C   0  0  0  0  0  0  0  0  0  0  0  0
    7.2001   -3.9029   22.0611 C   0  0  0  0  0  0  0  0  0  0  0  0
    7.2179   -2.5332   21.8161 N   0  0  0  0  0  0  0  0  0  0  0  0
    7.9405   -1.5268   22.5841 C   0  0  0  0  0  0  0  0  0  0  0  0
    9.3468   -1.3092   22.0527 C   0  0  0  0  0  0  0  0  0  0  0  0
    9.5987   -1.4026   20.8554 O   0  0  0  0  0  0  0  0  0  0  0  0
   10.2662   -1.0069   22.9719 N   0  0  0  0  0  0  0  0  0  0  0  0
   11.6680   -0.7546   22.6573 C   0  0  0  0  0  0  0  0  0  0  0  0
   12.5797   -1.9366   22.8335 C   0  0  0  0  0  0  0  0  0  0  0  0
   13.8692   -1.3449   23.1883 C   0  0  0  0  0  0  0  0  0  0  0  0
   13.6477   -0.0713   23.7559 O   0  0  0  0  0  0  0  0  0  0  0  0
   12.2777    0.3071   23.5691 C   0  0  0  0  0  0  0  0  0  0  0  0
   12.2038    1.7243   23.0640 C   0  0  0  0  0  0  0  0  0  0  0  0
   10.9908    2.3896   22.9676 C   0  0  0  0  0  0  0  0  0  0  0  0
   10.9739    3.6895   22.5018 C   0  0  0  0  0  0  0  0  0  0  0  0
   12.0675    4.3579   22.1330 N   0  0  0  0  0  0  0  0  0  0  0  0
   13.2293    3.7105   22.2308 C   0  0  0  0  0  0  0  0  0  0  0  0
   13.3470    2.4115   22.6844 C   0  0  0  0  0  0  0  0  0  0  0  0
  1  2  1  0
  2  3  1  0
  3  4  1  0
  4  5  2  0
  5  6  1  0
  6  7  2  0
  7  8  1  0
  8  9  2  0
  9 10  1  0
 10 11  2  0
 11 12  1  0
 12 13  1  0
 13 14  1  0
 14 15  2  0
 14 16  1  0
 16 17  1  0
 17 18  1  0
 18 19  1  0
 19 20  1  0
 20 21  1  0
 21 22  1  0
 22 23  2  0
 23 24  1  0
 24 25  2  0
 25 26  1  0
 26 27  2  0
 12  4  1  0
 21 17  1  0
 27 22  1  0
 11  6  1  0
M  END
