CVD-0000938|dock_bobby27042020.54|mol2|19|dock3
     RDKit          3D

 24 26  0  0  0  0  0  0  0  0999 V2000
   15.4412   -2.8064   24.4156 F   0  0  0  0  0  0  0  0  0  0  0  0
   14.4720   -1.9572   23.9797 C   0  0  0  0  0  0  0  0  0  0  0  0
   13.8616   -2.2175   22.7830 C   0  0  0  0  0  0  0  0  0  0  0  0
   12.8770   -1.3489   22.3464 C   0  0  0  0  0  0  0  0  0  0  0  0
   12.5127   -0.2399   23.0977 C   0  0  0  0  0  0  0  0  0  0  0  0
   13.1608   -0.0196   24.3050 C   0  0  0  0  0  0  0  0  0  0  0  0
   14.1477   -0.8782   24.7558 C   0  0  0  0  0  0  0  0  0  0  0  0
   11.4307    0.7074   22.6186 C   0  0  0  0  0  0  0  0  0  0  0  0
   11.8695    2.0961   22.6952 N   0  0  0  0  0  0  0  0  0  0  0  0
   13.1432    2.4751   22.5275 C   0  0  0  0  0  0  0  0  0  0  0  0
   14.0578    1.6862   22.2937 O   0  0  0  0  0  0  0  0  0  0  0  0
   13.4180    3.9201   22.6369 C   0  0  0  0  0  0  0  0  0  0  0  0
   14.1631    4.7579   21.8349 C   0  0  0  0  0  0  0  0  0  0  0  0
   14.1510    6.0856   22.3262 C   0  0  0  0  0  0  0  0  0  0  0  0
   13.4274    6.2348   23.4486 C   0  0  0  0  0  0  0  0  0  0  0  0
   12.7263    4.7651   23.9600 S   0  0  0  0  0  0  0  0  0  0  0  0
   10.1460    0.5262   23.4392 C   0  0  0  0  0  0  0  0  0  0  0  0
    9.8513   -0.9587   23.6621 C   0  0  0  0  0  0  0  0  0  0  0  0
    9.4323   -1.7133   22.4435 C   0  0  0  0  0  0  0  0  0  0  0  0
    9.7377   -2.8692   22.2430 O   0  0  0  0  0  0  0  0  0  0  0  0
    8.5944   -0.9546   21.4191 C   0  0  0  0  0  0  0  0  0  0  0  0
    8.6854    0.5701   21.4330 C   0  0  0  0  0  0  0  0  0  0  0  0
    8.5481    1.2388   20.4310 O   0  0  0  0  0  0  0  0  0  0  0  0
    8.9388    1.1648   22.7703 C   0  0  0  0  0  0  0  0  0  0  0  0
  1  2  1  0
  2  3  2  0
  3  4  1  0
  4  5  2  0
  5  6  1  0
  6  7  2  0
  5  8  1  0
  8  9  1  0
  9 10  1  0
 10 11  2  0
 10 12  1  0
 12 13  2  0
 13 14  1  0
 14 15  2  0
 15 16  1  0
  8 17  1  0
 17 18  1  0
 18 19  1  0
 19 20  2  0
 19 21  1  0
 21 22  1  0
 22 23  2  0
 22 24  1  0
  7  2  1  0
 16 12  1  0
 24 17  1  0
M  END
