CVD-0002300|dock_bobby27042020.49|mol2|19|dock2
     RDKit          3D

 40 43  0  0  0  0  0  0  0  0999 V2000
   -0.1456   -7.6188   23.9003 C   0  0  0  0  0  0  0  0  0  0  0  0
    0.8217   -8.0716   24.9824 C   0  0  0  0  0  0  0  0  0  0  0  0
    0.8938   -9.5873   25.0642 C   0  0  0  0  0  0  0  0  0  0  0  0
    2.1752   -7.5140   24.7438 N   0  0  0  0  0  0  0  0  0  0  0  0
    2.6663   -7.4720   23.3678 C   0  0  0  0  0  0  0  0  0  0  0  0
    2.9044   -7.0796   25.7986 C   0  0  0  0  0  0  0  0  0  0  0  0
    2.4626   -7.1320   26.9306 O   0  0  0  0  0  0  0  0  0  0  0  0
    4.2979   -6.5249   25.5777 C   0  0  0  0  0  0  0  0  0  0  0  0
    5.0565   -6.3611   26.8692 C   0  0  0  0  0  0  0  0  0  0  0  0
    6.4495   -5.8150   26.6524 C   0  0  0  0  0  0  0  0  0  0  0  0
    6.3985   -4.5411   25.8993 N   0  0  0  0  0  0  0  0  0  0  0  0
    5.6499   -4.6027   24.6363 C   0  0  0  0  0  0  0  0  0  0  0  0
    4.2863   -5.1926   24.8403 C   0  0  0  0  0  0  0  0  0  0  0  0
    6.4217   -5.3031   23.6311 N   0  0  0  0  0  0  0  0  0  0  0  0
    7.7913   -4.8405   23.4365 C   0  0  0  0  0  0  0  0  0  0  0  0
    7.8333   -3.4821   22.7874 C   0  0  0  0  0  0  0  0  0  0  0  0
    6.9404   -3.0249   21.8021 C   0  0  0  0  0  0  0  0  0  0  0  0
    7.2558   -1.7283   21.4369 C   0  0  0  0  0  0  0  0  0  0  0  0
    6.5557   -0.8819   20.4341 C   0  0  0  0  0  0  0  0  0  0  0  0
    6.4761    0.5064   20.5863 C   0  0  0  0  0  0  0  0  0  0  0  0
    5.8487    1.2971   19.6380 C   0  0  0  0  0  0  0  0  0  0  0  0
    5.2586    0.7294   18.5321 C   0  0  0  0  0  0  0  0  0  0  0  0
    5.2932   -0.6420   18.3632 C   0  0  0  0  0  0  0  0  0  0  0  0
    5.9371   -1.4087   19.3053 C   0  0  0  0  0  0  0  0  0  0  0  0
    5.9520   -2.7429   19.0825 F   0  0  0  0  0  0  0  0  0  0  0  0
    8.3917   -1.3772   22.2175 N   0  0  0  0  0  0  0  0  0  0  0  0
    8.7242   -2.4492   23.0376 C   0  0  0  0  0  0  0  0  0  0  0  0
    9.3089    0.0484   22.2704 S   0  0  0  0  0  0  0  0  0  0  0  0
    9.2868    0.5981   20.9505 O   0  0  0  0  0  0  0  0  0  0  0  0
    8.8226    0.8007   23.3852 O   0  0  0  0  0  0  0  0  0  0  0  0
   10.9560   -0.4617   22.6214 C   0  0  0  0  0  0  0  0  0  0  0  0
   11.6583    0.1111   23.6679 C   0  0  0  0  0  0  0  0  0  0  0  0
   12.9531   -0.3165   23.9056 C   0  0  0  0  0  0  0  0  0  0  0  0
   13.4888   -1.2903   23.0933 C   0  0  0  0  0  0  0  0  0  0  0  0
   12.8245   -1.8494   22.0808 N   0  0  0  0  0  0  0  0  0  0  0  0
   11.5752   -1.4320   21.8566 C   0  0  0  0  0  0  0  0  0  0  0  0
    7.0727   -3.4132   26.2350 C   0  0  0  0  0  0  0  0  0  0  0  0
    7.0884   -2.4271   25.5087 O   0  0  0  0  0  0  0  0  0  0  0  0
    7.8306   -3.3925   27.5486 C   0  0  0  0  0  0  0  0  0  0  0  0
    8.6942   -1.8664   27.7778 Cl  0  0  0  0  0  0  0  0  0  0  0  0
  1  2  1  0
  2  3  1  0
  2  4  1  0
  4  5  1  0
  4  6  1  0
  6  7  2  0
  6  8  1  0
  8  9  1  0
  9 10  1  0
 10 11  1  0
 11 12  1  0
 12 13  1  0
 12 14  1  0
 14 15  1  0
 15 16  1  0
 16 17  1  0
 17 18  2  0
 18 19  1  0
 19 20  2  0
 20 21  1  0
 21 22  2  0
 22 23  1  0
 23 24  2  0
 24 25  1  0
 18 26  1  0
 26 27  1  0
 26 28  1  0
 28 29  2  0
 28 30  2  0
 28 31  1  0
 31 32  2  0
 32 33  1  0
 33 34  2  0
 34 35  1  0
 35 36  2  0
 11 37  1  0
 37 38  2  0
 37 39  1  0
 39 40  1  0
 13  8  1  0
 27 16  2  0
 36 31  1  0
 24 19  1  0
M  END
