CVD-0001762|dock_bobby27042020.22|mol2|44|dock2
     RDKit          3D

 26 28  0  0  0  0  0  0  0  0999 V2000
    9.8407   -7.0500   26.2273 O   0  0  0  0  0  0  0  0  0  0  0  0
    9.9808   -5.6309   26.1183 C   0  0  0  0  0  0  0  0  0  0  0  0
   10.3177   -5.1511   24.7118 C   0  0  0  0  0  0  0  0  0  0  0  0
   10.3262   -3.6395   24.5953 C   0  0  0  0  0  0  0  0  0  0  0  0
    9.0490   -3.0531   25.0187 N   0  0  0  0  0  0  0  0  0  0  0  0
    9.0616   -1.6160   24.8501 C   0  0  0  0  0  0  0  0  0  0  0  0
    9.3384   -1.2227   23.4708 N   0  0  0  0  0  0  0  0  0  0  0  0
    8.3165   -1.3636   22.5245 C   0  0  0  0  0  0  0  0  0  0  0  0
    7.2374   -1.7994   22.9039 O   0  0  0  0  0  0  0  0  0  0  0  0
    8.5464   -1.0021   21.2184 N   0  0  0  0  0  0  0  0  0  0  0  0
    7.6871   -1.0373   20.0890 C   0  0  0  0  0  0  0  0  0  0  0  0
    6.7316   -2.0440   20.0278 C   0  0  0  0  0  0  0  0  0  0  0  0
    5.8777   -2.1200   18.9418 C   0  0  0  0  0  0  0  0  0  0  0  0
    6.0015   -1.1853   17.9411 C   0  0  0  0  0  0  0  0  0  0  0  0
    6.9041   -0.2053   17.9686 N   0  0  0  0  0  0  0  0  0  0  0  0
    7.7196   -0.1357   19.0255 C   0  0  0  0  0  0  0  0  0  0  0  0
   10.6873   -0.7834   23.2212 C   0  0  0  0  0  0  0  0  0  0  0  0
   11.2493    0.2456   23.9694 C   0  0  0  0  0  0  0  0  0  0  0  0
   12.5534    0.6545   23.7437 C   0  0  0  0  0  0  0  0  0  0  0  0
   13.3183    0.0465   22.7646 C   0  0  0  0  0  0  0  0  0  0  0  0
   12.7701   -0.9806   22.0067 C   0  0  0  0  0  0  0  0  0  0  0  0
   11.4598   -1.3935   22.2365 C   0  0  0  0  0  0  0  0  0  0  0  0
   13.5535   -1.6234   20.9807 C   0  0  0  0  0  0  0  0  0  0  0  0
   14.2000   -2.1134   20.1764 N   0  0  0  0  0  0  0  0  0  0  0  0
    8.7860   -3.4210   26.4125 C   0  0  0  0  0  0  0  0  0  0  0  0
    8.7054   -4.9299   26.5731 C   0  0  0  0  0  0  0  0  0  0  0  0
  1  2  1  0
  2  3  1  0
  3  4  1  0
  4  5  1  0
  5  6  1  0
  6  7  1  0
  7  8  1  0
  8  9  2  0
  8 10  1  0
 10 11  1  0
 11 12  2  0
 12 13  1  0
 13 14  2  0
 14 15  1  0
 15 16  2  0
  7 17  1  0
 17 18  2  0
 18 19  1  0
 19 20  2  0
 20 21  1  0
 21 22  2  0
 21 23  1  0
 23 24  3  0
  5 25  1  0
 25 26  1  0
 26  2  1  0
 16 11  1  0
 22 17  1  0
M  END
