CVD-0002353|dock_bobby27042020.91|mol2|38|dock2
     RDKit          3D

 14 14  0  0  0  0  0  0  0  0999 V2000
   14.1502   -1.9308   25.3931 C   0  0  0  0  0  0  0  0  0  0  0  0
   13.7634   -1.9871   23.9410 C   0  0  0  0  0  0  0  0  0  0  0  0
   12.3252   -1.6269   23.7212 C   0  0  0  0  0  0  0  0  0  0  0  0
   11.6619   -1.5828   22.5253 C   0  0  0  0  0  0  0  0  0  0  0  0
   12.2320   -1.8657   21.3545 N   0  0  0  0  0  0  0  0  0  0  0  0
   10.2085   -1.2019   22.4571 C   0  0  0  0  0  0  0  0  0  0  0  0
    9.2698   -2.3849   22.3844 C   0  0  0  0  0  0  0  0  0  0  0  0
    8.1573   -2.3723   21.5593 C   0  0  0  0  0  0  0  0  0  0  0  0
    7.3105   -3.4640   21.5112 C   0  0  0  0  0  0  0  0  0  0  0  0
    7.6149   -4.5595   22.3129 C   0  0  0  0  0  0  0  0  0  0  0  0
    8.6877   -4.6009   23.1255 N   0  0  0  0  0  0  0  0  0  0  0  0
    9.4803   -3.5226   23.1412 C   0  0  0  0  0  0  0  0  0  0  0  0
    6.7663   -5.7350   22.3071 C   0  0  0  0  0  0  0  0  0  0  0  0
    6.1175   -6.6746   22.2731 N   0  0  0  0  0  0  0  0  0  0  0  0
  1  2  1  0
  2  3  1  0
  3  4  2  0
  4  5  1  0
  4  6  1  0
  6  7  1  0
  7  8  2  0
  8  9  1  0
  9 10  2  0
 10 11  1  0
 11 12  2  0
 10 13  1  0
 13 14  3  0
 12  7  1  0
M  END
