CVD-0001987|dock_bobby27042020.50|mol2|36|dock3
     RDKit          3D

 19 21  0  0  0  0  0  0  0  0999 V2000
   13.6419   -1.9386   20.9047 C   0  0  0  0  0  0  0  0  0  0  0  0
   13.6389   -1.2179   22.2514 C   0  0  0  0  0  0  0  0  0  0  0  0
   13.3075   -2.2103   23.3657 C   0  0  0  0  0  0  0  0  0  0  0  0
   14.5933   -2.4966   24.5528 S   0  0  0  0  0  0  0  0  0  0  0  0
   12.2545   -2.7850   23.4712 O   0  0  0  0  0  0  0  0  0  0  0  0
   12.6623   -0.0495   22.3291 C   0  0  0  0  0  0  0  0  0  0  0  0
   11.2953   -0.2257   22.1316 C   0  0  0  0  0  0  0  0  0  0  0  0
   10.4083    0.8351   22.1916 C   0  0  0  0  0  0  0  0  0  0  0  0
   10.8922    2.1126   22.4595 C   0  0  0  0  0  0  0  0  0  0  0  0
   12.2727    2.2906   22.6618 C   0  0  0  0  0  0  0  0  0  0  0  0
   13.1578    1.2204   22.5981 C   0  0  0  0  0  0  0  0  0  0  0  0
   12.5196    3.6279   22.9110 N   0  0  0  0  0  0  0  0  0  0  0  0
   11.3230    4.3202   22.8727 C   0  0  0  0  0  0  0  0  0  0  0  0
   11.0699    5.6745   23.0610 C   0  0  0  0  0  0  0  0  0  0  0  0
    9.7672    6.1351   22.9716 C   0  0  0  0  0  0  0  0  0  0  0  0
    8.7436    5.2510   22.6986 C   0  0  0  0  0  0  0  0  0  0  0  0
    7.1134    5.8537   22.5908 Cl  0  0  0  0  0  0  0  0  0  0  0  0
    8.9696    3.9019   22.5077 C   0  0  0  0  0  0  0  0  0  0  0  0
   10.2748    3.4218   22.5943 C   0  0  0  0  0  0  0  0  0  0  0  0
  2  1  1  0
  2  3  1  0
  3  4  1  0
  3  5  2  0
  2  6  1  0
  6  7  2  0
  7  8  1  0
  8  9  2  0
  9 10  1  0
 10 11  2  0
 10 12  1  0
 12 13  1  0
 13 14  2  0
 14 15  1  0
 15 16  2  0
 16 17  1  0
 16 18  1  0
 18 19  2  0
 11  6  1  0
 19 13  1  0
 19  9  1  0
M  END
