CVD-0000082|dock_bobby27042020.14|mol2|15|dock1
     RDKit          3D

 17 18  0  0  0  0  0  0  0  0999 V2000
   13.2797   -2.1447   21.1056 C   0  0  0  0  0  0  0  0  0  0  0  0
   12.9012   -1.5432   22.4347 C   0  0  0  0  0  0  0  0  0  0  0  0
   13.8482   -1.5382   23.4544 C   0  0  0  0  0  0  0  0  0  0  0  0
   13.5301   -0.9984   24.6802 C   0  0  0  0  0  0  0  0  0  0  0  0
   12.3413   -0.4688   24.9534 N   0  0  0  0  0  0  0  0  0  0  0  0
   11.4229   -0.4687   23.9821 C   0  0  0  0  0  0  0  0  0  0  0  0
   11.6352   -0.9880   22.7045 C   0  0  0  0  0  0  0  0  0  0  0  0
   10.6621   -0.9921   21.6656 N   0  0  0  0  0  0  0  0  0  0  0  0
    9.3708   -0.5218   21.6761 C   0  0  0  0  0  0  0  0  0  0  0  0
    8.7970    0.0095   22.6220 O   0  0  0  0  0  0  0  0  0  0  0  0
    8.7477   -0.7027   20.4911 N   0  0  0  0  0  0  0  0  0  0  0  0
    7.3409   -0.3642   20.2751 C   0  0  0  0  0  0  0  0  0  0  0  0
    6.8709   -0.8032   18.8731 C   0  0  0  0  0  0  0  0  0  0  0  0
    5.4254   -0.3987   18.5896 C   0  0  0  0  0  0  0  0  0  0  0  0
    5.2157    1.0950   18.8022 C   0  0  0  0  0  0  0  0  0  0  0  0
    5.6513    1.5176   20.1979 C   0  0  0  0  0  0  0  0  0  0  0  0
    7.1072    1.1451   20.4582 C   0  0  0  0  0  0  0  0  0  0  0  0
  1  2  1  0
  2  3  2  0
  3  4  1  0
  4  5  2  0
  5  6  1  0
  6  7  2  0
  7  8  1  0
  8  9  1  0
  9 10  2  0
  9 11  1  0
 11 12  1  0
 12 13  1  0
 13 14  1  0
 14 15  1  0
 15 16  1  0
 16 17  1  0
  7  2  1  0
 17 12  1  0
M  END
