CVD-0001327|dock_bobby27042020.95|mol2|38|dock2
     RDKit          3D

 22 24  0  0  0  0  0  0  0  0999 V2000
   11.7310    1.2734   23.7022 O   0  0  0  0  0  0  0  0  0  0  0  0
   11.3810    0.1092   23.6638 C   0  0  0  0  0  0  0  0  0  0  0  0
   12.2873   -0.9827   24.2033 C   0  0  0  0  0  0  0  0  0  0  0  0
   13.0208   -1.6811   23.0647 C   0  0  0  0  0  0  0  0  0  0  0  0
   13.9178   -2.7661   23.6482 C   0  0  0  0  0  0  0  0  0  0  0  0
   14.8346   -2.2389   24.5872 O   0  0  0  0  0  0  0  0  0  0  0  0
   14.1566   -1.6416   25.6925 C   0  0  0  0  0  0  0  0  0  0  0  0
   13.2760   -0.4753   25.2445 C   0  0  0  0  0  0  0  0  0  0  0  0
   10.1768   -0.2101   23.1470 N   0  0  0  0  0  0  0  0  0  0  0  0
    9.6409   -1.5635   23.0130 C   0  0  0  0  0  0  0  0  0  0  0  0
    9.2009   -1.8145   21.5866 C   0  0  0  0  0  0  0  0  0  0  0  0
    8.2614   -0.7795   21.1609 N   0  0  0  0  0  0  0  0  0  0  0  0
    8.7973    0.5739   21.2947 C   0  0  0  0  0  0  0  0  0  0  0  0
    9.2373    0.8249   22.7212 C   0  0  0  0  0  0  0  0  0  0  0  0
    7.0530   -1.0999   20.6422 C   0  0  0  0  0  0  0  0  0  0  0  0
    6.7375   -2.2752   20.5685 O   0  0  0  0  0  0  0  0  0  0  0  0
    6.0409   -0.1132   20.1237 C   0  0  0  0  0  0  0  0  0  0  0  0
    5.0127    0.4562   20.8762 C   0  0  0  0  0  0  0  0  0  0  0  0
    4.1509    1.3843   20.3153 C   0  0  0  0  0  0  0  0  0  0  0  0
    4.2736    1.7408   18.9909 C   0  0  0  0  0  0  0  0  0  0  0  0
    5.2606    1.1654   18.2227 C   0  0  0  0  0  0  0  0  0  0  0  0
    6.1335    0.2478   18.7823 C   0  0  0  0  0  0  0  0  0  0  0  0
  1  2  2  0
  2  3  1  0
  3  4  1  0
  4  5  1  0
  5  6  1  0
  6  7  1  0
  7  8  1  0
  2  9  1  0
  9 10  1  0
 10 11  1  0
 11 12  1  0
 12 13  1  0
 13 14  1  0
 12 15  1  0
 15 16  2  0
 15 17  1  0
 17 18  2  0
 18 19  1  0
 19 20  2  0
 20 21  1  0
 21 22  2  0
  8  3  1  0
 14  9  1  0
 22 17  1  0
M  END
