CVD-0000684|dock_bobby27042020.12|mol2|15|dock3
     RDKit          3D

 24 25  0  0  0  0  0  0  0  0999 V2000
    5.4475    0.5972   21.7978 C   0  0  0  0  0  0  0  0  0  0  0  0
    5.9210    0.3966   20.3811 C   0  0  0  0  0  0  0  0  0  0  0  0
    5.0265    0.6353   19.3421 C   0  0  0  0  0  0  0  0  0  0  0  0
    5.4300    0.4575   18.0377 C   0  0  0  0  0  0  0  0  0  0  0  0
    6.6548    0.0606   17.7043 N   0  0  0  0  0  0  0  0  0  0  0  0
    7.5228   -0.1729   18.6937 C   0  0  0  0  0  0  0  0  0  0  0  0
    7.2226   -0.0258   20.0481 C   0  0  0  0  0  0  0  0  0  0  0  0
    8.1461   -0.2752   21.1014 N   0  0  0  0  0  0  0  0  0  0  0  0
    9.1083   -1.2234   21.2246 C   0  0  0  0  0  0  0  0  0  0  0  0
    9.3754   -2.0931   20.4008 O   0  0  0  0  0  0  0  0  0  0  0  0
    9.8807   -1.1254   22.5410 C   0  0  0  0  0  0  0  0  0  0  0  0
   11.0457   -2.1234   22.5055 C   0  0  0  0  0  0  0  0  0  0  0  0
   12.0506   -1.7972   21.4884 N   0  0  0  0  0  0  0  0  0  0  0  0
   13.5545   -1.4602   21.9299 S   0  0  0  0  0  0  0  0  0  0  0  0
   13.5227    0.0515   22.8133 C   0  0  0  0  0  0  0  0  0  0  0  0
   14.3079   -1.2578   20.7309 O   0  0  0  0  0  0  0  0  0  0  0  0
   13.9680   -2.4919   22.8303 O   0  0  0  0  0  0  0  0  0  0  0  0
    8.9402   -1.4053   23.7025 C   0  0  0  0  0  0  0  0  0  0  0  0
    7.8853   -2.2963   23.5642 C   0  0  0  0  0  0  0  0  0  0  0  0
    7.0234   -2.5540   24.6155 C   0  0  0  0  0  0  0  0  0  0  0  0
    7.2217   -1.9104   25.8172 C   0  0  0  0  0  0  0  0  0  0  0  0
    6.1424   -2.2285   27.1463 Cl  0  0  0  0  0  0  0  0  0  0  0  0
    8.2588   -1.0195   25.9859 C   0  0  0  0  0  0  0  0  0  0  0  0
    9.1123   -0.7722   24.9255 C   0  0  0  0  0  0  0  0  0  0  0  0
  1  2  1  0
  2  3  2  0
  3  4  1  0
  4  5  2  0
  5  6  1  0
  6  7  2  0
  7  8  1  0
  8  9  1  0
  9 10  2  0
  9 11  1  0
 11 12  1  0
 12 13  1  0
 13 14  1  0
 14 15  1  0
 14 16  2  0
 14 17  2  0
 11 18  1  0
 18 19  2  0
 19 20  1  0
 20 21  2  0
 21 22  1  0
 21 23  1  0
 23 24  2  0
  7  2  1  0
 24 18  1  0
M  END
