CVD-0001253|dock_bobby27042020.67|mol2|39|dock3
     RDKit          3D

 23 25  0  0  0  0  0  0  0  0999 V2000
    6.1159   -5.7766   22.4436 C   0  0  0  0  0  0  0  0  0  0  0  0
    7.3630   -5.3955   21.7091 C   0  0  0  0  0  0  0  0  0  0  0  0
    7.7800   -4.0416   22.0359 N   0  0  0  0  0  0  0  0  0  0  0  0
    7.3843   -2.9643   21.3348 C   0  0  0  0  0  0  0  0  0  0  0  0
    6.3119   -3.1772   20.5448 N   0  0  0  0  0  0  0  0  0  0  0  0
    5.9687   -2.2495   19.6481 C   0  0  0  0  0  0  0  0  0  0  0  0
    6.6180   -1.0308   19.5275 C   0  0  0  0  0  0  0  0  0  0  0  0
    7.6476   -0.7493   20.4166 C   0  0  0  0  0  0  0  0  0  0  0  0
    8.0189   -1.6913   21.3759 C   0  0  0  0  0  0  0  0  0  0  0  0
    9.0006   -1.3341   22.3389 N   0  0  0  0  0  0  0  0  0  0  0  0
    8.6462   -0.9225   23.6929 C   0  0  0  0  0  0  0  0  0  0  0  0
   10.4067   -1.2364   21.9487 C   0  0  0  0  0  0  0  0  0  0  0  0
   11.3826   -1.1500   23.0978 C   0  0  0  0  0  0  0  0  0  0  0  0
   11.7575    0.0791   23.6213 C   0  0  0  0  0  0  0  0  0  0  0  0
   12.6540    0.1746   24.6730 C   0  0  0  0  0  0  0  0  0  0  0  0
   13.1923   -0.9877   25.2169 C   0  0  0  0  0  0  0  0  0  0  0  0
   14.0730   -1.2181   26.2270 N   0  0  0  0  0  0  0  0  0  0  0  0
   14.3041   -2.5521   26.3999 N   0  0  0  0  0  0  0  0  0  0  0  0
   13.5684   -3.1716   25.4976 C   0  0  0  0  0  0  0  0  0  0  0  0
   12.8357   -2.2475   24.7105 C   0  0  0  0  0  0  0  0  0  0  0  0
   11.9262   -2.3042   23.6465 C   0  0  0  0  0  0  0  0  0  0  0  0
    6.2366   -0.0776   18.5148 C   0  0  0  0  0  0  0  0  0  0  0  0
    5.9479    0.6575   17.6895 N   0  0  0  0  0  0  0  0  0  0  0  0
  1  2  1  0
  2  3  1  0
  3  4  1  0
  4  5  2  0
  5  6  1  0
  6  7  2  0
  7  8  1  0
  8  9  2  0
  9 10  1  0
 10 11  1  0
 10 12  1  0
 12 13  1  0
 13 14  2  0
 14 15  1  0
 15 16  2  0
 16 17  1  0
 17 18  1  0
 18 19  2  0
 19 20  1  0
 20 21  2  0
  7 22  1  0
 22 23  3  0
  9  4  1  0
 21 13  1  0
 20 16  1  0
M  END
