CVD-0003363|dock_bobby27042020.16|mol2|44|dock3
     RDKit          3D

 24 26  0  0  0  0  0  0  0  0999 V2000
    3.2348   -6.2941   22.6506 Cl  0  0  0  0  0  0  0  0  0  0  0  0
    4.7566   -5.4483   22.6870 C   0  0  0  0  0  0  0  0  0  0  0  0
    5.7675   -5.8367   21.8358 C   0  0  0  0  0  0  0  0  0  0  0  0
    6.9737   -5.1599   21.8709 C   0  0  0  0  0  0  0  0  0  0  0  0
    7.1770   -4.1040   22.7457 C   0  0  0  0  0  0  0  0  0  0  0  0
    8.4886   -3.3741   22.7748 C   0  0  0  0  0  0  0  0  0  0  0  0
    8.3131   -2.0202   22.3567 O   0  0  0  0  0  0  0  0  0  0  0  0
    9.4564   -1.4340   21.7311 C   0  0  0  0  0  0  0  0  0  0  0  0
    9.0798    0.0155   21.4674 C   0  0  0  0  0  0  0  0  0  0  0  0
    7.8675    0.0967   20.6508 N   0  0  0  0  0  0  0  0  0  0  0  0
    7.7595   -0.2041   19.3218 C   0  0  0  0  0  0  0  0  0  0  0  0
    6.4638   -0.0060   18.9963 C   0  0  0  0  0  0  0  0  0  0  0  0
    5.7549    0.4046   20.0933 N   0  0  0  0  0  0  0  0  0  0  0  0
    6.6368    0.4472   21.0675 C   0  0  0  0  0  0  0  0  0  0  0  0
   10.6849   -1.5009   22.6144 C   0  0  0  0  0  0  0  0  0  0  0  0
   11.9068   -1.8770   22.0571 C   0  0  0  0  0  0  0  0  0  0  0  0
   13.0617   -1.9570   22.8141 C   0  0  0  0  0  0  0  0  0  0  0  0
   13.0032   -1.6572   24.1561 C   0  0  0  0  0  0  0  0  0  0  0  0
   14.4501   -1.7539   25.1203 Cl  0  0  0  0  0  0  0  0  0  0  0  0
   11.8179   -1.2812   24.7514 C   0  0  0  0  0  0  0  0  0  0  0  0
   10.6746   -1.2073   23.9776 C   0  0  0  0  0  0  0  0  0  0  0  0
    9.2117   -0.7299   24.7769 Cl  0  0  0  0  0  0  0  0  0  0  0  0
    6.1409   -3.7356   23.5896 C   0  0  0  0  0  0  0  0  0  0  0  0
    4.9289   -4.4024   23.5665 C   0  0  0  0  0  0  0  0  0  0  0  0
  1  2  1  0
  2  3  2  0
  3  4  1  0
  4  5  2  0
  5  6  1  0
  6  7  1  0
  7  8  1  0
  8  9  1  0
  9 10  1  0
 10 11  1  0
 11 12  2  0
 12 13  1  0
 13 14  2  0
  8 15  1  0
 15 16  2  0
 16 17  1  0
 17 18  2  0
 18 19  1  0
 18 20  1  0
 20 21  2  0
 21 22  1  0
  5 23  1  0
 23 24  2  0
 24  2  1  0
 14 10  1  0
 21 15  1  0
M  END
