CVD-0002817|dock_bobby27042020.61|mol2|45|dock2
     RDKit          3D

 17 18  0  0  0  0  0  0  0  0999 V2000
    9.0432    1.2930   20.5899 O   0  0  0  0  0  0  0  0  0  0  0  0
    8.2274    0.1592   20.8971 S   0  0  0  0  0  0  0  0  0  0  0  0
    7.3486    0.2016   22.0245 O   0  0  0  0  0  0  0  0  0  0  0  0
    9.2166   -1.0898   21.1153 N   0  0  0  0  0  0  0  0  0  0  0  0
    8.9313   -2.0402   22.1970 C   0  0  0  0  0  0  0  0  0  0  0  0
    9.5036   -1.5428   23.5120 C   0  0  0  0  0  0  0  0  0  0  0  0
   10.9693   -1.1944   23.4165 C   0  0  0  0  0  0  0  0  0  0  0  0
   11.9210   -2.1806   23.2075 C   0  0  0  0  0  0  0  0  0  0  0  0
   13.2655   -1.8612   23.1166 C   0  0  0  0  0  0  0  0  0  0  0  0
   13.6749   -0.5504   23.2325 C   0  0  0  0  0  0  0  0  0  0  0  0
   12.7396    0.4405   23.4390 C   0  0  0  0  0  0  0  0  0  0  0  0
   11.3953    0.1200   23.5298 C   0  0  0  0  0  0  0  0  0  0  0  0
    7.2452   -0.1816   19.4775 C   0  0  0  0  0  0  0  0  0  0  0  0
    6.2431   -1.2026   19.4148 C   0  0  0  0  0  0  0  0  0  0  0  0
    5.7280   -1.1343   18.1828 C   0  0  0  0  0  0  0  0  0  0  0  0
    6.3255   -0.1456   17.4557 O   0  0  0  0  0  0  0  0  0  0  0  0
    7.2497    0.4176   18.2854 C   0  0  0  0  0  0  0  0  0  0  0  0
  1  2  2  0
  2  3  2  0
  2  4  1  0
  4  5  1  0
  5  6  1  0
  6  7  1  0
  7  8  2  0
  8  9  1  0
  9 10  2  0
 10 11  1  0
 11 12  2  0
  2 13  1  0
 13 14  1  0
 14 15  2  0
 15 16  1  0
 16 17  1  0
 12  7  1  0
 17 13  2  0
M  END
