CVD-0003217|dock_bobby27042020.17|mol2|11|dock1
     RDKit          3D

 33 36  0  0  0  0  0  0  0  0999 V2000
   10.1380   -6.6127   25.9904 N   0  0  0  0  0  0  0  0  0  0  0  0
    9.3844   -5.6079   25.5105 C   0  0  0  0  0  0  0  0  0  0  0  0
    8.3671   -5.0222   26.2923 C   0  0  0  0  0  0  0  0  0  0  0  0
    7.6227   -3.9916   25.7489 C   0  0  0  0  0  0  0  0  0  0  0  0
    7.8766   -3.5474   24.4621 C   0  0  0  0  0  0  0  0  0  0  0  0
    7.0745   -2.4248   23.8434 C   0  0  0  0  0  0  0  0  0  0  0  0
    6.6407   -2.7355   22.4222 C   0  0  0  0  0  0  0  0  0  0  0  0
    5.8436   -3.6494   22.2502 O   0  0  0  0  0  0  0  0  0  0  0  0
    7.1403   -1.9876   21.3885 N   0  0  0  0  0  0  0  0  0  0  0  0
    6.6901   -2.3263   20.0345 C   0  0  0  0  0  0  0  0  0  0  0  0
    6.2200   -1.1406   19.2767 C   0  0  0  0  0  0  0  0  0  0  0  0
    6.7812   -0.3776   18.3241 C   0  0  0  0  0  0  0  0  0  0  0  0
    5.8313    0.6028   18.0006 C   0  0  0  0  0  0  0  0  0  0  0  0
    6.0299    1.5652   17.0732 F   0  0  0  0  0  0  0  0  0  0  0  0
    4.7347    0.3899   18.7732 C   0  0  0  0  0  0  0  0  0  0  0  0
    4.9615   -0.6941   19.5750 O   0  0  0  0  0  0  0  0  0  0  0  0
    8.0507   -0.8812   21.5570 C   0  0  0  0  0  0  0  0  0  0  0  0
    9.4275   -1.0597   21.4843 C   0  0  0  0  0  0  0  0  0  0  0  0
   10.2961    0.0053   21.6405 C   0  0  0  0  0  0  0  0  0  0  0  0
    9.8242    1.2873   21.8897 C   0  0  0  0  0  0  0  0  0  0  0  0
   10.7833    2.3218   22.0427 N   0  0  0  0  0  0  0  0  0  0  0  0
   10.6365    3.6215   22.4255 C   0  0  0  0  0  0  0  0  0  0  0  0
    9.5574    4.1255   22.7178 O   0  0  0  0  0  0  0  0  0  0  0  0
   11.8529    4.5062   22.5006 C   0  0  0  0  0  0  0  0  0  0  0  0
   12.8614    4.5355   21.5364 C   0  0  0  0  0  0  0  0  0  0  0  0
   13.9519    5.3782   21.6757 C   0  0  0  0  0  0  0  0  0  0  0  0
   14.0610    6.2048   22.7718 C   0  0  0  0  0  0  0  0  0  0  0  0
   13.0762    6.1900   23.7338 C   0  0  0  0  0  0  0  0  0  0  0  0
   11.9836    5.3502   23.6005 C   0  0  0  0  0  0  0  0  0  0  0  0
    8.4465    1.4702   21.9723 C   0  0  0  0  0  0  0  0  0  0  0  0
    7.5805    0.4041   21.8020 C   0  0  0  0  0  0  0  0  0  0  0  0
    8.8909   -4.1802   23.7686 C   0  0  0  0  0  0  0  0  0  0  0  0
    9.6331   -5.1799   24.2592 N   0  0  0  0  0  0  0  0  0  0  0  0
  1  2  1  0
  2  3  2  0
  3  4  1  0
  4  5  2  0
  5  6  1  0
  6  7  1  0
  7  8  2  0
  7  9  1  0
  9 10  1  0
 10 11  1  0
 11 12  2  0
 12 13  1  0
 13 14  1  0
 13 15  2  0
 15 16  1  0
  9 17  1  0
 17 18  2  0
 18 19  1  0
 19 20  2  0
 20 21  1  0
 21 22  1  0
 22 23  2  0
 22 24  1  0
 24 25  2  0
 25 26  1  0
 26 27  2  0
 27 28  1  0
 28 29  2  0
 20 30  1  0
 30 31  2  0
  5 32  1  0
 32 33  2  0
 33  2  1  0
 16 11  1  0
 31 17  1  0
 29 24  1  0
M  END
