CVD-0003683|dock_bobby27042020.59|mol2|6|dock2
     RDKit          3D

 21 22  0  0  0  0  0  0  0  0999 V2000
   13.8438   -1.0047   25.3013 C   0  0  0  0  0  0  0  0  0  0  0  0
   13.2466   -1.8889   24.2167 C   0  0  0  0  0  0  0  0  0  0  0  0
   14.3148   -2.2478   23.1947 C   0  0  0  0  0  0  0  0  0  0  0  0
   12.8088   -3.1167   24.8308 O   0  0  0  0  0  0  0  0  0  0  0  0
   12.0328   -1.2147   23.5363 C   0  0  0  0  0  0  0  0  0  0  0  0
   11.3805   -2.1040   22.5036 C   0  0  0  0  0  0  0  0  0  0  0  0
   10.1806   -1.5037   22.0083 O   0  0  0  0  0  0  0  0  0  0  0  0
    9.2146   -1.1358   23.0087 C   0  0  0  0  0  0  0  0  0  0  0  0
    8.0041   -0.6763   22.2520 C   0  0  0  0  0  0  0  0  0  0  0  0
    8.0152    0.0208   21.1288 C   0  0  0  0  0  0  0  0  0  0  0  0
    6.8481    0.4817   20.3671 C   0  0  0  0  0  0  0  0  0  0  0  0
    6.9148    0.5949   18.9790 C   0  0  0  0  0  0  0  0  0  0  0  0
    5.8131    1.0304   18.2569 C   0  0  0  0  0  0  0  0  0  0  0  0
    5.8927    1.1364   16.8990 O   0  0  0  0  0  0  0  0  0  0  0  0
    4.6314    1.3587   18.9048 C   0  0  0  0  0  0  0  0  0  0  0  0
    4.5609    1.2475   20.2857 C   0  0  0  0  0  0  0  0  0  0  0  0
    3.4029    1.5681   20.9320 O   0  0  0  0  0  0  0  0  0  0  0  0
    5.6581    0.8128   21.0150 C   0  0  0  0  0  0  0  0  0  0  0  0
    9.8482   -0.1575   23.9758 C   0  0  0  0  0  0  0  0  0  0  0  0
    8.8964    0.0921   24.9794 F   0  0  0  0  0  0  0  0  0  0  0  0
   11.0926   -0.7196   24.6158 C   0  0  0  0  0  0  0  0  0  0  0  0
  1  2  1  0
  2  3  1  0
  2  4  1  0
  2  5  1  0
  5  6  1  0
  6  7  1  0
  7  8  1  0
  8  9  1  0
  9 10  2  0
 10 11  1  0
 11 12  2  0
 12 13  1  0
 13 14  1  0
 13 15  2  0
 15 16  1  0
 16 17  1  0
 16 18  2  0
  8 19  1  0
 19 20  1  0
 19 21  1  0
 21  5  1  0
 18 11  1  0
M  END
