CVD-0003179|dock_bobby27042020.60|mol2|33|dock1
     RDKit          3D

 29 31  0  0  0  0  0  0  0  0999 V2000
    5.0196    1.6253   18.1516 C   0  0  0  0  0  0  0  0  0  0  0  0
    6.0721    0.5275   18.2736 C   0  0  0  0  0  0  0  0  0  0  0  0
    5.4048   -0.8385   18.1482 C   0  0  0  0  0  0  0  0  0  0  0  0
    6.9649    0.6682   17.1514 O   0  0  0  0  0  0  0  0  0  0  0  0
    6.8697    0.6484   19.5764 C   0  0  0  0  0  0  0  0  0  0  0  0
    8.1106    0.0404   19.7336 C   0  0  0  0  0  0  0  0  0  0  0  0
    8.8157    0.1446   20.9181 C   0  0  0  0  0  0  0  0  0  0  0  0
    8.3216    0.8647   22.0033 C   0  0  0  0  0  0  0  0  0  0  0  0
    9.1217    0.9682   23.3011 C   0  0  0  0  0  0  0  0  0  0  0  0
    8.6706   -0.0973   24.2444 C   0  0  0  0  0  0  0  0  0  0  0  0
    8.9935   -1.4497   23.7261 N   0  0  0  0  0  0  0  0  0  0  0  0
   10.3702   -1.6886   23.2479 C   0  0  0  0  0  0  0  0  0  0  0  0
   11.2121   -0.4252   23.0394 C   0  0  0  0  0  0  0  0  0  0  0  0
   12.5812   -0.5180   22.8097 C   0  0  0  0  0  0  0  0  0  0  0  0
   13.3492    0.6110   22.5941 C   0  0  0  0  0  0  0  0  0  0  0  0
   12.7650    1.8701   22.6029 C   0  0  0  0  0  0  0  0  0  0  0  0
   11.3974    1.9553   22.8329 C   0  0  0  0  0  0  0  0  0  0  0  0
   10.6032    0.8312   23.0526 C   0  0  0  0  0  0  0  0  0  0  0  0
   13.5871    3.1055   22.4189 C   0  0  0  0  0  0  0  0  0  0  0  0
   13.5572    3.9060   23.4783 F   0  0  0  0  0  0  0  0  0  0  0  0
   14.8697    2.8419   22.1967 F   0  0  0  0  0  0  0  0  0  0  0  0
   13.1832    3.8445   21.3918 F   0  0  0  0  0  0  0  0  0  0  0  0
    8.0327   -2.4162   23.7186 C   0  0  0  0  0  0  0  0  0  0  0  0
    6.9149   -2.1416   24.1526 O   0  0  0  0  0  0  0  0  0  0  0  0
    8.2231   -3.8155   23.2219 C   0  0  0  0  0  0  0  0  0  0  0  0
    7.2674   -4.6662   22.9462 C   0  0  0  0  0  0  0  0  0  0  0  0
    7.0787    1.4713   21.8316 C   0  0  0  0  0  0  0  0  0  0  0  0
    6.3488    2.3892   23.1091 Cl  0  0  0  0  0  0  0  0  0  0  0  0
    6.3653    1.3766   20.6503 C   0  0  0  0  0  0  0  0  0  0  0  0
  1  2  1  0
  2  3  1  0
  2  4  1  0
  2  5  1  0
  5  6  2  0
  6  7  1  0
  7  8  2  0
  8  9  1  0
  9 10  1  0
 10 11  1  0
 11 12  1  0
 12 13  1  0
 13 14  2  0
 14 15  1  0
 15 16  2  0
 16 17  1  0
 17 18  2  0
 16 19  1  0
 19 20  1  0
 19 21  1  0
 19 22  1  0
 11 23  1  0
 23 24  2  0
 23 25  1  0
 25 26  2  0
  8 27  1  0
 27 28  1  0
 27 29  2  0
 29  5  1  0
 18  9  1  0
 18 13  1  0
M  END
