CVD-0002447|dock_bobby27042020.20|mol2|9|dock3
     RDKit          3D

 14 15  0  0  0  0  0  0  0  0999 V2000
   11.3140   -1.6449   21.8521 C   0  0  0  0  0  0  0  0  0  0  0  0
   11.5973   -1.4432   23.3386 C   0  0  0  0  0  0  0  0  0  0  0  0
   10.7779   -0.2701   23.8162 C   0  0  0  0  0  0  0  0  0  0  0  0
   11.1654    0.9316   23.1399 O   0  0  0  0  0  0  0  0  0  0  0  0
   12.5226    1.2715   23.4578 C   0  0  0  0  0  0  0  0  0  0  0  0
   13.4685    0.1788   22.9779 C   0  0  0  0  0  0  0  0  0  0  0  0
   13.5074    0.1685   21.5525 O   0  0  0  0  0  0  0  0  0  0  0  0
   13.0720   -1.1690   23.5638 C   0  0  0  0  0  0  0  0  0  0  0  0
   13.8588   -2.2096   22.9851 O   0  0  0  0  0  0  0  0  0  0  0  0
   12.8267    2.5885   22.8174 C   0  0  0  0  0  0  0  0  0  0  0  0
   14.0777    3.0186   22.2876 C   0  0  0  0  0  0  0  0  0  0  0  0
   14.0550    4.2734   21.7569 C   0  0  0  0  0  0  0  0  0  0  0  0
   12.4980    4.9366   21.9028 S   0  0  0  0  0  0  0  0  0  0  0  0
   11.8734    3.5514   22.6650 C   0  0  0  0  0  0  0  0  0  0  0  0
  1  2  1  0
  2  3  1  0
  3  4  1  0
  4  5  1  0
  5  6  1  0
  6  7  1  0
  6  8  1  0
  8  9  1  0
  5 10  1  0
 10 11  1  0
 11 12  2  0
 12 13  1  0
 13 14  1  0
  8  2  1  0
 14 10  2  0
M  END
