CVD-0000992|dock_bobby27042020.25|mol2|25|dock2
     RDKit          3D

 28 31  0  0  0  0  0  0  0  0999 V2000
    2.7523   -7.7159   25.0276 Br  0  0  0  0  0  0  0  0  0  0  0  0
    3.9149   -6.8313   23.8577 C   0  0  0  0  0  0  0  0  0  0  0  0
    3.9501   -6.9378   22.5157 C   0  0  0  0  0  0  0  0  0  0  0  0
    4.9426   -6.1381   21.9539 C   0  0  0  0  0  0  0  0  0  0  0  0
    5.6624   -5.4218   22.8836 C   0  0  0  0  0  0  0  0  0  0  0  0
    5.0914   -5.7515   24.4850 S   0  0  0  0  0  0  0  0  0  0  0  0
    6.7558   -4.4989   22.6759 C   0  0  0  0  0  0  0  0  0  0  0  0
    7.1418   -4.0763   21.5026 N   0  0  0  0  0  0  0  0  0  0  0  0
    8.2167   -3.1946   21.5893 N   0  0  0  0  0  0  0  0  0  0  0  0
    8.5978   -2.9861   22.8233 C   0  0  0  0  0  0  0  0  0  0  0  0
    9.6433   -2.1560   23.1942 N   0  0  0  0  0  0  0  0  0  0  0  0
   10.8264   -1.8670   22.5686 C   0  0  0  0  0  0  0  0  0  0  0  0
   11.0922   -2.3868   21.4881 O   0  0  0  0  0  0  0  0  0  0  0  0
   11.8102   -0.9028   23.2033 C   0  0  0  0  0  0  0  0  0  0  0  0
   11.2743    0.5232   23.1687 C   0  0  0  0  0  0  0  0  0  0  0  0
   12.2793    1.4845   23.7690 C   0  0  0  0  0  0  0  0  0  0  0  0
   13.5485    1.3912   23.0524 N   0  0  0  0  0  0  0  0  0  0  0  0
   14.1281    0.0533   23.1040 C   0  0  0  0  0  0  0  0  0  0  0  0
   13.1619   -0.9573   22.4950 C   0  0  0  0  0  0  0  0  0  0  0  0
   14.2919    2.4378   22.6234 C   0  0  0  0  0  0  0  0  0  0  0  0
   15.3226    2.2147   22.0119 O   0  0  0  0  0  0  0  0  0  0  0  0
   13.9614    3.8896   22.8450 C   0  0  0  0  0  0  0  0  0  0  0  0
   13.4248    4.4217   24.0178 C   0  0  0  0  0  0  0  0  0  0  0  0
   13.1828    5.7805   24.1368 C   0  0  0  0  0  0  0  0  0  0  0  0
   13.4419    6.6307   23.0848 C   0  0  0  0  0  0  0  0  0  0  0  0
   13.9425    6.1207   21.9081 C   0  0  0  0  0  0  0  0  0  0  0  0
   14.1981    4.7651   21.7888 C   0  0  0  0  0  0  0  0  0  0  0  0
    7.6707   -3.8584   23.9994 S   0  0  0  0  0  0  0  0  0  0  0  0
  1  2  1  0
  2  3  2  0
  3  4  1  0
  4  5  2  0
  5  6  1  0
  5  7  1  0
  7  8  2  0
  8  9  1  0
  9 10  2  0
 10 11  1  0
 11 12  1  0
 12 13  2  0
 12 14  1  0
 14 15  1  0
 15 16  1  0
 16 17  1  0
 17 18  1  0
 18 19  1  0
 17 20  1  0
 20 21  2  0
 20 22  1  0
 22 23  2  0
 23 24  1  0
 24 25  2  0
 25 26  1  0
 26 27  2  0
 10 28  1  0
  6  2  1  0
 28  7  1  0
 19 14  1  0
 27 22  1  0
M  END
