CVD-0000443|dock_bobby27042020.84|mol2|18|dock1
     RDKit          3D

 30 32  0  0  0  0  0  0  0  0999 V2000
    7.3639    5.2548   21.9877 C   0  0  0  0  0  0  0  0  0  0  0  0
    8.2083    6.4857   21.8790 C   0  0  0  0  0  0  0  0  0  0  0  0
    8.7931    6.8446   23.1602 N   0  0  0  0  0  0  0  0  0  0  0  0
   10.0321    6.4521   23.5653 C   0  0  0  0  0  0  0  0  0  0  0  0
   10.5873    6.9220   24.7548 C   0  0  0  0  0  0  0  0  0  0  0  0
   11.8502    6.4792   25.1009 C   0  0  0  0  0  0  0  0  0  0  0  0
   12.4827    5.6031   24.2533 C   0  0  0  0  0  0  0  0  0  0  0  0
   13.7195    5.1580   24.5728 F   0  0  0  0  0  0  0  0  0  0  0  0
   11.8912    5.1646   23.0849 C   0  0  0  0  0  0  0  0  0  0  0  0
   12.5655    4.2052   22.1340 C   0  0  0  0  0  0  0  0  0  0  0  0
   12.2208    2.7584   22.4228 C   0  0  0  0  0  0  0  0  0  0  0  0
   13.2221    1.8262   22.6572 C   0  0  0  0  0  0  0  0  0  0  0  0
   12.9303    0.4965   22.9190 C   0  0  0  0  0  0  0  0  0  0  0  0
   14.0358   -0.4986   23.1752 C   0  0  0  0  0  0  0  0  0  0  0  0
   11.6013    0.1005   22.9461 C   0  0  0  0  0  0  0  0  0  0  0  0
   10.5754    1.0126   22.7144 C   0  0  0  0  0  0  0  0  0  0  0  0
    9.2491    0.6243   22.7396 N   0  0  0  0  0  0  0  0  0  0  0  0
    8.6982   -0.2746   23.7355 C   0  0  0  0  0  0  0  0  0  0  0  0
    8.6505   -1.7094   23.2472 C   0  0  0  0  0  0  0  0  0  0  0  0
    9.5233   -2.5041   23.5804 O   0  0  0  0  0  0  0  0  0  0  0  0
    7.5889   -1.9872   22.4525 N   0  0  0  0  0  0  0  0  0  0  0  0
    7.1012   -3.2188   21.9505 C   0  0  0  0  0  0  0  0  0  0  0  0
    7.4394   -4.4618   22.4761 C   0  0  0  0  0  0  0  0  0  0  0  0
    6.9107   -5.6115   21.9165 C   0  0  0  0  0  0  0  0  0  0  0  0
    6.0641   -5.4384   20.8496 C   0  0  0  0  0  0  0  0  0  0  0  0
    5.5241   -6.5344   20.2712 F   0  0  0  0  0  0  0  0  0  0  0  0
    5.7093   -4.3097   20.3128 N   0  0  0  0  0  0  0  0  0  0  0  0
    6.2306   -3.2103   20.8676 C   0  0  0  0  0  0  0  0  0  0  0  0
   10.8981    2.3391   22.4526 C   0  0  0  0  0  0  0  0  0  0  0  0
   10.6672    5.5977   22.7527 N   0  0  0  0  0  0  0  0  0  0  0  0
  1  2  1  0
  2  3  1  0
  3  4  1  0
  4  5  2  0
  5  6  1  0
  6  7  2  0
  7  8  1  0
  7  9  1  0
  9 10  1  0
 10 11  1  0
 11 12  2  0
 12 13  1  0
 13 14  1  0
 13 15  2  0
 15 16  1  0
 16 17  1  0
 17 18  1  0
 18 19  1  0
 19 20  2  0
 19 21  1  0
 21 22  1  0
 22 23  2  0
 23 24  1  0
 24 25  2  0
 25 26  1  0
 25 27  1  0
 27 28  2  0
 16 29  2  0
  9 30  2  0
 30  4  1  0
 29 11  1  0
 28 22  1  0
M  END
