CVD-0003604|dock_bobby27042020.30|mol2|24|dock2
     RDKit          3D

 21 23  0  0  0  0  0  0  0  0999 V2000
   13.4336    5.7505   22.3150 Cl  0  0  0  0  0  0  0  0  0  0  0  0
   12.5288    4.2645   22.3899 C   0  0  0  0  0  0  0  0  0  0  0  0
   12.2521    3.6873   23.6088 C   0  0  0  0  0  0  0  0  0  0  0  0
   11.5312    2.5076   23.6345 C   0  0  0  0  0  0  0  0  0  0  0  0
   11.1162    1.9553   22.4341 C   0  0  0  0  0  0  0  0  0  0  0  0
   10.3302    0.6691   22.3915 C   0  0  0  0  0  0  0  0  0  0  0  0
    9.0466    0.8117   21.7201 N   0  0  0  0  0  0  0  0  0  0  0  0
    8.6355   -0.0390   20.7838 C   0  0  0  0  0  0  0  0  0  0  0  0
    9.3046   -1.0009   20.4194 O   0  0  0  0  0  0  0  0  0  0  0  0
    7.2700    0.2347   20.1897 C   0  0  0  0  0  0  0  0  0  0  0  0
    6.6505   -0.9361   19.4872 C   0  0  0  0  0  0  0  0  0  0  0  0
    6.0456   -0.9385   18.2646 C   0  0  0  0  0  0  0  0  0  0  0  0
    5.5986   -2.1945   17.9509 N   0  0  0  0  0  0  0  0  0  0  0  0
    5.9108   -3.0359   18.9781 C   0  0  0  0  0  0  0  0  0  0  0  0
    5.6474   -4.3507   19.0635 N   0  0  0  0  0  0  0  0  0  0  0  0
    6.0571   -4.9659   20.1814 C   0  0  0  0  0  0  0  0  0  0  0  0
    6.7146   -4.3288   21.2121 C   0  0  0  0  0  0  0  0  0  0  0  0
    6.9783   -2.9721   21.1076 C   0  0  0  0  0  0  0  0  0  0  0  0
    6.5729   -2.2859   19.9648 C   0  0  0  0  0  0  0  0  0  0  0  0
   11.3873    2.5170   21.2479 N   0  0  0  0  0  0  0  0  0  0  0  0
   12.0853    3.6584   21.2352 C   0  0  0  0  0  0  0  0  0  0  0  0
  1  2  1  0
  2  3  2  0
  3  4  1  0
  4  5  2  0
  5  6  1  0
  6  7  1  0
  7  8  1  0
  8  9  2  0
  8 10  1  0
 10 11  1  0
 11 12  2  0
 12 13  1  0
 13 14  1  0
 14 15  2  0
 15 16  1  0
 16 17  2  0
 17 18  1  0
 18 19  2  0
  5 20  1  0
 20 21  2  0
 21  2  1  0
 19 11  1  0
 19 14  1  0
M  END
