CVD-0002354|dock_bobby27042020.77|mol2|34|dock3
     RDKit          3D

 38 42  0  0  0  0  0  0  0  0999 V2000
   14.3380    6.8083   22.3849 N   0  0  0  0  0  0  0  0  0  0  0  0
   13.9019    5.2679   22.3783 S   0  0  0  0  0  0  0  0  0  0  0  0
   14.9168    4.5375   23.0766 O   0  0  0  0  0  0  0  0  0  0  0  0
   13.6070    4.9172   21.0214 O   0  0  0  0  0  0  0  0  0  0  0  0
   12.4045    5.1058   23.3026 C   0  0  0  0  0  0  0  0  0  0  0  0
   12.0982    6.0405   24.2776 C   0  0  0  0  0  0  0  0  0  0  0  0
   10.9359    5.8901   25.0085 C   0  0  0  0  0  0  0  0  0  0  0  0
   10.0738    4.8230   24.7830 C   0  0  0  0  0  0  0  0  0  0  0  0
    8.7611    4.7116   25.5202 C   0  0  0  0  0  0  0  0  0  0  0  0
    8.2906    3.2730   25.5746 C   0  0  0  0  0  0  0  0  0  0  0  0
    8.2641    2.6822   24.1763 C   0  0  0  0  0  0  0  0  0  0  0  0
    9.5930    2.7469   23.5820 N   0  0  0  0  0  0  0  0  0  0  0  0
    9.9046    1.7890   22.5179 C   0  0  0  0  0  0  0  0  0  0  0  0
   11.0752    0.9269   22.8233 N   0  0  0  0  0  0  0  0  0  0  0  0
   11.0316   -0.3172   22.0524 C   0  0  0  0  0  0  0  0  0  0  0  0
    9.9339   -1.2307   22.5307 C   0  0  0  0  0  0  0  0  0  0  0  0
   10.0108   -2.0739   23.6537 C   0  0  0  0  0  0  0  0  0  0  0  0
    8.8278   -2.7733   23.7986 C   0  0  0  0  0  0  0  0  0  0  0  0
    8.5317   -3.7635   24.8617 C   0  0  0  0  0  0  0  0  0  0  0  0
    9.4571   -4.7930   25.0421 C   0  0  0  0  0  0  0  0  0  0  0  0
    9.2927   -5.7314   26.0471 C   0  0  0  0  0  0  0  0  0  0  0  0
    8.2037   -5.6684   26.8875 C   0  0  0  0  0  0  0  0  0  0  0  0
    7.2493   -4.6831   26.7094 C   0  0  0  0  0  0  0  0  0  0  0  0
    7.4167   -3.7776   25.6885 C   0  0  0  0  0  0  0  0  0  0  0  0
    6.4214   -2.8848   25.4981 F   0  0  0  0  0  0  0  0  0  0  0  0
    7.9805   -2.3330   22.7453 N   0  0  0  0  0  0  0  0  0  0  0  0
    8.6710   -1.3999   21.9816 C   0  0  0  0  0  0  0  0  0  0  0  0
    6.3833   -2.7247   22.3286 S   0  0  0  0  0  0  0  0  0  0  0  0
    6.3395   -4.1201   22.0207 O   0  0  0  0  0  0  0  0  0  0  0  0
    5.5852   -2.2220   23.4034 O   0  0  0  0  0  0  0  0  0  0  0  0
    5.9997   -1.7740   20.8979 C   0  0  0  0  0  0  0  0  0  0  0  0
    5.8314   -2.3925   19.6709 C   0  0  0  0  0  0  0  0  0  0  0  0
    5.5263   -1.6074   18.5725 C   0  0  0  0  0  0  0  0  0  0  0  0
    5.4020   -0.2473   18.7445 C   0  0  0  0  0  0  0  0  0  0  0  0
    5.5598    0.3618   19.9206 N   0  0  0  0  0  0  0  0  0  0  0  0
    5.8539   -0.4019   20.9768 C   0  0  0  0  0  0  0  0  0  0  0  0
   10.3947    3.8763   23.7878 C   0  0  0  0  0  0  0  0  0  0  0  0
   11.5673    4.0293   23.0515 C   0  0  0  0  0  0  0  0  0  0  0  0
  1  2  1  0
  2  3  2  0
  2  4  2  0
  2  5  1  0
  5  6  2  0
  6  7  1  0
  7  8  2  0
  8  9  1  0
  9 10  1  0
 10 11  1  0
 11 12  1  0
 12 13  1  0
 13 14  1  0
 14 15  1  0
 15 16  1  0
 16 17  1  0
 17 18  2  0
 18 19  1  0
 19 20  2  0
 20 21  1  0
 21 22  2  0
 22 23  1  0
 23 24  2  0
 24 25  1  0
 18 26  1  0
 26 27  1  0
 26 28  1  0
 28 29  2  0
 28 30  2  0
 28 31  1  0
 31 32  2  0
 32 33  1  0
 33 34  2  0
 34 35  1  0
 35 36  2  0
 12 37  1  0
 37 38  2  0
 38  5  1  0
 37  8  1  0
 27 16  2  0
 36 31  1  0
 24 19  1  0
M  END
