CVD-0002262|dock_bobby27042020.21|mol2|3|dock2
     RDKit          3D

 26 28  0  0  0  0  0  0  0  0999 V2000
    5.1178    0.9704   19.1250 C   0  0  0  0  0  0  0  0  0  0  0  0
    5.9791   -0.5523   19.0454 S   0  0  0  0  0  0  0  0  0  0  0  0
    7.2044   -0.3329   18.3409 O   0  0  0  0  0  0  0  0  0  0  0  0
    5.0771   -1.5473   18.5533 O   0  0  0  0  0  0  0  0  0  0  0  0
    6.3673   -0.9702   20.5439 N   0  0  0  0  0  0  0  0  0  0  0  0
    7.6213   -0.4836   21.1315 C   0  0  0  0  0  0  0  0  0  0  0  0
    8.7590   -1.4447   20.8374 C   0  0  0  0  0  0  0  0  0  0  0  0
    9.9714   -1.1964   21.7018 C   0  0  0  0  0  0  0  0  0  0  0  0
   10.5975   -2.2394   22.3665 C   0  0  0  0  0  0  0  0  0  0  0  0
   11.7075   -2.0063   23.1607 C   0  0  0  0  0  0  0  0  0  0  0  0
   12.2039   -0.7213   23.2992 C   0  0  0  0  0  0  0  0  0  0  0  0
   11.5899    0.3385   22.6421 C   0  0  0  0  0  0  0  0  0  0  0  0
   10.4762    0.0896   21.8480 C   0  0  0  0  0  0  0  0  0  0  0  0
   12.1041    1.7091   22.7789 C   0  0  0  0  0  0  0  0  0  0  0  0
   13.1730    2.0067   23.4563 N   0  0  0  0  0  0  0  0  0  0  0  0
   13.4555    3.3711   23.4373 N   0  0  0  0  0  0  0  0  0  0  0  0
   12.5968    4.0500   22.7541 C   0  0  0  0  0  0  0  0  0  0  0  0
   12.7049    5.5368   22.5940 C   0  0  0  0  0  0  0  0  0  0  0  0
   11.9099    6.2690   23.5830 N   0  0  0  0  0  0  0  0  0  0  0  0
   10.5123    5.8553   23.5756 C   0  0  0  0  0  0  0  0  0  0  0  0
    9.6346    6.6878   24.4942 C   0  0  0  0  0  0  0  0  0  0  0  0
   10.2779    6.8287   25.8241 C   0  0  0  0  0  0  0  0  0  0  0  0
   11.5588    6.5850   26.0222 C   0  0  0  0  0  0  0  0  0  0  0  0
   12.2293    6.7031   27.2074 F   0  0  0  0  0  0  0  0  0  0  0  0
   12.4575    6.1303   24.9312 C   0  0  0  0  0  0  0  0  0  0  0  0
   11.3362    3.0822   22.0474 S   0  0  0  0  0  0  0  0  0  0  0  0
  1  2  1  0
  2  3  2  0
  2  4  2  0
  2  5  1  0
  5  6  1  0
  6  7  1  0
  7  8  1  0
  8  9  2  0
  9 10  1  0
 10 11  2  0
 11 12  1  0
 12 13  2  0
 12 14  1  0
 14 15  2  0
 15 16  1  0
 16 17  2  0
 17 18  1  0
 18 19  1  0
 19 20  1  0
 20 21  1  0
 21 22  1  0
 22 23  2  0
 23 24  1  0
 23 25  1  0
 17 26  1  0
 13  8  1  0
 26 14  1  0
 25 19  1  0
M  END
