CVD-0001930|dock_bobby27042020.50|mol2|45|dock3
     RDKit          3D

 21 23  0  0  0  0  0  0  0  0999 V2000
    8.5141   -1.1894   20.6947 N   0  0  0  0  0  0  0  0  0  0  0  0
    8.5199    0.2135   21.1658 C   0  0  0  0  0  0  0  0  0  0  0  0
    9.5123    0.4502   22.2957 C   0  0  0  0  0  0  0  0  0  0  0  0
   10.7108   -0.2574   21.9663 O   0  0  0  0  0  0  0  0  0  0  0  0
   11.7140   -0.0790   22.9772 C   0  0  0  0  0  0  0  0  0  0  0  0
   12.1931    1.3473   22.9868 C   0  0  0  0  0  0  0  0  0  0  0  0
   11.0804    2.3490   22.8192 C   0  0  0  0  0  0  0  0  0  0  0  0
   11.3134    3.7246   22.9761 C   0  0  0  0  0  0  0  0  0  0  0  0
   12.5400    4.2181   23.3301 O   0  0  0  0  0  0  0  0  0  0  0  0
   10.2619    4.6347   22.8683 C   0  0  0  0  0  0  0  0  0  0  0  0
   10.5050    5.9544   23.0789 O   0  0  0  0  0  0  0  0  0  0  0  0
    8.9742    4.1907   22.6048 C   0  0  0  0  0  0  0  0  0  0  0  0
    8.7475    2.8360   22.4507 C   0  0  0  0  0  0  0  0  0  0  0  0
    9.7896    1.9134   22.5558 C   0  0  0  0  0  0  0  0  0  0  0  0
   12.8313   -1.0776   22.6778 C   0  0  0  0  0  0  0  0  0  0  0  0
   12.3076   -2.5222   22.7169 C   0  0  0  0  0  0  0  0  0  0  0  0
   11.8908   -2.9072   24.1339 C   0  0  0  0  0  0  0  0  0  0  0  0
   13.0520   -2.7377   25.1110 C   0  0  0  0  0  0  0  0  0  0  0  0
   13.6349   -1.3362   25.0601 C   0  0  0  0  0  0  0  0  0  0  0  0
   14.7294   -1.1413   26.0178 N   0  0  0  0  0  0  0  0  0  0  0  0
   14.0136   -0.9290   23.6319 C   0  0  0  0  0  0  0  0  0  0  0  0
  1  2  1  0
  2  3  1  0
  3  4  1  0
  4  5  1  0
  5  6  1  0
  6  7  1  0
  7  8  2  0
  8  9  1  0
  8 10  1  0
 10 11  1  0
 10 12  2  0
 12 13  1  0
 13 14  2  0
  5 15  1  0
 15 16  1  0
 16 17  1  0
 17 18  1  0
 18 19  1  0
 19 20  1  0
 19 21  1  0
 14  3  1  0
 21 15  1  0
 14  7  1  0
M  END
