CVD-0001341|dock_bobby27042020.53|mol2|5|dock2
     RDKit          3D

 25 27  0  0  0  0  0  0  0  0999 V2000
   14.6578    4.4003   22.8039 O   0  0  0  0  0  0  0  0  0  0  0  0
   13.3017    4.5237   22.8882 C   0  0  0  0  0  0  0  0  0  0  0  0
   12.7356    5.7720   23.0846 C   0  0  0  0  0  0  0  0  0  0  0  0
   11.3596    5.8868   23.1688 C   0  0  0  0  0  0  0  0  0  0  0  0
   10.5552    4.7653   23.0579 C   0  0  0  0  0  0  0  0  0  0  0  0
   11.1147    3.5080   22.8606 C   0  0  0  0  0  0  0  0  0  0  0  0
   10.2253    2.4079   22.7570 N   0  0  0  0  0  0  0  0  0  0  0  0
   10.4329    1.0590   22.9410 C   0  0  0  0  0  0  0  0  0  0  0  0
   11.5128    0.5665   23.2489 O   0  0  0  0  0  0  0  0  0  0  0  0
    9.2745    0.3419   22.7348 N   0  0  0  0  0  0  0  0  0  0  0  0
    9.0469   -1.0617   22.8202 C   0  0  0  0  0  0  0  0  0  0  0  0
    9.8224   -1.9502   23.5665 C   0  0  0  0  0  0  0  0  0  0  0  0
    9.5939   -3.2653   23.6367 N   0  0  0  0  0  0  0  0  0  0  0  0
    8.5639   -3.7534   22.9517 C   0  0  0  0  0  0  0  0  0  0  0  0
    7.7323   -2.9714   22.1820 C   0  0  0  0  0  0  0  0  0  0  0  0
    7.9633   -1.6023   22.1029 C   0  0  0  0  0  0  0  0  0  0  0  0
    7.0207   -0.7857   21.2476 C   0  0  0  0  0  0  0  0  0  0  0  0
    7.6982   -0.1330   20.0367 C   0  0  0  0  0  0  0  0  0  0  0  0
    6.8397    0.9141   19.3881 C   0  0  0  0  0  0  0  0  0  0  0  0
    5.5885    0.2605   18.8555 C   0  0  0  0  0  0  0  0  0  0  0  0
    5.9176   -0.9384   18.0633 N   0  0  0  0  0  0  0  0  0  0  0  0
    7.0822   -1.5831   18.1723 C   0  0  0  0  0  0  0  0  0  0  0  0
    7.2608   -2.5553   17.4432 O   0  0  0  0  0  0  0  0  0  0  0  0
    8.0030   -1.1733   19.0439 N   0  0  0  0  0  0  0  0  0  0  0  0
   12.5020    3.3951   22.7762 C   0  0  0  0  0  0  0  0  0  0  0  0
  1  2  1  0
  2  3  2  0
  3  4  1  0
  4  5  2  0
  5  6  1  0
  6  7  1  0
  7  8  1  0
  8  9  2  0
  8 10  1  0
 10 11  1  0
 11 12  2  0
 12 13  1  0
 13 14  2  0
 14 15  1  0
 15 16  2  0
 16 17  1  0
 17 18  1  0
 18 19  1  0
 19 20  1  0
 20 21  1  0
 21 22  1  0
 22 23  2  0
 22 24  1  0
  6 25  2  0
 25  2  1  0
 16 11  1  0
 24 18  1  0
M  END
