CVD-0000299|dock_bobby27042020.42|mol2|9|dock3
     RDKit          3D

 23 24  0  0  0  0  0  0  0  0999 V2000
   11.4254    1.9823   23.5976 C   0  0  0  0  0  0  0  0  0  0  0  0
   12.6435    1.1997   23.1226 C   0  0  0  0  0  0  0  0  0  0  0  0
   13.4914    0.8576   24.3432 C   0  0  0  0  0  0  0  0  0  0  0  0
   12.2829   -0.0661   22.3332 C   0  0  0  0  0  0  0  0  0  0  0  0
   11.6308    0.3028   21.1157 O   0  0  0  0  0  0  0  0  0  0  0  0
   11.3464   -1.0494   23.0251 C   0  0  0  0  0  0  0  0  0  0  0  0
   11.5383   -2.5227   22.6605 C   0  0  0  0  0  0  0  0  0  0  0  0
   10.3480   -3.3590   23.0801 C   0  0  0  0  0  0  0  0  0  0  0  0
   10.5178   -4.1720   24.1965 C   0  0  0  0  0  0  0  0  0  0  0  0
    9.4955   -4.9767   24.6587 C   0  0  0  0  0  0  0  0  0  0  0  0
    8.2860   -4.9753   24.0049 C   0  0  0  0  0  0  0  0  0  0  0  0
    8.0841   -4.1771   22.8908 C   0  0  0  0  0  0  0  0  0  0  0  0
    9.1102   -3.3573   22.4078 C   0  0  0  0  0  0  0  0  0  0  0  0
    8.9667   -2.5166   21.2659 N   0  0  0  0  0  0  0  0  0  0  0  0
    7.8889   -1.7667   20.8470 C   0  0  0  0  0  0  0  0  0  0  0  0
    6.8107   -1.6985   21.4274 O   0  0  0  0  0  0  0  0  0  0  0  0
    8.1720   -1.0933   19.6798 N   0  0  0  0  0  0  0  0  0  0  0  0
    7.3715   -0.2190   18.9016 C   0  0  0  0  0  0  0  0  0  0  0  0
    6.0374    0.0764   19.1667 C   0  0  0  0  0  0  0  0  0  0  0  0
    5.3575    0.9476   18.3328 C   0  0  0  0  0  0  0  0  0  0  0  0
    6.0230    1.4981   17.2620 C   0  0  0  0  0  0  0  0  0  0  0  0
    7.2991    1.2349   16.9825 N   0  0  0  0  0  0  0  0  0  0  0  0
    7.9461    0.3931   17.7934 C   0  0  0  0  0  0  0  0  0  0  0  0
  1  2  1  0
  2  3  1  0
  2  4  1  0
  4  5  1  0
  4  6  1  0
  6  7  1  0
  7  8  1  0
  8  9  2  0
  9 10  1  0
 10 11  2  0
 11 12  1  0
 12 13  2  0
 13 14  1  0
 14 15  1  0
 15 16  2  0
 15 17  1  0
 17 18  1  0
 18 19  2  0
 19 20  1  0
 20 21  2  0
 21 22  1  0
 22 23  2  0
 13  8  1  0
 23 18  1  0
M  END
