CVD-0002567|dock_bobby27042020.48|mol2|11|dock3
     RDKit          3D

 34 38  0  0  0  0  0  0  0  0999 V2000
    9.6529   -1.0253   22.8243 O   0  0  0  0  0  0  0  0  0  0  0  0
   10.1639   -1.3259   21.7500 C   0  0  0  0  0  0  0  0  0  0  0  0
   11.4668   -1.7414   21.5968 N   0  0  0  0  0  0  0  0  0  0  0  0
   12.4996   -1.9246   22.5512 C   0  0  0  0  0  0  0  0  0  0  0  0
   12.1573   -2.3644   23.8235 C   0  0  0  0  0  0  0  0  0  0  0  0
   13.1447   -2.5519   24.7745 C   0  0  0  0  0  0  0  0  0  0  0  0
   14.4501   -2.2941   24.4271 C   0  0  0  0  0  0  0  0  0  0  0  0
   14.8121   -1.8713   23.2160 N   0  0  0  0  0  0  0  0  0  0  0  0
   13.8513   -1.6928   22.3039 C   0  0  0  0  0  0  0  0  0  0  0  0
    9.5093   -1.2839   20.5400 N   0  0  0  0  0  0  0  0  0  0  0  0
    8.1691   -0.9031   20.2636 C   0  0  0  0  0  0  0  0  0  0  0  0
    7.8391   -0.2560   19.0712 C   0  0  0  0  0  0  0  0  0  0  0  0
    6.5578    0.2221   18.8686 C   0  0  0  0  0  0  0  0  0  0  0  0
    5.5984    0.0800   19.8423 C   0  0  0  0  0  0  0  0  0  0  0  0
    5.8812   -0.5994   21.0130 C   0  0  0  0  0  0  0  0  0  0  0  0
    7.1473   -1.1525   21.2085 C   0  0  0  0  0  0  0  0  0  0  0  0
    7.3657   -1.9621   22.3552 N   0  0  0  0  0  0  0  0  0  0  0  0
    6.7531   -1.5812   23.6364 C   0  0  0  0  0  0  0  0  0  0  0  0
    7.4888   -2.2378   24.7991 C   0  0  0  0  0  0  0  0  0  0  0  0
    7.6217   -3.6753   24.6197 N   0  0  0  0  0  0  0  0  0  0  0  0
    8.1838   -4.0426   23.3115 C   0  0  0  0  0  0  0  0  0  0  0  0
    7.3579   -3.4398   22.2061 C   0  0  0  0  0  0  0  0  0  0  0  0
    7.3458   -4.6598   25.5000 C   0  0  0  0  0  0  0  0  0  0  0  0
    7.5011   -5.8405   25.2150 O   0  0  0  0  0  0  0  0  0  0  0  0
    6.8394   -4.2587   26.8740 C   0  0  0  0  0  0  0  0  0  0  0  0
    6.5994   -5.4221   27.7888 C   0  0  0  0  0  0  0  0  0  0  0  0
    7.2879   -5.7343   28.9242 C   0  0  0  0  0  0  0  0  0  0  0  0
    6.7822   -6.8709   29.4970 N   0  0  0  0  0  0  0  0  0  0  0  0
    5.7452   -7.3184   28.7321 C   0  0  0  0  0  0  0  0  0  0  0  0
    4.9822   -8.4033   28.9476 N   0  0  0  0  0  0  0  0  0  0  0  0
    4.0172   -8.6375   28.0478 C   0  0  0  0  0  0  0  0  0  0  0  0
    3.7820   -7.8400   26.9482 C   0  0  0  0  0  0  0  0  0  0  0  0
    4.5784   -6.7247   26.7410 C   0  0  0  0  0  0  0  0  0  0  0  0
    5.5962   -6.4370   27.6480 C   0  0  0  0  0  0  0  0  0  0  0  0
  1  2  2  0
  2  3  1  0
  3  4  1  0
  4  5  2  0
  5  6  1  0
  6  7  2  0
  7  8  1  0
  8  9  2  0
  2 10  1  0
 10 11  1  0
 11 12  2  0
 12 13  1  0
 13 14  2  0
 14 15  1  0
 15 16  2  0
 16 17  1  0
 17 18  1  0
 18 19  1  0
 19 20  1  0
 20 21  1  0
 21 22  1  0
 20 23  1  0
 23 24  2  0
 23 25  1  0
 25 26  1  0
 26 27  2  0
 27 28  1  0
 28 29  1  0
 29 30  2  0
 30 31  1  0
 31 32  2  0
 32 33  1  0
 33 34  2  0
  9  4  1  0
 16 11  1  0
 22 17  1  0
 34 26  1  0
 34 29  1  0
M  END
