CVD-0003570|dock_bobby27042020.16|mol2|13|dock2
     RDKit          3D

 25 27  0  0  0  0  0  0  0  0999 V2000
    7.2700   -0.1166   18.6251 C   0  0  0  0  0  0  0  0  0  0  0  0
    5.9699    0.5681   18.3206 C   0  0  0  0  0  0  0  0  0  0  0  0
    5.2741    0.1972   17.3817 O   0  0  0  0  0  0  0  0  0  0  0  0
    5.5829    1.5944   19.1196 N   0  0  0  0  0  0  0  0  0  0  0  0
    4.2985    2.2162   18.8240 C   0  0  0  0  0  0  0  0  0  0  0  0
    3.5991    2.6936   20.0794 C   0  0  0  0  0  0  0  0  0  0  0  0
    3.3792    1.6276   21.1708 C   0  0  0  0  0  0  0  0  0  0  0  0
    4.6068    1.2281   21.9940 C   0  0  0  0  0  0  0  0  0  0  0  0
    4.3472    0.6172   23.2178 C   0  0  0  0  0  0  0  0  0  0  0  0
    5.3590    0.1282   24.0170 C   0  0  0  0  0  0  0  0  0  0  0  0
    6.6678    0.2496   23.5887 C   0  0  0  0  0  0  0  0  0  0  0  0
    6.9704    0.8546   22.3700 C   0  0  0  0  0  0  0  0  0  0  0  0
    8.4027    0.7646   21.8900 C   0  0  0  0  0  0  0  0  0  0  0  0
    9.2803    0.0090   22.7956 N   0  0  0  0  0  0  0  0  0  0  0  0
    9.6852   -1.2576   22.1787 C   0  0  0  0  0  0  0  0  0  0  0  0
   10.5570   -2.0518   23.1336 C   0  0  0  0  0  0  0  0  0  0  0  0
   11.7382   -1.2744   23.5148 N   0  0  0  0  0  0  0  0  0  0  0  0
   11.3672    0.0261   24.0812 C   0  0  0  0  0  0  0  0  0  0  0  0
   10.4748    0.7860   23.1168 C   0  0  0  0  0  0  0  0  0  0  0  0
   12.9968   -1.7401   23.3753 C   0  0  0  0  0  0  0  0  0  0  0  0
   13.2220   -2.8558   22.9235 O   0  0  0  0  0  0  0  0  0  0  0  0
   14.1264   -0.8188   23.7948 C   0  0  0  0  0  0  0  0  0  0  0  0
   14.1808    0.6089   22.7524 Cl  0  0  0  0  0  0  0  0  0  0  0  0
    5.9280    1.3505   21.5622 C   0  0  0  0  0  0  0  0  0  0  0  0
    6.3040    2.0801   20.2842 C   0  0  0  0  0  0  0  0  0  0  0  0
  1  2  1  0
  2  3  2  0
  2  4  1  0
  4  5  1  0
  5  6  1  0
  6  7  1  0
  7  8  1  0
  8  9  2  0
  9 10  1  0
 10 11  2  0
 11 12  1  0
 12 13  1  0
 13 14  1  0
 14 15  1  0
 15 16  1  0
 16 17  1  0
 17 18  1  0
 18 19  1  0
 17 20  1  0
 20 21  2  0
 20 22  1  0
 22 23  1  0
 12 24  2  0
 24 25  1  0
 25  4  1  0
 24  8  1  0
 19 14  1  0
M  END
