CVD-0003869|dock_bobby27042020.44|mol2|5|dock2
     RDKit          3D

 25 27  0  0  0  0  0  0  0  0999 V2000
    9.6934   -5.4839   26.6417 C   0  0  0  0  0  0  0  0  0  0  0  0
    8.2583   -5.9332   26.5606 C   0  0  0  0  0  0  0  0  0  0  0  0
    7.5804   -6.3547   27.7017 C   0  0  0  0  0  0  0  0  0  0  0  0
    6.2592   -6.7493   27.6109 C   0  0  0  0  0  0  0  0  0  0  0  0
    5.5572   -6.7526   26.4763 N   0  0  0  0  0  0  0  0  0  0  0  0
    6.1923   -6.3494   25.3725 C   0  0  0  0  0  0  0  0  0  0  0  0
    7.5392   -5.9443   25.3644 C   0  0  0  0  0  0  0  0  0  0  0  0
    8.3371   -5.4472   23.8635 S   0  0  0  0  0  0  0  0  0  0  0  0
    7.8928   -3.6995   23.6993 C   0  0  0  0  0  0  0  0  0  0  0  0
    8.9511   -2.8797   22.9573 C   0  0  0  0  0  0  0  0  0  0  0  0
   10.1546   -2.5661   23.8532 C   0  0  0  0  0  0  0  0  0  0  0  0
   11.1853   -1.7639   23.1104 C   0  0  0  0  0  0  0  0  0  0  0  0
   10.6266   -0.5268   22.5568 N   0  0  0  0  0  0  0  0  0  0  0  0
    9.4479   -0.7593   21.6902 C   0  0  0  0  0  0  0  0  0  0  0  0
    8.4039   -1.5847   22.4116 C   0  0  0  0  0  0  0  0  0  0  0  0
   11.2644    0.7016   22.6634 C   0  0  0  0  0  0  0  0  0  0  0  0
   10.5398    1.8761   22.8414 C   0  0  0  0  0  0  0  0  0  0  0  0
   11.1750    3.1015   22.9368 C   0  0  0  0  0  0  0  0  0  0  0  0
   12.5550    3.1643   22.8622 C   0  0  0  0  0  0  0  0  0  0  0  0
   13.2973    2.0087   22.6962 C   0  0  0  0  0  0  0  0  0  0  0  0
   12.6519    0.7890   22.5970 C   0  0  0  0  0  0  0  0  0  0  0  0
   13.3733    4.7254   22.9902 S   0  0  0  0  0  0  0  0  0  0  0  0
   12.9999    5.6010   21.7029 N   0  0  0  0  0  0  0  0  0  0  0  0
   12.8324    5.3994   24.1322 O   0  0  0  0  0  0  0  0  0  0  0  0
   14.7825    4.4752   22.9378 O   0  0  0  0  0  0  0  0  0  0  0  0
  1  2  1  0
  2  3  2  0
  3  4  1  0
  4  5  2  0
  5  6  1  0
  6  7  2  0
  7  8  1  0
  8  9  1  0
  9 10  1  0
 10 11  1  0
 11 12  1  0
 12 13  1  0
 13 14  1  0
 14 15  1  0
 13 16  1  0
 16 17  2  0
 17 18  1  0
 18 19  2  0
 19 20  1  0
 20 21  2  0
 19 22  1  0
 22 23  1  0
 22 24  2  0
 22 25  2  0
  7  2  1  0
 15 10  1  0
 21 16  1  0
M  END
