CVD-0002051|dock_bobby27042020.65|mol2|7|dock3
     RDKit          3D

 34 37  0  0  0  0  0  0  0  0999 V2000
    6.4808   -4.6292   23.6815 C   0  0  0  0  0  0  0  0  0  0  0  0
    6.0757   -5.1247   22.3635 N   0  0  0  0  0  0  0  0  0  0  0  0
    6.9983   -4.7815   21.2759 C   0  0  0  0  0  0  0  0  0  0  0  0
    7.0919   -3.2975   21.0751 C   0  0  0  0  0  0  0  0  0  0  0  0
    6.2079   -2.5449   20.2776 C   0  0  0  0  0  0  0  0  0  0  0  0
    6.5612   -1.2149   20.3403 C   0  0  0  0  0  0  0  0  0  0  0  0
    5.8593   -0.1034   19.6552 C   0  0  0  0  0  0  0  0  0  0  0  0
    6.3509    0.3009   18.4130 C   0  0  0  0  0  0  0  0  0  0  0  0
    5.7665    1.3516   17.7254 C   0  0  0  0  0  0  0  0  0  0  0  0
    4.6818    2.0147   18.2553 C   0  0  0  0  0  0  0  0  0  0  0  0
    4.1547    1.6186   19.4716 C   0  0  0  0  0  0  0  0  0  0  0  0
    4.7382    0.5622   20.1298 C   0  0  0  0  0  0  0  0  0  0  0  0
    4.1670    0.1634   21.2882 F   0  0  0  0  0  0  0  0  0  0  0  0
    7.7219   -1.1496   21.1795 N   0  0  0  0  0  0  0  0  0  0  0  0
    8.0199   -2.4542   21.6315 C   0  0  0  0  0  0  0  0  0  0  0  0
    9.1416   -2.8312   22.5513 C   0  0  0  0  0  0  0  0  0  0  0  0
   10.4538   -2.5166   22.0126 N   0  0  0  0  0  0  0  0  0  0  0  0
   11.5693   -2.3261   22.7744 C   0  0  0  0  0  0  0  0  0  0  0  0
   12.7268   -1.7186   22.2847 C   0  0  0  0  0  0  0  0  0  0  0  0
   13.8054   -1.5645   23.1369 C   0  0  0  0  0  0  0  0  0  0  0  0
   13.7204   -2.0141   24.4491 C   0  0  0  0  0  0  0  0  0  0  0  0
   12.5277   -2.6098   24.8454 C   0  0  0  0  0  0  0  0  0  0  0  0
   11.4760   -2.7657   24.0339 N   0  0  0  0  0  0  0  0  0  0  0  0
   14.8257   -1.8688   25.3642 C   0  0  0  0  0  0  0  0  0  0  0  0
   15.6920   -1.7822   26.1036 N   0  0  0  0  0  0  0  0  0  0  0  0
    8.6315    0.2297   21.6062 S   0  0  0  0  0  0  0  0  0  0  0  0
    9.9313    0.1053   21.0260 O   0  0  0  0  0  0  0  0  0  0  0  0
    7.8737    1.3920   21.2655 O   0  0  0  0  0  0  0  0  0  0  0  0
    8.8232    0.1483   23.3537 C   0  0  0  0  0  0  0  0  0  0  0  0
    7.7207   -0.0305   24.1717 C   0  0  0  0  0  0  0  0  0  0  0  0
    7.9178   -0.0914   25.5404 C   0  0  0  0  0  0  0  0  0  0  0  0
    9.1984    0.0274   26.0313 C   0  0  0  0  0  0  0  0  0  0  0  0
   10.2695    0.1991   25.2552 N   0  0  0  0  0  0  0  0  0  0  0  0
   10.0723    0.2569   23.9349 C   0  0  0  0  0  0  0  0  0  0  0  0
  1  2  1  0
  2  3  1  0
  3  4  1  0
  4  5  1  0
  5  6  2  0
  6  7  1  0
  7  8  2  0
  8  9  1  0
  9 10  2  0
 10 11  1  0
 11 12  2  0
 12 13  1  0
  6 14  1  0
 14 15  1  0
 15 16  1  0
 16 17  1  0
 17 18  1  0
 18 19  2  0
 19 20  1  0
 20 21  2  0
 21 22  1  0
 22 23  2  0
 21 24  1  0
 24 25  3  0
 14 26  1  0
 26 27  2  0
 26 28  2  0
 26 29  1  0
 29 30  2  0
 30 31  1  0
 31 32  2  0
 32 33  1  0
 33 34  2  0
 15  4  2  0
 23 18  1  0
 34 29  1  0
 12  7  1  0
M  END
