CVD-0001867|dock_bobby27042020.94|mol2|2|dock2
     RDKit          3D

 20 21  0  0  0  0  0  0  0  0999 V2000
    5.0467    2.2525   20.5783 F   0  0  0  0  0  0  0  0  0  0  0  0
    5.3447    1.0059   20.1223 C   0  0  0  0  0  0  0  0  0  0  0  0
    5.1733    0.7417   18.7909 C   0  0  0  0  0  0  0  0  0  0  0  0
    5.4769   -0.5284   18.3306 C   0  0  0  0  0  0  0  0  0  0  0  0
    5.9418   -1.4984   19.2028 C   0  0  0  0  0  0  0  0  0  0  0  0
    6.1019   -1.1851   20.5430 C   0  0  0  0  0  0  0  0  0  0  0  0
    5.8022    0.0795   21.0269 C   0  0  0  0  0  0  0  0  0  0  0  0
    6.6862   -2.4133   21.6593 S   0  0  0  0  0  0  0  0  0  0  0  0
    6.8404   -3.6354   20.9333 O   0  0  0  0  0  0  0  0  0  0  0  0
    5.8637   -2.3777   22.8284 O   0  0  0  0  0  0  0  0  0  0  0  0
    8.1806   -1.9646   22.1317 N   0  0  0  0  0  0  0  0  0  0  0  0
    9.1996   -1.8151   21.0830 C   0  0  0  0  0  0  0  0  0  0  0  0
   10.2950   -0.9307   21.5897 C   0  0  0  0  0  0  0  0  0  0  0  0
   10.8416   -1.4522   22.8316 N   0  0  0  0  0  0  0  0  0  0  0  0
    9.8376   -1.6927   23.8728 C   0  0  0  0  0  0  0  0  0  0  0  0
    8.7373   -2.5688   23.3512 C   0  0  0  0  0  0  0  0  0  0  0  0
   12.1703   -1.6396   22.9641 C   0  0  0  0  0  0  0  0  0  0  0  0
   12.9549   -1.3938   22.0567 O   0  0  0  0  0  0  0  0  0  0  0  0
   12.6445   -2.1776   24.2998 C   0  0  0  0  0  0  0  0  0  0  0  0
   14.4083   -2.2924   24.3538 Cl  0  0  0  0  0  0  0  0  0  0  0  0
  1  2  1  0
  2  3  2  0
  3  4  1  0
  4  5  2  0
  5  6  1  0
  6  7  2  0
  6  8  1  0
  8  9  2  0
  8 10  2  0
  8 11  1  0
 11 12  1  0
 12 13  1  0
 13 14  1  0
 14 15  1  0
 15 16  1  0
 14 17  1  0
 17 18  2  0
 17 19  1  0
 19 20  1  0
  7  2  1  0
 16 11  1  0
M  END
