CVD-0002016|dock_bobby27042020.22|mol2|4|dock3
     RDKit          3D

 19 21  0  0  0  0  0  0  0  0999 V2000
   13.1635   -2.2098   21.6889 C   0  0  0  0  0  0  0  0  0  0  0  0
   13.7846   -1.0980   22.5307 C   0  0  0  0  0  0  0  0  0  0  0  0
   14.0598   -1.5989   23.9356 C   0  0  0  0  0  0  0  0  0  0  0  0
   14.6287   -2.7776   23.9627 O   0  0  0  0  0  0  0  0  0  0  0  0
   13.7766   -0.9673   24.9298 O   0  0  0  0  0  0  0  0  0  0  0  0
   12.8745    0.1194   22.6254 C   0  0  0  0  0  0  0  0  0  0  0  0
   11.4935   -0.0318   22.5662 C   0  0  0  0  0  0  0  0  0  0  0  0
   10.6391    1.0535   22.6518 C   0  0  0  0  0  0  0  0  0  0  0  0
   11.1800    2.3276   22.8019 C   0  0  0  0  0  0  0  0  0  0  0  0
   12.5786    2.4819   22.8631 C   0  0  0  0  0  0  0  0  0  0  0  0
   13.4282    1.3846   22.7761 C   0  0  0  0  0  0  0  0  0  0  0  0
   12.8809    3.8239   23.0128 N   0  0  0  0  0  0  0  0  0  0  0  0
   11.6994    4.5403   23.0492 C   0  0  0  0  0  0  0  0  0  0  0  0
   11.4508    5.9006   23.1830 C   0  0  0  0  0  0  0  0  0  0  0  0
   10.1348    6.3295   23.1851 C   0  0  0  0  0  0  0  0  0  0  0  0
    9.1498    5.3744   23.0537 C   0  0  0  0  0  0  0  0  0  0  0  0
    7.4871    5.8824   23.0528 Cl  0  0  0  0  0  0  0  0  0  0  0  0
    9.3316    4.0651   22.9231 N   0  0  0  0  0  0  0  0  0  0  0  0
   10.6098    3.6631   22.9226 C   0  0  0  0  0  0  0  0  0  0  0  0
  2  1  1  0
  2  3  1  0
  3  4  1  0
  3  5  2  0
  2  6  1  0
  6  7  2  0
  7  8  1  0
  8  9  2  0
  9 10  1  0
 10 11  2  0
 10 12  1  0
 12 13  1  0
 13 14  2  0
 14 15  1  0
 15 16  2  0
 16 17  1  0
 16 18  1  0
 18 19  2  0
 11  6  1  0
 19 13  1  0
 19  9  1  0
M  END
