CVD-0000017|dock_bobby27042020.28|mol2|40|dock3
     RDKit          3D

 24 25  0  0  0  0  0  0  0  0999 V2000
    8.4244   -5.6589   27.3116 C   0  0  0  0  0  0  0  0  0  0  0  0
    9.7866   -4.6763   26.8160 S   0  0  0  0  0  0  0  0  0  0  0  0
   10.9275   -5.0831   27.5766 O   0  0  0  0  0  0  0  0  0  0  0  0
    9.3858   -3.3042   26.8668 O   0  0  0  0  0  0  0  0  0  0  0  0
   10.0994   -5.0177   25.2810 N   0  0  0  0  0  0  0  0  0  0  0  0
    9.6144   -4.1215   24.2246 C   0  0  0  0  0  0  0  0  0  0  0  0
   10.5692   -2.9494   24.0620 C   0  0  0  0  0  0  0  0  0  0  0  0
   10.5400   -2.3337   22.6541 C   0  0  0  0  0  0  0  0  0  0  0  0
    9.1076   -1.9404   22.2868 C   0  0  0  0  0  0  0  0  0  0  0  0
    8.2258   -1.8681   23.1373 O   0  0  0  0  0  0  0  0  0  0  0  0
    8.9511   -1.6922   20.9630 N   0  0  0  0  0  0  0  0  0  0  0  0
    7.8124   -1.3040   20.2136 C   0  0  0  0  0  0  0  0  0  0  0  0
    7.9706   -0.3933   19.1769 C   0  0  0  0  0  0  0  0  0  0  0  0
    6.8705   -0.0023   18.4343 C   0  0  0  0  0  0  0  0  0  0  0  0
    5.6414   -0.5333   18.7492 C   0  0  0  0  0  0  0  0  0  0  0  0
    5.4564   -1.4087   19.7374 N   0  0  0  0  0  0  0  0  0  0  0  0
    6.5249   -1.7807   20.4493 C   0  0  0  0  0  0  0  0  0  0  0  0
   11.4219   -1.0991   22.5536 C   0  0  0  0  0  0  0  0  0  0  0  0
   12.8042   -1.2148   22.5125 C   0  0  0  0  0  0  0  0  0  0  0  0
   13.6058   -0.0892   22.4239 C   0  0  0  0  0  0  0  0  0  0  0  0
   13.0341    1.1710   22.3758 C   0  0  0  0  0  0  0  0  0  0  0  0
   11.6612    1.2783   22.4181 C   0  0  0  0  0  0  0  0  0  0  0  0
   10.9281    2.8568   22.3590 Cl  0  0  0  0  0  0  0  0  0  0  0  0
   10.8516    0.1642   22.5065 C   0  0  0  0  0  0  0  0  0  0  0  0
  1  2  1  0
  2  3  2  0
  2  4  2  0
  2  5  1  0
  5  6  1  0
  6  7  1  0
  7  8  1  0
  8  9  1  0
  9 10  2  0
  9 11  1  0
 11 12  1  0
 12 13  2  0
 13 14  1  0
 14 15  2  0
 15 16  1  0
 16 17  2  0
  8 18  1  0
 18 19  2  0
 19 20  1  0
 20 21  2  0
 21 22  1  0
 22 23  1  0
 22 24  2  0
 17 12  1  0
 24 18  1  0
M  END
