CVD-0001483|dock_bobby27042020.81|mol2|1|dock3
     RDKit          3D

 22 24  0  0  0  0  0  0  0  0999 V2000
    6.8938   -6.3994   22.4257 C   0  0  0  0  0  0  0  0  0  0  0  0
    6.8554   -5.4939   21.2346 C   0  0  0  0  0  0  0  0  0  0  0  0
    6.2991   -4.1946   21.5736 N   0  0  0  0  0  0  0  0  0  0  0  0
    6.3164   -3.1502   20.7290 C   0  0  0  0  0  0  0  0  0  0  0  0
    5.7760   -3.3507   19.5105 N   0  0  0  0  0  0  0  0  0  0  0  0
    5.7798   -2.3295   18.6471 C   0  0  0  0  0  0  0  0  0  0  0  0
    6.3089   -1.0790   18.9411 C   0  0  0  0  0  0  0  0  0  0  0  0
    6.8619   -0.8856   20.2017 C   0  0  0  0  0  0  0  0  0  0  0  0
    6.8792   -1.9205   21.1301 C   0  0  0  0  0  0  0  0  0  0  0  0
    7.4841   -1.6697   22.4921 C   0  0  0  0  0  0  0  0  0  0  0  0
    8.7613   -0.9435   22.4166 N   0  0  0  0  0  0  0  0  0  0  0  0
    9.8744   -1.7357   21.8086 C   0  0  0  0  0  0  0  0  0  0  0  0
   10.7421   -1.3947   23.0277 C   0  0  0  0  0  0  0  0  0  0  0  0
    9.4875   -0.8364   23.7136 C   0  0  0  0  0  0  0  0  0  0  0  0
   11.5447   -2.4637   23.7877 C   0  0  0  0  0  0  0  0  0  0  0  0
   12.6750   -1.4976   23.7482 N   0  0  0  0  0  0  0  0  0  0  0  0
   11.9704   -0.4753   22.9489 C   0  0  0  0  0  0  0  0  0  0  0  0
   13.8760   -1.3104   24.3501 C   0  0  0  0  0  0  0  0  0  0  0  0
   14.3145   -2.3195   25.3701 C   0  0  0  0  0  0  0  0  0  0  0  0
   14.5825   -0.3532   24.0545 O   0  0  0  0  0  0  0  0  0  0  0  0
    6.2876   -0.0108   17.9724 C   0  0  0  0  0  0  0  0  0  0  0  0
    6.2987    0.8230   17.1918 N   0  0  0  0  0  0  0  0  0  0  0  0
  1  2  1  0
  2  3  1  0
  3  4  1  0
  4  5  2  0
  5  6  1  0
  6  7  2  0
  7  8  1  0
  8  9  2  0
  9 10  1  0
 10 11  1  0
 11 12  1  0
 12 13  1  0
 13 14  1  0
 13 15  1  0
 15 16  1  0
 16 17  1  0
 16 18  1  0
 18 19  1  0
 18 20  2  0
  7 21  1  0
 21 22  3  0
  9  4  1  0
 14 11  1  0
 17 13  1  0
M  END
