CVD-0003151|dock_bobby27042020.60|mol2|37|dock2
     RDKit          3D

 25 28  0  0  0  0  0  0  0  0999 V2000
   12.3232    0.8350   23.1649 F   0  0  0  0  0  0  0  0  0  0  0  0
   12.3842   -0.5063   23.6244 C   0  0  0  0  0  0  0  0  0  0  0  0
   13.8186   -0.9383   23.4506 C   0  0  0  0  0  0  0  0  0  0  0  0
   14.0387   -2.2515   24.1730 C   0  0  0  0  0  0  0  0  0  0  0  0
   13.5261   -2.2729   25.5942 C   0  0  0  0  0  0  0  0  0  0  0  0
   12.1817   -1.7881   25.6516 O   0  0  0  0  0  0  0  0  0  0  0  0
   11.9692   -0.4850   25.0808 C   0  0  0  0  0  0  0  0  0  0  0  0
   11.4066   -1.3372   22.7682 C   0  0  0  0  0  0  0  0  0  0  0  0
   11.6625   -2.5177   22.6271 O   0  0  0  0  0  0  0  0  0  0  0  0
   10.3095   -0.8156   22.1720 N   0  0  0  0  0  0  0  0  0  0  0  0
    9.4570   -1.6544   21.2933 C   0  0  0  0  0  0  0  0  0  0  0  0
    8.0153   -1.5319   21.6602 C   0  0  0  0  0  0  0  0  0  0  0  0
    7.7838   -2.1227   23.0449 C   0  0  0  0  0  0  0  0  0  0  0  0
    7.6835   -3.4954   23.2231 C   0  0  0  0  0  0  0  0  0  0  0  0
    7.4703   -4.0320   24.4819 C   0  0  0  0  0  0  0  0  0  0  0  0
    7.3541   -3.2033   25.5773 C   0  0  0  0  0  0  0  0  0  0  0  0
    7.4506   -1.8378   25.4148 C   0  0  0  0  0  0  0  0  0  0  0  0
    7.6638   -1.3002   24.1565 C   0  0  0  0  0  0  0  0  0  0  0  0
    7.5916   -0.0866   21.5876 C   0  0  0  0  0  0  0  0  0  0  0  0
    6.2991    0.2685   21.2008 C   0  0  0  0  0  0  0  0  0  0  0  0
    5.8995    1.5921   21.1354 C   0  0  0  0  0  0  0  0  0  0  0  0
    6.7911    2.5904   21.4577 C   0  0  0  0  0  0  0  0  0  0  0  0
    8.0779    2.2603   21.8440 C   0  0  0  0  0  0  0  0  0  0  0  0
    8.4879    0.9325   21.9125 C   0  0  0  0  0  0  0  0  0  0  0  0
    9.9093    0.5921   22.3707 C   0  0  0  0  0  0  0  0  0  0  0  0
  2  1  1  0
  2  3  1  0
  3  4  1  0
  4  5  1  0
  5  6  1  0
  6  7  1  0
  2  8  1  0
  8  9  2  0
  8 10  1  0
 10 11  1  0
 11 12  1  0
 12 13  1  0
 13 14  2  0
 14 15  1  0
 15 16  2  0
 16 17  1  0
 17 18  2  0
 12 19  1  0
 19 20  2  0
 20 21  1  0
 21 22  2  0
 22 23  1  0
 23 24  2  0
 24 25  1  0
  7  2  1  0
 25 10  1  0
 18 13  1  0
 24 19  1  0
M  END
