CVD-0001517|dock_bobby27042020.66|mol2|47|dock2
     RDKit          3D

 31 33  0  0  0  0  0  0  0  0999 V2000
   13.7615    4.6716   21.4137 C   0  0  0  0  0  0  0  0  0  0  0  0
   13.0761    4.6662   23.0252 S   0  0  0  0  0  0  0  0  0  0  0  0
   12.4553    5.9346   23.2522 O   0  0  0  0  0  0  0  0  0  0  0  0
   14.0819    4.2189   23.9386 O   0  0  0  0  0  0  0  0  0  0  0  0
   11.8945    3.5453   23.0253 N   0  0  0  0  0  0  0  0  0  0  0  0
   12.1191    2.1351   22.9506 C   0  0  0  0  0  0  0  0  0  0  0  0
   13.4197    1.6537   22.8717 C   0  0  0  0  0  0  0  0  0  0  0  0
   13.6489    0.2902   22.7987 C   0  0  0  0  0  0  0  0  0  0  0  0
   12.5868   -0.5981   22.8040 C   0  0  0  0  0  0  0  0  0  0  0  0
   11.2794   -0.1294   22.8827 C   0  0  0  0  0  0  0  0  0  0  0  0
   11.0534    1.2405   22.9560 C   0  0  0  0  0  0  0  0  0  0  0  0
   10.1203   -1.0683   22.8899 C   0  0  0  0  0  0  0  0  0  0  0  0
    9.5953   -1.3914   23.9395 O   0  0  0  0  0  0  0  0  0  0  0  0
    9.6135   -1.6265   21.5770 C   0  0  0  0  0  0  0  0  0  0  0  0
    8.3898   -0.9130   21.0239 C   0  0  0  0  0  0  0  0  0  0  0  0
    8.5604    0.0843   20.3339 O   0  0  0  0  0  0  0  0  0  0  0  0
    7.1232   -1.3790   21.2734 N   0  0  0  0  0  0  0  0  0  0  0  0
    5.9826   -0.6257   20.6564 C   0  0  0  0  0  0  0  0  0  0  0  0
    5.9169   -0.9260   19.1576 C   0  0  0  0  0  0  0  0  0  0  0  0
    5.7921    0.6896   18.3307 S   0  0  0  0  0  0  0  0  0  0  0  0
    4.4875    0.8912   17.7624 O   0  0  0  0  0  0  0  0  0  0  0  0
    6.9234    0.9299   17.4778 O   0  0  0  0  0  0  0  0  0  0  0  0
    5.9686    1.6383   19.7967 C   0  0  0  0  0  0  0  0  0  0  0  0
    6.0334    0.8484   20.8752 C   0  0  0  0  0  0  0  0  0  0  0  0
    6.8819   -2.5412   22.0772 C   0  0  0  0  0  0  0  0  0  0  0  0
    6.5512   -3.7533   21.4837 C   0  0  0  0  0  0  0  0  0  0  0  0
    6.3144   -4.8788   22.2527 C   0  0  0  0  0  0  0  0  0  0  0  0
    6.4127   -4.7714   23.6126 C   0  0  0  0  0  0  0  0  0  0  0  0
    6.1810   -5.8759   24.3723 F   0  0  0  0  0  0  0  0  0  0  0  0
    6.7342   -3.5997   24.2401 C   0  0  0  0  0  0  0  0  0  0  0  0
    6.9694   -2.4791   23.4634 C   0  0  0  0  0  0  0  0  0  0  0  0
  1  2  1  0
  2  3  2  0
  2  4  2  0
  2  5  1  0
  5  6  1  0
  6  7  2  0
  7  8  1  0
  8  9  2  0
  9 10  1  0
 10 11  2  0
 10 12  1  0
 12 13  2  0
 12 14  1  0
 14 15  1  0
 15 16  2  0
 15 17  1  0
 17 18  1  0
 18 19  1  0
 19 20  1  0
 20 21  2  0
 20 22  2  0
 20 23  1  0
 23 24  2  0
 17 25  1  0
 25 26  2  0
 26 27  1  0
 27 28  2  0
 28 29  1  0
 28 30  1  0
 30 31  2  0
 11  6  1  0
 24 18  1  0
 31 25  1  0
M  END
