CVD-0002355|dock_bobby27042020.49|mol2|11|dock1
     RDKit          3D

 38 42  0  0  0  0  0  0  0  0999 V2000
   13.9644   -0.5145   23.5896 C   0  0  0  0  0  0  0  0  0  0  0  0
   12.8368    0.4130   23.7125 N   0  0  0  0  0  0  0  0  0  0  0  0
   12.4593    1.0789   22.4611 C   0  0  0  0  0  0  0  0  0  0  0  0
   11.0640    1.6298   22.5188 C   0  0  0  0  0  0  0  0  0  0  0  0
   10.8487    2.9153   22.9072 C   0  0  0  0  0  0  0  0  0  0  0  0
    9.4933    3.1752   22.8996 N   0  0  0  0  0  0  0  0  0  0  0  0
    8.8115    2.0233   22.4895 C   0  0  0  0  0  0  0  0  0  0  0  0
    9.7498    1.0420   22.2249 C   0  0  0  0  0  0  0  0  0  0  0  0
    9.5274   -0.3048   21.7667 N   0  0  0  0  0  0  0  0  0  0  0  0
   10.4599   -1.3983   22.1293 C   0  0  0  0  0  0  0  0  0  0  0  0
    9.8344   -2.4068   22.8628 C   0  0  0  0  0  0  0  0  0  0  0  0
    8.4246   -2.6961   22.7350 C   0  0  0  0  0  0  0  0  0  0  0  0
    7.7671   -1.9386   21.6169 C   0  0  0  0  0  0  0  0  0  0  0  0
    6.6280   -2.4363   20.9924 C   0  0  0  0  0  0  0  0  0  0  0  0
    6.0597   -1.8002   19.9064 C   0  0  0  0  0  0  0  0  0  0  0  0
    6.6422   -0.6383   19.4315 C   0  0  0  0  0  0  0  0  0  0  0  0
    7.7787   -0.1139   20.0305 C   0  0  0  0  0  0  0  0  0  0  0  0
    8.3404   -0.7667   21.1250 C   0  0  0  0  0  0  0  0  0  0  0  0
    5.9844    0.1357   17.9848 S   0  0  0  0  0  0  0  0  0  0  0  0
    4.9453    1.2666   18.4369 N   0  0  0  0  0  0  0  0  0  0  0  0
    7.0696    0.8000   17.3274 O   0  0  0  0  0  0  0  0  0  0  0  0
    5.2463   -0.8574   17.2640 O   0  0  0  0  0  0  0  0  0  0  0  0
    7.3327    2.0224   22.4378 C   0  0  0  0  0  0  0  0  0  0  0  0
    6.6864    3.0433   21.7386 C   0  0  0  0  0  0  0  0  0  0  0  0
    5.3069    3.0499   21.6164 C   0  0  0  0  0  0  0  0  0  0  0  0
    4.5514    2.0494   22.1881 C   0  0  0  0  0  0  0  0  0  0  0  0
    5.1648    1.0433   22.9141 C   0  0  0  0  0  0  0  0  0  0  0  0
    6.5334    1.0643   23.0411 C   0  0  0  0  0  0  0  0  0  0  0  0
    7.1065    0.1044   23.8018 F   0  0  0  0  0  0  0  0  0  0  0  0
    8.9011    4.6946   23.3704 S   0  0  0  0  0  0  0  0  0  0  0  0
    7.7847    4.4747   24.2349 O   0  0  0  0  0  0  0  0  0  0  0  0
    8.7163    5.4212   22.1528 O   0  0  0  0  0  0  0  0  0  0  0  0
   10.1868    5.4850   24.2758 C   0  0  0  0  0  0  0  0  0  0  0  0
   11.2797    6.0215   23.6168 C   0  0  0  0  0  0  0  0  0  0  0  0
   12.2686    6.6323   24.3682 C   0  0  0  0  0  0  0  0  0  0  0  0
   12.1260    6.6810   25.7365 C   0  0  0  0  0  0  0  0  0  0  0  0
   11.0792    6.1679   26.3846 N   0  0  0  0  0  0  0  0  0  0  0  0
   10.1282    5.5796   25.6533 C   0  0  0  0  0  0  0  0  0  0  0  0
  1  2  1  0
  2  3  1  0
  3  4  1  0
  4  5  2  0
  5  6  1  0
  6  7  1  0
  7  8  2  0
  8  9  1  0
  9 10  1  0
 10 11  1  0
 11 12  1  0
 12 13  1  0
 13 14  2  0
 14 15  1  0
 15 16  2  0
 16 17  1  0
 17 18  2  0
 16 19  1  0
 19 20  1  0
 19 21  2  0
 19 22  2  0
  7 23  1  0
 23 24  2  0
 24 25  1  0
 25 26  2  0
 26 27  1  0
 27 28  2  0
 28 29  1  0
  6 30  1  0
 30 31  2  0
 30 32  2  0
 30 33  1  0
 33 34  2  0
 34 35  1  0
 35 36  2  0
 36 37  1  0
 37 38  2  0
  8  4  1  0
 18  9  1  0
 28 23  1  0
 38 33  1  0
 18 13  1  0
M  END
