CVD-0003031|dock_bobby27042020.32|mol2|18|dock1
     RDKit          3D

 17 19  0  0  0  0  0  0  0  0999 V2000
   13.7690    5.9095   22.1970 C   0  0  0  0  0  0  0  0  0  0  0  0
   13.0397    4.6569   22.3533 N   0  0  0  0  0  0  0  0  0  0  0  0
   11.7187    4.5105   22.5690 C   0  0  0  0  0  0  0  0  0  0  0  0
   11.5327    3.1648   22.6699 C   0  0  0  0  0  0  0  0  0  0  0  0
   10.4083    2.4372   22.8809 N   0  0  0  0  0  0  0  0  0  0  0  0
   10.5243    0.9707   22.9371 C   0  0  0  0  0  0  0  0  0  0  0  0
   11.8639    0.3997   22.7570 N   0  0  0  0  0  0  0  0  0  0  0  0
   11.9611   -1.0132   22.8134 C   0  0  0  0  0  0  0  0  0  0  0  0
   12.0216   -1.5734   24.2208 C   0  0  0  0  0  0  0  0  0  0  0  0
   13.0857   -0.9043   25.0808 C   0  0  0  0  0  0  0  0  0  0  0  0
   13.8653   -2.0128   25.6087 C   0  0  0  0  0  0  0  0  0  0  0  0
   13.5236   -3.2015   24.9124 C   0  0  0  0  0  0  0  0  0  0  0  0
   12.3654   -2.9740   24.1672 O   0  0  0  0  0  0  0  0  0  0  0  0
   13.0173    1.1411   22.5400 C   0  0  0  0  0  0  0  0  0  0  0  0
   14.1105    0.6233   22.3950 O   0  0  0  0  0  0  0  0  0  0  0  0
   12.8045    2.5585   22.5021 C   0  0  0  0  0  0  0  0  0  0  0  0
   13.7236    3.4647   22.3092 N   0  0  0  0  0  0  0  0  0  0  0  0
  1  2  1  0
  2  3  1  0
  3  4  2  0
  4  5  1  0
  5  6  1  0
  6  7  1  0
  7  8  1  0
  9  8  1  0
  9 10  1  0
 10 11  1  0
 11 12  1  0
 12 13  1  0
  7 14  1  0
 14 15  2  0
 14 16  1  0
 16 17  2  0
 17  2  1  0
 16  4  1  0
 13  9  1  0
M  END
