CVD-0003867|dock_bobby27042020.72|mol2|28|dock2
     RDKit          3D

 24 26  0  0  0  0  0  0  0  0999 V2000
   12.9289    5.4506   21.5767 N   0  0  0  0  0  0  0  0  0  0  0  0
   13.3044    4.6178   22.8915 S   0  0  0  0  0  0  0  0  0  0  0  0
   12.7498    5.3195   24.0099 O   0  0  0  0  0  0  0  0  0  0  0  0
   14.7165    4.3816   22.8541 O   0  0  0  0  0  0  0  0  0  0  0  0
   12.5038    3.0447   22.8056 C   0  0  0  0  0  0  0  0  0  0  0  0
   11.1221    2.9740   22.8017 C   0  0  0  0  0  0  0  0  0  0  0  0
   10.5003    1.7400   22.7316 C   0  0  0  0  0  0  0  0  0  0  0  0
   11.2408    0.5640   22.6582 C   0  0  0  0  0  0  0  0  0  0  0  0
   12.6291    0.6604   22.6599 C   0  0  0  0  0  0  0  0  0  0  0  0
   13.2610    1.8890   22.7343 C   0  0  0  0  0  0  0  0  0  0  0  0
   10.6123   -0.6718   22.5855 N   0  0  0  0  0  0  0  0  0  0  0  0
   11.0943   -1.8532   23.3074 C   0  0  0  0  0  0  0  0  0  0  0  0
    9.9784   -2.5913   23.9913 C   0  0  0  0  0  0  0  0  0  0  0  0
    8.8866   -2.9872   22.9911 C   0  0  0  0  0  0  0  0  0  0  0  0
    7.7439   -3.7427   23.6724 C   0  0  0  0  0  0  0  0  0  0  0  0
    8.1026   -5.5098   23.8248 S   0  0  0  0  0  0  0  0  0  0  0  0
    8.3706   -5.7351   25.5518 C   0  0  0  0  0  0  0  0  0  0  0  0
    7.3072   -5.9684   26.4111 C   0  0  0  0  0  0  0  0  0  0  0  0
    7.5700   -6.1300   27.7571 C   0  0  0  0  0  0  0  0  0  0  0  0
    8.7926   -6.0736   28.2865 N   0  0  0  0  0  0  0  0  0  0  0  0
    9.8038   -5.8444   27.4477 C   0  0  0  0  0  0  0  0  0  0  0  0
    9.6485   -5.6691   26.0868 C   0  0  0  0  0  0  0  0  0  0  0  0
    8.4155   -1.7476   22.2735 C   0  0  0  0  0  0  0  0  0  0  0  0
    9.5421   -0.9844   21.6101 C   0  0  0  0  0  0  0  0  0  0  0  0
  1  2  1  0
  2  3  2  0
  2  4  2  0
  2  5  1  0
  5  6  2  0
  6  7  1  0
  7  8  2  0
  8  9  1  0
  9 10  2  0
  8 11  1  0
 11 12  1  0
 12 13  1  0
 13 14  1  0
 14 15  1  0
 15 16  1  0
 16 17  1  0
 17 18  2  0
 18 19  1  0
 19 20  2  0
 20 21  1  0
 21 22  2  0
 14 23  1  0
 23 24  1  0
 10  5  1  0
 24 11  1  0
 22 17  1  0
M  END
