CVD-0002275|dock_bobby27042020.21|mol2|1|dock1
     RDKit          3D

 40 43  0  0  0  0  0  0  0  0999 V2000
    3.6637    1.4961   19.8749 C   0  0  0  0  0  0  0  0  0  0  0  0
    4.3972    1.0602   18.6838 N   0  0  0  0  0  0  0  0  0  0  0  0
    5.0141   -0.2653   18.8019 C   0  0  0  0  0  0  0  0  0  0  0  0
    6.1880   -0.2514   19.7454 C   0  0  0  0  0  0  0  0  0  0  0  0
    6.8633   -1.3917   20.2179 C   0  0  0  0  0  0  0  0  0  0  0  0
    7.8756   -1.0145   21.0796 C   0  0  0  0  0  0  0  0  0  0  0  0
    8.8093   -1.9253   21.7852 C   0  0  0  0  0  0  0  0  0  0  0  0
   10.1581   -1.5727   21.7649 C   0  0  0  0  0  0  0  0  0  0  0  0
   11.0891   -2.3209   22.4610 C   0  0  0  0  0  0  0  0  0  0  0  0
   10.6925   -3.4380   23.1725 C   0  0  0  0  0  0  0  0  0  0  0  0
    9.3654   -3.8705   23.1628 C   0  0  0  0  0  0  0  0  0  0  0  0
    8.9012   -5.1309   23.8973 C   0  0  0  0  0  0  0  0  0  0  0  0
    9.6239   -5.3675   25.2235 C   0  0  0  0  0  0  0  0  0  0  0  0
    7.4242   -5.2047   24.0815 N   0  0  0  0  0  0  0  0  0  0  0  0
    6.8819   -4.3310   25.1183 C   0  0  0  0  0  0  0  0  0  0  0  0
    6.6362   -6.0054   23.3213 C   0  0  0  0  0  0  0  0  0  0  0  0
    7.0840   -6.7103   22.4374 O   0  0  0  0  0  0  0  0  0  0  0  0
    5.1452   -6.0399   23.5938 C   0  0  0  0  0  0  0  0  0  0  0  0
    4.3598   -6.2238   22.3012 C   0  0  0  0  0  0  0  0  0  0  0  0
    2.8739   -6.2962   22.5868 C   0  0  0  0  0  0  0  0  0  0  0  0
    2.5977   -7.3858   23.5194 N   0  0  0  0  0  0  0  0  0  0  0  0
    3.2877   -7.2246   24.7948 C   0  0  0  0  0  0  0  0  0  0  0  0
    4.7945   -7.1621   24.5682 C   0  0  0  0  0  0  0  0  0  0  0  0
    1.6109   -8.3041   23.3915 C   0  0  0  0  0  0  0  0  0  0  0  0
    1.4584   -9.1970   24.2158 O   0  0  0  0  0  0  0  0  0  0  0  0
    0.6787   -8.2045   22.1990 C   0  0  0  0  0  0  0  0  0  0  0  0
   -0.6133   -9.4079   22.2974 Cl  0  0  0  0  0  0  0  0  0  0  0  0
    8.4623   -3.0952   22.4508 C   0  0  0  0  0  0  0  0  0  0  0  0
    7.1951   -3.5398   22.4125 F   0  0  0  0  0  0  0  0  0  0  0  0
    7.8383    0.4043   21.1282 N   0  0  0  0  0  0  0  0  0  0  0  0
    6.8017    0.8530   20.3196 C   0  0  0  0  0  0  0  0  0  0  0  0
    8.8113    1.5185   21.9553 S   0  0  0  0  0  0  0  0  0  0  0  0
   10.0313    1.6222   21.2161 O   0  0  0  0  0  0  0  0  0  0  0  0
    7.9978    2.6689   22.1996 O   0  0  0  0  0  0  0  0  0  0  0  0
    9.1617    0.7493   23.4983 C   0  0  0  0  0  0  0  0  0  0  0  0
   10.4650    0.6603   23.9564 C   0  0  0  0  0  0  0  0  0  0  0  0
   10.6947    0.0514   25.1781 C   0  0  0  0  0  0  0  0  0  0  0  0
    9.6208   -0.4383   25.8865 C   0  0  0  0  0  0  0  0  0  0  0  0
    8.3602   -0.3578   25.4584 N   0  0  0  0  0  0  0  0  0  0  0  0
    8.1453    0.2312   24.2784 C   0  0  0  0  0  0  0  0  0  0  0  0
  1  2  1  0
  2  3  1  0
  3  4  1  0
  4  5  1  0
  5  6  2  0
  6  7  1  0
  7  8  2  0
  8  9  1  0
  9 10  2  0
 10 11  1  0
 11 12  1  0
 12 13  1  0
 12 14  1  0
 14 15  1  0
 14 16  1  0
 16 17  2  0
 16 18  1  0
 18 19  1  0
 19 20  1  0
 20 21  1  0
 21 22  1  0
 22 23  1  0
 21 24  1  0
 24 25  2  0
 24 26  1  0
 26 27  1  0
 11 28  2  0
 28 29  1  0
  6 30  1  0
 30 31  1  0
 30 32  1  0
 32 33  2  0
 32 34  2  0
 32 35  1  0
 35 36  2  0
 36 37  1  0
 37 38  2  0
 38 39  1  0
 39 40  2  0
 31  4  2  0
 40 35  1  0
 28  7  1  0
 23 18  1  0
M  END
