CVD-0003721|dock_bobby27042020.87|mol2|6|dock3
     RDKit          3D

 26 27  0  0  0  0  0  0  0  0999 V2000
    5.3597   -0.2767   18.2770 C   0  0  0  0  0  0  0  0  0  0  0  0
    6.4442    0.9048   18.9805 S   0  0  0  0  0  0  0  0  0  0  0  0
    7.6112    0.9819   18.1571 O   0  0  0  0  0  0  0  0  0  0  0  0
    5.6995    2.1016   19.2236 O   0  0  0  0  0  0  0  0  0  0  0  0
    6.9127    0.3451   20.4080 N   0  0  0  0  0  0  0  0  0  0  0  0
    7.2412    1.2878   21.4842 C   0  0  0  0  0  0  0  0  0  0  0  0
    8.4149    0.7881   22.3035 C   0  0  0  0  0  0  0  0  0  0  0  0
    9.7085    0.7062   21.5031 C   0  0  0  0  0  0  0  0  0  0  0  0
   10.8157   -0.0633   22.1918 C   0  0  0  0  0  0  0  0  0  0  0  0
   11.9410    0.6627   22.5691 C   0  0  0  0  0  0  0  0  0  0  0  0
   13.0112    0.0604   23.1967 C   0  0  0  0  0  0  0  0  0  0  0  0
   12.9664   -1.3007   23.4622 C   0  0  0  0  0  0  0  0  0  0  0  0
   11.8519   -2.0550   23.1003 C   0  0  0  0  0  0  0  0  0  0  0  0
   10.7688   -1.4459   22.4582 C   0  0  0  0  0  0  0  0  0  0  0  0
    9.6031   -2.1600   22.0546 N   0  0  0  0  0  0  0  0  0  0  0  0
    8.9397   -3.1967   22.6754 C   0  0  0  0  0  0  0  0  0  0  0  0
    9.2693   -3.7019   23.7429 O   0  0  0  0  0  0  0  0  0  0  0  0
    7.8486   -3.6032   21.9399 N   0  0  0  0  0  0  0  0  0  0  0  0
    6.8913   -4.6210   22.1843 C   0  0  0  0  0  0  0  0  0  0  0  0
    6.4844   -4.8455   23.4934 C   0  0  0  0  0  0  0  0  0  0  0  0
    5.5520   -5.8311   23.7644 C   0  0  0  0  0  0  0  0  0  0  0  0
    5.0501   -6.5677   22.7173 C   0  0  0  0  0  0  0  0  0  0  0  0
    5.4188   -6.3782   21.4506 N   0  0  0  0  0  0  0  0  0  0  0  0
    6.3201   -5.4238   21.1985 C   0  0  0  0  0  0  0  0  0  0  0  0
   14.0780   -1.9444   24.1178 C   0  0  0  0  0  0  0  0  0  0  0  0
   14.9468   -2.4435   24.6663 N   0  0  0  0  0  0  0  0  0  0  0  0
  1  2  1  0
  2  3  2  0
  2  4  2  0
  2  5  1  0
  5  6  1  0
  6  7  1  0
  7  8  1  0
  8  9  1  0
  9 10  2  0
 10 11  1  0
 11 12  2  0
 12 13  1  0
 13 14  2  0
 14 15  1  0
 15 16  1  0
 16 17  2  0
 16 18  1  0
 18 19  1  0
 19 20  2  0
 20 21  1  0
 21 22  2  0
 22 23  1  0
 23 24  2  0
 12 25  1  0
 25 26  3  0
 14  9  1  0
 24 19  1  0
M  END
