CVD-0000995|dock_bobby27042020.54|mol2|9|dock3
     RDKit          3D

 35 39  0  0  0  0  0  0  0  0999 V2000
   14.0174   10.0524   30.5558 C   0  0  0  0  0  0  0  0  0  0  0  0
   13.6368   10.4752   29.2478 O   0  0  0  0  0  0  0  0  0  0  0  0
   13.4367    9.5510   28.2529 C   0  0  0  0  0  0  0  0  0  0  0  0
   13.6829    9.9329   26.9451 C   0  0  0  0  0  0  0  0  0  0  0  0
   13.4942    9.0334   25.9115 C   0  0  0  0  0  0  0  0  0  0  0  0
   13.0573    7.7398   26.1671 C   0  0  0  0  0  0  0  0  0  0  0  0
   12.8134    7.3678   27.4835 C   0  0  0  0  0  0  0  0  0  0  0  0
   12.9997    8.2618   28.5234 C   0  0  0  0  0  0  0  0  0  0  0  0
   12.8569    6.7835   25.0670 C   0  0  0  0  0  0  0  0  0  0  0  0
   13.3394    6.8648   23.8613 N   0  0  0  0  0  0  0  0  0  0  0  0
   12.8575    5.7244   23.2273 C   0  0  0  0  0  0  0  0  0  0  0  0
   13.0174    5.2357   21.9330 C   0  0  0  0  0  0  0  0  0  0  0  0
   12.4045    4.0440   21.5755 C   0  0  0  0  0  0  0  0  0  0  0  0
   11.6299    3.3249   22.4898 C   0  0  0  0  0  0  0  0  0  0  0  0
   10.9851    2.1035   22.1704 N   0  0  0  0  0  0  0  0  0  0  0  0
    9.7968    1.5850   22.5692 C   0  0  0  0  0  0  0  0  0  0  0  0
    9.0042    2.1211   23.3379 O   0  0  0  0  0  0  0  0  0  0  0  0
    9.5024    0.2273   21.9655 C   0  0  0  0  0  0  0  0  0  0  0  0
    8.0327   -0.0432   21.8856 C   0  0  0  0  0  0  0  0  0  0  0  0
    7.7118   -1.4331   21.3606 C   0  0  0  0  0  0  0  0  0  0  0  0
    8.4325   -2.4377   22.1267 N   0  0  0  0  0  0  0  0  0  0  0  0
    9.8774   -2.2493   22.1741 C   0  0  0  0  0  0  0  0  0  0  0  0
   10.1899   -0.8740   22.7571 C   0  0  0  0  0  0  0  0  0  0  0  0
    7.7148   -3.8048   22.6500 S   0  0  0  0  0  0  0  0  0  0  0  0
    7.9456   -4.7945   21.6442 O   0  0  0  0  0  0  0  0  0  0  0  0
    6.3763   -3.4491   23.0060 O   0  0  0  0  0  0  0  0  0  0  0  0
    8.5538   -4.3067   24.1128 C   0  0  0  0  0  0  0  0  0  0  0  0
    9.0981   -5.5786   24.1872 C   0  0  0  0  0  0  0  0  0  0  0  0
    9.7607   -5.9627   25.3410 C   0  0  0  0  0  0  0  0  0  0  0  0
    9.8783   -5.0899   26.4017 C   0  0  0  0  0  0  0  0  0  0  0  0
    9.3353   -3.8255   26.3185 C   0  0  0  0  0  0  0  0  0  0  0  0
    8.6689   -3.4226   25.1733 C   0  0  0  0  0  0  0  0  0  0  0  0
   11.4732    3.8180   23.7828 C   0  0  0  0  0  0  0  0  0  0  0  0
   12.0938    5.0063   24.1129 C   0  0  0  0  0  0  0  0  0  0  0  0
   12.0797    5.6784   25.3182 O   0  0  0  0  0  0  0  0  0  0  0  0
  1  2  1  0
  2  3  1  0
  3  4  2  0
  4  5  1  0
  5  6  2  0
  6  7  1  0
  7  8  2  0
  6  9  1  0
  9 10  2  0
 10 11  1  0
 11 12  2  0
 12 13  1  0
 13 14  2  0
 14 15  1  0
 15 16  1  0
 16 17  2  0
 16 18  1  0
 18 19  1  0
 19 20  1  0
 20 21  1  0
 21 22  1  0
 22 23  1  0
 21 24  1  0
 24 25  2  0
 24 26  2  0
 24 27  1  0
 27 28  2  0
 28 29  1  0
 29 30  2  0
 30 31  1  0
 31 32  2  0
 14 33  1  0
 33 34  2  0
 34 35  1  0
  8  3  1  0
 35  9  1  0
 34 11  1  0
 23 18  1  0
 32 27  1  0
M  END
