CVD-0001396|dock_bobby27042020.95|mol2|26|dock3
     RDKit          3D

 20 21  0  0  0  0  0  0  0  0999 V2000
   13.5119    5.3361   21.3237 C   0  0  0  0  0  0  0  0  0  0  0  0
   13.7599    4.8220   22.9795 S   0  0  0  0  0  0  0  0  0  0  0  0
   12.7084    5.3607   23.7861 O   0  0  0  0  0  0  0  0  0  0  0  0
   15.1130    5.1176   23.3368 O   0  0  0  0  0  0  0  0  0  0  0  0
   13.6079    3.2002   22.9993 N   0  0  0  0  0  0  0  0  0  0  0  0
   12.3773    2.4963   22.8126 C   0  0  0  0  0  0  0  0  0  0  0  0
   12.3682    1.1079   22.8498 C   0  0  0  0  0  0  0  0  0  0  0  0
   11.1878    0.4089   22.6708 C   0  0  0  0  0  0  0  0  0  0  0  0
   10.0040    1.0936   22.4507 C   0  0  0  0  0  0  0  0  0  0  0  0
    8.7926    0.4223   22.2716 O   0  0  0  0  0  0  0  0  0  0  0  0
    8.0612    0.5080   21.1188 C   0  0  0  0  0  0  0  0  0  0  0  0
    7.2669    1.5402   20.8880 N   0  0  0  0  0  0  0  0  0  0  0  0
    6.5763    1.5533   19.7394 C   0  0  0  0  0  0  0  0  0  0  0  0
    6.6452    0.5568   18.7928 C   0  0  0  0  0  0  0  0  0  0  0  0
    7.4747   -0.5224   19.0391 C   0  0  0  0  0  0  0  0  0  0  0  0
    8.2075   -0.5659   20.2251 C   0  0  0  0  0  0  0  0  0  0  0  0
    9.0794   -1.6741   20.5152 C   0  0  0  0  0  0  0  0  0  0  0  0
    9.7755   -2.5410   20.7773 N   0  0  0  0  0  0  0  0  0  0  0  0
   10.0042    2.4772   22.4149 C   0  0  0  0  0  0  0  0  0  0  0  0
   11.1848    3.1761   22.5940 C   0  0  0  0  0  0  0  0  0  0  0  0
  1  2  1  0
  2  3  2  0
  2  4  2  0
  2  5  1  0
  5  6  1  0
  6  7  2  0
  7  8  1  0
  8  9  2  0
  9 10  1  0
 10 11  1  0
 11 12  2  0
 12 13  1  0
 13 14  2  0
 14 15  1  0
 15 16  2  0
 16 17  1  0
 17 18  3  0
  9 19  1  0
 19 20  2  0
 20  6  1  0
 16 11  1  0
M  END
