CVD-0001628|dock_bobby27042020.52|mol2|7|dock3
     RDKit          3D

 18 19  0  0  0  0  0  0  0  0999 V2000
    9.8126   -2.4797   23.5488 C   0  0  0  0  0  0  0  0  0  0  0  0
    9.5433   -1.7414   22.2474 C   0  0  0  0  0  0  0  0  0  0  0  0
   10.8746   -1.4049   21.6015 C   0  0  0  0  0  0  0  0  0  0  0  0
   11.6099   -0.4378   22.4193 N   0  0  0  0  0  0  0  0  0  0  0  0
   10.8154    0.7682   22.6724 C   0  0  0  0  0  0  0  0  0  0  0  0
    9.4803    0.3992   23.2931 C   0  0  0  0  0  0  0  0  0  0  0  0
    8.7469   -0.5246   22.4316 N   0  0  0  0  0  0  0  0  0  0  0  0
    8.3043    0.1311   21.2094 C   0  0  0  0  0  0  0  0  0  0  0  0
    7.4071   -0.6818   20.4160 N   0  0  0  0  0  0  0  0  0  0  0  0
    7.4842   -0.4954   18.9511 C   0  0  0  0  0  0  0  0  0  0  0  0
    7.0224    0.8800   18.4930 C   0  0  0  0  0  0  0  0  0  0  0  0
    5.5282    0.9837   18.1361 C   0  0  0  0  0  0  0  0  0  0  0  0
    4.7407    0.1717   19.0135 O   0  0  0  0  0  0  0  0  0  0  0  0
    5.0739    0.2365   20.3962 C   0  0  0  0  0  0  0  0  0  0  0  0
    6.0073   -0.8693   20.8261 C   0  0  0  0  0  0  0  0  0  0  0  0
   12.8648   -0.6069   22.9183 C   0  0  0  0  0  0  0  0  0  0  0  0
   13.6154   -1.8746   22.6294 C   0  0  0  0  0  0  0  0  0  0  0  0
   13.3900    0.2739   23.5903 O   0  0  0  0  0  0  0  0  0  0  0  0
  1  2  1  0
  2  3  1  0
  3  4  1  0
  4  5  1  0
  5  6  1  0
  6  7  1  0
  7  8  1  0
  8  9  1  0
  9 10  1  0
 10 11  1  0
 11 12  1  0
 12 13  1  0
 13 14  1  0
 14 15  1  0
  4 16  1  0
 16 17  1  0
 16 18  2  0
  7  2  1  0
 15  9  1  0
M  END
