CVD-0003976|dock_bobby27042020.72|mol2|12|dock3
     RDKit          3D

 18 19  0  0  0  0  0  0  0  0999 V2000
   14.2507    6.4177   21.5792 C   0  0  0  0  0  0  0  0  0  0  0  0
   13.2966    5.2616   21.5029 C   0  0  0  0  0  0  0  0  0  0  0  0
   13.0057    4.7182   20.4621 O   0  0  0  0  0  0  0  0  0  0  0  0
   12.6079    4.6852   23.0151 S   0  0  0  0  0  0  0  0  0  0  0  0
   13.5739    4.7954   24.0852 O   0  0  0  0  0  0  0  0  0  0  0  0
   11.1596    5.2305   23.2043 N   0  0  0  0  0  0  0  0  0  0  0  0
   10.1615    4.2673   23.1321 C   0  0  0  0  0  0  0  0  0  0  0  0
    8.9692    4.5499   23.2766 O   0  0  0  0  0  0  0  0  0  0  0  0
   10.7474    2.9440   22.9188 C   0  0  0  0  0  0  0  0  0  0  0  0
   12.0761    2.9930   22.8243 C   0  0  0  0  0  0  0  0  0  0  0  0
   12.6234    1.6620   22.5876 C   0  0  0  0  0  0  0  0  0  0  0  0
   11.5669    0.7945   22.5471 C   0  0  0  0  0  0  0  0  0  0  0  0
   10.2522    1.5288   22.7785 C   0  0  0  0  0  0  0  0  0  0  0  0
   11.7000   -0.6713   22.3255 C   0  0  0  0  0  0  0  0  0  0  0  0
   10.6892   -1.3318   22.1061 O   0  0  0  0  0  0  0  0  0  0  0  0
   12.9957   -1.3897   22.3333 C   0  0  0  0  0  0  0  0  0  0  0  0
   13.2322   -2.1689   21.2820 O   0  0  0  0  0  0  0  0  0  0  0  0
   13.8710   -1.2579   23.3138 C   0  0  0  0  0  0  0  0  0  0  0  0
  1  2  1  0
  2  3  2  0
  4  2  1  0
  4  5  2  0
  4  6  2  0
  6  7  1  0
  7  8  2  0
  7  9  1  0
  9 10  2  0
 10 11  1  0
 11 12  2  0
 12 13  1  0
 12 14  1  0
 14 15  2  0
 14 16  1  0
 16 17  1  0
 16 18  2  0
 10  4  1  0
 13  9  1  0
M  END
