CVD-0000895|dock_bobby27042020.68|mol2|44|dock1
     RDKit          3D

 21 22  0  0  0  0  0  0  0  0999 V2000
    9.1872   -0.0562   27.4625 C   0  0  0  0  0  0  0  0  0  0  0  0
   10.2597    0.5063   26.5830 C   0  0  0  0  0  0  0  0  0  0  0  0
   10.4647   -0.3153   25.3949 N   0  0  0  0  0  0  0  0  0  0  0  0
   11.4606   -0.3073   24.5074 C   0  0  0  0  0  0  0  0  0  0  0  0
   12.7398    0.8214   24.7330 S   0  0  0  0  0  0  0  0  0  0  0  0
   13.5106    0.2748   23.3098 C   0  0  0  0  0  0  0  0  0  0  0  0
   12.8326   -0.7330   22.6892 C   0  0  0  0  0  0  0  0  0  0  0  0
   13.3416   -1.2939   21.4745 C   0  0  0  0  0  0  0  0  0  0  0  0
   13.7832   -1.7210   20.5091 N   0  0  0  0  0  0  0  0  0  0  0  0
   11.6427   -1.0996   23.3741 C   0  0  0  0  0  0  0  0  0  0  0  0
   10.7285   -2.2112   22.9007 C   0  0  0  0  0  0  0  0  0  0  0  0
    9.3939   -1.7652   22.4960 N   0  0  0  0  0  0  0  0  0  0  0  0
    8.5952   -2.9000   22.0240 C   0  0  0  0  0  0  0  0  0  0  0  0
    7.2002   -2.4389   21.6449 C   0  0  0  0  0  0  0  0  0  0  0  0
    7.2670   -1.4028   20.6120 N   0  0  0  0  0  0  0  0  0  0  0  0
    8.1094   -0.2782   21.0307 C   0  0  0  0  0  0  0  0  0  0  0  0
    9.4882   -0.7722   21.4290 C   0  0  0  0  0  0  0  0  0  0  0  0
    6.5995   -1.4912   19.4433 C   0  0  0  0  0  0  0  0  0  0  0  0
    5.8859   -2.4504   19.1786 O   0  0  0  0  0  0  0  0  0  0  0  0
    6.7698   -0.3400   18.4712 C   0  0  0  0  0  0  0  0  0  0  0  0
    8.4222   -0.2406   17.8489 Cl  0  0  0  0  0  0  0  0  0  0  0  0
  1  2  1  0
  2  3  1  0
  3  4  1  0
  4  5  1  0
  5  6  1  0
  6  7  2  0
  7  8  1  0
  8  9  3  0
  7 10  1  0
 10 11  1  0
 11 12  1  0
 12 13  1  0
 13 14  1  0
 14 15  1  0
 15 16  1  0
 16 17  1  0
 15 18  1  0
 18 19  2  0
 18 20  1  0
 20 21  1  0
 10  4  2  0
 17 12  1  0
M  END
