CVD-0002153|dock_bobby27042020.92|mol2|30|dock2
     RDKit          3D

 15 15  0  0  0  0  0  0  0  0999 V2000
   13.6216   -1.1726   23.5513 N   0  0  0  0  0  0  0  0  0  0  0  0
   12.9529   -1.3282   22.4197 C   0  0  0  0  0  0  0  0  0  0  0  0
   13.4759   -1.8619   21.3827 N   0  0  0  0  0  0  0  0  0  0  0  0
   11.2846   -0.7313   22.4482 S   0  0  0  0  0  0  0  0  0  0  0  0
   11.2802    0.5158   21.7481 O   0  0  0  0  0  0  0  0  0  0  0  0
   10.8446   -0.8002   23.8072 O   0  0  0  0  0  0  0  0  0  0  0  0
   10.4056   -1.7740   21.5958 N   0  0  0  0  0  0  0  0  0  0  0  0
    9.3116   -2.4906   22.2622 C   0  0  0  0  0  0  0  0  0  0  0  0
    8.0752   -1.6145   22.3545 C   0  0  0  0  0  0  0  0  0  0  0  0
    7.4887   -1.2881   21.0024 C   0  0  0  0  0  0  0  0  0  0  0  0
    7.9536   -0.2072   20.2692 C   0  0  0  0  0  0  0  0  0  0  0  0
    7.4180    0.0907   19.0272 C   0  0  0  0  0  0  0  0  0  0  0  0
    6.4107   -0.6899   18.5025 C   0  0  0  0  0  0  0  0  0  0  0  0
    5.9399   -1.7684   19.2198 C   0  0  0  0  0  0  0  0  0  0  0  0
    6.4761   -2.0655   20.4616 C   0  0  0  0  0  0  0  0  0  0  0  0
  1  2  1  0
  2  3  2  0
  2  4  1  0
  4  5  2  0
  4  6  2  0
  4  7  1  0
  7  8  1  0
  8  9  1  0
  9 10  1  0
 10 11  2  0
 11 12  1  0
 12 13  2  0
 13 14  1  0
 14 15  2  0
 15 10  1  0
M  END
