CVD-0000449|dock_bobby27042020.84|mol2|17|dock3
     RDKit          3D

 11 12  0  0  0  0  0  0  0  0999 V2000
   13.7321   -2.9069   25.5263 C   0  0  0  0  0  0  0  0  0  0  0  0
   13.1321   -1.9385   24.5219 C   0  0  0  0  0  0  0  0  0  0  0  0
   13.3171   -0.4791   24.9185 C   0  0  0  0  0  0  0  0  0  0  0  0
   12.5818    0.4218   23.9309 C   0  0  0  0  0  0  0  0  0  0  0  0
   11.8655   -0.4557   22.8991 C   0  0  0  0  0  0  0  0  0  0  0  0
   12.9481   -1.2200   22.1386 C   0  0  0  0  0  0  0  0  0  0  0  0
   13.6627   -2.1535   23.1106 C   0  0  0  0  0  0  0  0  0  0  0  0
   10.9124   -1.4285   23.6031 C   0  0  0  0  0  0  0  0  0  0  0  0
   10.2228   -2.3847   22.6455 C   0  0  0  0  0  0  0  0  0  0  0  0
    9.8560   -0.7208   24.4380 C   0  0  0  0  0  0  0  0  0  0  0  0
   11.7116   -2.2310   24.5227 O   0  0  0  0  0  0  0  0  0  0  0  0
  1  2  1  0
  2  3  1  0
  3  4  1  0
  4  5  1  0
  5  6  1  0
  6  7  1  0
  5  8  1  0
  8  9  1  0
  8 10  1  0
  8 11  1  0
  7  2  1  0
 11  2  1  0
M  END
