CVD-0001242|dock_bobby27042020.81|mol2|39|dock3
     RDKit          3D

 26 28  0  0  0  0  0  0  0  0999 V2000
    6.7578    0.3393   24.6381 C   0  0  0  0  0  0  0  0  0  0  0  0
    5.8989   -0.6001   23.8507 C   0  0  0  0  0  0  0  0  0  0  0  0
    6.5956   -1.0994   22.6771 N   0  0  0  0  0  0  0  0  0  0  0  0
    6.4699   -0.5444   21.4611 C   0  0  0  0  0  0  0  0  0  0  0  0
    5.2532   -0.1009   21.0901 N   0  0  0  0  0  0  0  0  0  0  0  0
    5.1391    0.4524   19.8756 C   0  0  0  0  0  0  0  0  0  0  0  0
    6.1942    0.5973   18.9787 C   0  0  0  0  0  0  0  0  0  0  0  0
    7.4519    0.1407   19.3587 C   0  0  0  0  0  0  0  0  0  0  0  0
    7.5876   -0.4356   20.6081 C   0  0  0  0  0  0  0  0  0  0  0  0
    8.8333   -0.9103   21.0547 O   0  0  0  0  0  0  0  0  0  0  0  0
    9.7642   -0.0714   21.6323 C   0  0  0  0  0  0  0  0  0  0  0  0
   10.7987   -0.5378   22.4011 C   0  0  0  0  0  0  0  0  0  0  0  0
   11.1500   -1.9464   22.7437 C   0  0  0  0  0  0  0  0  0  0  0  0
   11.5391    0.4942   22.8203 N   0  0  0  0  0  0  0  0  0  0  0  0
   12.8024    0.4585   23.5564 C   0  0  0  0  0  0  0  0  0  0  0  0
   11.0105    1.6496   22.2905 N   0  0  0  0  0  0  0  0  0  0  0  0
   11.6287    2.9378   22.4424 C   0  0  0  0  0  0  0  0  0  0  0  0
   12.9744    3.1501   22.1584 C   0  0  0  0  0  0  0  0  0  0  0  0
   13.5303    4.4112   22.2966 C   0  0  0  0  0  0  0  0  0  0  0  0
   12.7647    5.4669   22.7388 C   0  0  0  0  0  0  0  0  0  0  0  0
   11.4371    5.2644   23.0427 C   0  0  0  0  0  0  0  0  0  0  0  0
   10.8683    4.0106   22.8941 C   0  0  0  0  0  0  0  0  0  0  0  0
    9.9026    1.3360   21.5465 C   0  0  0  0  0  0  0  0  0  0  0  0
    9.2315    2.1889   20.9767 O   0  0  0  0  0  0  0  0  0  0  0  0
    5.9937    1.2054   17.6865 C   0  0  0  0  0  0  0  0  0  0  0  0
    5.8020    1.6831   16.6669 N   0  0  0  0  0  0  0  0  0  0  0  0
  1  2  1  0
  2  3  1  0
  3  4  1  0
  4  5  2  0
  5  6  1  0
  6  7  2  0
  7  8  1  0
  8  9  2  0
  9 10  1  0
 10 11  1  0
 11 12  2  0
 12 13  1  0
 12 14  1  0
 14 15  1  0
 14 16  1  0
 16 17  1  0
 17 18  2  0
 18 19  1  0
 19 20  2  0
 20 21  1  0
 21 22  2  0
 16 23  1  0
 23 24  2  0
  7 25  1  0
 25 26  3  0
  9  4  1  0
 23 11  1  0
 22 17  1  0
M  END
