CVD-0001494|dock_bobby27042020.23|mol2|40|dock3
     RDKit          3D

 37 41  0  0  0  0  0  0  0  0999 V2000
    5.6565   -7.4601   33.6694 O   0  0  0  0  0  0  0  0  0  0  0  0
    6.3294   -8.3307   32.9634 C   0  0  0  0  0  0  0  0  0  0  0  0
    6.6661   -9.4234   33.3857 O   0  0  0  0  0  0  0  0  0  0  0  0
    6.6591   -7.8802   31.5820 C   0  0  0  0  0  0  0  0  0  0  0  0
    7.3851   -8.6913   30.7157 C   0  0  0  0  0  0  0  0  0  0  0  0
    7.7217   -8.3599   29.4605 N   0  0  0  0  0  0  0  0  0  0  0  0
    7.3104   -7.1489   29.0450 C   0  0  0  0  0  0  0  0  0  0  0  0
    7.5245   -6.5830   27.8179 N   0  0  0  0  0  0  0  0  0  0  0  0
    6.9525   -5.3525   27.7871 C   0  0  0  0  0  0  0  0  0  0  0  0
    7.0055   -4.5312   26.6617 N   0  0  0  0  0  0  0  0  0  0  0  0
    8.0928   -4.2934   25.8167 C   0  0  0  0  0  0  0  0  0  0  0  0
    9.1778   -4.8331   26.0140 O   0  0  0  0  0  0  0  0  0  0  0  0
    7.7888   -3.4178   24.8010 N   0  0  0  0  0  0  0  0  0  0  0  0
    8.6126   -2.9239   23.7499 C   0  0  0  0  0  0  0  0  0  0  0  0
   10.0010   -2.8344   23.8853 C   0  0  0  0  0  0  0  0  0  0  0  0
   10.7729   -2.3571   22.8364 C   0  0  0  0  0  0  0  0  0  0  0  0
   12.1256   -2.2599   22.9856 O   0  0  0  0  0  0  0  0  0  0  0  0
   10.1866   -1.9821   21.6432 C   0  0  0  0  0  0  0  0  0  0  0  0
    8.8174   -2.0730   21.5036 C   0  0  0  0  0  0  0  0  0  0  0  0
    8.0026   -2.5222   22.5438 C   0  0  0  0  0  0  0  0  0  0  0  0
    6.4864   -2.5576   22.3516 C   0  0  0  0  0  0  0  0  0  0  0  0
    6.0162   -3.9712   22.2598 C   0  0  0  0  0  0  0  0  0  0  0  0
    6.5103   -4.6217   21.0209 N   0  0  0  0  0  0  0  0  0  0  0  0
    6.3286   -3.8942   19.7488 C   0  0  0  0  0  0  0  0  0  0  0  0
    5.9529   -2.4164   19.8932 C   0  0  0  0  0  0  0  0  0  0  0  0
    5.5227   -1.6952   18.7838 C   0  0  0  0  0  0  0  0  0  0  0  0
    5.1747   -0.3605   18.8913 C   0  0  0  0  0  0  0  0  0  0  0  0
    5.2540    0.2681   20.1138 C   0  0  0  0  0  0  0  0  0  0  0  0
    5.6812   -0.4421   21.2224 C   0  0  0  0  0  0  0  0  0  0  0  0
    6.0364   -1.7881   21.1359 C   0  0  0  0  0  0  0  0  0  0  0  0
    7.0557   -5.8609   20.9769 C   0  0  0  0  0  0  0  0  0  0  0  0
    7.4564   -6.3449   19.9257 O   0  0  0  0  0  0  0  0  0  0  0  0
    7.1571   -6.6574   22.2639 C   0  0  0  0  0  0  0  0  0  0  0  0
    8.4311   -6.0236   23.3140 Cl  0  0  0  0  0  0  0  0  0  0  0  0
    6.3515   -5.0926   29.0011 C   0  0  0  0  0  0  0  0  0  0  0  0
    6.5710   -6.2379   29.8247 C   0  0  0  0  0  0  0  0  0  0  0  0
    6.2465   -6.6333   31.1266 C   0  0  0  0  0  0  0  0  0  0  0  0
  1  2  1  0
  2  3  2  0
  2  4  1  0
  4  5  2  0
  5  6  1  0
  6  7  2  0
  7  8  1  0
  8  9  1  0
  9 10  1  0
 10 11  1  0
 11 12  2  0
 11 13  1  0
 13 14  1  0
 14 15  2  0
 15 16  1  0
 16 17  1  0
 16 18  2  0
 18 19  1  0
 19 20  2  0
 20 21  1  0
 21 22  1  0
 22 23  1  0
 23 24  1  0
 24 25  1  0
 25 26  2  0
 26 27  1  0
 27 28  2  0
 28 29  1  0
 29 30  2  0
 23 31  1  0
 31 32  2  0
 31 33  1  0
 33 34  1  0
  9 35  2  0
 35 36  1  0
 36 37  2  0
 37  4  1  0
 36  7  1  0
 20 14  1  0
 30 21  1  0
 30 25  1  0
M  END
