CVD-0001963|dock_bobby27042020.93|mol2|25|dock2
     RDKit          3D

 39 42  0  0  0  0  0  0  0  0999 V2000
    6.0509    1.2917   19.0088 C   0  0  0  0  0  0  0  0  0  0  0  0
    5.1182    0.2157   18.6638 N   0  0  0  0  0  0  0  0  0  0  0  0
    5.7366   -1.1092   18.5455 C   0  0  0  0  0  0  0  0  0  0  0  0
    6.4557   -1.5032   19.8089 C   0  0  0  0  0  0  0  0  0  0  0  0
    7.8401   -1.3795   20.0273 C   0  0  0  0  0  0  0  0  0  0  0  0
    8.1583   -1.8318   21.2937 C   0  0  0  0  0  0  0  0  0  0  0  0
    9.5135   -1.8582   21.8961 C   0  0  0  0  0  0  0  0  0  0  0  0
   10.5766   -2.1436   21.0389 C   0  0  0  0  0  0  0  0  0  0  0  0
   11.8731   -2.2549   21.5062 C   0  0  0  0  0  0  0  0  0  0  0  0
   12.1626   -2.0798   22.8485 C   0  0  0  0  0  0  0  0  0  0  0  0
   13.5703   -2.2387   23.3700 C   0  0  0  0  0  0  0  0  0  0  0  0
   14.0417   -1.0339   24.1644 C   0  0  0  0  0  0  0  0  0  0  0  0
   13.8564    0.2080   23.4276 N   0  0  0  0  0  0  0  0  0  0  0  0
   12.8687    1.0601   23.6887 C   0  0  0  0  0  0  0  0  0  0  0  0
   12.0262    0.8616   24.5585 O   0  0  0  0  0  0  0  0  0  0  0  0
   12.8249    2.3136   22.8363 C   0  0  0  0  0  0  0  0  0  0  0  0
   11.5549    3.0033   22.9052 N   0  0  0  0  0  0  0  0  0  0  0  0
   11.4778    4.3254   22.7616 C   0  0  0  0  0  0  0  0  0  0  0  0
   12.4631    5.0351   22.5644 O   0  0  0  0  0  0  0  0  0  0  0  0
   10.1337    4.9256   22.8495 C   0  0  0  0  0  0  0  0  0  0  0  0
    8.8935    4.4172   22.6242 C   0  0  0  0  0  0  0  0  0  0  0  0
    7.8471    5.2834   22.8072 N   0  0  0  0  0  0  0  0  0  0  0  0
    8.2845    6.4706   23.1738 C   0  0  0  0  0  0  0  0  0  0  0  0
    7.3882    7.6294   23.4596 C   0  0  0  0  0  0  0  0  0  0  0  0
   10.0088    6.5869   23.3213 S   0  0  0  0  0  0  0  0  0  0  0  0
   11.1243   -1.7554   23.7105 C   0  0  0  0  0  0  0  0  0  0  0  0
    9.8489   -1.6195   23.2231 C   0  0  0  0  0  0  0  0  0  0  0  0
    8.9104   -1.2136   24.1060 F   0  0  0  0  0  0  0  0  0  0  0  0
    6.9363   -2.2701   21.8695 N   0  0  0  0  0  0  0  0  0  0  0  0
    5.9101   -2.0590   20.9574 C   0  0  0  0  0  0  0  0  0  0  0  0
    6.5978   -2.9676   23.3764 S   0  0  0  0  0  0  0  0  0  0  0  0
    7.8325   -3.4943   23.8698 O   0  0  0  0  0  0  0  0  0  0  0  0
    5.8604   -1.9945   24.1209 O   0  0  0  0  0  0  0  0  0  0  0  0
    5.5266   -4.3157   23.0148 C   0  0  0  0  0  0  0  0  0  0  0  0
    4.1597   -4.1917   23.1954 C   0  0  0  0  0  0  0  0  0  0  0  0
    3.3544   -5.2790   22.9033 C   0  0  0  0  0  0  0  0  0  0  0  0
    3.9439   -6.4364   22.4475 C   0  0  0  0  0  0  0  0  0  0  0  0
    5.2590   -6.5705   22.2705 N   0  0  0  0  0  0  0  0  0  0  0  0
    6.0308   -5.5173   22.5546 C   0  0  0  0  0  0  0  0  0  0  0  0
  1  2  1  0
  2  3  1  0
  3  4  1  0
  4  5  1  0
  5  6  2  0
  6  7  1  0
  7  8  2  0
  8  9  1  0
  9 10  2  0
 10 11  1  0
 11 12  1  0
 12 13  1  0
 13 14  1  0
 14 15  2  0
 14 16  1  0
 16 17  1  0
 17 18  1  0
 18 19  2  0
 18 20  1  0
 20 21  2  0
 21 22  1  0
 22 23  2  0
 23 24  1  0
 23 25  1  0
 10 26  1  0
 26 27  2  0
 27 28  1  0
  6 29  1  0
 29 30  1  0
 29 31  1  0
 31 32  2  0
 31 33  2  0
 31 34  1  0
 34 35  2  0
 35 36  1  0
 36 37  2  0
 37 38  1  0
 38 39  2  0
 30  4  2  0
 39 34  1  0
 27  7  1  0
 25 20  1  0
M  END
