CVD-0002476|dock_bobby27042020.77|mol2|15|dock1
     RDKit          3D

 29 32  0  0  0  0  0  0  0  0999 V2000
   11.0102   -5.7419   25.4321 F   0  0  0  0  0  0  0  0  0  0  0  0
    9.7406   -5.6569   25.9311 C   0  0  0  0  0  0  0  0  0  0  0  0
    9.3787   -5.8756   27.1803 C   0  0  0  0  0  0  0  0  0  0  0  0
    7.9748   -5.7371   27.6409 C   0  0  0  0  0  0  0  0  0  0  0  0
    7.0320   -5.7433   26.4500 C   0  0  0  0  0  0  0  0  0  0  0  0
    7.4557   -4.8555   25.3746 N   0  0  0  0  0  0  0  0  0  0  0  0
    7.4412   -3.4552   25.8048 C   0  0  0  0  0  0  0  0  0  0  0  0
    7.0632   -2.5179   24.6970 C   0  0  0  0  0  0  0  0  0  0  0  0
    6.2872   -1.5068   24.8888 N   0  0  0  0  0  0  0  0  0  0  0  0
    6.0716   -0.7685   23.7271 N   0  0  0  0  0  0  0  0  0  0  0  0
    6.6910   -1.2466   22.6877 C   0  0  0  0  0  0  0  0  0  0  0  0
    7.6192   -2.6676   23.0568 S   0  0  0  0  0  0  0  0  0  0  0  0
    6.6194   -0.6295   21.3512 C   0  0  0  0  0  0  0  0  0  0  0  0
    5.4133   -0.0151   21.0036 C   0  0  0  0  0  0  0  0  0  0  0  0
    5.1962    0.4379   19.7147 C   0  0  0  0  0  0  0  0  0  0  0  0
    6.1686    0.2867   18.7536 C   0  0  0  0  0  0  0  0  0  0  0  0
    7.4007   -0.2483   19.0846 C   0  0  0  0  0  0  0  0  0  0  0  0
    7.6657   -0.6361   20.3964 C   0  0  0  0  0  0  0  0  0  0  0  0
    8.9922   -1.0183   20.7185 N   0  0  0  0  0  0  0  0  0  0  0  0
    9.6601   -0.8306   21.9044 C   0  0  0  0  0  0  0  0  0  0  0  0
    9.1508   -0.3001   22.8872 O   0  0  0  0  0  0  0  0  0  0  0  0
   10.9500   -1.3011   21.8336 N   0  0  0  0  0  0  0  0  0  0  0  0
   11.9857   -1.3084   22.8017 C   0  0  0  0  0  0  0  0  0  0  0  0
   13.0443   -2.1929   22.6398 C   0  0  0  0  0  0  0  0  0  0  0  0
   14.0665   -2.2176   23.5721 C   0  0  0  0  0  0  0  0  0  0  0  0
   14.0021   -1.3561   24.6422 C   0  0  0  0  0  0  0  0  0  0  0  0
   13.0008   -0.4959   24.8264 N   0  0  0  0  0  0  0  0  0  0  0  0
   12.0177   -0.4791   23.9209 C   0  0  0  0  0  0  0  0  0  0  0  0
    8.7660   -5.2726   24.8789 C   0  0  0  0  0  0  0  0  0  0  0  0
  1  2  1  0
  2  3  2  0
  3  4  1  0
  4  5  1  0
  5  6  1  0
  6  7  1  0
  7  8  1  0
  8  9  2  0
  9 10  1  0
 10 11  2  0
 11 12  1  0
 11 13  1  0
 13 14  2  0
 14 15  1  0
 15 16  2  0
 16 17  1  0
 17 18  2  0
 18 19  1  0
 19 20  1  0
 20 21  2  0
 20 22  1  0
 22 23  1  0
 23 24  2  0
 24 25  1  0
 25 26  2  0
 26 27  1  0
 27 28  2  0
  6 29  1  0
 29  2  1  0
 12  8  1  0
 18 13  1  0
 28 23  1  0
M  END
