CVD-0000038|dock_bobby27042020.99|mol2|49|dock1
     RDKit          3D

 20 21  0  0  0  0  0  0  0  0999 V2000
   13.5566    3.9409   22.0493 C   0  0  0  0  0  0  0  0  0  0  0  0
   12.4065    3.1850   21.6749 O   0  0  0  0  0  0  0  0  0  0  0  0
   12.1835    1.9478   22.2258 C   0  0  0  0  0  0  0  0  0  0  0  0
   13.2090    1.2130   22.8080 C   0  0  0  0  0  0  0  0  0  0  0  0
   12.9089   -0.0241   23.3411 C   0  0  0  0  0  0  0  0  0  0  0  0
   14.1810   -0.9602   24.0745 Cl  0  0  0  0  0  0  0  0  0  0  0  0
   11.6306   -0.5402   23.3099 C   0  0  0  0  0  0  0  0  0  0  0  0
   10.6085    0.1967   22.7292 C   0  0  0  0  0  0  0  0  0  0  0  0
    9.2080   -0.3511   22.6823 C   0  0  0  0  0  0  0  0  0  0  0  0
    9.0800   -1.8154   21.6754 S   0  0  0  0  0  0  0  0  0  0  0  0
   10.2927   -2.5636   21.8171 O   0  0  0  0  0  0  0  0  0  0  0  0
    7.8327   -2.4541   21.9701 O   0  0  0  0  0  0  0  0  0  0  0  0
    9.0061   -1.3160   20.1271 N   0  0  0  0  0  0  0  0  0  0  0  0
    7.9055   -0.6176   19.5424 C   0  0  0  0  0  0  0  0  0  0  0  0
    6.7693   -0.2959   20.2707 C   0  0  0  0  0  0  0  0  0  0  0  0
    5.7414    0.3819   19.6386 C   0  0  0  0  0  0  0  0  0  0  0  0
    5.8868    0.7115   18.3093 C   0  0  0  0  0  0  0  0  0  0  0  0
    6.9703    0.4125   17.5899 N   0  0  0  0  0  0  0  0  0  0  0  0
    7.9588   -0.2421   18.2064 C   0  0  0  0  0  0  0  0  0  0  0  0
   10.8933    1.4426   22.1866 C   0  0  0  0  0  0  0  0  0  0  0  0
  1  2  1  0
  2  3  1  0
  3  4  2  0
  4  5  1  0
  5  6  1  0
  5  7  2  0
  7  8  1  0
  8  9  1  0
  9 10  1  0
 10 11  2  0
 10 12  2  0
 10 13  1  0
 13 14  1  0
 14 15  2  0
 15 16  1  0
 16 17  2  0
 17 18  1  0
 18 19  2  0
  8 20  2  0
 20  3  1  0
 19 14  1  0
M  END
