CVD-0001250|dock_bobby27042020.10|mol2|19|dock2
     RDKit          3D

 23 25  0  0  0  0  0  0  0  0999 V2000
    5.3740    0.4299   18.2020 C   0  0  0  0  0  0  0  0  0  0  0  0
    5.7949   -0.9236   18.6824 C   0  0  0  0  0  0  0  0  0  0  0  0
    5.5723   -1.0740   20.1107 N   0  0  0  0  0  0  0  0  0  0  0  0
    6.1339   -2.0555   20.8358 C   0  0  0  0  0  0  0  0  0  0  0  0
    5.8730   -3.3196   20.4470 N   0  0  0  0  0  0  0  0  0  0  0  0
    6.4192   -4.3175   21.1512 C   0  0  0  0  0  0  0  0  0  0  0  0
    7.2369   -4.1208   22.2576 C   0  0  0  0  0  0  0  0  0  0  0  0
    7.4985   -2.8130   22.6499 C   0  0  0  0  0  0  0  0  0  0  0  0
    6.9506   -1.7489   21.9436 C   0  0  0  0  0  0  0  0  0  0  0  0
    7.2507   -0.3374   22.3988 C   0  0  0  0  0  0  0  0  0  0  0  0
    8.4176    0.3039   21.6194 C   0  0  0  0  0  0  0  0  0  0  0  0
    9.7394   -0.3623   21.8956 C   0  0  0  0  0  0  0  0  0  0  0  0
   10.1678   -1.4652   21.1682 C   0  0  0  0  0  0  0  0  0  0  0  0
   11.3077   -2.0835   21.3709 N   0  0  0  0  0  0  0  0  0  0  0  0
   12.0952   -1.5808   22.3708 C   0  0  0  0  0  0  0  0  0  0  0  0
   13.3420   -2.1789   22.6644 C   0  0  0  0  0  0  0  0  0  0  0  0
   14.1211   -1.6720   23.6628 C   0  0  0  0  0  0  0  0  0  0  0  0
   13.7123   -0.5770   24.3983 C   0  0  0  0  0  0  0  0  0  0  0  0
   12.5170    0.0313   24.1490 C   0  0  0  0  0  0  0  0  0  0  0  0
   11.6757   -0.4588   23.1240 C   0  0  0  0  0  0  0  0  0  0  0  0
   10.4745    0.1457   22.8671 N   0  0  0  0  0  0  0  0  0  0  0  0
    7.7992   -5.2350   22.9802 C   0  0  0  0  0  0  0  0  0  0  0  0
    8.2687   -6.0975   23.5637 N   0  0  0  0  0  0  0  0  0  0  0  0
  1  2  1  0
  2  3  1  0
  3  4  1  0
  4  5  2  0
  5  6  1  0
  6  7  2  0
  7  8  1  0
  8  9  2  0
  9 10  1  0
 10 11  1  0
 11 12  1  0
 12 13  2  0
 13 14  1  0
 14 15  2  0
 15 16  1  0
 16 17  2  0
 17 18  1  0
 18 19  2  0
 19 20  1  0
 20 21  2  0
  7 22  1  0
 22 23  3  0
  9  4  1  0
 21 12  1  0
 20 15  1  0
M  END
