CVD-0003850|dock_bobby27042020.15|mol2|20|dock3
     RDKit          3D

 24 26  0  0  0  0  0  0  0  0999 V2000
   13.4121    5.5466   21.8372 N   0  0  0  0  0  0  0  0  0  0  0  0
   13.5710    4.6072   23.1238 S   0  0  0  0  0  0  0  0  0  0  0  0
   14.9563    4.2580   23.2247 O   0  0  0  0  0  0  0  0  0  0  0  0
   12.9464    5.2828   24.2213 O   0  0  0  0  0  0  0  0  0  0  0  0
   12.6695    3.1137   22.8415 C   0  0  0  0  0  0  0  0  0  0  0  0
   13.3486    1.9264   22.6365 C   0  0  0  0  0  0  0  0  0  0  0  0
   12.6378    0.7603   22.4153 C   0  0  0  0  0  0  0  0  0  0  0  0
   11.2454    0.7553   22.3974 C   0  0  0  0  0  0  0  0  0  0  0  0
   10.5849    1.9608   22.6188 C   0  0  0  0  0  0  0  0  0  0  0  0
   11.2866    3.1336   22.8346 C   0  0  0  0  0  0  0  0  0  0  0  0
   10.5548   -0.4280   22.1661 N   0  0  0  0  0  0  0  0  0  0  0  0
    9.4813   -0.5417   21.1744 C   0  0  0  0  0  0  0  0  0  0  0  0
    8.2861   -1.2728   21.7172 C   0  0  0  0  0  0  0  0  0  0  0  0
    8.6793   -2.6598   22.2375 C   0  0  0  0  0  0  0  0  0  0  0  0
    7.4743   -3.4167   22.7900 C   0  0  0  0  0  0  0  0  0  0  0  0
    7.6321   -4.8616   23.0144 N   0  0  0  0  0  0  0  0  0  0  0  0
    7.1333   -5.6161   21.8536 C   0  0  0  0  0  0  0  0  0  0  0  0
    5.6667   -5.7396   21.6276 C   0  0  0  0  0  0  0  0  0  0  0  0
    4.9601   -6.6877   22.5960 C   0  0  0  0  0  0  0  0  0  0  0  0
    4.7117   -6.1941   24.0036 C   0  0  0  0  0  0  0  0  0  0  0  0
    5.5680   -5.0462   24.5013 C   0  0  0  0  0  0  0  0  0  0  0  0
    7.0597   -5.2424   24.3196 C   0  0  0  0  0  0  0  0  0  0  0  0
    9.7805   -2.5003   23.2552 C   0  0  0  0  0  0  0  0  0  0  0  0
   10.9731   -1.7362   22.7211 C   0  0  0  0  0  0  0  0  0  0  0  0
  1  2  1  0
  2  3  2  0
  2  4  2  0
  2  5  1  0
  5  6  2  0
  6  7  1  0
  7  8  2  0
  8  9  1  0
  9 10  2  0
  8 11  1  0
 11 12  1  0
 12 13  1  0
 13 14  1  0
 14 15  1  0
 15 16  1  0
 16 17  1  0
 17 18  1  0
 18 19  1  0
 19 20  1  0
 20 21  1  0
 21 22  1  0
 14 23  1  0
 23 24  1  0
 10  5  1  0
 24 11  1  0
 22 16  1  0
M  END
