CVD-0000548|dock_bobby27042020.12|mol2|35|dock3
     RDKit          3D

 19 20  0  0  0  0  0  0  0  0999 V2000
   13.4290   -2.1081   21.3137 C   0  0  0  0  0  0  0  0  0  0  0  0
   12.9502   -1.4368   22.5756 C   0  0  0  0  0  0  0  0  0  0  0  0
   13.8338   -1.3413   23.6465 C   0  0  0  0  0  0  0  0  0  0  0  0
   13.4291   -0.7381   24.8156 C   0  0  0  0  0  0  0  0  0  0  0  0
   12.2127   -0.2289   24.9846 N   0  0  0  0  0  0  0  0  0  0  0  0
   11.3550   -0.3147   23.9629 C   0  0  0  0  0  0  0  0  0  0  0  0
   11.6550   -0.9046   22.7336 C   0  0  0  0  0  0  0  0  0  0  0  0
   10.7495   -1.0041   21.6382 N   0  0  0  0  0  0  0  0  0  0  0  0
    9.4553   -0.5458   21.5236 C   0  0  0  0  0  0  0  0  0  0  0  0
    8.8453    0.0555   22.4012 O   0  0  0  0  0  0  0  0  0  0  0  0
    8.9242   -0.8492   20.2901 N   0  0  0  0  0  0  0  0  0  0  0  0
    7.6447   -0.5757   19.7439 C   0  0  0  0  0  0  0  0  0  0  0  0
    7.3758   -1.0070   18.4486 C   0  0  0  0  0  0  0  0  0  0  0  0
    6.2133   -0.8140   17.8184 N   0  0  0  0  0  0  0  0  0  0  0  0
    5.2524   -0.1652   18.4794 C   0  0  0  0  0  0  0  0  0  0  0  0
    5.4103    0.3101   19.7765 C   0  0  0  0  0  0  0  0  0  0  0  0
    6.6284    0.0998   20.4170 C   0  0  0  0  0  0  0  0  0  0  0  0
    4.3401    1.0059   20.4477 C   0  0  0  0  0  0  0  0  0  0  0  0
    3.4726    1.5309   20.9737 N   0  0  0  0  0  0  0  0  0  0  0  0
  1  2  1  0
  2  3  2  0
  3  4  1  0
  4  5  2  0
  5  6  1  0
  6  7  2  0
  7  8  1  0
  8  9  1  0
  9 10  2  0
  9 11  1  0
 11 12  1  0
 12 13  2  0
 13 14  1  0
 14 15  2  0
 15 16  1  0
 16 17  2  0
 16 18  1  0
 18 19  3  0
  7  2  1  0
 17 12  1  0
M  END
