CVD-0001995|dock_bobby27042020.36|mol2|18|dock1
     RDKit          3D

 20 22  0  0  0  0  0  0  0  0999 V2000
   13.9892   -2.6009   23.1996 C   0  0  0  0  0  0  0  0  0  0  0  0
   13.1706   -2.0934   22.0129 C   0  0  0  0  0  0  0  0  0  0  0  0
   13.9432   -2.2638   20.7145 C   0  0  0  0  0  0  0  0  0  0  0  0
   14.3926   -3.4735   20.4828 O   0  0  0  0  0  0  0  0  0  0  0  0
   14.1195   -1.3437   19.9465 O   0  0  0  0  0  0  0  0  0  0  0  0
   12.6595   -0.6698   22.2409 C   0  0  0  0  0  0  0  0  0  0  0  0
   13.5480    0.3935   22.4407 C   0  0  0  0  0  0  0  0  0  0  0  0
   13.0201    1.6634   22.6526 C   0  0  0  0  0  0  0  0  0  0  0  0
   13.6820    2.8563   22.8774 N   0  0  0  0  0  0  0  0  0  0  0  0
   12.7510    3.8656   23.0364 C   0  0  0  0  0  0  0  0  0  0  0  0
   12.9376    5.2218   23.2808 C   0  0  0  0  0  0  0  0  0  0  0  0
   11.8294    6.0426   23.4027 C   0  0  0  0  0  0  0  0  0  0  0  0
   10.5631    5.5083   23.2809 C   0  0  0  0  0  0  0  0  0  0  0  0
    9.1841    6.5601   23.4381 Cl  0  0  0  0  0  0  0  0  0  0  0  0
   10.3528    4.1651   23.0381 C   0  0  0  0  0  0  0  0  0  0  0  0
   11.4571    3.3248   22.9126 C   0  0  0  0  0  0  0  0  0  0  0  0
   11.6340    1.9031   22.6639 C   0  0  0  0  0  0  0  0  0  0  0  0
   10.7752    0.8310   22.4533 C   0  0  0  0  0  0  0  0  0  0  0  0
   11.2694   -0.4517   22.2395 C   0  0  0  0  0  0  0  0  0  0  0  0
   10.2877   -1.5699   22.0062 C   0  0  0  0  0  0  0  0  0  0  0  0
  2  1  1  0
  2  3  1  0
  3  4  1  0
  3  5  2  0
  2  6  1  0
  6  7  2  0
  7  8  1  0
  8  9  1  0
  9 10  1  0
 10 11  2  0
 11 12  1  0
 12 13  2  0
 13 14  1  0
 13 15  1  0
 15 16  2  0
 16 17  1  0
 17 18  1  0
 18 19  2  0
 19 20  1  0
 19  6  1  0
 17  8  2  0
 16 10  1  0
M  END
