CVD-0000811|dock_bobby27042020.54|mol2|38|dock1
     RDKit          3D

 20 22  0  0  0  0  0  0  0  0999 V2000
    4.5873    0.9358   19.9556 C   0  0  0  0  0  0  0  0  0  0  0  0
    5.9075    0.3387   20.1266 N   0  0  0  0  0  0  0  0  0  0  0  0
    6.4530    0.0023   18.8166 C   0  0  0  0  0  0  0  0  0  0  0  0
    6.8085    1.2618   20.8257 C   0  0  0  0  0  0  0  0  0  0  0  0
    8.0778    0.6163   21.3191 C   0  0  0  0  0  0  0  0  0  0  0  0
    8.3492   -0.7160   21.4119 C   0  0  0  0  0  0  0  0  0  0  0  0
    9.6085   -0.9133   21.9080 N   0  0  0  0  0  0  0  0  0  0  0  0
   10.1842    0.3095   22.1601 C   0  0  0  0  0  0  0  0  0  0  0  0
   11.4505    0.6390   22.6862 C   0  0  0  0  0  0  0  0  0  0  0  0
   11.7638    1.9956   22.7771 C   0  0  0  0  0  0  0  0  0  0  0  0
   10.8437    2.9414   22.3940 C   0  0  0  0  0  0  0  0  0  0  0  0
   11.1905    4.2523   22.5043 F   0  0  0  0  0  0  0  0  0  0  0  0
    9.5951    2.6427   21.9074 C   0  0  0  0  0  0  0  0  0  0  0  0
    9.2526    1.2978   21.7823 C   0  0  0  0  0  0  0  0  0  0  0  0
   12.4655   -0.3519   23.1455 C   0  0  0  0  0  0  0  0  0  0  0  0
   12.8611   -1.3895   22.3070 C   0  0  0  0  0  0  0  0  0  0  0  0
   13.7910   -2.3271   22.7242 C   0  0  0  0  0  0  0  0  0  0  0  0
   14.3421   -2.2433   23.9843 C   0  0  0  0  0  0  0  0  0  0  0  0
   13.9709   -1.2161   24.8246 C   0  0  0  0  0  0  0  0  0  0  0  0
   13.0475   -0.2719   24.4074 C   0  0  0  0  0  0  0  0  0  0  0  0
  1  2  1  0
  2  3  1  0
  2  4  1  0
  4  5  1  0
  5  6  2  0
  6  7  1  0
  7  8  1  0
  8  9  2  0
  9 10  1  0
 10 11  2  0
 11 12  1  0
 11 13  1  0
 13 14  2  0
  9 15  1  0
 15 16  2  0
 16 17  1  0
 17 18  2  0
 18 19  1  0
 19 20  2  0
 14  5  1  0
 20 15  1  0
 14  8  1  0
M  END
