CVD-0000112|dock_bobby27042020.57|mol2|15|dock2
     RDKit          3D

 24 27  0  0  0  0  0  0  0  0999 V2000
    9.9108   -7.0056   26.3137 N   0  0  0  0  0  0  0  0  0  0  0  0
    9.0170   -5.6780   26.3587 S   0  0  0  0  0  0  0  0  0  0  0  0
    7.6608   -6.0725   26.1219 O   0  0  0  0  0  0  0  0  0  0  0  0
    9.3360   -4.9937   27.5757 O   0  0  0  0  0  0  0  0  0  0  0  0
    9.5030   -4.6302   25.0211 C   0  0  0  0  0  0  0  0  0  0  0  0
   10.8505   -4.3965   24.7951 C   0  0  0  0  0  0  0  0  0  0  0  0
   11.2394   -3.5867   23.7716 C   0  0  0  0  0  0  0  0  0  0  0  0
   10.2851   -2.9717   22.9267 C   0  0  0  0  0  0  0  0  0  0  0  0
   10.6327   -2.1225   21.8524 C   0  0  0  0  0  0  0  0  0  0  0  0
    9.6793   -1.5423   21.0716 C   0  0  0  0  0  0  0  0  0  0  0  0
    8.3187   -1.7641   21.2805 C   0  0  0  0  0  0  0  0  0  0  0  0
    7.9514   -2.6076   22.3209 C   0  0  0  0  0  0  0  0  0  0  0  0
    8.9107   -3.2148   23.1635 C   0  0  0  0  0  0  0  0  0  0  0  0
    8.5445   -4.0607   24.2358 C   0  0  0  0  0  0  0  0  0  0  0  0
    7.3435   -1.1358   20.4331 N   0  0  0  0  0  0  0  0  0  0  0  0
    7.7148    0.5987   19.7952 Se  0  0  0  0  0  2  0  0  0  0  0  0
    6.4746    0.1303   18.3816 C   0  0  0  0  0  0  0  0  0  0  0  0
    5.8729    1.3268   17.6828 C   0  0  0  0  0  0  0  0  0  0  0  0
    4.7798    1.9192   18.1604 C   0  0  0  0  0  0  0  0  0  0  0  0
    4.1405    1.4360   19.3194 C   0  0  0  0  0  0  0  0  0  0  0  0
    4.4162    0.2255   19.8024 C   0  0  0  0  0  0  0  0  0  0  0  0
    5.4031   -0.6813   19.1183 C   0  0  0  0  0  0  0  0  0  0  0  0
    6.1498   -1.6579   20.0151 C   0  0  0  0  0  0  0  0  0  0  0  0
    5.7207   -2.7545   20.3182 O   0  0  0  0  0  0  0  0  0  0  0  0
  1  2  1  0
  2  3  2  0
  2  4  2  0
  2  5  1  0
  5  6  2  0
  6  7  1  0
  7  8  2  0
  8  9  1  0
  9 10  2  0
 10 11  1  0
 11 12  2  0
 12 13  1  0
 13 14  2  0
 11 15  1  0
 15 16  1  0
 16 17  1  0
 17 18  1  0
 18 19  2  0
 19 20  1  0
 20 21  2  0
 21 22  1  0
 22 23  1  0
 23 24  2  0
 14  5  1  0
 23 15  1  0
 13  8  1  0
 22 17  1  0
M  END
