CVD-0002044|dock_bobby27042020.65|mol2|8|dock1
     RDKit          3D

 26 28  0  0  0  0  0  0  0  0999 V2000
   13.1791    3.9367   22.2685 C   0  0  0  0  0  0  0  0  0  0  0  0
   11.8455    3.6686   22.9018 C   0  0  0  0  0  0  0  0  0  0  0  0
   11.1283    4.5913   23.2732 O   0  0  0  0  0  0  0  0  0  0  0  0
   11.5366    2.3486   22.9912 N   0  0  0  0  0  0  0  0  0  0  0  0
   10.3818    1.6945   23.5012 C   0  0  0  0  0  0  0  0  0  0  0  0
    9.1675    2.3385   23.7318 C   0  0  0  0  0  0  0  0  0  0  0  0
    8.0861    1.7305   24.2275 N   0  0  0  0  0  0  0  0  0  0  0  0
    8.1867    0.4400   24.5349 C   0  0  0  0  0  0  0  0  0  0  0  0
    9.3307   -0.3039   24.3435 C   0  0  0  0  0  0  0  0  0  0  0  0
   10.4542    0.3193   23.8004 C   0  0  0  0  0  0  0  0  0  0  0  0
   11.6628   -0.5348   23.5681 C   0  0  0  0  0  0  0  0  0  0  0  0
   12.7260   -0.3791   24.4585 C   0  0  0  0  0  0  0  0  0  0  0  0
   13.8935   -1.1010   24.3014 C   0  0  0  0  0  0  0  0  0  0  0  0
   14.0129   -1.9909   23.2598 C   0  0  0  0  0  0  0  0  0  0  0  0
   12.9692   -2.1824   22.3702 C   0  0  0  0  0  0  0  0  0  0  0  0
   11.7800   -1.4607   22.5106 C   0  0  0  0  0  0  0  0  0  0  0  0
   10.6731   -1.6260   21.6309 N   0  0  0  0  0  0  0  0  0  0  0  0
    9.8139   -0.6808   21.1146 C   0  0  0  0  0  0  0  0  0  0  0  0
    9.8734    0.5219   21.3488 O   0  0  0  0  0  0  0  0  0  0  0  0
    8.8670   -1.2588   20.2996 N   0  0  0  0  0  0  0  0  0  0  0  0
    7.7974   -0.6775   19.5727 C   0  0  0  0  0  0  0  0  0  0  0  0
    7.0691    0.4316   19.9931 C   0  0  0  0  0  0  0  0  0  0  0  0
    6.0436    0.9106   19.1959 C   0  0  0  0  0  0  0  0  0  0  0  0
    5.7734    0.2739   18.0067 C   0  0  0  0  0  0  0  0  0  0  0  0
    6.4526   -0.7893   17.5775 N   0  0  0  0  0  0  0  0  0  0  0  0
    7.4402   -1.2437   18.3542 C   0  0  0  0  0  0  0  0  0  0  0  0
  1  2  1  0
  2  3  2  0
  2  4  1  0
  4  5  1  0
  5  6  2  0
  6  7  1  0
  7  8  2  0
  8  9  1  0
  9 10  2  0
 10 11  1  0
 11 12  2  0
 12 13  1  0
 13 14  2  0
 14 15  1  0
 15 16  2  0
 16 17  1  0
 17 18  1  0
 18 19  2  0
 18 20  1  0
 20 21  1  0
 21 22  2  0
 22 23  1  0
 23 24  2  0
 24 25  1  0
 25 26  2  0
 10  5  1  0
 16 11  1  0
 26 21  1  0
M  END
