CVD-0002482|dock_bobby27042020.63|mol2|13|dock1
     RDKit          3D

 21 22  0  0  0  0  0  0  0  0999 V2000
    3.1537    2.4473   19.9986 C   0  0  0  0  0  0  0  0  0  0  0  0
    4.3943    1.6074   19.8162 C   0  0  0  0  0  0  0  0  0  0  0  0
    5.1269    1.6659   18.6410 C   0  0  0  0  0  0  0  0  0  0  0  0
    6.2667    0.8963   18.4790 C   0  0  0  0  0  0  0  0  0  0  0  0
    6.6871    0.0570   19.4964 C   0  0  0  0  0  0  0  0  0  0  0  0
    5.9724   -0.0195   20.6807 C   0  0  0  0  0  0  0  0  0  0  0  0
    6.4225   -0.9281   21.7993 C   0  0  0  0  0  0  0  0  0  0  0  0
    7.8482   -1.2749   21.7183 N   0  0  0  0  0  0  0  0  0  0  0  0
    8.1520   -2.4045   22.6016 C   0  0  0  0  0  0  0  0  0  0  0  0
    9.6162   -2.7848   22.4833 C   0  0  0  0  0  0  0  0  0  0  0  0
   10.4700   -1.6412   22.8125 N   0  0  0  0  0  0  0  0  0  0  0  0
   10.1494   -0.4739   21.9854 C   0  0  0  0  0  0  0  0  0  0  0  0
    8.6748   -0.1336   22.1027 C   0  0  0  0  0  0  0  0  0  0  0  0
   11.4393   -1.6985   23.7447 C   0  0  0  0  0  0  0  0  0  0  0  0
   11.7085   -2.7271   24.3352 O   0  0  0  0  0  0  0  0  0  0  0  0
   12.1990   -0.4178   24.0425 C   0  0  0  0  0  0  0  0  0  0  0  0
   13.3198   -0.7160   25.4018 Cl  0  0  0  0  0  0  0  0  0  0  0  0
   12.9581   -0.0046   22.9175 N   0  0  0  0  0  0  0  0  0  0  0  0
   13.6282   -0.8806   22.1753 C   0  0  0  0  0  0  0  0  0  0  0  0
   13.6641   -2.0883   22.3701 O   0  0  0  0  0  0  0  0  0  0  0  0
    4.8327    0.7612   20.8239 C   0  0  0  0  0  0  0  0  0  0  0  0
  1  2  1  0
  2  3  2  0
  3  4  1  0
  4  5  2  0
  5  6  1  0
  6  7  1  0
  7  8  1  0
  8  9  1  0
  9 10  1  0
 10 11  1  0
 11 12  1  0
 12 13  1  0
 11 14  1  0
 14 15  2  0
 14 16  1  0
 16 17  1  0
 16 18  1  0
 18 19  1  0
 19 20  2  0
  6 21  2  0
 21  2  1  0
 13  8  1  0
M  END
