CVD-0002151|dock_bobby27042020.21|mol2|21|dock2
     RDKit          3D

 17 17  0  0  0  0  0  0  0  0999 V2000
   11.9248    0.5368   23.8572 C   0  0  0  0  0  0  0  0  0  0  0  0
   11.9412   -0.3333   22.6033 C   0  0  0  0  0  0  0  0  0  0  0  0
   13.0934   -1.2761   22.5825 C   0  0  0  0  0  0  0  0  0  0  0  0
   13.2347   -2.0043   21.4757 N   0  0  0  0  0  0  0  0  0  0  0  0
   13.9187   -1.4032   23.5454 N   0  0  0  0  0  0  0  0  0  0  0  0
   10.3699   -1.2445   22.4889 S   0  0  0  0  0  0  0  0  0  0  0  0
    9.4793   -0.6708   23.4566 O   0  0  0  0  0  0  0  0  0  0  0  0
   10.6857   -2.6411   22.5799 O   0  0  0  0  0  0  0  0  0  0  0  0
    9.7277   -0.9890   21.0312 N   0  0  0  0  0  0  0  0  0  0  0  0
    8.4728   -0.2381   20.9056 C   0  0  0  0  0  0  0  0  0  0  0  0
    7.6325   -0.7859   19.7662 C   0  0  0  0  0  0  0  0  0  0  0  0
    6.4670    0.1081   19.4179 C   0  0  0  0  0  0  0  0  0  0  0  0
    6.5089    0.9252   18.2986 C   0  0  0  0  0  0  0  0  0  0  0  0
    5.4411    1.7475   17.9801 C   0  0  0  0  0  0  0  0  0  0  0  0
    4.3175    1.7632   18.7781 C   0  0  0  0  0  0  0  0  0  0  0  0
    4.2625    0.9570   19.8945 C   0  0  0  0  0  0  0  0  0  0  0  0
    5.3309    0.1350   20.2121 C   0  0  0  0  0  0  0  0  0  0  0  0
  1  2  1  0
  2  3  1  0
  3  4  1  0
  3  5  2  0
  2  6  1  0
  6  7  2  0
  6  8  2  0
  6  9  1  0
  9 10  1  0
 10 11  1  0
 11 12  1  0
 12 13  2  0
 13 14  1  0
 14 15  2  0
 15 16  1  0
 16 17  2  0
 17 12  1  0
M  END
