CVD-0002886|dock_bobby27042020.32|mol2|40|dock2
     RDKit          3D

 21 23  0  0  0  0  0  0  0  0999 V2000
    6.2309    0.3479   17.7063 O   0  0  0  0  0  0  0  0  0  0  0  0
    6.4043   -0.4623   18.7906 C   0  0  0  0  0  0  0  0  0  0  0  0
    5.9549   -1.7782   18.7412 C   0  0  0  0  0  0  0  0  0  0  0  0
    6.1721   -2.5736   19.8520 C   0  0  0  0  0  0  0  0  0  0  0  0
    5.8032   -3.8828   20.0679 O   0  0  0  0  0  0  0  0  0  0  0  0
    6.4612   -4.2692   21.2901 C   0  0  0  0  0  0  0  0  0  0  0  0
    6.8302   -3.0549   21.9616 O   0  0  0  0  0  0  0  0  0  0  0  0
    6.8165   -2.0818   20.9818 C   0  0  0  0  0  0  0  0  0  0  0  0
    7.2696   -0.7625   21.0376 C   0  0  0  0  0  0  0  0  0  0  0  0
    7.9500   -0.2192   22.2718 C   0  0  0  0  0  0  0  0  0  0  0  0
    9.4137   -0.3333   22.2088 N   0  0  0  0  0  0  0  0  0  0  0  0
    9.8150   -1.7407   22.1250 C   0  0  0  0  0  0  0  0  0  0  0  0
   11.3247   -1.8509   22.0187 C   0  0  0  0  0  0  0  0  0  0  0  0
   11.9665   -1.2093   23.1683 N   0  0  0  0  0  0  0  0  0  0  0  0
   11.5385    0.1853   23.3152 C   0  0  0  0  0  0  0  0  0  0  0  0
   10.0248    0.2669   23.3919 C   0  0  0  0  0  0  0  0  0  0  0  0
   12.8590   -1.8437   23.9558 C   0  0  0  0  0  0  0  0  0  0  0  0
   13.1926   -3.0036   23.7487 O   0  0  0  0  0  0  0  0  0  0  0  0
   13.4370   -1.0488   25.1105 C   0  0  0  0  0  0  0  0  0  0  0  0
   14.5859   -2.0090   26.0516 Cl  0  0  0  0  0  0  0  0  0  0  0  0
    7.0496    0.0356   19.9184 C   0  0  0  0  0  0  0  0  0  0  0  0
  1  2  1  0
  2  3  2  0
  3  4  1  0
  4  5  1  0
  5  6  1  0
  6  7  1  0
  7  8  1  0
  8  9  1  0
  9 10  1  0
 10 11  1  0
 11 12  1  0
 12 13  1  0
 13 14  1  0
 14 15  1  0
 15 16  1  0
 14 17  1  0
 17 18  2  0
 17 19  1  0
 19 20  1  0
  9 21  2  0
 21  2  1  0
  8  4  2  0
 16 11  1  0
M  END
