CVD-0000844|dock_bobby27042020.11|mol2|35|dock2
     RDKit          3D

 22 24  0  0  0  0  0  0  0  0999 V2000
    9.9933   -1.9179   22.2989 O   0  0  0  0  0  0  0  0  0  0  0  0
   10.1394   -0.7213   22.0905 C   0  0  0  0  0  0  0  0  0  0  0  0
    9.2438    0.0014   21.3331 N   0  0  0  0  0  0  0  0  0  0  0  0
    8.0382   -0.4034   20.7011 C   0  0  0  0  0  0  0  0  0  0  0  0
    7.5954    0.0578   19.4614 C   0  0  0  0  0  0  0  0  0  0  0  0
    6.3963   -0.3941   18.9352 C   0  0  0  0  0  0  0  0  0  0  0  0
    5.6288   -1.3085   19.6218 C   0  0  0  0  0  0  0  0  0  0  0  0
    6.0591   -1.7772   20.8426 C   0  0  0  0  0  0  0  0  0  0  0  0
    7.2541   -1.3301   21.3798 C   0  0  0  0  0  0  0  0  0  0  0  0
   11.2697   -0.0668   22.6441 N   0  0  0  0  0  0  0  0  0  0  0  0
   12.3627   -0.8120   23.2273 C   0  0  0  0  0  0  0  0  0  0  0  0
   12.9013   -1.9123   22.5738 C   0  0  0  0  0  0  0  0  0  0  0  0
   13.9494   -2.6009   23.1587 C   0  0  0  0  0  0  0  0  0  0  0  0
   14.4240   -2.1668   24.3751 C   0  0  0  0  0  0  0  0  0  0  0  0
   13.9245   -1.1129   25.0215 N   0  0  0  0  0  0  0  0  0  0  0  0
   12.9124   -0.4542   24.4484 C   0  0  0  0  0  0  0  0  0  0  0  0
   11.5056    1.3550   22.6738 C   0  0  0  0  0  0  0  0  0  0  0  0
   12.7788    1.9113   22.5794 C   0  0  0  0  0  0  0  0  0  0  0  0
   12.8921    3.2898   22.6487 C   0  0  0  0  0  0  0  0  0  0  0  0
   11.7658    4.0684   22.7935 C   0  0  0  0  0  0  0  0  0  0  0  0
   10.5491    3.4322   22.8611 C   0  0  0  0  0  0  0  0  0  0  0  0
   10.4051    2.1025   22.7997 N   0  0  0  0  0  0  0  0  0  0  0  0
  1  2  2  0
  2  3  1  0
  3  4  1  0
  4  5  2  0
  5  6  1  0
  6  7  2  0
  7  8  1  0
  8  9  2  0
  2 10  1  0
 10 11  1  0
 11 12  2  0
 12 13  1  0
 13 14  2  0
 14 15  1  0
 15 16  2  0
 10 17  1  0
 17 18  2  0
 18 19  1  0
 19 20  2  0
 20 21  1  0
 21 22  2  0
  9  4  1  0
 16 11  1  0
 22 17  1  0
M  END
