CVD-0003290|dock_bobby27042020.74|mol2|21|dock2
     RDKit          3D

 16 17  0  0  0  0  0  0  0  0999 V2000
    6.7444   -3.8885   22.1331 C   0  0  0  0  0  0  0  0  0  0  0  0
    7.6893   -3.1984   23.0724 C   0  0  0  0  0  0  0  0  0  0  0  0
    8.8466   -3.5768   23.2233 O   0  0  0  0  0  0  0  0  0  0  0  0
    7.1928   -2.1593   23.7467 N   0  0  0  0  0  0  0  0  0  0  0  0
    7.9793   -1.3989   24.7069 C   0  0  0  0  0  0  0  0  0  0  0  0
    8.8017   -0.3063   24.0514 C   0  0  0  0  0  0  0  0  0  0  0  0
    9.8289   -0.8180   23.0829 C   0  0  0  0  0  0  0  0  0  0  0  0
    9.6673   -1.0076   21.7419 C   0  0  0  0  0  0  0  0  0  0  0  0
   10.8214   -1.4852   21.1837 N   0  0  0  0  0  0  0  0  0  0  0  0
   11.7686   -1.6176   22.1688 C   0  0  0  0  0  0  0  0  0  0  0  0
   13.0874   -2.0562   22.1159 C   0  0  0  0  0  0  0  0  0  0  0  0
   13.8315   -2.0961   23.2827 C   0  0  0  0  0  0  0  0  0  0  0  0
   13.2554   -1.7026   24.4726 C   0  0  0  0  0  0  0  0  0  0  0  0
   14.2028   -1.7608   25.9326 Cl  0  0  0  0  0  0  0  0  0  0  0  0
   11.9481   -1.2634   24.5406 C   0  0  0  0  0  0  0  0  0  0  0  0
   11.1781   -1.2105   23.3800 C   0  0  0  0  0  0  0  0  0  0  0  0
  1  2  1  0
  2  3  2  0
  2  4  1  0
  4  5  1  0
  5  6  1  0
  6  7  1  0
  7  8  2  0
  8  9  1  0
  9 10  1  0
 10 11  2  0
 11 12  1  0
 12 13  2  0
 13 14  1  0
 13 15  1  0
 15 16  2  0
 16  7  1  0
 16 10  1  0
M  END
