CVD-0000868|dock_bobby27042020.54|mol2|29|dock3
     RDKit          3D

 25 26  0  0  0  0  0  0  0  0999 V2000
   13.5102    4.4538   21.2601 C   0  0  0  0  0  0  0  0  0  0  0  0
   12.3847    4.2471   22.2665 C   0  0  0  0  0  0  0  0  0  0  0  0
   12.7676    4.8918   23.5265 N   0  0  0  0  0  0  0  0  0  0  0  0
   11.9755    5.7497   24.1731 C   0  0  0  0  0  0  0  0  0  0  0  0
   10.8612    6.0756   23.7754 O   0  0  0  0  0  0  0  0  0  0  0  0
   12.5574    6.2929   25.4594 C   0  0  0  0  0  0  0  0  0  0  0  0
   11.3642    7.1368   26.4550 Cl  0  0  0  0  0  0  0  0  0  0  0  0
   12.0969    2.7727   22.4765 C   0  0  0  0  0  0  0  0  0  0  0  0
   13.1210    1.8907   22.7897 C   0  0  0  0  0  0  0  0  0  0  0  0
   12.8429    0.5525   22.9811 C   0  0  0  0  0  0  0  0  0  0  0  0
   14.1436   -0.5372   23.3722 Cl  0  0  0  0  0  0  0  0  0  0  0  0
   11.5605    0.0565   22.8703 C   0  0  0  0  0  0  0  0  0  0  0  0
   10.5289    0.9343   22.5581 C   0  0  0  0  0  0  0  0  0  0  0  0
   10.8042    2.2826   22.3646 C   0  0  0  0  0  0  0  0  0  0  0  0
    9.1281    0.4431   22.4289 C   0  0  0  0  0  0  0  0  0  0  0  0
    8.2924    0.7517   23.2580 O   0  0  0  0  0  0  0  0  0  0  0  0
    8.7495   -0.4551   21.2634 C   0  0  0  0  0  0  0  0  0  0  0  0
    7.9519   -1.6759   21.7126 C   0  0  0  0  0  0  0  0  0  0  0  0
    6.8251   -1.7609   20.9522 C   0  0  0  0  0  0  0  0  0  0  0  0
    6.8209   -0.6422   19.9544 C   0  0  0  0  0  0  0  0  0  0  0  0
    7.8145    0.2350   20.2828 C   0  0  0  0  0  0  0  0  0  0  0  0
    5.6789   -0.5210   18.5926 S   0  0  0  0  0  0  0  0  0  0  0  0
    5.4131   -1.9699   18.0127 N   0  0  0  0  0  0  0  0  0  0  0  0
    6.3385    0.2327   17.5772 O   0  0  0  0  0  0  0  0  0  0  0  0
    4.4493   -0.0450   19.1369 O   0  0  0  0  0  0  0  0  0  0  0  0
  1  2  1  0
  2  3  1  0
  3  4  1  0
  4  5  2  0
  4  6  1  0
  6  7  1  0
  2  8  1  0
  8  9  2  0
  9 10  1  0
 10 11  1  0
 10 12  2  0
 12 13  1  0
 13 14  2  0
 13 15  1  0
 15 16  2  0
 15 17  1  0
 17 18  1  0
 18 19  2  0
 19 20  1  0
 20 21  2  0
 20 22  1  0
 22 23  1  0
 22 24  2  0
 22 25  2  0
 14  8  1  0
 21 17  1  0
M  END
