CVD-0002377|dock_bobby27042020.6|mol2|11|dock3
     RDKit          3D

 38 42  0  0  0  0  0  0  0  0999 V2000
    8.4333    4.2060   23.0222 C   0  0  0  0  0  0  0  0  0  0  0  0
    8.7781    4.1107   24.5108 C   0  0  0  0  0  0  0  0  0  0  0  0
    7.5920    4.5697   25.3768 C   0  0  0  0  0  0  0  0  0  0  0  0
    7.9843    4.8290   26.8196 C   0  0  0  0  0  0  0  0  0  0  0  0
    8.9609    5.9712   26.8612 C   0  0  0  0  0  0  0  0  0  0  0  0
   10.1249    5.7533   25.9350 C   0  0  0  0  0  0  0  0  0  0  0  0
   11.3209    6.4250   26.1757 C   0  0  0  0  0  0  0  0  0  0  0  0
   12.4038    6.3297   25.3222 C   0  0  0  0  0  0  0  0  0  0  0  0
   12.2947    5.5403   24.1911 C   0  0  0  0  0  0  0  0  0  0  0  0
   11.1172    4.8604   23.9257 C   0  0  0  0  0  0  0  0  0  0  0  0
   10.0265    4.9566   24.7857 C   0  0  0  0  0  0  0  0  0  0  0  0
   13.6582    5.3945   23.0766 S   0  0  0  0  0  0  0  0  0  0  0  0
   14.3333    6.8365   22.9096 N   0  0  0  0  0  0  0  0  0  0  0  0
   13.1281    5.0244   21.7986 O   0  0  0  0  0  0  0  0  0  0  0  0
   14.6279    4.5421   23.6964 O   0  0  0  0  0  0  0  0  0  0  0  0
    9.0299    2.6848   24.7760 N   0  0  0  0  0  0  0  0  0  0  0  0
    7.8907    1.7681   24.7197 C   0  0  0  0  0  0  0  0  0  0  0  0
    8.3347    0.3849   24.3220 C   0  0  0  0  0  0  0  0  0  0  0  0
    8.6230   -0.6640   25.2116 C   0  0  0  0  0  0  0  0  0  0  0  0
    8.9904   -1.8023   24.5142 C   0  0  0  0  0  0  0  0  0  0  0  0
    9.3650   -3.1168   25.1043 C   0  0  0  0  0  0  0  0  0  0  0  0
   10.3424   -3.9248   24.5166 C   0  0  0  0  0  0  0  0  0  0  0  0
   10.6892   -5.1505   25.0599 C   0  0  0  0  0  0  0  0  0  0  0  0
   10.0659   -5.6139   26.1953 C   0  0  0  0  0  0  0  0  0  0  0  0
    9.0903   -4.8464   26.8023 C   0  0  0  0  0  0  0  0  0  0  0  0
    8.7700   -3.6267   26.2546 C   0  0  0  0  0  0  0  0  0  0  0  0
    7.8225   -2.9154   26.9074 F   0  0  0  0  0  0  0  0  0  0  0  0
    8.9314   -1.4359   23.1377 N   0  0  0  0  0  0  0  0  0  0  0  0
    8.5269   -0.1101   23.0424 C   0  0  0  0  0  0  0  0  0  0  0  0
    9.2492   -2.2731   21.6958 S   0  0  0  0  0  0  0  0  0  0  0  0
   10.6029   -1.9958   21.3267 O   0  0  0  0  0  0  0  0  0  0  0  0
    8.8677   -3.6247   21.9652 O   0  0  0  0  0  0  0  0  0  0  0  0
    8.1427   -1.6530   20.4760 C   0  0  0  0  0  0  0  0  0  0  0  0
    8.5324   -0.6246   19.6351 C   0  0  0  0  0  0  0  0  0  0  0  0
    7.6286   -0.1640   18.6934 C   0  0  0  0  0  0  0  0  0  0  0  0
    6.3819   -0.7447   18.6323 C   0  0  0  0  0  0  0  0  0  0  0  0
    5.9924   -1.7345   19.4370 N   0  0  0  0  0  0  0  0  0  0  0  0
    6.8696   -2.1743   20.3439 C   0  0  0  0  0  0  0  0  0  0  0  0
  1  2  1  0
  2  3  1  0
  3  4  1  0
  4  5  1  0
  5  6  1  0
  6  7  2  0
  7  8  1  0
  8  9  2  0
  9 10  1  0
 10 11  2  0
  9 12  1  0
 12 13  1  0
 12 14  2  0
 12 15  2  0
  2 16  1  0
 16 17  1  0
 17 18  1  0
 18 19  1  0
 19 20  2  0
 20 21  1  0
 21 22  2  0
 22 23  1  0
 23 24  2  0
 24 25  1  0
 25 26  2  0
 26 27  1  0
 20 28  1  0
 28 29  1  0
 28 30  1  0
 30 31  2  0
 30 32  2  0
 30 33  1  0
 33 34  2  0
 34 35  1  0
 35 36  2  0
 36 37  1  0
 37 38  2  0
 11  2  1  0
 29 18  2  0
 38 33  1  0
 11  6  1  0
 26 21  1  0
M  END
