CVD-0002990|dock_bobby27042020.3|mol2|33|dock1
     RDKit          3D

 30 33  0  0  0  0  0  0  0  0999 V2000
   12.7733    6.4146   24.4855 C   0  0  0  0  0  0  0  0  0  0  0  0
   13.2780    5.5422   23.3739 C   0  0  0  0  0  0  0  0  0  0  0  0
   13.9550    5.9897   22.4536 O   0  0  0  0  0  0  0  0  0  0  0  0
   12.9338    4.2544   23.4354 N   0  0  0  0  0  0  0  0  0  0  0  0
   13.3315    3.2863   22.4232 C   0  0  0  0  0  0  0  0  0  0  0  0
   12.8179    1.8956   22.7383 C   0  0  0  0  0  0  0  0  0  0  0  0
   11.3453    1.7446   22.4927 C   0  0  0  0  0  0  0  0  0  0  0  0
   10.4025    2.7294   22.4835 C   0  0  0  0  0  0  0  0  0  0  0  0
    9.1668    2.2037   22.2225 N   0  0  0  0  0  0  0  0  0  0  0  0
    9.2899    0.8459   22.0546 C   0  0  0  0  0  0  0  0  0  0  0  0
    8.3299   -0.1323   21.7724 C   0  0  0  0  0  0  0  0  0  0  0  0
    6.8667    0.2592   21.5980 C   0  0  0  0  0  0  0  0  0  0  0  0
    6.7096    1.0224   20.3246 C   0  0  0  0  0  0  0  0  0  0  0  0
    5.2882    1.3743   20.0853 N   0  0  0  0  0  0  0  0  0  0  0  0
    4.5308    1.9647   21.2060 C   0  0  0  0  0  0  0  0  0  0  0  0
    5.2160    1.8842   22.5730 C   0  0  0  0  0  0  0  0  0  0  0  0
    4.7015    2.6023   23.6476 C   0  0  0  0  0  0  0  0  0  0  0  0
    5.2867    2.5320   24.8987 C   0  0  0  0  0  0  0  0  0  0  0  0
    6.3968    1.7389   25.0856 C   0  0  0  0  0  0  0  0  0  0  0  0
    6.9130    1.0225   24.0204 C   0  0  0  0  0  0  0  0  0  0  0  0
    6.3390    1.0783   22.7492 C   0  0  0  0  0  0  0  0  0  0  0  0
    4.6672    1.2245   18.8963 C   0  0  0  0  0  0  0  0  0  0  0  0
    3.4878    1.5133   18.7375 O   0  0  0  0  0  0  0  0  0  0  0  0
    5.5018    0.6730   17.7569 C   0  0  0  0  0  0  0  0  0  0  0  0
    5.8217   -1.0517   17.9815 Cl  0  0  0  0  0  0  0  0  0  0  0  0
    8.7821   -1.4369   21.6655 C   0  0  0  0  0  0  0  0  0  0  0  0
    7.8753   -2.4036   21.3951 F   0  0  0  0  0  0  0  0  0  0  0  0
   10.1002   -1.7983   21.8194 C   0  0  0  0  0  0  0  0  0  0  0  0
   11.0354   -0.8160   22.0964 C   0  0  0  0  0  0  0  0  0  0  0  0
   10.6508    0.5189   22.2190 C   0  0  0  0  0  0  0  0  0  0  0  0
  1  2  1  0
  2  3  2  0
  2  4  1  0
  4  5  1  0
  5  6  1  0
  6  7  1  0
  7  8  2  0
  8  9  1  0
  9 10  1  0
 10 11  2  0
 11 12  1  0
 12 13  1  0
 13 14  1  0
 14 15  1  0
 15 16  1  0
 16 17  2  0
 17 18  1  0
 18 19  2  0
 19 20  1  0
 20 21  2  0
 14 22  1  0
 22 23  2  0
 22 24  1  0
 24 25  1  0
 11 26  1  0
 26 27  1  0
 26 28  2  0
 28 29  1  0
 29 30  2  0
 30  7  1  0
 30 10  1  0
 21 12  1  0
 21 16  1  0
M  END
