CVD-0000970|dock_bobby27042020.39|mol2|41|dock1
     RDKit          3D

 30 33  0  0  0  0  0  0  0  0999 V2000
    9.3923   -6.2787   23.9828 N   0  0  0  0  0  0  0  0  0  0  0  0
    9.3325   -4.7696   24.5156 S   0  0  0  0  0  0  0  0  0  0  0  0
    8.2165   -4.7073   25.4110 O   0  0  0  0  0  0  0  0  0  0  0  0
   10.6198   -4.4251   25.0380 O   0  0  0  0  0  0  0  0  0  0  0  0
    8.9569   -3.6777   23.1658 C   0  0  0  0  0  0  0  0  0  0  0  0
    9.9106   -2.6900   22.9555 C   0  0  0  0  0  0  0  0  0  0  0  0
    9.8178   -1.8278   21.8771 C   0  0  0  0  0  0  0  0  0  0  0  0
    8.7465   -1.9680   21.0123 C   0  0  0  0  0  0  0  0  0  0  0  0
    7.7616   -2.9127   21.2329 C   0  0  0  0  0  0  0  0  0  0  0  0
    7.8171   -3.7620   22.3378 C   0  0  0  0  0  0  0  0  0  0  0  0
    6.7391   -4.6543   22.5644 N   0  0  0  0  0  0  0  0  0  0  0  0
    5.6047   -4.2215   23.3939 C   0  0  0  0  0  0  0  0  0  0  0  0
    4.8400   -5.4272   23.9285 C   0  0  0  0  0  0  0  0  0  0  0  0
    4.4693   -6.3526   22.8689 N   0  0  0  0  0  0  0  0  0  0  0  0
    5.6035   -6.7325   22.0135 C   0  0  0  0  0  0  0  0  0  0  0  0
    6.2568   -5.5013   21.4438 C   0  0  0  0  0  0  0  0  0  0  0  0
    3.2671   -6.9130   22.6277 C   0  0  0  0  0  0  0  0  0  0  0  0
    3.0769   -7.6827   21.6943 O   0  0  0  0  0  0  0  0  0  0  0  0
    2.1040   -6.5728   23.5401 C   0  0  0  0  0  0  0  0  0  0  0  0
    2.3916   -6.9119   24.8846 O   0  0  0  0  0  0  0  0  0  0  0  0
   10.8680   -0.7497   21.6502 C   0  0  0  0  0  0  0  0  0  0  0  0
   12.0146   -1.2167   20.8835 N   0  0  0  0  0  0  0  0  0  0  0  0
   13.1931   -1.1143   21.5271 C   0  0  0  0  0  0  0  0  0  0  0  0
   14.2865   -1.4595   21.0920 O   0  0  0  0  0  0  0  0  0  0  0  0
   12.9010   -0.4949   22.8385 C   0  0  0  0  0  0  0  0  0  0  0  0
   13.7453   -0.1345   23.8878 C   0  0  0  0  0  0  0  0  0  0  0  0
   13.2018    0.4498   25.0225 C   0  0  0  0  0  0  0  0  0  0  0  0
   11.8422    0.6724   25.1131 C   0  0  0  0  0  0  0  0  0  0  0  0
   11.0051    0.3129   24.0682 C   0  0  0  0  0  0  0  0  0  0  0  0
   11.5368   -0.2745   22.9230 C   0  0  0  0  0  0  0  0  0  0  0  0
  1  2  1  0
  2  3  2  0
  2  4  2  0
  2  5  1  0
  5  6  2  0
  6  7  1  0
  7  8  2  0
  8  9  1  0
  9 10  2  0
 10 11  1  0
 11 12  1  0
 12 13  1  0
 13 14  1  0
 14 15  1  0
 15 16  1  0
 14 17  1  0
 17 18  2  0
 17 19  1  0
 19 20  1  0
  7 21  1  0
 21 22  1  0
 22 23  1  0
 23 24  2  0
 23 25  1  0
 25 26  2  0
 26 27  1  0
 27 28  2  0
 28 29  1  0
 29 30  2  0
 10  5  1  0
 16 11  1  0
 30 21  1  0
 30 25  1  0
M  END
