CVD-0000737|dock_bobby27042020.12|mol2|7|dock2
     RDKit          3D

 21 23  0  0  0  0  0  0  0  0999 V2000
    9.6785   -1.2608   21.0032 N   0  0  0  0  0  0  0  0  0  0  0  0
    9.7029   -1.8126   22.2058 C   0  0  0  0  0  0  0  0  0  0  0  0
   10.4611   -2.7393   22.4999 O   0  0  0  0  0  0  0  0  0  0  0  0
    8.7362   -1.2396   23.2214 C   0  0  0  0  0  0  0  0  0  0  0  0
    8.2027   -2.3264   24.1266 C   0  0  0  0  0  0  0  0  0  0  0  0
    8.5016   -1.8289   25.5205 C   0  0  0  0  0  0  0  0  0  0  0  0
    8.1800   -2.6632   26.7366 C   0  0  0  0  0  0  0  0  0  0  0  0
    8.5364   -4.1124   26.5625 C   0  0  0  0  0  0  0  0  0  0  0  0
    7.8468   -5.2063   26.9668 C   0  0  0  0  0  0  0  0  0  0  0  0
    8.4033   -6.4270   26.6769 N   0  0  0  0  0  0  0  0  0  0  0  0
    9.5235   -6.2509   26.0477 C   0  0  0  0  0  0  0  0  0  0  0  0
    9.9623   -4.6119   25.7740 S   0  0  0  0  0  0  0  0  0  0  0  0
    9.0667   -0.6160   25.4996 C   0  0  0  0  0  0  0  0  0  0  0  0
    9.3067   -0.1395   24.0870 C   0  0  0  0  0  0  0  0  0  0  0  0
   10.7733    0.1168   23.7805 C   0  0  0  0  0  0  0  0  0  0  0  0
   11.1608    1.2152   23.0260 C   0  0  0  0  0  0  0  0  0  0  0  0
   12.4973    1.4445   22.7456 C   0  0  0  0  0  0  0  0  0  0  0  0
   13.4669    0.5755   23.2167 C   0  0  0  0  0  0  0  0  0  0  0  0
   13.0748   -0.5135   23.9640 C   0  0  0  0  0  0  0  0  0  0  0  0
   14.2832   -1.6152   24.5626 Cl  0  0  0  0  0  0  0  0  0  0  0  0
   11.7461   -0.7528   24.2501 C   0  0  0  0  0  0  0  0  0  0  0  0
  1  2  1  0
  2  3  2  0
  4  2  1  0
  4  5  1  0
  5  6  1  0
  6  7  1  0
  7  8  1  0
  8  9  2  0
  9 10  1  0
 10 11  2  0
 11 12  1  0
  6 13  2  0
 13 14  1  0
 14 15  1  0
 15 16  2  0
 16 17  1  0
 17 18  2  0
 18 19  1  0
 19 20  1  0
 19 21  2  0
 14  4  1  0
 21 15  1  0
 12  8  1  0
M  END
