CVD-0003135|dock_bobby27042020.89|mol2|1|dock1
     RDKit          3D

 17 19  0  0  0  0  0  0  0  0999 V2000
   12.3243    5.7805   24.1610 C   0  0  0  0  0  0  0  0  0  0  0  0
   12.1054    4.9614   22.8983 C   0  0  0  0  0  0  0  0  0  0  0  0
   12.9166    5.4965   21.7636 N   0  0  0  0  0  0  0  0  0  0  0  0
   13.8077    4.5066   21.2085 C   0  0  0  0  0  0  0  0  0  0  0  0
   13.5547    3.2735   21.9685 C   0  0  0  0  0  0  0  0  0  0  0  0
   12.5855    3.4822   23.0214 C   0  0  0  0  0  0  0  0  0  0  0  0
   11.4487    2.4968   22.8355 C   0  0  0  0  0  0  0  0  0  0  0  0
   10.3704    2.8841   22.4274 O   0  0  0  0  0  0  0  0  0  0  0  0
   11.6133    1.1946   23.1287 N   0  0  0  0  0  0  0  0  0  0  0  0
   12.8884    0.6784   23.6729 C   0  0  0  0  0  0  0  0  0  0  0  0
   13.3782   -0.5001   22.8415 C   0  0  0  0  0  0  0  0  0  0  0  0
   12.3093   -1.5909   22.7119 C   0  0  0  0  0  0  0  0  0  0  0  0
   11.0009   -1.0164   22.1701 C   0  0  0  0  0  0  0  0  0  0  0  0
    9.8018   -1.9683   22.3636 C   0  0  0  0  0  0  0  0  0  0  0  0
    9.2057   -1.6097   23.6481 N   0  0  0  0  0  0  0  0  0  0  0  0
    9.8934   -0.4682   24.2112 C   0  0  0  0  0  0  0  0  0  0  0  0
   10.5464    0.1975   22.9767 C   0  0  0  0  0  0  0  0  0  0  0  0
  2  1  1  0
  2  3  1  0
  3  4  1  0
  4  5  1  0
  5  6  1  0
  6  7  1  0
  7  8  2  0
  7  9  1  0
  9 10  1  0
 10 11  1  0
 11 12  1  0
 13 12  1  0
 13 14  1  0
 14 15  1  0
 15 16  1  0
 17 16  1  0
  6  2  1  0
 17  9  1  0
 17 13  1  0
M  END
