CVD-0002968|dock_bobby27042020.18|mol2|9|dock3
     RDKit          3D

 27 28  0  0  0  0  0  0  0  0999 V2000
    6.3331   -5.3721   20.9352 C   0  0  0  0  0  0  0  0  0  0  0  0
    7.1369   -4.1438   20.6242 C   0  0  0  0  0  0  0  0  0  0  0  0
    7.0209   -3.5444   19.5599 O   0  0  0  0  0  0  0  0  0  0  0  0
    7.9988   -3.7514   21.5687 N   0  0  0  0  0  0  0  0  0  0  0  0
    8.8517   -2.5879   21.3899 C   0  0  0  0  0  0  0  0  0  0  0  0
    8.0556   -1.3003   21.6518 C   0  0  0  0  0  0  0  0  0  0  0  0
    7.4166   -0.7309   20.4085 C   0  0  0  0  0  0  0  0  0  0  0  0
    6.0454   -0.8017   20.2186 C   0  0  0  0  0  0  0  0  0  0  0  0
    5.4527   -0.2791   19.0829 C   0  0  0  0  0  0  0  0  0  0  0  0
    6.2347    0.3282   18.1136 C   0  0  0  0  0  0  0  0  0  0  0  0
    5.6568    0.8453   16.9911 O   0  0  0  0  0  0  0  0  0  0  0  0
    7.6067    0.4074   18.2904 C   0  0  0  0  0  0  0  0  0  0  0  0
    8.1861   -0.1194   19.4310 C   0  0  0  0  0  0  0  0  0  0  0  0
   10.0544   -2.6485   22.3270 C   0  0  0  0  0  0  0  0  0  0  0  0
    9.9262   -3.0684   23.4740 O   0  0  0  0  0  0  0  0  0  0  0  0
   11.2167   -2.2269   21.8276 N   0  0  0  0  0  0  0  0  0  0  0  0
   12.4300   -2.2100   22.6066 C   0  0  0  0  0  0  0  0  0  0  0  0
   12.6876   -0.8957   23.2101 N   0  0  0  0  0  0  0  0  0  0  0  0
   11.4822   -0.3918   23.8749 C   0  0  0  0  0  0  0  0  0  0  0  0
   11.7652    0.9467   24.5316 C   0  0  0  0  0  0  0  0  0  0  0  0
   12.2373    1.9141   23.5385 N   0  0  0  0  0  0  0  0  0  0  0  0
   13.4087    1.4131   22.8129 C   0  0  0  0  0  0  0  0  0  0  0  0
   13.1051    0.0626   22.1899 C   0  0  0  0  0  0  0  0  0  0  0  0
   11.6594    3.1211   23.3601 C   0  0  0  0  0  0  0  0  0  0  0  0
   10.7005    3.4764   24.0337 O   0  0  0  0  0  0  0  0  0  0  0  0
   12.2465    4.0273   22.2949 C   0  0  0  0  0  0  0  0  0  0  0  0
   13.8936    4.5122   22.7183 Cl  0  0  0  0  0  0  0  0  0  0  0  0
  1  2  1  0
  2  3  2  0
  2  4  1  0
  4  5  1  0
  5  6  1  0
  6  7  1  0
  7  8  2  0
  8  9  1  0
  9 10  2  0
 10 11  1  0
 10 12  1  0
 12 13  2  0
  5 14  1  0
 14 15  2  0
 14 16  1  0
 16 17  1  0
 17 18  1  0
 18 19  1  0
 19 20  1  0
 20 21  1  0
 21 22  1  0
 22 23  1  0
 21 24  1  0
 24 25  2  0
 24 26  1  0
 26 27  1  0
 13  7  1  0
 23 18  1  0
M  END
