CVD-0001249|dock_bobby27042020.24|mol2|29|dock2
     RDKit          3D

 23 25  0  0  0  0  0  0  0  0999 V2000
    6.3532   -6.2246   21.9735 C   0  0  0  0  0  0  0  0  0  0  0  0
    7.4089   -5.1694   21.8652 C   0  0  0  0  0  0  0  0  0  0  0  0
    6.8810   -3.8537   22.1859 N   0  0  0  0  0  0  0  0  0  0  0  0
    6.7112   -2.8958   21.2581 C   0  0  0  0  0  0  0  0  0  0  0  0
    5.9639   -3.2712   20.2021 N   0  0  0  0  0  0  0  0  0  0  0  0
    5.7490   -2.3746   19.2354 C   0  0  0  0  0  0  0  0  0  0  0  0
    6.2515   -1.0801   19.2606 C   0  0  0  0  0  0  0  0  0  0  0  0
    7.0232   -0.6836   20.3479 C   0  0  0  0  0  0  0  0  0  0  0  0
    7.2652   -1.5989   21.3716 C   0  0  0  0  0  0  0  0  0  0  0  0
    8.0261   -1.2362   22.4617 N   0  0  0  0  0  0  0  0  0  0  0  0
    9.0905   -0.2545   22.3861 C   0  0  0  0  0  0  0  0  0  0  0  0
   10.2638   -0.5523   23.2881 C   0  0  0  0  0  0  0  0  0  0  0  0
   10.2891   -0.0889   24.5971 C   0  0  0  0  0  0  0  0  0  0  0  0
   11.3639   -0.3554   25.4305 C   0  0  0  0  0  0  0  0  0  0  0  0
   12.4392   -1.0987   24.9555 C   0  0  0  0  0  0  0  0  0  0  0  0
   13.7072   -1.5236   25.6368 C   0  0  0  0  0  0  0  0  0  0  0  0
   14.3627   -2.2688   24.5840 N   0  0  0  0  0  0  0  0  0  0  0  0
   13.6792   -2.3183   23.4259 C   0  0  0  0  0  0  0  0  0  0  0  0
   14.0494   -2.9005   22.4116 O   0  0  0  0  0  0  0  0  0  0  0  0
   12.4260   -1.5660   23.6537 C   0  0  0  0  0  0  0  0  0  0  0  0
   11.3427   -1.2952   22.8197 C   0  0  0  0  0  0  0  0  0  0  0  0
    5.9815   -0.1605   18.1831 C   0  0  0  0  0  0  0  0  0  0  0  0
    5.7892    0.5511   17.3105 N   0  0  0  0  0  0  0  0  0  0  0  0
  1  2  1  0
  2  3  1  0
  3  4  1  0
  4  5  2  0
  5  6  1  0
  6  7  2  0
  7  8  1  0
  8  9  2  0
  9 10  1  0
 10 11  1  0
 11 12  1  0
 12 13  2  0
 13 14  1  0
 14 15  2  0
 15 16  1  0
 16 17  1  0
 17 18  1  0
 18 19  2  0
 18 20  1  0
 20 21  2  0
  7 22  1  0
 22 23  3  0
  9  4  1  0
 21 12  1  0
 20 15  1  0
M  END
