CVD-0003445|dock_bobby27042020.45|mol2|19|dock1
     RDKit          3D

 21 23  0  0  0  0  0  0  0  0999 V2000
    8.7623   -0.7415   18.4107 F   0  0  0  0  0  0  0  0  0  0  0  0
    7.6306   -0.0880   18.7085 C   0  0  0  0  0  0  0  0  0  0  0  0
    6.8678    0.0979   17.6584 N   0  0  0  0  0  0  0  0  0  0  0  0
    5.6794    0.6313   17.8417 C   0  0  0  0  0  0  0  0  0  0  0  0
    5.2035    1.0321   19.1058 C   0  0  0  0  0  0  0  0  0  0  0  0
    3.9507    1.5649   19.2485 N   0  0  0  0  0  0  0  0  0  0  0  0
    3.6017    1.9140   20.4747 C   0  0  0  0  0  0  0  0  0  0  0  0
    4.4305    1.7631   21.5720 C   0  0  0  0  0  0  0  0  0  0  0  0
    5.6463    1.2541   21.4891 N   0  0  0  0  0  0  0  0  0  0  0  0
    6.0407    0.8801   20.2391 C   0  0  0  0  0  0  0  0  0  0  0  0
    7.3312    0.3138   20.0072 C   0  0  0  0  0  0  0  0  0  0  0  0
    8.1513    0.2294   21.1673 N   0  0  0  0  0  0  0  0  0  0  0  0
    9.0733   -0.7194   21.4668 C   0  0  0  0  0  0  0  0  0  0  0  0
    9.3714   -1.6909   20.7816 O   0  0  0  0  0  0  0  0  0  0  0  0
    9.7628   -0.4759   22.7908 C   0  0  0  0  0  0  0  0  0  0  0  0
   11.0101   -1.3406   22.9985 C   0  0  0  0  0  0  0  0  0  0  0  0
   12.1098   -0.9870   21.9764 C   0  0  0  0  0  0  0  0  0  0  0  0
   13.3941   -1.7822   22.2033 C   0  0  0  0  0  0  0  0  0  0  0  0
   13.8962   -1.6286   23.6332 C   0  0  0  0  0  0  0  0  0  0  0  0
   12.8178   -2.0092   24.6376 C   0  0  0  0  0  0  0  0  0  0  0  0
   11.5529   -1.1828   24.4290 C   0  0  0  0  0  0  0  0  0  0  0  0
  1  2  1  0
  2  3  2  0
  3  4  1  0
  4  5  2  0
  5  6  1  0
  6  7  2  0
  7  8  1  0
  8  9  2  0
  9 10  1  0
 10 11  2  0
 11 12  1  0
 12 13  1  0
 13 14  2  0
 13 15  1  0
 15 16  1  0
 16 17  1  0
 17 18  1  0
 18 19  1  0
 19 20  1  0
 20 21  1  0
 11  2  1  0
 21 16  1  0
 10  5  1  0
M  END
