CVD-0002514|dock_bobby27042020.5|mol2|24|dock1
     RDKit          3D

 32 36  0  0  0  0  0  0  0  0999 V2000
   10.2113   -4.7778   24.4155 O   0  0  0  0  0  0  0  0  0  0  0  0
    9.2132   -4.9290   23.5068 C   0  0  0  0  0  0  0  0  0  0  0  0
    8.5587   -6.1504   23.4010 C   0  0  0  0  0  0  0  0  0  0  0  0
    7.5395   -6.3104   22.4768 C   0  0  0  0  0  0  0  0  0  0  0  0
    7.1736   -5.2595   21.6624 C   0  0  0  0  0  0  0  0  0  0  0  0
    7.8250   -4.0418   21.7668 C   0  0  0  0  0  0  0  0  0  0  0  0
    8.8541   -3.8571   22.6880 C   0  0  0  0  0  0  0  0  0  0  0  0
    9.5809   -2.5249   22.8209 C   0  0  0  0  0  0  0  0  0  0  0  0
    9.7027   -1.8882   21.5174 N   0  0  0  0  0  0  0  0  0  0  0  0
    8.7199   -1.1813   20.9176 C   0  0  0  0  0  0  0  0  0  0  0  0
    7.5145   -0.9603   21.4106 N   0  0  0  0  0  0  0  0  0  0  0  0
    6.8825   -0.1950   20.4340 C   0  0  0  0  0  0  0  0  0  0  0  0
    5.5946    0.3379   20.3965 C   0  0  0  0  0  0  0  0  0  0  0  0
    5.2094    1.0749   19.2865 C   0  0  0  0  0  0  0  0  0  0  0  0
    6.0766    1.2840   18.2316 C   0  0  0  0  0  0  0  0  0  0  0  0
    7.3600    0.7616   18.2526 C   0  0  0  0  0  0  0  0  0  0  0  0
    7.7469    0.0230   19.3643 C   0  0  0  0  0  0  0  0  0  0  0  0
    8.9208   -0.6218   19.7011 N   0  0  0  0  0  0  0  0  0  0  0  0
    8.7988   -1.5651   23.7322 C   0  0  0  0  0  0  0  0  0  0  0  0
    7.7148   -1.8926   24.1758 O   0  0  0  0  0  0  0  0  0  0  0  0
    9.3518   -0.3710   24.0143 N   0  0  0  0  0  0  0  0  0  0  0  0
    8.6441    0.6776   24.7520 C   0  0  0  0  0  0  0  0  0  0  0  0
    8.6497    1.9752   23.9654 C   0  0  0  0  0  0  0  0  0  0  0  0
   10.0267    2.3935   23.6865 N   0  0  0  0  0  0  0  0  0  0  0  0
   10.0386    3.6652   22.9622 C   0  0  0  0  0  0  0  0  0  0  0  0
   11.4308    4.1814   22.7555 C   0  0  0  0  0  0  0  0  0  0  0  0
   12.2139    4.0401   21.6301 C   0  0  0  0  0  0  0  0  0  0  0  0
   13.4744    4.6615   21.8029 C   0  0  0  0  0  0  0  0  0  0  0  0
   13.6246    5.2410   23.0055 C   0  0  0  0  0  0  0  0  0  0  0  0
   12.2354    5.0539   23.9784 S   0  0  0  0  0  0  0  0  0  0  0  0
   10.6918    1.3537   22.9055 C   0  0  0  0  0  0  0  0  0  0  0  0
   10.7155    0.0412   23.6675 C   0  0  0  0  0  0  0  0  0  0  0  0
  1  2  1  0
  2  3  2  0
  3  4  1  0
  4  5  2  0
  5  6  1  0
  6  7  2  0
  7  8  1  0
  8  9  1  0
  9 10  1  0
 10 11  2  0
 11 12  1  0
 12 13  2  0
 13 14  1  0
 14 15  2  0
 15 16  1  0
 16 17  2  0
 17 18  1  0
  8 19  1  0
 19 20  2  0
 19 21  1  0
 21 22  1  0
 22 23  1  0
 23 24  1  0
 24 25  1  0
 25 26  1  0
 26 27  2  0
 27 28  1  0
 28 29  2  0
 29 30  1  0
 24 31  1  0
 31 32  1  0
  7  2  1  0
 18 10  1  0
 32 21  1  0
 17 12  1  0
 30 26  1  0
M  END
