CVD-0001820|dock_bobby27042020.80|mol2|2|dock1
     RDKit          3D

 31 34  0  0  0  0  0  0  0  0999 V2000
    6.4767   -1.1919   23.4806 C   0  0  0  0  0  0  0  0  0  0  0  0
    7.9087   -1.7191   23.6391 C   0  0  0  0  0  0  0  0  0  0  0  0
    8.6270   -0.6805   24.5090 C   0  0  0  0  0  0  0  0  0  0  0  0
    8.5954   -1.7065   22.2438 C   0  0  0  0  0  0  0  0  0  0  0  0
    8.8116   -0.4102   21.5786 N   0  0  0  0  0  0  0  0  0  0  0  0
    7.9881    0.1780   20.6379 C   0  0  0  0  0  0  0  0  0  0  0  0
    8.4885    1.3337   20.2699 N   0  0  0  0  0  0  0  0  0  0  0  0
    9.6830    1.5271   20.9442 N   0  0  0  0  0  0  0  0  0  0  0  0
    9.8827    0.4707   21.6977 C   0  0  0  0  0  0  0  0  0  0  0  0
   11.0430    0.3776   22.4465 N   0  0  0  0  0  0  0  0  0  0  0  0
   11.5258    1.4962   23.3145 C   0  0  0  0  0  0  0  0  0  0  0  0
   12.9755    1.7270   22.9713 C   0  0  0  0  0  0  0  0  0  0  0  0
   13.8181    0.4700   23.1436 C   0  0  0  0  0  0  0  0  0  0  0  0
   13.2699   -0.6364   22.2678 C   0  0  0  0  0  0  0  0  0  0  0  0
   11.7712   -0.9043   22.5805 C   0  0  0  0  0  0  0  0  0  0  0  0
   14.0610   -1.9327   22.2753 C   0  0  0  0  0  0  0  0  0  0  0  0
   14.2912   -2.4715   23.4619 N   0  0  0  0  0  0  0  0  0  0  0  0
   14.4580   -2.4385   21.2232 O   0  0  0  0  0  0  0  0  0  0  0  0
    6.6857   -0.2418   19.9882 C   0  0  0  0  0  0  0  0  0  0  0  0
    5.5682    0.7515   20.3193 C   0  0  0  0  0  0  0  0  0  0  0  0
    4.9533    1.0726   18.9590 C   0  0  0  0  0  0  0  0  0  0  0  0
    5.9209    0.6270   17.9498 C   0  0  0  0  0  0  0  0  0  0  0  0
    6.0144    0.9028   16.7578 O   0  0  0  0  0  0  0  0  0  0  0  0
    6.7616   -0.2203   18.5411 N   0  0  0  0  0  0  0  0  0  0  0  0
    7.9116   -3.0998   24.3418 C   0  0  0  0  0  0  0  0  0  0  0  0
    8.2641   -4.2530   23.6449 C   0  0  0  0  0  0  0  0  0  0  0  0
    8.2690   -5.4888   24.2715 C   0  0  0  0  0  0  0  0  0  0  0  0
    7.9246   -5.6075   25.5992 C   0  0  0  0  0  0  0  0  0  0  0  0
    7.5686   -4.4832   26.3200 C   0  0  0  0  0  0  0  0  0  0  0  0
    7.5705   -3.2680   25.6788 C   0  0  0  0  0  0  0  0  0  0  0  0
    7.2160   -2.1895   26.4134 F   0  0  0  0  0  0  0  0  0  0  0  0
  1  2  1  0
  2  3  1  0
  2  4  1  0
  4  5  1  0
  5  6  1  0
  6  7  2  0
  7  8  1  0
  8  9  2  0
  9 10  1  0
 10 11  1  0
 11 12  1  0
 12 13  1  0
 13 14  1  0
 14 15  1  0
 14 16  1  0
 16 17  1  0
 16 18  2  0
  6 19  1  0
 19 20  1  0
 20 21  1  0
 21 22  1  0
 22 23  2  0
 22 24  1  0
  2 25  1  0
 25 26  2  0
 26 27  1  0
 27 28  2  0
 28 29  1  0
 29 30  2  0
 30 31  1  0
  9  5  1  0
 15 10  1  0
 24 19  1  0
 30 25  1  0
M  END
