CVD-0003961|dock_bobby27042020.0|mol2|19|dock2
     RDKit          3D

 22 23  0  0  0  0  0  0  0  0999 V2000
   14.1648    6.4326   22.0994 C   0  0  0  0  0  0  0  0  0  0  0  0
   13.7205    5.0281   21.8143 C   0  0  0  0  0  0  0  0  0  0  0  0
   14.3886    4.2627   21.1262 O   0  0  0  0  0  0  0  0  0  0  0  0
   12.5645    4.6542   22.3663 N   0  0  0  0  0  0  0  0  0  0  0  0
   12.0093    3.3190   22.1968 C   0  0  0  0  0  0  0  0  0  0  0  0
   12.7474    2.2891   23.0328 C   0  0  0  0  0  0  0  0  0  0  0  0
   12.3503    0.8717   22.6977 C   0  0  0  0  0  0  0  0  0  0  0  0
   13.2904   -0.0474   22.2592 C   0  0  0  0  0  0  0  0  0  0  0  0
   12.9174   -1.3461   21.9566 C   0  0  0  0  0  0  0  0  0  0  0  0
   11.5961   -1.7369   22.0925 C   0  0  0  0  0  0  0  0  0  0  0  0
   10.6388   -0.8364   22.5317 C   0  0  0  0  0  0  0  0  0  0  0  0
    9.1950   -1.2532   22.6798 C   0  0  0  0  0  0  0  0  0  0  0  0
    8.2418   -0.2114   22.2708 N   0  0  0  0  0  0  0  0  0  0  0  0
    6.8688   -0.6240   22.5763 C   0  0  0  0  0  0  0  0  0  0  0  0
    5.8927    0.4717   22.1900 C   0  0  0  0  0  0  0  0  0  0  0  0
    6.0199    0.7916   20.7666 N   0  0  0  0  0  0  0  0  0  0  0  0
    7.3976    1.1512   20.4163 C   0  0  0  0  0  0  0  0  0  0  0  0
    8.3532    0.0500   20.8380 C   0  0  0  0  0  0  0  0  0  0  0  0
    4.9674    0.7761   19.9128 C   0  0  0  0  0  0  0  0  0  0  0  0
    5.2203    1.1392   18.4791 C   0  0  0  0  0  0  0  0  0  0  0  0
    3.8440    0.4852   20.3080 O   0  0  0  0  0  0  0  0  0  0  0  0
   11.0292    0.4630   22.8297 C   0  0  0  0  0  0  0  0  0  0  0  0
  1  2  1  0
  2  3  2  0
  2  4  1  0
  4  5  1  0
  5  6  1  0
  6  7  1  0
  7  8  2  0
  8  9  1  0
  9 10  2  0
 10 11  1  0
 11 12  1  0
 12 13  1  0
 13 14  1  0
 14 15  1  0
 15 16  1  0
 16 17  1  0
 17 18  1  0
 16 19  1  0
 19 20  1  0
 19 21  2  0
 11 22  2  0
 22  7  1  0
 18 13  1  0
M  END
