CVD-0001409|dock_bobby27042020.81|mol2|12|dock1
     RDKit          3D

 17 18  0  0  0  0  0  0  0  0999 V2000
   14.0259   -0.9553   23.5746 C   0  0  0  0  0  0  0  0  0  0  0  0
   12.7902   -0.6037   22.8792 N   0  0  0  0  0  0  0  0  0  0  0  0
   12.0824   -1.7506   22.3077 C   0  0  0  0  0  0  0  0  0  0  0  0
   10.6864   -1.9240   22.8906 C   0  0  0  0  0  0  0  0  0  0  0  0
    9.6801   -0.5821   22.3580 S   0  0  0  0  0  0  0  0  0  0  0  0
    9.3624   -0.7793   20.9681 O   0  0  0  0  0  0  0  0  0  0  0  0
    8.5814   -0.4403   23.2763 O   0  0  0  0  0  0  0  0  0  0  0  0
   10.7805    0.7999   22.5164 C   0  0  0  0  0  0  0  0  0  0  0  0
   10.1983    2.0498   22.3954 C   0  0  0  0  0  0  0  0  0  0  0  0
   10.9703    3.1861   22.5154 C   0  0  0  0  0  0  0  0  0  0  0  0
   12.3261    3.0506   22.7567 C   0  0  0  0  0  0  0  0  0  0  0  0
   12.9178    1.8035   22.8793 C   0  0  0  0  0  0  0  0  0  0  0  0
   12.1552    0.6401   22.7614 C   0  0  0  0  0  0  0  0  0  0  0  0
   13.3263    4.4966   22.9331 S   0  0  0  0  0  0  0  0  0  0  0  0
   13.0680    5.4490   21.6723 N   0  0  0  0  0  0  0  0  0  0  0  0
   14.6951    4.0794   22.8753 O   0  0  0  0  0  0  0  0  0  0  0  0
   12.8649    5.1968   24.0941 O   0  0  0  0  0  0  0  0  0  0  0  0
  1  2  1  0
  2  3  1  0
  3  4  1  0
  4  5  1  0
  5  6  2  0
  5  7  2  0
  5  8  1  0
  8  9  2  0
  9 10  1  0
 10 11  2  0
 11 12  1  0
 12 13  2  0
 11 14  1  0
 14 15  1  0
 14 16  2  0
 14 17  2  0
 13  2  1  0
 13  8  1  0
M  END
