CVD-0002142|dock_bobby27042020.35|mol2|28|dock2
     RDKit          3D

 17 18  0  0  0  0  0  0  0  0999 V2000
   13.4328   -2.8781   25.2251 C   0  0  0  0  0  0  0  0  0  0  0  0
   12.3594   -2.7955   24.1790 C   0  0  0  0  0  0  0  0  0  0  0  0
   11.6237   -3.7551   23.9764 O   0  0  0  0  0  0  0  0  0  0  0  0
   12.1999   -1.6460   23.4696 N   0  0  0  0  0  0  0  0  0  0  0  0
   11.1527   -1.5427   22.4667 C   0  0  0  0  0  0  0  0  0  0  0  0
   10.3170   -0.3237   22.7003 C   0  0  0  0  0  0  0  0  0  0  0  0
   11.1908    0.8577   22.7306 N   0  0  0  0  0  0  0  0  0  0  0  0
   12.1914    0.7691   23.8046 C   0  0  0  0  0  0  0  0  0  0  0  0
   13.0388   -0.4489   23.5841 C   0  0  0  0  0  0  0  0  0  0  0  0
   10.5024    2.2951   22.4386 S   0  0  0  0  0  0  0  0  0  0  0  0
    9.6824    2.6140   23.5650 O   0  0  0  0  0  0  0  0  0  0  0  0
    9.9187    2.2308   21.1356 O   0  0  0  0  0  0  0  0  0  0  0  0
   11.7719    3.4845   22.3754 C   0  0  0  0  0  0  0  0  0  0  0  0
   12.3074    4.0499   23.5022 C   0  0  0  0  0  0  0  0  0  0  0  0
   13.3592    5.0522   23.2528 C   0  0  0  0  0  0  0  0  0  0  0  0
   13.5861    5.1189   21.4638 S   0  0  0  0  0  0  0  0  0  0  0  0
   12.3846    3.9824   21.2139 C   0  0  0  0  0  0  0  0  0  0  0  0
  1  2  1  0
  2  3  2  0
  2  4  1  0
  4  5  1  0
  5  6  1  0
  6  7  1  0
  7  8  1  0
  8  9  1  0
  7 10  1  0
 10 11  2  0
 10 12  2  0
 10 13  1  0
 13 14  2  0
 14 15  1  0
 15 16  1  0
 16 17  2  0
  9  4  1  0
 17 13  1  0
M  END
