CVD-0003323|dock_bobby27042020.88|mol2|21|dock2
     RDKit          3D

 22 23  0  0  0  0  0  0  0  0999 V2000
    4.1273    2.0837   18.7682 Cl  0  0  0  0  0  0  0  0  0  0  0  0
    5.2677    1.0067   17.9517 C   0  0  0  0  0  0  0  0  0  0  0  0
    6.4583    0.6560   18.8047 C   0  0  0  0  0  0  0  0  0  0  0  0
    7.5889    0.5980   18.3707 O   0  0  0  0  0  0  0  0  0  0  0  0
    6.1677    0.3734   20.2625 C   0  0  0  0  0  0  0  0  0  0  0  0
    7.1667   -0.5015   20.8732 N   0  0  0  0  0  0  0  0  0  0  0  0
    8.4034    0.0955   21.1306 C   0  0  0  0  0  0  0  0  0  0  0  0
    8.5326    1.2698   20.8099 O   0  0  0  0  0  0  0  0  0  0  0  0
    9.4140   -0.6376   21.7033 N   0  0  0  0  0  0  0  0  0  0  0  0
   10.7423   -0.2689   22.0424 C   0  0  0  0  0  0  0  0  0  0  0  0
   11.1667    1.0442   22.2422 C   0  0  0  0  0  0  0  0  0  0  0  0
   12.4879    1.3107   22.5621 C   0  0  0  0  0  0  0  0  0  0  0  0
   13.4034    0.2821   22.6953 C   0  0  0  0  0  0  0  0  0  0  0  0
   12.9750   -1.0114   22.5042 C   0  0  0  0  0  0  0  0  0  0  0  0
   14.1140   -2.3179   22.6727 Cl  0  0  0  0  0  0  0  0  0  0  0  0
   11.6653   -1.3009   22.1819 C   0  0  0  0  0  0  0  0  0  0  0  0
    6.7568   -1.8598   21.1159 C   0  0  0  0  0  0  0  0  0  0  0  0
    6.1715   -2.6652   20.1536 C   0  0  0  0  0  0  0  0  0  0  0  0
    5.8026   -3.9261   20.3935 N   0  0  0  0  0  0  0  0  0  0  0  0
    6.0406   -4.3722   21.6220 C   0  0  0  0  0  0  0  0  0  0  0  0
    6.5997   -3.7035   22.6245 N   0  0  0  0  0  0  0  0  0  0  0  0
    6.9533   -2.4440   22.3558 C   0  0  0  0  0  0  0  0  0  0  0  0
  1  2  1  0
  2  3  1  0
  3  4  2  0
  3  5  1  0
  5  6  1  0
  6  7  1  0
  7  8  2  0
  7  9  1  0
  9 10  1  0
 10 11  2  0
 11 12  1  0
 12 13  2  0
 13 14  1  0
 14 15  1  0
 14 16  2  0
  6 17  1  0
 17 18  2  0
 18 19  1  0
 19 20  2  0
 20 21  1  0
 21 22  2  0
 16 10  1  0
 22 17  1  0
M  END
