CVD-0004006|dock_bobby27042020.43|mol2|25|dock3
     RDKit          3D

 18 19  0  0  0  0  0  0  0  0999 V2000
   13.6088   -1.7183   20.6936 N   0  0  0  0  0  0  0  0  0  0  0  0
   13.5725   -1.3843   22.2589 S   0  0  0  0  0  0  0  0  0  0  0  0
   14.3317   -0.1856   22.4540 O   0  0  0  0  0  0  0  0  0  0  0  0
   13.9626   -2.5728   22.9561 O   0  0  0  0  0  0  0  0  0  0  0  0
   11.8975   -1.0281   22.7210 C   0  0  0  0  0  0  0  0  0  0  0  0
   11.0634   -2.1370   22.7506 C   0  0  0  0  0  0  0  0  0  0  0  0
    9.7161   -1.9686   23.0170 C   0  0  0  0  0  0  0  0  0  0  0  0
    9.2054   -0.7118   23.2494 C   0  0  0  0  0  0  0  0  0  0  0  0
   10.0399    0.3921   23.2551 C   0  0  0  0  0  0  0  0  0  0  0  0
   11.4106    0.2581   23.0298 C   0  0  0  0  0  0  0  0  0  0  0  0
   12.2001    1.5335   23.1421 C   0  0  0  0  0  0  0  0  0  0  0  0
   13.1987    1.5531   23.8555 O   0  0  0  0  0  0  0  0  0  0  0  0
   11.8279    2.6318   22.4566 N   0  0  0  0  0  0  0  0  0  0  0  0
   12.5362    3.8958   22.5595 C   0  0  0  0  0  0  0  0  0  0  0  0
   14.0499    3.8854   22.3672 C   0  0  0  0  0  0  0  0  0  0  0  0
   13.1764    4.4705   21.3000 C   0  0  0  0  0  0  0  0  0  0  0  0
   11.9682    4.8433   23.5462 C   0  0  0  0  0  0  0  0  0  0  0  0
   11.5834    5.6129   24.2909 N   0  0  0  0  0  0  0  0  0  0  0  0
  1  2  1  0
  2  3  2  0
  2  4  2  0
  2  5  1  0
  5  6  2  0
  6  7  1  0
  7  8  2  0
  8  9  1  0
  9 10  2  0
 10 11  1  0
 11 12  2  0
 11 13  1  0
 13 14  1  0
 14 15  1  0
 15 16  1  0
 14 17  1  0
 17 18  3  0
 10  5  1  0
 16 14  1  0
M  END
