CVD-0000875|dock_bobby27042020.54|mol2|28|dock3
     RDKit          3D

 29 32  0  0  0  0  0  0  0  0999 V2000
    7.1227    1.9605   26.8873 Cl  0  0  0  0  0  0  0  0  0  0  0  0
    8.3481    0.8370   26.2845 C   0  0  0  0  0  0  0  0  0  0  0  0
    8.5188    0.9711   24.7833 C   0  0  0  0  0  0  0  0  0  0  0  0
    8.0212    1.9345   24.2152 O   0  0  0  0  0  0  0  0  0  0  0  0
    9.2023   -0.0098   24.1303 N   0  0  0  0  0  0  0  0  0  0  0  0
   10.0305   -1.0456   24.7770 C   0  0  0  0  0  0  0  0  0  0  0  0
   11.2230   -1.3759   23.9217 C   0  0  0  0  0  0  0  0  0  0  0  0
   12.5016   -1.5119   24.4564 C   0  0  0  0  0  0  0  0  0  0  0  0
   13.5922   -1.7413   23.6348 C   0  0  0  0  0  0  0  0  0  0  0  0
   13.4141   -1.8366   22.2730 C   0  0  0  0  0  0  0  0  0  0  0  0
   12.1465   -1.7035   21.7249 C   0  0  0  0  0  0  0  0  0  0  0  0
   11.0368   -1.4722   22.5369 C   0  0  0  0  0  0  0  0  0  0  0  0
    9.6331   -1.2872   22.0192 C   0  0  0  0  0  0  0  0  0  0  0  0
    8.9960   -0.0768   22.6756 C   0  0  0  0  0  0  0  0  0  0  0  0
    7.5530    0.0964   22.1633 C   0  0  0  0  0  0  0  0  0  0  0  0
    6.5886   -0.1663   22.8752 O   0  0  0  0  0  0  0  0  0  0  0  0
    7.4527    0.5820   20.8982 N   0  0  0  0  0  0  0  0  0  0  0  0
    6.3185    0.8963   20.1072 C   0  0  0  0  0  0  0  0  0  0  0  0
    6.4617    0.8991   18.7254 C   0  0  0  0  0  0  0  0  0  0  0  0
    5.3687    1.2045   17.9394 C   0  0  0  0  0  0  0  0  0  0  0  0
    4.1648    1.5022   18.4265 N   0  0  0  0  0  0  0  0  0  0  0  0
    4.0370    1.4953   19.7530 C   0  0  0  0  0  0  0  0  0  0  0  0
    5.0645    1.2030   20.6287 C   0  0  0  0  0  0  0  0  0  0  0  0
    8.8139   -2.5465   22.3044 C   0  0  0  0  0  0  0  0  0  0  0  0
    7.5527   -2.6978   21.7437 C   0  0  0  0  0  0  0  0  0  0  0  0
    6.7968   -3.8329   21.9839 C   0  0  0  0  0  0  0  0  0  0  0  0
    7.2920   -4.8370   22.7870 C   0  0  0  0  0  0  0  0  0  0  0  0
    8.5425   -4.7044   23.3505 C   0  0  0  0  0  0  0  0  0  0  0  0
    9.2981   -3.5681   23.1131 C   0  0  0  0  0  0  0  0  0  0  0  0
  1  2  1  0
  2  3  1  0
  3  4  2  0
  3  5  1  0
  5  6  1  0
  6  7  1  0
  7  8  2  0
  8  9  1  0
  9 10  2  0
 10 11  1  0
 11 12  2  0
 12 13  1  0
 13 14  1  0
 14 15  1  0
 15 16  2  0
 15 17  1  0
 17 18  1  0
 18 19  2  0
 19 20  1  0
 20 21  2  0
 21 22  1  0
 22 23  2  0
 13 24  1  0
 24 25  2  0
 25 26  1  0
 26 27  2  0
 27 28  1  0
 28 29  2  0
 14  5  1  0
 23 18  1  0
 29 24  1  0
 12  7  1  0
M  END
