CVD-0000131|dock_bobby27042020.71|mol2|21|dock1
     RDKit          3D

 24 25  0  0  0  0  0  0  0  0999 V2000
    6.0535   -2.3523   20.6964 C   0  0  0  0  0  0  0  0  0  0  0  0
    6.2990   -0.9936   20.0452 C   0  0  0  0  0  0  0  0  0  0  0  0
    5.2134   -0.7006   18.9947 C   0  0  0  0  0  0  0  0  0  0  0  0
    5.5275    0.6001   18.1845 C   0  0  0  0  0  0  0  0  0  0  0  0
    6.8691    0.5475   17.6246 N   0  0  0  0  0  0  0  0  0  0  0  0
    7.8789    0.3842   18.6681 C   0  0  0  0  0  0  0  0  0  0  0  0
    7.6817   -0.9354   19.3982 C   0  0  0  0  0  0  0  0  0  0  0  0
    8.7717   -1.1276   20.3700 N   0  0  0  0  0  0  0  0  0  0  0  0
    9.3190    0.0157   21.1052 C   0  0  0  0  0  0  0  0  0  0  0  0
    8.3935    0.9922   21.5058 O   0  0  0  0  0  0  0  0  0  0  0  0
   10.2702   -0.4559   22.2050 C   0  0  0  0  0  0  0  0  0  0  0  0
    9.5310   -1.3215   23.2325 C   0  0  0  0  0  0  0  0  0  0  0  0
   10.1407   -2.7022   23.4079 C   0  0  0  0  0  0  0  0  0  0  0  0
    9.5206   -3.4054   24.5341 N   0  0  0  0  0  0  0  0  0  0  0  0
    9.9697   -4.9228   24.8702 S   0  0  0  0  0  0  0  0  0  0  0  0
    9.4212   -5.3162   26.4938 C   0  0  0  0  0  0  0  0  0  0  0  0
   11.3998   -4.9821   24.9719 O   0  0  0  0  0  0  0  0  0  0  0  0
    9.2359   -5.8300   24.0353 O   0  0  0  0  0  0  0  0  0  0  0  0
   11.0308    0.6778   22.9327 C   0  0  0  0  0  0  0  0  0  0  0  0
   12.2101    0.1958   23.7776 C   0  0  0  0  0  0  0  0  0  0  0  0
   12.9060    1.3628   24.4780 C   0  0  0  0  0  0  0  0  0  0  0  0
   13.3559    2.4131   23.4813 C   0  0  0  0  0  0  0  0  0  0  0  0
   12.2037    2.8953   22.6240 C   0  0  0  0  0  0  0  0  0  0  0  0
   11.4984    1.7348   21.9294 C   0  0  0  0  0  0  0  0  0  0  0  0
  1  2  1  0
  2  3  1  0
  3  4  1  0
  4  5  1  0
  5  6  1  0
  6  7  1  0
  7  8  1  0
  8  9  1  0
  9 10  1  0
  9 11  1  0
 11 12  1  0
 12 13  1  0
 13 14  1  0
 14 15  1  0
 15 16  1  0
 15 17  1  0
 15 18  1  0
 11 19  1  0
 19 20  1  0
 20 21  1  0
 21 22  1  0
 22 23  1  0
 23 24  1  0
  7  2  1  0
 24 19  1  0
M  END
