CVD-0000024|dock_bobby27042020.28|mol2|39|dock3
     RDKit          3D

 37 40  0  0  0  0  0  0  0  0999 V2000
    5.1442    1.5191   18.1649 C   0  0  0  0  0  0  0  0  0  0  0  0
    6.1864    0.9361   19.0879 C   0  0  0  0  0  0  0  0  0  0  0  0
    7.1223    0.0298   18.6234 C   0  0  0  0  0  0  0  0  0  0  0  0
    8.0461   -0.4786   19.5096 C   0  0  0  0  0  0  0  0  0  0  0  0
    8.0941   -0.1383   20.8025 N   0  0  0  0  0  0  0  0  0  0  0  0
    7.2070    0.7491   21.2632 C   0  0  0  0  0  0  0  0  0  0  0  0
    6.2279    1.2896   20.4286 C   0  0  0  0  0  0  0  0  0  0  0  0
    7.3523    1.0794   22.6435 N   0  0  0  0  0  0  0  0  0  0  0  0
    6.5507    0.2963   23.6058 C   0  0  0  0  0  0  0  0  0  0  0  0
    7.3738   -0.8136   24.2419 C   0  0  0  0  0  0  0  0  0  0  0  0
    8.0444   -1.7600   23.2476 C   0  0  0  0  0  0  0  0  0  0  0  0
    8.5622   -3.0716   23.8923 C   0  0  0  0  0  0  0  0  0  0  0  0
    7.4916   -3.7766   23.1945 N   0  0  0  0  0  0  0  0  0  0  0  0
    7.0562   -2.6126   22.4241 C   0  0  0  0  0  0  0  0  0  0  0  0
    7.3457   -5.0900   22.8925 C   0  0  0  0  0  0  0  0  0  0  0  0
    8.3199   -5.8310   23.0130 O   0  0  0  0  0  0  0  0  0  0  0  0
    6.0634   -5.6925   22.4141 C   0  0  0  0  0  0  0  0  0  0  0  0
    5.8939   -6.9286   22.0176 C   0  0  0  0  0  0  0  0  0  0  0  0
    8.1633    2.0939   23.1739 C   0  0  0  0  0  0  0  0  0  0  0  0
    8.3382    2.1505   24.3845 O   0  0  0  0  0  0  0  0  0  0  0  0
    8.7413    3.0326   22.3505 N   0  0  0  0  0  0  0  0  0  0  0  0
    9.6215    4.0682   22.8155 C   0  0  0  0  0  0  0  0  0  0  0  0
    9.1520    5.2486   23.4166 C   0  0  0  0  0  0  0  0  0  0  0  0
    7.7124    5.4845   23.7697 C   0  0  0  0  0  0  0  0  0  0  0  0
    9.9996    6.2299   23.7295 N   0  0  0  0  0  0  0  0  0  0  0  0
   11.3118    6.0442   23.5634 C   0  0  0  0  0  0  0  0  0  0  0  0
   11.8782    4.8861   23.0518 C   0  0  0  0  0  0  0  0  0  0  0  0
   13.3748    4.7720   22.9258 C   0  0  0  0  0  0  0  0  0  0  0  0
   11.0012    3.8669   22.6632 C   0  0  0  0  0  0  0  0  0  0  0  0
   11.5328    2.5685   22.0869 C   0  0  0  0  0  0  0  0  0  0  0  0
   11.8645    1.5648   23.1843 C   0  0  0  0  0  0  0  0  0  0  0  0
   12.4937    0.3263   22.7057 N   0  0  0  0  0  0  0  0  0  0  0  0
   13.3952   -0.2349   23.7157 C   0  0  0  0  0  0  0  0  0  0  0  0
   14.0176   -1.4888   23.1958 C   0  0  0  0  0  0  0  0  0  0  0  0
   13.0356   -2.4650   22.8675 O   0  0  0  0  0  0  0  0  0  0  0  0
   12.1480   -1.9383   21.8954 C   0  0  0  0  0  0  0  0  0  0  0  0
   11.4866   -0.6780   22.3670 C   0  0  0  0  0  0  0  0  0  0  0  0
  1  2  1  0
  2  3  2  0
  3  4  1  0
  4  5  2  0
  5  6  1  0
  6  7  2  0
  6  8  1  0
  8  9  1  0
  9 10  1  0
 10 11  1  0
 11 12  1  0
 12 13  1  0
 13 14  1  0
 13 15  1  0
 15 16  2  0
 15 17  1  0
 17 18  2  0
  8 19  1  0
 19 20  2  0
 19 21  1  0
 21 22  1  0
 22 23  2  0
 23 24  1  0
 23 25  1  0
 25 26  2  0
 26 27  1  0
 27 28  1  0
 27 29  2  0
 29 30  1  0
 30 31  1  0
 31 32  1  0
 32 33  1  0
 33 34  1  0
 34 35  1  0
 35 36  1  0
 36 37  1  0
  7  2  1  0
 14 11  1  0
 29 22  1  0
 37 32  1  0
M  END
