CVD-0003002|dock_bobby27042020.32|mol2|23|dock3
     RDKit          3D

 41 42  0  0  0  0  0  0  0  0999 V2000
    3.6072    1.1552   19.8965 C   0  0  0  0  0  0  0  0  0  0  0  0
    3.9874    2.4064   20.6004 C   0  0  0  0  0  0  0  0  0  0  0  0
    5.3179    2.2196   21.1653 O   0  0  0  0  0  0  0  0  0  0  0  0
    5.8023    3.2337   21.8967 C   0  0  0  0  0  0  0  0  0  0  0  0
    5.1622    4.2291   22.1435 O   0  0  0  0  0  0  0  0  0  0  0  0
    7.1857    2.9966   22.3575 C   0  0  0  0  0  0  0  0  0  0  0  0
    8.0267    3.9602   22.6942 C   0  0  0  0  0  0  0  0  0  0  0  0
    9.4370    3.7545   23.1651 C   0  0  0  0  0  0  0  0  0  0  0  0
   10.4719    4.4809   22.2957 C   0  0  0  0  0  0  0  0  0  0  0  0
   11.9533    4.1302   22.5048 C   0  0  0  0  0  0  0  0  0  0  0  0
   12.6086    4.8016   23.7282 C   0  0  0  0  0  0  0  0  0  0  0  0
   14.0030    5.2090   23.2707 C   0  0  0  0  0  0  0  0  0  0  0  0
   13.8917    5.1928   21.8246 N   0  0  0  0  0  0  0  0  0  0  0  0
   12.8159    4.5616   21.3476 C   0  0  0  0  0  0  0  0  0  0  0  0
   12.5581    4.3984   20.1587 O   0  0  0  0  0  0  0  0  0  0  0  0
    9.7324    2.3241   23.1987 N   0  0  0  0  0  0  0  0  0  0  0  0
    9.8948    1.5959   22.0902 C   0  0  0  0  0  0  0  0  0  0  0  0
    9.8081    2.0706   20.9609 O   0  0  0  0  0  0  0  0  0  0  0  0
   10.1959    0.1121   22.2833 C   0  0  0  0  0  0  0  0  0  0  0  0
   11.6890   -0.2000   22.1356 C   0  0  0  0  0  0  0  0  0  0  0  0
   12.1299   -1.6640   22.1672 C   0  0  0  0  0  0  0  0  0  0  0  0
   11.4616   -2.3863   23.3242 C   0  0  0  0  0  0  0  0  0  0  0  0
   13.6386   -1.8267   22.2498 C   0  0  0  0  0  0  0  0  0  0  0  0
    9.4489   -0.6688   21.3110 N   0  0  0  0  0  0  0  0  0  0  0  0
    8.1608   -0.9721   21.4954 C   0  0  0  0  0  0  0  0  0  0  0  0
    7.5303   -0.6293   22.4920 O   0  0  0  0  0  0  0  0  0  0  0  0
    7.4900   -1.7807   20.3903 C   0  0  0  0  0  0  0  0  0  0  0  0
    6.6207   -2.7884   20.9773 N   0  0  0  0  0  0  0  0  0  0  0  0
    7.1327   -3.8582   21.6083 C   0  0  0  0  0  0  0  0  0  0  0  0
    8.3161   -4.0845   21.7454 O   0  0  0  0  0  0  0  0  0  0  0  0
    6.1464   -4.6504   22.0711 O   0  0  0  0  0  0  0  0  0  0  0  0
    6.5681   -5.8968   22.6853 C   0  0  0  0  0  0  0  0  0  0  0  0
    7.4436   -5.5941   23.8661 C   0  0  0  0  0  0  0  0  0  0  0  0
    8.7551   -6.0410   23.9078 C   0  0  0  0  0  0  0  0  0  0  0  0
    9.5640   -5.7589   24.9959 C   0  0  0  0  0  0  0  0  0  0  0  0
    9.0704   -5.0260   26.0538 C   0  0  0  0  0  0  0  0  0  0  0  0
    7.7684   -4.5746   26.0236 C   0  0  0  0  0  0  0  0  0  0  0  0
    6.9595   -4.8568   24.9355 C   0  0  0  0  0  0  0  0  0  0  0  0
    6.6980   -0.8582   19.4464 C   0  0  0  0  0  0  0  0  0  0  0  0
    7.6051    0.2290   18.8822 C   0  0  0  0  0  0  0  0  0  0  0  0
    6.0823   -1.6624   18.3073 C   0  0  0  0  0  0  0  0  0  0  0  0
  1  2  1  0
  2  3  1  0
  3  4  1  0
  4  5  2  0
  4  6  1  0
  6  7  2  0
  8  7  1  0
  8  9  1  0
 10  9  1  0
 10 11  1  0
 11 12  1  0
 12 13  1  0
 13 14  1  0
 14 15  2  0
  8 16  1  0
 16 17  1  0
 17 18  2  0
 17 19  1  0
 19 20  1  0
 20 21  1  0
 21 22  1  0
 21 23  1  0
 19 24  1  0
 24 25  1  0
 25 26  2  0
 25 27  1  0
 27 28  1  0
 28 29  1  0
 29 30  2  0
 29 31  1  0
 31 32  1  0
 32 33  1  0
 33 34  2  0
 34 35  1  0
 35 36  2  0
 36 37  1  0
 37 38  2  0
 27 39  1  0
 39 40  1  0
 39 41  1  0
 14 10  1  0
 38 33  1  0
M  END
