CVD-0001885|dock_bobby27042020.36|mol2|37|dock1
     RDKit          3D

 31 33  0  0  0  0  0  0  0  0999 V2000
    5.0525   -0.7939   17.7702 C   0  0  0  0  0  0  0  0  0  0  0  0
    5.5479    0.2885   18.7335 C   0  0  0  0  0  0  0  0  0  0  0  0
    4.4116    0.6724   19.6856 C   0  0  0  0  0  0  0  0  0  0  0  0
    5.9687    1.5223   17.9299 C   0  0  0  0  0  0  0  0  0  0  0  0
    6.7304   -0.2341   19.5292 C   0  0  0  0  0  0  0  0  0  0  0  0
    6.8415   -0.4039   20.9037 C   0  0  0  0  0  0  0  0  0  0  0  0
    8.0963   -0.9136   21.1404 C   0  0  0  0  0  0  0  0  0  0  0  0
    8.6723   -1.0088   19.9012 N   0  0  0  0  0  0  0  0  0  0  0  0
    7.8442   -0.5960   18.9058 N   0  0  0  0  0  0  0  0  0  0  0  0
    8.7648   -1.2838   22.3053 N   0  0  0  0  0  0  0  0  0  0  0  0
    9.6830   -0.3241   22.9817 C   0  0  0  0  0  0  0  0  0  0  0  0
    9.5661    1.0900   22.3727 C   0  0  0  0  0  0  0  0  0  0  0  0
   10.4709    1.5704   21.6961 O   0  0  0  0  0  0  0  0  0  0  0  0
    8.3873    1.6940   22.6649 N   0  0  0  0  0  0  0  0  0  0  0  0
    7.8750    2.9664   22.3080 C   0  0  0  0  0  0  0  0  0  0  0  0
    6.5202    3.2166   22.1019 C   0  0  0  0  0  0  0  0  0  0  0  0
    6.0835    4.4830   21.7547 C   0  0  0  0  0  0  0  0  0  0  0  0
    6.9997    5.5009   21.6129 C   0  0  0  0  0  0  0  0  0  0  0  0
    6.4483    7.0937   21.1760 Cl  0  0  0  0  0  0  0  0  0  0  0  0
    8.3439    5.2809   21.8104 C   0  0  0  0  0  0  0  0  0  0  0  0
    8.7766    4.0137   22.1574 C   0  0  0  0  0  0  0  0  0  0  0  0
   11.1184   -0.8372   23.0798 C   0  0  0  0  0  0  0  0  0  0  0  0
   12.0025   -0.2707   23.9858 C   0  0  0  0  0  0  0  0  0  0  0  0
   13.3043   -0.7329   24.0685 C   0  0  0  0  0  0  0  0  0  0  0  0
   13.6902   -1.7571   23.2346 C   0  0  0  0  0  0  0  0  0  0  0  0
   12.8686   -2.3261   22.3517 N   0  0  0  0  0  0  0  0  0  0  0  0
   11.6151   -1.8663   22.2914 C   0  0  0  0  0  0  0  0  0  0  0  0
    8.6180   -2.5511   22.9271 C   0  0  0  0  0  0  0  0  0  0  0  0
    9.2439   -2.7727   23.9621 O   0  0  0  0  0  0  0  0  0  0  0  0
    7.7869   -3.6855   22.4294 C   0  0  0  0  0  0  0  0  0  0  0  0
    7.7263   -4.8057   23.0997 C   0  0  0  0  0  0  0  0  0  0  0  0
  1  2  1  0
  2  3  1  0
  2  4  1  0
  2  5  1  0
  5  6  1  0
  6  7  2  0
  7  8  1  0
  8  9  1  0
  7 10  1  0
 10 11  1  0
 11 12  1  0
 12 13  2  0
 12 14  1  0
 14 15  1  0
 15 16  2  0
 16 17  1  0
 17 18  2  0
 18 19  1  0
 18 20  1  0
 20 21  2  0
 11 22  1  0
 22 23  2  0
 23 24  1  0
 24 25  2  0
 25 26  1  0
 26 27  2  0
 10 28  1  0
 28 29  2  0
 28 30  1  0
 30 31  2  0
  9  5  2  0
 21 15  1  0
 27 22  1  0
M  END
