CVD-0003354|dock_bobby27042020.45|mol2|32|dock3
     RDKit          3D

 25 27  0  0  0  0  0  0  0  0999 V2000
   10.5666   -5.6368   26.2993 N   0  0  0  0  0  0  0  0  0  0  0  0
    8.9862   -5.5071   26.5780 S   0  0  0  0  0  0  0  0  0  0  0  0
    8.4026   -6.7756   26.2557 O   0  0  0  0  0  0  0  0  0  0  0  0
    8.8325   -5.0187   27.9164 O   0  0  0  0  0  0  0  0  0  0  0  0
    8.2681   -4.3130   25.4508 C   0  0  0  0  0  0  0  0  0  0  0  0
    6.7427   -4.3916   25.4415 C   0  0  0  0  0  0  0  0  0  0  0  0
    6.1381   -3.3534   24.5056 C   0  0  0  0  0  0  0  0  0  0  0  0
    6.6865   -3.4737   23.0788 C   0  0  0  0  0  0  0  0  0  0  0  0
    6.1413   -2.3667   22.1651 C   0  0  0  0  0  0  0  0  0  0  0  0
    6.5535   -0.9139   22.5732 C   0  0  0  0  0  0  0  0  0  0  0  0
    8.0122   -0.9404   22.9455 C   0  0  0  0  0  0  0  0  0  0  0  0
    8.8211    0.2175   22.9960 C   0  0  0  0  0  0  0  0  0  0  0  0
   10.1229   -0.0082   23.3472 C   0  0  0  0  0  0  0  0  0  0  0  0
   10.3798   -1.6937   23.6287 S   0  0  0  0  0  0  0  0  0  0  0  0
    8.7181   -2.0428   23.2630 C   0  0  0  0  0  0  0  0  0  0  0  0
    8.2167   -3.4506   23.0584 C   0  0  0  0  0  0  0  0  0  0  0  0
    8.8018   -4.4710   24.0367 C   0  0  0  0  0  0  0  0  0  0  0  0
   11.2411    0.9058   23.6459 C   0  0  0  0  0  0  0  0  0  0  0  0
   12.0962    0.6157   24.4812 O   0  0  0  0  0  0  0  0  0  0  0  0
   11.2497    2.0601   22.9444 N   0  0  0  0  0  0  0  0  0  0  0  0
   12.2629    2.9817   23.1577 N   0  0  0  0  0  0  0  0  0  0  0  0
   12.0116    4.2940   23.0470 C   0  0  0  0  0  0  0  0  0  0  0  0
   10.9081    4.7473   22.7600 O   0  0  0  0  0  0  0  0  0  0  0  0
   13.2008    5.1901   23.3147 C   0  0  0  0  0  0  0  0  0  0  0  0
   14.1715    5.4876   21.8669 Cl  0  0  0  0  0  0  0  0  0  0  0  0
  1  2  1  0
  2  3  2  0
  2  4  2  0
  2  5  1  0
  5  6  1  0
  6  7  1  0
  7  8  1  0
  8  9  1  0
  9 10  1  0
 10 11  1  0
 11 12  1  0
 12 13  2  0
 13 14  1  0
 14 15  1  0
 15 16  1  0
 16 17  1  0
 13 18  1  0
 18 19  2  0
 18 20  1  0
 20 21  1  0
 21 22  1  0
 22 23  2  0
 22 24  1  0
 24 25  1  0
 17  5  1  0
 16  8  1  0
 15 11  2  0
M  END
