CVD-0000003|dock_bobby27042020.43|mol2|13|dock3
     RDKit          3D

 44 45  0  0  0  0  0  0  0  0999 V2000
    8.3469   -0.4653   18.8136 N   0  0  0  0  0  0  0  0  0  0  0  0
    7.3167   -1.3077   19.4222 C   0  0  0  0  0  0  0  0  0  0  0  0
    7.2150   -1.1371   20.9273 C   0  0  0  0  0  0  0  0  0  0  0  0
    8.5505   -1.1994   21.6611 C   0  0  0  0  0  0  0  0  0  0  0  0
    9.2645   -2.5534   21.6253 C   0  0  0  0  0  0  0  0  0  0  0  0
    8.5359   -3.5271   22.4218 N   0  0  0  0  0  0  0  0  0  0  0  0
    7.6097   -4.3237   21.8809 C   0  0  0  0  0  0  0  0  0  0  0  0
    7.3128   -4.2902   20.6897 O   0  0  0  0  0  0  0  0  0  0  0  0
    6.9155   -5.3032   22.8229 C   0  0  0  0  0  0  0  0  0  0  0  0
    5.3976   -5.0652   22.7956 C   0  0  0  0  0  0  0  0  0  0  0  0
    4.6780   -5.6267   23.9980 C   0  0  0  0  0  0  0  0  0  0  0  0
    4.4832   -6.9927   24.1331 C   0  0  0  0  0  0  0  0  0  0  0  0
    3.8198   -7.5085   25.2339 C   0  0  0  0  0  0  0  0  0  0  0  0
    3.3423   -6.6638   26.2128 C   0  0  0  0  0  0  0  0  0  0  0  0
    3.5277   -5.3036   26.0902 C   0  0  0  0  0  0  0  0  0  0  0  0
    4.1911   -4.7885   24.9890 C   0  0  0  0  0  0  0  0  0  0  0  0
    7.4247   -5.1655   24.1775 N   0  0  0  0  0  0  0  0  0  0  0  0
    8.5459   -5.7730   24.5715 C   0  0  0  0  0  0  0  0  0  0  0  0
    9.2210   -6.4825   23.8320 O   0  0  0  0  0  0  0  0  0  0  0  0
    8.9608   -5.5297   26.0125 C   0  0  0  0  0  0  0  0  0  0  0  0
   10.4204   -5.4680   26.1677 N   0  0  0  0  0  0  0  0  0  0  0  0
   10.6906   -2.3896   22.1429 C   0  0  0  0  0  0  0  0  0  0  0  0
   11.0352   -2.9189   23.1961 O   0  0  0  0  0  0  0  0  0  0  0  0
   11.5140   -1.6541   21.3962 N   0  0  0  0  0  0  0  0  0  0  0  0
   12.8886   -1.4313   21.7892 C   0  0  0  0  0  0  0  0  0  0  0  0
   13.0643   -0.2138   22.6759 C   0  0  0  0  0  0  0  0  0  0  0  0
   13.6872   -0.2866   23.7306 O   0  0  0  0  0  0  0  0  0  0  0  0
   12.4988    0.9148   22.2422 N   0  0  0  0  0  0  0  0  0  0  0  0
   12.5830    2.1530   22.9993 C   0  0  0  0  0  0  0  0  0  0  0  0
   12.1362    3.3405   22.1327 C   0  0  0  0  0  0  0  0  0  0  0  0
   12.4785    4.6849   22.7281 C   0  0  0  0  0  0  0  0  0  0  0  0
   13.5955    5.3868   22.3019 C   0  0  0  0  0  0  0  0  0  0  0  0
   13.9104    6.6187   22.8509 C   0  0  0  0  0  0  0  0  0  0  0  0
   13.1120    7.1631   23.8336 C   0  0  0  0  0  0  0  0  0  0  0  0
   11.9991    6.4752   24.2674 C   0  0  0  0  0  0  0  0  0  0  0  0
   11.6849    5.2434   23.7180 C   0  0  0  0  0  0  0  0  0  0  0  0
   11.7251    2.0766   24.2591 C   0  0  0  0  0  0  0  0  0  0  0  0
   12.1329    2.5556   25.3138 O   0  0  0  0  0  0  0  0  0  0  0  0
   10.5390    1.4706   24.1359 N   0  0  0  0  0  0  0  0  0  0  0  0
    9.5875    1.3041   25.2351 C   0  0  0  0  0  0  0  0  0  0  0  0
    8.9361    2.6271   25.5515 C   0  0  0  0  0  0  0  0  0  0  0  0
    9.9384    3.4407   26.1482 O   0  0  0  0  0  0  0  0  0  0  0  0
   10.2834    0.7296   26.4549 C   0  0  0  0  0  0  0  0  0  0  0  0
   11.3985    0.2988   26.4705 O   0  0  0  0  0  0  0  0  0  0  0  0
  1  2  1  0
  2  3  1  0
  3  4  1  0
  4  5  1  0
  5  6  1  0
  6  7  1  0
  7  8  2  0
  7  9  1  0
  9 10  1  0
 10 11  1  0
 11 12  2  0
 12 13  1  0
 13 14  2  0
 14 15  1  0
 15 16  2  0
  9 17  1  0
 17 18  1  0
 18 19  2  0
 18 20  1  0
 20 21  1  0
  5 22  1  0
 22 23  2  0
 22 24  1  0
 24 25  1  0
 25 26  1  0
 26 27  2  0
 26 28  1  0
 28 29  1  0
 29 30  1  0
 30 31  1  0
 31 32  2  0
 32 33  1  0
 33 34  2  0
 34 35  1  0
 35 36  2  0
 29 37  1  0
 37 38  2  0
 37 39  1  0
 39 40  1  0
 40 41  1  0
 41 42  1  0
 40 43  1  0
 43 44  2  0
 16 11  1  0
 36 31  1  0
M  END
