CVD-0001402|dock_bobby27042020.9|mol2|45|dock2
     RDKit          3D

 19 21  0  0  0  0  0  0  0  0999 V2000
   14.4517   -2.1846   25.1746 C   0  0  0  0  0  0  0  0  0  0  0  0
   13.7765   -1.3855   24.1535 N   0  0  0  0  0  0  0  0  0  0  0  0
   12.8757   -0.4118   24.7773 C   0  0  0  0  0  0  0  0  0  0  0  0
   12.2087    0.4423   23.7151 C   0  0  0  0  0  0  0  0  0  0  0  0
   11.4690   -0.3993   22.7720 N   0  0  0  0  0  0  0  0  0  0  0  0
   12.3306   -1.4243   22.1746 C   0  0  0  0  0  0  0  0  0  0  0  0
   13.0043   -2.2446   23.2596 C   0  0  0  0  0  0  0  0  0  0  0  0
   10.1645   -0.2087   22.4895 C   0  0  0  0  0  0  0  0  0  0  0  0
    9.5157    0.6946   23.0019 O   0  0  0  0  0  0  0  0  0  0  0  0
    9.5207   -1.1589   21.4957 C   0  0  0  0  0  0  0  0  0  0  0  0
    8.0390   -0.9356   21.3593 C   0  0  0  0  0  0  0  0  0  0  0  0
    7.1924   -1.3086   22.2660 N   0  0  0  0  0  0  0  0  0  0  0  0
    5.9435   -0.9668   21.8314 N   0  0  0  0  0  0  0  0  0  0  0  0
    5.9899   -0.3688   20.6223 C   0  0  0  0  0  0  0  0  0  0  0  0
    4.9729    0.1005   19.8814 N   0  0  0  0  0  0  0  0  0  0  0  0
    5.3169    0.6503   18.7070 C   0  0  0  0  0  0  0  0  0  0  0  0
    6.6151    0.7503   18.2475 C   0  0  0  0  0  0  0  0  0  0  0  0
    7.6510    0.2601   19.0284 C   0  0  0  0  0  0  0  0  0  0  0  0
    7.3390   -0.3187   20.2552 C   0  0  0  0  0  0  0  0  0  0  0  0
  1  2  1  0
  2  3  1  0
  3  4  1  0
  4  5  1  0
  5  6  1  0
  6  7  1  0
  5  8  1  0
  8  9  2  0
  8 10  1  0
 10 11  1  0
 11 12  2  0
 12 13  1  0
 13 14  1  0
 14 15  2  0
 15 16  1  0
 16 17  2  0
 17 18  1  0
 18 19  2  0
  7  2  1  0
 19 11  1  0
 19 14  1  0
M  END
