CVD-0003644|dock_bobby27042020.59|mol2|12|dock2
     RDKit          3D

 31 34  0  0  0  0  0  0  0  0999 V2000
    5.8578   -4.3298   19.1295 O   0  0  0  0  0  0  0  0  0  0  0  0
    6.0057   -3.1183   18.9823 N   0  0  0  0  0  0  0  0  0  0  0  0
    5.4602   -2.4642   18.1098 O   0  0  0  0  0  0  0  0  0  0  0  0
    6.8953   -2.4151   19.9161 C   0  0  0  0  0  0  0  0  0  0  0  0
    7.8421   -3.1288   20.6278 C   0  0  0  0  0  0  0  0  0  0  0  0
    8.7154   -2.4657   21.4686 C   0  0  0  0  0  0  0  0  0  0  0  0
    8.6482   -1.0809   21.6005 C   0  0  0  0  0  0  0  0  0  0  0  0
    7.6084   -0.3699   20.9604 C   0  0  0  0  0  0  0  0  0  0  0  0
    6.7726   -1.0453   20.0758 C   0  0  0  0  0  0  0  0  0  0  0  0
    7.3369    1.0444   21.1766 N   0  0  0  0  0  0  0  0  0  0  0  0
    6.7551    1.6876   20.3069 O   0  0  0  0  0  0  0  0  0  0  0  0
    7.7596    1.5636   22.1957 O   0  0  0  0  0  0  0  0  0  0  0  0
    9.6814   -0.4979   22.4076 N   0  0  0  0  0  0  0  0  0  0  0  0
   10.1161    0.7547   22.0066 N   0  0  0  0  0  0  0  0  0  0  0  0
   11.0862    1.0824   22.8659 C   0  0  0  0  0  0  0  0  0  0  0  0
   11.2652    0.0754   23.8255 C   0  0  0  0  0  0  0  0  0  0  0  0
   10.3528   -0.9196   23.5348 C   0  0  0  0  0  0  0  0  0  0  0  0
   10.1680   -2.1695   24.3043 C   0  0  0  0  0  0  0  0  0  0  0  0
    9.1075   -2.2592   25.1998 C   0  0  0  0  0  0  0  0  0  0  0  0
    8.9074   -3.3956   25.9629 C   0  0  0  0  0  0  0  0  0  0  0  0
    9.7750   -4.4559   25.8272 C   0  0  0  0  0  0  0  0  0  0  0  0
    9.5423   -5.8823   26.7986 Cl  0  0  0  0  0  0  0  0  0  0  0  0
   10.8230   -4.4078   24.9353 C   0  0  0  0  0  0  0  0  0  0  0  0
   11.0057   -3.2724   24.1657 C   0  0  0  0  0  0  0  0  0  0  0  0
   11.8009    2.3610   22.7284 C   0  0  0  0  0  0  0  0  0  0  0  0
   12.0162    2.9217   21.4744 C   0  0  0  0  0  0  0  0  0  0  0  0
   12.6876    4.1239   21.3398 C   0  0  0  0  0  0  0  0  0  0  0  0
   13.1458    4.7670   22.4696 C   0  0  0  0  0  0  0  0  0  0  0  0
   14.0685    6.4177   22.2920 Br  0  0  0  0  0  0  0  0  0  0  0  0
   12.9473    4.2353   23.7258 C   0  0  0  0  0  0  0  0  0  0  0  0
   12.2747    3.0327   23.8498 C   0  0  0  0  0  0  0  0  0  0  0  0
  1  2  1  0
  2  3  2  0
  2  4  1  0
  4  5  2  0
  5  6  1  0
  6  7  2  0
  7  8  1  0
  8  9  2  0
  8 10  1  0
 10 11  1  0
 10 12  2  0
  7 13  1  0
 13 14  1  0
 14 15  2  0
 15 16  1  0
 16 17  2  0
 17 18  1  0
 18 19  2  0
 19 20  1  0
 20 21  2  0
 21 22  1  0
 21 23  1  0
 23 24  2  0
 15 25  1  0
 25 26  2  0
 26 27  1  0
 27 28  2  0
 28 29  1  0
 28 30  1  0
 30 31  2  0
  9  4  1  0
 17 13  1  0
 24 18  1  0
 31 25  1  0
M  CHG  4   1  -1   2   1  10   1  11  -1
M  END
