CVD-0004017|dock_bobby27042020.72|mol2|6|dock2
     RDKit          3D

 45 48  0  0  0  0  0  0  0  0999 V2000
   14.0633   -1.8622   25.2270 C   0  0  0  0  0  0  0  0  0  0  0  0
   13.6513   -1.1891   23.9294 C   0  0  0  0  0  0  0  0  0  0  0  0
   13.6085   -2.2074   22.8032 C   0  0  0  0  0  0  0  0  0  0  0  0
   12.2880   -0.5237   24.0903 C   0  0  0  0  0  0  0  0  0  0  0  0
   11.9771    0.5691   23.0651 C   0  0  0  0  0  0  0  0  0  0  0  0
   12.5297    1.8455   23.4989 N   0  0  0  0  0  0  0  0  0  0  0  0
   12.2533    3.0098   22.8669 C   0  0  0  0  0  0  0  0  0  0  0  0
   11.5775    3.0697   21.8434 O   0  0  0  0  0  0  0  0  0  0  0  0
   12.7769    4.1121   23.4389 N   0  0  0  0  0  0  0  0  0  0  0  0
   12.5687    5.4360   22.8711 C   0  0  0  0  0  0  0  0  0  0  0  0
   11.6234    6.2905   23.6805 C   0  0  0  0  0  0  0  0  0  0  0  0
   12.0494    6.9124   24.8439 C   0  0  0  0  0  0  0  0  0  0  0  0
   11.1815    7.6937   25.5885 C   0  0  0  0  0  0  0  0  0  0  0  0
    9.8764    7.8615   25.1786 C   0  0  0  0  0  0  0  0  0  0  0  0
    9.4393    7.2479   24.0245 C   0  0  0  0  0  0  0  0  0  0  0  0
   10.3077    6.4667   23.2804 C   0  0  0  0  0  0  0  0  0  0  0  0
   10.4726    0.6383   22.8062 C   0  0  0  0  0  0  0  0  0  0  0  0
    9.8230    1.6426   23.0864 O   0  0  0  0  0  0  0  0  0  0  0  0
    9.9156   -0.4465   22.2602 N   0  0  0  0  0  0  0  0  0  0  0  0
    8.4938   -0.5056   21.9617 C   0  0  0  0  0  0  0  0  0  0  0  0
    8.2667   -1.0864   20.5619 C   0  0  0  0  0  0  0  0  0  0  0  0
    6.9396   -0.7303   19.8747 C   0  0  0  0  0  0  0  0  0  0  0  0
    6.9098    0.6612   19.2115 C   0  0  0  0  0  0  0  0  0  0  0  0
    5.5283    1.2267   19.5140 C   0  0  0  0  0  0  0  0  0  0  0  0
    5.0803    0.4181   20.6319 N   0  0  0  0  0  0  0  0  0  0  0  0
    5.7825   -0.6987   20.8387 C   0  0  0  0  0  0  0  0  0  0  0  0
    5.5425   -1.5385   21.7018 O   0  0  0  0  0  0  0  0  0  0  0  0
    7.7928   -1.3070   23.0549 C   0  0  0  0  0  0  0  0  0  0  0  0
    7.0206   -0.7550   23.8197 O   0  0  0  0  0  0  0  0  0  0  0  0
    8.1174   -2.8097   23.1031 C   0  0  0  0  0  0  0  0  0  0  0  0
    9.2477   -3.0998   22.7283 O   0  0  0  0  0  0  0  0  0  0  0  0
    7.2429   -3.7479   23.5198 N   0  0  0  0  0  0  0  0  0  0  0  0
    7.5573   -5.1597   23.3737 C   0  0  0  0  0  0  0  0  0  0  0  0
    6.4448   -5.8784   22.6773 C   0  0  0  0  0  0  0  0  0  0  0  0
    5.1926   -5.6501   23.4123 N   0  0  0  0  0  0  0  0  0  0  0  0
    4.8514   -4.2213   23.4783 C   0  0  0  0  0  0  0  0  0  0  0  0
    5.9577   -3.4858   24.1751 C   0  0  0  0  0  0  0  0  0  0  0  0
    3.9947   -6.7164   23.1825 S   0  0  0  0  0  0  0  0  0  0  0  0
    3.9487   -7.0005   21.7825 O   0  0  0  0  0  0  0  0  0  0  0  0
    4.2021   -7.7858   24.1076 O   0  0  0  0  0  0  0  0  0  0  0  0
    2.4866   -5.9568   23.6039 C   0  0  0  0  0  0  0  0  0  0  0  0
    2.0823   -5.6477   24.8817 C   0  0  0  0  0  0  0  0  0  0  0  0
    0.8069   -5.0337   24.8634 C   0  0  0  0  0  0  0  0  0  0  0  0
    0.2959   -4.8940   23.6286 C   0  0  0  0  0  0  0  0  0  0  0  0
    1.3424   -5.5032   22.4257 S   0  0  0  0  0  0  0  0  0  0  0  0
  1  2  1  0
  2  3  1  0
  2  4  1  0
  5  4  1  0
  5  6  1  0
  6  7  1  0
  7  8  2  0
  7  9  1  0
  9 10  1  0
 10 11  1  0
 11 12  2  0
 12 13  1  0
 13 14  2  0
 14 15  1  0
 15 16  2  0
  5 17  1  0
 17 18  2  0
 17 19  1  0
 19 20  1  0
 20 21  1  0
 22 21  1  0
 22 23  1  0
 23 24  1  0
 24 25  1  0
 25 26  1  0
 26 27  2  0
 20 28  1  0
 28 29  2  0
 28 30  1  0
 30 31  2  0
 30 32  1  0
 32 33  1  0
 33 34  1  0
 34 35  1  0
 35 36  1  0
 36 37  1  0
 35 38  1  0
 38 39  2  0
 38 40  2  0
 38 41  1  0
 41 42  2  0
 42 43  1  0
 43 44  2  0
 44 45  1  0
 16 11  1  0
 26 22  1  0
 37 32  1  0
 45 41  1  0
M  END
