CVD-0002702|dock_bobby27042020.19|mol2|1|dock3
     RDKit          3D

 35 38  0  0  0  0  0  0  0  0999 V2000
    5.6440   -0.6328   18.3813 C   0  0  0  0  0  0  0  0  0  0  0  0
    5.9767    0.5661   19.2666 C   0  0  0  0  0  0  0  0  0  0  0  0
    4.6944    1.3073   19.7565 C   0  0  0  0  0  0  0  0  0  0  0  0
    4.8164    1.2654   21.2449 N   0  0  0  0  0  0  0  0  0  0  0  0
    6.0166    0.5933   21.6806 C   0  0  0  0  0  0  0  0  0  0  0  0
    6.7277    0.2129   20.4509 C   0  0  0  0  0  0  0  0  0  0  0  0
    8.1242    0.8096   20.6172 C   0  0  0  0  0  0  0  0  0  0  0  0
    8.8425    0.4217   21.8420 N   0  0  0  0  0  0  0  0  0  0  0  0
    9.9367    1.3637   22.1189 C   0  0  0  0  0  0  0  0  0  0  0  0
    9.3350    2.7143   22.5100 C   0  0  0  0  0  0  0  0  0  0  0  0
    8.1310    2.8103   22.7089 O   0  0  0  0  0  0  0  0  0  0  0  0
   10.1592    3.7766   22.6435 N   0  0  0  0  0  0  0  0  0  0  0  0
    9.6853    5.1045   23.0395 C   0  0  0  0  0  0  0  0  0  0  0  0
   10.4626    5.6080   24.2416 C   0  0  0  0  0  0  0  0  0  0  0  0
   11.8958    5.6518   23.9368 N   0  0  0  0  0  0  0  0  0  0  0  0
   12.6454    6.1737   25.0783 C   0  0  0  0  0  0  0  0  0  0  0  0
   12.3521    4.3065   23.5972 C   0  0  0  0  0  0  0  0  0  0  0  0
   11.6032    3.7735   22.3893 C   0  0  0  0  0  0  0  0  0  0  0  0
    9.2064   -0.9482   21.8774 C   0  0  0  0  0  0  0  0  0  0  0  0
   10.5744   -1.0857   21.8375 O   0  0  0  0  0  0  0  0  0  0  0  0
    8.5967   -1.5759   22.9994 N   0  0  0  0  0  0  0  0  0  0  0  0
    8.5561   -3.0312   22.8570 C   0  0  0  0  0  0  0  0  0  0  0  0
    7.7740   -3.6281   23.9865 C   0  0  0  0  0  0  0  0  0  0  0  0
    8.4169   -3.2767   25.2541 N   0  0  0  0  0  0  0  0  0  0  0  0
    8.4574   -1.8214   25.3965 C   0  0  0  0  0  0  0  0  0  0  0  0
    9.2396   -1.2245   24.2670 C   0  0  0  0  0  0  0  0  0  0  0  0
    7.7821   -3.9302   26.4220 C   0  0  0  0  0  0  0  0  0  0  0  0
    8.4834   -5.2816   26.6280 C   0  0  0  0  0  0  0  0  0  0  0  0
    7.8940   -6.0304   27.8163 C   0  0  0  0  0  0  0  0  0  0  0  0
    6.3863   -6.2092   27.6626 C   0  0  0  0  0  0  0  0  0  0  0  0
    5.6867   -4.8693   27.4380 C   0  0  0  0  0  0  0  0  0  0  0  0
    6.2745   -4.1233   26.2303 C   0  0  0  0  0  0  0  0  0  0  0  0
    5.5823   -2.8824   26.0967 N   0  0  0  0  0  0  0  0  0  0  0  0
    5.5645   -2.2342   27.0963 O   0  0  0  0  0  0  0  0  0  0  0  0
    4.4535   -3.1076   25.7800 O   0  0  0  0  0  0  0  0  0  0  0  0
  1  2  1  0
  2  3  1  0
  3  4  1  0
  4  5  1  0
  5  6  1  0
  6  7  1  0
  7  8  1  0
  8  9  1  0
  9 10  1  0
 10 11  2  0
 10 12  1  0
 12 13  1  0
 13 14  1  0
 14 15  1  0
 15 16  1  0
 15 17  1  0
 17 18  1  0
  8 19  1  0
 19 20  1  0
 19 21  1  0
 21 22  1  0
 22 23  1  0
 23 24  1  0
 24 25  1  0
 25 26  1  0
 24 27  1  0
 27 28  1  0
 28 29  1  0
 29 30  1  0
 30 31  1  0
 31 32  1  0
 32 33  1  0
 33 34  1  0
 33 35  1  0
  6  2  1  0
 18 12  1  0
 26 21  1  0
 32 27  1  0
M  END
