CVD-0000557|dock_bobby27042020.69|mol2|47|dock2
     RDKit          3D

 24 26  0  0  0  0  0  0  0  0999 V2000
    8.6905   -0.8766   22.5817 O   0  0  0  0  0  0  0  0  0  0  0  0
    9.1127   -1.0364   21.4412 C   0  0  0  0  0  0  0  0  0  0  0  0
    8.2624   -0.7382   20.2217 C   0  0  0  0  0  0  0  0  0  0  0  0
    6.7544   -1.0809   20.3187 C   0  0  0  0  0  0  0  0  0  0  0  0
    6.2404   -1.0103   18.8830 C   0  0  0  0  0  0  0  0  0  0  0  0
    6.2609    0.4144   18.3664 C   0  0  0  0  0  0  0  0  0  0  0  0
    5.4586    1.3423   19.2658 C   0  0  0  0  0  0  0  0  0  0  0  0
    5.9557    1.2708   20.7006 C   0  0  0  0  0  0  0  0  0  0  0  0
    5.9496   -0.1596   21.2244 C   0  0  0  0  0  0  0  0  0  0  0  0
    6.5279   -2.4616   20.7626 C   0  0  0  0  0  0  0  0  0  0  0  0
    6.4043   -3.5825   21.1411 C   0  0  0  0  0  0  0  0  0  0  0  0
    6.3216   -4.9466   21.6232 C   0  0  0  0  0  0  0  0  0  0  0  0
    5.2368   -5.0846   22.6900 C   0  0  0  0  0  0  0  0  0  0  0  0
    5.6531   -4.3295   23.9647 C   0  0  0  0  0  0  0  0  0  0  0  0
    7.1006   -4.7118   24.4178 C   0  0  0  0  0  0  0  0  0  0  0  0
    8.0433   -4.5513   23.3215 N   0  0  0  0  0  0  0  0  0  0  0  0
    7.6738   -5.3748   22.1724 C   0  0  0  0  0  0  0  0  0  0  0  0
   10.3519   -1.4856   21.1253 N   0  0  0  0  0  0  0  0  0  0  0  0
   11.4458   -1.8750   21.9381 C   0  0  0  0  0  0  0  0  0  0  0  0
   11.2133   -2.1820   23.2726 C   0  0  0  0  0  0  0  0  0  0  0  0
   12.2685   -2.5642   24.0819 C   0  0  0  0  0  0  0  0  0  0  0  0
   13.5283   -2.6290   23.5340 C   0  0  0  0  0  0  0  0  0  0  0  0
   13.7845   -2.3411   22.2579 N   0  0  0  0  0  0  0  0  0  0  0  0
   12.7591   -1.9728   21.4835 C   0  0  0  0  0  0  0  0  0  0  0  0
  1  2  2  0
  2  3  1  0
  3  4  1  0
  4  5  1  0
  5  6  1  0
  6  7  1  0
  7  8  1  0
  8  9  1  0
  4 10  1  0
 10 11  3  0
 11 12  1  0
 12 13  1  0
 13 14  1  0
 14 15  1  0
 15 16  1  0
 16 17  1  0
  2 18  1  0
 18 19  1  0
 19 20  2  0
 20 21  1  0
 21 22  2  0
 22 23  1  0
 23 24  2  0
  9  4  1  0
 17 12  1  0
 24 19  1  0
M  END
