CVD-0001800|dock_bobby27042020.80|mol2|5|dock3
     RDKit          3D

 23 25  0  0  0  0  0  0  0  0999 V2000
    5.6880    1.7360   22.4216 C   0  0  0  0  0  0  0  0  0  0  0  0
    6.0211    1.2528   21.0345 C   0  0  0  0  0  0  0  0  0  0  0  0
    5.0131    1.0793   20.0906 C   0  0  0  0  0  0  0  0  0  0  0  0
    5.3366    0.6441   18.8221 C   0  0  0  0  0  0  0  0  0  0  0  0
    6.5816    0.3731   18.4319 N   0  0  0  0  0  0  0  0  0  0  0  0
    7.5555    0.5351   19.3329 C   0  0  0  0  0  0  0  0  0  0  0  0
    7.3234    0.9684   20.6306 C   0  0  0  0  0  0  0  0  0  0  0  0
    8.4065    1.1185   21.5787 N   0  0  0  0  0  0  0  0  0  0  0  0
    9.1184    0.0178   22.0895 C   0  0  0  0  0  0  0  0  0  0  0  0
    8.7416   -1.3604   21.6015 C   0  0  0  0  0  0  0  0  0  0  0  0
    9.3651   -2.5092   22.4593 C   0  0  0  0  0  0  0  0  0  0  0  0
   10.8515   -2.1415   22.8231 C   0  0  0  0  0  0  0  0  0  0  0  0
   10.8958   -0.8573   23.5277 N   0  0  0  0  0  0  0  0  0  0  0  0
   11.6521   -0.7199   24.7747 C   0  0  0  0  0  0  0  0  0  0  0  0
   13.1055   -0.3425   24.5457 C   0  0  0  0  0  0  0  0  0  0  0  0
   13.9186   -1.4959   24.0122 C   0  0  0  0  0  0  0  0  0  0  0  0
   14.3682   -2.3614   24.9070 N   0  0  0  0  0  0  0  0  0  0  0  0
   14.1432   -1.6114   22.8038 O   0  0  0  0  0  0  0  0  0  0  0  0
   10.1455    0.2151   22.9686 C   0  0  0  0  0  0  0  0  0  0  0  0
   10.4736    1.5380   23.3496 C   0  0  0  0  0  0  0  0  0  0  0  0
    9.7968    2.6036   22.8656 C   0  0  0  0  0  0  0  0  0  0  0  0
    8.7126    2.4506   21.9421 C   0  0  0  0  0  0  0  0  0  0  0  0
    8.0867    3.3838   21.4428 O   0  0  0  0  0  0  0  0  0  0  0  0
  1  2  1  0
  2  3  2  0
  3  4  1  0
  4  5  2  0
  5  6  1  0
  6  7  2  0
  7  8  1  0
  8  9  1  0
  9 10  1  0
 10 11  1  0
 11 12  1  0
 12 13  1  0
 13 14  1  0
 14 15  1  0
 15 16  1  0
 16 17  1  0
 16 18  2  0
 13 19  1  0
 19 20  1  0
 20 21  2  0
 21 22  1  0
 22 23  2  0
  7  2  1  0
 22  8  1  0
 19  9  2  0
M  END
