CVD-0001282|dock_bobby27042020.38|mol2|36|dock2
     RDKit          3D

 22 24  0  0  0  0  0  0  0  0999 V2000
    9.9112    2.2455   22.9317 O   0  0  0  0  0  0  0  0  0  0  0  0
    9.8535    1.0327   23.0055 C   0  0  0  0  0  0  0  0  0  0  0  0
    8.5724    0.3086   22.6335 C   0  0  0  0  0  0  0  0  0  0  0  0
    7.7214   -0.1554   23.7963 C   0  0  0  0  0  0  0  0  0  0  0  0
    6.5201   -0.9335   23.2756 C   0  0  0  0  0  0  0  0  0  0  0  0
    5.6711   -0.1153   22.3362 C   0  0  0  0  0  0  0  0  0  0  0  0
    6.5632    0.3425   21.2259 N   0  0  0  0  0  0  0  0  0  0  0  0
    7.7352    1.1511   21.6309 C   0  0  0  0  0  0  0  0  0  0  0  0
    6.2265    0.1790   19.8884 C   0  0  0  0  0  0  0  0  0  0  0  0
    6.0445    1.2869   19.0679 C   0  0  0  0  0  0  0  0  0  0  0  0
    5.7160    1.0977   17.7402 C   0  0  0  0  0  0  0  0  0  0  0  0
    5.5597   -0.0982   17.1753 N   0  0  0  0  0  0  0  0  0  0  0  0
    5.7300   -1.1552   17.9673 C   0  0  0  0  0  0  0  0  0  0  0  0
    6.0536   -1.0729   19.3073 C   0  0  0  0  0  0  0  0  0  0  0  0
   10.9157    0.3117   23.4209 N   0  0  0  0  0  0  0  0  0  0  0  0
   10.8756   -1.1360   23.6041 C   0  0  0  0  0  0  0  0  0  0  0  0
   11.8305   -1.8604   22.6573 C   0  0  0  0  0  0  0  0  0  0  0  0
   13.4873   -1.3191   22.9520 S   0  0  0  0  0  0  0  0  0  0  0  0
   14.3498   -1.8021   21.9077 O   0  0  0  0  0  0  0  0  0  0  0  0
   13.8422   -1.6200   24.3126 O   0  0  0  0  0  0  0  0  0  0  0  0
   13.2930    0.4317   22.7616 C   0  0  0  0  0  0  0  0  0  0  0  0
   12.1955    0.9404   23.7095 C   0  0  0  0  0  0  0  0  0  0  0  0
  1  2  2  0
  2  3  1  0
  3  4  1  0
  4  5  1  0
  5  6  1  0
  6  7  1  0
  7  8  1  0
  7  9  1  0
  9 10  2  0
 10 11  1  0
 11 12  2  0
 12 13  1  0
 13 14  2  0
  2 15  1  0
 15 16  1  0
 16 17  1  0
 17 18  1  0
 18 19  2  0
 18 20  2  0
 18 21  1  0
 21 22  1  0
  8  3  1  0
 14  9  1  0
 22 15  1  0
M  END
