CVD-0001664|dock_bobby27042020.23|mol2|14|dock1
     RDKit          3D

 23 25  0  0  0  0  0  0  0  0999 V2000
    1.0936    1.6983   20.8357 C   0  0  0  0  0  0  0  0  0  0  0  0
    2.3513    1.0790   21.0983 O   0  0  0  0  0  0  0  0  0  0  0  0
    3.4348    1.8358   21.4697 C   0  0  0  0  0  0  0  0  0  0  0  0
    3.2889    3.1331   21.9419 C   0  0  0  0  0  0  0  0  0  0  0  0
    4.4130    3.8565   22.3041 C   0  0  0  0  0  0  0  0  0  0  0  0
    5.6748    3.2977   22.1992 C   0  0  0  0  0  0  0  0  0  0  0  0
    5.8158    2.0018   21.7272 C   0  0  0  0  0  0  0  0  0  0  0  0
    4.6948    1.2681   21.3613 C   0  0  0  0  0  0  0  0  0  0  0  0
    7.1143    1.4157   21.6151 N   0  0  0  0  0  0  0  0  0  0  0  0
    7.4669    0.1127   21.6394 C   0  0  0  0  0  0  0  0  0  0  0  0
    8.8223    0.1038   21.4935 C   0  0  0  0  0  0  0  0  0  0  0  0
    9.7712   -1.0533   21.4473 C   0  0  0  0  0  0  0  0  0  0  0  0
   11.1065   -0.7242   21.9510 N   0  0  0  0  0  0  0  0  0  0  0  0
   12.0585   -1.7861   21.6118 C   0  0  0  0  0  0  0  0  0  0  0  0
   13.4482   -1.4212   22.0998 C   0  0  0  0  0  0  0  0  0  0  0  0
   13.4390   -1.1931   23.5464 N   0  0  0  0  0  0  0  0  0  0  0  0
   12.4523   -0.1767   23.9252 C   0  0  0  0  0  0  0  0  0  0  0  0
   11.0786   -0.5546   23.4015 C   0  0  0  0  0  0  0  0  0  0  0  0
   14.2739   -1.8381   24.3977 C   0  0  0  0  0  0  0  0  0  0  0  0
   14.1579   -1.5292   25.8614 C   0  0  0  0  0  0  0  0  0  0  0  0
   15.0875   -2.6556   23.9824 O   0  0  0  0  0  0  0  0  0  0  0  0
    9.2453    1.3906   21.3867 N   0  0  0  0  0  0  0  0  0  0  0  0
    8.2095    2.1966   21.4596 N   0  0  0  0  0  0  0  0  0  0  0  0
  1  2  1  0
  2  3  1  0
  3  4  2  0
  4  5  1  0
  5  6  2  0
  6  7  1  0
  7  8  2  0
  7  9  1  0
  9 10  1  0
 10 11  2  0
 11 12  1  0
 12 13  1  0
 13 14  1  0
 14 15  1  0
 15 16  1  0
 16 17  1  0
 17 18  1  0
 16 19  1  0
 19 20  1  0
 19 21  2  0
 11 22  1  0
 22 23  2  0
  8  3  1  0
 23  9  1  0
 18 13  1  0
M  END
