CVD-0001108|dock_bobby27042020.25|mol2|7|dock2
     RDKit          3D

 25 27  0  0  0  0  0  0  0  0999 V2000
   14.6060   -2.2114   26.0406 N   0  0  0  0  0  0  0  0  0  0  0  0
   13.7313   -1.3691   25.5144 C   0  0  0  0  0  0  0  0  0  0  0  0
   13.7393   -0.1607   25.7592 O   0  0  0  0  0  0  0  0  0  0  0  0
   12.6920   -1.9745   24.5692 C   0  0  0  0  0  0  0  0  0  0  0  0
   13.2713   -2.2613   23.1486 C   0  0  0  0  0  0  0  0  0  0  0  0
   13.2683   -0.8810   22.5268 C   0  0  0  0  0  0  0  0  0  0  0  0
   11.9483   -0.2892   23.0319 C   0  0  0  0  0  0  0  0  0  0  0  0
   11.6541   -1.0323   24.2721 N   0  0  0  0  0  0  0  0  0  0  0  0
   10.4568   -0.8624   25.0190 C   0  0  0  0  0  0  0  0  0  0  0  0
   10.4577    0.0782   26.0529 C   0  0  0  0  0  0  0  0  0  0  0  0
    9.3458    0.2340   26.8628 C   0  0  0  0  0  0  0  0  0  0  0  0
    8.2252   -0.5364   26.6668 C   0  0  0  0  0  0  0  0  0  0  0  0
    8.1968   -1.4439   25.6267 C   0  0  0  0  0  0  0  0  0  0  0  0
    9.2792   -1.5974   24.7626 C   0  0  0  0  0  0  0  0  0  0  0  0
    9.0928   -2.5390   23.5924 C   0  0  0  0  0  0  0  0  0  0  0  0
    7.8402   -2.3213   22.8537 N   0  0  0  0  0  0  0  0  0  0  0  0
    7.8933   -1.0555   22.1163 C   0  0  0  0  0  0  0  0  0  0  0  0
    6.5832   -0.8160   21.3891 C   0  0  0  0  0  0  0  0  0  0  0  0
    6.2961   -1.9228   20.4741 N   0  0  0  0  0  0  0  0  0  0  0  0
    6.2953   -3.2123   21.1721 C   0  0  0  0  0  0  0  0  0  0  0  0
    7.6059   -3.4123   21.9113 C   0  0  0  0  0  0  0  0  0  0  0  0
    6.0395   -1.7399   19.1622 C   0  0  0  0  0  0  0  0  0  0  0  0
    5.8101   -2.6829   18.4155 O   0  0  0  0  0  0  0  0  0  0  0  0
    6.0389   -0.3124   18.6494 C   0  0  0  0  0  0  0  0  0  0  0  0
    4.7806    0.6481   19.4379 Cl  0  0  0  0  0  0  0  0  0  0  0  0
  1  2  1  0
  2  3  2  0
  2  4  1  0
  4  5  1  0
  5  6  1  0
  6  7  1  0
  7  8  1  0
  8  9  1  0
  9 10  2  0
 10 11  1  0
 11 12  2  0
 12 13  1  0
 13 14  2  0
 14 15  1  0
 15 16  1  0
 16 17  1  0
 17 18  1  0
 18 19  1  0
 19 20  1  0
 20 21  1  0
 19 22  1  0
 22 23  2  0
 22 24  1  0
 24 25  1  0
  8  4  1  0
 14  9  1  0
 21 16  1  0
M  END
