CVD-0001048|dock_bobby27042020.39|mol2|28|dock1
     RDKit          3D

 34 38  0  0  0  0  0  0  0  0999 V2000
    5.5163   -3.9148   19.7597 O   0  0  0  0  0  0  0  0  0  0  0  0
    5.5984   -2.8057   19.2355 N   0  0  0  0  0  0  0  0  0  0  0  0
    5.0319   -2.4949   18.2015 O   0  0  0  0  0  0  0  0  0  0  0  0
    6.4308   -1.7913   19.8955 C   0  0  0  0  0  0  0  0  0  0  0  0
    6.7175   -0.6085   19.2390 C   0  0  0  0  0  0  0  0  0  0  0  0
    7.4569    0.3704   19.8750 C   0  0  0  0  0  0  0  0  0  0  0  0
    7.9125    0.1720   21.1761 C   0  0  0  0  0  0  0  0  0  0  0  0
    7.7149   -1.0802   21.8002 C   0  0  0  0  0  0  0  0  0  0  0  0
    6.9224   -2.0333   21.1669 C   0  0  0  0  0  0  0  0  0  0  0  0
    8.3050   -1.4547   23.0777 N   0  0  0  0  0  0  0  0  0  0  0  0
    8.6938   -0.5768   23.8438 O   0  0  0  0  0  0  0  0  0  0  0  0
    8.4556   -2.6405   23.3180 O   0  0  0  0  0  0  0  0  0  0  0  0
    8.5641    1.3044   21.7694 N   0  0  0  0  0  0  0  0  0  0  0  0
    7.8105    2.4655   21.8232 N   0  0  0  0  0  0  0  0  0  0  0  0
    8.6143    3.3816   22.3722 C   0  0  0  0  0  0  0  0  0  0  0  0
    9.8603    2.8246   22.6949 C   0  0  0  0  0  0  0  0  0  0  0  0
    9.8117    1.4957   22.3226 C   0  0  0  0  0  0  0  0  0  0  0  0
   10.9022    0.5118   22.4996 C   0  0  0  0  0  0  0  0  0  0  0  0
   11.8107    0.6919   23.5373 C   0  0  0  0  0  0  0  0  0  0  0  0
   12.8639   -0.1845   23.7287 C   0  0  0  0  0  0  0  0  0  0  0  0
   13.0092   -1.2549   22.8751 C   0  0  0  0  0  0  0  0  0  0  0  0
   14.3437   -2.3514   23.0964 Cl  0  0  0  0  0  0  0  0  0  0  0  0
   12.1159   -1.4737   21.8503 C   0  0  0  0  0  0  0  0  0  0  0  0
   11.0573   -0.5999   21.6764 C   0  0  0  0  0  0  0  0  0  0  0  0
    8.1440    4.7618   22.5685 C   0  0  0  0  0  0  0  0  0  0  0  0
    7.0747    5.2463   21.8219 C   0  0  0  0  0  0  0  0  0  0  0  0
    6.6192    6.5199   21.9836 C   0  0  0  0  0  0  0  0  0  0  0  0
    7.2202    7.3951   22.9191 C   0  0  0  0  0  0  0  0  0  0  0  0
    6.7847    8.7260   23.1247 C   0  0  0  0  0  0  0  0  0  0  0  0
    7.4022    9.5250   24.0408 C   0  0  0  0  0  0  0  0  0  0  0  0
    8.4633    9.0551   24.7865 C   0  0  0  0  0  0  0  0  0  0  0  0
    8.9191    7.7804   24.6246 C   0  0  0  0  0  0  0  0  0  0  0  0
    8.3109    6.9132   23.6862 C   0  0  0  0  0  0  0  0  0  0  0  0
    8.7500    5.5845   23.4849 C   0  0  0  0  0  0  0  0  0  0  0  0
  1  2  1  0
  2  3  2  0
  2  4  1  0
  4  5  2  0
  5  6  1  0
  6  7  2  0
  7  8  1  0
  8  9  2  0
  8 10  1  0
 10 11  1  0
 10 12  2  0
  7 13  1  0
 13 14  1  0
 14 15  2  0
 15 16  1  0
 16 17  2  0
 17 18  1  0
 18 19  2  0
 19 20  1  0
 20 21  2  0
 21 22  1  0
 21 23  1  0
 23 24  2  0
 15 25  1  0
 25 26  2  0
 26 27  1  0
 27 28  2  0
 28 29  1  0
 29 30  2  0
 30 31  1  0
 31 32  2  0
 32 33  1  0
 33 34  2  0
  9  4  1  0
 17 13  1  0
 24 18  1  0
 34 25  1  0
 33 28  1  0
M  CHG  4   1  -1   2   1  10   1  11  -1
M  END
