CVD-0002803|dock_bobby27042020.61|mol2|47|dock2
     RDKit          3D

 21 23  0  0  0  0  0  0  0  0999 V2000
    6.6260   -3.1964   23.4683 N   0  0  0  0  0  0  0  0  0  0  0  0
    7.1342   -3.1386   22.2474 C   0  0  0  0  0  0  0  0  0  0  0  0
    6.4292   -3.0633   21.2370 O   0  0  0  0  0  0  0  0  0  0  0  0
    8.6445   -3.1765   22.1489 C   0  0  0  0  0  0  0  0  0  0  0  0
    9.3170   -1.8815   22.6083 C   0  0  0  0  0  0  0  0  0  0  0  0
   10.8144   -1.9467   22.3280 C   0  0  0  0  0  0  0  0  0  0  0  0
   11.5343   -0.6348   22.5340 C   0  0  0  0  0  0  0  0  0  0  0  0
   12.9261   -0.6133   22.5849 C   0  0  0  0  0  0  0  0  0  0  0  0
   13.6227    0.5801   22.6700 C   0  0  0  0  0  0  0  0  0  0  0  0
   12.9343    1.7725   22.7054 C   0  0  0  0  0  0  0  0  0  0  0  0
   11.5510    1.7685   22.6557 C   0  0  0  0  0  0  0  0  0  0  0  0
   10.8338    0.5777   22.5701 C   0  0  0  0  0  0  0  0  0  0  0  0
    9.3216    0.6117   22.6158 C   0  0  0  0  0  0  0  0  0  0  0  0
    8.6659   -0.6295   22.0096 C   0  0  0  0  0  0  0  0  0  0  0  0
    8.7284   -0.6055   20.5575 N   0  0  0  0  0  0  0  0  0  0  0  0
    7.7641   -0.0480   19.7221 C   0  0  0  0  0  0  0  0  0  0  0  0
    6.7915    0.8148   20.2081 C   0  0  0  0  0  0  0  0  0  0  0  0
    5.8581    1.3407   19.3320 C   0  0  0  0  0  0  0  0  0  0  0  0
    5.9283    0.9876   18.0034 C   0  0  0  0  0  0  0  0  0  0  0  0
    6.8521    0.1607   17.5110 N   0  0  0  0  0  0  0  0  0  0  0  0
    7.7491   -0.3441   18.3634 C   0  0  0  0  0  0  0  0  0  0  0  0
  1  2  1  0
  2  3  2  0
  2  4  1  0
  4  5  1  0
  5  6  1  0
  6  7  1  0
  7  8  2  0
  8  9  1  0
  9 10  2  0
 10 11  1  0
 11 12  2  0
 12 13  1  0
 13 14  1  0
 14 15  1  0
 15 16  1  0
 16 17  2  0
 17 18  1  0
 18 19  2  0
 19 20  1  0
 20 21  2  0
 14  5  1  0
 21 16  1  0
 12  7  1  0
M  END
