CVD-0000831|dock_bobby27042020.26|mol2|8|dock3
     RDKit          3D

 29 31  0  0  0  0  0  0  0  0999 V2000
   13.5752    5.1348   21.8428 Cl  0  0  0  0  0  0  0  0  0  0  0  0
   12.2757    3.9767   22.1556 C   0  0  0  0  0  0  0  0  0  0  0  0
   12.8074    2.6568   22.6793 C   0  0  0  0  0  0  0  0  0  0  0  0
   14.0095    2.4534   22.7950 O   0  0  0  0  0  0  0  0  0  0  0  0
   11.8933    1.7200   23.0048 N   0  0  0  0  0  0  0  0  0  0  0  0
   12.2595    0.3945   23.5085 C   0  0  0  0  0  0  0  0  0  0  0  0
   11.6120   -0.6897   22.6671 C   0  0  0  0  0  0  0  0  0  0  0  0
   10.1547   -0.5316   22.6698 N   0  0  0  0  0  0  0  0  0  0  0  0
    9.5201   -1.6025   21.8889 C   0  0  0  0  0  0  0  0  0  0  0  0
    8.0755   -1.3071   21.5617 C   0  0  0  0  0  0  0  0  0  0  0  0
    7.6777   -1.1088   20.2448 C   0  0  0  0  0  0  0  0  0  0  0  0
    6.3452   -0.8366   19.9533 C   0  0  0  0  0  0  0  0  0  0  0  0
    5.4477   -0.7722   21.0133 C   0  0  0  0  0  0  0  0  0  0  0  0
    5.8035   -0.9588   22.2891 N   0  0  0  0  0  0  0  0  0  0  0  0
    7.0897   -1.2230   22.5702 C   0  0  0  0  0  0  0  0  0  0  0  0
    7.4479   -1.4234   24.0234 C   0  0  0  0  0  0  0  0  0  0  0  0
    7.6966   -2.8219   24.3407 N   0  0  0  0  0  0  0  0  0  0  0  0
    7.8500   -3.2095   25.6199 C   0  0  0  0  0  0  0  0  0  0  0  0
    7.7366   -2.4081   26.5394 O   0  0  0  0  0  0  0  0  0  0  0  0
    8.1349   -4.5131   25.8964 N   0  0  0  0  0  0  0  0  0  0  0  0
    7.9039   -5.1167   27.2141 C   0  0  0  0  0  0  0  0  0  0  0  0
    9.1166   -5.9229   27.6318 C   0  0  0  0  0  0  0  0  0  0  0  0
    9.4569   -6.9016   26.6705 O   0  0  0  0  0  0  0  0  0  0  0  0
    9.7474   -6.2807   25.4180 C   0  0  0  0  0  0  0  0  0  0  0  0
    8.5569   -5.5038   24.9013 C   0  0  0  0  0  0  0  0  0  0  0  0
    5.9139   -0.6284   18.5931 C   0  0  0  0  0  0  0  0  0  0  0  0
    5.5824   -0.4318   17.5178 N   0  0  0  0  0  0  0  0  0  0  0  0
    9.8161    0.7761   22.1142 C   0  0  0  0  0  0  0  0  0  0  0  0
   10.4383    1.8882   22.9388 C   0  0  0  0  0  0  0  0  0  0  0  0
  1  2  1  0
  2  3  1  0
  3  4  2  0
  3  5  1  0
  5  6  1  0
  6  7  1  0
  7  8  1  0
  8  9  1  0
  9 10  1  0
 10 11  2  0
 11 12  1  0
 12 13  2  0
 13 14  1  0
 14 15  2  0
 15 16  1  0
 16 17  1  0
 17 18  1  0
 18 19  2  0
 18 20  1  0
 20 21  1  0
 21 22  1  0
 22 23  1  0
 23 24  1  0
 24 25  1  0
 12 26  1  0
 26 27  3  0
  8 28  1  0
 28 29  1  0
 29  5  1  0
 15 10  1  0
 25 20  1  0
M  END
