CVD-0003581|dock_bobby27042020.59|mol2|21|dock2
     RDKit          3D

 23 24  0  0  0  0  0  0  0  0999 V2000
   13.7613    4.4977   22.1698 C   0  0  0  0  0  0  0  0  0  0  0  0
   12.3064    4.4054   22.6138 C   0  0  0  0  0  0  0  0  0  0  0  0
   12.2116    4.8993   23.9911 N   0  0  0  0  0  0  0  0  0  0  0  0
   12.5745    6.1337   24.3462 C   0  0  0  0  0  0  0  0  0  0  0  0
   13.0180    6.9633   23.5581 O   0  0  0  0  0  0  0  0  0  0  0  0
   12.3871    6.4442   25.8149 C   0  0  0  0  0  0  0  0  0  0  0  0
   12.5613    8.1676   26.1709 Cl  0  0  0  0  0  0  0  0  0  0  0  0
   11.7874    2.9840   22.5096 C   0  0  0  0  0  0  0  0  0  0  0  0
   10.4873    2.7406   22.0858 C   0  0  0  0  0  0  0  0  0  0  0  0
    9.9965    1.4522   21.9790 C   0  0  0  0  0  0  0  0  0  0  0  0
   10.8073    0.3661   22.2979 C   0  0  0  0  0  0  0  0  0  0  0  0
   10.6302   -1.0575   22.2944 C   0  0  0  0  0  0  0  0  0  0  0  0
    9.3841   -1.7933   21.8956 C   0  0  0  0  0  0  0  0  0  0  0  0
    9.0476   -2.9502   22.8158 C   0  0  0  0  0  0  0  0  0  0  0  0
    7.9551   -3.7618   22.2982 N   0  0  0  0  0  0  0  0  0  0  0  0
    7.6604   -4.9678   22.7875 C   0  0  0  0  0  0  0  0  0  0  0  0
    6.4930   -5.6691   22.1574 C   0  0  0  0  0  0  0  0  0  0  0  0
    8.2976   -5.4677   23.7094 O   0  0  0  0  0  0  0  0  0  0  0  0
   11.8079   -1.5839   22.7166 C   0  0  0  0  0  0  0  0  0  0  0  0
   12.7090   -0.5942   22.9937 N   0  0  0  0  0  0  0  0  0  0  0  0
   14.0812   -0.7948   23.4422 C   0  0  0  0  0  0  0  0  0  0  0  0
   12.1188    0.6226   22.7312 C   0  0  0  0  0  0  0  0  0  0  0  0
   12.6153    1.9177   22.8360 C   0  0  0  0  0  0  0  0  0  0  0  0
  1  2  1  0
  2  3  1  0
  3  4  1  0
  4  5  2  0
  4  6  1  0
  6  7  1  0
  2  8  1  0
  8  9  2  0
  9 10  1  0
 10 11  2  0
 11 12  1  0
 12 13  1  0
 13 14  1  0
 14 15  1  0
 15 16  1  0
 16 17  1  0
 16 18  2  0
 12 19  2  0
 19 20  1  0
 20 21  1  0
 20 22  1  0
 22 23  2  0
 23  8  1  0
 22 11  1  0
M  END
