CVD-0002816|dock_bobby27042020.76|mol2|2|dock2
     RDKit          3D

 17 18  0  0  0  0  0  0  0  0999 V2000
   15.2242   -2.5202   25.3951 O   0  0  0  0  0  0  0  0  0  0  0  0
   14.2709   -1.9871   24.5775 C   0  0  0  0  0  0  0  0  0  0  0  0
   13.6012   -0.8333   24.9506 C   0  0  0  0  0  0  0  0  0  0  0  0
   12.6344   -0.2925   24.1215 C   0  0  0  0  0  0  0  0  0  0  0  0
   12.3240   -0.8986   22.9085 C   0  0  0  0  0  0  0  0  0  0  0  0
   11.3614   -0.3744   22.0663 N   0  0  0  0  0  0  0  0  0  0  0  0
   10.4437    0.6752   22.4637 C   0  0  0  0  0  0  0  0  0  0  0  0
   11.0720    2.0466   22.5230 C   0  0  0  0  0  0  0  0  0  0  0  0
   12.4403    2.2060   22.3653 C   0  0  0  0  0  0  0  0  0  0  0  0
   13.0197    3.4629   22.4164 C   0  0  0  0  0  0  0  0  0  0  0  0
   12.2334    4.5827   22.6266 C   0  0  0  0  0  0  0  0  0  0  0  0
   10.8594    4.4387   22.7854 C   0  0  0  0  0  0  0  0  0  0  0  0
   10.2838    3.1712   22.7327 C   0  0  0  0  0  0  0  0  0  0  0  0
   10.0272    5.5958   23.0045 C   0  0  0  0  0  0  0  0  0  0  0  0
    9.3887    6.5304   23.1591 N   0  0  0  0  0  0  0  0  0  0  0  0
   13.0022   -2.0555   22.5438 C   0  0  0  0  0  0  0  0  0  0  0  0
   13.9693   -2.5976   23.3712 C   0  0  0  0  0  0  0  0  0  0  0  0
  1  2  1  0
  2  3  2  0
  3  4  1  0
  4  5  2  0
  5  6  1  0
  6  7  1  0
  7  8  1  0
  8  9  2  0
  9 10  1  0
 10 11  2  0
 11 12  1  0
 12 13  2  0
 12 14  1  0
 14 15  3  0
  5 16  1  0
 16 17  2  0
 17  2  1  0
 13  8  1  0
M  END
