CVD-0003784|dock_bobby27042020.58|mol2|35|dock2
     RDKit          3D

 23 25  0  0  0  0  0  0  0  0999 V2000
   13.7228    5.7216   21.2745 N   0  0  0  0  0  0  0  0  0  0  0  0
   13.6023    5.2547   22.8011 S   0  0  0  0  0  0  0  0  0  0  0  0
   14.9178    4.8962   23.2393 O   0  0  0  0  0  0  0  0  0  0  0  0
   12.8953    6.2830   23.5039 O   0  0  0  0  0  0  0  0  0  0  0  0
   12.6090    3.7943   22.8633 C   0  0  0  0  0  0  0  0  0  0  0  0
   11.2304    3.8999   22.9108 C   0  0  0  0  0  0  0  0  0  0  0  0
   10.4576    2.7535   22.9621 C   0  0  0  0  0  0  0  0  0  0  0  0
   11.0426    1.4909   22.9732 C   0  0  0  0  0  0  0  0  0  0  0  0
   12.4312    1.4098   22.9287 C   0  0  0  0  0  0  0  0  0  0  0  0
   13.2132    2.5499   22.8727 C   0  0  0  0  0  0  0  0  0  0  0  0
   10.2628    0.3436   23.0270 N   0  0  0  0  0  0  0  0  0  0  0  0
    9.1720    0.1676   23.9903 C   0  0  0  0  0  0  0  0  0  0  0  0
    9.2048   -1.1871   24.6394 C   0  0  0  0  0  0  0  0  0  0  0  0
    9.1714   -2.3018   23.5879 C   0  0  0  0  0  0  0  0  0  0  0  0
    9.2010   -3.6736   24.2268 C   0  0  0  0  0  0  0  0  0  0  0  0
    8.1186   -3.7917   25.1815 O   0  0  0  0  0  0  0  0  0  0  0  0
    8.1856   -4.7362   26.1603 C   0  0  0  0  0  0  0  0  0  0  0  0
    7.1509   -4.7560   27.1456 C   0  0  0  0  0  0  0  0  0  0  0  0
    7.3260   -5.7391   28.0723 C   0  0  0  0  0  0  0  0  0  0  0  0
    8.7389   -6.6194   27.7329 S   0  0  0  0  0  0  0  0  0  0  0  0
    9.1226   -5.6970   26.3567 C   0  0  0  0  0  0  0  0  0  0  0  0
   10.3080   -2.0881   22.6203 C   0  0  0  0  0  0  0  0  0  0  0  0
   10.2960   -0.7125   21.9886 C   0  0  0  0  0  0  0  0  0  0  0  0
  1  2  1  0
  2  3  2  0
  2  4  2  0
  2  5  1  0
  5  6  2  0
  6  7  1  0
  7  8  2  0
  8  9  1  0
  9 10  2  0
  8 11  1  0
 11 12  1  0
 12 13  1  0
 13 14  1  0
 14 15  1  0
 15 16  1  0
 16 17  1  0
 17 18  1  0
 18 19  2  0
 19 20  1  0
 20 21  1  0
 14 22  1  0
 22 23  1  0
 10  5  1  0
 23 11  1  0
 21 17  2  0
M  END
