CVD-0000846|dock_bobby27042020.83|mol2|11|dock3
     RDKit          3D

 18 20  0  0  0  0  0  0  0  0999 V2000
    9.9636   -2.0539   21.0750 O   0  0  0  0  0  0  0  0  0  0  0  0
    9.9790   -0.8948   21.4515 C   0  0  0  0  0  0  0  0  0  0  0  0
    9.0700    0.1154   21.1274 N   0  0  0  0  0  0  0  0  0  0  0  0
    9.4600    1.2866   21.7649 C   0  0  0  0  0  0  0  0  0  0  0  0
   10.5674    1.0407   22.4683 C   0  0  0  0  0  0  0  0  0  0  0  0
   10.9138   -0.2940   22.2980 N   0  0  0  0  0  0  0  0  0  0  0  0
   12.0716   -0.8974   22.9261 C   0  0  0  0  0  0  0  0  0  0  0  0
   12.5541   -0.5023   24.1699 C   0  0  0  0  0  0  0  0  0  0  0  0
   13.6660   -1.1317   24.7012 C   0  0  0  0  0  0  0  0  0  0  0  0
   14.2664   -2.1346   23.9783 C   0  0  0  0  0  0  0  0  0  0  0  0
   13.8273   -2.5316   22.7854 N   0  0  0  0  0  0  0  0  0  0  0  0
   12.7518   -1.9206   22.2791 C   0  0  0  0  0  0  0  0  0  0  0  0
    7.8984    0.0364   20.2789 C   0  0  0  0  0  0  0  0  0  0  0  0
    7.8393   -0.9421   19.2896 C   0  0  0  0  0  0  0  0  0  0  0  0
    6.7324   -1.0445   18.4637 C   0  0  0  0  0  0  0  0  0  0  0  0
    5.6708   -0.1810   18.6087 C   0  0  0  0  0  0  0  0  0  0  0  0
    5.7161    0.7913   19.5818 C   0  0  0  0  0  0  0  0  0  0  0  0
    6.8187    0.9067   20.4119 C   0  0  0  0  0  0  0  0  0  0  0  0
  1  2  2  0
  2  3  1  0
  3  4  1  0
  4  5  2  0
  5  6  1  0
  6  7  1  0
  7  8  2  0
  8  9  1  0
  9 10  2  0
 10 11  1  0
 11 12  2  0
  3 13  1  0
 13 14  2  0
 14 15  1  0
 15 16  2  0
 16 17  1  0
 17 18  2  0
  6  2  1  0
 12  7  1  0
 18 13  1  0
M  END
