CVD-0001548|dock_bobby27042020.23|mol2|31|dock2
     RDKit          3D

 33 36  0  0  0  0  0  0  0  0999 V2000
   14.7843   -1.8907   24.5670 N   0  0  0  0  0  0  0  0  0  0  0  0
   13.6127   -1.4378   24.0068 C   0  0  0  0  0  0  0  0  0  0  0  0
   13.0439   -0.2280   24.4103 C   0  0  0  0  0  0  0  0  0  0  0  0
   11.8648    0.2217   23.8429 C   0  0  0  0  0  0  0  0  0  0  0  0
   11.2164   -0.5129   22.8626 C   0  0  0  0  0  0  0  0  0  0  0  0
    9.9318   -0.0141   22.2454 C   0  0  0  0  0  0  0  0  0  0  0  0
    9.0003   -1.0969   21.9254 N   0  0  0  0  0  0  0  0  0  0  0  0
    8.7121   -1.1188   20.5323 N   0  0  0  0  0  0  0  0  0  0  0  0
    7.4533   -0.7083   20.0273 C   0  0  0  0  0  0  0  0  0  0  0  0
    7.1573   -0.7243   18.6678 C   0  0  0  0  0  0  0  0  0  0  0  0
    5.9135   -0.3131   18.2195 C   0  0  0  0  0  0  0  0  0  0  0  0
    4.9556    0.1256   19.1170 C   0  0  0  0  0  0  0  0  0  0  0  0
    5.2365    0.1589   20.4839 C   0  0  0  0  0  0  0  0  0  0  0  0
    4.2928    0.5973   21.3832 N   0  0  0  0  0  0  0  0  0  0  0  0
    6.4914   -0.2599   20.9268 C   0  0  0  0  0  0  0  0  0  0  0  0
    8.4255   -1.9357   22.9121 C   0  0  0  0  0  0  0  0  0  0  0  0
    8.7413   -1.7460   24.2515 C   0  0  0  0  0  0  0  0  0  0  0  0
    8.1799   -2.5561   25.2233 C   0  0  0  0  0  0  0  0  0  0  0  0
    7.2983   -3.5607   24.8673 C   0  0  0  0  0  0  0  0  0  0  0  0
    6.9688   -3.7619   23.5329 C   0  0  0  0  0  0  0  0  0  0  0  0
    7.5339   -2.9446   22.5590 C   0  0  0  0  0  0  0  0  0  0  0  0
    6.0309   -4.8299   23.1603 C   0  0  0  0  0  0  0  0  0  0  0  0
    5.1892   -5.1737   24.1707 F   0  0  0  0  0  0  0  0  0  0  0  0
    5.8991   -5.4809   22.0120 C   0  0  0  0  0  0  0  0  0  0  0  0
    4.9416   -6.5028   21.7815 C   0  0  0  0  0  0  0  0  0  0  0  0
    3.5942   -6.4065   22.1921 C   0  0  0  0  0  0  0  0  0  0  0  0
    2.8014   -7.4850   21.9068 O   0  0  0  0  0  0  0  0  0  0  0  0
    1.3887   -7.2796   22.0146 C   0  0  0  0  0  0  0  0  0  0  0  0
    1.0146   -6.2134   22.9079 N   0  0  0  0  0  0  0  0  0  0  0  0
    1.9234   -5.2834   23.2355 C   0  0  0  0  0  0  0  0  0  0  0  0
    3.1649   -5.3153   22.8534 N   0  0  0  0  0  0  0  0  0  0  0  0
   11.7787   -1.7135   22.4585 C   0  0  0  0  0  0  0  0  0  0  0  0
   12.9573   -2.1745   23.0179 C   0  0  0  0  0  0  0  0  0  0  0  0
  1  2  1  0
  2  3  2  0
  3  4  1  0
  4  5  2  0
  5  6  1  0
  6  7  1  0
  7  8  1  0
  8  9  1  0
  9 10  2  0
 10 11  1  0
 11 12  2  0
 12 13  1  0
 13 14  1  0
 13 15  2  0
  7 16  1  0
 16 17  2  0
 17 18  1  0
 18 19  2  0
 19 20  1  0
 20 21  2  0
 20 22  1  0
 22 23  1  0
 22 24  2  0
 24 25  1  0
 25 26  2  0
 26 27  1  0
 27 28  1  0
 28 29  1  0
 29 30  1  0
 30 31  2  0
  5 32  1  0
 32 33  2  0
 33  2  1  0
 15  9  1  0
 21 16  1  0
 31 26  1  0
M  END
