CVD-0001330|dock_bobby27042020.38|mol2|29|dock1
     RDKit          3D

 35 38  0  0  0  0  0  0  0  0999 V2000
    5.7626    0.6624   18.2260 C   0  0  0  0  0  0  0  0  0  0  0  0
    6.3124   -0.4655   18.5620 C   0  0  0  0  0  0  0  0  0  0  0  0
    5.9654   -1.2684   19.7695 C   0  0  0  0  0  0  0  0  0  0  0  0
    7.1458   -1.6614   20.5490 N   0  0  0  0  0  0  0  0  0  0  0  0
    7.4872   -2.9303   21.0205 C   0  0  0  0  0  0  0  0  0  0  0  0
    8.6418   -2.9282   21.7283 C   0  0  0  0  0  0  0  0  0  0  0  0
    9.3597   -1.3811   21.8688 S   0  0  0  0  0  0  0  0  0  0  0  0
    8.0619   -0.7024   20.9384 C   0  0  0  0  0  0  0  0  0  0  0  0
    7.9154    0.5408   20.6165 N   0  0  0  0  0  0  0  0  0  0  0  0
    8.9815    1.2897   21.1378 N   0  0  0  0  0  0  0  0  0  0  0  0
    8.6169    2.1957   21.9691 C   0  0  0  0  0  0  0  0  0  0  0  0
    9.5858    3.0534   22.5968 C   0  0  0  0  0  0  0  0  0  0  0  0
   10.8405    3.1751   22.1484 C   0  0  0  0  0  0  0  0  0  0  0  0
   11.8645    4.0049   22.7140 C   0  0  0  0  0  0  0  0  0  0  0  0
   13.0778    4.3967   22.2580 C   0  0  0  0  0  0  0  0  0  0  0  0
   13.6469    5.2186   23.2593 C   0  0  0  0  0  0  0  0  0  0  0  0
   12.7663    5.2798   24.2481 C   0  0  0  0  0  0  0  0  0  0  0  0
   11.6497    4.5440   23.9532 O   0  0  0  0  0  0  0  0  0  0  0  0
    6.6417   -4.1315   20.7366 C   0  0  0  0  0  0  0  0  0  0  0  0
    6.2978   -4.3356   19.5779 O   0  0  0  0  0  0  0  0  0  0  0  0
    6.2442   -4.9894   21.6994 N   0  0  0  0  0  0  0  0  0  0  0  0
    6.5249   -4.7738   23.1205 C   0  0  0  0  0  0  0  0  0  0  0  0
    5.2416   -4.8278   23.9283 C   0  0  0  0  0  0  0  0  0  0  0  0
    4.5737   -6.1182   23.7341 N   0  0  0  0  0  0  0  0  0  0  0  0
    3.3483   -6.1913   24.5470 C   0  0  0  0  0  0  0  0  0  0  0  0
    3.6124   -6.4237   26.0008 C   0  0  0  0  0  0  0  0  0  0  0  0
    4.6941   -6.9910   26.4999 C   0  0  0  0  0  0  0  0  0  0  0  0
    4.9918   -7.2393   27.9151 C   0  0  0  0  0  0  0  0  0  0  0  0
    6.2834   -7.0916   28.4138 C   0  0  0  0  0  0  0  0  0  0  0  0
    6.5632   -7.3262   29.7498 C   0  0  0  0  0  0  0  0  0  0  0  0
    5.5590   -7.7124   30.6109 C   0  0  0  0  0  0  0  0  0  0  0  0
    4.2738   -7.8643   30.1370 C   0  0  0  0  0  0  0  0  0  0  0  0
    3.9917   -7.6301   28.8015 C   0  0  0  0  0  0  0  0  0  0  0  0
    4.2585   -6.2832   22.3175 C   0  0  0  0  0  0  0  0  0  0  0  0
    5.5221   -6.2461   21.4774 C   0  0  0  0  0  0  0  0  0  0  0  0
  1  2  2  0
  2  3  1  0
  3  4  1  0
  4  5  1  0
  5  6  2  0
  6  7  1  0
  7  8  1  0
  8  9  2  0
  9 10  1  0
 10 11  2  0
 11 12  1  0
 12 13  2  0
 13 14  1  0
 14 15  2  0
 15 16  1  0
 16 17  2  0
 17 18  1  0
  5 19  1  0
 19 20  2  0
 19 21  1  0
 21 22  1  0
 22 23  1  0
 23 24  1  0
 24 25  1  0
 25 26  1  0
 26 27  2  0
 27 28  1  0
 28 29  2  0
 29 30  1  0
 30 31  2  0
 31 32  1  0
 32 33  2  0
 24 34  1  0
 34 35  1  0
  8  4  1  0
 18 14  1  0
 35 21  1  0
 33 28  1  0
M  END
