CVD-0000272|dock_bobby27042020.27|mol2|38|dock2
     RDKit          3D

 22 24  0  0  0  0  0  0  0  0999 V2000
    9.1059    1.4407   20.5587 O   0  0  0  0  0  0  0  0  0  0  0  0
    8.9089    0.8938   21.6277 C   0  0  0  0  0  0  0  0  0  0  0  0
    9.4381    1.4387   22.9381 C   0  0  0  0  0  0  0  0  0  0  0  0
   10.7875    2.1126   22.8173 C   0  0  0  0  0  0  0  0  0  0  0  0
   10.8409    3.4672   22.5010 C   0  0  0  0  0  0  0  0  0  0  0  0
   12.0507    4.1315   22.4005 C   0  0  0  0  0  0  0  0  0  0  0  0
   13.2279    3.4499   22.6168 C   0  0  0  0  0  0  0  0  0  0  0  0
   13.2028    2.1005   22.9267 C   0  0  0  0  0  0  0  0  0  0  0  0
   11.9904    1.4272   23.0195 C   0  0  0  0  0  0  0  0  0  0  0  0
   11.9048    0.0893   23.3100 O   0  0  0  0  0  0  0  0  0  0  0  0
   11.7682   -0.8982   22.2580 C   0  0  0  0  0  0  0  0  0  0  0  0
   13.1724   -1.2670   21.8593 C   0  0  0  0  0  0  0  0  0  0  0  0
   13.5647   -2.2702   22.9088 C   0  0  0  0  0  0  0  0  0  0  0  0
   12.3708   -2.8718   23.3894 O   0  0  0  0  0  0  0  0  0  0  0  0
   11.2513   -2.2094   22.8181 C   0  0  0  0  0  0  0  0  0  0  0  0
    8.2105   -0.2264   21.7959 O   0  0  0  0  0  0  0  0  0  0  0  0
    7.9754   -1.0053   20.6064 C   0  0  0  0  0  0  0  0  0  0  0  0
    7.2037   -0.2686   19.5596 C   0  0  0  0  0  0  0  0  0  0  0  0
    7.5277    0.3150   18.3804 C   0  0  0  0  0  0  0  0  0  0  0  0
    6.3871    0.8295   17.8744 N   0  0  0  0  0  0  0  0  0  0  0  0
    5.3676    0.6132   18.6482 N   0  0  0  0  0  0  0  0  0  0  0  0
    5.8770   -0.0696   19.6952 N   0  0  0  0  0  0  0  0  0  0  0  0
  1  2  2  0
  2  3  1  0
  3  4  1  0
  4  5  2  0
  5  6  1  0
  6  7  2  0
  7  8  1  0
  8  9  2  0
  9 10  1  0
 10 11  1  0
 11 12  1  0
 12 13  1  0
 13 14  1  0
 14 15  1  0
  2 16  1  0
 16 17  1  0
 17 18  1  0
 18 19  2  0
 19 20  1  0
 20 21  2  0
 21 22  1  0
  9  4  1  0
 15 11  1  0
 22 18  1  0
M  END
