CVD-0001903|dock_bobby27042020.79|mol2|30|dock1
     RDKit          3D

 32 34  0  0  0  0  0  0  0  0999 V2000
    6.7759    7.3549   21.6803 C   0  0  0  0  0  0  0  0  0  0  0  0
    8.1197    7.0336   22.0344 O   0  0  0  0  0  0  0  0  0  0  0  0
    8.5072    5.7231   22.1627 C   0  0  0  0  0  0  0  0  0  0  0  0
    9.7641    5.4618   22.6726 C   0  0  0  0  0  0  0  0  0  0  0  0
   10.2057    4.1597   22.8234 C   0  0  0  0  0  0  0  0  0  0  0  0
    9.3895    3.0843   22.4645 C   0  0  0  0  0  0  0  0  0  0  0  0
    9.7998    1.7274   22.6036 N   0  0  0  0  0  0  0  0  0  0  0  0
   10.9823    1.1841   22.9917 C   0  0  0  0  0  0  0  0  0  0  0  0
   11.9831    1.8187   23.3114 O   0  0  0  0  0  0  0  0  0  0  0  0
   10.9237   -0.3628   23.0049 C   0  0  0  0  0  0  0  0  0  0  0  0
    9.7014   -0.9330   23.6454 N   0  0  0  0  0  0  0  0  0  0  0  0
    9.3320   -0.3580   24.8613 C   0  0  0  0  0  0  0  0  0  0  0  0
    9.9943    0.5560   25.3506 O   0  0  0  0  0  0  0  0  0  0  0  0
    8.1333   -0.7602   25.6622 C   0  0  0  0  0  0  0  0  0  0  0  0
    7.8909   -0.3727   26.8887 C   0  0  0  0  0  0  0  0  0  0  0  0
    8.9724   -1.9812   22.9867 C   0  0  0  0  0  0  0  0  0  0  0  0
    7.9477   -1.6896   22.0934 C   0  0  0  0  0  0  0  0  0  0  0  0
    7.2320   -2.6990   21.4748 C   0  0  0  0  0  0  0  0  0  0  0  0
    7.5209   -4.0287   21.7406 C   0  0  0  0  0  0  0  0  0  0  0  0
    6.6176   -5.3173   20.9478 S   0  0  0  0  0  0  0  0  0  0  0  0
    5.6183   -6.0043   22.2662 C   0  0  0  0  0  0  0  0  0  0  0  0
    8.5420   -4.3275   22.6298 C   0  0  0  0  0  0  0  0  0  0  0  0
    9.2586   -3.3164   23.2455 C   0  0  0  0  0  0  0  0  0  0  0  0
   12.1851   -1.0065   23.5716 C   0  0  0  0  0  0  0  0  0  0  0  0
   12.7571   -0.6467   24.7856 C   0  0  0  0  0  0  0  0  0  0  0  0
   13.9067   -1.2816   25.2227 C   0  0  0  0  0  0  0  0  0  0  0  0
   14.4564   -2.2651   24.4326 C   0  0  0  0  0  0  0  0  0  0  0  0
   13.9340   -2.6371   23.2637 N   0  0  0  0  0  0  0  0  0  0  0  0
   12.8249   -2.0097   22.8614 C   0  0  0  0  0  0  0  0  0  0  0  0
    8.1081    3.3483   21.9431 C   0  0  0  0  0  0  0  0  0  0  0  0
    7.1454    2.2657   21.5271 C   0  0  0  0  0  0  0  0  0  0  0  0
    7.6855    4.6672   21.8005 C   0  0  0  0  0  0  0  0  0  0  0  0
  1  2  1  0
  2  3  1  0
  3  4  2  0
  4  5  1  0
  5  6  2  0
  6  7  1  0
  7  8  1  0
  8  9  2  0
  8 10  1  0
 10 11  1  0
 11 12  1  0
 12 13  2  0
 12 14  1  0
 14 15  2  0
 11 16  1  0
 16 17  2  0
 17 18  1  0
 18 19  2  0
 19 20  1  0
 20 21  1  0
 19 22  1  0
 22 23  2  0
 10 24  1  0
 24 25  2  0
 25 26  1  0
 26 27  2  0
 27 28  1  0
 28 29  2  0
  6 30  1  0
 30 31  1  0
 30 32  2  0
 32  3  1  0
 23 16  1  0
 29 24  1  0
M  END
