CVD-0002428|dock_bobby27042020.91|mol2|26|dock1
     RDKit          3D

 29 30  0  0  0  0  0  0  0  0999 V2000
    5.4750    0.3989   18.0031 C   0  0  0  0  0  0  0  0  0  0  0  0
    5.0860    0.3093   19.4613 C   0  0  0  0  0  0  0  0  0  0  0  0
    6.1536   -0.2620   20.2295 O   0  0  0  0  0  0  0  0  0  0  0  0
    7.4685    0.2989   20.0950 C   0  0  0  0  0  0  0  0  0  0  0  0
    8.3763    0.0884   21.2820 C   0  0  0  0  0  0  0  0  0  0  0  0
    8.9202   -1.3109   21.3535 C   0  0  0  0  0  0  0  0  0  0  0  0
    9.8512   -1.4287   22.4768 N   0  0  0  0  0  0  0  0  0  0  0  0
    9.1566   -1.3079   23.7680 C   0  0  0  0  0  0  0  0  0  0  0  0
    9.3457   -2.5071   24.6662 C   0  0  0  0  0  0  0  0  0  0  0  0
    8.5487   -2.6854   25.7864 C   0  0  0  0  0  0  0  0  0  0  0  0
    8.7200   -3.7868   26.6084 C   0  0  0  0  0  0  0  0  0  0  0  0
    9.6896   -4.7226   26.3189 C   0  0  0  0  0  0  0  0  0  0  0  0
   10.4877   -4.5576   25.2073 C   0  0  0  0  0  0  0  0  0  0  0  0
   10.3163   -3.4561   24.3854 C   0  0  0  0  0  0  0  0  0  0  0  0
   10.9156   -0.4420   22.3124 C   0  0  0  0  0  0  0  0  0  0  0  0
   10.3311    0.9427   22.2137 C   0  0  0  0  0  0  0  0  0  0  0  0
    9.4121    1.0466   21.1399 O   0  0  0  0  0  0  0  0  0  0  0  0
    4.7981    1.6733   20.1032 C   0  0  0  0  0  0  0  0  0  0  0  0
    5.0541    1.6309   21.5347 N   0  0  0  0  0  0  0  0  0  0  0  0
    5.8325    2.5317   22.1446 C   0  0  0  0  0  0  0  0  0  0  0  0
    6.0147    2.3494   23.6229 C   0  0  0  0  0  0  0  0  0  0  0  0
    6.3785    3.4441   21.5322 O   0  0  0  0  0  0  0  0  0  0  0  0
    3.3562    2.1110   19.8627 C   0  0  0  0  0  0  0  0  0  0  0  0
    2.4316    1.5566   20.4510 O   0  0  0  0  0  0  0  0  0  0  0  0
    3.1658    3.1118   19.0029 N   0  0  0  0  0  0  0  0  0  0  0  0
    1.8308    3.6042   18.6902 C   0  0  0  0  0  0  0  0  0  0  0  0
    1.7056    4.0544   17.2988 C   0  0  0  0  0  0  0  0  0  0  0  0
    1.6434    4.4613   16.1866 C   0  0  0  0  0  0  0  0  0  0  0  0
    1.5863    5.1268   14.5142 Br  0  0  0  0  0  0  0  0  0  0  0  0
  2  1  1  0
  2  3  1  0
  3  4  1  0
  4  5  1  0
  5  6  1  0
  6  7  1  0
  7  8  1  0
  8  9  1  0
  9 10  2  0
 10 11  1  0
 11 12  2  0
 12 13  1  0
 13 14  2  0
  7 15  1  0
 15 16  1  0
 16 17  1  0
  2 18  1  0
 18 19  1  0
 19 20  1  0
 20 21  1  0
 20 22  2  0
 18 23  1  0
 23 24  2  0
 23 25  1  0
 25 26  1  0
 26 27  1  0
 27 28  3  0
 28 29  1  0
 17  5  1  0
 14  9  1  0
M  END
