CVD-0000517|dock_bobby27042020.55|mol2|39|dock2
     RDKit          3D

 20 21  0  0  0  0  0  0  0  0999 V2000
   13.4595   -1.7943   20.5692 O   0  0  0  0  0  0  0  0  0  0  0  0
   12.8734   -1.4862   21.8221 C   0  0  0  0  0  0  0  0  0  0  0  0
   12.6921    0.0006   22.0144 C   0  0  0  0  0  0  0  0  0  0  0  0
   13.7295    0.7188   22.5991 C   0  0  0  0  0  0  0  0  0  0  0  0
   13.5902    2.0764   22.7831 C   0  0  0  0  0  0  0  0  0  0  0  0
   12.5014    2.7524   22.4268 N   0  0  0  0  0  0  0  0  0  0  0  0
   11.5005    2.0693   21.8627 C   0  0  0  0  0  0  0  0  0  0  0  0
   11.5305    0.6945   21.6280 C   0  0  0  0  0  0  0  0  0  0  0  0
   10.4679   -0.0380   21.0279 N   0  0  0  0  0  0  0  0  0  0  0  0
    9.1245    0.0921   21.1611 C   0  0  0  0  0  0  0  0  0  0  0  0
    8.5501    0.9148   21.8659 O   0  0  0  0  0  0  0  0  0  0  0  0
    8.3299   -0.9012   20.3388 C   0  0  0  0  0  0  0  0  0  0  0  0
    6.8262   -1.0253   20.6896 C   0  0  0  0  0  0  0  0  0  0  0  0
    6.3439   -2.2580   19.9294 C   0  0  0  0  0  0  0  0  0  0  0  0
    6.3533   -2.0140   18.4336 C   0  0  0  0  0  0  0  0  0  0  0  0
    5.5160   -0.7990   18.0643 C   0  0  0  0  0  0  0  0  0  0  0  0
    5.9815    0.4321   18.8249 C   0  0  0  0  0  0  0  0  0  0  0  0
    5.9863    0.1920   20.3293 C   0  0  0  0  0  0  0  0  0  0  0  0
    6.6105   -1.3188   22.1207 C   0  0  0  0  0  0  0  0  0  0  0  0
    6.4258   -1.5218   23.2252 N   0  0  0  0  0  0  0  0  0  0  0  0
  1  2  1  0
  2  3  1  0
  3  4  2  0
  4  5  1  0
  5  6  2  0
  6  7  1  0
  7  8  2  0
  8  9  1  0
  9 10  1  0
 10 11  2  0
 10 12  1  0
 12 13  1  0
 13 14  1  0
 14 15  1  0
 15 16  1  0
 16 17  1  0
 17 18  1  0
 13 19  1  0
 19 20  3  0
  8  3  1  0
 18 13  1  0
M  END
