CVD-0000955|dock_bobby27042020.11|mol2|19|dock2
     RDKit          3D

 25 27  0  0  0  0  0  0  0  0999 V2000
    5.0896   -4.2111   23.5192 C   0  0  0  0  0  0  0  0  0  0  0  0
    6.5780   -3.9264   23.3135 C   0  0  0  0  0  0  0  0  0  0  0  0
    7.3580   -5.2105   23.5207 C   0  0  0  0  0  0  0  0  0  0  0  0
    7.3589   -6.0786   21.9267 S   0  0  0  0  0  0  0  0  0  0  0  0
    6.7972   -4.6319   20.9899 C   0  0  0  0  0  0  0  0  0  0  0  0
    6.9422   -3.4409   21.9216 C   0  0  0  0  0  0  0  0  0  0  0  0
    5.9739   -2.3328   21.4392 C   0  0  0  0  0  0  0  0  0  0  0  0
    6.2962   -1.4526   20.2999 N   0  0  0  0  0  0  0  0  0  0  0  0
    5.6689   -0.1358   20.4640 C   0  0  0  0  0  0  0  0  0  0  0  0
    6.0302    0.8049   19.3313 C   0  0  0  0  0  0  0  0  0  0  0  0
    5.6738    0.2405   17.9613 C   0  0  0  0  0  0  0  0  0  0  0  0
    6.1185    1.0495   16.8690 O   0  0  0  0  0  0  0  0  0  0  0  0
    6.2510   -1.1668   17.8559 C   0  0  0  0  0  0  0  0  0  0  0  0
    5.8569   -2.0434   19.0329 C   0  0  0  0  0  0  0  0  0  0  0  0
    8.4431   -3.0063   21.8308 C   0  0  0  0  0  0  0  0  0  0  0  0
    8.9535   -1.9394   22.7784 C   0  0  0  0  0  0  0  0  0  0  0  0
    8.1859   -1.2313   23.4206 O   0  0  0  0  0  0  0  0  0  0  0  0
   10.3074   -1.8684   22.8120 N   0  0  0  0  0  0  0  0  0  0  0  0
   11.1693   -0.9916   23.5290 C   0  0  0  0  0  0  0  0  0  0  0  0
   10.8444   -0.3909   24.7458 C   0  0  0  0  0  0  0  0  0  0  0  0
   11.6561    0.4335   25.4153 N   0  0  0  0  0  0  0  0  0  0  0  0
   12.8473    0.6937   24.8847 C   0  0  0  0  0  0  0  0  0  0  0  0
   13.2716    0.1558   23.6905 C   0  0  0  0  0  0  0  0  0  0  0  0
   12.4360   -0.7042   22.9841 C   0  0  0  0  0  0  0  0  0  0  0  0
   12.9297   -1.2727   21.6784 C   0  0  0  0  0  0  0  0  0  0  0  0
  1  2  1  0
  2  3  1  0
  3  4  1  0
  4  5  1  0
  5  6  1  0
  6  7  1  0
  7  8  1  0
  8  9  1  0
  9 10  1  0
 10 11  1  0
 11 12  1  0
 11 13  1  0
 13 14  1  0
  6 15  1  0
 15 16  1  0
 16 17  2  0
 16 18  1  0
 18 19  1  0
 19 20  2  0
 20 21  1  0
 21 22  2  0
 22 23  1  0
 23 24  2  0
 24 25  1  0
  6  2  1  0
 14  8  1  0
 24 19  1  0
M  END
