CVD-0003095|dock_bobby27042020.89|mol2|8|dock2
     RDKit          3D

 22 23  0  0  0  0  0  0  0  0999 V2000
    5.9498    0.1875   18.2314 C   0  0  0  0  0  0  0  0  0  0  0  0
    6.5875   -1.3963   18.6202 S   0  0  0  0  0  0  0  0  0  0  0  0
    5.6053   -2.0931   19.3920 O   0  0  0  0  0  0  0  0  0  0  0  0
    7.0557   -1.9960   17.4089 O   0  0  0  0  0  0  0  0  0  0  0  0
    7.8656   -1.1872   19.5653 N   0  0  0  0  0  0  0  0  0  0  0  0
    7.6837   -0.6805   20.9309 C   0  0  0  0  0  0  0  0  0  0  0  0
    8.2875    0.7024   21.0754 C   0  0  0  0  0  0  0  0  0  0  0  0
    8.3334    1.1972   22.5102 C   0  0  0  0  0  0  0  0  0  0  0  0
    9.2992    2.2714   22.7249 N   0  0  0  0  0  0  0  0  0  0  0  0
    8.8115    3.6426   22.6555 C   0  0  0  0  0  0  0  0  0  0  0  0
    9.7202    4.5598   23.4545 C   0  0  0  0  0  0  0  0  0  0  0  0
   11.1330    4.4886   22.9128 C   0  0  0  0  0  0  0  0  0  0  0  0
   11.6127    3.0588   22.8424 C   0  0  0  0  0  0  0  0  0  0  0  0
   12.9692    2.7555   22.8629 C   0  0  0  0  0  0  0  0  0  0  0  0
   13.4170    1.4566   22.7244 C   0  0  0  0  0  0  0  0  0  0  0  0
   12.4900    0.4408   22.5624 C   0  0  0  0  0  0  0  0  0  0  0  0
   11.1292    0.7068   22.5373 C   0  0  0  0  0  0  0  0  0  0  0  0
   10.6755    2.0172   22.6768 C   0  0  0  0  0  0  0  0  0  0  0  0
   13.0445   -1.2307   22.4148 S   0  0  0  0  0  0  0  0  0  0  0  0
   11.8541   -2.1078   21.8011 N   0  0  0  0  0  0  0  0  0  0  0  0
   13.2906   -1.7181   23.7387 O   0  0  0  0  0  0  0  0  0  0  0  0
   14.1145   -1.2438   21.4628 O   0  0  0  0  0  0  0  0  0  0  0  0
  1  2  1  0
  2  3  2  0
  2  4  2  0
  2  5  1  0
  5  6  1  0
  6  7  1  0
  7  8  1  0
  8  9  1  0
  9 10  1  0
 10 11  1  0
 11 12  1  0
 12 13  1  0
 13 14  2  0
 14 15  1  0
 15 16  2  0
 16 17  1  0
 17 18  2  0
 16 19  1  0
 19 20  1  0
 19 21  2  0
 19 22  2  0
 18  9  1  0
 18 13  1  0
M  END
