CVD-0000688|dock_bobby27042020.40|mol2|40|dock2
     RDKit          3D

 29 32  0  0  0  0  0  0  0  0999 V2000
    2.9559    2.4537   19.9115 C   0  0  0  0  0  0  0  0  0  0  0  0
    4.0656    1.5529   20.2184 N   0  0  0  0  0  0  0  0  0  0  0  0
    4.6901    1.9240   21.4917 C   0  0  0  0  0  0  0  0  0  0  0  0
    5.8145    0.9612   21.8255 C   0  0  0  0  0  0  0  0  0  0  0  0
    6.8143    0.9514   20.7554 N   0  0  0  0  0  0  0  0  0  0  0  0
    6.2097    0.6419   19.4560 C   0  0  0  0  0  0  0  0  0  0  0  0
    5.0724    1.6029   19.1614 C   0  0  0  0  0  0  0  0  0  0  0  0
    8.1304    1.1757   20.9785 C   0  0  0  0  0  0  0  0  0  0  0  0
    8.9444    1.1659   20.0636 O   0  0  0  0  0  0  0  0  0  0  0  0
    8.6046    1.4581   22.3936 C   0  0  0  0  0  0  0  0  0  0  0  0
   10.0954    1.5682   22.5170 C   0  0  0  0  0  0  0  0  0  0  0  0
   10.7708    2.7442   22.6631 C   0  0  0  0  0  0  0  0  0  0  0  0
   12.1174    2.5269   22.7492 N   0  0  0  0  0  0  0  0  0  0  0  0
   12.3450    1.1868   22.6593 C   0  0  0  0  0  0  0  0  0  0  0  0
   13.5471    0.5916   22.7039 N   0  0  0  0  0  0  0  0  0  0  0  0
   13.5442   -0.7396   22.5969 C   0  0  0  0  0  0  0  0  0  0  0  0
   12.3993   -1.4958   22.4484 C   0  0  0  0  0  0  0  0  0  0  0  0
   11.1528   -0.8660   22.4031 C   0  0  0  0  0  0  0  0  0  0  0  0
    9.9258   -1.5658   22.2527 N   0  0  0  0  0  0  0  0  0  0  0  0
    9.5200   -2.7586   22.8020 C   0  0  0  0  0  0  0  0  0  0  0  0
   10.1731   -3.4715   23.5582 O   0  0  0  0  0  0  0  0  0  0  0  0
    8.2707   -3.1028   22.4196 N   0  0  0  0  0  0  0  0  0  0  0  0
    7.6453   -4.3693   22.8009 C   0  0  0  0  0  0  0  0  0  0  0  0
    6.7883   -4.9362   21.6505 C   0  0  0  0  0  0  0  0  0  0  0  0
    6.0635   -6.2223   22.0427 C   0  0  0  0  0  0  0  0  0  0  0  0
    5.2364   -6.0292   23.3072 C   0  0  0  0  0  0  0  0  0  0  0  0
    6.0931   -5.5000   24.4483 C   0  0  0  0  0  0  0  0  0  0  0  0
    6.7819   -4.1951   24.0619 C   0  0  0  0  0  0  0  0  0  0  0  0
   11.1022    0.5489   22.5127 C   0  0  0  0  0  0  0  0  0  0  0  0
  1  2  1  0
  2  3  1  0
  3  4  1  0
  4  5  1  0
  5  6  1  0
  6  7  1  0
  5  8  1  0
  8  9  2  0
  8 10  1  0
 10 11  1  0
 11 12  2  0
 12 13  1  0
 13 14  1  0
 14 15  2  0
 15 16  1  0
 16 17  2  0
 17 18  1  0
 18 19  1  0
 19 20  1  0
 20 21  2  0
 20 22  1  0
 22 23  1  0
 23 24  1  0
 24 25  1  0
 25 26  1  0
 26 27  1  0
 27 28  1  0
 18 29  2  0
  7  2  1  0
 29 11  1  0
 29 14  1  0
 28 23  1  0
M  END
