CVD-0003419|dock_bobby27042020.16|mol2|36|dock3
     RDKit          3D

 21 23  0  0  0  0  0  0  0  0999 V2000
    6.6186   -2.6171   22.6362 Cl  0  0  0  0  0  0  0  0  0  0  0  0
    6.3504   -1.3944   21.4332 C   0  0  0  0  0  0  0  0  0  0  0  0
    5.0900   -0.9937   21.3534 N   0  0  0  0  0  0  0  0  0  0  0  0
    4.7342   -0.1896   20.3748 C   0  0  0  0  0  0  0  0  0  0  0  0
    5.6421    0.3065   19.4187 C   0  0  0  0  0  0  0  0  0  0  0  0
    5.2210    1.1182   18.4002 N   0  0  0  0  0  0  0  0  0  0  0  0
    6.1558    1.5354   17.5638 C   0  0  0  0  0  0  0  0  0  0  0  0
    7.4904    1.1901   17.6826 C   0  0  0  0  0  0  0  0  0  0  0  0
    7.9474    0.4092   18.6447 N   0  0  0  0  0  0  0  0  0  0  0  0
    7.0106   -0.0437   19.5250 C   0  0  0  0  0  0  0  0  0  0  0  0
    7.3633   -0.8989   20.6129 C   0  0  0  0  0  0  0  0  0  0  0  0
    8.7496   -1.1769   20.7510 N   0  0  0  0  0  0  0  0  0  0  0  0
    9.4643   -1.0771   21.9204 C   0  0  0  0  0  0  0  0  0  0  0  0
    8.9882   -0.7116   22.9905 O   0  0  0  0  0  0  0  0  0  0  0  0
   10.7791   -1.4253   21.7192 N   0  0  0  0  0  0  0  0  0  0  0  0
   11.8772   -1.4599   22.6155 C   0  0  0  0  0  0  0  0  0  0  0  0
   11.8618   -0.5791   23.6912 C   0  0  0  0  0  0  0  0  0  0  0  0
   12.9033   -0.5621   24.6032 C   0  0  0  0  0  0  0  0  0  0  0  0
   13.9699   -1.4205   24.4548 C   0  0  0  0  0  0  0  0  0  0  0  0
   13.9970   -2.2978   23.3932 C   0  0  0  0  0  0  0  0  0  0  0  0
   12.9610   -2.3241   22.4740 C   0  0  0  0  0  0  0  0  0  0  0  0
  1  2  1  0
  2  3  2  0
  3  4  1  0
  4  5  2  0
  5  6  1  0
  6  7  2  0
  7  8  1  0
  8  9  2  0
  9 10  1  0
 10 11  2  0
 11 12  1  0
 12 13  1  0
 13 14  2  0
 13 15  1  0
 15 16  1  0
 16 17  2  0
 17 18  1  0
 18 19  2  0
 19 20  1  0
 20 21  2  0
 11  2  1  0
 21 16  1  0
 10  5  1  0
M  END
