CVD-0002929|dock_bobby27042020.18|mol2|15|dock3
     RDKit          3D

 31 34  0  0  0  0  0  0  0  0999 V2000
    9.7261   -6.9578   23.7863 N   0  0  0  0  0  0  0  0  0  0  0  0
    8.9776   -5.7227   24.4773 S   0  0  0  0  0  0  0  0  0  0  0  0
    9.9756   -4.9431   25.1461 O   0  0  0  0  0  0  0  0  0  0  0  0
    7.8919   -6.2595   25.2418 O   0  0  0  0  0  0  0  0  0  0  0  0
    8.2797   -4.7099   23.2084 C   0  0  0  0  0  0  0  0  0  0  0  0
    7.4068   -5.2747   22.2922 C   0  0  0  0  0  0  0  0  0  0  0  0
    6.8654   -4.5098   21.3044 C   0  0  0  0  0  0  0  0  0  0  0  0
    7.1772   -3.1340   21.1910 C   0  0  0  0  0  0  0  0  0  0  0  0
    6.6335   -2.3126   20.1746 C   0  0  0  0  0  0  0  0  0  0  0  0
    6.9630   -0.9925   20.1038 C   0  0  0  0  0  0  0  0  0  0  0  0
    7.8307   -0.4299   21.0244 C   0  0  0  0  0  0  0  0  0  0  0  0
    8.3874   -1.1714   22.0336 C   0  0  0  0  0  0  0  0  0  0  0  0
    9.3240   -0.5171   23.0279 C   0  0  0  0  0  0  0  0  0  0  0  0
    9.5311    0.9220   22.8113 N   0  0  0  0  0  0  0  0  0  0  0  0
   10.7464    1.1898   22.0366 C   0  0  0  0  0  0  0  0  0  0  0  0
   10.8652    2.6735   21.7418 C   0  0  0  0  0  0  0  0  0  0  0  0
   10.8798    3.4430   22.9877 N   0  0  0  0  0  0  0  0  0  0  0  0
    9.7044    3.1518   23.8145 C   0  0  0  0  0  0  0  0  0  0  0  0
    9.5965    1.6596   24.0703 C   0  0  0  0  0  0  0  0  0  0  0  0
    8.4222    3.6494   23.1781 C   0  0  0  0  0  0  0  0  0  0  0  0
    7.4100    2.7737   22.8160 C   0  0  0  0  0  0  0  0  0  0  0  0
    6.2519    3.2600   22.2347 C   0  0  0  0  0  0  0  0  0  0  0  0
    6.1398    4.6167   22.0307 C   0  0  0  0  0  0  0  0  0  0  0  0
    7.0938    5.4865   22.3659 N   0  0  0  0  0  0  0  0  0  0  0  0
    8.2027    4.9937   22.9256 C   0  0  0  0  0  0  0  0  0  0  0  0
   11.8403    4.3161   23.3746 C   0  0  0  0  0  0  0  0  0  0  0  0
   11.7622    4.9035   24.4464 O   0  0  0  0  0  0  0  0  0  0  0  0
   13.0200    4.5624   22.4535 C   0  0  0  0  0  0  0  0  0  0  0  0
   14.0241    5.8948   23.0398 Cl  0  0  0  0  0  0  0  0  0  0  0  0
    8.0736   -2.5557   22.1374 C   0  0  0  0  0  0  0  0  0  0  0  0
    8.6180   -3.3901   23.1464 C   0  0  0  0  0  0  0  0  0  0  0  0
  1  2  1  0
  2  3  2  0
  2  4  2  0
  2  5  1  0
  5  6  2  0
  6  7  1  0
  7  8  2  0
  8  9  1  0
  9 10  2  0
 10 11  1  0
 11 12  2  0
 12 13  1  0
 13 14  1  0
 14 15  1  0
 15 16  1  0
 16 17  1  0
 17 18  1  0
 18 19  1  0
 18 20  1  0
 20 21  2  0
 21 22  1  0
 22 23  2  0
 23 24  1  0
 24 25  2  0
 17 26  1  0
 26 27  2  0
 26 28  1  0
 28 29  1  0
 12 30  1  0
 30 31  2  0
 31  5  1  0
 30  8  1  0
 19 14  1  0
 25 20  1  0
M  END
