CVD-0001749|dock_bobby27042020.8|mol2|31|dock3
     RDKit          3D

 28 30  0  0  0  0  0  0  0  0999 V2000
    6.1208   -6.1036   21.2028 C   0  0  0  0  0  0  0  0  0  0  0  0
    6.2186   -5.4552   22.5482 C   0  0  0  0  0  0  0  0  0  0  0  0
    7.0263   -4.2478   22.4992 N   0  0  0  0  0  0  0  0  0  0  0  0
    7.3200   -3.5173   23.5870 C   0  0  0  0  0  0  0  0  0  0  0  0
    6.7630   -3.9286   24.7443 N   0  0  0  0  0  0  0  0  0  0  0  0
    6.9214   -3.1801   25.8406 C   0  0  0  0  0  0  0  0  0  0  0  0
    7.6617   -2.0062   25.8697 C   0  0  0  0  0  0  0  0  0  0  0  0
    8.2909   -1.6031   24.6984 C   0  0  0  0  0  0  0  0  0  0  0  0
    8.1532   -2.3706   23.5458 C   0  0  0  0  0  0  0  0  0  0  0  0
    8.8720   -1.9476   22.3675 N   0  0  0  0  0  0  0  0  0  0  0  0
   10.2877   -2.3562   22.2552 C   0  0  0  0  0  0  0  0  0  0  0  0
   11.2457   -1.4376   23.0020 C   0  0  0  0  0  0  0  0  0  0  0  0
   12.7129   -1.8490   22.7623 C   0  0  0  0  0  0  0  0  0  0  0  0
   13.7019   -0.9024   23.4399 C   0  0  0  0  0  0  0  0  0  0  0  0
   13.4571    0.5434   23.0276 C   0  0  0  0  0  0  0  0  0  0  0  0
   12.0165    0.9545   23.2956 C   0  0  0  0  0  0  0  0  0  0  0  0
   11.0366    0.0277   22.5833 C   0  0  0  0  0  0  0  0  0  0  0  0
    8.3052   -1.1894   21.3365 C   0  0  0  0  0  0  0  0  0  0  0  0
    9.0476   -0.8120   20.4399 O   0  0  0  0  0  0  0  0  0  0  0  0
    6.9624   -0.8845   21.3595 N   0  0  0  0  0  0  0  0  0  0  0  0
    6.1825   -0.1324   20.4423 C   0  0  0  0  0  0  0  0  0  0  0  0
    6.5341    0.1485   19.1240 C   0  0  0  0  0  0  0  0  0  0  0  0
    5.6760    0.8970   18.3367 C   0  0  0  0  0  0  0  0  0  0  0  0
    4.4943    1.3446   18.8799 C   0  0  0  0  0  0  0  0  0  0  0  0
    4.1289    1.0929   20.1362 N   0  0  0  0  0  0  0  0  0  0  0  0
    4.9644    0.3699   20.8872 C   0  0  0  0  0  0  0  0  0  0  0  0
    7.7795   -1.2262   27.0769 C   0  0  0  0  0  0  0  0  0  0  0  0
    7.8853   -0.6351   28.0486 N   0  0  0  0  0  0  0  0  0  0  0  0
  1  2  1  0
  2  3  1  0
  3  4  1  0
  4  5  2  0
  5  6  1  0
  6  7  2  0
  7  8  1  0
  8  9  2  0
  9 10  1  0
 10 11  1  0
 11 12  1  0
 12 13  1  0
 13 14  1  0
 14 15  1  0
 15 16  1  0
 16 17  1  0
 10 18  1  0
 18 19  2  0
 18 20  1  0
 20 21  1  0
 21 22  2  0
 22 23  1  0
 23 24  2  0
 24 25  1  0
 25 26  2  0
  7 27  1  0
 27 28  3  0
  9  4  1  0
 17 12  1  0
 26 21  1  0
M  END
