CVD-0003963|dock_bobby27042020.72|mol2|14|dock2
     RDKit          3D

 23 25  0  0  0  0  0  0  0  0999 V2000
    5.7149   -1.8893   19.4923 C   0  0  0  0  0  0  0  0  0  0  0  0
    6.5411   -2.4774   20.5993 C   0  0  0  0  0  0  0  0  0  0  0  0
    6.5028   -3.6833   20.8173 O   0  0  0  0  0  0  0  0  0  0  0  0
    7.3403   -1.6680   21.3460 N   0  0  0  0  0  0  0  0  0  0  0  0
    7.4865   -0.2168   21.1958 C   0  0  0  0  0  0  0  0  0  0  0  0
    8.9408    0.1761   21.2140 C   0  0  0  0  0  0  0  0  0  0  0  0
    9.5938   -0.2904   22.4481 N   0  0  0  0  0  0  0  0  0  0  0  0
    9.4819   -1.7491   22.4892 C   0  0  0  0  0  0  0  0  0  0  0  0
    8.0355   -2.1816   22.5246 C   0  0  0  0  0  0  0  0  0  0  0  0
   11.0006    0.1295   22.4960 C   0  0  0  0  0  0  0  0  0  0  0  0
   11.7717   -0.6890   23.4469 N   0  0  0  0  0  0  0  0  0  0  0  0
   12.8307   -1.4685   22.8006 C   0  0  0  0  0  0  0  0  0  0  0  0
   13.4535   -2.4505   23.7674 C   0  0  0  0  0  0  0  0  0  0  0  0
   14.0034   -1.7560   24.9952 C   0  0  0  0  0  0  0  0  0  0  0  0
   14.5494   -2.6619   25.9577 O   0  0  0  0  0  0  0  0  0  0  0  0
   12.8946   -0.9069   25.6048 C   0  0  0  0  0  0  0  0  0  0  0  0
   12.3037    0.0487   24.5858 C   0  0  0  0  0  0  0  0  0  0  0  0
   11.0604    1.6156   22.8143 C   0  0  0  0  0  0  0  0  0  0  0  0
   12.1928    2.3628   22.5212 C   0  0  0  0  0  0  0  0  0  0  0  0
   12.2415    3.7162   22.8104 C   0  0  0  0  0  0  0  0  0  0  0  0
   11.1593    4.3388   23.3948 C   0  0  0  0  0  0  0  0  0  0  0  0
   10.0278    3.6090   23.6902 C   0  0  0  0  0  0  0  0  0  0  0  0
    9.9779    2.2554   23.4015 C   0  0  0  0  0  0  0  0  0  0  0  0
  1  2  1  0
  2  3  2  0
  2  4  1  0
  4  5  1  0
  5  6  1  0
  6  7  1  0
  7  8  1  0
  8  9  1  0
  7 10  1  0
 10 11  1  0
 11 12  1  0
 12 13  1  0
 13 14  1  0
 14 15  1  0
 14 16  1  0
 16 17  1  0
 10 18  1  0
 18 19  2  0
 19 20  1  0
 20 21  2  0
 21 22  1  0
 22 23  2  0
  9  4  1  0
 17 11  1  0
 23 18  1  0
M  END
