CVD-0002064|dock_bobby27042020.79|mol2|3|dock2
     RDKit          3D

 34 37  0  0  0  0  0  0  0  0999 V2000
    6.2168    2.7956   24.2511 C   0  0  0  0  0  0  0  0  0  0  0  0
    4.9991    1.9259   24.2222 C   0  0  0  0  0  0  0  0  0  0  0  0
    4.1839    2.1910   23.0485 N   0  0  0  0  0  0  0  0  0  0  0  0
    4.5764    1.9185   21.7736 C   0  0  0  0  0  0  0  0  0  0  0  0
    3.8259    2.3462   20.6799 C   0  0  0  0  0  0  0  0  0  0  0  0
    4.2834    2.0350   19.4136 C   0  0  0  0  0  0  0  0  0  0  0  0
    5.4651    1.3118   19.2507 C   0  0  0  0  0  0  0  0  0  0  0  0
    5.9358    0.9920   17.9278 C   0  0  0  0  0  0  0  0  0  0  0  0
    6.3372    0.7239   16.8924 N   0  0  0  0  0  0  0  0  0  0  0  0
    6.1683    0.9137   20.4297 C   0  0  0  0  0  0  0  0  0  0  0  0
    7.3133    0.2144   20.3560 N   0  0  0  0  0  0  0  0  0  0  0  0
    7.8296   -0.5390   21.4824 C   0  0  0  0  0  0  0  0  0  0  0  0
    8.9036    0.1830   22.2529 C   0  0  0  0  0  0  0  0  0  0  0  0
    9.2556    1.5338   22.0847 C   0  0  0  0  0  0  0  0  0  0  0  0
   10.2810    1.8669   22.9494 C   0  0  0  0  0  0  0  0  0  0  0  0
   10.9124    3.2059   23.0454 C   0  0  0  0  0  0  0  0  0  0  0  0
   12.3060    3.2432   22.9688 C   0  0  0  0  0  0  0  0  0  0  0  0
   12.9922    4.4456   22.9982 C   0  0  0  0  0  0  0  0  0  0  0  0
   12.3082    5.6351   23.1101 C   0  0  0  0  0  0  0  0  0  0  0  0
   10.9298    5.6303   23.2241 C   0  0  0  0  0  0  0  0  0  0  0  0
   10.2692    4.4244   23.2178 C   0  0  0  0  0  0  0  0  0  0  0  0
    8.9334    4.4669   23.4074 F   0  0  0  0  0  0  0  0  0  0  0  0
   10.5597    0.6878   23.6964 N   0  0  0  0  0  0  0  0  0  0  0  0
    9.7167   -0.3250   23.2550 C   0  0  0  0  0  0  0  0  0  0  0  0
   11.6507    0.3466   24.9505 S   0  0  0  0  0  0  0  0  0  0  0  0
   12.4289    1.5376   25.0944 O   0  0  0  0  0  0  0  0  0  0  0  0
   10.8910   -0.1244   26.0667 O   0  0  0  0  0  0  0  0  0  0  0  0
   12.7310   -0.9148   24.3685 C   0  0  0  0  0  0  0  0  0  0  0  0
   12.9613   -2.0466   25.1319 C   0  0  0  0  0  0  0  0  0  0  0  0
   13.8214   -3.0117   24.6377 C   0  0  0  0  0  0  0  0  0  0  0  0
   14.4121   -2.8074   23.4112 C   0  0  0  0  0  0  0  0  0  0  0  0
   14.2006   -1.7216   22.6659 N   0  0  0  0  0  0  0  0  0  0  0  0
   13.3693   -0.7937   23.1489 C   0  0  0  0  0  0  0  0  0  0  0  0
    5.7142    1.2228   21.6541 N   0  0  0  0  0  0  0  0  0  0  0  0
  1  2  1  0
  2  3  1  0
  3  4  1  0
  4  5  2  0
  5  6  1  0
  6  7  2  0
  7  8  1  0
  8  9  3  0
  7 10  1  0
 10 11  1  0
 11 12  1  0
 12 13  1  0
 13 14  1  0
 14 15  2  0
 15 16  1  0
 16 17  2  0
 17 18  1  0
 18 19  2  0
 19 20  1  0
 20 21  2  0
 21 22  1  0
 15 23  1  0
 23 24  1  0
 23 25  1  0
 25 26  2  0
 25 27  2  0
 25 28  1  0
 28 29  2  0
 29 30  1  0
 30 31  2  0
 31 32  1  0
 32 33  2  0
 10 34  2  0
 34  4  1  0
 24 13  2  0
 33 28  1  0
 21 16  1  0
M  END
