CVD-0001398|dock_bobby27042020.67|mol2|16|dock2
     RDKit          3D

 16 17  0  0  0  0  0  0  0  0999 V2000
    7.0339   -3.7129   21.7249 Cl  0  0  0  0  0  0  0  0  0  0  0  0
    8.2141   -2.9464   22.7956 C   0  0  0  0  0  0  0  0  0  0  0  0
    9.4029   -2.3967   22.0383 C   0  0  0  0  0  0  0  0  0  0  0  0
    9.4832   -2.4665   20.8157 O   0  0  0  0  0  0  0  0  0  0  0  0
   10.3354   -1.8311   22.8078 N   0  0  0  0  0  0  0  0  0  0  0  0
   11.5570   -1.2318   22.2763 C   0  0  0  0  0  0  0  0  0  0  0  0
   12.7467   -1.7937   23.0192 C   0  0  0  0  0  0  0  0  0  0  0  0
   14.0116   -1.0677   22.5838 C   0  0  0  0  0  0  0  0  0  0  0  0
   13.9468    0.3739   23.0258 C   0  0  0  0  0  0  0  0  0  0  0  0
   12.6327    1.0351   22.6910 C   0  0  0  0  0  0  0  0  0  0  0  0
   12.5283    2.4229   22.7263 C   0  0  0  0  0  0  0  0  0  0  0  0
   11.3353    3.0700   22.4634 C   0  0  0  0  0  0  0  0  0  0  0  0
   10.2266    2.3134   22.1595 C   0  0  0  0  0  0  0  0  0  0  0  0
    8.7101    3.1039   21.8321 Cl  0  0  0  0  0  0  0  0  0  0  0  0
   10.2944    0.9371   22.1158 C   0  0  0  0  0  0  0  0  0  0  0  0
   11.4952    0.2828   22.3805 C   0  0  0  0  0  0  0  0  0  0  0  0
  1  2  1  0
  2  3  1  0
  3  4  2  0
  3  5  1  0
  5  6  1  0
  6  7  1  0
  7  8  1  0
  8  9  1  0
  9 10  1  0
 10 11  2  0
 11 12  1  0
 12 13  2  0
 13 14  1  0
 13 15  1  0
 15 16  2  0
 16  6  1  0
 16 10  1  0
M  END
