CVD-0001535|dock_bobby27042020.9|mol2|24|dock3
     RDKit          3D

 19 22  0  0  0  0  0  0  0  0999 V2000
    8.9890   -0.2152   21.5785 C   0  0  0  0  0  0  0  0  0  0  0  0
    7.6365    0.3498   21.4359 N   0  0  0  0  0  0  0  0  0  0  0  0
    6.5354   -0.6577   21.2372 C   0  0  0  0  0  0  0  0  0  0  0  0
    6.1021    0.1587   20.0201 C   0  0  0  0  0  0  0  0  0  0  0  0
    7.3506    1.0480   20.1382 C   0  0  0  0  0  0  0  0  0  0  0  0
    5.9435   -0.5538   18.6725 C   0  0  0  0  0  0  0  0  0  0  0  0
    5.1149    0.4759   17.8899 C   0  0  0  0  0  0  0  0  0  0  0  0
    4.6873    1.4829   18.7919 O   0  0  0  0  0  0  0  0  0  0  0  0
    4.7865    0.9349   20.1133 C   0  0  0  0  0  0  0  0  0  0  0  0
   10.1710    0.6672   21.9506 C   0  0  0  0  0  0  0  0  0  0  0  0
   10.1054    2.0382   21.9682 C   0  0  0  0  0  0  0  0  0  0  0  0
   11.1920    2.8229   22.3154 C   0  0  0  0  0  0  0  0  0  0  0  0
   12.3809    2.2570   22.6596 C   0  0  0  0  0  0  0  0  0  0  0  0
   12.5165    0.8505   22.6584 C   0  0  0  0  0  0  0  0  0  0  0  0
   13.7276    0.3146   23.0099 N   0  0  0  0  0  0  0  0  0  0  0  0
   13.8398   -1.0016   22.9953 C   0  0  0  0  0  0  0  0  0  0  0  0
   12.8275   -1.8700   22.6516 C   0  0  0  0  0  0  0  0  0  0  0  0
   11.6138   -1.3597   22.3006 C   0  0  0  0  0  0  0  0  0  0  0  0
   11.4061    0.0434   22.2956 C   0  0  0  0  0  0  0  0  0  0  0  0
  1  2  1  0
  2  3  1  0
  3  4  1  0
  4  5  1  0
  4  6  1  0
  6  7  1  0
  7  8  1  0
  8  9  1  0
  1 10  1  0
 10 11  2  0
 11 12  1  0
 12 13  2  0
 13 14  1  0
 14 15  2  0
 15 16  1  0
 16 17  2  0
 17 18  1  0
 18 19  2  0
  5  2  1  0
 19 10  1  0
  9  4  1  0
 19 14  1  0
M  END
