CVD-0003483|dock_bobby27042020.2|mol2|2|dock2
     RDKit          3D

 24 26  0  0  0  0  0  0  0  0999 V2000
   13.9229   -0.7845   21.9632 C   0  0  0  0  0  0  0  0  0  0  0  0
   12.7810   -0.5007   22.9084 C   0  0  0  0  0  0  0  0  0  0  0  0
   12.8561    0.5384   23.8229 C   0  0  0  0  0  0  0  0  0  0  0  0
   11.8077    0.7941   24.6905 C   0  0  0  0  0  0  0  0  0  0  0  0
   10.6690    0.0080   24.6523 C   0  0  0  0  0  0  0  0  0  0  0  0
   10.5718   -1.0394   23.7477 C   0  0  0  0  0  0  0  0  0  0  0  0
   11.6325   -1.2779   22.8866 C   0  0  0  0  0  0  0  0  0  0  0  0
    9.3316   -1.9192   23.6800 C   0  0  0  0  0  0  0  0  0  0  0  0
    8.9597   -2.2248   22.2903 N   0  0  0  0  0  0  0  0  0  0  0  0
    8.5525   -1.0082   21.5683 C   0  0  0  0  0  0  0  0  0  0  0  0
    8.2203   -1.3228   20.1328 C   0  0  0  0  0  0  0  0  0  0  0  0
    7.1753   -2.3484   20.0560 N   0  0  0  0  0  0  0  0  0  0  0  0
    7.5116   -3.5483   20.8199 C   0  0  0  0  0  0  0  0  0  0  0  0
    7.8412   -3.1678   22.2435 C   0  0  0  0  0  0  0  0  0  0  0  0
    6.0753   -2.3129   19.2670 C   0  0  0  0  0  0  0  0  0  0  0  0
    5.2512   -3.2188   19.2790 O   0  0  0  0  0  0  0  0  0  0  0  0
    5.8800   -1.1214   18.3487 C   0  0  0  0  0  0  0  0  0  0  0  0
    5.4783    0.3360   19.2661 Cl  0  0  0  0  0  0  0  0  0  0  0  0
    9.4672   -3.1553   24.5449 C   0  0  0  0  0  0  0  0  0  0  0  0
   10.5098   -4.0721   24.5195 C   0  0  0  0  0  0  0  0  0  0  0  0
   10.3657   -5.1108   25.4356 C   0  0  0  0  0  0  0  0  0  0  0  0
    9.2312   -4.9897   26.1532 C   0  0  0  0  0  0  0  0  0  0  0  0
    8.6757   -6.0505   27.3809 Cl  0  0  0  0  0  0  0  0  0  0  0  0
    8.3027   -3.6098   25.7384 S   0  0  0  0  0  0  0  0  0  0  0  0
  1  2  1  0
  2  3  2  0
  3  4  1  0
  4  5  2  0
  5  6  1  0
  6  7  2  0
  6  8  1  0
  8  9  1  0
  9 10  1  0
 10 11  1  0
 11 12  1  0
 12 13  1  0
 13 14  1  0
 12 15  1  0
 15 16  2  0
 15 17  1  0
 17 18  1  0
  8 19  1  0
 19 20  2  0
 20 21  1  0
 21 22  2  0
 22 23  1  0
 22 24  1  0
  7  2  1  0
 14  9  1  0
 24 19  1  0
M  END
