CVD-0001591|dock_bobby27042020.80|mol2|35|dock3
     RDKit          3D

 15 15  0  0  0  0  0  0  0  0999 V2000
    8.7542    5.0200   22.9838 C   0  0  0  0  0  0  0  0  0  0  0  0
   10.2301    4.9558   22.7838 C   0  0  0  0  0  0  0  0  0  0  0  0
   10.7823    6.1454   22.8543 O   0  0  0  0  0  0  0  0  0  0  0  0
   11.0353    3.8623   22.5481 C   0  0  0  0  0  0  0  0  0  0  0  0
   12.4308    4.1253   22.3979 C   0  0  0  0  0  0  0  0  0  0  0  0
   13.5473    4.3184   22.2372 N   0  0  0  0  0  0  0  0  0  0  0  0
   10.6050    2.4689   22.4375 C   0  0  0  0  0  0  0  0  0  0  0  0
    9.4771    2.1460   22.0734 O   0  0  0  0  0  0  0  0  0  0  0  0
   11.5354    1.5429   22.7645 N   0  0  0  0  0  0  0  0  0  0  0  0
   12.1978    0.3158   23.0100 C   0  0  0  0  0  0  0  0  0  0  0  0
   13.0426    0.2245   24.1100 C   0  0  0  0  0  0  0  0  0  0  0  0
   13.7090   -0.9574   24.3849 C   0  0  0  0  0  0  0  0  0  0  0  0
   13.5407   -2.0550   23.5697 C   0  0  0  0  0  0  0  0  0  0  0  0
   12.7055   -1.9748   22.4768 C   0  0  0  0  0  0  0  0  0  0  0  0
   12.0319   -0.7991   22.1886 C   0  0  0  0  0  0  0  0  0  0  0  0
  1  2  1  0
  2  3  1  0
  2  4  2  0
  4  5  1  0
  5  6  3  0
  4  7  1  0
  7  8  2  0
  7  9  1  0
  9 10  1  0
 10 11  2  0
 11 12  1  0
 12 13  2  0
 13 14  1  0
 14 15  2  0
 15 10  1  0
M  END
