CVD-0000608|dock_bobby27042020.12|mol2|26|dock1
     RDKit          3D

 24 26  0  0  0  0  0  0  0  0999 V2000
   13.5655    5.8202   22.7937 N   0  0  0  0  0  0  0  0  0  0  0  0
   12.4224    5.1891   21.8675 S   0  0  0  0  0  0  0  0  0  0  0  0
   11.2203    5.9267   22.1165 O   0  0  0  0  0  0  0  0  0  0  0  0
   12.9389    5.1385   20.5327 O   0  0  0  0  0  0  0  0  0  0  0  0
   12.1370    3.5241   22.3863 C   0  0  0  0  0  0  0  0  0  0  0  0
   13.2063    2.7365   22.7813 C   0  0  0  0  0  0  0  0  0  0  0  0
   12.9818    1.4315   23.1825 C   0  0  0  0  0  0  0  0  0  0  0  0
   11.6941    0.9240   23.1816 C   0  0  0  0  0  0  0  0  0  0  0  0
   11.4575   -0.4044   23.5859 O   0  0  0  0  0  0  0  0  0  0  0  0
   11.7304   -1.5817   22.7711 C   0  0  0  0  0  0  0  0  0  0  0  0
   10.4816   -2.3663   22.3410 C   0  0  0  0  0  0  0  0  0  0  0  0
    9.2939   -1.4930   21.9970 C   0  0  0  0  0  0  0  0  0  0  0  0
    8.5268   -1.1007   22.8697 O   0  0  0  0  0  0  0  0  0  0  0  0
    9.1910   -1.2148   20.6747 N   0  0  0  0  0  0  0  0  0  0  0  0
    8.2451   -0.4487   19.9487 C   0  0  0  0  0  0  0  0  0  0  0  0
    7.5386    0.5477   20.6095 C   0  0  0  0  0  0  0  0  0  0  0  0
    6.6111    1.3050   19.9160 C   0  0  0  0  0  0  0  0  0  0  0  0
    6.4159    1.0448   18.5796 C   0  0  0  0  0  0  0  0  0  0  0  0
    7.0777    0.0962   17.9168 N   0  0  0  0  0  0  0  0  0  0  0  0
    7.9715   -0.6306   18.5948 C   0  0  0  0  0  0  0  0  0  0  0  0
   12.9076   -1.5239   21.8019 C   0  0  0  0  0  0  0  0  0  0  0  0
   13.0121   -2.3642   23.0377 C   0  0  0  0  0  0  0  0  0  0  0  0
   10.6275    1.7119   22.7866 C   0  0  0  0  0  0  0  0  0  0  0  0
   10.8475    3.0177   22.3860 C   0  0  0  0  0  0  0  0  0  0  0  0
  1  2  1  0
  2  3  2  0
  2  4  2  0
  2  5  1  0
  5  6  2  0
  6  7  1  0
  7  8  2  0
  8  9  1  0
  9 10  1  0
 10 11  1  0
 11 12  1  0
 12 13  2  0
 12 14  1  0
 14 15  1  0
 15 16  2  0
 16 17  1  0
 17 18  2  0
 18 19  1  0
 19 20  2  0
 10 21  1  0
 21 22  1  0
  8 23  1  0
 23 24  2  0
 24  5  1  0
 22 10  1  0
 20 15  1  0
M  END
