CVD-0000553|dock_bobby27042020.41|mol2|11|dock3
     RDKit          3D

 26 28  0  0  0  0  0  0  0  0999 V2000
   13.5176   -1.5013   21.2332 C   0  0  0  0  0  0  0  0  0  0  0  0
   12.8222   -1.6010   22.5669 C   0  0  0  0  0  0  0  0  0  0  0  0
   13.6048   -1.7665   23.7056 C   0  0  0  0  0  0  0  0  0  0  0  0
   13.0048   -1.8568   24.9411 C   0  0  0  0  0  0  0  0  0  0  0  0
   11.6881   -1.7937   25.1129 N   0  0  0  0  0  0  0  0  0  0  0  0
   10.9257   -1.6364   24.0262 C   0  0  0  0  0  0  0  0  0  0  0  0
   11.4237   -1.5307   22.7261 C   0  0  0  0  0  0  0  0  0  0  0  0
   10.6231   -1.3586   21.5598 N   0  0  0  0  0  0  0  0  0  0  0  0
    9.4822   -0.6066   21.3792 C   0  0  0  0  0  0  0  0  0  0  0  0
    8.9519    0.0706   22.2527 O   0  0  0  0  0  0  0  0  0  0  0  0
    9.0116   -0.7113   20.0883 N   0  0  0  0  0  0  0  0  0  0  0  0
    7.8712   -0.1036   19.4899 C   0  0  0  0  0  0  0  0  0  0  0  0
    7.7989    0.3687   18.1792 C   0  0  0  0  0  0  0  0  0  0  0  0
    6.7071    0.9309   17.6526 N   0  0  0  0  0  0  0  0  0  0  0  0
    5.6321    1.0636   18.4288 C   0  0  0  0  0  0  0  0  0  0  0  0
    5.5849    0.6378   19.7594 C   0  0  0  0  0  0  0  0  0  0  0  0
    4.3960    0.8307   20.5488 C   0  0  0  0  0  0  0  0  0  0  0  0
    3.4725    0.9963   21.2005 N   0  0  0  0  0  0  0  0  0  0  0  0
    6.7277    0.0255   20.2963 C   0  0  0  0  0  0  0  0  0  0  0  0
    6.7261   -0.4423   21.6126 O   0  0  0  0  0  0  0  0  0  0  0  0
    6.7557   -1.8068   21.9058 C   0  0  0  0  0  0  0  0  0  0  0  0
    6.4824   -2.7585   20.9350 C   0  0  0  0  0  0  0  0  0  0  0  0
    6.5223   -4.1019   21.2703 C   0  0  0  0  0  0  0  0  0  0  0  0
    6.8322   -4.4931   22.5550 C   0  0  0  0  0  0  0  0  0  0  0  0
    7.1052   -3.5435   23.5154 C   0  0  0  0  0  0  0  0  0  0  0  0
    7.0688   -2.1964   23.1967 C   0  0  0  0  0  0  0  0  0  0  0  0
  1  2  1  0
  2  3  2  0
  3  4  1  0
  4  5  2  0
  5  6  1  0
  6  7  2  0
  7  8  1  0
  8  9  1  0
  9 10  2  0
  9 11  1  0
 11 12  1  0
 12 13  2  0
 13 14  1  0
 14 15  2  0
 15 16  1  0
 16 17  1  0
 17 18  3  0
 16 19  2  0
 19 20  1  0
 20 21  1  0
 21 22  2  0
 22 23  1  0
 23 24  2  0
 24 25  1  0
 25 26  2  0
  7  2  1  0
 19 12  1  0
 26 21  1  0
M  END
