CVD-0000886|dock_bobby27042020.97|mol2|12|dock1
     RDKit          3D

 15 15  0  0  0  0  0  0  0  0999 V2000
   12.5649    3.8634   21.2469 C   0  0  0  0  0  0  0  0  0  0  0  0
   13.2645    3.4193   22.5258 C   0  0  0  0  0  0  0  0  0  0  0  0
   12.8247    4.2912   23.6196 N   0  0  0  0  0  0  0  0  0  0  0  0
   13.1542    5.5823   23.6959 C   0  0  0  0  0  0  0  0  0  0  0  0
   13.8508    6.1548   22.8635 O   0  0  0  0  0  0  0  0  0  0  0  0
   12.6047    6.2988   24.9097 C   0  0  0  0  0  0  0  0  0  0  0  0
   10.8479    6.1507   25.0469 Cl  0  0  0  0  0  0  0  0  0  0  0  0
   12.9697    1.9646   22.8386 C   0  0  0  0  0  0  0  0  0  0  0  0
   13.9743    1.0112   22.7739 C   0  0  0  0  0  0  0  0  0  0  0  0
   13.6697   -0.2963   23.0619 C   0  0  0  0  0  0  0  0  0  0  0  0
   14.6691   -1.2165   22.9934 F   0  0  0  0  0  0  0  0  0  0  0  0
   12.4155   -0.7294   23.4150 C   0  0  0  0  0  0  0  0  0  0  0  0
   11.4321    0.2372   23.4718 C   0  0  0  0  0  0  0  0  0  0  0  0
    9.8138   -0.2321   23.9118 Cl  0  0  0  0  0  0  0  0  0  0  0  0
   11.6897    1.5638   23.1911 C   0  0  0  0  0  0  0  0  0  0  0  0
  1  2  1  0
  2  3  1  0
  3  4  1  0
  4  5  2  0
  4  6  1  0
  6  7  1  0
  2  8  1  0
  8  9  2  0
  9 10  1  0
 10 11  1  0
 10 12  2  0
 12 13  1  0
 13 14  1  0
 13 15  2  0
 15  8  1  0
M  END
