CVD-0000873|dock_bobby27042020.83|mol2|7|dock2
     RDKit          3D

 28 31  0  0  0  0  0  0  0  0999 V2000
   12.6403   -2.2482   21.2257 C   0  0  0  0  0  0  0  0  0  0  0  0
   13.0885   -1.7745   22.5837 C   0  0  0  0  0  0  0  0  0  0  0  0
   14.1533   -2.4290   23.2014 C   0  0  0  0  0  0  0  0  0  0  0  0
   14.6082   -2.0557   24.4533 C   0  0  0  0  0  0  0  0  0  0  0  0
   13.9994   -1.0135   25.1141 C   0  0  0  0  0  0  0  0  0  0  0  0
   12.9424   -0.3485   24.5178 C   0  0  0  0  0  0  0  0  0  0  0  0
   12.4676   -0.7033   23.2526 C   0  0  0  0  0  0  0  0  0  0  0  0
   11.3034    0.0415   22.5939 C   0  0  0  0  0  0  0  0  0  0  0  0
    9.9780   -0.4063   23.1142 C   0  0  0  0  0  0  0  0  0  0  0  0
    9.7953   -0.1408   24.6183 C   0  0  0  0  0  0  0  0  0  0  0  0
    8.4158   -0.4285   25.1603 C   0  0  0  0  0  0  0  0  0  0  0  0
    8.0170   -1.7213   25.4565 C   0  0  0  0  0  0  0  0  0  0  0  0
    6.7453   -1.9554   25.9494 C   0  0  0  0  0  0  0  0  0  0  0  0
    5.9057   -0.8804   26.1315 C   0  0  0  0  0  0  0  0  0  0  0  0
    6.2592    0.3756   25.8550 N   0  0  0  0  0  0  0  0  0  0  0  0
    7.4922    0.5764   25.3800 C   0  0  0  0  0  0  0  0  0  0  0  0
    8.8643    0.2255   22.3644 N   0  0  0  0  0  0  0  0  0  0  0  0
    8.9147    1.6886   22.1666 C   0  0  0  0  0  0  0  0  0  0  0  0
   10.2663    2.3359   22.4763 C   0  0  0  0  0  0  0  0  0  0  0  0
   10.3512    3.7233   22.5393 C   0  0  0  0  0  0  0  0  0  0  0  0
   11.5495    4.3579   22.8047 C   0  0  0  0  0  0  0  0  0  0  0  0
   12.6790    3.6008   23.0105 C   0  0  0  0  0  0  0  0  0  0  0  0
   12.5974    2.2210   22.9484 C   0  0  0  0  0  0  0  0  0  0  0  0
   11.4018    1.5471   22.6823 C   0  0  0  0  0  0  0  0  0  0  0  0
    7.8520   -0.5816   21.9600 C   0  0  0  0  0  0  0  0  0  0  0  0
    7.8455   -1.7805   22.2107 O   0  0  0  0  0  0  0  0  0  0  0  0
    6.7008    0.0307   21.1850 C   0  0  0  0  0  0  0  0  0  0  0  0
    7.1235    0.2714   19.4848 Cl  0  0  0  0  0  0  0  0  0  0  0  0
  1  2  1  0
  2  3  2  0
  3  4  1  0
  4  5  2  0
  5  6  1  0
  6  7  2  0
  7  8  1  0
  8  9  1  0
  9 10  1  0
 10 11  1  0
 11 12  2  0
 12 13  1  0
 13 14  2  0
 14 15  1  0
 15 16  2  0
  9 17  1  0
 17 18  1  0
 18 19  1  0
 19 20  2  0
 20 21  1  0
 21 22  2  0
 22 23  1  0
 23 24  2  0
 17 25  1  0
 25 26  2  0
 25 27  1  0
 27 28  1  0
  7  2  1  0
 24  8  1  0
 16 11  1  0
 24 19  1  0
M  END
