CVD-0001779|dock_bobby27042020.80|mol2|8|dock3
     RDKit          3D

 12 13  0  0  0  0  0  0  0  0999 V2000
   13.7633   -0.8027   24.4993 C   0  0  0  0  0  0  0  0  0  0  0  0
   13.0060   -0.8058   23.2449 N   0  0  0  0  0  0  0  0  0  0  0  0
   12.7505   -2.1502   22.7315 C   0  0  0  0  0  0  0  0  0  0  0  0
   11.6744   -1.8900   21.7043 C   0  0  0  0  0  0  0  0  0  0  0  0
   10.8494   -0.7847   22.2686 C   0  0  0  0  0  0  0  0  0  0  0  0
   11.7278   -0.0619   23.3142 C   0  0  0  0  0  0  0  0  0  0  0  0
   11.8894    1.4160   23.0164 C   0  0  0  0  0  0  0  0  0  0  0  0
   13.1298    1.9871   22.7698 C   0  0  0  0  0  0  0  0  0  0  0  0
   13.2256    3.3397   22.4926 C   0  0  0  0  0  0  0  0  0  0  0  0
   12.0717    4.0894   22.4723 C   0  0  0  0  0  0  0  0  0  0  0  0
   10.8641    3.5750   22.7077 N   0  0  0  0  0  0  0  0  0  0  0  0
   10.7966    2.2665   22.9704 C   0  0  0  0  0  0  0  0  0  0  0  0
  1  2  1  0
  2  3  1  0
  3  4  1  0
  4  5  1  0
  5  6  1  0
  6  7  1  0
  7  8  2  0
  8  9  1  0
  9 10  2  0
 10 11  1  0
 11 12  2  0
  6  2  1  0
 12  7  1  0
M  END
