CVD-0000466|dock_bobby27042020.98|mol2|26|dock1
     RDKit          3D

 22 23  0  0  0  0  0  0  0  0999 V2000
   14.3761    5.7808   21.5801 C   0  0  0  0  0  0  0  0  0  0  0  0
   14.1559    4.5579   22.4212 C   0  0  0  0  0  0  0  0  0  0  0  0
   14.4902    4.5125   23.6010 O   0  0  0  0  0  0  0  0  0  0  0  0
   13.5906    3.5166   21.8072 N   0  0  0  0  0  0  0  0  0  0  0  0
   13.3280    2.2547   22.4836 C   0  0  0  0  0  0  0  0  0  0  0  0
   12.1007    2.3151   23.3724 C   0  0  0  0  0  0  0  0  0  0  0  0
   10.8571    1.7749   22.7270 C   0  0  0  0  0  0  0  0  0  0  0  0
    9.7549    2.4864   22.3527 C   0  0  0  0  0  0  0  0  0  0  0  0
    8.8169    1.6614   21.7950 N   0  0  0  0  0  0  0  0  0  0  0  0
    9.3070    0.3791   21.8008 C   0  0  0  0  0  0  0  0  0  0  0  0
    8.7151   -0.7990   21.3368 C   0  0  0  0  0  0  0  0  0  0  0  0
    7.3377   -0.8147   20.7122 C   0  0  0  0  0  0  0  0  0  0  0  0
    7.3576   -0.4189   19.2468 C   0  0  0  0  0  0  0  0  0  0  0  0
    6.0415   -0.6351   18.6338 N   0  0  0  0  0  0  0  0  0  0  0  0
    5.3685    0.5342   17.7676 S   0  0  0  0  0  0  0  0  0  0  0  0
    4.8142    1.7676   18.8805 C   0  0  0  0  0  0  0  0  0  0  0  0
    4.2228   -0.0288   17.1224 O   0  0  0  0  0  0  0  0  0  0  0  0
    6.4003    1.1007   16.9551 O   0  0  0  0  0  0  0  0  0  0  0  0
    9.4426   -1.9775   21.4752 C   0  0  0  0  0  0  0  0  0  0  0  0
   10.7048   -1.9767   22.0500 C   0  0  0  0  0  0  0  0  0  0  0  0
   11.2796   -0.7986   22.5031 C   0  0  0  0  0  0  0  0  0  0  0  0
   10.5876    0.4064   22.3834 C   0  0  0  0  0  0  0  0  0  0  0  0
  1  2  1  0
  2  3  2  0
  2  4  1  0
  4  5  1  0
  5  6  1  0
  6  7  1  0
  7  8  2  0
  8  9  1  0
  9 10  1  0
 10 11  2  0
 11 12  1  0
 12 13  1  0
 13 14  1  0
 14 15  1  0
 15 16  1  0
 15 17  2  0
 15 18  2  0
 11 19  1  0
 19 20  2  0
 20 21  1  0
 21 22  2  0
 22  7  1  0
 22 10  1  0
M  END
