CVD-0001935|dock_bobby27042020.8|mol2|1|dock3
     RDKit          3D

 23 24  0  0  0  0  0  0  0  0999 V2000
    5.4004   -1.0464   18.0536 N   0  0  0  0  0  0  0  0  0  0  0  0
    5.3813    0.5509   17.9469 S   0  0  0  0  0  0  0  0  0  0  0  0
    6.3290    0.9192   16.9384 O   0  0  0  0  0  0  0  0  0  0  0  0
    4.0145    0.9486   17.7900 O   0  0  0  0  0  0  0  0  0  0  0  0
    5.9534    1.2214   19.4787 C   0  0  0  0  0  0  0  0  0  0  0  0
    5.1757    2.1388   20.1651 C   0  0  0  0  0  0  0  0  0  0  0  0
    5.6377    2.6600   21.3606 C   0  0  0  0  0  0  0  0  0  0  0  0
    6.8662    2.2689   21.8655 C   0  0  0  0  0  0  0  0  0  0  0  0
    7.4210    3.0331   23.5090 Br  0  0  0  0  0  0  0  0  0  0  0  0
    7.6536    1.3456   21.1768 C   0  0  0  0  0  0  0  0  0  0  0  0
    7.1848    0.8274   19.9779 C   0  0  0  0  0  0  0  0  0  0  0  0
    9.2373    0.7909   21.7445 S   0  0  0  0  0  0  0  0  0  0  0  0
    9.2059    0.7877   23.1752 O   0  0  0  0  0  0  0  0  0  0  0  0
   10.2335    1.5583   21.0615 O   0  0  0  0  0  0  0  0  0  0  0  0
    9.4209   -0.7390   21.2759 N   0  0  0  0  0  0  0  0  0  0  0  0
    8.9021   -1.8296   22.1102 C   0  0  0  0  0  0  0  0  0  0  0  0
    9.8352   -2.1023   23.2762 C   0  0  0  0  0  0  0  0  0  0  0  0
   11.1811   -1.4380   23.1146 C   0  0  0  0  0  0  0  0  0  0  0  0
   12.0270   -1.7918   22.0746 C   0  0  0  0  0  0  0  0  0  0  0  0
   13.2631   -1.1850   21.9278 C   0  0  0  0  0  0  0  0  0  0  0  0
   13.6693   -0.2167   22.8205 C   0  0  0  0  0  0  0  0  0  0  0  0
   12.8392    0.1440   23.8598 C   0  0  0  0  0  0  0  0  0  0  0  0
   11.6032   -0.4635   24.0058 C   0  0  0  0  0  0  0  0  0  0  0  0
  1  2  1  0
  2  3  2  0
  2  4  2  0
  2  5  1  0
  5  6  2  0
  6  7  1  0
  7  8  2  0
  8  9  1  0
  8 10  1  0
 10 11  2  0
 10 12  1  0
 12 13  2  0
 12 14  2  0
 12 15  1  0
 15 16  1  0
 16 17  1  0
 17 18  1  0
 18 19  2  0
 19 20  1  0
 20 21  2  0
 21 22  1  0
 22 23  2  0
 11  5  1  0
 23 18  1  0
M  END
