CVD-0000997|dock_bobby27042020.25|mol2|24|dock1
     RDKit          3D

 35 39  0  0  0  0  0  0  0  0999 V2000
   13.4542    9.2393   25.2391 C   0  0  0  0  0  0  0  0  0  0  0  0
   13.8314    8.6609   23.9912 O   0  0  0  0  0  0  0  0  0  0  0  0
   13.5364    7.3480   23.7198 C   0  0  0  0  0  0  0  0  0  0  0  0
   13.7940    6.8685   22.4468 C   0  0  0  0  0  0  0  0  0  0  0  0
   13.5120    5.5519   22.1302 C   0  0  0  0  0  0  0  0  0  0  0  0
   12.9690    4.6944   23.0786 C   0  0  0  0  0  0  0  0  0  0  0  0
   12.7147    5.1869   24.3527 C   0  0  0  0  0  0  0  0  0  0  0  0
   12.9939    6.5028   24.6777 C   0  0  0  0  0  0  0  0  0  0  0  0
   12.6693    3.2941   22.7410 C   0  0  0  0  0  0  0  0  0  0  0  0
   13.5133    2.3055   22.6804 N   0  0  0  0  0  0  0  0  0  0  0  0
   12.7287    1.2135   22.3241 C   0  0  0  0  0  0  0  0  0  0  0  0
   13.0351   -0.1263   22.1000 C   0  0  0  0  0  0  0  0  0  0  0  0
   12.0182   -1.0006   21.7471 C   0  0  0  0  0  0  0  0  0  0  0  0
   10.6917   -0.5826   21.6129 C   0  0  0  0  0  0  0  0  0  0  0  0
   10.3989    0.7644   21.8422 C   0  0  0  0  0  0  0  0  0  0  0  0
   11.4251    1.6211   22.1890 C   0  0  0  0  0  0  0  0  0  0  0  0
   11.3637    2.9738   22.4556 O   0  0  0  0  0  0  0  0  0  0  0  0
    9.6147   -1.5383   21.2364 C   0  0  0  0  0  0  0  0  0  0  0  0
    9.2808   -2.6199   22.0462 C   0  0  0  0  0  0  0  0  0  0  0  0
    8.2780   -3.4980   21.6777 C   0  0  0  0  0  0  0  0  0  0  0  0
    7.6074   -3.2696   20.4790 C   0  0  0  0  0  0  0  0  0  0  0  0
    6.6114   -4.1010   20.0682 N   0  0  0  0  0  0  0  0  0  0  0  0
    6.5484   -5.5055   20.4202 C   0  0  0  0  0  0  0  0  0  0  0  0
    5.7880   -5.7831   21.6945 C   0  0  0  0  0  0  0  0  0  0  0  0
    5.8191   -7.0352   22.2857 C   0  0  0  0  0  0  0  0  0  0  0  0
    5.1275   -7.2899   23.4566 C   0  0  0  0  0  0  0  0  0  0  0  0
    4.3816   -6.2969   24.0840 C   0  0  0  0  0  0  0  0  0  0  0  0
    4.3495   -5.0430   23.4819 C   0  0  0  0  0  0  0  0  0  0  0  0
    5.0425   -4.7920   22.3109 C   0  0  0  0  0  0  0  0  0  0  0  0
    3.6251   -6.5735   25.3932 C   0  0  0  0  0  0  0  0  0  0  0  0
    2.8389   -7.8832   25.2831 C   0  0  0  0  0  0  0  0  0  0  0  0
    2.6400   -5.4436   25.7082 C   0  0  0  0  0  0  0  0  0  0  0  0
    4.5939   -6.6891   26.5741 C   0  0  0  0  0  0  0  0  0  0  0  0
    7.9025   -2.2390   19.6825 N   0  0  0  0  0  0  0  0  0  0  0  0
    8.8821   -1.4104   20.0618 C   0  0  0  0  0  0  0  0  0  0  0  0
  1  2  1  0
  2  3  1  0
  3  4  2  0
  4  5  1  0
  5  6  2  0
  6  7  1  0
  7  8  2  0
  6  9  1  0
  9 10  2  0
 10 11  1  0
 11 12  2  0
 12 13  1  0
 13 14  2  0
 14 15  1  0
 15 16  2  0
 16 17  1  0
 14 18  1  0
 18 19  2  0
 19 20  1  0
 20 21  2  0
 21 22  1  0
 22 23  1  0
 23 24  1  0
 24 25  2  0
 25 26  1  0
 26 27  2  0
 27 28  1  0
 28 29  2  0
 27 30  1  0
 30 31  1  0
 30 32  1  0
 30 33  1  0
 21 34  1  0
 34 35  2  0
  8  3  1  0
 17  9  1  0
 35 18  1  0
 16 11  1  0
 29 24  1  0
M  END
