CVD-0003894|dock_bobby27042020.72|mol2|24|dock1
     RDKit          3D

 24 27  0  0  0  0  0  0  0  0999 V2000
   13.4935    5.5885   22.4429 C   0  0  0  0  0  0  0  0  0  0  0  0
   12.1348    4.9686   22.6610 C   0  0  0  0  0  0  0  0  0  0  0  0
   11.0905    5.7180   23.1798 C   0  0  0  0  0  0  0  0  0  0  0  0
    9.8684    5.1210   23.3597 C   0  0  0  0  0  0  0  0  0  0  0  0
    8.8513    5.8677   23.8682 F   0  0  0  0  0  0  0  0  0  0  0  0
    9.6229    3.8067   23.0511 C   0  0  0  0  0  0  0  0  0  0  0  0
   10.6600    3.0337   22.5307 C   0  0  0  0  0  0  0  0  0  0  0  0
   11.9038    3.6386   22.3410 C   0  0  0  0  0  0  0  0  0  0  0  0
   10.4063    1.6039   22.1870 C   0  0  0  0  0  0  0  0  0  0  0  0
    9.3448    1.4312   21.4157 N   0  0  0  0  0  0  0  0  0  0  0  0
    9.0478    0.1983   20.9874 C   0  0  0  0  0  0  0  0  0  0  0  0
    9.7180   -0.9135   21.2688 N   0  0  0  0  0  0  0  0  0  0  0  0
   10.7964   -0.7737   22.1002 C   0  0  0  0  0  0  0  0  0  0  0  0
   11.5317   -1.9302   22.4508 C   0  0  0  0  0  0  0  0  0  0  0  0
   12.6053   -1.8397   23.2855 C   0  0  0  0  0  0  0  0  0  0  0  0
   12.9907   -0.6238   23.8088 C   0  0  0  0  0  0  0  0  0  0  0  0
   12.3113    0.5168   23.4990 C   0  0  0  0  0  0  0  0  0  0  0  0
   11.1963    0.4860   22.6187 C   0  0  0  0  0  0  0  0  0  0  0  0
    7.8593    0.0540   20.1152 C   0  0  0  0  0  0  0  0  0  0  0  0
    7.7282   -1.0197   19.2426 C   0  0  0  0  0  0  0  0  0  0  0  0
    6.6048   -1.1244   18.4415 C   0  0  0  0  0  0  0  0  0  0  0  0
    5.6390   -0.1485   18.5353 C   0  0  0  0  0  0  0  0  0  0  0  0
    5.7323    0.8948   19.3612 N   0  0  0  0  0  0  0  0  0  0  0  0
    6.8242    0.9794   20.1273 C   0  0  0  0  0  0  0  0  0  0  0  0
  1  2  1  0
  2  3  2  0
  3  4  1  0
  4  5  1  0
  4  6  2  0
  6  7  1  0
  7  8  2  0
  7  9  1  0
  9 10  2  0
 10 11  1  0
 11 12  2  0
 12 13  1  0
 13 14  2  0
 14 15  1  0
 15 16  2  0
 16 17  1  0
 17 18  2  0
 11 19  1  0
 19 20  2  0
 20 21  1  0
 21 22  2  0
 22 23  1  0
 23 24  2  0
  8  2  1  0
 18  9  1  0
 24 19  1  0
 18 13  1  0
M  END
