CVD-0001014|dock_bobby27042020.54|mol2|6|dock2
     RDKit          3D

 25 27  0  0  0  0  0  0  0  0999 V2000
   13.1849    5.9702   20.9262 F   0  0  0  0  0  0  0  0  0  0  0  0
   13.9773    5.2712   21.7311 C   0  0  0  0  0  0  0  0  0  0  0  0
   14.3208    6.0975   22.7126 F   0  0  0  0  0  0  0  0  0  0  0  0
   15.0886    5.0427   21.0408 F   0  0  0  0  0  0  0  0  0  0  0  0
   13.3356    4.0157   22.2285 C   0  0  0  0  0  0  0  0  0  0  0  0
   11.9708    3.9628   22.4765 C   0  0  0  0  0  0  0  0  0  0  0  0
   11.3752    2.8013   22.9354 C   0  0  0  0  0  0  0  0  0  0  0  0
   12.1295    1.6568   23.1856 C   0  0  0  0  0  0  0  0  0  0  0  0
   13.4934    1.7118   22.9167 C   0  0  0  0  0  0  0  0  0  0  0  0
   14.0876    2.8699   22.4481 C   0  0  0  0  0  0  0  0  0  0  0  0
   11.5697    0.3621   23.7067 C   0  0  0  0  0  0  0  0  0  0  0  0
   11.9386    0.0253   24.8186 O   0  0  0  0  0  0  0  0  0  0  0  0
   10.7024   -0.4392   23.0481 N   0  0  0  0  0  0  0  0  0  0  0  0
   10.1177   -1.6782   23.5706 C   0  0  0  0  0  0  0  0  0  0  0  0
    8.6064   -1.6456   23.4636 C   0  0  0  0  0  0  0  0  0  0  0  0
    8.1314   -1.3246   22.0482 C   0  0  0  0  0  0  0  0  0  0  0  0
    6.6074   -1.1837   21.9510 C   0  0  0  0  0  0  0  0  0  0  0  0
    6.0948   -0.8838   20.5634 C   0  0  0  0  0  0  0  0  0  0  0  0
    5.8686   -1.9062   19.6551 C   0  0  0  0  0  0  0  0  0  0  0  0
    5.4013   -1.6310   18.3808 C   0  0  0  0  0  0  0  0  0  0  0  0
    5.1557   -0.3295   17.9996 C   0  0  0  0  0  0  0  0  0  0  0  0
    5.3776    0.6967   18.8926 C   0  0  0  0  0  0  0  0  0  0  0  0
    5.8449    0.4210   20.1668 C   0  0  0  0  0  0  0  0  0  0  0  0
    8.8460   -0.0824   21.5318 C   0  0  0  0  0  0  0  0  0  0  0  0
   10.3502   -0.1851   21.6558 C   0  0  0  0  0  0  0  0  0  0  0  0
  1  2  1  0
  2  3  1  0
  2  4  1  0
  2  5  1  0
  5  6  2  0
  6  7  1  0
  7  8  2  0
  8  9  1  0
  9 10  2  0
  8 11  1  0
 11 12  2  0
 11 13  1  0
 13 14  1  0
 14 15  1  0
 15 16  1  0
 16 17  1  0
 17 18  1  0
 18 19  2  0
 19 20  1  0
 20 21  2  0
 21 22  1  0
 22 23  2  0
 16 24  1  0
 24 25  1  0
 10  5  1  0
 25 13  1  0
 23 18  1  0
M  END
