CVD-0001647|dock_bobby27042020.80|mol2|27|dock3
     RDKit          3D

 19 20  0  0  0  0  0  0  0  0999 V2000
   14.3881    0.3124   22.4772 F   0  0  0  0  0  0  0  0  0  0  0  0
   13.2937    0.3615   23.2281 C   0  0  0  0  0  0  0  0  0  0  0  0
   13.7324    0.3041   24.4802 F   0  0  0  0  0  0  0  0  0  0  0  0
   12.6525   -0.7741   22.9768 F   0  0  0  0  0  0  0  0  0  0  0  0
   12.4828    1.6062   22.9358 C   0  0  0  0  0  0  0  0  0  0  0  0
   13.3019    2.6221   22.6700 N   0  0  0  0  0  0  0  0  0  0  0  0
   12.7847    3.8530   22.5189 C   0  0  0  0  0  0  0  0  0  0  0  0
   11.4242    4.1137   22.5914 C   0  0  0  0  0  0  0  0  0  0  0  0
   10.5666    3.0497   22.8000 C   0  0  0  0  0  0  0  0  0  0  0  0
   11.0722    1.7563   22.9480 C   0  0  0  0  0  0  0  0  0  0  0  0
   10.1601    0.6772   23.1016 N   0  0  0  0  0  0  0  0  0  0  0  0
    9.1903    0.2796   22.0748 C   0  0  0  0  0  0  0  0  0  0  0  0
    9.6549   -0.9369   21.2424 C   0  0  0  0  0  0  0  0  0  0  0  0
    9.5529   -2.2388   22.0676 C   0  0  0  0  0  0  0  0  0  0  0  0
   10.3878   -2.1069   23.2180 O   0  0  0  0  0  0  0  0  0  0  0  0
    9.7832   -1.4670   24.3423 C   0  0  0  0  0  0  0  0  0  0  0  0
   10.1583    0.0306   24.4235 C   0  0  0  0  0  0  0  0  0  0  0  0
   13.7357    4.9193   22.2726 C   0  0  0  0  0  0  0  0  0  0  0  0
   14.4560    5.7822   22.0688 N   0  0  0  0  0  0  0  0  0  0  0  0
  1  2  1  0
  2  3  1  0
  2  4  1  0
  2  5  1  0
  5  6  2  0
  6  7  1  0
  7  8  2  0
  8  9  1  0
  9 10  2  0
 10 11  1  0
 11 12  1  0
 12 13  1  0
 13 14  1  0
 14 15  1  0
 15 16  1  0
 16 17  1  0
  7 18  1  0
 18 19  3  0
 10  5  1  0
 17 11  1  0
M  END
