CVD-0000375|dock_bobby27042020.98|mol2|40|dock3
     RDKit          3D

 27 29  0  0  0  0  0  0  0  0999 V2000
   13.8380    5.3201   21.9376 C   0  0  0  0  0  0  0  0  0  0  0  0
   12.5757    4.6105   22.3243 C   0  0  0  0  0  0  0  0  0  0  0  0
   12.5520    3.2423   22.5375 C   0  0  0  0  0  0  0  0  0  0  0  0
   11.3428    2.6526   22.8985 C   0  0  0  0  0  0  0  0  0  0  0  0
   10.2223    3.3852   23.0171 N   0  0  0  0  0  0  0  0  0  0  0  0
   10.3624    4.6903   22.7851 C   0  0  0  0  0  0  0  0  0  0  0  0
   11.4693    5.3519   22.4496 N   0  0  0  0  0  0  0  0  0  0  0  0
   11.1759    1.1976   23.1746 C   0  0  0  0  0  0  0  0  0  0  0  0
   10.0387    0.5627   22.6691 C   0  0  0  0  0  0  0  0  0  0  0  0
    9.8251   -0.7887   22.8747 C   0  0  0  0  0  0  0  0  0  0  0  0
   10.7274   -1.5597   23.5873 C   0  0  0  0  0  0  0  0  0  0  0  0
   10.4923   -3.0366   23.7957 C   0  0  0  0  0  0  0  0  0  0  0  0
    9.9369   -3.3561   25.1186 N   0  0  0  0  0  0  0  0  0  0  0  0
    9.8559   -4.8080   25.3035 C   0  0  0  0  0  0  0  0  0  0  0  0
    9.3207   -5.1323   26.6859 C   0  0  0  0  0  0  0  0  0  0  0  0
    8.0031   -4.5232   26.8802 N   0  0  0  0  0  0  0  0  0  0  0  0
    8.0381   -3.0767   26.6433 C   0  0  0  0  0  0  0  0  0  0  0  0
    8.6021   -2.7817   25.2653 C   0  0  0  0  0  0  0  0  0  0  0  0
    6.9187   -5.2309   27.2595 C   0  0  0  0  0  0  0  0  0  0  0  0
    6.9616   -6.4299   27.4588 O   0  0  0  0  0  0  0  0  0  0  0  0
    5.5586   -4.5325   27.4596 C   0  0  0  0  0  0  0  0  0  0  0  0
    5.6209   -3.5777   28.3777 F   0  0  0  0  0  0  0  0  0  0  0  0
    4.6175   -5.3806   27.8510 F   0  0  0  0  0  0  0  0  0  0  0  0
    5.1232   -3.9640   26.3436 F   0  0  0  0  0  0  0  0  0  0  0  0
   11.8591   -0.9465   24.1043 C   0  0  0  0  0  0  0  0  0  0  0  0
   12.0525    0.3955   23.8996 C   0  0  0  0  0  0  0  0  0  0  0  0
   13.1614    0.9415   24.4489 F   0  0  0  0  0  0  0  0  0  0  0  0
  1  2  1  0
  2  3  2  0
  3  4  1  0
  4  5  2  0
  5  6  1  0
  6  7  2  0
  4  8  1  0
  8  9  2  0
  9 10  1  0
 10 11  2  0
 11 12  1  0
 12 13  1  0
 13 14  1  0
 14 15  1  0
 15 16  1  0
 16 17  1  0
 17 18  1  0
 16 19  1  0
 19 20  2  0
 19 21  1  0
 21 22  1  0
 21 23  1  0
 21 24  1  0
 11 25  1  0
 25 26  2  0
 26 27  1  0
  7  2  1  0
 26  8  1  0
 18 13  1  0
M  END
