CVD-0000405|dock_bobby27042020.41|mol2|33|dock1
     RDKit          3D

 25 27  0  0  0  0  0  0  0  0999 V2000
   14.1274    6.1321   22.2355 C   0  0  0  0  0  0  0  0  0  0  0  0
   12.9858    5.1697   22.0020 C   0  0  0  0  0  0  0  0  0  0  0  0
   13.2296    3.8198   22.6506 C   0  0  0  0  0  0  0  0  0  0  0  0
   12.2328    2.7485   22.3183 C   0  0  0  0  0  0  0  0  0  0  0  0
   10.9119    2.9110   22.0165 C   0  0  0  0  0  0  0  0  0  0  0  0
   10.3243    1.6999   21.7701 N   0  0  0  0  0  0  0  0  0  0  0  0
   11.2753    0.7200   21.9121 C   0  0  0  0  0  0  0  0  0  0  0  0
   11.1839   -0.6669   21.7696 C   0  0  0  0  0  0  0  0  0  0  0  0
    9.9228   -1.1500   21.4196 O   0  0  0  0  0  0  0  0  0  0  0  0
    9.3985   -2.3006   21.9403 C   0  0  0  0  0  0  0  0  0  0  0  0
    8.3373   -2.9005   21.2786 C   0  0  0  0  0  0  0  0  0  0  0  0
    7.8041   -4.0721   21.7953 C   0  0  0  0  0  0  0  0  0  0  0  0
    6.6452   -4.7665   21.1223 C   0  0  0  0  0  0  0  0  0  0  0  0
    8.3685   -4.5787   22.9530 C   0  0  0  0  0  0  0  0  0  0  0  0
    9.4176   -3.9051   23.5205 C   0  0  0  0  0  0  0  0  0  0  0  0
    9.9531   -2.7755   23.0471 N   0  0  0  0  0  0  0  0  0  0  0  0
   10.1824   -4.5134   25.0221 S   0  0  0  0  0  0  0  0  0  0  0  0
    9.8464   -6.0756   25.1215 N   0  0  0  0  0  0  0  0  0  0  0  0
    9.5425   -3.8664   26.1280 O   0  0  0  0  0  0  0  0  0  0  0  0
   11.6008   -4.3892   24.8679 O   0  0  0  0  0  0  0  0  0  0  0  0
   12.3075   -1.4555   21.9658 C   0  0  0  0  0  0  0  0  0  0  0  0
   13.4801   -0.8187   22.3021 C   0  0  0  0  0  0  0  0  0  0  0  0
   14.5838   -1.5898   22.4970 F   0  0  0  0  0  0  0  0  0  0  0  0
   13.6165    0.5413   22.4552 C   0  0  0  0  0  0  0  0  0  0  0  0
   12.4905    1.3379   22.2563 C   0  0  0  0  0  0  0  0  0  0  0  0
  1  2  1  0
  2  3  1  0
  3  4  1  0
  4  5  2  0
  5  6  1  0
  6  7  1  0
  7  8  2  0
  8  9  1  0
  9 10  1  0
 10 11  2  0
 11 12  1  0
 12 13  1  0
 12 14  2  0
 14 15  1  0
 15 16  2  0
 15 17  1  0
 17 18  1  0
 17 19  2  0
 17 20  2  0
  8 21  1  0
 21 22  2  0
 22 23  1  0
 22 24  1  0
 24 25  2  0
 25  4  1  0
 25  7  1  0
 16 10  1  0
M  END
