CVD-0003686|dock_bobby27042020.15|mol2|44|dock2
     RDKit          3D

 26 28  0  0  0  0  0  0  0  0999 V2000
    5.1998    2.5874   19.0791 F   0  0  0  0  0  0  0  0  0  0  0  0
    5.4541    1.2512   19.1013 C   0  0  0  0  0  0  0  0  0  0  0  0
    5.4501    0.5642   17.9183 C   0  0  0  0  0  0  0  0  0  0  0  0
    5.7112   -0.7951   17.9567 C   0  0  0  0  0  0  0  0  0  0  0  0
    5.9658   -1.4229   19.1649 C   0  0  0  0  0  0  0  0  0  0  0  0
    5.9634   -0.7066   20.3518 C   0  0  0  0  0  0  0  0  0  0  0  0
    6.2448   -1.3924   21.6672 C   0  0  0  0  0  0  0  0  0  0  0  0
    7.5311   -2.1047   21.6837 N   0  0  0  0  0  0  0  0  0  0  0  0
    7.7443   -2.7481   22.9836 C   0  0  0  0  0  0  0  0  0  0  0  0
    9.0532   -3.5156   22.9812 C   0  0  0  0  0  0  0  0  0  0  0  0
   10.1703   -2.6209   22.6703 N   0  0  0  0  0  0  0  0  0  0  0  0
    9.9587   -1.9157   21.4023 C   0  0  0  0  0  0  0  0  0  0  0  0
    8.6313   -1.1799   21.4235 C   0  0  0  0  0  0  0  0  0  0  0  0
   11.2615   -2.5061   23.4632 C   0  0  0  0  0  0  0  0  0  0  0  0
   11.3697   -3.1606   24.4928 O   0  0  0  0  0  0  0  0  0  0  0  0
   12.3669   -1.5522   23.0718 C   0  0  0  0  0  0  0  0  0  0  0  0
   12.0123   -0.1023   23.3693 C   0  0  0  0  0  0  0  0  0  0  0  0
   12.9925    0.9252   22.8142 C   0  0  0  0  0  0  0  0  0  0  0  0
   12.6558    2.3917   23.1015 C   0  0  0  0  0  0  0  0  0  0  0  0
   13.7306    3.3280   22.8164 N   0  0  0  0  0  0  0  0  0  0  0  0
   13.3249    4.3693   22.0744 C   0  0  0  0  0  0  0  0  0  0  0  0
   13.9926    5.3485   21.7522 O   0  0  0  0  0  0  0  0  0  0  0  0
   12.0039    4.1524   21.7352 N   0  0  0  0  0  0  0  0  0  0  0  0
   11.5346    2.9814   22.2525 C   0  0  0  0  0  0  0  0  0  0  0  0
   10.3986    2.5365   22.1110 O   0  0  0  0  0  0  0  0  0  0  0  0
    5.7030    0.6572   20.3140 C   0  0  0  0  0  0  0  0  0  0  0  0
  1  2  1  0
  2  3  2  0
  3  4  1  0
  4  5  2  0
  5  6  1  0
  6  7  1  0
  7  8  1  0
  8  9  1  0
  9 10  1  0
 10 11  1  0
 11 12  1  0
 12 13  1  0
 11 14  1  0
 14 15  2  0
 14 16  1  0
 16 17  1  0
 17 18  1  0
 18 19  1  0
 19 20  1  0
 20 21  1  0
 21 22  2  0
 21 23  1  0
 23 24  1  0
 24 25  2  0
  6 26  2  0
 26  2  1  0
 13  8  1  0
 24 19  1  0
M  END
