CVD-0003543|dock_bobby27042020.73|mol2|27|dock1
     RDKit          3D

 18 18  0  0  0  0  0  0  0  0999 V2000
    5.7268   -0.5435   17.7714 C   0  0  0  0  0  0  0  0  0  0  0  0
    6.9883   -0.6338   18.4833 N   0  0  0  0  0  0  0  0  0  0  0  0
    7.1913    0.0200   19.6388 C   0  0  0  0  0  0  0  0  0  0  0  0
    6.3328    0.7271   20.1599 O   0  0  0  0  0  0  0  0  0  0  0  0
    8.4481   -0.1609   20.2063 N   0  0  0  0  0  0  0  0  0  0  0  0
    8.8921    0.5587   21.6267 S   0  0  0  0  0  0  0  0  0  0  0  0
    9.2733    1.8914   21.2871 O   0  0  0  0  0  0  0  0  0  0  0  0
    7.8174    0.3232   22.5357 O   0  0  0  0  0  0  0  0  0  0  0  0
   10.2013   -0.2040   22.1957 N   0  0  0  0  0  0  0  0  0  0  0  0
   10.0114   -1.5645   22.7184 C   0  0  0  0  0  0  0  0  0  0  0  0
   11.3248   -2.2811   22.7019 C   0  0  0  0  0  0  0  0  0  0  0  0
   12.3269   -1.5316   23.4416 N   0  0  0  0  0  0  0  0  0  0  0  0
   12.4818   -0.1421   22.9996 C   0  0  0  0  0  0  0  0  0  0  0  0
   11.1581    0.5635   23.0067 C   0  0  0  0  0  0  0  0  0  0  0  0
   13.0449   -2.1311   24.4126 C   0  0  0  0  0  0  0  0  0  0  0  0
   12.8753   -3.3057   24.7139 O   0  0  0  0  0  0  0  0  0  0  0  0
   14.0816   -1.2729   25.1106 C   0  0  0  0  0  0  0  0  0  0  0  0
   14.9525   -2.1960   26.3420 Cl  0  0  0  0  0  0  0  0  0  0  0  0
  1  2  1  0
  2  3  1  0
  3  4  2  0
  3  5  1  0
  5  6  1  0
  6  7  2  0
  6  8  2  0
  6  9  1  0
  9 10  1  0
 10 11  1  0
 11 12  1  0
 12 13  1  0
 13 14  1  0
 12 15  1  0
 15 16  2  0
 15 17  1  0
 17 18  1  0
 14  9  1  0
M  END
