CVD-0003107|dock_bobby27042020.3|mol2|15|dock1
     RDKit          3D

 29 32  0  0  0  0  0  0  0  0999 V2000
    8.6390   -0.5463   18.3267 N   0  0  0  0  0  0  0  0  0  0  0  0
    7.1643   -1.0038   18.7496 S   0  0  0  0  0  0  0  0  0  0  0  0
    6.5485    0.1088   19.4084 O   0  0  0  0  0  0  0  0  0  0  0  0
    6.5390   -1.5492   17.5824 O   0  0  0  0  0  0  0  0  0  0  0  0
    7.3006   -2.3085   19.9337 C   0  0  0  0  0  0  0  0  0  0  0  0
    6.5491   -3.4600   19.7705 C   0  0  0  0  0  0  0  0  0  0  0  0
    6.6274   -4.4516   20.7284 C   0  0  0  0  0  0  0  0  0  0  0  0
    7.4424   -4.3142   21.8462 C   0  0  0  0  0  0  0  0  0  0  0  0
    7.5944   -5.4394   22.8412 C   0  0  0  0  0  0  0  0  0  0  0  0
    8.0265   -4.9130   24.1938 C   0  0  0  0  0  0  0  0  0  0  0  0
    9.2665   -4.0499   24.0430 C   0  0  0  0  0  0  0  0  0  0  0  0
    8.9927   -2.9360   23.1443 N   0  0  0  0  0  0  0  0  0  0  0  0
    9.8209   -1.7405   23.2785 C   0  0  0  0  0  0  0  0  0  0  0  0
   11.0492   -1.7652   22.3914 C   0  0  0  0  0  0  0  0  0  0  0  0
   11.7273   -0.4769   22.3801 N   0  0  0  0  0  0  0  0  0  0  0  0
   13.0315   -0.3470   22.6079 C   0  0  0  0  0  0  0  0  0  0  0  0
   13.7703   -1.3062   22.8073 O   0  0  0  0  0  0  0  0  0  0  0  0
   13.5716    1.0673   22.5938 C   0  0  0  0  0  0  0  0  0  0  0  0
   12.8613    2.0144   23.5139 C   0  0  0  0  0  0  0  0  0  0  0  0
   11.9485    1.6993   24.4773 C   0  0  0  0  0  0  0  0  0  0  0  0
   11.5150    2.8295   25.1178 N   0  0  0  0  0  0  0  0  0  0  0  0
   12.1480    3.9079   24.5727 C   0  0  0  0  0  0  0  0  0  0  0  0
   12.0029    5.1985   24.9176 N   0  0  0  0  0  0  0  0  0  0  0  0
   12.7395    6.0820   24.2301 C   0  0  0  0  0  0  0  0  0  0  0  0
   13.6099    5.7350   23.2190 C   0  0  0  0  0  0  0  0  0  0  0  0
   13.7473    4.3991   22.8761 C   0  0  0  0  0  0  0  0  0  0  0  0
   13.0034    3.4404   23.5608 C   0  0  0  0  0  0  0  0  0  0  0  0
    8.2045   -3.1376   22.0043 C   0  0  0  0  0  0  0  0  0  0  0  0
    8.1241   -2.1381   21.0365 C   0  0  0  0  0  0  0  0  0  0  0  0
  1  2  1  0
  2  3  2  0
  2  4  2  0
  2  5  1  0
  5  6  2  0
  6  7  1  0
  7  8  2  0
  8  9  1  0
  9 10  1  0
 10 11  1  0
 11 12  1  0
 12 13  1  0
 13 14  1  0
 14 15  1  0
 15 16  1  0
 16 17  2  0
 16 18  1  0
 18 19  1  0
 19 20  2  0
 20 21  1  0
 21 22  1  0
 22 23  2  0
 23 24  1  0
 24 25  2  0
 25 26  1  0
 26 27  2  0
 12 28  1  0
 28 29  2  0
 29  5  1  0
 28  8  1  0
 27 19  1  0
 27 22  1  0
M  END
