CVD-0000051|dock_bobby27042020.28|mol2|34|dock1
     RDKit          3D

 39 42  0  0  0  0  0  0  0  0999 V2000
    4.1868    2.3161   26.1905 C   0  0  0  0  0  0  0  0  0  0  0  0
    5.0916    1.4362   25.3627 C   0  0  0  0  0  0  0  0  0  0  0  0
    5.3221    0.1193   25.7163 C   0  0  0  0  0  0  0  0  0  0  0  0
    6.1644   -0.6368   24.9319 C   0  0  0  0  0  0  0  0  0  0  0  0
    6.7703   -0.1681   23.8351 N   0  0  0  0  0  0  0  0  0  0  0  0
    6.5421    1.0963   23.4668 C   0  0  0  0  0  0  0  0  0  0  0  0
    5.7210    1.9292   24.2289 C   0  0  0  0  0  0  0  0  0  0  0  0
    7.2014    1.4932   22.2647 N   0  0  0  0  0  0  0  0  0  0  0  0
    6.3481    2.0501   21.1853 C   0  0  0  0  0  0  0  0  0  0  0  0
    6.3190    1.2583   19.8804 C   0  0  0  0  0  0  0  0  0  0  0  0
    6.2314   -0.2423   20.1488 C   0  0  0  0  0  0  0  0  0  0  0  0
    6.0278   -1.0187   18.8651 C   0  0  0  0  0  0  0  0  0  0  0  0
    4.8599   -0.5926   18.1835 O   0  0  0  0  0  0  0  0  0  0  0  0
    4.9708    0.7783   17.8058 C   0  0  0  0  0  0  0  0  0  0  0  0
    5.1336    1.6814   19.0067 C   0  0  0  0  0  0  0  0  0  0  0  0
    8.5807    1.4035   22.0116 C   0  0  0  0  0  0  0  0  0  0  0  0
    9.0233    1.7684   20.9294 O   0  0  0  0  0  0  0  0  0  0  0  0
    9.4634    0.9058   22.9397 N   0  0  0  0  0  0  0  0  0  0  0  0
   10.8687    0.8061   22.6733 C   0  0  0  0  0  0  0  0  0  0  0  0
   11.5100   -0.4150   22.3942 C   0  0  0  0  0  0  0  0  0  0  0  0
   10.7520   -1.7137   22.1718 C   0  0  0  0  0  0  0  0  0  0  0  0
   10.2989   -2.3784   23.4599 C   0  0  0  0  0  0  0  0  0  0  0  0
    9.3301   -3.4390   23.2214 N   0  0  0  0  0  0  0  0  0  0  0  0
    8.1056   -3.2147   22.7509 C   0  0  0  0  0  0  0  0  0  0  0  0
    7.6798   -2.0974   22.4748 O   0  0  0  0  0  0  0  0  0  0  0  0
    7.2388   -4.4507   22.5792 C   0  0  0  0  0  0  0  0  0  0  0  0
    6.3522   -4.7252   23.7121 N   0  0  0  0  0  0  0  0  0  0  0  0
    7.1396   -5.0680   24.8987 C   0  0  0  0  0  0  0  0  0  0  0  0
    6.2440   -5.4150   26.0668 C   0  0  0  0  0  0  0  0  0  0  0  0
    5.3348   -6.5231   25.7392 N   0  0  0  0  0  0  0  0  0  0  0  0
    4.5684   -6.2040   24.5236 C   0  0  0  0  0  0  0  0  0  0  0  0
    5.4792   -5.8476   23.3782 C   0  0  0  0  0  0  0  0  0  0  0  0
   12.9097   -0.4127   22.3057 C   0  0  0  0  0  0  0  0  0  0  0  0
   13.7234   -1.6684   22.1274 C   0  0  0  0  0  0  0  0  0  0  0  0
   13.5643    0.8093   22.3890 C   0  0  0  0  0  0  0  0  0  0  0  0
   12.9589    1.9902   22.5391 N   0  0  0  0  0  0  0  0  0  0  0  0
   11.6157    2.0006   22.6950 C   0  0  0  0  0  0  0  0  0  0  0  0
   10.9741    3.3044   22.8933 C   0  0  0  0  0  0  0  0  0  0  0  0
   11.5506    4.4581   22.7289 C   0  0  0  0  0  0  0  0  0  0  0  0
  1  2  1  0
  2  3  2  0
  3  4  1  0
  4  5  2  0
  5  6  1  0
  6  7  2  0
  6  8  1  0
  8  9  1  0
  9 10  1  0
 10 11  1  0
 11 12  1  0
 12 13  1  0
 13 14  1  0
 14 15  1  0
  8 16  1  0
 16 17  2  0
 16 18  1  0
 18 19  1  0
 19 20  1  0
 20 21  1  0
 21 22  1  0
 22 23  1  0
 23 24  1  0
 24 25  2  0
 24 26  1  0
 26 27  1  0
 27 28  1  0
 28 29  1  0
 29 30  1  0
 30 31  1  0
 31 32  1  0
 20 33  2  0
 33 34  1  0
 33 35  1  0
 35 36  2  0
 36 37  1  0
 37 38  1  0
 38 39  2  0
  7  2  1  0
 15 10  1  0
 37 19  2  0
 32 27  1  0
M  END
