CVD-0000275|dock_bobby27042020.85|mol2|3|dock3
     RDKit          3D

 23 25  0  0  0  0  0  0  0  0999 V2000
   14.2138    5.6197   21.6049 C   0  0  0  0  0  0  0  0  0  0  0  0
   13.0574    4.7307   22.0554 C   0  0  0  0  0  0  0  0  0  0  0  0
   13.5637    3.3052   22.2504 C   0  0  0  0  0  0  0  0  0  0  0  0
   14.7679    3.0683   22.2664 O   0  0  0  0  0  0  0  0  0  0  0  0
   12.5726    2.3905   22.3940 N   0  0  0  0  0  0  0  0  0  0  0  0
   12.6155    0.9875   22.5917 C   0  0  0  0  0  0  0  0  0  0  0  0
   13.7845    0.2386   22.4880 C   0  0  0  0  0  0  0  0  0  0  0  0
   13.7521   -1.1302   22.6941 C   0  0  0  0  0  0  0  0  0  0  0  0
   12.5664   -1.7731   23.0045 C   0  0  0  0  0  0  0  0  0  0  0  0
   11.4021   -1.0289   23.1088 C   0  0  0  0  0  0  0  0  0  0  0  0
   10.1901   -1.6123   23.4158 O   0  0  0  0  0  0  0  0  0  0  0  0
    9.2145   -1.8344   22.4110 C   0  0  0  0  0  0  0  0  0  0  0  0
    8.0729   -0.8074   22.5047 C   0  0  0  0  0  0  0  0  0  0  0  0
    8.5191   -0.3951   21.1123 C   0  0  0  0  0  0  0  0  0  0  0  0
    8.1156    0.3699   20.2418 O   0  0  0  0  0  0  0  0  0  0  0  0
    9.5423   -1.2860   21.1147 N   0  0  0  0  0  0  0  0  0  0  0  0
   11.4240    0.3413   22.9040 C   0  0  0  0  0  0  0  0  0  0  0  0
   12.4235    5.2386   23.3373 C   0  0  0  0  0  0  0  0  0  0  0  0
   11.0634    5.5531   23.3920 C   0  0  0  0  0  0  0  0  0  0  0  0
   10.4835    6.0040   24.5071 N   0  0  0  0  0  0  0  0  0  0  0  0
   11.2738    6.1405   25.5721 C   0  0  0  0  0  0  0  0  0  0  0  0
   12.6192    5.8331   25.5268 C   0  0  0  0  0  0  0  0  0  0  0  0
   13.2071    5.3806   24.4122 N   0  0  0  0  0  0  0  0  0  0  0  0
  1  2  1  0
  2  3  1  0
  3  4  2  0
  3  5  1  0
  5  6  1  0
  6  7  2  0
  7  8  1  0
  8  9  2  0
  9 10  1  0
 10 11  1  0
 11 12  1  0
 12 13  1  0
 13 14  1  0
 14 15  2  0
 14 16  1  0
 10 17  2  0
  2 18  1  0
 18 19  2  0
 19 20  1  0
 20 21  2  0
 21 22  1  0
 22 23  2  0
 17  6  1  0
 23 18  1  0
 16 12  1  0
M  END
