CVD-0003714|dock_bobby27042020.15|mol2|40|dock2
     RDKit          3D

 21 22  0  0  0  0  0  0  0  0999 V2000
    5.0296    1.1245   18.9653 C   0  0  0  0  0  0  0  0  0  0  0  0
    5.9390    0.0539   18.3794 C   0  0  0  0  0  0  0  0  0  0  0  0
    7.3890    0.5152   18.4194 C   0  0  0  0  0  0  0  0  0  0  0  0
    5.7805   -1.2264   19.1229 C   0  0  0  0  0  0  0  0  0  0  0  0
    5.2985   -2.3481   18.7313 N   0  0  0  0  0  0  0  0  0  0  0  0
    5.3755   -3.2164   19.8183 N   0  0  0  0  0  0  0  0  0  0  0  0
    5.8930   -2.5473   20.7814 C   0  0  0  0  0  0  0  0  0  0  0  0
    6.1846   -1.2625   20.4261 O   0  0  0  0  0  0  0  0  0  0  0  0
    6.2075   -2.9837   22.1804 C   0  0  0  0  0  0  0  0  0  0  0  0
    7.4685   -2.2833   22.7087 C   0  0  0  0  0  0  0  0  0  0  0  0
    8.2535   -3.1251   23.6852 C   0  0  0  0  0  0  0  0  0  0  0  0
    9.5933   -3.4043   23.4651 C   0  0  0  0  0  0  0  0  0  0  0  0
   10.3198   -4.1725   24.3574 C   0  0  0  0  0  0  0  0  0  0  0  0
    9.7066   -4.6752   25.4937 C   0  0  0  0  0  0  0  0  0  0  0  0
   10.4168   -5.4338   26.3777 O   0  0  0  0  0  0  0  0  0  0  0  0
    8.3682   -4.4033   25.7276 C   0  0  0  0  0  0  0  0  0  0  0  0
    7.6539   -3.6336   24.8267 C   0  0  0  0  0  0  0  0  0  0  0  0
    6.3896   -4.4259   22.1644 N   0  0  0  0  0  0  0  0  0  0  0  0
    5.4348   -5.2604   22.5894 C   0  0  0  0  0  0  0  0  0  0  0  0
    5.7511   -6.7243   22.4989 C   0  0  0  0  0  0  0  0  0  0  0  0
    4.3577   -4.8541   23.0141 O   0  0  0  0  0  0  0  0  0  0  0  0
  1  2  1  0
  2  3  1  0
  2  4  1  0
  4  5  2  0
  5  6  1  0
  6  7  2  0
  7  8  1  0
  7  9  1  0
  9 10  1  0
 10 11  1  0
 11 12  2  0
 12 13  1  0
 13 14  2  0
 14 15  1  0
 14 16  1  0
 16 17  2  0
  9 18  1  0
 18 19  1  0
 19 20  1  0
 19 21  2  0
  8  4  1  0
 17 11  1  0
M  END
