CVD-0002136|dock_bobby27042020.78|mol2|29|dock3
     RDKit          3D

 22 24  0  0  0  0  0  0  0  0999 V2000
    8.4487    0.0296   26.4575 C   0  0  0  0  0  0  0  0  0  0  0  0
    9.2639    0.9704   25.5927 C   0  0  0  0  0  0  0  0  0  0  0  0
   10.5880    0.3935   25.1508 C   0  0  0  0  0  0  0  0  0  0  0  0
   11.2218    1.3562   24.1730 C   0  0  0  0  0  0  0  0  0  0  0  0
   10.4925    1.3710   22.8394 C   0  0  0  0  0  0  0  0  0  0  0  0
   10.3149   -0.0544   22.3308 C   0  0  0  0  0  0  0  0  0  0  0  0
    9.6403   -0.8987   23.3908 C   0  0  0  0  0  0  0  0  0  0  0  0
   10.4288   -0.9093   24.5932 O   0  0  0  0  0  0  0  0  0  0  0  0
    9.4483   -2.3639   23.0400 C   0  0  0  0  0  0  0  0  0  0  0  0
    8.2226   -2.6104   22.2027 C   0  0  0  0  0  0  0  0  0  0  0  0
    7.7632   -4.0446   22.2309 C   0  0  0  0  0  0  0  0  0  0  0  0
    6.7296   -4.4840   21.3874 C   0  0  0  0  0  0  0  0  0  0  0  0
    6.1014   -3.6464   20.5061 O   0  0  0  0  0  0  0  0  0  0  0  0
    6.3351   -5.8202   21.3903 C   0  0  0  0  0  0  0  0  0  0  0  0
    5.3509   -6.2233   20.5454 O   0  0  0  0  0  0  0  0  0  0  0  0
    6.9618   -6.7292   22.2283 C   0  0  0  0  0  0  0  0  0  0  0  0
    7.9791   -6.2953   23.0580 C   0  0  0  0  0  0  0  0  0  0  0  0
    8.3893   -4.9581   23.0696 C   0  0  0  0  0  0  0  0  0  0  0  0
    9.4336   -4.4952   24.0631 C   0  0  0  0  0  0  0  0  0  0  0  0
    9.3105   -5.1718   25.4240 C   0  0  0  0  0  0  0  0  0  0  0  0
    9.7858   -6.5724   25.4650 N   0  0  0  0  0  0  0  0  0  0  0  0
    9.3553   -3.0834   24.2784 O   0  0  0  0  0  0  0  0  0  0  0  0
  1  2  1  0
  2  3  1  0
  3  4  1  0
  4  5  1  0
  5  6  1  0
  6  7  1  0
  7  8  1  0
  7  9  1  0
  9 10  1  0
 10 11  1  0
 11 12  2  0
 12 13  1  0
 12 14  1  0
 14 15  1  0
 14 16  2  0
 16 17  1  0
 17 18  2  0
 18 19  1  0
 19 20  1  0
 20 21  1  0
 19 22  1  0
  8  3  1  0
 22  9  1  0
 18 11  1  0
M  END
