CVD-0002779|dock_bobby27042020.4|mol2|28|dock2
     RDKit          3D

 33 36  0  0  0  0  0  0  0  0999 V2000
    5.5472    1.8775   18.7565 N   0  0  0  0  0  0  0  0  0  0  0  0
    6.1830    0.5604   18.6234 C   0  0  0  0  0  0  0  0  0  0  0  0
    5.1850   -0.5442   18.3382 C   0  0  0  0  0  0  0  0  0  0  0  0
    5.8843   -1.8899   18.1938 C   0  0  0  0  0  0  0  0  0  0  0  0
    6.7242   -2.2223   19.4122 C   0  0  0  0  0  0  0  0  0  0  0  0
    7.7181   -1.1087   19.7039 C   0  0  0  0  0  0  0  0  0  0  0  0
    6.9978    0.2398   19.8690 C   0  0  0  0  0  0  0  0  0  0  0  0
    8.5693   -1.3935   20.9228 C   0  0  0  0  0  0  0  0  0  0  0  0
    8.1915   -2.1533   21.8108 O   0  0  0  0  0  0  0  0  0  0  0  0
    9.7456   -0.7682   20.9645 N   0  0  0  0  0  0  0  0  0  0  0  0
   10.6855   -0.9312   22.0661 C   0  0  0  0  0  0  0  0  0  0  0  0
   11.9215   -0.0639   21.8982 C   0  0  0  0  0  0  0  0  0  0  0  0
   13.2959   -0.5182   22.3114 C   0  0  0  0  0  0  0  0  0  0  0  0
   12.4791    0.3268   23.2366 C   0  0  0  0  0  0  0  0  0  0  0  0
   12.8789    1.7816   23.4415 C   0  0  0  0  0  0  0  0  0  0  0  0
   13.9712    1.9710   23.9407 O   0  0  0  0  0  0  0  0  0  0  0  0
   12.0954    2.9278   23.1004 N   0  0  0  0  0  0  0  0  0  0  0  0
   10.6955    2.9408   22.7765 C   0  0  0  0  0  0  0  0  0  0  0  0
   10.1206    1.8606   22.8126 O   0  0  0  0  0  0  0  0  0  0  0  0
   10.0864    4.1270   22.4527 N   0  0  0  0  0  0  0  0  0  0  0  0
    8.7178    4.4377   22.2436 C   0  0  0  0  0  0  0  0  0  0  0  0
    7.6651    3.5967   22.6005 C   0  0  0  0  0  0  0  0  0  0  0  0
    6.3550    3.9773   22.3605 C   0  0  0  0  0  0  0  0  0  0  0  0
    6.0698    5.1932   21.7651 C   0  0  0  0  0  0  0  0  0  0  0  0
    7.1174    6.0163   21.4165 C   0  0  0  0  0  0  0  0  0  0  0  0
    6.7458    7.6896   20.5981 Br  0  0  0  0  0  0  0  0  0  0  0  0
    8.4292    5.6601   21.6450 C   0  0  0  0  0  0  0  0  0  0  0  0
   12.6225    4.2686   23.0450 C   0  0  0  0  0  0  0  0  0  0  0  0
   12.6095    5.0972   24.1560 C   0  0  0  0  0  0  0  0  0  0  0  0
   13.1383    6.3714   24.0476 C   0  0  0  0  0  0  0  0  0  0  0  0
   13.6602    6.7659   22.8365 C   0  0  0  0  0  0  0  0  0  0  0  0
   13.6851    5.9820   21.7572 N   0  0  0  0  0  0  0  0  0  0  0  0
   13.1728    4.7527   21.8706 C   0  0  0  0  0  0  0  0  0  0  0  0
  2  1  1  0
  2  3  1  0
  3  4  1  0
  4  5  1  0
  5  6  1  0
  6  7  1  0
  6  8  1  0
  8  9  2  0
  8 10  1  0
 10 11  1  0
 12 11  1  0
 12 13  1  0
 13 14  1  0
 14 15  1  0
 15 16  2  0
 15 17  1  0
 17 18  1  0
 18 19  2  0
 18 20  1  0
 20 21  1  0
 21 22  2  0
 22 23  1  0
 23 24  2  0
 24 25  1  0
 25 26  1  0
 25 27  2  0
 17 28  1  0
 28 29  2  0
 29 30  1  0
 30 31  2  0
 31 32  1  0
 32 33  2  0
  7  2  1  0
 14 12  1  0
 27 21  1  0
 33 28  1  0
M  END
