CVD-0003376|dock_bobby27042020.31|mol2|10|dock2
     RDKit          3D

 20 22  0  0  0  0  0  0  0  0999 V2000
   14.1846   -1.9125   25.2972 C   0  0  0  0  0  0  0  0  0  0  0  0
   13.7301   -1.2369   24.0831 N   0  0  0  0  0  0  0  0  0  0  0  0
   12.6574   -0.2879   24.3954 C   0  0  0  0  0  0  0  0  0  0  0  0
   12.2179    0.4400   23.1386 C   0  0  0  0  0  0  0  0  0  0  0  0
   11.7682   -0.5160   22.1244 N   0  0  0  0  0  0  0  0  0  0  0  0
   12.7993   -1.5168   21.8329 C   0  0  0  0  0  0  0  0  0  0  0  0
   13.2381   -2.2092   23.1105 C   0  0  0  0  0  0  0  0  0  0  0  0
   10.5440   -0.4374   21.5234 C   0  0  0  0  0  0  0  0  0  0  0  0
   10.0823   -1.4256   20.9766 O   0  0  0  0  0  0  0  0  0  0  0  0
    9.8637    0.7877   21.5613 N   0  0  0  0  0  0  0  0  0  0  0  0
    8.5723    1.1033   21.0924 C   0  0  0  0  0  0  0  0  0  0  0  0
    7.7685    2.0218   21.7243 C   0  0  0  0  0  0  0  0  0  0  0  0
    8.1209    2.9339   23.1297 Cl  0  0  0  0  0  0  0  0  0  0  0  0
    6.5869    2.1473   21.0859 N   0  0  0  0  0  0  0  0  0  0  0  0
    6.5787    1.3101   20.0091 C   0  0  0  0  0  0  0  0  0  0  0  0
    5.5584    1.1749   19.1458 N   0  0  0  0  0  0  0  0  0  0  0  0
    5.7779    0.2957   18.1694 C   0  0  0  0  0  0  0  0  0  0  0  0
    6.8700   -0.4344   17.9745 N   0  0  0  0  0  0  0  0  0  0  0  0
    7.8603   -0.2684   18.8572 C   0  0  0  0  0  0  0  0  0  0  0  0
    7.8009    0.6134   19.9445 C   0  0  0  0  0  0  0  0  0  0  0  0
  1  2  1  0
  2  3  1  0
  3  4  1  0
  4  5  1  0
  5  6  1  0
  6  7  1  0
  5  8  1  0
  8  9  2  0
  8 10  1  0
 10 11  1  0
 11 12  2  0
 12 13  1  0
 12 14  1  0
 14 15  1  0
 15 16  2  0
 16 17  1  0
 17 18  2  0
 18 19  1  0
 19 20  2  0
  7  2  1  0
 20 11  1  0
 20 15  1  0
M  END
