CVD-0001034|dock_bobby27042020.54|mol2|3|dock1
     RDKit          3D

 30 33  0  0  0  0  0  0  0  0999 V2000
    2.7851   -7.0085   25.8899 F   0  0  0  0  0  0  0  0  0  0  0  0
    3.6539   -6.5672   24.9408 C   0  0  0  0  0  0  0  0  0  0  0  0
    4.9690   -6.4070   25.2836 C   0  0  0  0  0  0  0  0  0  0  0  0
    5.8539   -5.9588   24.3190 C   0  0  0  0  0  0  0  0  0  0  0  0
    5.3924   -5.6869   23.0413 C   0  0  0  0  0  0  0  0  0  0  0  0
    4.0552   -5.8557   22.7205 C   0  0  0  0  0  0  0  0  0  0  0  0
    3.1726   -6.3040   23.6871 C   0  0  0  0  0  0  0  0  0  0  0  0
    6.5152   -5.1110   21.8151 S   0  0  0  0  0  0  0  0  0  0  0  0
    7.5402   -6.0951   21.6548 O   0  0  0  0  0  0  0  0  0  0  0  0
    5.7535   -4.6849   20.6825 O   0  0  0  0  0  0  0  0  0  0  0  0
    7.2429   -3.7786   22.4097 N   0  0  0  0  0  0  0  0  0  0  0  0
    8.3782   -3.8591   23.3152 C   0  0  0  0  0  0  0  0  0  0  0  0
    9.4523   -2.8673   22.8993 C   0  0  0  0  0  0  0  0  0  0  0  0
    8.9313   -1.4735   22.7393 C   0  0  0  0  0  0  0  0  0  0  0  0
    7.7341   -1.4720   21.8019 C   0  0  0  0  0  0  0  0  0  0  0  0
    6.6614   -2.4484   22.2760 C   0  0  0  0  0  0  0  0  0  0  0  0
   10.0007   -0.5223   22.2442 C   0  0  0  0  0  0  0  0  0  0  0  0
   10.0278   -0.0947   21.0932 O   0  0  0  0  0  0  0  0  0  0  0  0
   10.9284   -0.1803   23.1787 N   0  0  0  0  0  0  0  0  0  0  0  0
   12.0038    0.6498   23.0388 C   0  0  0  0  0  0  0  0  0  0  0  0
   13.2498    0.3511   22.8222 N   0  0  0  0  0  0  0  0  0  0  0  0
   13.9357    1.5630   22.7625 N   0  0  0  0  0  0  0  0  0  0  0  0
   13.0597    2.4893   22.9458 C   0  0  0  0  0  0  0  0  0  0  0  0
   11.8029    1.9906   23.1297 O   0  0  0  0  0  0  0  0  0  0  0  0
   13.2699    3.9479   22.9745 C   0  0  0  0  0  0  0  0  0  0  0  0
   13.9242    4.5806   21.9265 C   0  0  0  0  0  0  0  0  0  0  0  0
   14.0985    5.9518   21.9973 C   0  0  0  0  0  0  0  0  0  0  0  0
   13.6243    6.6427   23.0913 C   0  0  0  0  0  0  0  0  0  0  0  0
   12.9876    5.9316   24.0833 C   0  0  0  0  0  0  0  0  0  0  0  0
   12.8021    4.6052   24.0466 N   0  0  0  0  0  0  0  0  0  0  0  0
  1  2  1  0
  2  3  2  0
  3  4  1  0
  4  5  2  0
  5  6  1  0
  6  7  2  0
  5  8  1  0
  8  9  2  0
  8 10  2  0
  8 11  1  0
 11 12  1  0
 12 13  1  0
 13 14  1  0
 14 15  1  0
 15 16  1  0
 14 17  1  0
 17 18  2  0
 17 19  1  0
 19 20  1  0
 20 21  2  0
 21 22  1  0
 22 23  2  0
 23 24  1  0
 23 25  1  0
 25 26  2  0
 26 27  1  0
 27 28  2  0
 28 29  1  0
 29 30  2  0
  7  2  1  0
 16 11  1  0
 24 20  1  0
 30 25  1  0
M  END
