CVD-0002896|dock_bobby27042020.89|mol2|38|dock1
     RDKit          3D

 17 17  0  0  0  0  0  0  0  0999 V2000
    8.9736   -5.1147   26.9980 C   0  0  0  0  0  0  0  0  0  0  0  0
   10.0649   -5.5259   26.0324 C   0  0  0  0  0  0  0  0  0  0  0  0
   10.1572   -6.9521   25.9977 O   0  0  0  0  0  0  0  0  0  0  0  0
    9.8264   -4.9705   24.6335 C   0  0  0  0  0  0  0  0  0  0  0  0
    8.7424   -5.6871   23.8569 C   0  0  0  0  0  0  0  0  0  0  0  0
    8.9732   -6.6801   23.1739 O   0  0  0  0  0  0  0  0  0  0  0  0
    7.5250   -5.1619   23.9650 N   0  0  0  0  0  0  0  0  0  0  0  0
    6.3636   -5.7174   23.2848 C   0  0  0  0  0  0  0  0  0  0  0  0
    5.7599   -4.7438   22.2921 C   0  0  0  0  0  0  0  0  0  0  0  0
    6.6255   -4.5450   21.0545 C   0  0  0  0  0  0  0  0  0  0  0  0
    6.4922   -3.1749   20.4348 C   0  0  0  0  0  0  0  0  0  0  0  0
    7.0899   -2.0673   21.0153 C   0  0  0  0  0  0  0  0  0  0  0  0
    6.9690   -0.8128   20.4445 C   0  0  0  0  0  0  0  0  0  0  0  0
    6.2485   -0.6217   19.2765 C   0  0  0  0  0  0  0  0  0  0  0  0
    6.1205    0.7471   18.6537 C   0  0  0  0  0  0  0  0  0  0  0  0
    5.6544   -1.7310   18.6969 C   0  0  0  0  0  0  0  0  0  0  0  0
    5.7732   -2.9870   19.2650 C   0  0  0  0  0  0  0  0  0  0  0  0
  1  2  1  0
  2  3  1  0
  2  4  1  0
  4  5  1  0
  5  6  2  0
  5  7  1  0
  7  8  1  0
  8  9  1  0
  9 10  1  0
 10 11  1  0
 11 12  2  0
 12 13  1  0
 13 14  2  0
 14 15  1  0
 14 16  1  0
 16 17  2  0
 17 11  1  0
M  END
