CVD-0000899|dock_bobby27042020.11|mol2|27|dock3
     RDKit          3D

 27 29  0  0  0  0  0  0  0  0999 V2000
   13.9035    5.7566   21.4088 N   0  0  0  0  0  0  0  0  0  0  0  0
   13.6086    5.2798   22.9084 S   0  0  0  0  0  0  0  0  0  0  0  0
   12.8464    6.3154   23.5391 O   0  0  0  0  0  0  0  0  0  0  0  0
   14.8616    4.8935   23.4847 O   0  0  0  0  0  0  0  0  0  0  0  0
   12.5886    3.8294   22.8457 C   0  0  0  0  0  0  0  0  0  0  0  0
   13.2356    2.6035   22.8053 C   0  0  0  0  0  0  0  0  0  0  0  0
   12.5013    1.4333   22.7556 C   0  0  0  0  0  0  0  0  0  0  0  0
   11.1150    1.4657   22.7436 C   0  0  0  0  0  0  0  0  0  0  0  0
   10.4673    2.6915   22.7834 C   0  0  0  0  0  0  0  0  0  0  0  0
   11.1869    3.8754   22.8330 C   0  0  0  0  0  0  0  0  0  0  0  0
   10.4975    5.0488   22.8676 O   0  0  0  0  0  0  0  0  0  0  0  0
   10.2980    0.1931   22.6937 C   0  0  0  0  0  0  0  0  0  0  0  0
    8.9896    0.2924   23.4543 C   0  0  0  0  0  0  0  0  0  0  0  0
    8.5292   -1.1377   23.6747 C   0  0  0  0  0  0  0  0  0  0  0  0
    9.7226   -1.9035   24.2194 C   0  0  0  0  0  0  0  0  0  0  0  0
    9.8054   -3.4241   24.2249 C   0  0  0  0  0  0  0  0  0  0  0  0
    9.3951   -4.0317   25.4973 N   0  0  0  0  0  0  0  0  0  0  0  0
    7.9578   -3.8045   25.7101 C   0  0  0  0  0  0  0  0  0  0  0  0
    7.4985   -4.4284   27.0100 C   0  0  0  0  0  0  0  0  0  0  0  0
    7.7349   -5.8650   26.9844 N   0  0  0  0  0  0  0  0  0  0  0  0
    9.1665   -6.0987   26.7982 C   0  0  0  0  0  0  0  0  0  0  0  0
    9.6474   -5.4774   25.5062 C   0  0  0  0  0  0  0  0  0  0  0  0
    7.1690   -6.6249   28.1056 C   0  0  0  0  0  0  0  0  0  0  0  0
    7.0201   -5.7941   29.2308 O   0  0  0  0  0  0  0  0  0  0  0  0
    5.8081   -7.2155   27.8005 C   0  0  0  0  0  0  0  0  0  0  0  0
    5.2551   -8.3506   29.0648 Cl  0  0  0  0  0  0  0  0  0  0  0  0
   11.1795   -1.2443   23.3658 S   0  0  0  0  0  0  0  0  0  0  0  0
  1  2  1  0
  2  3  2  0
  2  4  2  0
  2  5  1  0
  5  6  2  0
  6  7  1  0
  7  8  2  0
  8  9  1  0
  9 10  2  0
 10 11  1  0
  8 12  1  0
 12 13  1  0
 13 14  1  0
 14 15  1  0
 15 16  1  0
 16 17  1  0
 17 18  1  0
 18 19  1  0
 19 20  1  0
 20 21  1  0
 21 22  1  0
 20 23  1  0
 23 24  1  0
 23 25  1  0
 25 26  1  0
 15 27  1  0
 10  5  1  0
 27 12  1  0
 22 17  1  0
M  END
