CVD-0003903|dock_bobby27042020.43|mol2|40|dock2
     RDKit          3D

 28 31  0  0  0  0  0  0  0  0999 V2000
    4.1924   -4.2606   24.8217 Cl  0  0  0  0  0  0  0  0  0  0  0  0
    5.6583   -4.0483   25.7874 C   0  0  0  0  0  0  0  0  0  0  0  0
    6.8073   -4.8913   25.2654 C   0  0  0  0  0  0  0  0  0  0  0  0
    6.6063   -5.7371   24.4030 O   0  0  0  0  0  0  0  0  0  0  0  0
    8.0526   -4.6952   25.7578 N   0  0  0  0  0  0  0  0  0  0  0  0
    9.1569   -5.4952   25.2349 C   0  0  0  0  0  0  0  0  0  0  0  0
   10.4797   -4.7552   25.2739 C   0  0  0  0  0  0  0  0  0  0  0  0
   10.5506   -3.4101   24.5706 C   0  0  0  0  0  0  0  0  0  0  0  0
    9.9468   -2.3084   25.3810 N   0  0  0  0  0  0  0  0  0  0  0  0
    9.8150   -1.2239   24.3970 C   0  0  0  0  0  0  0  0  0  0  0  0
   11.1292   -0.8078   23.7707 C   0  0  0  0  0  0  0  0  0  0  0  0
   12.0196   -0.0572   24.5331 C   0  0  0  0  0  0  0  0  0  0  0  0
   13.2222    0.3287   23.9841 C   0  0  0  0  0  0  0  0  0  0  0  0
   13.5960    0.0085   22.7488 N   0  0  0  0  0  0  0  0  0  0  0  0
   12.7557   -0.7303   22.0183 C   0  0  0  0  0  0  0  0  0  0  0  0
   11.4949   -1.1382   22.4517 C   0  0  0  0  0  0  0  0  0  0  0  0
   10.5691   -1.8627   21.6490 N   0  0  0  0  0  0  0  0  0  0  0  0
    9.4829   -1.4706   20.9422 C   0  0  0  0  0  0  0  0  0  0  0  0
    8.5930   -2.3941   20.4307 C   0  0  0  0  0  0  0  0  0  0  0  0
    7.5056   -1.7609   19.7790 C   0  0  0  0  0  0  0  0  0  0  0  0
    6.4148   -2.5036   19.0617 C   0  0  0  0  0  0  0  0  0  0  0  0
    5.7952   -1.6363   17.9876 C   0  0  0  0  0  0  0  0  0  0  0  0
    5.5628   -0.2797   18.3846 C   0  0  0  0  0  0  0  0  0  0  0  0
    6.7306    0.4931   18.9628 C   0  0  0  0  0  0  0  0  0  0  0  0
    7.5841   -0.4084   19.8051 C   0  0  0  0  0  0  0  0  0  0  0  0
    8.9925    0.1857   20.6276 S   0  0  0  0  0  0  0  0  0  0  0  0
    8.7578   -2.3346   26.2790 C   0  0  0  0  0  0  0  0  0  0  0  0
    8.3954   -3.7205   26.7829 C   0  0  0  0  0  0  0  0  0  0  0  0
  1  2  1  0
  2  3  1  0
  3  4  2  0
  3  5  1  0
  5  6  1  0
  6  7  1  0
  7  8  1  0
  8  9  1  0
  9 10  1  0
 10 11  1  0
 11 12  2  0
 12 13  1  0
 13 14  2  0
 14 15  1  0
 15 16  2  0
 16 17  1  0
 17 18  1  0
 18 19  2  0
 19 20  1  0
 20 21  1  0
 21 22  1  0
 22 23  1  0
 23 24  1  0
 24 25  1  0
 25 26  1  0
  9 27  1  0
 27 28  1  0
 28  5  1  0
 16 11  1  0
 26 18  1  0
 25 20  2  0
M  END
