CVD-0003113|dock_bobby27042020.89|mol2|5|dock1
     RDKit          3D

 17 18  0  0  0  0  0  0  0  0999 V2000
    6.0351   -1.0780   18.6668 C   0  0  0  0  0  0  0  0  0  0  0  0
    6.9743   -0.9873   19.8419 C   0  0  0  0  0  0  0  0  0  0  0  0
    7.0081   -2.2347   20.6156 N   0  0  0  0  0  0  0  0  0  0  0  0
    5.9203   -3.0605   20.5924 N   0  0  0  0  0  0  0  0  0  0  0  0
    6.2553   -4.0631   21.3951 C   0  0  0  0  0  0  0  0  0  0  0  0
    7.5227   -3.9087   21.9472 C   0  0  0  0  0  0  0  0  0  0  0  0
    7.9779   -2.7152   21.4283 C   0  0  0  0  0  0  0  0  0  0  0  0
    9.1665   -2.0139   21.6049 N   0  0  0  0  0  0  0  0  0  0  0  0
    9.5471   -1.3232   22.7570 C   0  0  0  0  0  0  0  0  0  0  0  0
    8.8654   -1.2821   23.7742 O   0  0  0  0  0  0  0  0  0  0  0  0
   10.7633   -0.6726   22.6863 N   0  0  0  0  0  0  0  0  0  0  0  0
   11.3146    0.0993   23.8041 C   0  0  0  0  0  0  0  0  0  0  0  0
   12.7929    0.3996   23.6514 C   0  0  0  0  0  0  0  0  0  0  0  0
   13.6804   -0.8423   23.5283 C   0  0  0  0  0  0  0  0  0  0  0  0
   13.7668   -1.3686   22.1082 C   0  0  0  0  0  0  0  0  0  0  0  0
   12.4465   -1.8196   21.5268 C   0  0  0  0  0  0  0  0  0  0  0  0
   11.4776   -0.7351   21.4859 O   0  0  0  0  0  0  0  0  0  0  0  0
  1  2  1  0
  2  3  1  0
  3  4  1  0
  4  5  2  0
  5  6  1  0
  6  7  2  0
  7  8  1  0
  8  9  1  0
  9 10  2  0
  9 11  1  0
 11 12  1  0
 12 13  1  0
 13 14  1  0
 14 15  1  0
 15 16  1  0
 16 17  1  0
  7  3  1  0
 17 11  1  0
M  END
