CVD-0000952|dock_bobby27042020.54|mol2|17|dock1
     RDKit          3D

 32 36  0  0  0  0  0  0  0  0999 V2000
   14.0256    5.2670   21.9784 C   0  0  0  0  0  0  0  0  0  0  0  0
   12.6251    5.0382   22.4201 C   0  0  0  0  0  0  0  0  0  0  0  0
   12.3403    3.6381   22.3127 O   0  0  0  0  0  0  0  0  0  0  0  0
   11.2321    3.0913   22.9117 C   0  0  0  0  0  0  0  0  0  0  0  0
   10.1115    3.8622   23.1812 C   0  0  0  0  0  0  0  0  0  0  0  0
    9.0130    3.2740   23.7850 C   0  0  0  0  0  0  0  0  0  0  0  0
    9.0349    1.9313   24.1203 C   0  0  0  0  0  0  0  0  0  0  0  0
   10.1539    1.1550   23.8579 C   0  0  0  0  0  0  0  0  0  0  0  0
   11.2518    1.7479   23.2518 C   0  0  0  0  0  0  0  0  0  0  0  0
   10.1795   -0.3206   24.2333 C   0  0  0  0  0  0  0  0  0  0  0  0
    9.2047   -1.0796   23.3960 C   0  0  0  0  0  0  0  0  0  0  0  0
    9.0496   -2.5109   23.9185 C   0  0  0  0  0  0  0  0  0  0  0  0
    8.0110   -3.2992   23.1798 C   0  0  0  0  0  0  0  0  0  0  0  0
    8.1155   -3.8278   21.9267 C   0  0  0  0  0  0  0  0  0  0  0  0
    6.9637   -4.4842   21.5830 N   0  0  0  0  0  0  0  0  0  0  0  0
    6.0838   -4.3899   22.6209 C   0  0  0  0  0  0  0  0  0  0  0  0
    4.8417   -4.8985   22.6851 N   0  0  0  0  0  0  0  0  0  0  0  0
    4.1664   -4.6715   23.8202 C   0  0  0  0  0  0  0  0  0  0  0  0
    4.6744   -3.9629   24.8878 C   0  0  0  0  0  0  0  0  0  0  0  0
    5.9575   -3.4453   24.8048 C   0  0  0  0  0  0  0  0  0  0  0  0
    6.7017   -3.6533   23.6454 C   0  0  0  0  0  0  0  0  0  0  0  0
    9.6127   -1.0865   21.9694 N   0  0  0  0  0  0  0  0  0  0  0  0
   11.0125   -1.4418   21.6589 C   0  0  0  0  0  0  0  0  0  0  0  0
   11.9562   -1.4646   22.8640 C   0  0  0  0  0  0  0  0  0  0  0  0
   13.2252   -2.0201   22.7336 C   0  0  0  0  0  0  0  0  0  0  0  0
   14.1095   -2.0414   23.7965 C   0  0  0  0  0  0  0  0  0  0  0  0
   13.7292   -1.5040   25.0052 C   0  0  0  0  0  0  0  0  0  0  0  0
   12.4683   -0.9503   25.1405 C   0  0  0  0  0  0  0  0  0  0  0  0
   11.5569   -0.9160   24.0843 C   0  0  0  0  0  0  0  0  0  0  0  0
    8.7097   -0.8269   20.9892 C   0  0  0  0  0  0  0  0  0  0  0  0
    7.2699   -0.5501   21.3141 C   0  0  0  0  0  0  0  0  0  0  0  0
    9.0798   -0.8320   19.8205 O   0  0  0  0  0  0  0  0  0  0  0  0
  1  2  1  0
  2  3  1  0
  3  4  1  0
  4  5  2  0
  5  6  1  0
  6  7  2  0
  7  8  1  0
  8  9  2  0
  8 10  1  0
 10 11  1  0
 11 12  1  0
 12 13  1  0
 13 14  2  0
 14 15  1  0
 15 16  1  0
 16 17  2  0
 17 18  1  0
 18 19  2  0
 19 20  1  0
 20 21  2  0
 11 22  1  0
 22 23  1  0
 23 24  1  0
 24 25  2  0
 25 26  1  0
 26 27  2  0
 27 28  1  0
 28 29  2  0
 22 30  1  0
 30 31  1  0
 30 32  2  0
  9  4  1  0
 29 10  1  0
 21 13  1  0
 29 24  1  0
 21 16  1  0
M  END
