CVD-0002740|dock_bobby27042020.62|mol2|8|dock1
     RDKit          3D

 29 31  0  0  0  0  0  0  0  0999 V2000
   11.1209    2.9703   24.4852 C   0  0  0  0  0  0  0  0  0  0  0  0
   10.2973    1.9873   25.2568 C   0  0  0  0  0  0  0  0  0  0  0  0
   10.9380    0.6839   25.3095 N   0  0  0  0  0  0  0  0  0  0  0  0
   11.6234    0.1595   24.2810 C   0  0  0  0  0  0  0  0  0  0  0  0
   12.9009    0.5671   24.1417 N   0  0  0  0  0  0  0  0  0  0  0  0
   13.6217    0.0571   23.1367 C   0  0  0  0  0  0  0  0  0  0  0  0
   13.1264   -0.8678   22.2255 C   0  0  0  0  0  0  0  0  0  0  0  0
   11.8072   -1.2808   22.3693 C   0  0  0  0  0  0  0  0  0  0  0  0
   11.0169   -0.7767   23.3981 C   0  0  0  0  0  0  0  0  0  0  0  0
    9.5683   -1.2577   23.5137 C   0  0  0  0  0  0  0  0  0  0  0  0
    9.0839   -1.8325   22.2357 N   0  0  0  0  0  0  0  0  0  0  0  0
    8.8435   -0.7793   21.2355 C   0  0  0  0  0  0  0  0  0  0  0  0
    8.3986   -1.3758   19.9256 C   0  0  0  0  0  0  0  0  0  0  0  0
    7.2003   -2.1999   20.1125 N   0  0  0  0  0  0  0  0  0  0  0  0
    7.3753   -3.2150   21.1494 C   0  0  0  0  0  0  0  0  0  0  0  0
    7.8278   -2.5579   22.4315 C   0  0  0  0  0  0  0  0  0  0  0  0
    6.0886   -2.1758   19.3482 C   0  0  0  0  0  0  0  0  0  0  0  0
    5.1290   -2.8979   19.5879 O   0  0  0  0  0  0  0  0  0  0  0  0
    6.0724   -1.2083   18.1802 C   0  0  0  0  0  0  0  0  0  0  0  0
    5.9052    0.4652   18.7269 Cl  0  0  0  0  0  0  0  0  0  0  0  0
    9.3967   -2.2173   24.6873 C   0  0  0  0  0  0  0  0  0  0  0  0
    8.6218   -1.8485   25.7785 C   0  0  0  0  0  0  0  0  0  0  0  0
    8.4541   -2.7052   26.8533 C   0  0  0  0  0  0  0  0  0  0  0  0
    9.0626   -3.9484   26.8539 C   0  0  0  0  0  0  0  0  0  0  0  0
    9.8340   -4.3077   25.7709 C   0  0  0  0  0  0  0  0  0  0  0  0
   10.6076   -5.8678   25.7576 Cl  0  0  0  0  0  0  0  0  0  0  0  0
   10.0104   -3.4618   24.6948 C   0  0  0  0  0  0  0  0  0  0  0  0
   13.9510   -1.3862   21.1620 C   0  0  0  0  0  0  0  0  0  0  0  0
   14.5779   -1.8138   20.3081 N   0  0  0  0  0  0  0  0  0  0  0  0
  1  2  1  0
  2  3  1  0
  3  4  1  0
  4  5  2  0
  5  6  1  0
  6  7  2  0
  7  8  1  0
  8  9  2  0
  9 10  1  0
 10 11  1  0
 11 12  1  0
 12 13  1  0
 13 14  1  0
 14 15  1  0
 15 16  1  0
 14 17  1  0
 17 18  2  0
 17 19  1  0
 19 20  1  0
 10 21  1  0
 21 22  2  0
 22 23  1  0
 23 24  2  0
 24 25  1  0
 25 26  1  0
 25 27  2  0
  7 28  1  0
 28 29  3  0
  9  4  1  0
 16 11  1  0
 27 21  1  0
M  END
