CVD-0000577|dock_bobby27042020.83|mol2|51|dock2
     RDKit          3D

 25 27  0  0  0  0  0  0  0  0999 V2000
    6.6051   -1.0632   18.6527 C   0  0  0  0  0  0  0  0  0  0  0  0
    6.3530    0.2134   19.4133 C   0  0  0  0  0  0  0  0  0  0  0  0
    5.1947    0.9324   19.1340 C   0  0  0  0  0  0  0  0  0  0  0  0
    4.9344    2.1007   19.8139 C   0  0  0  0  0  0  0  0  0  0  0  0
    5.7454    2.5938   20.7453 N   0  0  0  0  0  0  0  0  0  0  0  0
    6.8608    1.9114   21.0230 C   0  0  0  0  0  0  0  0  0  0  0  0
    7.2250    0.7181   20.3978 C   0  0  0  0  0  0  0  0  0  0  0  0
    8.4101   -0.0161   20.6875 N   0  0  0  0  0  0  0  0  0  0  0  0
    9.0930   -0.1452   21.8742 C   0  0  0  0  0  0  0  0  0  0  0  0
    8.7823    0.3767   22.9409 O   0  0  0  0  0  0  0  0  0  0  0  0
   10.1857   -0.9351   21.7501 N   0  0  0  0  0  0  0  0  0  0  0  0
   11.1149   -1.2605   22.8189 C   0  0  0  0  0  0  0  0  0  0  0  0
   12.2446   -2.0542   22.1678 C   0  0  0  0  0  0  0  0  0  0  0  0
   13.3697   -2.3075   23.1512 C   0  0  0  0  0  0  0  0  0  0  0  0
   13.8999   -1.0068   23.7349 C   0  0  0  0  0  0  0  0  0  0  0  0
   12.7800   -0.2035   24.3761 C   0  0  0  0  0  0  0  0  0  0  0  0
   11.6391    0.0460   23.3978 C   0  0  0  0  0  0  0  0  0  0  0  0
   10.5230   -2.1818   23.8105 C   0  0  0  0  0  0  0  0  0  0  0  0
    9.9545   -2.8725   24.6009 C   0  0  0  0  0  0  0  0  0  0  0  0
    9.3100   -3.6678   25.6085 C   0  0  0  0  0  0  0  0  0  0  0  0
    9.7683   -4.9412   25.9264 C   0  0  0  0  0  0  0  0  0  0  0  0
    9.1174   -5.6734   26.9042 C   0  0  0  0  0  0  0  0  0  0  0  0
    8.0295   -5.1130   27.5344 C   0  0  0  0  0  0  0  0  0  0  0  0
    7.5657   -3.8947   27.2522 N   0  0  0  0  0  0  0  0  0  0  0  0
    8.2017   -3.1968   26.3068 C   0  0  0  0  0  0  0  0  0  0  0  0
  1  2  1  0
  2  3  2  0
  3  4  1  0
  4  5  2  0
  5  6  1  0
  6  7  2  0
  7  8  1  0
  8  9  1  0
  9 10  2  0
  9 11  1  0
 11 12  1  0
 12 13  1  0
 13 14  1  0
 14 15  1  0
 15 16  1  0
 16 17  1  0
 12 18  1  0
 18 19  3  0
 19 20  1  0
 20 21  2  0
 21 22  1  0
 22 23  2  0
 23 24  1  0
 24 25  2  0
  7  2  1  0
 17 12  1  0
 25 20  1  0
M  END
