CVD-0003166|dock_bobby27042020.46|mol2|11|dock1
     RDKit          3D

 21 23  0  0  0  0  0  0  0  0999 V2000
   12.6370    5.2837   24.5972 O   0  0  0  0  0  0  0  0  0  0  0  0
   12.9472    5.3541   23.4110 C   0  0  0  0  0  0  0  0  0  0  0  0
   14.0329    5.9665   22.9321 N   0  0  0  0  0  0  0  0  0  0  0  0
   14.1533    5.9613   21.4865 C   0  0  0  0  0  0  0  0  0  0  0  0
   13.1457    4.9014   21.0607 C   0  0  0  0  0  0  0  0  0  0  0  0
   12.1984    4.7263   22.2645 C   0  0  0  0  0  0  0  0  0  0  0  0
   11.7944    3.2890   22.5521 C   0  0  0  0  0  0  0  0  0  0  0  0
   10.4653    2.8959   22.5005 C   0  0  0  0  0  0  0  0  0  0  0  0
   10.1397    1.5754   22.7681 C   0  0  0  0  0  0  0  0  0  0  0  0
    8.8271    1.1977   22.7075 O   0  0  0  0  0  0  0  0  0  0  0  0
    8.2021    0.8074   21.5216 C   0  0  0  0  0  0  0  0  0  0  0  0
    7.1228    1.5460   21.0683 C   0  0  0  0  0  0  0  0  0  0  0  0
    6.4907    1.1818   19.8910 C   0  0  0  0  0  0  0  0  0  0  0  0
    6.9319    0.0922   19.1714 C   0  0  0  0  0  0  0  0  0  0  0  0
    8.0086   -0.6396   19.6238 C   0  0  0  0  0  0  0  0  0  0  0  0
    8.6502   -0.2870   20.7993 C   0  0  0  0  0  0  0  0  0  0  0  0
   11.0358    0.6471   23.0700 N   0  0  0  0  0  0  0  0  0  0  0  0
   12.3250    1.0319   23.1181 C   0  0  0  0  0  0  0  0  0  0  0  0
   12.7432    2.3303   22.8683 C   0  0  0  0  0  0  0  0  0  0  0  0
   13.2875    0.0005   23.4523 C   0  0  0  0  0  0  0  0  0  0  0  0
   14.0731   -0.7914   23.6987 N   0  0  0  0  0  0  0  0  0  0  0  0
  1  2  2  0
  2  3  1  0
  3  4  1  0
  4  5  1  0
  5  6  1  0
  6  7  1  0
  7  8  2  0
  8  9  1  0
  9 10  1  0
 10 11  1  0
 11 12  2  0
 12 13  1  0
 13 14  2  0
 14 15  1  0
 15 16  2  0
  9 17  2  0
 17 18  1  0
 18 19  2  0
 18 20  1  0
 20 21  3  0
  6  2  1  0
 19  7  1  0
 16 11  1  0
M  END
