CVD-0002148|dock_bobby27042020.78|mol2|26|dock3
     RDKit          3D

 16 16  0  0  0  0  0  0  0  0999 V2000
   13.6803    4.9804   22.0033 C   0  0  0  0  0  0  0  0  0  0  0  0
   12.1770    4.6183   22.8254 S   0  0  0  0  0  0  0  0  0  0  0  0
   11.1492    5.4284   22.2482 O   0  0  0  0  0  0  0  0  0  0  0  0
   12.4083    4.7094   24.2340 O   0  0  0  0  0  0  0  0  0  0  0  0
   11.8051    3.0914   22.5083 N   0  0  0  0  0  0  0  0  0  0  0  0
   12.6175    2.0122   23.0823 C   0  0  0  0  0  0  0  0  0  0  0  0
   11.8151    0.7301   23.2235 C   0  0  0  0  0  0  0  0  0  0  0  0
   12.6549   -0.4426   23.6870 C   0  0  0  0  0  0  0  0  0  0  0  0
   13.0483   -0.3963   25.0223 C   0  0  0  0  0  0  0  0  0  0  0  0
   13.7970   -1.4053   25.5967 C   0  0  0  0  0  0  0  0  0  0  0  0
   14.1761   -2.4836   24.8339 C   0  0  0  0  0  0  0  0  0  0  0  0
   13.8156   -2.5524   23.4995 C   0  0  0  0  0  0  0  0  0  0  0  0
   13.0465   -1.5477   22.8988 C   0  0  0  0  0  0  0  0  0  0  0  0
   12.6815   -1.6892   21.4523 C   0  0  0  0  0  0  0  0  0  0  0  0
   11.3723   -1.7842   21.1185 N   0  0  0  0  0  0  0  0  0  0  0  0
   13.5106   -1.7300   20.4654 N   0  0  0  0  0  0  0  0  0  0  0  0
  1  2  1  0
  2  3  2  0
  2  4  2  0
  2  5  1  0
  5  6  1  0
  6  7  1  0
  7  8  1  0
  8  9  2  0
  9 10  1  0
 10 11  2  0
 11 12  1  0
 12 13  2  0
 13 14  1  0
 14 15  1  0
 14 16  2  0
 13  8  1  0
M  END
