CVD-0003768|dock_bobby27042020.86|mol2|43|dock3
     RDKit          3D

 26 29  0  0  0  0  0  0  0  0999 V2000
   13.2345    4.7894   21.4702 N   0  0  0  0  0  0  0  0  0  0  0  0
   12.5653    4.7522   22.9241 S   0  0  0  0  0  0  0  0  0  0  0  0
   13.2927    3.7936   23.7006 O   0  0  0  0  0  0  0  0  0  0  0  0
   12.4885    6.1044   23.3897 O   0  0  0  0  0  0  0  0  0  0  0  0
   10.9101    4.1545   22.7636 C   0  0  0  0  0  0  0  0  0  0  0  0
    9.8703    5.0565   22.6173 C   0  0  0  0  0  0  0  0  0  0  0  0
    8.5822    4.5711   22.4858 C   0  0  0  0  0  0  0  0  0  0  0  0
    8.3482    3.2072   22.5034 C   0  0  0  0  0  0  0  0  0  0  0  0
    9.3860    2.2931   22.6542 C   0  0  0  0  0  0  0  0  0  0  0  0
   10.6835    2.7859   22.7789 C   0  0  0  0  0  0  0  0  0  0  0  0
    9.0888    0.7793   22.6814 C   0  0  0  0  0  0  0  0  0  0  0  0
    8.1500    0.4419   23.8503 C   0  0  0  0  0  0  0  0  0  0  0  0
    7.7774   -1.0269   23.9158 C   0  0  0  0  0  0  0  0  0  0  0  0
    7.1293   -1.4954   22.6324 C   0  0  0  0  0  0  0  0  0  0  0  0
    7.9992   -1.1626   21.4373 C   0  0  0  0  0  0  0  0  0  0  0  0
    8.3605    0.3056   21.4150 C   0  0  0  0  0  0  0  0  0  0  0  0
   10.3928   -0.0366   22.8060 C   0  0  0  0  0  0  0  0  0  0  0  0
   10.9648   -0.7185   21.7334 C   0  0  0  0  0  0  0  0  0  0  0  0
   12.1158   -1.4361   21.8622 C   0  0  0  0  0  0  0  0  0  0  0  0
   12.7906   -1.5211   23.1026 C   0  0  0  0  0  0  0  0  0  0  0  0
   13.9878   -2.2528   23.2874 C   0  0  0  0  0  0  0  0  0  0  0  0
   14.5924   -2.2968   24.5087 C   0  0  0  0  0  0  0  0  0  0  0  0
   14.0516   -1.6306   25.5890 C   0  0  0  0  0  0  0  0  0  0  0  0
   12.8997   -0.9127   25.4602 C   0  0  0  0  0  0  0  0  0  0  0  0
   12.2358   -0.8376   24.2127 C   0  0  0  0  0  0  0  0  0  0  0  0
   11.0398   -0.1072   24.0293 C   0  0  0  0  0  0  0  0  0  0  0  0
  1  2  1  0
  2  3  2  0
  2  4  2  0
  2  5  1  0
  5  6  2  0
  6  7  1  0
  7  8  2  0
  8  9  1  0
  9 10  2  0
  9 11  1  0
 11 12  1  0
 12 13  1  0
 13 14  1  0
 14 15  1  0
 15 16  1  0
 11 17  1  0
 17 18  2  0
 18 19  1  0
 19 20  2  0
 20 21  1  0
 21 22  2  0
 22 23  1  0
 23 24  2  0
 24 25  1  0
 25 26  2  0
 10  5  1  0
 16 11  1  0
 26 17  1  0
 25 20  1  0
M  END
