CVD-0003823|dock_bobby27042020.0|mol2|39|dock2
     RDKit          3D

 20 21  0  0  0  0  0  0  0  0999 V2000
    7.2615   -5.6733   22.8381 C   0  0  0  0  0  0  0  0  0  0  0  0
    6.6553   -4.2955   22.9134 C   0  0  0  0  0  0  0  0  0  0  0  0
    7.3625   -3.3362   23.7388 N   0  0  0  0  0  0  0  0  0  0  0  0
    6.4345   -2.3314   24.2626 C   0  0  0  0  0  0  0  0  0  0  0  0
    8.5750   -2.7791   23.1017 C   0  0  0  0  0  0  0  0  0  0  0  0
    9.6276   -2.4336   24.1079 C   0  0  0  0  0  0  0  0  0  0  0  0
   10.8522   -1.7815   23.4868 C   0  0  0  0  0  0  0  0  0  0  0  0
   10.4556   -0.6464   22.6684 N   0  0  0  0  0  0  0  0  0  0  0  0
    9.4797   -0.9536   21.6298 C   0  0  0  0  0  0  0  0  0  0  0  0
    8.2310   -1.5537   22.2697 C   0  0  0  0  0  0  0  0  0  0  0  0
   11.1256    0.5683   22.7204 C   0  0  0  0  0  0  0  0  0  0  0  0
   10.4223    1.7690   22.7083 C   0  0  0  0  0  0  0  0  0  0  0  0
   11.0812    2.9847   22.7545 C   0  0  0  0  0  0  0  0  0  0  0  0
   12.4632    3.0123   22.8112 C   0  0  0  0  0  0  0  0  0  0  0  0
   13.1836    1.8312   22.8294 C   0  0  0  0  0  0  0  0  0  0  0  0
   12.5145    0.6210   22.7876 C   0  0  0  0  0  0  0  0  0  0  0  0
   13.3112    4.5616   22.8715 S   0  0  0  0  0  0  0  0  0  0  0  0
   12.9206    5.4047   21.5677 N   0  0  0  0  0  0  0  0  0  0  0  0
   12.8107    5.2791   24.0054 O   0  0  0  0  0  0  0  0  0  0  0  0
   14.7141    4.2847   22.7922 O   0  0  0  0  0  0  0  0  0  0  0  0
  1  2  1  0
  2  3  1  0
  3  4  1  0
  3  5  1  0
  5  6  1  0
  6  7  1  0
  7  8  1  0
  8  9  1  0
  9 10  1  0
  8 11  1  0
 11 12  2  0
 12 13  1  0
 13 14  2  0
 14 15  1  0
 15 16  2  0
 14 17  1  0
 17 18  1  0
 17 19  2  0
 17 20  2  0
 10  5  1  0
 16 11  1  0
M  END
