CVD-0001697|dock_bobby27042020.51|mol2|35|dock3
     RDKit          3D

 27 28  0  0  0  0  0  0  0  0999 V2000
   13.2203   -0.6206   24.5674 C   0  0  0  0  0  0  0  0  0  0  0  0
   12.7287   -1.0529   23.1799 C   0  0  0  0  0  0  0  0  0  0  0  0
   12.6910   -2.5822   23.0791 C   0  0  0  0  0  0  0  0  0  0  0  0
   13.8265   -0.6900   22.1717 C   0  0  0  0  0  0  0  0  0  0  0  0
   11.4075   -0.3690   22.7503 C   0  0  0  0  0  0  0  0  0  0  0  0
   11.1184    0.9509   22.7829 C   0  0  0  0  0  0  0  0  0  0  0  0
   11.8691    1.9167   23.3198 O   0  0  0  0  0  0  0  0  0  0  0  0
    9.8566    1.1868   22.0915 C   0  0  0  0  0  0  0  0  0  0  0  0
    9.2477    2.5579   21.9132 C   0  0  0  0  0  0  0  0  0  0  0  0
    8.5008    3.0074   23.0802 C   0  0  0  0  0  0  0  0  0  0  0  0
    7.9450    3.3706   24.0020 N   0  0  0  0  0  0  0  0  0  0  0  0
    9.3628    0.0090   21.6400 C   0  0  0  0  0  0  0  0  0  0  0  0
   10.2665   -1.0962   22.1019 C   0  0  0  0  0  0  0  0  0  0  0  0
    9.5801   -1.8830   23.0887 O   0  0  0  0  0  0  0  0  0  0  0  0
    8.7971   -1.3553   24.1036 C   0  0  0  0  0  0  0  0  0  0  0  0
    9.0568   -2.1367   25.3606 C   0  0  0  0  0  0  0  0  0  0  0  0
    9.0329   -0.0095   24.2697 F   0  0  0  0  0  0  0  0  0  0  0  0
    7.3531   -1.5518   23.7009 C   0  0  0  0  0  0  0  0  0  0  0  0
    6.4730   -0.7738   24.3095 N   0  0  0  0  0  0  0  0  0  0  0  0
    7.0290   -2.3881   22.8578 O   0  0  0  0  0  0  0  0  0  0  0  0
    8.2265   -0.1796   20.9435 N   0  0  0  0  0  0  0  0  0  0  0  0
    6.9687    0.4965   21.2750 C   0  0  0  0  0  0  0  0  0  0  0  0
    6.2889    1.0539   20.0565 C   0  0  0  0  0  0  0  0  0  0  0  0
    6.0452   -0.0419   19.0129 C   0  0  0  0  0  0  0  0  0  0  0  0
    5.3959    0.4740   17.8477 O   0  0  0  0  0  0  0  0  0  0  0  0
    7.3598   -0.7094   18.6965 C   0  0  0  0  0  0  0  0  0  0  0  0
    8.0625   -1.2439   19.9262 C   0  0  0  0  0  0  0  0  0  0  0  0
  1  2  1  0
  2  3  1  0
  2  4  1  0
  2  5  1  0
  5  6  2  0
  6  7  1  0
  6  8  1  0
  8  9  1  0
  9 10  1  0
 10 11  3  0
  8 12  2  0
 12 13  1  0
 13 14  1  0
 14 15  1  0
 15 16  1  0
 15 17  1  0
 15 18  1  0
 18 19  1  0
 18 20  2  0
 12 21  1  0
 21 22  1  0
 22 23  1  0
 23 24  1  0
 24 25  1  0
 24 26  1  0
 26 27  1  0
 13  5  1  0
 27 21  1  0
M  END
