CVD-0002480|dock_bobby27042020.91|mol2|18|dock2
     RDKit          3D

 29 32  0  0  0  0  0  0  0  0999 V2000
    1.5670   -9.4101   23.4335 F   0  0  0  0  0  0  0  0  0  0  0  0
    2.2682   -8.2678   23.7010 C   0  0  0  0  0  0  0  0  0  0  0  0
    2.8121   -7.9352   24.8555 C   0  0  0  0  0  0  0  0  0  0  0  0
    3.5795   -6.6791   25.0441 C   0  0  0  0  0  0  0  0  0  0  0  0
    3.2788   -5.7093   23.9145 C   0  0  0  0  0  0  0  0  0  0  0  0
    3.3475   -6.3230   22.5942 N   0  0  0  0  0  0  0  0  0  0  0  0
    4.7023   -6.6092   22.1056 C   0  0  0  0  0  0  0  0  0  0  0  0
    5.5772   -5.4159   21.8507 C   0  0  0  0  0  0  0  0  0  0  0  0
    5.3873   -4.6173   20.8545 N   0  0  0  0  0  0  0  0  0  0  0  0
    6.3102   -3.5740   20.8099 N   0  0  0  0  0  0  0  0  0  0  0  0
    7.1671   -3.6248   21.7857 C   0  0  0  0  0  0  0  0  0  0  0  0
    6.9219   -4.9657   22.8590 S   0  0  0  0  0  0  0  0  0  0  0  0
    8.2446   -2.6411   21.9673 C   0  0  0  0  0  0  0  0  0  0  0  0
    8.2442   -1.4432   21.2641 C   0  0  0  0  0  0  0  0  0  0  0  0
    9.2600   -0.5207   21.4382 C   0  0  0  0  0  0  0  0  0  0  0  0
   10.3063   -0.7672   22.3196 C   0  0  0  0  0  0  0  0  0  0  0  0
   11.3114    0.2253   22.4451 N   0  0  0  0  0  0  0  0  0  0  0  0
   11.2233    1.5987   22.4583 C   0  0  0  0  0  0  0  0  0  0  0  0
   10.1758    2.2285   22.3549 O   0  0  0  0  0  0  0  0  0  0  0  0
   12.4635    2.1773   22.6025 N   0  0  0  0  0  0  0  0  0  0  0  0
   12.8414    3.5422   22.6662 C   0  0  0  0  0  0  0  0  0  0  0  0
   12.0073    4.5707   23.0946 C   0  0  0  0  0  0  0  0  0  0  0  0
   12.4876    5.8689   23.1140 C   0  0  0  0  0  0  0  0  0  0  0  0
   13.7804    6.1053   22.7076 C   0  0  0  0  0  0  0  0  0  0  0  0
   14.6025    5.1421   22.2924 N   0  0  0  0  0  0  0  0  0  0  0  0
   14.1294    3.8927   22.2774 C   0  0  0  0  0  0  0  0  0  0  0  0
   10.3082   -1.9683   23.0257 C   0  0  0  0  0  0  0  0  0  0  0  0
    9.2898   -2.8884   22.8484 C   0  0  0  0  0  0  0  0  0  0  0  0
    2.3641   -7.4002   22.5000 C   0  0  0  0  0  0  0  0  0  0  0  0
  1  2  1  0
  2  3  2  0
  3  4  1  0
  4  5  1  0
  5  6  1  0
  6  7  1  0
  7  8  1  0
  8  9  2  0
  9 10  1  0
 10 11  2  0
 11 12  1  0
 11 13  1  0
 13 14  2  0
 14 15  1  0
 15 16  2  0
 16 17  1  0
 17 18  1  0
 18 19  2  0
 18 20  1  0
 20 21  1  0
 21 22  2  0
 22 23  1  0
 23 24  2  0
 24 25  1  0
 25 26  2  0
 16 27  1  0
 27 28  2  0
  6 29  1  0
 29  2  1  0
 12  8  1  0
 28 13  1  0
 26 21  1  0
M  END
