CVD-0003914|dock_bobby27042020.86|mol2|22|dock1
     RDKit          3D

 27 30  0  0  0  0  0  0  0  0999 V2000
    6.5589    0.1038   20.8911 C   0  0  0  0  0  0  0  0  0  0  0  0
    7.1026    1.2580   21.7298 C   0  0  0  0  0  0  0  0  0  0  0  0
    7.9425    0.7866   22.8923 C   0  0  0  0  0  0  0  0  0  0  0  0
    7.4108    0.6736   24.1662 C   0  0  0  0  0  0  0  0  0  0  0  0
    8.2230    0.2400   25.1947 C   0  0  0  0  0  0  0  0  0  0  0  0
    9.5134   -0.0817   25.0372 N   0  0  0  0  0  0  0  0  0  0  0  0
   10.0349    0.0292   23.8101 C   0  0  0  0  0  0  0  0  0  0  0  0
    9.2794    0.4573   22.7142 C   0  0  0  0  0  0  0  0  0  0  0  0
   11.5232   -0.3426   23.6823 C   0  0  0  0  0  0  0  0  0  0  0  0
   11.8500   -1.2769   22.5179 C   0  0  0  0  0  0  0  0  0  0  0  0
   13.3405   -1.5549   22.4365 C   0  0  0  0  0  0  0  0  0  0  0  0
   13.8777   -2.1048   23.7418 C   0  0  0  0  0  0  0  0  0  0  0  0
   13.5636   -1.1720   24.8997 C   0  0  0  0  0  0  0  0  0  0  0  0
   12.0717   -0.8920   24.9951 C   0  0  0  0  0  0  0  0  0  0  0  0
   12.1015    0.9844   23.4037 C   0  0  0  0  0  0  0  0  0  0  0  0
   12.5144    2.0847   23.1947 C   0  0  0  0  0  0  0  0  0  0  0  0
   12.9311    3.4431   22.9661 C   0  0  0  0  0  0  0  0  0  0  0  0
   12.1956    4.5001   23.4928 C   0  0  0  0  0  0  0  0  0  0  0  0
   12.6343    5.7894   23.2472 C   0  0  0  0  0  0  0  0  0  0  0  0
   13.7728    5.9903   22.4976 C   0  0  0  0  0  0  0  0  0  0  0  0
   14.4383    4.8859   22.0158 C   0  0  0  0  0  0  0  0  0  0  0  0
   14.0455    3.6232   22.2318 N   0  0  0  0  0  0  0  0  0  0  0  0
    6.3005    0.4993   19.4622 C   0  0  0  0  0  0  0  0  0  0  0  0
    7.0657    0.1870   18.3144 C   0  0  0  0  0  0  0  0  0  0  0  0
    6.5226    0.7040   17.2196 N   0  0  0  0  0  0  0  0  0  0  0  0
    5.4148    1.3429   17.6510 N   0  0  0  0  0  0  0  0  0  0  0  0
    5.2519    1.2401   18.9747 C   0  0  0  0  0  0  0  0  0  0  0  0
  1  2  1  0
  2  3  1  0
  3  4  2  0
  4  5  1  0
  5  6  2  0
  6  7  1  0
  7  8  2  0
  7  9  1  0
  9 10  1  0
 10 11  1  0
 11 12  1  0
 12 13  1  0
 13 14  1  0
  9 15  1  0
 15 16  3  0
 16 17  1  0
 17 18  2  0
 18 19  1  0
 19 20  2  0
 20 21  1  0
 21 22  2  0
  1 23  1  0
 23 24  1  0
 24 25  2  0
 25 26  1  0
 26 27  1  0
  8  3  1  0
 14  9  1  0
 22 17  1  0
 27 23  2  0
M  END
