CVD-0000904|dock_bobby27042020.40|mol2|8|dock2
     RDKit          3D

 23 23  0  0  0  0  0  0  0  0999 V2000
   10.5956   -1.9619   22.9964 C   0  0  0  0  0  0  0  0  0  0  0  0
    9.7287   -0.7598   23.2799 C   0  0  0  0  0  0  0  0  0  0  0  0
    9.4175   -0.7951   24.6472 O   0  0  0  0  0  0  0  0  0  0  0  0
   10.3981    0.4884   22.8949 N   0  0  0  0  0  0  0  0  0  0  0  0
   11.7686    0.6070   23.3680 C   0  0  0  0  0  0  0  0  0  0  0  0
   12.5333    1.7722   22.6833 C   0  0  0  0  0  0  0  0  0  0  0  0
   11.7448    3.0065   22.6681 N   0  0  0  0  0  0  0  0  0  0  0  0
   10.3522    2.8997   22.2824 C   0  0  0  0  0  0  0  0  0  0  0  0
    9.6443    1.7215   22.9595 C   0  0  0  0  0  0  0  0  0  0  0  0
    8.2625    1.4875   22.3505 C   0  0  0  0  0  0  0  0  0  0  0  0
    7.4905    2.7955   22.1496 C   0  0  0  0  0  0  0  0  0  0  0  0
    7.3639    3.6277   23.4077 C   0  0  0  0  0  0  0  0  0  0  0  0
    6.6724    3.0890   24.3996 N   0  0  0  0  0  0  0  0  0  0  0  0
    7.8815    4.7456   23.4873 O   0  0  0  0  0  0  0  0  0  0  0  0
    8.4048    0.8100   21.0669 N   0  0  0  0  0  0  0  0  0  0  0  0
    7.3813    0.2743   20.3981 C   0  0  0  0  0  0  0  0  0  0  0  0
    6.2216    0.3194   20.7965 O   0  0  0  0  0  0  0  0  0  0  0  0
    7.7323   -0.4189   19.0927 C   0  0  0  0  0  0  0  0  0  0  0  0
    6.5659   -1.0639   18.4751 N   0  0  0  0  0  0  0  0  0  0  0  0
   12.3759    4.1636   22.0275 C   0  0  0  0  0  0  0  0  0  0  0  0
   11.6102    5.3293   22.2093 O   0  0  0  0  0  0  0  0  0  0  0  0
   13.7549    4.4124   22.5964 C   0  0  0  0  0  0  0  0  0  0  0  0
   14.3372    6.0287   22.1068 Cl  0  0  0  0  0  0  0  0  0  0  0  0
  1  2  1  0
  2  3  1  0
  2  4  1  0
  4  5  1  0
  5  6  1  0
  6  7  1  0
  7  8  1  0
  8  9  1  0
  9 10  1  0
 10 11  1  0
 11 12  1  0
 12 13  1  0
 12 14  2  0
 10 15  1  0
 15 16  1  0
 16 17  2  0
 16 18  1  0
 18 19  1  0
  7 20  1  0
 20 21  1  0
 20 22  1  0
 22 23  1  0
  9  4  1  0
M  END
