CVD-0002045|dock_bobby27042020.50|mol2|27|dock3
     RDKit          3D

 26 28  0  0  0  0  0  0  0  0999 V2000
    6.7743   -5.0147   20.7672 C   0  0  0  0  0  0  0  0  0  0  0  0
    6.4378   -4.1821   21.9693 C   0  0  0  0  0  0  0  0  0  0  0  0
    5.8338   -4.6660   22.9205 O   0  0  0  0  0  0  0  0  0  0  0  0
    6.8732   -2.8978   21.8854 N   0  0  0  0  0  0  0  0  0  0  0  0
    6.7675   -1.8156   22.8016 C   0  0  0  0  0  0  0  0  0  0  0  0
    6.8061   -1.9680   24.1865 C   0  0  0  0  0  0  0  0  0  0  0  0
    6.7251   -0.9508   25.0488 N   0  0  0  0  0  0  0  0  0  0  0  0
    6.6191    0.2780   24.5502 C   0  0  0  0  0  0  0  0  0  0  0  0
    6.5617    0.5524   23.2011 C   0  0  0  0  0  0  0  0  0  0  0  0
    6.6200   -0.5080   22.2968 C   0  0  0  0  0  0  0  0  0  0  0  0
    6.5125   -0.1699   20.8412 C   0  0  0  0  0  0  0  0  0  0  0  0
    5.2622    0.2323   20.3716 C   0  0  0  0  0  0  0  0  0  0  0  0
    5.1338    0.5864   19.0463 C   0  0  0  0  0  0  0  0  0  0  0  0
    6.1412    0.5671   18.1781 N   0  0  0  0  0  0  0  0  0  0  0  0
    7.3343    0.1556   18.6165 C   0  0  0  0  0  0  0  0  0  0  0  0
    7.5893   -0.2252   19.9335 C   0  0  0  0  0  0  0  0  0  0  0  0
    8.8551   -0.6674   20.4111 N   0  0  0  0  0  0  0  0  0  0  0  0
    9.4686   -0.4153   21.6181 C   0  0  0  0  0  0  0  0  0  0  0  0
    8.9857    0.2693   22.5139 O   0  0  0  0  0  0  0  0  0  0  0  0
   10.6955   -1.0354   21.6941 N   0  0  0  0  0  0  0  0  0  0  0  0
   11.6618   -1.0582   22.7321 C   0  0  0  0  0  0  0  0  0  0  0  0
   11.4418   -0.5452   24.0092 C   0  0  0  0  0  0  0  0  0  0  0  0
   12.4407   -0.6078   24.9668 C   0  0  0  0  0  0  0  0  0  0  0  0
   13.6605   -1.1754   24.6714 C   0  0  0  0  0  0  0  0  0  0  0  0
   13.8883   -1.6851   23.4126 C   0  0  0  0  0  0  0  0  0  0  0  0
   12.8975   -1.6285   22.4472 C   0  0  0  0  0  0  0  0  0  0  0  0
  1  2  1  0
  2  3  2  0
  2  4  1  0
  4  5  1  0
  5  6  2  0
  6  7  1  0
  7  8  2  0
  8  9  1  0
  9 10  2  0
 10 11  1  0
 11 12  2  0
 12 13  1  0
 13 14  2  0
 14 15  1  0
 15 16  2  0
 16 17  1  0
 17 18  1  0
 18 19  2  0
 18 20  1  0
 20 21  1  0
 21 22  2  0
 22 23  1  0
 23 24  2  0
 24 25  1  0
 25 26  2  0
 10  5  1  0
 16 11  1  0
 26 21  1  0
M  END
