CVD-0000713|dock_bobby27042020.55|mol2|10|dock2
     RDKit          3D

 19 20  0  0  0  0  0  0  0  0999 V2000
   13.0180   -1.8874   20.7956 N   0  0  0  0  0  0  0  0  0  0  0  0
   12.6855   -1.1102   21.8805 C   0  0  0  0  0  0  0  0  0  0  0  0
   13.6125   -0.8316   22.8798 C   0  0  0  0  0  0  0  0  0  0  0  0
   13.3201   -0.0796   23.9454 N   0  0  0  0  0  0  0  0  0  0  0  0
   12.0836    0.4187   24.0432 C   0  0  0  0  0  0  0  0  0  0  0  0
   11.0836    0.2062   23.1128 C   0  0  0  0  0  0  0  0  0  0  0  0
    9.7025    0.7998   23.2759 C   0  0  0  0  0  0  0  0  0  0  0  0
    8.9986    0.9966   21.9481 C   0  0  0  0  0  0  0  0  0  0  0  0
    9.1749    2.0149   21.2877 O   0  0  0  0  0  0  0  0  0  0  0  0
    8.1883   -0.0354   21.6081 N   0  0  0  0  0  0  0  0  0  0  0  0
    7.3592   -0.2458   20.4780 C   0  0  0  0  0  0  0  0  0  0  0  0
    6.8089   -1.5111   20.3050 C   0  0  0  0  0  0  0  0  0  0  0  0
    5.9900   -1.7829   19.2217 C   0  0  0  0  0  0  0  0  0  0  0  0
    5.7084   -0.7953   18.2949 C   0  0  0  0  0  0  0  0  0  0  0  0
    6.2520    0.4738   18.4556 C   0  0  0  0  0  0  0  0  0  0  0  0
    7.0762    0.7499   19.5444 C   0  0  0  0  0  0  0  0  0  0  0  0
    5.9654    1.5111   17.4957 C   0  0  0  0  0  0  0  0  0  0  0  0
    5.7395    2.3099   16.7111 N   0  0  0  0  0  0  0  0  0  0  0  0
   11.4053   -0.5757   22.0127 C   0  0  0  0  0  0  0  0  0  0  0  0
  1  2  1  0
  2  3  2  0
  3  4  1  0
  4  5  2  0
  5  6  1  0
  6  7  1  0
  7  8  1  0
  8  9  2  0
  8 10  1  0
 10 11  1  0
 11 12  2  0
 12 13  1  0
 13 14  2  0
 14 15  1  0
 15 16  2  0
 15 17  1  0
 17 18  3  0
  6 19  2  0
 19  2  1  0
 16 11  1  0
M  END
