CVD-0003149|dock_bobby27042020.88|mol2|46|dock2
     RDKit          3D

 23 26  0  0  0  0  0  0  0  0999 V2000
   13.4320    0.5983   24.3031 C   0  0  0  0  0  0  0  0  0  0  0  0
   12.1065    0.3570   23.7464 N   0  0  0  0  0  0  0  0  0  0  0  0
   11.6815    0.6175   22.5042 C   0  0  0  0  0  0  0  0  0  0  0  0
   10.3648    0.1951   22.4175 C   0  0  0  0  0  0  0  0  0  0  0  0
   10.1093   -0.3288   23.6980 C   0  0  0  0  0  0  0  0  0  0  0  0
   11.1555   -0.2380   24.5017 N   0  0  0  0  0  0  0  0  0  0  0  0
    9.4222    0.2613   21.2447 C   0  0  0  0  0  0  0  0  0  0  0  0
    9.6082    1.1947   20.4724 O   0  0  0  0  0  0  0  0  0  0  0  0
    8.4334   -0.6336   21.0286 N   0  0  0  0  0  0  0  0  0  0  0  0
    8.4566   -2.0655   21.3842 C   0  0  0  0  0  0  0  0  0  0  0  0
    7.3818   -2.7451   20.5299 C   0  0  0  0  0  0  0  0  0  0  0  0
    6.5215   -1.5578   20.0633 C   0  0  0  0  0  0  0  0  0  0  0  0
    5.6743   -1.7097   18.8103 C   0  0  0  0  0  0  0  0  0  0  0  0
    4.9613   -0.4006   18.5279 C   0  0  0  0  0  0  0  0  0  0  0  0
    5.9078    0.7767   18.4609 C   0  0  0  0  0  0  0  0  0  0  0  0
    6.8081    0.8905   19.6822 C   0  0  0  0  0  0  0  0  0  0  0  0
    7.5384   -0.4229   19.8939 C   0  0  0  0  0  0  0  0  0  0  0  0
    6.5588   -3.7969   21.2440 C   0  0  0  0  0  0  0  0  0  0  0  0
    5.9075   -3.5022   22.4338 C   0  0  0  0  0  0  0  0  0  0  0  0
    5.1524   -4.4633   23.0850 C   0  0  0  0  0  0  0  0  0  0  0  0
    5.0381   -5.7305   22.5549 C   0  0  0  0  0  0  0  0  0  0  0  0
    5.6783   -6.0373   21.3734 C   0  0  0  0  0  0  0  0  0  0  0  0
    6.4336   -5.0766   20.7216 C   0  0  0  0  0  0  0  0  0  0  0  0
  1  2  1  0
  2  3  1  0
  3  4  2  0
  4  5  1  0
  5  6  2  0
  4  7  1  0
  7  8  2  0
  7  9  1  0
  9 10  1  0
 10 11  1  0
 11 12  1  0
 12 13  1  0
 13 14  1  0
 14 15  1  0
 15 16  1  0
 17 16  1  0
 11 18  1  0
 18 19  2  0
 19 20  1  0
 20 21  2  0
 21 22  1  0
 22 23  2  0
  6  2  1  0
 17  9  1  0
 23 18  1  0
 17 12  1  0
M  END
