CVD-0002750|dock_bobby27042020.18|mol2|41|dock1
     RDKit          3D

 31 34  0  0  0  0  0  0  0  0999 V2000
    6.3574    1.3385   17.1961 N   0  0  0  0  0  0  0  0  0  0  0  0
    5.7956    0.2008   17.5719 C   0  0  0  0  0  0  0  0  0  0  0  0
    4.6418   -0.1040   17.2614 O   0  0  0  0  0  0  0  0  0  0  0  0
    6.6581   -0.7153   18.4175 C   0  0  0  0  0  0  0  0  0  0  0  0
    5.9104   -1.9578   18.9402 C   0  0  0  0  0  0  0  0  0  0  0  0
    6.5683   -2.2936   20.3003 C   0  0  0  0  0  0  0  0  0  0  0  0
    7.7304   -1.3026   20.4724 C   0  0  0  0  0  0  0  0  0  0  0  0
    8.1686   -1.0482   21.9196 C   0  0  0  0  0  0  0  0  0  0  0  0
    9.1356   -2.0709   22.5381 C   0  0  0  0  0  0  0  0  0  0  0  0
   10.4762   -1.7902   22.0304 N   0  0  0  0  0  0  0  0  0  0  0  0
   11.4918   -1.4178   22.8123 C   0  0  0  0  0  0  0  0  0  0  0  0
   11.3958   -1.2765   24.0274 O   0  0  0  0  0  0  0  0  0  0  0  0
   12.7903   -1.1690   22.0770 C   0  0  0  0  0  0  0  0  0  0  0  0
   13.9166   -0.1890   23.0250 Cl  0  0  0  0  0  0  0  0  0  0  0  0
    9.1125   -2.0611   24.0634 C   0  0  0  0  0  0  0  0  0  0  0  0
    8.8761   -0.8984   24.7525 C   0  0  0  0  0  0  0  0  0  0  0  0
    8.8230   -0.8616   26.1346 C   0  0  0  0  0  0  0  0  0  0  0  0
    9.0098   -1.9929   26.8675 C   0  0  0  0  0  0  0  0  0  0  0  0
    9.2734   -3.2266   26.2274 C   0  0  0  0  0  0  0  0  0  0  0  0
    9.4757   -4.4173   26.9656 C   0  0  0  0  0  0  0  0  0  0  0  0
    9.7376   -5.5950   26.3339 C   0  0  0  0  0  0  0  0  0  0  0  0
    9.8156   -5.6483   24.9595 C   0  0  0  0  0  0  0  0  0  0  0  0
    9.6284   -4.5284   24.2054 C   0  0  0  0  0  0  0  0  0  0  0  0
    9.3380   -3.2704   24.8011 C   0  0  0  0  0  0  0  0  0  0  0  0
    7.2427   -0.0745   19.6875 C   0  0  0  0  0  0  0  0  0  0  0  0
    6.1092    0.6040   20.4290 C   0  0  0  0  0  0  0  0  0  0  0  0
    4.7730    0.2901   20.2092 C   0  0  0  0  0  0  0  0  0  0  0  0
    3.7651    0.9255   20.9155 C   0  0  0  0  0  0  0  0  0  0  0  0
    4.0740    1.8919   21.8476 C   0  0  0  0  0  0  0  0  0  0  0  0
    5.3922    2.2229   22.0724 C   0  0  0  0  0  0  0  0  0  0  0  0
    6.3995    1.5843   21.3686 C   0  0  0  0  0  0  0  0  0  0  0  0
  1  2  1  0
  2  3  2  0
  2  4  1  0
  4  5  1  0
  5  6  1  0
  6  7  1  0
  7  8  1  0
  8  9  1  0
  9 10  1  0
 10 11  1  0
 11 12  2  0
 11 13  1  0
 13 14  1  0
  9 15  1  0
 15 16  2  0
 16 17  1  0
 17 18  2  0
 18 19  1  0
 19 20  2  0
 20 21  1  0
 21 22  2  0
 22 23  1  0
 23 24  2  0
  7 25  1  0
 25 26  1  0
 26 27  2  0
 27 28  1  0
 28 29  2  0
 29 30  1  0
 30 31  2  0
 25  4  1  0
 31 26  1  0
 24 15  1  0
 24 19  1  0
M  END
