CVD-0003159|dock_bobby27042020.46|mol2|12|dock3
     RDKit          3D

 27 30  0  0  0  0  0  0  0  0999 V2000
    6.5841   -6.4274   23.0488 F   0  0  0  0  0  0  0  0  0  0  0  0
    7.2013   -5.2618   22.7478 C   0  0  0  0  0  0  0  0  0  0  0  0
    6.6176   -4.4077   21.8509 C   0  0  0  0  0  0  0  0  0  0  0  0
    7.2432   -3.2005   21.5416 C   0  0  0  0  0  0  0  0  0  0  0  0
    8.4501   -2.8588   22.1696 C   0  0  0  0  0  0  0  0  0  0  0  0
    9.0392   -3.7605   23.0551 C   0  0  0  0  0  0  0  0  0  0  0  0
    8.4060   -4.9538   23.3461 C   0  0  0  0  0  0  0  0  0  0  0  0
    9.1388   -6.0557   24.4656 Cl  0  0  0  0  0  0  0  0  0  0  0  0
    9.0251   -1.6003   21.8611 N   0  0  0  0  0  0  0  0  0  0  0  0
   10.2339   -1.1614   22.5213 C   0  0  0  0  0  0  0  0  0  0  0  0
   10.1728   -0.3061   23.6155 C   0  0  0  0  0  0  0  0  0  0  0  0
   11.3341    0.1093   24.2457 C   0  0  0  0  0  0  0  0  0  0  0  0
   12.5698   -0.3220   23.7955 C   0  0  0  0  0  0  0  0  0  0  0  0
   12.6214   -1.1699   22.7118 C   0  0  0  0  0  0  0  0  0  0  0  0
   14.1698   -1.7204   22.1354 Cl  0  0  0  0  0  0  0  0  0  0  0  0
   11.4766   -1.5953   22.0700 C   0  0  0  0  0  0  0  0  0  0  0  0
    8.4630   -0.7147   20.9369 C   0  0  0  0  0  0  0  0  0  0  0  0
    8.9871    0.3670   20.7197 O   0  0  0  0  0  0  0  0  0  0  0  0
    7.2755   -1.1092   20.3007 N   0  0  0  0  0  0  0  0  0  0  0  0
    6.6879   -0.2036   19.3296 C   0  0  0  0  0  0  0  0  0  0  0  0
    5.4409    0.3728   19.5381 C   0  0  0  0  0  0  0  0  0  0  0  0
    4.9162    1.2329   18.5897 C   0  0  0  0  0  0  0  0  0  0  0  0
    5.6538    1.4932   17.4587 C   0  0  0  0  0  0  0  0  0  0  0  0
    6.8516    0.9548   17.2310 N   0  0  0  0  0  0  0  0  0  0  0  0
    7.3461    0.1230   18.1531 C   0  0  0  0  0  0  0  0  0  0  0  0
    6.6084   -2.3250   20.5499 C   0  0  0  0  0  0  0  0  0  0  0  0
    5.5800   -2.6477   19.9797 O   0  0  0  0  0  0  0  0  0  0  0  0
  1  2  1  0
  2  3  2  0
  3  4  1  0
  4  5  2  0
  5  6  1  0
  6  7  2  0
  7  8  1  0
  5  9  1  0
  9 10  1  0
 10 11  2  0
 11 12  1  0
 12 13  2  0
 13 14  1  0
 14 15  1  0
 14 16  2  0
  9 17  1  0
 17 18  2  0
 17 19  1  0
 19 20  1  0
 20 21  2  0
 21 22  1  0
 22 23  2  0
 23 24  1  0
 24 25  2  0
 19 26  1  0
 26 27  2  0
  7  2  1  0
 16 10  1  0
 25 20  1  0
 26  4  1  0
M  END
