CVD-0002255|dock_bobby27042020.35|mol2|9|dock3
     RDKit          3D

 27 29  0  0  0  0  0  0  0  0999 V2000
    4.9978   -6.6451   24.9225 C   0  0  0  0  0  0  0  0  0  0  0  0
    5.3916   -6.9649   26.3417 C   0  0  0  0  0  0  0  0  0  0  0  0
    4.5229   -7.7289   27.1152 C   0  0  0  0  0  0  0  0  0  0  0  0
    4.8573   -8.0398   28.4141 C   0  0  0  0  0  0  0  0  0  0  0  0
    5.9899   -7.6431   28.9869 N   0  0  0  0  0  0  0  0  0  0  0  0
    6.8328   -6.9090   28.2538 C   0  0  0  0  0  0  0  0  0  0  0  0
    6.5973   -6.5361   26.9302 C   0  0  0  0  0  0  0  0  0  0  0  0
    7.4936   -5.7560   26.1471 N   0  0  0  0  0  0  0  0  0  0  0  0
    8.8485   -5.7630   26.0957 C   0  0  0  0  0  0  0  0  0  0  0  0
    9.5929   -6.4836   26.7517 O   0  0  0  0  0  0  0  0  0  0  0  0
    9.4250   -4.7710   25.1077 C   0  0  0  0  0  0  0  0  0  0  0  0
    9.3787   -3.3169   25.5418 C   0  0  0  0  0  0  0  0  0  0  0  0
    8.8893   -3.0008   26.6189 O   0  0  0  0  0  0  0  0  0  0  0  0
    9.8881   -2.4029   24.6914 N   0  0  0  0  0  0  0  0  0  0  0  0
    9.9173   -0.9966   25.0582 C   0  0  0  0  0  0  0  0  0  0  0  0
   11.2946   -0.4361   24.8900 C   0  0  0  0  0  0  0  0  0  0  0  0
   11.7422   -0.6711   23.5098 N   0  0  0  0  0  0  0  0  0  0  0  0
   11.7826   -2.1048   23.1859 C   0  0  0  0  0  0  0  0  0  0  0  0
   10.4077   -2.6821   23.3491 C   0  0  0  0  0  0  0  0  0  0  0  0
   12.9271    0.2782   22.9446 S   0  0  0  0  0  0  0  0  0  0  0  0
   13.9235    0.3693   23.9652 O   0  0  0  0  0  0  0  0  0  0  0  0
   13.2842   -0.2114   21.6502 O   0  0  0  0  0  0  0  0  0  0  0  0
   12.2650    1.8733   22.7273 C   0  0  0  0  0  0  0  0  0  0  0  0
   10.8660    2.1830   22.6290 C   0  0  0  0  0  0  0  0  0  0  0  0
   10.6217    3.5172   22.4542 C   0  0  0  0  0  0  0  0  0  0  0  0
   12.0675    4.4104   22.4060 S   0  0  0  0  0  0  0  0  0  0  0  0
   12.9812    2.9982   22.6164 C   0  0  0  0  0  0  0  0  0  0  0  0
  1  2  1  0
  2  3  2  0
  3  4  1  0
  4  5  2  0
  5  6  1  0
  6  7  2  0
  7  8  1  0
  8  9  1  0
  9 10  2  0
  9 11  1  0
 11 12  1  0
 12 13  2  0
 12 14  1  0
 14 15  1  0
 15 16  1  0
 16 17  1  0
 17 18  1  0
 18 19  1  0
 17 20  1  0
 20 21  2  0
 20 22  2  0
 20 23  1  0
 23 24  1  0
 24 25  2  0
 25 26  1  0
 26 27  1  0
  7  2  1  0
 19 14  1  0
 27 23  2  0
M  END
