CVD-0003495|dock_bobby27042020.30|mol2|41|dock1
     RDKit          3D

 28 30  0  0  0  0  0  0  0  0999 V2000
    5.9518   -0.9015   26.5805 C   0  0  0  0  0  0  0  0  0  0  0  0
    5.8350   -1.5086   25.2673 N   0  0  0  0  0  0  0  0  0  0  0  0
    6.8169   -2.2528   24.7620 C   0  0  0  0  0  0  0  0  0  0  0  0
    7.8811   -2.3642   25.3631 O   0  0  0  0  0  0  0  0  0  0  0  0
    6.6522   -2.9475   23.4376 C   0  0  0  0  0  0  0  0  0  0  0  0
    6.6332   -4.3414   23.5112 C   0  0  0  0  0  0  0  0  0  0  0  0
    6.5936   -5.1133   22.3644 C   0  0  0  0  0  0  0  0  0  0  0  0
    6.5660   -4.5081   21.1298 C   0  0  0  0  0  0  0  0  0  0  0  0
    6.5257   -3.1285   21.0340 C   0  0  0  0  0  0  0  0  0  0  0  0
    6.5235   -2.3235   22.1774 C   0  0  0  0  0  0  0  0  0  0  0  0
    6.3455   -0.8432   21.9686 C   0  0  0  0  0  0  0  0  0  0  0  0
    6.1832   -0.1461   22.9588 O   0  0  0  0  0  0  0  0  0  0  0  0
    6.3531   -0.1945   20.6064 C   0  0  0  0  0  0  0  0  0  0  0  0
    5.1462    0.3520   20.1620 C   0  0  0  0  0  0  0  0  0  0  0  0
    5.0510    0.9633   18.9274 C   0  0  0  0  0  0  0  0  0  0  0  0
    6.1515    1.0261   18.1078 C   0  0  0  0  0  0  0  0  0  0  0  0
    7.3614    0.4874   18.5084 C   0  0  0  0  0  0  0  0  0  0  0  0
    7.4923   -0.1214   19.7613 C   0  0  0  0  0  0  0  0  0  0  0  0
    8.7242   -0.6673   20.2251 N   0  0  0  0  0  0  0  0  0  0  0  0
    9.2848   -0.6673   21.4848 C   0  0  0  0  0  0  0  0  0  0  0  0
    8.7791   -0.1608   22.4803 O   0  0  0  0  0  0  0  0  0  0  0  0
   10.4996   -1.3162   21.4895 N   0  0  0  0  0  0  0  0  0  0  0  0
   11.4188   -1.5587   22.5423 C   0  0  0  0  0  0  0  0  0  0  0  0
   12.7463   -1.8062   22.2168 C   0  0  0  0  0  0  0  0  0  0  0  0
   13.6674   -2.0463   23.2209 C   0  0  0  0  0  0  0  0  0  0  0  0
   13.2360   -2.0327   24.5265 C   0  0  0  0  0  0  0  0  0  0  0  0
   11.9704   -1.7987   24.8731 N   0  0  0  0  0  0  0  0  0  0  0  0
   11.0877   -1.5677   23.8963 C   0  0  0  0  0  0  0  0  0  0  0  0
  1  2  1  0
  2  3  1  0
  3  4  2  0
  3  5  1  0
  5  6  2  0
  6  7  1  0
  7  8  2  0
  8  9  1  0
  9 10  2  0
 10 11  1  0
 11 12  2  0
 11 13  1  0
 13 14  2  0
 14 15  1  0
 15 16  2  0
 16 17  1  0
 17 18  2  0
 18 19  1  0
 19 20  1  0
 20 21  2  0
 20 22  1  0
 22 23  1  0
 23 24  2  0
 24 25  1  0
 25 26  2  0
 26 27  1  0
 27 28  2  0
 10  5  1  0
 18 13  1  0
 28 23  1  0
M  END
