CVD-0003423|dock_bobby27042020.59|mol2|45|dock3
     RDKit          3D

 21 23  0  0  0  0  0  0  0  0999 V2000
    7.3638   -4.7268   21.5335 Cl  0  0  0  0  0  0  0  0  0  0  0  0
    7.1301   -3.4215   20.4128 C   0  0  0  0  0  0  0  0  0  0  0  0
    6.0413   -3.5475   19.6698 N   0  0  0  0  0  0  0  0  0  0  0  0
    5.6680   -2.5490   18.8986 C   0  0  0  0  0  0  0  0  0  0  0  0
    6.3888   -1.3436   18.7783 C   0  0  0  0  0  0  0  0  0  0  0  0
    5.9355   -0.3268   17.9811 N   0  0  0  0  0  0  0  0  0  0  0  0
    6.7052    0.7414   17.9451 C   0  0  0  0  0  0  0  0  0  0  0  0
    7.8576    0.9654   18.5753 N   0  0  0  0  0  0  0  0  0  0  0  0
    8.2939   -0.0121   19.3477 C   0  0  0  0  0  0  0  0  0  0  0  0
    7.5934   -1.2290   19.5066 C   0  0  0  0  0  0  0  0  0  0  0  0
    7.9928   -2.3309   20.3188 C   0  0  0  0  0  0  0  0  0  0  0  0
    9.2451   -2.2223   20.9811 N   0  0  0  0  0  0  0  0  0  0  0  0
    9.4479   -2.3433   22.3154 C   0  0  0  0  0  0  0  0  0  0  0  0
    8.5795   -2.5843   23.1474 O   0  0  0  0  0  0  0  0  0  0  0  0
   10.8924   -2.1662   22.7275 C   0  0  0  0  0  0  0  0  0  0  0  0
   11.3355   -0.7008   22.7726 C   0  0  0  0  0  0  0  0  0  0  0  0
   12.8172   -0.5539   22.3698 C   0  0  0  0  0  0  0  0  0  0  0  0
   13.3096    0.8882   22.4747 C   0  0  0  0  0  0  0  0  0  0  0  0
   13.0526    1.4625   23.8619 C   0  0  0  0  0  0  0  0  0  0  0  0
   11.5836    1.3442   24.2418 C   0  0  0  0  0  0  0  0  0  0  0  0
   11.1107   -0.1042   24.1724 C   0  0  0  0  0  0  0  0  0  0  0  0
  1  2  1  0
  2  3  2  0
  3  4  1  0
  4  5  2  0
  5  6  1  0
  6  7  2  0
  7  8  1  0
  8  9  2  0
  9 10  1  0
 10 11  2  0
 11 12  1  0
 12 13  1  0
 13 14  2  0
 13 15  1  0
 15 16  1  0
 16 17  1  0
 17 18  1  0
 18 19  1  0
 19 20  1  0
 20 21  1  0
 11  2  1  0
 21 16  1  0
 10  5  1  0
M  END
