CVD-0003892|dock_bobby27042020.0|mol2|29|dock3
     RDKit          3D

 30 34  0  0  0  0  0  0  0  0999 V2000
   10.5095   -1.8545   23.5565 C   0  0  0  0  0  0  0  0  0  0  0  0
    9.0653   -1.4304   23.7274 C   0  0  0  0  0  0  0  0  0  0  0  0
    8.9283    0.0811   23.7763 C   0  0  0  0  0  0  0  0  0  0  0  0
    9.5489    0.7341   22.5419 C   0  0  0  0  0  0  0  0  0  0  0  0
   11.0005    0.3003   22.3650 C   0  0  0  0  0  0  0  0  0  0  0  0
   11.1259   -1.2148   22.3234 C   0  0  0  0  0  0  0  0  0  0  0  0
    8.7564    0.3594   21.3563 C   0  0  0  0  0  0  0  0  0  0  0  0
    8.1511    0.0042   20.3959 C   0  0  0  0  0  0  0  0  0  0  0  0
    7.3550   -0.4008   19.2547 C   0  0  0  0  0  0  0  0  0  0  0  0
    6.2297   -1.3486   19.6662 C   0  0  0  0  0  0  0  0  0  0  0  0
    5.3435   -1.6728   18.4506 C   0  0  0  0  0  0  0  0  0  0  0  0
    4.8956   -0.3766   17.6982 C   0  0  0  0  0  0  0  0  0  0  0  0
    6.0456    0.4503   17.3664 N   0  0  0  0  0  0  0  0  0  0  0  0
    6.7939    0.8315   18.5621 C   0  0  0  0  0  0  0  0  0  0  0  0
    9.4147    2.2459   22.4891 C   0  0  0  0  0  0  0  0  0  0  0  0
   10.5633    2.8951   22.4979 N   0  0  0  0  0  0  0  0  0  0  0  0
   10.5354    4.2349   22.4735 C   0  0  0  0  0  0  0  0  0  0  0  0
    9.4532    5.0079   22.4401 N   0  0  0  0  0  0  0  0  0  0  0  0
    8.2459    4.3628   22.4204 C   0  0  0  0  0  0  0  0  0  0  0  0
    7.0564    5.1273   22.3837 C   0  0  0  0  0  0  0  0  0  0  0  0
    5.8409    4.5097   22.3617 C   0  0  0  0  0  0  0  0  0  0  0  0
    5.7466    3.1334   22.3689 C   0  0  0  0  0  0  0  0  0  0  0  0
    6.8677    2.3584   22.3999 C   0  0  0  0  0  0  0  0  0  0  0  0
    8.1579    2.9483   22.4363 C   0  0  0  0  0  0  0  0  0  0  0  0
   11.8419    4.9326   22.4853 C   0  0  0  0  0  0  0  0  0  0  0  0
   12.8556    4.5855   21.6002 C   0  0  0  0  0  0  0  0  0  0  0  0
   14.0646    5.2577   21.6380 C   0  0  0  0  0  0  0  0  0  0  0  0
   14.2274    6.2631   22.5637 C   0  0  0  0  0  0  0  0  0  0  0  0
   13.2765    6.6221   23.4274 N   0  0  0  0  0  0  0  0  0  0  0  0
   12.1156    5.9618   23.3764 C   0  0  0  0  0  0  0  0  0  0  0  0
  1  2  1  0
  2  3  1  0
  3  4  1  0
  4  5  1  0
  5  6  1  0
  4  7  1  0
  7  8  3  0
  8  9  1  0
  9 10  1  0
 10 11  1  0
 11 12  1  0
 12 13  1  0
 13 14  1  0
  4 15  1  0
 15 16  2  0
 16 17  1  0
 17 18  2  0
 18 19  1  0
 19 20  2  0
 20 21  1  0
 21 22  2  0
 22 23  1  0
 23 24  2  0
 17 25  1  0
 25 26  2  0
 26 27  1  0
 27 28  2  0
 28 29  1  0
 29 30  2  0
  6  1  1  0
 14  9  1  0
 24 15  1  0
 30 25  1  0
 24 19  1  0
M  END
