CVD-0003360|dock_bobby27042020.60|mol2|7|dock3
     RDKit          3D

 24 25  0  0  0  0  0  0  0  0999 V2000
   13.8579   -1.4529   25.6764 C   0  0  0  0  0  0  0  0  0  0  0  0
   13.4226   -1.5163   24.2327 C   0  0  0  0  0  0  0  0  0  0  0  0
   14.1813   -2.1924   23.2902 C   0  0  0  0  0  0  0  0  0  0  0  0
   13.7807   -2.2446   21.9659 C   0  0  0  0  0  0  0  0  0  0  0  0
   12.6122   -1.6168   21.5703 C   0  0  0  0  0  0  0  0  0  0  0  0
   11.8347   -0.9340   22.4950 C   0  0  0  0  0  0  0  0  0  0  0  0
   12.2551   -0.8941   23.8161 C   0  0  0  0  0  0  0  0  0  0  0  0
   10.5473   -0.2477   22.0843 C   0  0  0  0  0  0  0  0  0  0  0  0
   10.4117    1.1191   22.7487 C   0  0  0  0  0  0  0  0  0  0  0  0
   11.6670    1.8693   22.6375 N   0  0  0  0  0  0  0  0  0  0  0  0
   11.6368    3.4413   22.3231 S   0  0  0  0  0  0  0  0  0  0  0  0
   12.8710    4.2071   23.3015 C   0  0  0  0  0  0  0  0  0  0  0  0
   12.0004    3.5993   20.9488 O   0  0  0  0  0  0  0  0  0  0  0  0
   10.3630    3.9301   22.7525 O   0  0  0  0  0  0  0  0  0  0  0  0
    9.3491   -1.0737   22.3541 N   0  0  0  0  0  0  0  0  0  0  0  0
    9.6764   -2.5088   22.3346 C   0  0  0  0  0  0  0  0  0  0  0  0
    8.4621   -3.3398   22.6581 C   0  0  0  0  0  0  0  0  0  0  0  0
    7.3683   -3.0423   21.7281 N   0  0  0  0  0  0  0  0  0  0  0  0
    7.0591   -1.6150   21.6659 C   0  0  0  0  0  0  0  0  0  0  0  0
    8.3137   -0.8375   21.3469 C   0  0  0  0  0  0  0  0  0  0  0  0
    6.5938   -3.9491   21.0870 C   0  0  0  0  0  0  0  0  0  0  0  0
    5.7051   -3.6007   20.3199 O   0  0  0  0  0  0  0  0  0  0  0  0
    6.8528   -5.4236   21.3315 C   0  0  0  0  0  0  0  0  0  0  0  0
    6.6458   -5.8385   23.0381 Cl  0  0  0  0  0  0  0  0  0  0  0  0
  1  2  1  0
  2  3  2  0
  3  4  1  0
  4  5  2  0
  5  6  1  0
  6  7  2  0
  6  8  1  0
  8  9  1  0
  9 10  1  0
 10 11  1  0
 11 12  1  0
 11 13  2  0
 11 14  2  0
  8 15  1  0
 15 16  1  0
 16 17  1  0
 17 18  1  0
 18 19  1  0
 19 20  1  0
 18 21  1  0
 21 22  2  0
 21 23  1  0
 23 24  1  0
  7  2  1  0
 20 15  1  0
M  END
