CVD-0002794|dock_bobby27042020.90|mol2|12|dock2
     RDKit          3D

 23 25  0  0  0  0  0  0  0  0999 V2000
    9.3006   -2.1826   23.4050 O   0  0  0  0  0  0  0  0  0  0  0  0
    8.6206   -1.5109   22.6383 C   0  0  0  0  0  0  0  0  0  0  0  0
    7.5192   -2.0447   22.0815 N   0  0  0  0  0  0  0  0  0  0  0  0
    7.1685   -3.4277   22.3787 C   0  0  0  0  0  0  0  0  0  0  0  0
    6.4387   -4.1029   21.2329 C   0  0  0  0  0  0  0  0  0  0  0  0
    5.8200   -5.4023   22.0280 C   0  0  0  0  0  0  0  0  0  0  0  0
    6.4431   -5.5543   20.6875 C   0  0  0  0  0  0  0  0  0  0  0  0
    9.0136   -0.1596   22.3876 N   0  0  0  0  0  0  0  0  0  0  0  0
   10.2503    0.2070   23.1029 C   0  0  0  0  0  0  0  0  0  0  0  0
   11.4459   -0.5996   22.6562 C   0  0  0  0  0  0  0  0  0  0  0  0
   12.5941   -0.6750   23.4266 C   0  0  0  0  0  0  0  0  0  0  0  0
   13.6696   -1.4268   22.9872 C   0  0  0  0  0  0  0  0  0  0  0  0
   13.5603   -2.0842   21.7829 C   0  0  0  0  0  0  0  0  0  0  0  0
   12.4678   -2.0317   21.0195 N   0  0  0  0  0  0  0  0  0  0  0  0
   11.4419   -1.2997   21.4644 C   0  0  0  0  0  0  0  0  0  0  0  0
    8.4370    0.8389   21.5793 C   0  0  0  0  0  0  0  0  0  0  0  0
    8.7153    2.0081   21.7833 O   0  0  0  0  0  0  0  0  0  0  0  0
    7.5052    0.5963   20.4281 C   0  0  0  0  0  0  0  0  0  0  0  0
    6.3505    1.3623   20.3111 C   0  0  0  0  0  0  0  0  0  0  0  0
    5.4815    1.1729   19.2494 C   0  0  0  0  0  0  0  0  0  0  0  0
    5.7547    0.2225   18.2895 C   0  0  0  0  0  0  0  0  0  0  0  0
    6.8989   -0.5395   18.3870 C   0  0  0  0  0  0  0  0  0  0  0  0
    7.7716   -0.3546   19.4463 C   0  0  0  0  0  0  0  0  0  0  0  0
  1  2  2  0
  2  3  1  0
  3  4  1  0
  4  5  1  0
  5  6  1  0
  6  7  1  0
  2  8  1  0
  8  9  1  0
  9 10  1  0
 10 11  2  0
 11 12  1  0
 12 13  2  0
 13 14  1  0
 14 15  2  0
  8 16  1  0
 16 17  2  0
 16 18  1  0
 18 19  2  0
 19 20  1  0
 20 21  2  0
 21 22  1  0
 22 23  2  0
  7  5  1  0
 15 10  1  0
 23 18  1  0
M  END
