CVD-0003456|dock_bobby27042020.88|mol2|2|dock3
     RDKit          3D

 20 22  0  0  0  0  0  0  0  0999 V2000
    8.8776   -0.1795   17.4694 F   0  0  0  0  0  0  0  0  0  0  0  0
    7.7962    0.1360   18.1847 C   0  0  0  0  0  0  0  0  0  0  0  0
    6.7841    0.6188   17.4440 N   0  0  0  0  0  0  0  0  0  0  0  0
    5.6829    0.9583   18.0359 C   0  0  0  0  0  0  0  0  0  0  0  0
    5.5449    0.8307   19.3894 N   0  0  0  0  0  0  0  0  0  0  0  0
    4.4119    1.1699   20.0749 N   0  0  0  0  0  0  0  0  0  0  0  0
    4.6922    0.8951   21.3409 C   0  0  0  0  0  0  0  0  0  0  0  0
    5.9731    0.3851   21.5186 C   0  0  0  0  0  0  0  0  0  0  0  0
    6.5428    0.3433   20.2052 C   0  0  0  0  0  0  0  0  0  0  0  0
    7.7710   -0.0349   19.5430 C   0  0  0  0  0  0  0  0  0  0  0  0
    8.9445   -0.5625   20.1592 N   0  0  0  0  0  0  0  0  0  0  0  0
    9.5188   -0.3673   21.4221 C   0  0  0  0  0  0  0  0  0  0  0  0
    9.0465    0.3647   22.2758 O   0  0  0  0  0  0  0  0  0  0  0  0
   10.6746   -1.0956   21.5867 N   0  0  0  0  0  0  0  0  0  0  0  0
   11.5633   -1.1961   22.6875 C   0  0  0  0  0  0  0  0  0  0  0  0
   11.2553   -0.7618   23.9754 C   0  0  0  0  0  0  0  0  0  0  0  0
   12.1818   -0.8967   24.9965 C   0  0  0  0  0  0  0  0  0  0  0  0
   13.4152   -1.4598   24.7539 C   0  0  0  0  0  0  0  0  0  0  0  0
   13.7295   -1.8922   23.4849 C   0  0  0  0  0  0  0  0  0  0  0  0
   12.8118   -1.7626   22.4562 C   0  0  0  0  0  0  0  0  0  0  0  0
  1  2  1  0
  2  3  1  0
  3  4  2  0
  4  5  1  0
  5  6  1  0
  6  7  2  0
  7  8  1  0
  8  9  2  0
  9 10  1  0
 10 11  1  0
 11 12  1  0
 12 13  2  0
 12 14  1  0
 14 15  1  0
 15 16  2  0
 16 17  1  0
 17 18  2  0
 18 19  1  0
 19 20  2  0
 10  2  2  0
 20 15  1  0
  9  5  1  0
M  END
