CVD-0001924|dock_bobby27042020.51|mol2|1|dock2
     RDKit          3D

 24 26  0  0  0  0  0  0  0  0999 V2000
   13.3135   -2.2475   21.3508 N   0  0  0  0  0  0  0  0  0  0  0  0
   13.6669   -0.9525   21.9736 C   0  0  0  0  0  0  0  0  0  0  0  0
   12.5367   -0.3774   22.8160 C   0  0  0  0  0  0  0  0  0  0  0  0
   11.3195   -0.9763   22.3630 O   0  0  0  0  0  0  0  0  0  0  0  0
   10.1908   -0.4791   23.0970 C   0  0  0  0  0  0  0  0  0  0  0  0
    9.9584    0.9716   22.7723 C   0  0  0  0  0  0  0  0  0  0  0  0
   11.2317    1.7712   22.6788 C   0  0  0  0  0  0  0  0  0  0  0  0
   11.2023    3.1694   22.5550 C   0  0  0  0  0  0  0  0  0  0  0  0
   10.0293    3.8747   22.5585 O   0  0  0  0  0  0  0  0  0  0  0  0
   12.3903    3.8997   22.5238 C   0  0  0  0  0  0  0  0  0  0  0  0
   12.3321    5.2552   22.4596 O   0  0  0  0  0  0  0  0  0  0  0  0
   13.6142    3.2523   22.6146 C   0  0  0  0  0  0  0  0  0  0  0  0
   13.6402    1.8758   22.7364 C   0  0  0  0  0  0  0  0  0  0  0  0
   12.4599    1.1318   22.7690 C   0  0  0  0  0  0  0  0  0  0  0  0
    8.9993   -1.3654   22.7366 C   0  0  0  0  0  0  0  0  0  0  0  0
    9.3262   -2.8505   22.9610 C   0  0  0  0  0  0  0  0  0  0  0  0
    9.5182   -3.1425   24.4468 C   0  0  0  0  0  0  0  0  0  0  0  0
    8.2798   -2.7457   25.2470 C   0  0  0  0  0  0  0  0  0  0  0  0
    7.8904   -1.2973   25.0069 C   0  0  0  0  0  0  0  0  0  0  0  0
    6.6728   -0.8672   25.8285 C   0  0  0  0  0  0  0  0  0  0  0  0
    6.8288   -0.8020   27.3527 C   0  0  0  0  0  0  0  0  0  0  0  0
    7.8364    0.1383   27.8637 C   0  0  0  0  0  0  0  0  0  0  0  0
    8.9463   -0.1578   28.1918 O   0  0  0  0  0  0  0  0  0  0  0  0
    7.7400   -0.9889   23.5131 C   0  0  0  0  0  0  0  0  0  0  0  0
  1  2  1  0
  2  3  1  0
  3  4  1  0
  4  5  1  0
  5  6  1  0
  6  7  1  0
  7  8  2  0
  8  9  1  0
  8 10  1  0
 10 11  1  0
 10 12  2  0
 12 13  1  0
 13 14  2  0
  5 15  1  0
 15 16  1  0
 16 17  1  0
 17 18  1  0
 18 19  1  0
 19 20  1  0
 20 21  1  0
 21 22  1  0
 22 23  2  0
 19 24  1  0
 14  3  1  0
 24 15  1  0
 14  7  1  0
M  END
