CVD-0000325|dock_bobby27042020.42|mol2|5|dock1
     RDKit          3D

 28 31  0  0  0  0  0  0  0  0999 V2000
    5.1082    0.2307   21.3972 C   0  0  0  0  0  0  0  0  0  0  0  0
    5.7011    0.3020   20.0137 C   0  0  0  0  0  0  0  0  0  0  0  0
    4.9256    0.9010   19.0246 C   0  0  0  0  0  0  0  0  0  0  0  0
    5.4394    0.8994   17.7522 C   0  0  0  0  0  0  0  0  0  0  0  0
    4.7166    1.4674   16.7610 F   0  0  0  0  0  0  0  0  0  0  0  0
    6.5866    0.3949   17.3643 N   0  0  0  0  0  0  0  0  0  0  0  0
    7.3102   -0.1138   18.3291 C   0  0  0  0  0  0  0  0  0  0  0  0
    8.5104   -0.5666   17.9355 F   0  0  0  0  0  0  0  0  0  0  0  0
    6.9699   -0.2154   19.6749 C   0  0  0  0  0  0  0  0  0  0  0  0
    7.8867   -0.8318   20.6809 C   0  0  0  0  0  0  0  0  0  0  0  0
    7.5541   -2.0550   21.3346 C   0  0  0  0  0  0  0  0  0  0  0  0
    8.3755   -2.6162   22.2465 C   0  0  0  0  0  0  0  0  0  0  0  0
    9.6236   -2.0211   22.6204 C   0  0  0  0  0  0  0  0  0  0  0  0
   10.3553   -2.5192   23.4744 O   0  0  0  0  0  0  0  0  0  0  0  0
    9.9424   -0.8147   21.9526 N   0  0  0  0  0  0  0  0  0  0  0  0
    9.0803   -0.2615   21.0271 C   0  0  0  0  0  0  0  0  0  0  0  0
   11.1735   -0.0949   22.2090 C   0  0  0  0  0  0  0  0  0  0  0  0
   12.3467   -0.8105   22.4066 C   0  0  0  0  0  0  0  0  0  0  0  0
   13.5355   -0.1467   22.6395 C   0  0  0  0  0  0  0  0  0  0  0  0
   13.5721    1.2346   22.6785 C   0  0  0  0  0  0  0  0  0  0  0  0
   12.4087    1.9755   22.4926 C   0  0  0  0  0  0  0  0  0  0  0  0
   11.2092    1.2980   22.2704 C   0  0  0  0  0  0  0  0  0  0  0  0
   12.4703    3.4152   22.5351 N   0  0  0  0  0  0  0  0  0  0  0  0
   13.7116    4.1358   22.2419 C   0  0  0  0  0  0  0  0  0  0  0  0
   13.3367    5.5928   22.3576 C   0  0  0  0  0  0  0  0  0  0  0  0
   11.9355    5.6492   22.9115 C   0  0  0  0  0  0  0  0  0  0  0  0
   11.4436    4.2332   22.9412 C   0  0  0  0  0  0  0  0  0  0  0  0
   10.3394    3.8172   23.2655 O   0  0  0  0  0  0  0  0  0  0  0  0
  1  2  1  0
  2  3  2  0
  3  4  1  0
  4  5  1  0
  4  6  2  0
  6  7  1  0
  7  8  1  0
  7  9  2  0
  9 10  1  0
 10 11  1  0
 11 12  2  0
 12 13  1  0
 13 14  2  0
 13 15  1  0
 15 16  1  0
 15 17  1  0
 17 18  2  0
 18 19  1  0
 19 20  2  0
 20 21  1  0
 21 22  2  0
 21 23  1  0
 23 24  1  0
 24 25  1  0
 25 26  1  0
 26 27  1  0
 27 28  2  0
  9  2  1  0
 16 10  2  0
 22 17  1  0
 27 23  1  0
M  END
