CVD-0001844|dock_bobby27042020.37|mol2|3|dock2
     RDKit          3D

 27 30  0  0  0  0  0  0  0  0999 V2000
   13.6705   -0.1932   26.1846 F   0  0  0  0  0  0  0  0  0  0  0  0
   12.9986   -1.1700   25.4371 C   0  0  0  0  0  0  0  0  0  0  0  0
   11.8690   -0.6333   24.5568 C   0  0  0  0  0  0  0  0  0  0  0  0
   11.8269   -1.5528   23.3333 C   0  0  0  0  0  0  0  0  0  0  0  0
   11.5132   -0.8388   22.0199 C   0  0  0  0  0  0  0  0  0  0  0  0
   10.0168   -0.6371   21.7994 C   0  0  0  0  0  0  0  0  0  0  0  0
    9.2710   -1.9340   21.5911 C   0  0  0  0  0  0  0  0  0  0  0  0
    9.9088   -2.9797   21.5951 O   0  0  0  0  0  0  0  0  0  0  0  0
    7.8694   -1.9863   21.3937 N   0  0  0  0  0  0  0  0  0  0  0  0
    6.9582   -0.8802   21.1745 C   0  0  0  0  0  0  0  0  0  0  0  0
    6.2136   -0.2062   22.0743 C   0  0  0  0  0  0  0  0  0  0  0  0
    5.4957    0.7889   21.4702 N   0  0  0  0  0  0  0  0  0  0  0  0
    5.7669    0.7854   20.1380 C   0  0  0  0  0  0  0  0  0  0  0  0
    5.2747    1.6305   19.2168 N   0  0  0  0  0  0  0  0  0  0  0  0
    5.6840    1.3870   17.9712 C   0  0  0  0  0  0  0  0  0  0  0  0
    6.4919    0.4148   17.5614 N   0  0  0  0  0  0  0  0  0  0  0  0
    6.9523   -0.4049   18.5117 C   0  0  0  0  0  0  0  0  0  0  0  0
    6.6581   -0.2685   19.8723 C   0  0  0  0  0  0  0  0  0  0  0  0
    7.2839   -3.3047   21.3940 C   0  0  0  0  0  0  0  0  0  0  0  0
    7.6688   -4.2657   22.3174 C   0  0  0  0  0  0  0  0  0  0  0  0
    7.0794   -5.5165   22.2661 C   0  0  0  0  0  0  0  0  0  0  0  0
    6.1328   -5.7584   21.2962 C   0  0  0  0  0  0  0  0  0  0  0  0
    5.7518   -4.8483   20.3981 N   0  0  0  0  0  0  0  0  0  0  0  0
    6.3257   -3.6425   20.4535 C   0  0  0  0  0  0  0  0  0  0  0  0
   13.1958   -2.0517   23.3006 N   0  0  0  0  0  0  0  0  0  0  0  0
   13.8947   -1.8588   24.4206 C   0  0  0  0  0  0  0  0  0  0  0  0
   15.0471   -2.2322   24.6221 O   0  0  0  0  0  0  0  0  0  0  0  0
  1  2  1  0
  2  3  1  0
  3  4  1  0
  4  5  1  0
  5  6  1  0
  6  7  1  0
  7  8  2  0
  7  9  1  0
  9 10  1  0
 10 11  2  0
 11 12  1  0
 12 13  1  0
 13 14  2  0
 14 15  1  0
 15 16  2  0
 16 17  1  0
 17 18  2  0
  9 19  1  0
 19 20  2  0
 20 21  1  0
 21 22  2  0
 22 23  1  0
 23 24  2  0
  4 25  1  0
 25 26  1  0
 26 27  2  0
 26  2  1  0
 18 10  1  0
 24 19  1  0
 18 13  1  0
M  END
