CVD-0000127|dock_bobby27042020.28|mol2|22|dock3
     RDKit          3D

 27 29  0  0  0  0  0  0  0  0999 V2000
   13.4720   -2.8757   25.3930 N   0  0  0  0  0  0  0  0  0  0  0  0
   12.5922   -2.0942   24.9561 C   0  0  0  0  0  0  0  0  0  0  0  0
   12.4277   -0.8525   25.3564 N   0  0  0  0  0  0  0  0  0  0  0  0
   11.6565   -2.5787   23.8995 C   0  0  0  0  0  0  0  0  0  0  0  0
   10.8868   -1.4938   23.1177 C   0  0  0  0  0  0  0  0  0  0  0  0
    9.7829   -2.1196   22.3120 C   0  0  0  0  0  0  0  0  0  0  0  0
    8.6791   -2.7329   22.7448 C   0  0  0  0  0  0  0  0  0  0  0  0
    7.6230   -3.3302   22.0105 N   0  0  0  0  0  0  0  0  0  0  0  0
    7.5512   -4.8030   22.2304 C   0  0  0  0  0  0  0  0  0  0  0  0
    6.6101   -5.5573   21.2955 C   0  0  0  0  0  0  0  0  0  0  0  0
    5.6690   -6.1921   22.0481 C   0  0  0  0  0  0  0  0  0  0  0  0
    5.9060   -5.8808   23.4953 C   0  0  0  0  0  0  0  0  0  0  0  0
    7.1195   -5.2658   23.6130 C   0  0  0  0  0  0  0  0  0  0  0  0
    6.7152   -2.6561   21.1565 C   0  0  0  0  0  0  0  0  0  0  0  0
    5.7508   -3.2281   20.6685 O   0  0  0  0  0  0  0  0  0  0  0  0
    6.8787   -1.3561   20.8476 N   0  0  0  0  0  0  0  0  0  0  0  0
    5.9318   -0.7029   19.9470 C   0  0  0  0  0  0  0  0  0  0  0  0
    6.0854    0.8191   20.0397 C   0  0  0  0  0  0  0  0  0  0  0  0
    5.3488    1.4296   18.8345 C   0  0  0  0  0  0  0  0  0  0  0  0
    5.9401    0.9278   17.5070 C   0  0  0  0  0  0  0  0  0  0  0  0
    6.1446   -0.5595   17.4866 N   0  0  0  0  0  0  0  0  0  0  0  0
    6.1133   -1.2188   18.5618 C   0  0  0  0  0  0  0  0  0  0  0  0
   11.8006   -0.6821   22.1700 C   0  0  0  0  0  0  0  0  0  0  0  0
   12.7849    0.2470   22.8746 C   0  0  0  0  0  0  0  0  0  0  0  0
   14.0196    0.0633   22.3301 C   0  0  0  0  0  0  0  0  0  0  0  0
   13.9264   -0.9560   21.2349 C   0  0  0  0  0  0  0  0  0  0  0  0
   12.6960   -1.5453   21.2952 C   0  0  0  0  0  0  0  0  0  0  0  0
  1  2  1  0
  2  3  2  0
  2  4  1  0
  4  5  1  0
  5  6  1  0
  6  7  2  0
  7  8  1  0
  8  9  1  0
  9 10  1  0
 10 11  2  0
 11 12  1  0
 12 13  2  0
  8 14  1  0
 14 15  2  0
 14 16  1  0
 16 17  1  0
 17 18  1  0
 18 19  1  0
 19 20  1  0
 20 21  1  0
 21 22  2  0
  5 23  1  0
 23 24  1  0
 24 25  2  0
 25 26  1  0
 26 27  2  0
 13  9  1  0
 22 17  1  0
 27 23  1  0
M  END
