CVD-0003638|dock_bobby27042020.44|mol2|39|dock3
     RDKit          3D

 30 33  0  0  0  0  0  0  0  0999 V2000
   15.0800    5.7506   22.8534 O   0  0  0  0  0  0  0  0  0  0  0  0
   13.8749    5.8799   23.0587 N   0  0  0  0  0  0  0  0  0  0  0  0
   13.3497    6.9226   23.4106 O   0  0  0  0  0  0  0  0  0  0  0  0
   13.0127    4.7060   22.8684 C   0  0  0  0  0  0  0  0  0  0  0  0
   13.5824    3.4792   22.5817 C   0  0  0  0  0  0  0  0  0  0  0  0
   12.7744    2.3803   22.3610 C   0  0  0  0  0  0  0  0  0  0  0  0
   11.3880    2.5033   22.4284 C   0  0  0  0  0  0  0  0  0  0  0  0
   10.8115    3.7358   22.8078 C   0  0  0  0  0  0  0  0  0  0  0  0
   11.6393    4.8418   22.9815 C   0  0  0  0  0  0  0  0  0  0  0  0
    9.3868    3.9321   23.0456 N   0  0  0  0  0  0  0  0  0  0  0  0
    8.8828    5.0379   22.8628 O   0  0  0  0  0  0  0  0  0  0  0  0
    8.7193    2.9647   23.3701 O   0  0  0  0  0  0  0  0  0  0  0  0
   10.6287    1.3398   22.0729 N   0  0  0  0  0  0  0  0  0  0  0  0
    9.4444    1.5522   21.3846 N   0  0  0  0  0  0  0  0  0  0  0  0
    8.9704    0.3313   21.1180 C   0  0  0  0  0  0  0  0  0  0  0  0
    9.8240   -0.6583   21.6271 C   0  0  0  0  0  0  0  0  0  0  0  0
   10.8752   -0.0046   22.2394 C   0  0  0  0  0  0  0  0  0  0  0  0
   12.0126   -0.6617   22.9211 C   0  0  0  0  0  0  0  0  0  0  0  0
   12.4691   -0.1282   24.1220 C   0  0  0  0  0  0  0  0  0  0  0  0
   13.5167   -0.7084   24.8147 C   0  0  0  0  0  0  0  0  0  0  0  0
   14.1025   -1.8263   24.2887 C   0  0  0  0  0  0  0  0  0  0  0  0
   15.1254   -2.4093   24.9701 F   0  0  0  0  0  0  0  0  0  0  0  0
   13.7023   -2.3809   23.1046 C   0  0  0  0  0  0  0  0  0  0  0  0
   12.6609   -1.7854   22.4148 C   0  0  0  0  0  0  0  0  0  0  0  0
    7.7075    0.1681   20.3811 C   0  0  0  0  0  0  0  0  0  0  0  0
    7.5123   -0.9233   19.5422 C   0  0  0  0  0  0  0  0  0  0  0  0
    6.3224   -1.0739   18.8498 C   0  0  0  0  0  0  0  0  0  0  0  0
    5.3171   -0.1406   18.9863 C   0  0  0  0  0  0  0  0  0  0  0  0
    5.4984    0.9460   19.8150 C   0  0  0  0  0  0  0  0  0  0  0  0
    6.6859    1.1025   20.5101 C   0  0  0  0  0  0  0  0  0  0  0  0
  1  2  1  0
  2  3  2  0
  2  4  1  0
  4  5  2  0
  5  6  1  0
  6  7  2  0
  7  8  1  0
  8  9  2  0
  8 10  1  0
 10 11  1  0
 10 12  2  0
  7 13  1  0
 13 14  1  0
 14 15  2  0
 15 16  1  0
 16 17  2  0
 17 18  1  0
 18 19  2  0
 19 20  1  0
 20 21  2  0
 21 22  1  0
 21 23  1  0
 23 24  2  0
 15 25  1  0
 25 26  2  0
 26 27  1  0
 27 28  2  0
 28 29  1  0
 29 30  2  0
  9  4  1  0
 17 13  1  0
 24 18  1  0
 30 25  1  0
M  CHG  4   1  -1   2   1  10   1  11  -1
M  END
