CVD-0001148|dock_bobby27042020.39|mol2|12|dock3
     RDKit          3D

 26 28  0  0  0  0  0  0  0  0999 V2000
    5.7172   -7.4905   29.0322 Cl  0  0  0  0  0  0  0  0  0  0  0  0
    7.0462   -6.8138   28.0820 C   0  0  0  0  0  0  0  0  0  0  0  0
    6.7920   -5.3566   27.7499 C   0  0  0  0  0  0  0  0  0  0  0  0
    5.7247   -4.8156   28.0103 O   0  0  0  0  0  0  0  0  0  0  0  0
    7.8044   -4.6913   27.1583 N   0  0  0  0  0  0  0  0  0  0  0  0
    9.1111   -5.2474   26.7939 C   0  0  0  0  0  0  0  0  0  0  0  0
    9.4890   -4.8439   25.3925 C   0  0  0  0  0  0  0  0  0  0  0  0
    9.4865   -3.3786   25.2508 N   0  0  0  0  0  0  0  0  0  0  0  0
    8.1344   -2.9031   25.5477 C   0  0  0  0  0  0  0  0  0  0  0  0
    7.7383   -3.2440   26.9644 C   0  0  0  0  0  0  0  0  0  0  0  0
    9.8989   -2.9757   23.9038 C   0  0  0  0  0  0  0  0  0  0  0  0
   11.2430   -3.4696   23.6474 O   0  0  0  0  0  0  0  0  0  0  0  0
   12.0239   -2.4364   23.2605 C   0  0  0  0  0  0  0  0  0  0  0  0
   13.1845   -2.5939   22.9596 O   0  0  0  0  0  0  0  0  0  0  0  0
   11.2362   -1.1953   23.2607 C   0  0  0  0  0  0  0  0  0  0  0  0
   11.8265    0.0900   22.9069 C   0  0  0  0  0  0  0  0  0  0  0  0
   11.3149    1.3020   23.1056 C   0  0  0  0  0  0  0  0  0  0  0  0
   11.9231    2.5875   22.7429 C   0  0  0  0  0  0  0  0  0  0  0  0
   13.2972    2.7004   22.5485 C   0  0  0  0  0  0  0  0  0  0  0  0
   13.8811    3.9071   22.2064 C   0  0  0  0  0  0  0  0  0  0  0  0
   13.0961    5.0441   22.0486 C   0  0  0  0  0  0  0  0  0  0  0  0
   11.7219    4.9472   22.2393 C   0  0  0  0  0  0  0  0  0  0  0  0
   11.1501    3.7345   22.5812 C   0  0  0  0  0  0  0  0  0  0  0  0
   13.6981    6.3051   21.6921 C   0  0  0  0  0  0  0  0  0  0  0  0
   14.2048    7.2912   21.4168 N   0  0  0  0  0  0  0  0  0  0  0  0
   10.0020   -1.5162   23.6232 C   0  0  0  0  0  0  0  0  0  0  0  0
  1  2  1  0
  2  3  1  0
  3  4  2  0
  3  5  1  0
  5  6  1  0
  6  7  1  0
  7  8  1  0
  8  9  1  0
  9 10  1  0
  8 11  1  0
 11 12  1  0
 12 13  1  0
 13 14  2  0
 13 15  1  0
 15 16  1  0
 16 17  2  0
 17 18  1  0
 18 19  2  0
 19 20  1  0
 20 21  2  0
 21 22  1  0
 22 23  2  0
 21 24  1  0
 24 25  3  0
 15 26  2  0
 10  5  1  0
 26 11  1  0
 23 18  1  0
M  END
