CVD-0003678|dock_bobby27042020.30|mol2|13|dock1
     RDKit          3D

 12 12  0  0  0  0  0  0  0  0999 V2000
   14.1131   -2.5260   25.9480 N   0  0  0  0  0  0  0  0  0  0  0  0
   13.6911   -1.1794   25.5008 C   0  0  0  0  0  0  0  0  0  0  0  0
   13.4273   -1.2484   23.9874 C   0  0  0  0  0  0  0  0  0  0  0  0
   12.9375    0.0498   23.5039 N   0  0  0  0  0  0  0  0  0  0  0  0
   12.4291   -2.3581   23.6219 C   0  0  0  0  0  0  0  0  0  0  0  0
   11.3154   -2.3405   24.5461 O   0  0  0  0  0  0  0  0  0  0  0  0
   10.1600   -2.2014   23.8499 C   0  0  0  0  0  0  0  0  0  0  0  0
    9.0929   -2.1358   24.4153 O   0  0  0  0  0  0  0  0  0  0  0  0
   10.4513   -2.1402   22.4323 C   0  0  0  0  0  0  0  0  0  0  0  0
    9.5256   -2.0070   21.4678 N   0  0  0  0  0  0  0  0  0  0  0  0
   11.7804   -2.2034   22.2806 C   0  0  0  0  0  0  0  0  0  0  0  0
   12.6038   -2.1595   21.2195 N   0  0  0  0  0  0  0  0  0  0  0  0
  1  2  1  0
  2  3  1  0
  3  4  1  0
  3  5  1  0
  5  6  1  0
  6  7  1  0
  7  8  2  0
  7  9  1  0
  9 10  1  0
  9 11  2  0
 11 12  1  0
 11  5  1  0
M  END
