CVD-0001982|dock_bobby27042020.22|mol2|9|dock3
     RDKit          3D

 19 21  0  0  0  0  0  0  0  0999 V2000
   14.1182   -2.5691   23.1874 C   0  0  0  0  0  0  0  0  0  0  0  0
   13.1820   -2.2234   22.0319 C   0  0  0  0  0  0  0  0  0  0  0  0
   13.9302   -2.2890   20.7144 C   0  0  0  0  0  0  0  0  0  0  0  0
   14.3134   -3.5005   20.4011 O   0  0  0  0  0  0  0  0  0  0  0  0
   14.1465   -1.3158   20.0263 O   0  0  0  0  0  0  0  0  0  0  0  0
   12.5710   -0.8439   22.1946 C   0  0  0  0  0  0  0  0  0  0  0  0
   11.2002   -0.6449   22.1046 C   0  0  0  0  0  0  0  0  0  0  0  0
   10.6845    0.6302   22.2628 C   0  0  0  0  0  0  0  0  0  0  0  0
   11.5668    1.6784   22.5097 C   0  0  0  0  0  0  0  0  0  0  0  0
   12.9435    1.3716   22.5841 C   0  0  0  0  0  0  0  0  0  0  0  0
   13.4527    0.1423   22.4329 N   0  0  0  0  0  0  0  0  0  0  0  0
   13.6501    2.5173   22.8310 N   0  0  0  0  0  0  0  0  0  0  0  0
   12.7642    3.5774   22.9212 C   0  0  0  0  0  0  0  0  0  0  0  0
   13.0111    4.9250   23.1591 C   0  0  0  0  0  0  0  0  0  0  0  0
   11.9455    5.8082   23.2049 C   0  0  0  0  0  0  0  0  0  0  0  0
   10.6598    5.3444   23.0151 C   0  0  0  0  0  0  0  0  0  0  0  0
    9.3365    6.4747   23.0773 Cl  0  0  0  0  0  0  0  0  0  0  0  0
   10.3876    4.0116   22.7774 C   0  0  0  0  0  0  0  0  0  0  0  0
   11.4486    3.1099   22.7283 C   0  0  0  0  0  0  0  0  0  0  0  0
  2  1  1  0
  2  3  1  0
  3  4  1  0
  3  5  2  0
  2  6  1  0
  6  7  2  0
  7  8  1  0
  8  9  2  0
  9 10  1  0
 10 11  2  0
 10 12  1  0
 12 13  1  0
 13 14  2  0
 14 15  1  0
 15 16  2  0
 16 17  1  0
 16 18  1  0
 18 19  2  0
 11  6  1  0
 19 13  1  0
 19  9  1  0
M  END
