CVD-0003132|dock_bobby27042020.32|mol2|2|dock1
     RDKit          3D

 18 19  0  0  0  0  0  0  0  0999 V2000
   13.9557    6.5386   22.0282 N   0  0  0  0  0  0  0  0  0  0  0  0
   13.8381    5.0883   21.8729 C   0  0  0  0  0  0  0  0  0  0  0  0
   12.6980    4.5094   22.6620 C   0  0  0  0  0  0  0  0  0  0  0  0
   12.7261    3.0537   22.6663 N   0  0  0  0  0  0  0  0  0  0  0  0
   11.7425    2.3712   23.2847 C   0  0  0  0  0  0  0  0  0  0  0  0
   10.8555    2.9984   23.8514 O   0  0  0  0  0  0  0  0  0  0  0  0
   11.7329    1.0007   23.2847 N   0  0  0  0  0  0  0  0  0  0  0  0
   12.9491    0.2428   22.9914 C   0  0  0  0  0  0  0  0  0  0  0  0
   12.9416   -1.0414   23.8027 C   0  0  0  0  0  0  0  0  0  0  0  0
   13.8537   -1.2122   24.8376 C   0  0  0  0  0  0  0  0  0  0  0  0
   13.9085   -2.3995   25.5459 C   0  0  0  0  0  0  0  0  0  0  0  0
   13.0512   -3.4318   25.2287 C   0  0  0  0  0  0  0  0  0  0  0  0
   12.1310   -3.2922   24.2030 C   0  0  0  0  0  0  0  0  0  0  0  0
   12.0805   -2.0949   23.4939 C   0  0  0  0  0  0  0  0  0  0  0  0
   11.0610   -1.9225   22.5155 N   0  0  0  0  0  0  0  0  0  0  0  0
   10.2879   -0.8053   22.4672 C   0  0  0  0  0  0  0  0  0  0  0  0
    9.4814   -0.6596   21.5539 O   0  0  0  0  0  0  0  0  0  0  0  0
   10.5096    0.2271   23.5423 C   0  0  0  0  0  0  0  0  0  0  0  0
  1  2  1  0
  2  3  1  0
  3  4  1  0
  4  5  1  0
  5  6  2  0
  5  7  1  0
  7  8  1  0
  8  9  1  0
  9 10  2  0
 10 11  1  0
 11 12  2  0
 12 13  1  0
 13 14  2  0
 14 15  1  0
 15 16  1  0
 16 17  2  0
 16 18  1  0
 18  7  1  0
 14  9  1  0
M  END
