CVD-0002730|dock_bobby27042020.4|mol2|35|dock2
     RDKit          3D

 23 25  0  0  0  0  0  0  0  0999 V2000
   14.3764    6.2207   22.7096 Cl  0  0  0  0  0  0  0  0  0  0  0  0
   13.9852    4.5261   23.0310 C   0  0  0  0  0  0  0  0  0  0  0  0
   12.5301    4.2357   22.7157 C   0  0  0  0  0  0  0  0  0  0  0  0
   11.7925    5.1035   22.2660 O   0  0  0  0  0  0  0  0  0  0  0  0
   12.0885    2.9815   22.9450 N   0  0  0  0  0  0  0  0  0  0  0  0
   10.7129    2.5611   22.6694 C   0  0  0  0  0  0  0  0  0  0  0  0
   10.7023    1.3371   21.7726 C   0  0  0  0  0  0  0  0  0  0  0  0
   11.4505    0.2430   22.3988 N   0  0  0  0  0  0  0  0  0  0  0  0
   11.4100   -0.9529   21.5558 C   0  0  0  0  0  0  0  0  0  0  0  0
   10.0085   -1.4347   21.3306 C   0  0  0  0  0  0  0  0  0  0  0  0
    9.2748   -2.2833   22.0908 C   0  0  0  0  0  0  0  0  0  0  0  0
    8.0035   -2.5677   21.6612 N   0  0  0  0  0  0  0  0  0  0  0  0
    7.7534   -1.9296   20.5514 C   0  0  0  0  0  0  0  0  0  0  0  0
    6.4523   -2.0093   19.8095 C   0  0  0  0  0  0  0  0  0  0  0  0
    5.9599   -0.6628   19.3294 C   0  0  0  0  0  0  0  0  0  0  0  0
    4.9465    0.0019   20.0022 C   0  0  0  0  0  0  0  0  0  0  0  0
    4.4931    1.2339   19.5608 C   0  0  0  0  0  0  0  0  0  0  0  0
    5.0475    1.8147   18.4405 C   0  0  0  0  0  0  0  0  0  0  0  0
    6.0549    1.1635   17.7616 C   0  0  0  0  0  0  0  0  0  0  0  0
    6.5080   -0.0682   18.2034 C   0  0  0  0  0  0  0  0  0  0  0  0
    9.0611   -0.9412   19.9726 S   0  0  0  0  0  0  0  0  0  0  0  0
   12.8303    0.6708   22.6135 C   0  0  0  0  0  0  0  0  0  0  0  0
   12.8811    1.8890   23.5177 C   0  0  0  0  0  0  0  0  0  0  0  0
  1  2  1  0
  2  3  1  0
  3  4  2  0
  3  5  1  0
  5  6  1  0
  6  7  1  0
  7  8  1  0
  8  9  1  0
  9 10  1  0
 10 11  2  0
 11 12  1  0
 12 13  2  0
 13 14  1  0
 14 15  1  0
 15 16  2  0
 16 17  1  0
 17 18  2  0
 18 19  1  0
 19 20  2  0
 13 21  1  0
  8 22  1  0
 22 23  1  0
 23  5  1  0
 21 10  1  0
 20 15  1  0
M  END
