CVD-0000231|dock_bobby27042020.42|mol2|19|dock1
     RDKit          3D

 26 28  0  0  0  0  0  0  0  0999 V2000
    9.0710    3.6630   23.2846 C   0  0  0  0  0  0  0  0  0  0  0  0
   10.5431    3.7422   22.9774 C   0  0  0  0  0  0  0  0  0  0  0  0
   11.1543    4.9885   22.8524 C   0  0  0  0  0  0  0  0  0  0  0  0
   12.5049    5.1056   22.5734 C   0  0  0  0  0  0  0  0  0  0  0  0
   13.2711    3.9724   22.4145 C   0  0  0  0  0  0  0  0  0  0  0  0
   12.6859    2.7237   22.5350 C   0  0  0  0  0  0  0  0  0  0  0  0
   11.3257    2.5879   22.8154 C   0  0  0  0  0  0  0  0  0  0  0  0
   10.6613    1.2198   22.9565 C   0  0  0  0  0  0  0  0  0  0  0  0
    9.6419    1.0185   21.8303 C   0  0  0  0  0  0  0  0  0  0  0  0
    9.6418    1.7455   20.8404 O   0  0  0  0  0  0  0  0  0  0  0  0
    8.7661    0.0227   21.9754 N   0  0  0  0  0  0  0  0  0  0  0  0
    7.7483   -0.2766   20.9759 C   0  0  0  0  0  0  0  0  0  0  0  0
    6.3444   -0.0281   21.4981 C   0  0  0  0  0  0  0  0  0  0  0  0
    6.1578   -0.7543   22.7159 O   0  0  0  0  0  0  0  0  0  0  0  0
    5.2943   -0.4627   20.4875 C   0  0  0  0  0  0  0  0  0  0  0  0
    5.5186    0.1538   19.1840 N   0  0  0  0  0  0  0  0  0  0  0  0
    5.3269    1.4349   18.8252 C   0  0  0  0  0  0  0  0  0  0  0  0
    5.7101    1.4886   17.5309 C   0  0  0  0  0  0  0  0  0  0  0  0
    6.1256    0.2653   17.1443 N   0  0  0  0  0  0  0  0  0  0  0  0
    6.0210   -0.5589   18.1623 N   0  0  0  0  0  0  0  0  0  0  0  0
   11.6413    0.0506   23.0200 C   0  0  0  0  0  0  0  0  0  0  0  0
   12.4598   -0.1072   24.1301 C   0  0  0  0  0  0  0  0  0  0  0  0
   13.3491   -1.1654   24.2146 C   0  0  0  0  0  0  0  0  0  0  0  0
   13.4323   -2.0827   23.1896 C   0  0  0  0  0  0  0  0  0  0  0  0
   12.6282   -1.9397   22.0797 C   0  0  0  0  0  0  0  0  0  0  0  0
   11.7406   -0.8801   21.9934 C   0  0  0  0  0  0  0  0  0  0  0  0
  1  2  1  0
  2  3  2  0
  3  4  1  0
  4  5  2  0
  5  6  1  0
  6  7  2  0
  7  8  1  0
  8  9  1  0
  9 10  2  0
  9 11  1  0
 11 12  1  0
 12 13  1  0
 13 14  1  0
 13 15  1  0
 15 16  1  0
 16 17  1  0
 17 18  2  0
 18 19  1  0
 19 20  2  0
  8 21  1  0
 21 22  2  0
 22 23  1  0
 23 24  2  0
 24 25  1  0
 25 26  2  0
  7  2  1  0
 20 16  1  0
 26 21  1  0
M  END
