CVD-0000582|dock_bobby27042020.12|mol2|30|dock1
     RDKit          3D

 23 25  0  0  0  0  0  0  0  0999 V2000
    8.1236   -1.4071   18.2421 C   0  0  0  0  0  0  0  0  0  0  0  0
    7.3514   -0.7091   19.3320 C   0  0  0  0  0  0  0  0  0  0  0  0
    6.0065   -0.4259   19.1137 C   0  0  0  0  0  0  0  0  0  0  0  0
    5.2736    0.2080   20.0915 C   0  0  0  0  0  0  0  0  0  0  0  0
    5.7890    0.5741   21.2614 N   0  0  0  0  0  0  0  0  0  0  0  0
    7.0798    0.3066   21.4832 C   0  0  0  0  0  0  0  0  0  0  0  0
    7.9162   -0.3305   20.5656 C   0  0  0  0  0  0  0  0  0  0  0  0
    9.2913   -0.6201   20.7937 N   0  0  0  0  0  0  0  0  0  0  0  0
   10.1066   -0.2356   21.8320 C   0  0  0  0  0  0  0  0  0  0  0  0
    9.7758    0.4573   22.7894 O   0  0  0  0  0  0  0  0  0  0  0  0
   11.3654   -0.7128   21.6961 N   0  0  0  0  0  0  0  0  0  0  0  0
   12.4509   -0.4754   22.6331 C   0  0  0  0  0  0  0  0  0  0  0  0
   13.6244   -1.4569   22.4162 C   0  0  0  0  0  0  0  0  0  0  0  0
   13.2425   -2.2018   23.6822 C   0  0  0  0  0  0  0  0  0  0  0  0
   12.2196   -1.1130   24.0151 C   0  0  0  0  0  0  0  0  0  0  0  0
   12.8477    0.9474   22.6212 C   0  0  0  0  0  0  0  0  0  0  0  0
   13.0689    2.1199   22.5855 C   0  0  0  0  0  0  0  0  0  0  0  0
   13.2532    3.5450   22.5066 C   0  0  0  0  0  0  0  0  0  0  0  0
   12.3793    4.4025   23.1674 C   0  0  0  0  0  0  0  0  0  0  0  0
   12.5957    5.7653   23.0632 C   0  0  0  0  0  0  0  0  0  0  0  0
   13.6566    6.2315   22.3180 C   0  0  0  0  0  0  0  0  0  0  0  0
   14.4709    5.3111   21.6978 C   0  0  0  0  0  0  0  0  0  0  0  0
   14.2944    3.9850   21.7747 N   0  0  0  0  0  0  0  0  0  0  0  0
  1  2  1  0
  2  3  2  0
  3  4  1  0
  4  5  2  0
  5  6  1  0
  6  7  2  0
  7  8  1  0
  8  9  1  0
  9 10  2  0
  9 11  1  0
 11 12  1  0
 12 13  1  0
 13 14  1  0
 14 15  1  0
 12 16  1  0
 16 17  3  0
 17 18  1  0
 18 19  2  0
 19 20  1  0
 20 21  2  0
 21 22  1  0
 22 23  2  0
  7  2  1  0
 15 12  1  0
 23 18  1  0
M  END
