CVD-0000803|dock_bobby27042020.69|mol2|11|dock2
     RDKit          3D

 22 24  0  0  0  0  0  0  0  0999 V2000
   13.8793    5.1538   21.3242 C   0  0  0  0  0  0  0  0  0  0  0  0
   13.8971    4.0864   22.3874 C   0  0  0  0  0  0  0  0  0  0  0  0
   12.5815    3.3447   22.5228 C   0  0  0  0  0  0  0  0  0  0  0  0
   12.5671    1.9648   22.6908 C   0  0  0  0  0  0  0  0  0  0  0  0
   11.3766    1.2530   22.8262 C   0  0  0  0  0  0  0  0  0  0  0  0
   11.3918   -0.1473   23.0510 N   0  0  0  0  0  0  0  0  0  0  0  0
   11.2353   -1.1127   21.9614 C   0  0  0  0  0  0  0  0  0  0  0  0
   12.4491   -1.8036   21.5866 C   0  0  0  0  0  0  0  0  0  0  0  0
   13.7441   -1.5790   22.2182 C   0  0  0  0  0  0  0  0  0  0  0  0
   13.9121   -1.7585   23.6583 C   0  0  0  0  0  0  0  0  0  0  0  0
   13.2267   -0.8040   24.5538 C   0  0  0  0  0  0  0  0  0  0  0  0
   11.7686   -0.6912   24.3517 C   0  0  0  0  0  0  0  0  0  0  0  0
   10.1680    1.9652   22.7293 C   0  0  0  0  0  0  0  0  0  0  0  0
    8.8543    1.5572   22.7467 N   0  0  0  0  0  0  0  0  0  0  0  0
    8.0442    2.6540   22.6404 C   0  0  0  0  0  0  0  0  0  0  0  0
    8.7924    3.7881   22.5371 C   0  0  0  0  0  0  0  0  0  0  0  0
    8.2982    5.2057   22.4055 C   0  0  0  0  0  0  0  0  0  0  0  0
    7.5227    5.6723   23.5602 N   0  0  0  0  0  0  0  0  0  0  0  0
    7.1902    7.0835   23.4032 C   0  0  0  0  0  0  0  0  0  0  0  0
    8.2778    5.4936   24.7958 C   0  0  0  0  0  0  0  0  0  0  0  0
   10.1630    3.3652   22.5701 C   0  0  0  0  0  0  0  0  0  0  0  0
   11.3791    4.0357   22.4762 C   0  0  0  0  0  0  0  0  0  0  0  0
  1  2  1  0
  2  3  1  0
  3  4  2  0
  4  5  1  0
  5  6  1  0
  6  7  1  0
  7  8  1  0
  8  9  1  0
  9 10  1  0
 10 11  1  0
 11 12  1  0
  5 13  2  0
 13 14  1  0
 14 15  1  0
 15 16  2  0
 16 17  1  0
 17 18  1  0
 18 19  1  0
 18 20  1  0
 16 21  1  0
 21 22  2  0
 22  3  1  0
 12  6  1  0
 21 13  1  0
M  END
