CVD-0000218|dock_bobby27042020.28|mol2|8|dock3
     RDKit          3D

 34 39  0  0  0  0  0  0  0  0999 V2000
    6.4062   -0.6670   23.0988 C   0  0  0  0  0  0  0  0  0  0  0  0
    6.7656   -0.9239   21.7040 N   0  0  0  0  0  0  0  0  0  0  0  0
    8.0666   -1.5555   21.6368 C   0  0  0  0  0  0  0  0  0  0  0  0
    9.2104   -0.6734   22.0546 C   0  0  0  0  0  0  0  0  0  0  0  0
   10.3917   -1.1612   22.4991 C   0  0  0  0  0  0  0  0  0  0  0  0
   11.5442   -0.3576   22.6756 C   0  0  0  0  0  0  0  0  0  0  0  0
   12.6888   -0.9616   23.3473 C   0  0  0  0  0  0  0  0  0  0  0  0
   13.4184   -0.5556   24.4280 C   0  0  0  0  0  0  0  0  0  0  0  0
   14.3995   -1.5105   24.6771 C   0  0  0  0  0  0  0  0  0  0  0  0
   15.2732   -1.4902   25.5351 O   0  0  0  0  0  0  0  0  0  0  0  0
   14.2054   -2.6233   23.6689 C   0  0  0  0  0  0  0  0  0  0  0  0
   13.1008   -2.1289   22.8337 O   0  0  0  0  0  0  0  0  0  0  0  0
   11.4180    1.0025   22.3658 C   0  0  0  0  0  0  0  0  0  0  0  0
   12.5331    1.9634   22.4590 C   0  0  0  0  0  0  0  0  0  0  0  0
   13.8449    1.6856   22.2717 C   0  0  0  0  0  0  0  0  0  0  0  0
   14.6605    2.7858   22.4267 O   0  0  0  0  0  0  0  0  0  0  0  0
   13.8124    3.8179   22.7342 C   0  0  0  0  0  0  0  0  0  0  0  0
   14.2473    5.0435   22.9513 N   0  0  0  0  0  0  0  0  0  0  0  0
   13.2977    5.9400   23.2545 C   0  0  0  0  0  0  0  0  0  0  0  0
   11.9546    5.6367   23.3398 C   0  0  0  0  0  0  0  0  0  0  0  0
   11.5427    4.3351   23.0984 C   0  0  0  0  0  0  0  0  0  0  0  0
   12.5032    3.3787   22.7772 C   0  0  0  0  0  0  0  0  0  0  0  0
   10.1715    1.5575   21.8891 C   0  0  0  0  0  0  0  0  0  0  0  0
   10.0529    2.7130   21.4726 O   0  0  0  0  0  0  0  0  0  0  0  0
    9.0989    0.6699   21.7536 N   0  0  0  0  0  0  0  0  0  0  0  0
    7.7570    1.2692   21.4950 C   0  0  0  0  0  0  0  0  0  0  0  0
    6.8159    0.2622   20.8493 C   0  0  0  0  0  0  0  0  0  0  0  0
    7.2351   -0.0962   19.4326 C   0  0  0  0  0  0  0  0  0  0  0  0
    6.4532   -1.2950   19.0233 C   0  0  0  0  0  0  0  0  0  0  0  0
    4.9898   -0.9212   18.7858 C   0  0  0  0  0  0  0  0  0  0  0  0
    4.9365    0.1234   17.7956 N   0  0  0  0  0  0  0  0  0  0  0  0
    5.8242    1.1130   17.6243 C   0  0  0  0  0  0  0  0  0  0  0  0
    5.6053    2.0136   16.8201 O   0  0  0  0  0  0  0  0  0  0  0  0
    7.1092    1.1025   18.4562 C   0  0  0  0  0  0  0  0  0  0  0  0
  1  2  1  0
  2  3  1  0
  3  4  1  0
  4  5  2  0
  5  6  1  0
  6  7  1  0
  7  8  2  0
  8  9  1  0
  9 10  2  0
  9 11  1  0
 11 12  1  0
  6 13  2  0
 13 14  1  0
 14 15  2  0
 15 16  1  0
 16 17  1  0
 17 18  2  0
 18 19  1  0
 19 20  2  0
 20 21  1  0
 21 22  2  0
 13 23  1  0
 23 24  2  0
 23 25  1  0
 25 26  1  0
 26 27  1  0
 27 28  1  0
 28 29  1  0
 29 30  1  0
 30 31  1  0
 31 32  1  0
 32 33  2  0
 32 34  1  0
 27  2  1  0
 34 28  1  0
 25  4  1  0
 12  7  1  0
 22 14  1  0
 22 17  1  0
M  END
