CVD-0000918|dock_bobby27042020.40|mol2|6|dock2
     RDKit          3D

 35 39  0  0  0  0  0  0  0  0999 V2000
    8.0474   -5.2144   27.4063 F   0  0  0  0  0  0  0  0  0  0  0  0
    8.4615   -4.3897   26.4067 C   0  0  0  0  0  0  0  0  0  0  0  0
    9.6972   -4.5968   25.8536 C   0  0  0  0  0  0  0  0  0  0  0  0
   10.0622   -3.8118   24.7761 C   0  0  0  0  0  0  0  0  0  0  0  0
    9.2014   -2.8411   24.2690 C   0  0  0  0  0  0  0  0  0  0  0  0
    9.5981   -1.9144   23.1328 C   0  0  0  0  0  0  0  0  0  0  0  0
   10.5001   -0.7107   23.5008 C   0  0  0  0  0  0  0  0  0  0  0  0
   11.5480   -1.0190   24.5594 C   0  0  0  0  0  0  0  0  0  0  0  0
   12.9949   -1.5951   23.6667 S   0  0  0  0  0  0  0  0  0  0  0  0
   14.1578   -0.8985   24.1463 O   0  0  0  0  0  0  0  0  0  0  0  0
   13.0300   -3.0326   23.6502 O   0  0  0  0  0  0  0  0  0  0  0  0
   12.4929   -0.9795   22.0553 C   0  0  0  0  0  0  0  0  0  0  0  0
   11.2455   -0.1520   22.2811 C   0  0  0  0  0  0  0  0  0  0  0  0
   11.4960    1.2970   22.4508 N   0  0  0  0  0  0  0  0  0  0  0  0
   12.7460    1.8613   22.9946 C   0  0  0  0  0  0  0  0  0  0  0  0
   12.5609    3.3574   22.9202 C   0  0  0  0  0  0  0  0  0  0  0  0
   11.1596    3.6007   22.4465 C   0  0  0  0  0  0  0  0  0  0  0  0
   10.6086    2.2364   22.1545 C   0  0  0  0  0  0  0  0  0  0  0  0
    9.4938    2.0013   21.7067 O   0  0  0  0  0  0  0  0  0  0  0  0
    8.4478   -1.6772   22.2653 N   0  0  0  0  0  0  0  0  0  0  0  0
    8.5428   -1.6187   20.8551 C   0  0  0  0  0  0  0  0  0  0  0  0
    9.5024   -2.0452   20.2283 O   0  0  0  0  0  0  0  0  0  0  0  0
    7.4230   -0.9699   20.0631 C   0  0  0  0  0  0  0  0  0  0  0  0
    7.8802   -0.7426   18.3700 Cl  0  0  0  0  0  0  0  0  0  0  0  0
    7.2239   -1.4255   22.7525 C   0  0  0  0  0  0  0  0  0  0  0  0
    6.2714   -1.0199   22.1159 O   0  0  0  0  0  0  0  0  0  0  0  0
    7.0749   -1.5724   24.2350 C   0  0  0  0  0  0  0  0  0  0  0  0
    7.2908   -0.2296   24.9298 C   0  0  0  0  0  0  0  0  0  0  0  0
    8.0988   -0.1135   26.0542 C   0  0  0  0  0  0  0  0  0  0  0  0
    8.2835    1.1117   26.6730 C   0  0  0  0  0  0  0  0  0  0  0  0
    7.6635    2.2383   26.1772 C   0  0  0  0  0  0  0  0  0  0  0  0
    6.8587    2.1398   25.0628 C   0  0  0  0  0  0  0  0  0  0  0  0
    6.6736    0.9149   24.4438 C   0  0  0  0  0  0  0  0  0  0  0  0
    7.9473   -2.6480   24.8484 C   0  0  0  0  0  0  0  0  0  0  0  0
    7.5883   -3.4443   25.9345 C   0  0  0  0  0  0  0  0  0  0  0  0
  1  2  1  0
  2  3  2  0
  3  4  1  0
  4  5  2  0
  5  6  1  0
  6  7  1  0
  7  8  1  0
  8  9  1  0
  9 10  2  0
  9 11  2  0
  9 12  1  0
 12 13  1  0
 13 14  1  0
 14 15  1  0
 15 16  1  0
 16 17  1  0
 17 18  1  0
 18 19  2  0
  6 20  1  0
 20 21  1  0
 21 22  2  0
 21 23  1  0
 23 24  1  0
 20 25  1  0
 25 26  2  0
 25 27  1  0
 27 28  1  0
 28 29  2  0
 29 30  1  0
 30 31  2  0
 31 32  1  0
 32 33  2  0
 27 34  1  0
 34 35  2  0
 35  2  1  0
 34  5  1  0
 13  7  1  0
 18 14  1  0
 33 28  1  0
M  END
