CVD-0003866|dock_bobby27042020.86|mol2|29|dock1
     RDKit          3D

 25 27  0  0  0  0  0  0  0  0999 V2000
   12.8988    5.4311   21.5660 N   0  0  0  0  0  0  0  0  0  0  0  0
   13.3050    4.6028   22.8745 S   0  0  0  0  0  0  0  0  0  0  0  0
   12.7593    5.2974   24.0017 O   0  0  0  0  0  0  0  0  0  0  0  0
   14.7191    4.3839   22.8150 O   0  0  0  0  0  0  0  0  0  0  0  0
   12.5223    3.0200   22.8006 C   0  0  0  0  0  0  0  0  0  0  0  0
   11.1427    2.9305   22.8470 C   0  0  0  0  0  0  0  0  0  0  0  0
   10.5348    1.6892   22.7848 C   0  0  0  0  0  0  0  0  0  0  0  0
   11.2870    0.5243   22.6675 C   0  0  0  0  0  0  0  0  0  0  0  0
   12.6732    0.6394   22.6225 C   0  0  0  0  0  0  0  0  0  0  0  0
   13.2914    1.8755   22.6884 C   0  0  0  0  0  0  0  0  0  0  0  0
   10.6750   -0.7200   22.5981 N   0  0  0  0  0  0  0  0  0  0  0  0
   11.1706   -1.8920   23.3261 C   0  0  0  0  0  0  0  0  0  0  0  0
   10.0627   -2.6420   24.0100 C   0  0  0  0  0  0  0  0  0  0  0  0
    8.9790   -3.0564   23.0085 C   0  0  0  0  0  0  0  0  0  0  0  0
    7.8437   -3.8247   23.6902 C   0  0  0  0  0  0  0  0  0  0  0  0
    8.3599   -5.4579   24.2737 S   0  0  0  0  0  0  0  0  0  0  0  0
    7.6418   -5.5352   25.8889 C   0  0  0  0  0  0  0  0  0  0  0  0
    6.2690   -5.5039   26.1207 C   0  0  0  0  0  0  0  0  0  0  0  0
    5.8043   -5.5794   27.4232 C   0  0  0  0  0  0  0  0  0  0  0  0
    6.7177   -5.6855   28.4483 C   0  0  0  0  0  0  0  0  0  0  0  0
    8.0439   -5.7217   28.2627 N   0  0  0  0  0  0  0  0  0  0  0  0
    8.4700   -5.6490   27.0154 C   0  0  0  0  0  0  0  0  0  0  0  0
   10.1896   -5.7012   26.7930 Cl  0  0  0  0  0  0  0  0  0  0  0  0
    8.4934   -1.8260   22.2845 C   0  0  0  0  0  0  0  0  0  0  0  0
    9.6117   -1.0507   21.6211 C   0  0  0  0  0  0  0  0  0  0  0  0
  1  2  1  0
  2  3  2  0
  2  4  2  0
  2  5  1  0
  5  6  2  0
  6  7  1  0
  7  8  2  0
  8  9  1  0
  9 10  2  0
  8 11  1  0
 11 12  1  0
 12 13  1  0
 13 14  1  0
 14 15  1  0
 15 16  1  0
 16 17  1  0
 17 18  2  0
 18 19  1  0
 19 20  2  0
 20 21  1  0
 21 22  2  0
 22 23  1  0
 14 24  1  0
 24 25  1  0
 10  5  1  0
 25 11  1  0
 22 17  1  0
M  END
