CVD-0003444|dock_bobby27042020.59|mol2|42|dock2
     RDKit          3D

 20 22  0  0  0  0  0  0  0  0999 V2000
    6.2000   -0.2262   23.0956 F   0  0  0  0  0  0  0  0  0  0  0  0
    6.0845   -0.0113   21.7780 C   0  0  0  0  0  0  0  0  0  0  0  0
    4.8911    0.4009   21.4325 N   0  0  0  0  0  0  0  0  0  0  0  0
    4.6823    0.7369   20.1538 C   0  0  0  0  0  0  0  0  0  0  0  0
    5.6816    0.6409   19.1960 C   0  0  0  0  0  0  0  0  0  0  0  0
    5.7162    0.9292   17.8686 N   0  0  0  0  0  0  0  0  0  0  0  0
    6.9415    0.6607   17.3330 N   0  0  0  0  0  0  0  0  0  0  0  0
    7.6833    0.2037   18.3235 C   0  0  0  0  0  0  0  0  0  0  0  0
    6.9594    0.1617   19.5396 C   0  0  0  0  0  0  0  0  0  0  0  0
    7.1728   -0.2064   20.8798 C   0  0  0  0  0  0  0  0  0  0  0  0
    8.4785   -0.7319   21.1770 N   0  0  0  0  0  0  0  0  0  0  0  0
    9.1063   -0.8365   22.3749 C   0  0  0  0  0  0  0  0  0  0  0  0
    8.6647   -0.4917   23.4650 O   0  0  0  0  0  0  0  0  0  0  0  0
   10.4810   -1.4588   22.2658 C   0  0  0  0  0  0  0  0  0  0  0  0
   11.2418   -1.5024   23.5947 C   0  0  0  0  0  0  0  0  0  0  0  0
   11.7593   -0.1033   23.9868 C   0  0  0  0  0  0  0  0  0  0  0  0
   12.5850   -0.1261   25.2718 C   0  0  0  0  0  0  0  0  0  0  0  0
   13.7241   -1.1332   25.1813 C   0  0  0  0  0  0  0  0  0  0  0  0
   13.2049   -2.5190   24.8254 C   0  0  0  0  0  0  0  0  0  0  0  0
   12.4154   -2.4942   23.5207 C   0  0  0  0  0  0  0  0  0  0  0  0
  1  2  1  0
  2  3  2  0
  3  4  1  0
  4  5  2  0
  5  6  1  0
  6  7  1  0
  7  8  2  0
  8  9  1  0
  9 10  2  0
 10 11  1  0
 11 12  1  0
 12 13  2  0
 12 14  1  0
 14 15  1  0
 15 16  1  0
 16 17  1  0
 17 18  1  0
 18 19  1  0
 19 20  1  0
 10  2  1  0
 20 15  1  0
  9  5  1  0
M  END
