CVD-0000852|dock_bobby27042020.97|mol2|17|dock3
     RDKit          3D

 19 20  0  0  0  0  0  0  0  0999 V2000
    9.1989    6.0887   22.3032 C   0  0  0  0  0  0  0  0  0  0  0  0
    9.2323    4.5912   22.4147 C   0  0  0  0  0  0  0  0  0  0  0  0
    8.1722    3.9754   22.4376 O   0  0  0  0  0  0  0  0  0  0  0  0
   10.4516    3.8698   22.5072 N   0  0  0  0  0  0  0  0  0  0  0  0
   10.5980    2.4349   22.6090 C   0  0  0  0  0  0  0  0  0  0  0  0
    9.5920    1.7468   22.5093 O   0  0  0  0  0  0  0  0  0  0  0  0
   11.8392    1.8743   22.8235 N   0  0  0  0  0  0  0  0  0  0  0  0
   12.2195    0.5132   22.9661 C   0  0  0  0  0  0  0  0  0  0  0  0
   13.2574    0.0552   23.7778 C   0  0  0  0  0  0  0  0  0  0  0  0
   13.5534   -1.2969   23.8376 C   0  0  0  0  0  0  0  0  0  0  0  0
   12.8253   -2.2079   23.1053 C   0  0  0  0  0  0  0  0  0  0  0  0
   11.7931   -1.7692   22.3071 C   0  0  0  0  0  0  0  0  0  0  0  0
   11.4906   -0.4200   22.2368 C   0  0  0  0  0  0  0  0  0  0  0  0
   11.6580    4.6676   22.4739 C   0  0  0  0  0  0  0  0  0  0  0  0
   11.9573    5.5667   23.4882 C   0  0  0  0  0  0  0  0  0  0  0  0
   13.1218    6.3097   23.4073 C   0  0  0  0  0  0  0  0  0  0  0  0
   13.9433    6.1288   22.3181 C   0  0  0  0  0  0  0  0  0  0  0  0
   13.6747    5.2720   21.3316 N   0  0  0  0  0  0  0  0  0  0  0  0
   12.5477    4.5586   21.4174 C   0  0  0  0  0  0  0  0  0  0  0  0
  1  2  1  0
  2  3  2  0
  2  4  1  0
  4  5  1  0
  5  6  2  0
  5  7  1  0
  7  8  1  0
  8  9  2  0
  9 10  1  0
 10 11  2  0
 11 12  1  0
 12 13  2  0
  4 14  1  0
 14 15  2  0
 15 16  1  0
 16 17  2  0
 17 18  1  0
 18 19  2  0
 13  8  1  0
 19 14  1  0
M  END
