CVD-0002880|dock_bobby27042020.18|mol2|22|dock2
     RDKit          3D

 20 21  0  0  0  0  0  0  0  0999 V2000
    7.2309   -0.2882   21.6927 C   0  0  0  0  0  0  0  0  0  0  0  0
    8.8530   -0.0170   21.0808 S   0  0  0  0  0  0  0  0  0  0  0  0
    9.0307    1.3906   20.9013 O   0  0  0  0  0  0  0  0  0  0  0  0
    9.0552   -0.8811   19.9593 O   0  0  0  0  0  0  0  0  0  0  0  0
    9.8972   -0.4871   22.2416 N   0  0  0  0  0  0  0  0  0  0  0  0
   11.0051   -1.4259   22.0116 C   0  0  0  0  0  0  0  0  0  0  0  0
   12.3091   -0.8481   22.4967 C   0  0  0  0  0  0  0  0  0  0  0  0
   12.1844   -0.4366   23.9063 N   0  0  0  0  0  0  0  0  0  0  0  0
   11.0770    0.4920   24.1409 C   0  0  0  0  0  0  0  0  0  0  0  0
    9.7891   -0.1115   23.6506 C   0  0  0  0  0  0  0  0  0  0  0  0
   11.3081    1.8348   23.4776 C   0  0  0  0  0  0  0  0  0  0  0  0
   12.5602    2.1778   22.9871 C   0  0  0  0  0  0  0  0  0  0  0  0
   12.7714    3.4059   22.3828 C   0  0  0  0  0  0  0  0  0  0  0  0
   11.7340    4.3056   22.2621 C   0  0  0  0  0  0  0  0  0  0  0  0
   10.4853    3.9784   22.7455 C   0  0  0  0  0  0  0  0  0  0  0  0
   10.2730    2.7507   23.3501 C   0  0  0  0  0  0  0  0  0  0  0  0
   12.9833   -0.8663   24.9119 C   0  0  0  0  0  0  0  0  0  0  0  0
   12.7868   -0.4459   26.0511 O   0  0  0  0  0  0  0  0  0  0  0  0
   14.0965   -1.8362   24.6981 C   0  0  0  0  0  0  0  0  0  0  0  0
   14.2373   -2.8670   25.4887 C   0  0  0  0  0  0  0  0  0  0  0  0
  1  2  1  0
  2  3  2  0
  2  4  2  0
  2  5  1  0
  5  6  1  0
  6  7  1  0
  7  8  1  0
  8  9  1  0
  9 10  1  0
  9 11  1  0
 11 12  2  0
 12 13  1  0
 13 14  2  0
 14 15  1  0
 15 16  2  0
  8 17  1  0
 17 18  2  0
 17 19  1  0
 19 20  2  0
 10  5  1  0
 16 11  1  0
M  END
