CVD-0000618|dock_bobby27042020.69|mol2|38|dock3
     RDKit          3D

 24 26  0  0  0  0  0  0  0  0999 V2000
    9.3238    0.2877   22.3367 O   0  0  0  0  0  0  0  0  0  0  0  0
    9.7774   -0.4681   21.4845 C   0  0  0  0  0  0  0  0  0  0  0  0
   11.0637   -1.2414   21.6981 C   0  0  0  0  0  0  0  0  0  0  0  0
   12.0011   -0.7653   22.8369 C   0  0  0  0  0  0  0  0  0  0  0  0
   11.2497   -1.0300   24.1391 C   0  0  0  0  0  0  0  0  0  0  0  0
   12.1334   -0.7644   25.3415 C   0  0  0  0  0  0  0  0  0  0  0  0
   13.4097   -1.5899   25.2855 C   0  0  0  0  0  0  0  0  0  0  0  0
   14.1597   -1.3417   23.9868 C   0  0  0  0  0  0  0  0  0  0  0  0
   13.2754   -1.5950   22.7725 C   0  0  0  0  0  0  0  0  0  0  0  0
   12.2124    0.6874   22.8091 C   0  0  0  0  0  0  0  0  0  0  0  0
   12.3756    1.8693   22.8483 C   0  0  0  0  0  0  0  0  0  0  0  0
   12.6473    3.2785   22.9093 C   0  0  0  0  0  0  0  0  0  0  0  0
   11.6476    4.1944   23.2167 C   0  0  0  0  0  0  0  0  0  0  0  0
   11.9531    5.5434   23.2648 C   0  0  0  0  0  0  0  0  0  0  0  0
   13.2462    5.9374   23.0047 C   0  0  0  0  0  0  0  0  0  0  0  0
   14.2270    5.0838   22.7070 N   0  0  0  0  0  0  0  0  0  0  0  0
   13.9208    3.7839   22.6634 C   0  0  0  0  0  0  0  0  0  0  0  0
    9.2110   -0.7080   20.2767 N   0  0  0  0  0  0  0  0  0  0  0  0
    8.0284   -0.2074   19.6769 C   0  0  0  0  0  0  0  0  0  0  0  0
    6.9564    0.1335   20.4915 C   0  0  0  0  0  0  0  0  0  0  0  0
    5.7933    0.6240   19.9247 C   0  0  0  0  0  0  0  0  0  0  0  0
    5.7343    0.7601   18.5573 C   0  0  0  0  0  0  0  0  0  0  0  0
    6.7449    0.4422   17.7482 N   0  0  0  0  0  0  0  0  0  0  0  0
    7.8643   -0.0308   18.3047 C   0  0  0  0  0  0  0  0  0  0  0  0
  1  2  2  0
  2  3  1  0
  3  4  1  0
  4  5  1  0
  5  6  1  0
  6  7  1  0
  7  8  1  0
  8  9  1  0
  4 10  1  0
 10 11  3  0
 11 12  1  0
 12 13  2  0
 13 14  1  0
 14 15  2  0
 15 16  1  0
 16 17  2  0
  2 18  1  0
 18 19  1  0
 19 20  2  0
 20 21  1  0
 21 22  2  0
 22 23  1  0
 23 24  2  0
  9  4  1  0
 17 12  1  0
 24 19  1  0
M  END
