CVD-0001119|dock_bobby27042020.53|mol2|39|dock1
     RDKit          3D

 28 31  0  0  0  0  0  0  0  0999 V2000
   11.7638    6.6687   25.0475 C   0  0  0  0  0  0  0  0  0  0  0  0
   12.7032    6.0218   24.0725 C   0  0  0  0  0  0  0  0  0  0  0  0
   13.4599    6.6801   23.3657 O   0  0  0  0  0  0  0  0  0  0  0  0
   12.6560    4.6898   24.0067 N   0  0  0  0  0  0  0  0  0  0  0  0
   13.4922    3.9186   23.0981 C   0  0  0  0  0  0  0  0  0  0  0  0
   12.7275    3.4968   21.8596 C   0  0  0  0  0  0  0  0  0  0  0  0
   11.9370    2.2801   22.0727 N   0  0  0  0  0  0  0  0  0  0  0  0
   10.5797    2.1955   21.9709 C   0  0  0  0  0  0  0  0  0  0  0  0
   10.1595    0.9251   22.1989 C   0  0  0  0  0  0  0  0  0  0  0  0
    8.7434    0.4328   22.1825 C   0  0  0  0  0  0  0  0  0  0  0  0
    7.8862    1.0202   21.0812 C   0  0  0  0  0  0  0  0  0  0  0  0
    8.3635    1.7795   20.2434 O   0  0  0  0  0  0  0  0  0  0  0  0
    6.5701    0.6545   21.1054 N   0  0  0  0  0  0  0  0  0  0  0  0
    5.5662    1.0642   20.2128 C   0  0  0  0  0  0  0  0  0  0  0  0
    5.5839    1.2203   18.8665 C   0  0  0  0  0  0  0  0  0  0  0  0
    4.3413    1.6436   18.4600 N   0  0  0  0  0  0  0  0  0  0  0  0
    3.5066    1.7666   19.5332 C   0  0  0  0  0  0  0  0  0  0  0  0
    2.2200    2.1538   19.5388 N   0  0  0  0  0  0  0  0  0  0  0  0
    1.6191    2.1912   20.7375 C   0  0  0  0  0  0  0  0  0  0  0  0
    2.2389    1.8619   21.9256 C   0  0  0  0  0  0  0  0  0  0  0  0
    3.5665    1.4641   21.9058 C   0  0  0  0  0  0  0  0  0  0  0  0
    4.2257    1.4122   20.6808 C   0  0  0  0  0  0  0  0  0  0  0  0
   11.3370    0.1470   22.4554 C   0  0  0  0  0  0  0  0  0  0  0  0
   11.5708   -1.1944   22.7525 C   0  0  0  0  0  0  0  0  0  0  0  0
   12.8678   -1.6429   22.9414 C   0  0  0  0  0  0  0  0  0  0  0  0
   13.9352   -0.7748   22.8385 C   0  0  0  0  0  0  0  0  0  0  0  0
   13.7363    0.5654   22.5477 C   0  0  0  0  0  0  0  0  0  0  0  0
   12.4347    1.0188   22.3611 C   0  0  0  0  0  0  0  0  0  0  0  0
  1  2  1  0
  2  3  2  0
  2  4  1  0
  4  5  1  0
  5  6  1  0
  6  7  1  0
  7  8  1  0
  8  9  2  0
  9 10  1  0
 10 11  1  0
 11 12  2  0
 11 13  1  0
 13 14  1  0
 14 15  2  0
 15 16  1  0
 16 17  1  0
 17 18  2  0
 18 19  1  0
 19 20  2  0
 20 21  1  0
 21 22  2  0
  9 23  1  0
 23 24  2  0
 24 25  1  0
 25 26  2  0
 26 27  1  0
 27 28  2  0
 28  7  1  0
 22 14  1  0
 28 23  1  0
 22 17  1  0
M  END
