CVD-0003121|dock_bobby27042020.32|mol2|4|dock2
     RDKit          3D

 17 19  0  0  0  0  0  0  0  0999 V2000
   14.2321   -2.7892   23.8873 C   0  0  0  0  0  0  0  0  0  0  0  0
   13.6673   -1.3874   23.8426 C   0  0  0  0  0  0  0  0  0  0  0  0
   13.2655   -0.9206   22.4681 C   0  0  0  0  0  0  0  0  0  0  0  0
   12.1995    0.1450   22.7639 C   0  0  0  0  0  0  0  0  0  0  0  0
   11.6644   -0.2752   24.1271 C   0  0  0  0  0  0  0  0  0  0  0  0
   12.4532   -1.3675   24.5852 O   0  0  0  0  0  0  0  0  0  0  0  0
   12.7577    1.5542   22.7915 C   0  0  0  0  0  0  0  0  0  0  0  0
   13.9602    1.7353   22.8005 O   0  0  0  0  0  0  0  0  0  0  0  0
   11.9035    2.5938   22.8016 N   0  0  0  0  0  0  0  0  0  0  0  0
   10.4409    2.4034   22.8070 C   0  0  0  0  0  0  0  0  0  0  0  0
    9.9496    3.8221   22.9102 C   0  0  0  0  0  0  0  0  0  0  0  0
    8.6697    4.3374   23.0734 C   0  0  0  0  0  0  0  0  0  0  0  0
    8.4723    5.7052   22.9977 C   0  0  0  0  0  0  0  0  0  0  0  0
    9.5668    6.5093   22.7607 C   0  0  0  0  0  0  0  0  0  0  0  0
   10.8125    6.0401   22.5994 N   0  0  0  0  0  0  0  0  0  0  0  0
   10.9789    4.7125   22.6769 C   0  0  0  0  0  0  0  0  0  0  0  0
   12.3044    4.0034   22.6846 C   0  0  0  0  0  0  0  0  0  0  0  0
  2  1  1  0
  2  3  1  0
  3  4  1  0
  4  5  1  0
  5  6  1  0
  4  7  1  0
  7  8  2  0
  7  9  1  0
  9 10  1  0
 10 11  1  0
 11 12  2  0
 12 13  1  0
 13 14  2  0
 14 15  1  0
 15 16  2  0
 16 17  1  0
  6  2  1  0
 17  9  1  0
 16 11  1  0
M  END
