CVD-0000058|dock_bobby27042020.28|mol2|33|dock3
     RDKit          3D

 19 20  0  0  0  0  0  0  0  0999 V2000
   13.7603   -2.6823   25.6020 C   0  0  0  0  0  0  0  0  0  0  0  0
   12.9832   -1.6811   24.7824 C   0  0  0  0  0  0  0  0  0  0  0  0
   12.9999   -0.3326   25.1033 C   0  0  0  0  0  0  0  0  0  0  0  0
   12.2886    0.5832   24.3465 C   0  0  0  0  0  0  0  0  0  0  0  0
   11.5506    0.1569   23.2557 C   0  0  0  0  0  0  0  0  0  0  0  0
   11.5175   -1.1852   22.9139 C   0  0  0  0  0  0  0  0  0  0  0  0
   10.7186   -1.6631   21.7224 C   0  0  0  0  0  0  0  0  0  0  0  0
    9.3356   -1.0451   21.6698 C   0  0  0  0  0  0  0  0  0  0  0  0
    8.7848   -0.6586   22.6953 O   0  0  0  0  0  0  0  0  0  0  0  0
    8.8290   -0.9724   20.4138 N   0  0  0  0  0  0  0  0  0  0  0  0
    7.5862   -0.4581   19.9490 C   0  0  0  0  0  0  0  0  0  0  0  0
    7.4600    0.2439   18.7487 C   0  0  0  0  0  0  0  0  0  0  0  0
    6.2176    0.7190   18.3694 C   0  0  0  0  0  0  0  0  0  0  0  0
    5.1433    0.4941   19.1943 C   0  0  0  0  0  0  0  0  0  0  0  0
    5.2249   -0.1685   20.3530 N   0  0  0  0  0  0  0  0  0  0  0  0
    6.4265   -0.6626   20.7355 C   0  0  0  0  0  0  0  0  0  0  0  0
    6.3794   -1.4044   22.0044 C   0  0  0  0  0  0  0  0  0  0  0  0
    6.7821   -2.6310   22.1615 C   0  0  0  0  0  0  0  0  0  0  0  0
   12.2388   -2.0875   23.6850 C   0  0  0  0  0  0  0  0  0  0  0  0
  1  2  1  0
  2  3  2  0
  3  4  1  0
  4  5  2  0
  5  6  1  0
  6  7  1  0
  7  8  1  0
  8  9  2  0
  8 10  1  0
 10 11  1  0
 11 12  2  0
 12 13  1  0
 13 14  2  0
 14 15  1  0
 15 16  2  0
 16 17  1  0
 17 18  2  0
  6 19  2  0
 19  2  1  0
 16 11  1  0
M  END
