CVD-0001498|dock_bobby27042020.38|mol2|2|dock3
     RDKit          3D

 24 25  0  0  0  0  0  0  0  0999 V2000
   12.7230    4.0545   22.6162 C   0  0  0  0  0  0  0  0  0  0  0  0
   12.3208    2.6351   23.0023 C   0  0  0  0  0  0  0  0  0  0  0  0
   13.5578    1.7884   23.2491 C   0  0  0  0  0  0  0  0  0  0  0  0
   13.1691    0.3521   23.5617 C   0  0  0  0  0  0  0  0  0  0  0  0
   14.3608   -0.4200   23.7362 O   0  0  0  0  0  0  0  0  0  0  0  0
   12.3168   -0.2424   22.4535 C   0  0  0  0  0  0  0  0  0  0  0  0
   11.0840    0.6136   22.2094 C   0  0  0  0  0  0  0  0  0  0  0  0
   11.4638    2.0495   21.8910 C   0  0  0  0  0  0  0  0  0  0  0  0
   10.3211    0.0358   21.1027 N   0  0  0  0  0  0  0  0  0  0  0  0
    9.0264    0.3420   20.8674 C   0  0  0  0  0  0  0  0  0  0  0  0
    8.3939    1.0753   21.6216 O   0  0  0  0  0  0  0  0  0  0  0  0
    8.5418   -0.2504   19.7268 N   0  0  0  0  0  0  0  0  0  0  0  0
    7.2578   -0.1911   19.1297 C   0  0  0  0  0  0  0  0  0  0  0  0
    6.6782   -1.2408   18.4210 C   0  0  0  0  0  0  0  0  0  0  0  0
    5.4656   -1.1675   17.8648 N   0  0  0  0  0  0  0  0  0  0  0  0
    4.7829   -0.0278   17.9997 C   0  0  0  0  0  0  0  0  0  0  0  0
    5.2535    1.0801   18.6776 C   0  0  0  0  0  0  0  0  0  0  0  0
    4.4425    2.3467   18.8063 C   0  0  0  0  0  0  0  0  0  0  0  0
    3.3186    2.2503   19.8309 C   0  0  0  0  0  0  0  0  0  0  0  0
    2.4641    3.5067   19.9303 C   0  0  0  0  0  0  0  0  0  0  0  0
    1.3848    3.6097   18.8805 C   0  0  0  0  0  0  0  0  0  0  0  0
    1.7513    4.1128   17.7124 N   0  0  0  0  0  0  0  0  0  0  0  0
    0.2282    3.2455   19.1115 O   0  0  0  0  0  0  0  0  0  0  0  0
    6.5151    0.9780   19.2473 C   0  0  0  0  0  0  0  0  0  0  0  0
  1  2  1  0
  2  3  1  0
  3  4  1  0
  4  5  1  0
  4  6  1  0
  6  7  1  0
  7  8  1  0
  7  9  1  0
  9 10  1  0
 10 11  2  0
 10 12  1  0
 12 13  1  0
 13 14  2  0
 14 15  1  0
 15 16  2  0
 16 17  1  0
 17 18  1  0
 18 19  1  0
 19 20  1  0
 20 21  1  0
 21 22  1  0
 21 23  2  0
 17 24  2  0
  8  2  1  0
 24 13  1  0
M  END
