CVD-0002127|dock_bobby27042020.7|mol2|18|dock2
     RDKit          3D

 28 30  0  0  0  0  0  0  0  0999 V2000
    2.5590    2.8373   19.9557 C   0  0  0  0  0  0  0  0  0  0  0  0
    3.6801    2.0217   20.5146 C   0  0  0  0  0  0  0  0  0  0  0  0
    4.4196    1.1936   19.7181 N   0  0  0  0  0  0  0  0  0  0  0  0
    5.3862    0.5521   20.4538 C   0  0  0  0  0  0  0  0  0  0  0  0
    6.3115   -0.3859   19.8668 C   0  0  0  0  0  0  0  0  0  0  0  0
    6.3531   -1.5668   20.1258 O   0  0  0  0  0  0  0  0  0  0  0  0
    7.4415    0.2404   18.7023 S   0  0  0  0  0  0  0  0  0  0  0  0
    8.1045   -0.9903   17.9592 N   0  0  0  0  0  0  0  0  0  0  0  0
    6.6676    0.9660   17.7489 O   0  0  0  0  0  0  0  0  0  0  0  0
    8.4582    0.9024   19.4522 O   0  0  0  0  0  0  0  0  0  0  0  0
    5.2594    0.9935   21.7809 C   0  0  0  0  0  0  0  0  0  0  0  0
    6.0855    0.5757   22.9697 C   0  0  0  0  0  0  0  0  0  0  0  0
    7.1129   -0.4868   22.6991 C   0  0  0  0  0  0  0  0  0  0  0  0
    8.3890   -0.3216   22.2636 C   0  0  0  0  0  0  0  0  0  0  0  0
    9.1082   -1.5227   22.1045 C   0  0  0  0  0  0  0  0  0  0  0  0
   10.5403   -1.6222   21.6431 C   0  0  0  0  0  0  0  0  0  0  0  0
   11.5210   -1.3283   22.6904 N   0  0  0  0  0  0  0  0  0  0  0  0
   11.3048   -2.1843   23.8631 C   0  0  0  0  0  0  0  0  0  0  0  0
   12.2748   -1.8612   24.9824 C   0  0  0  0  0  0  0  0  0  0  0  0
   13.7313   -1.9585   24.5452 C   0  0  0  0  0  0  0  0  0  0  0  0
   14.6644   -1.5359   25.5434 O   0  0  0  0  0  0  0  0  0  0  0  0
   13.9060   -1.1428   23.2689 C   0  0  0  0  0  0  0  0  0  0  0  0
   12.8900   -1.5141   22.2016 C   0  0  0  0  0  0  0  0  0  0  0  0
    8.3387   -2.5959   22.4366 C   0  0  0  0  0  0  0  0  0  0  0  0
    6.7629   -2.1386   22.9263 S   0  0  0  0  0  0  0  0  0  0  0  0
    4.1766    1.9198   21.8069 C   0  0  0  0  0  0  0  0  0  0  0  0
    3.6819    2.6283   22.9690 C   0  0  0  0  0  0  0  0  0  0  0  0
    4.0786    2.4947   24.1098 O   0  0  0  0  0  0  0  0  0  0  0  0
  1  2  1  0
  2  3  1  0
  3  4  1  0
  4  5  1  0
  5  6  2  0
  5  7  1  0
  7  8  1  0
  7  9  2  0
  7 10  2  0
  4 11  2  0
 11 12  1  0
 12 13  1  0
 13 14  2  0
 14 15  1  0
 15 16  1  0
 16 17  1  0
 17 18  1  0
 18 19  1  0
 19 20  1  0
 20 21  1  0
 20 22  1  0
 22 23  1  0
 15 24  2  0
 24 25  1  0
 11 26  1  0
 26 27  1  0
 27 28  2  0
 26  2  2  0
 25 13  1  0
 23 17  1  0
M  END
