CVD-0000773|dock_bobby27042020.97|mol2|29|dock3
     RDKit          3D

 21 23  0  0  0  0  0  0  0  0999 V2000
    7.7663   -4.4974   25.1294 F   0  0  0  0  0  0  0  0  0  0  0  0
    8.2685   -3.2348   25.0619 C   0  0  0  0  0  0  0  0  0  0  0  0
    8.3788   -2.5121   26.2182 C   0  0  0  0  0  0  0  0  0  0  0  0
    8.8916   -1.2288   26.1338 C   0  0  0  0  0  0  0  0  0  0  0  0
    9.2753   -0.7109   24.9079 C   0  0  0  0  0  0  0  0  0  0  0  0
    9.1541   -1.4633   23.7477 C   0  0  0  0  0  0  0  0  0  0  0  0
    8.6403   -2.7488   23.8326 C   0  0  0  0  0  0  0  0  0  0  0  0
    9.5780   -0.8868   22.4037 C   0  0  0  0  0  0  0  0  0  0  0  0
   10.9056   -1.4467   22.0154 C   0  0  0  0  0  0  0  0  0  0  0  0
   11.9717   -0.9810   22.9366 N   0  0  0  0  0  0  0  0  0  0  0  0
   12.0328    0.4635   23.2356 C   0  0  0  0  0  0  0  0  0  0  0  0
   10.8077    1.2715   22.7975 C   0  0  0  0  0  0  0  0  0  0  0  0
   10.8544    2.6618   22.8141 C   0  0  0  0  0  0  0  0  0  0  0  0
    9.7531    3.4171   22.4551 C   0  0  0  0  0  0  0  0  0  0  0  0
    8.5904    2.7850   22.0747 C   0  0  0  0  0  0  0  0  0  0  0  0
    8.5376    1.4026   22.0561 C   0  0  0  0  0  0  0  0  0  0  0  0
    9.6369    0.6196   22.4144 C   0  0  0  0  0  0  0  0  0  0  0  0
   12.8428   -1.8278   23.5326 C   0  0  0  0  0  0  0  0  0  0  0  0
   12.8028   -3.0355   23.3332 O   0  0  0  0  0  0  0  0  0  0  0  0
   13.8816   -1.2465   24.4745 C   0  0  0  0  0  0  0  0  0  0  0  0
   15.0279   -2.4771   25.0222 Cl  0  0  0  0  0  0  0  0  0  0  0  0
  1  2  1  0
  2  3  2  0
  3  4  1  0
  4  5  2  0
  5  6  1  0
  6  7  2  0
  8  6  1  0
  8  9  1  0
  9 10  1  0
 10 11  1  0
 11 12  1  0
 12 13  2  0
 13 14  1  0
 14 15  2  0
 15 16  1  0
 16 17  2  0
 10 18  1  0
 18 19  2  0
 18 20  1  0
 20 21  1  0
  7  2  1  0
 17  8  1  0
 17 12  1  0
M  END
