CVD-0001468|dock_bobby27042020.95|mol2|15|dock3
     RDKit          3D

 22 23  0  0  0  0  0  0  0  0999 V2000
    7.3235   -1.4112   23.8666 C   0  0  0  0  0  0  0  0  0  0  0  0
    7.6746   -1.3608   22.4483 N   0  0  0  0  0  0  0  0  0  0  0  0
    9.0708   -1.7635   22.2538 C   0  0  0  0  0  0  0  0  0  0  0  0
   10.0778   -0.6461   22.4722 C   0  0  0  0  0  0  0  0  0  0  0  0
   11.4019   -1.1704   22.8188 N   0  0  0  0  0  0  0  0  0  0  0  0
   12.1839   -1.6908   21.7094 C   0  0  0  0  0  0  0  0  0  0  0  0
   11.9444   -1.1485   24.0502 C   0  0  0  0  0  0  0  0  0  0  0  0
   11.3484   -0.6256   24.9905 O   0  0  0  0  0  0  0  0  0  0  0  0
   13.2823   -1.7675   24.2654 C   0  0  0  0  0  0  0  0  0  0  0  0
   13.5228   -2.5025   25.3187 C   0  0  0  0  0  0  0  0  0  0  0  0
    6.7395   -2.1735   21.6633 C   0  0  0  0  0  0  0  0  0  0  0  0
    6.3866   -1.5819   20.3147 C   0  0  0  0  0  0  0  0  0  0  0  0
    6.0204   -2.2686   19.2340 C   0  0  0  0  0  0  0  0  0  0  0  0
    5.9511   -1.3632   18.1468 N   0  0  0  0  0  0  0  0  0  0  0  0
    6.3901    0.0075   18.5739 C   0  0  0  0  0  0  0  0  0  0  0  0
    5.5720    1.0730   18.1230 C   0  0  0  0  0  0  0  0  0  0  0  0
    4.7114    1.6031   19.0250 C   0  0  0  0  0  0  0  0  0  0  0  0
    4.9076    1.4657   20.3663 C   0  0  0  0  0  0  0  0  0  0  0  0
    5.9328    0.7632   20.8722 C   0  0  0  0  0  0  0  0  0  0  0  0
    6.6284   -0.1147   20.0161 C   0  0  0  0  0  0  0  0  0  0  0  0
    4.1724    2.3181   21.2597 C   0  0  0  0  0  0  0  0  0  0  0  0
    3.5839    2.9703   21.9930 N   0  0  0  0  0  0  0  0  0  0  0  0
  1  2  1  0
  2  3  1  0
  3  4  1  0
  4  5  1  0
  5  6  1  0
  5  7  1  0
  7  8  2  0
  7  9  1  0
  9 10  2  0
  2 11  1  0
 11 12  1  0
 12 13  2  0
 13 14  1  0
 14 15  1  0
 15 16  1  0
 16 17  2  0
 17 18  1  0
 18 19  2  0
 19 20  1  0
 18 21  1  0
 21 22  3  0
 20 12  1  0
 20 15  1  0
M  END
