CVD-0003511|dock_bobby27042020.1|mol2|44|dock1
     RDKit          3D

 22 23  0  0  0  0  0  0  0  0999 V2000
    5.2885   -2.7631   22.3796 C   0  0  0  0  0  0  0  0  0  0  0  0
    6.1082   -1.9840   23.3793 C   0  0  0  0  0  0  0  0  0  0  0  0
    5.4982   -1.2852   24.4094 C   0  0  0  0  0  0  0  0  0  0  0  0
    6.2535   -0.5693   25.3227 C   0  0  0  0  0  0  0  0  0  0  0  0
    7.6332   -0.5443   25.2133 C   0  0  0  0  0  0  0  0  0  0  0  0
    8.2668   -1.2323   24.1913 C   0  0  0  0  0  0  0  0  0  0  0  0
    9.7710   -1.2150   24.0626 C   0  0  0  0  0  0  0  0  0  0  0  0
   10.2204   -0.7709   22.7371 N   0  0  0  0  0  0  0  0  0  0  0  0
    9.7283    0.5576   22.3607 C   0  0  0  0  0  0  0  0  0  0  0  0
   10.3951    1.6245   23.2089 C   0  0  0  0  0  0  0  0  0  0  0  0
   11.8506    1.5625   23.0578 N   0  0  0  0  0  0  0  0  0  0  0  0
   12.3682    0.2265   23.3697 C   0  0  0  0  0  0  0  0  0  0  0  0
   11.6649   -0.8214   22.5265 C   0  0  0  0  0  0  0  0  0  0  0  0
   12.2265   -2.2389   22.6950 C   0  0  0  0  0  0  0  0  0  0  0  0
   13.5994   -2.4300   22.0840 C   0  0  0  0  0  0  0  0  0  0  0  0
   13.6488   -2.4590   20.7615 N   0  0  0  0  0  0  0  0  0  0  0  0
   14.6060   -2.5588   22.7870 O   0  0  0  0  0  0  0  0  0  0  0  0
   12.6570    2.5881   22.7020 C   0  0  0  0  0  0  0  0  0  0  0  0
   13.8671    2.4295   22.6008 O   0  0  0  0  0  0  0  0  0  0  0  0
   12.0344    3.9456   22.4369 C   0  0  0  0  0  0  0  0  0  0  0  0
   13.2776    5.1578   22.1025 Cl  0  0  0  0  0  0  0  0  0  0  0  0
    7.4914   -1.9453   23.2861 C   0  0  0  0  0  0  0  0  0  0  0  0
  1  2  1  0
  2  3  2  0
  3  4  1  0
  4  5  2  0
  5  6  1  0
  6  7  1  0
  7  8  1  0
  8  9  1  0
  9 10  1  0
 10 11  1  0
 11 12  1  0
 12 13  1  0
 13 14  1  0
 14 15  1  0
 15 16  1  0
 15 17  2  0
 11 18  1  0
 18 19  2  0
 18 20  1  0
 20 21  1  0
  6 22  2  0
 22  2  1  0
 13  8  1  0
M  END
