CVD-0001737|dock_bobby27042020.80|mol2|14|dock3
     RDKit          3D

 21 22  0  0  0  0  0  0  0  0999 V2000
    7.0602   -1.2045   25.0671 C   0  0  0  0  0  0  0  0  0  0  0  0
    6.7805   -0.3100   23.9001 C   0  0  0  0  0  0  0  0  0  0  0  0
    7.0910   -0.9659   22.6406 N   0  0  0  0  0  0  0  0  0  0  0  0
    6.9096   -0.3712   21.4482 C   0  0  0  0  0  0  0  0  0  0  0  0
    5.6948    0.1899   21.2929 N   0  0  0  0  0  0  0  0  0  0  0  0
    5.4028    0.7357   20.1101 C   0  0  0  0  0  0  0  0  0  0  0  0
    6.2954    0.7831   19.0484 C   0  0  0  0  0  0  0  0  0  0  0  0
    7.5678    0.2478   19.2187 C   0  0  0  0  0  0  0  0  0  0  0  0
    7.9030   -0.3400   20.4396 C   0  0  0  0  0  0  0  0  0  0  0  0
    9.1883   -0.8915   20.6995 N   0  0  0  0  0  0  0  0  0  0  0  0
    9.8962   -0.9376   21.8801 C   0  0  0  0  0  0  0  0  0  0  0  0
    9.5026   -0.4821   22.9490 O   0  0  0  0  0  0  0  0  0  0  0  0
   11.1126   -1.5585   21.7086 N   0  0  0  0  0  0  0  0  0  0  0  0
   12.1531   -1.8196   22.6357 C   0  0  0  0  0  0  0  0  0  0  0  0
   11.9591   -2.0436   23.9956 C   0  0  0  0  0  0  0  0  0  0  0  0
   13.0550   -2.2888   24.8050 C   0  0  0  0  0  0  0  0  0  0  0  0
   14.3089   -2.3042   24.2392 C   0  0  0  0  0  0  0  0  0  0  0  0
   14.5264   -2.0935   22.9414 N   0  0  0  0  0  0  0  0  0  0  0  0
   13.4621   -1.8577   22.1689 C   0  0  0  0  0  0  0  0  0  0  0  0
    5.9166    1.3778   17.7904 C   0  0  0  0  0  0  0  0  0  0  0  0
    5.6350    1.8755   16.8016 N   0  0  0  0  0  0  0  0  0  0  0  0
  1  2  1  0
  2  3  1  0
  3  4  1  0
  4  5  2  0
  5  6  1  0
  6  7  2  0
  7  8  1  0
  8  9  2  0
  9 10  1  0
 10 11  1  0
 11 12  2  0
 11 13  1  0
 13 14  1  0
 14 15  2  0
 15 16  1  0
 16 17  2  0
 17 18  1  0
 18 19  2  0
  7 20  1  0
 20 21  3  0
  9  4  1  0
 19 14  1  0
M  END
