CVD-0003939|dock_bobby27042020.29|mol2|18|dock3
     RDKit          3D

 28 31  0  0  0  0  0  0  0  0999 V2000
    5.4964   -2.4406   22.5422 O   0  0  0  0  0  0  0  0  0  0  0  0
    6.3847   -2.4968   21.4238 S   0  0  0  0  0  0  0  0  0  0  0  0
    6.4632   -3.6916   20.6434 O   0  0  0  0  0  0  0  0  0  0  0  0
    7.8751   -2.1806   21.9743 N   0  0  0  0  0  0  0  0  0  0  0  0
    8.0227   -1.9412   23.4206 C   0  0  0  0  0  0  0  0  0  0  0  0
    9.4841   -1.9947   23.7885 C   0  0  0  0  0  0  0  0  0  0  0  0
   10.2513   -0.9905   23.0446 N   0  0  0  0  0  0  0  0  0  0  0  0
   10.1079   -1.2942   21.6153 C   0  0  0  0  0  0  0  0  0  0  0  0
    8.6580   -1.2069   21.2001 C   0  0  0  0  0  0  0  0  0  0  0  0
   11.6585   -1.0152   23.4351 C   0  0  0  0  0  0  0  0  0  0  0  0
   11.9034   -1.2550   24.9243 C   0  0  0  0  0  0  0  0  0  0  0  0
   13.3859   -1.2195   25.2514 C   0  0  0  0  0  0  0  0  0  0  0  0
   14.1674   -2.2045   24.4065 C   0  0  0  0  0  0  0  0  0  0  0  0
   13.9339   -1.9610   22.9246 C   0  0  0  0  0  0  0  0  0  0  0  0
   12.4521   -2.0013   22.5844 C   0  0  0  0  0  0  0  0  0  0  0  0
   12.0468    0.3728   23.1054 C   0  0  0  0  0  0  0  0  0  0  0  0
   12.2907    1.5334   22.9702 C   0  0  0  0  0  0  0  0  0  0  0  0
   12.6004    2.9368   22.8960 C   0  0  0  0  0  0  0  0  0  0  0  0
   11.6519    3.8846   23.2670 C   0  0  0  0  0  0  0  0  0  0  0  0
   11.9941    5.2226   23.1792 C   0  0  0  0  0  0  0  0  0  0  0  0
   13.2484    5.5768   22.7326 C   0  0  0  0  0  0  0  0  0  0  0  0
   14.1240    4.5726   22.3867 C   0  0  0  0  0  0  0  0  0  0  0  0
   13.8301    3.2672   22.4578 N   0  0  0  0  0  0  0  0  0  0  0  0
    5.9371   -1.2057   20.3454 C   0  0  0  0  0  0  0  0  0  0  0  0
    5.8077   -1.3247   18.9199 C   0  0  0  0  0  0  0  0  0  0  0  0
    5.4371   -0.1558   18.3142 C   0  0  0  0  0  0  0  0  0  0  0  0
    5.2404    1.0945   19.4494 S   0  0  0  0  0  0  0  0  0  0  0  0
    5.6511    0.0473   20.7175 C   0  0  0  0  0  0  0  0  0  0  0  0
  1  2  2  0
  2  3  2  0
  2  4  1  0
  4  5  1  0
  5  6  1  0
  6  7  1  0
  7  8  1  0
  8  9  1  0
  7 10  1  0
 10 11  1  0
 11 12  1  0
 12 13  1  0
 13 14  1  0
 14 15  1  0
 10 16  1  0
 16 17  3  0
 17 18  1  0
 18 19  2  0
 19 20  1  0
 20 21  2  0
 21 22  1  0
 22 23  2  0
  2 24  1  0
 24 25  1  0
 25 26  2  0
 26 27  1  0
 27 28  1  0
  9  4  1  0
 15 10  1  0
 23 18  1  0
 28 24  2  0
M  END
