CVD-0000160|dock_bobby27042020.85|mol2|20|dock2
     RDKit          3D

 24 25  0  0  0  0  0  0  0  0999 V2000
   13.6160   -0.5437   24.0770 C   0  0  0  0  0  0  0  0  0  0  0  0
   13.6729   -2.0736   23.2267 S   0  0  0  0  0  0  0  0  0  0  0  0
   14.4327   -2.9925   24.0168 O   0  0  0  0  0  0  0  0  0  0  0  0
   14.0921   -1.8194   21.8831 O   0  0  0  0  0  0  0  0  0  0  0  0
   12.1764   -2.6441   23.1519 N   0  0  0  0  0  0  0  0  0  0  0  0
   11.1806   -1.9626   22.3161 C   0  0  0  0  0  0  0  0  0  0  0  0
   10.0040   -1.4987   23.1556 C   0  0  0  0  0  0  0  0  0  0  0  0
    9.0842   -2.6363   23.5458 C   0  0  0  0  0  0  0  0  0  0  0  0
    9.3720   -3.2867   24.7405 C   0  0  0  0  0  0  0  0  0  0  0  0
    8.5941   -4.3479   25.1861 C   0  0  0  0  0  0  0  0  0  0  0  0
    7.5082   -4.7561   24.4253 C   0  0  0  0  0  0  0  0  0  0  0  0
    7.2006   -4.1145   23.2390 C   0  0  0  0  0  0  0  0  0  0  0  0
    7.9824   -3.0520   22.7720 C   0  0  0  0  0  0  0  0  0  0  0  0
    7.7185   -2.3647   21.5514 N   0  0  0  0  0  0  0  0  0  0  0  0
    6.5191   -2.0056   20.9805 C   0  0  0  0  0  0  0  0  0  0  0  0
    5.4344   -2.1765   21.5213 O   0  0  0  0  0  0  0  0  0  0  0  0
    6.5414   -1.4309   19.7391 N   0  0  0  0  0  0  0  0  0  0  0  0
    7.7398   -0.7980   19.1759 C   0  0  0  0  0  0  0  0  0  0  0  0
    7.3777    0.5410   18.5663 C   0  0  0  0  0  0  0  0  0  0  0  0
    6.3560    0.4209   17.5971 O   0  0  0  0  0  0  0  0  0  0  0  0
    5.1788   -0.1294   18.1889 C   0  0  0  0  0  0  0  0  0  0  0  0
    5.4455   -1.5013   18.7676 C   0  0  0  0  0  0  0  0  0  0  0  0
    8.9156   -5.0129   26.4246 C   0  0  0  0  0  0  0  0  0  0  0  0
    9.1862   -5.5634   27.3882 N   0  0  0  0  0  0  0  0  0  0  0  0
  1  2  1  0
  2  3  2  0
  2  4  2  0
  2  5  1  0
  5  6  1  0
  6  7  1  0
  7  8  1  0
  8  9  2  0
  9 10  1  0
 10 11  2  0
 11 12  1  0
 12 13  2  0
 13 14  1  0
 14 15  1  0
 15 16  2  0
 15 17  1  0
 17 18  1  0
 18 19  1  0
 19 20  1  0
 20 21  1  0
 21 22  1  0
 10 23  1  0
 23 24  3  0
 13  8  1  0
 22 17  1  0
M  END
