CVD-0004008|dock_bobby27042020.14|mol2|40|dock3
     RDKit          3D

 24 25  0  0  0  0  0  0  0  0999 V2000
    5.9870    0.7982   19.5897 C   0  0  0  0  0  0  0  0  0  0  0  0
    6.9205   -0.1895   18.8856 C   0  0  0  0  0  0  0  0  0  0  0  0
    6.1073   -1.2013   18.0763 C   0  0  0  0  0  0  0  0  0  0  0  0
    7.7432   -0.9110   19.8646 N   0  0  0  0  0  0  0  0  0  0  0  0
    7.2933   -1.3691   21.0513 C   0  0  0  0  0  0  0  0  0  0  0  0
    6.1538   -1.1317   21.4414 O   0  0  0  0  0  0  0  0  0  0  0  0
    8.2105   -2.1754   21.9301 C   0  0  0  0  0  0  0  0  0  0  0  0
    9.4318   -1.5611   22.2194 C   0  0  0  0  0  0  0  0  0  0  0  0
   10.4290   -2.1951   22.9592 C   0  0  0  0  0  0  0  0  0  0  0  0
   10.1775   -3.4795   23.4290 C   0  0  0  0  0  0  0  0  0  0  0  0
    8.9626   -4.0939   23.1952 C   0  0  0  0  0  0  0  0  0  0  0  0
    7.9689   -3.4465   22.4817 C   0  0  0  0  0  0  0  0  0  0  0  0
    6.4379   -4.3330   22.3538 S   0  0  0  0  0  0  0  0  0  0  0  0
    6.7667   -5.8890   22.1702 N   0  0  0  0  0  0  0  0  0  0  0  0
    5.7894   -3.8914   21.1557 O   0  0  0  0  0  0  0  0  0  0  0  0
    5.7562   -4.1876   23.6049 O   0  0  0  0  0  0  0  0  0  0  0  0
   11.6457   -1.5814   23.2305 N   0  0  0  0  0  0  0  0  0  0  0  0
   12.4488   -0.8943   22.2171 C   0  0  0  0  0  0  0  0  0  0  0  0
   13.9178   -1.1575   22.4416 C   0  0  0  0  0  0  0  0  0  0  0  0
   14.3097   -0.8297   23.7611 O   0  0  0  0  0  0  0  0  0  0  0  0
   13.5944   -1.6321   24.6932 C   0  0  0  0  0  0  0  0  0  0  0  0
   12.1091   -1.3429   24.5918 C   0  0  0  0  0  0  0  0  0  0  0  0
    7.7897    0.5600   17.9399 C   0  0  0  0  0  0  0  0  0  0  0  0
    8.3990    1.1657   17.1937 N   0  0  0  0  0  0  0  0  0  0  0  0
  1  2  1  0
  2  3  1  0
  2  4  1  0
  4  5  1  0
  5  6  2  0
  5  7  1  0
  7  8  2  0
  8  9  1  0
  9 10  2  0
 10 11  1  0
 11 12  2  0
 12 13  1  0
 13 14  1  0
 13 15  2  0
 13 16  2  0
  9 17  1  0
 17 18  1  0
 18 19  1  0
 19 20  1  0
 20 21  1  0
 21 22  1  0
  2 23  1  0
 23 24  3  0
 12  7  1  0
 22 17  1  0
M  END
