CVD-0003424|dock_bobby27042020.45|mol2|22|dock3
     RDKit          3D

 17 18  0  0  0  0  0  0  0  0999 V2000
    8.9089   -0.6785   17.6421 F   0  0  0  0  0  0  0  0  0  0  0  0
    7.8898   -0.1957   18.3690 C   0  0  0  0  0  0  0  0  0  0  0  0
    6.9227    0.3046   17.6470 N   0  0  0  0  0  0  0  0  0  0  0  0
    5.8883    0.7960   18.3366 C   0  0  0  0  0  0  0  0  0  0  0  0
    5.8275    0.7853   19.7099 C   0  0  0  0  0  0  0  0  0  0  0  0
    6.8809    0.2425   20.4278 C   0  0  0  0  0  0  0  0  0  0  0  0
    7.9798   -0.2811   19.7436 C   0  0  0  0  0  0  0  0  0  0  0  0
    9.1123   -0.8605   20.3724 N   0  0  0  0  0  0  0  0  0  0  0  0
    9.5222   -0.8157   21.6637 C   0  0  0  0  0  0  0  0  0  0  0  0
    8.9422   -0.2266   22.5694 O   0  0  0  0  0  0  0  0  0  0  0  0
   10.8047   -1.5860   21.9003 C   0  0  0  0  0  0  0  0  0  0  0  0
   11.3773   -1.5109   23.3215 C   0  0  0  0  0  0  0  0  0  0  0  0
   11.9044   -0.0957   23.6359 C   0  0  0  0  0  0  0  0  0  0  0  0
   12.5471   -0.0070   25.0188 C   0  0  0  0  0  0  0  0  0  0  0  0
   13.6378   -1.0561   25.1918 C   0  0  0  0  0  0  0  0  0  0  0  0
   13.1050   -2.4538   24.9115 C   0  0  0  0  0  0  0  0  0  0  0  0
   12.5004   -2.5440   23.5141 C   0  0  0  0  0  0  0  0  0  0  0  0
  1  2  1  0
  2  3  2  0
  3  4  1  0
  4  5  2  0
  5  6  1  0
  6  7  2  0
  7  8  1  0
  8  9  1  0
  9 10  2  0
  9 11  1  0
 11 12  1  0
 12 13  1  0
 13 14  1  0
 14 15  1  0
 15 16  1  0
 16 17  1  0
  7  2  1  0
 17 12  1  0
M  END
