CVD-0002025|dock_bobby27042020.93|mol2|16|dock1
     RDKit          3D

 34 38  0  0  0  0  0  0  0  0999 V2000
   11.3523    7.3730   25.6607 C   0  0  0  0  0  0  0  0  0  0  0  0
   11.6960    6.6106   24.4617 N   0  0  0  0  0  0  0  0  0  0  0  0
   10.5202    5.8988   23.9522 C   0  0  0  0  0  0  0  0  0  0  0  0
   10.8726    5.1422   22.6849 C   0  0  0  0  0  0  0  0  0  0  0  0
   11.9643    4.1996   22.9386 N   0  0  0  0  0  0  0  0  0  0  0  0
   13.1366    4.8729   23.5060 C   0  0  0  0  0  0  0  0  0  0  0  0
   12.7491    5.6422   24.7558 C   0  0  0  0  0  0  0  0  0  0  0  0
   11.8785    2.8859   22.6469 C   0  0  0  0  0  0  0  0  0  0  0  0
   10.8776    2.3998   22.1355 O   0  0  0  0  0  0  0  0  0  0  0  0
   13.0771    2.0176   22.9850 C   0  0  0  0  0  0  0  0  0  0  0  0
   12.9058    0.5790   22.5985 C   0  0  0  0  0  0  0  0  0  0  0  0
   13.7987   -0.2079   21.9328 C   0  0  0  0  0  0  0  0  0  0  0  0
   13.2923   -1.4684   21.7583 N   0  0  0  0  0  0  0  0  0  0  0  0
   12.0476   -1.5210   22.3145 C   0  0  0  0  0  0  0  0  0  0  0  0
   11.2182   -2.5737   22.3562 N   0  0  0  0  0  0  0  0  0  0  0  0
   10.0371   -2.3766   22.9639 C   0  0  0  0  0  0  0  0  0  0  0  0
    9.6538   -1.1669   23.5316 C   0  0  0  0  0  0  0  0  0  0  0  0
   10.5300   -0.0985   23.4737 C   0  0  0  0  0  0  0  0  0  0  0  0
   11.7668   -0.2535   22.8539 C   0  0  0  0  0  0  0  0  0  0  0  0
    9.0940   -3.5467   23.0199 C   0  0  0  0  0  0  0  0  0  0  0  0
    9.4009   -4.5861   23.5960 O   0  0  0  0  0  0  0  0  0  0  0  0
    7.9208   -3.3750   22.4085 N   0  0  0  0  0  0  0  0  0  0  0  0
    6.9039   -4.4164   22.3769 C   0  0  0  0  0  0  0  0  0  0  0  0
    6.3985   -4.7551   23.7650 C   0  0  0  0  0  0  0  0  0  0  0  0
    5.3789   -5.8563   23.7654 C   0  0  0  0  0  0  0  0  0  0  0  0
    4.9533   -6.5923   22.6992 C   0  0  0  0  0  0  0  0  0  0  0  0
    4.0138   -7.5047   23.0954 N   0  0  0  0  0  0  0  0  0  0  0  0
    3.8103   -7.3741   24.4473 C   0  0  0  0  0  0  0  0  0  0  0  0
    2.9676   -8.0596   25.3151 C   0  0  0  0  0  0  0  0  0  0  0  0
    2.9630   -7.7170   26.6559 C   0  0  0  0  0  0  0  0  0  0  0  0
    3.7907   -6.7121   27.0833 C   0  0  0  0  0  0  0  0  0  0  0  0
    3.7764   -6.3855   28.4038 F   0  0  0  0  0  0  0  0  0  0  0  0
    4.6375   -6.0114   26.2575 C   0  0  0  0  0  0  0  0  0  0  0  0
    4.6542   -6.3442   24.9039 C   0  0  0  0  0  0  0  0  0  0  0  0
  1  2  1  0
  2  3  1  0
  3  4  1  0
  4  5  1  0
  5  6  1  0
  6  7  1  0
  5  8  1  0
  8  9  2  0
  8 10  1  0
 10 11  1  0
 11 12  2  0
 12 13  1  0
 13 14  1  0
 14 15  2  0
 15 16  1  0
 16 17  2  0
 17 18  1  0
 18 19  2  0
 16 20  1  0
 20 21  2  0
 20 22  1  0
 22 23  1  0
 23 24  1  0
 24 25  1  0
 25 26  2  0
 26 27  1  0
 27 28  1  0
 28 29  2  0
 29 30  1  0
 30 31  2  0
 31 32  1  0
 31 33  1  0
 33 34  2  0
  7  2  1  0
 19 11  1  0
 34 25  1  0
 19 14  1  0
 34 28  1  0
M  END
