CVD-0003349|dock_bobby27042020.16|mol2|46|dock2
     RDKit          3D

 25 27  0  0  0  0  0  0  0  0999 V2000
    9.7011   -0.4923   21.2714 C   0  0  0  0  0  0  0  0  0  0  0  0
    9.6153   -1.7507   22.0826 C   0  0  0  0  0  0  0  0  0  0  0  0
    8.6290   -2.4613   21.9237 O   0  0  0  0  0  0  0  0  0  0  0  0
   10.5912   -2.2187   23.0030 N   0  0  0  0  0  0  0  0  0  0  0  0
   10.7068   -3.3670   23.8938 C   0  0  0  0  0  0  0  0  0  0  0  0
   11.8452   -3.6004   24.2678 O   0  0  0  0  0  0  0  0  0  0  0  0
    9.7094   -4.1951   24.3261 N   0  0  0  0  0  0  0  0  0  0  0  0
    8.2734   -3.9621   24.3195 C   0  0  0  0  0  0  0  0  0  0  0  0
    7.6349   -4.2847   25.6657 C   0  0  0  0  0  0  0  0  0  0  0  0
    8.0118   -5.6358   26.1069 N   0  0  0  0  0  0  0  0  0  0  0  0
    9.4901   -5.7495   26.1933 C   0  0  0  0  0  0  0  0  0  0  0  0
   10.0737   -5.5305   24.8226 C   0  0  0  0  0  0  0  0  0  0  0  0
    7.2300   -6.2885   27.0494 C   0  0  0  0  0  0  0  0  0  0  0  0
    5.9778   -6.7900   26.7077 C   0  0  0  0  0  0  0  0  0  0  0  0
    5.2004   -7.4443   27.6488 C   0  0  0  0  0  0  0  0  0  0  0  0
    5.6562   -7.6093   28.9373 C   0  0  0  0  0  0  0  0  0  0  0  0
    6.8925   -7.1158   29.2889 C   0  0  0  0  0  0  0  0  0  0  0  0
    7.6761   -6.4567   28.3566 C   0  0  0  0  0  0  0  0  0  0  0  0
   11.6973   -1.2927   23.0967 C   0  0  0  0  0  0  0  0  0  0  0  0
   12.7737   -1.3781   22.2258 C   0  0  0  0  0  0  0  0  0  0  0  0
   13.8173   -0.5445   22.2768 N   0  0  0  0  0  0  0  0  0  0  0  0
   13.7996    0.4014   23.2160 C   0  0  0  0  0  0  0  0  0  0  0  0
   12.7711    0.5584   24.1225 C   0  0  0  0  0  0  0  0  0  0  0  0
   11.6795   -0.3036   24.0760 C   0  0  0  0  0  0  0  0  0  0  0  0
   10.5443   -0.1583   25.0547 C   0  0  0  0  0  0  0  0  0  0  0  0
  1  2  1  0
  2  3  2  0
  2  4  1  0
  4  5  1  0
  5  6  2  0
  5  7  1  0
  7  8  1  0
  8  9  1  0
  9 10  1  0
 10 11  1  0
 11 12  1  0
 10 13  1  0
 13 14  2  0
 14 15  1  0
 15 16  2  0
 16 17  1  0
 17 18  2  0
  4 19  1  0
 19 20  2  0
 20 21  1  0
 21 22  2  0
 22 23  1  0
 23 24  2  0
 24 25  1  0
 12  7  1  0
 18 13  1  0
 24 19  1  0
M  END
