CVD-0002332|dock_bobby27042020.92|mol2|2|dock3
     RDKit          3D

 27 29  0  0  0  0  0  0  0  0999 V2000
    2.1719    2.0646   21.2999 C   0  0  0  0  0  0  0  0  0  0  0  0
    3.2568    1.5742   20.4772 O   0  0  0  0  0  0  0  0  0  0  0  0
    4.2371    0.9461   21.1238 C   0  0  0  0  0  0  0  0  0  0  0  0
    4.1761    0.6178   22.2969 O   0  0  0  0  0  0  0  0  0  0  0  0
    5.4322    0.6793   20.2650 C   0  0  0  0  0  0  0  0  0  0  0  0
    5.4957    1.1512   18.9583 C   0  0  0  0  0  0  0  0  0  0  0  0
    6.6094    0.8957   18.1760 C   0  0  0  0  0  0  0  0  0  0  0  0
    7.6712    0.1677   18.6866 C   0  0  0  0  0  0  0  0  0  0  0  0
    7.6185   -0.3089   19.9911 C   0  0  0  0  0  0  0  0  0  0  0  0
    8.7063   -1.0616   20.5320 N   0  0  0  0  0  0  0  0  0  0  0  0
    8.7729   -1.6753   22.0374 S   0  0  0  0  0  0  0  0  0  0  0  0
    8.4494   -0.6082   22.9300 O   0  0  0  0  0  0  0  0  0  0  0  0
    7.9893   -2.8695   22.0285 O   0  0  0  0  0  0  0  0  0  0  0  0
   10.3003   -2.1214   22.3769 N   0  0  0  0  0  0  0  0  0  0  0  0
   11.3986   -1.2310   22.5863 C   0  0  0  0  0  0  0  0  0  0  0  0
   12.6602   -1.7331   22.8705 C   0  0  0  0  0  0  0  0  0  0  0  0
   13.7096   -0.8571   23.0727 C   0  0  0  0  0  0  0  0  0  0  0  0
   13.5087    0.5102   22.9954 C   0  0  0  0  0  0  0  0  0  0  0  0
   12.2484    1.0282   22.7066 C   0  0  0  0  0  0  0  0  0  0  0  0
   11.1905    0.1416   22.5021 C   0  0  0  0  0  0  0  0  0  0  0  0
   12.0098    2.4463   22.6147 N   0  0  0  0  0  0  0  0  0  0  0  0
   13.0683    3.3746   22.2099 C   0  0  0  0  0  0  0  0  0  0  0  0
   12.4005    4.7277   22.2059 C   0  0  0  0  0  0  0  0  0  0  0  0
   11.0285    4.5487   22.8053 C   0  0  0  0  0  0  0  0  0  0  0  0
   10.8428    3.0715   22.9831 C   0  0  0  0  0  0  0  0  0  0  0  0
    9.8554    2.4712   23.3858 O   0  0  0  0  0  0  0  0  0  0  0  0
    6.4994   -0.0511   20.7746 C   0  0  0  0  0  0  0  0  0  0  0  0
  1  2  1  0
  2  3  1  0
  3  4  2  0
  3  5  1  0
  5  6  2  0
  6  7  1  0
  7  8  2  0
  8  9  1  0
  9 10  1  0
 10 11  1  0
 11 12  2  0
 11 13  2  0
 11 14  1  0
 14 15  1  0
 15 16  2  0
 16 17  1  0
 17 18  2  0
 18 19  1  0
 19 20  2  0
 19 21  1  0
 21 22  1  0
 22 23  1  0
 23 24  1  0
 24 25  1  0
 25 26  2  0
  9 27  2  0
 27  5  1  0
 20 15  1  0
 25 21  1  0
M  END
