CVD-0002218|dock_bobby27042020.92|mol2|19|dock1
     RDKit          3D

 12 12  0  0  0  0  0  0  0  0999 V2000
   13.7656    4.6178   21.7980 C   0  0  0  0  0  0  0  0  0  0  0  0
   12.8893    3.3939   21.6639 C   0  0  0  0  0  0  0  0  0  0  0  0
   11.7984    3.3354   22.7205 C   0  0  0  0  0  0  0  0  0  0  0  0
   10.9860    2.0537   22.7031 C   0  0  0  0  0  0  0  0  0  0  0  0
   10.1356    2.1368   21.5857 O   0  0  0  0  0  0  0  0  0  0  0  0
   11.8272    0.8501   22.6676 N   0  0  0  0  0  0  0  0  0  0  0  0
   12.5044    0.5898   23.9405 C   0  0  0  0  0  0  0  0  0  0  0  0
   13.5193   -0.5227   23.8016 C   0  0  0  0  0  0  0  0  0  0  0  0
   12.8861   -1.7977   23.2866 C   0  0  0  0  0  0  0  0  0  0  0  0
   13.8288   -2.8549   23.0891 O   0  0  0  0  0  0  0  0  0  0  0  0
   12.1395   -1.4775   21.9974 C   0  0  0  0  0  0  0  0  0  0  0  0
   11.1456   -0.3493   22.1975 C   0  0  0  0  0  0  0  0  0  0  0  0
  1  2  1  0
  2  3  1  0
  3  4  1  0
  4  5  1  0
  4  6  1  0
  6  7  1  0
  7  8  1  0
  8  9  1  0
  9 10  1  0
  9 11  1  0
 11 12  1  0
 12  6  1  0
M  END
