CVD-0000036|dock_bobby27042020.28|mol2|37|dock3
     RDKit          3D

 18 19  0  0  0  0  0  0  0  0999 V2000
    5.9266    1.4461   16.7281 O   0  0  0  0  0  0  0  0  0  0  0  0
    6.1123    1.0372   18.0165 C   0  0  0  0  0  0  0  0  0  0  0  0
    5.0742    1.1489   18.9289 C   0  0  0  0  0  0  0  0  0  0  0  0
    5.2781    0.7294   20.2268 C   0  0  0  0  0  0  0  0  0  0  0  0
    3.9764    0.8630   21.3757 Cl  0  0  0  0  0  0  0  0  0  0  0  0
    6.4868    0.2065   20.6385 C   0  0  0  0  0  0  0  0  0  0  0  0
    7.5160    0.1068   19.7159 C   0  0  0  0  0  0  0  0  0  0  0  0
    8.7441   -0.4310   20.1597 O   0  0  0  0  0  0  0  0  0  0  0  0
    9.3741   -0.0253   21.3119 C   0  0  0  0  0  0  0  0  0  0  0  0
    8.9271    0.7632   22.1173 O   0  0  0  0  0  0  0  0  0  0  0  0
   10.5628   -0.6810   21.3578 N   0  0  0  0  0  0  0  0  0  0  0  0
   11.5928   -0.6348   22.3300 C   0  0  0  0  0  0  0  0  0  0  0  0
   12.7416   -1.3888   22.1289 C   0  0  0  0  0  0  0  0  0  0  0  0
   13.7565   -1.3548   23.0690 C   0  0  0  0  0  0  0  0  0  0  0  0
   13.5940   -0.5670   24.1847 C   0  0  0  0  0  0  0  0  0  0  0  0
   12.5042    0.1679   24.4066 N   0  0  0  0  0  0  0  0  0  0  0  0
   11.5290    0.1289   23.4932 C   0  0  0  0  0  0  0  0  0  0  0  0
    7.3378    0.5130   18.4011 C   0  0  0  0  0  0  0  0  0  0  0  0
  1  2  1  0
  2  3  2  0
  3  4  1  0
  4  5  1  0
  4  6  2  0
  6  7  1  0
  7  8  1  0
  8  9  1  0
  9 10  2  0
  9 11  1  0
 11 12  1  0
 12 13  2  0
 13 14  1  0
 14 15  2  0
 15 16  1  0
 16 17  2  0
  7 18  2  0
 18  2  1  0
 17 12  1  0
M  END
