CVD-0003087|dock_bobby27042020.3|mol2|18|dock3
     RDKit          3D

 23 24  0  0  0  0  0  0  0  0999 V2000
    4.2596    1.4735   20.7724 C   0  0  0  0  0  0  0  0  0  0  0  0
    4.9859    1.1258   19.4983 C   0  0  0  0  0  0  0  0  0  0  0  0
    4.7720    1.9193   18.3751 C   0  0  0  0  0  0  0  0  0  0  0  0
    5.4240    1.6281   17.1980 C   0  0  0  0  0  0  0  0  0  0  0  0
    6.2672    0.6079   17.0684 N   0  0  0  0  0  0  0  0  0  0  0  0
    6.4816   -0.1608   18.1406 C   0  0  0  0  0  0  0  0  0  0  0  0
    5.8766    0.0411   19.3816 C   0  0  0  0  0  0  0  0  0  0  0  0
    6.1036   -0.7753   20.5249 N   0  0  0  0  0  0  0  0  0  0  0  0
    7.1949   -1.4929   20.8890 C   0  0  0  0  0  0  0  0  0  0  0  0
    8.2466   -1.5744   20.2635 O   0  0  0  0  0  0  0  0  0  0  0  0
    7.0171   -2.2287   22.1945 C   0  0  0  0  0  0  0  0  0  0  0  0
    8.2828   -2.9638   22.6289 C   0  0  0  0  0  0  0  0  0  0  0  0
    9.2696   -2.0518   23.3233 C   0  0  0  0  0  0  0  0  0  0  0  0
   10.4975   -1.7958   22.7213 C   0  0  0  0  0  0  0  0  0  0  0  0
   11.4280   -0.9620   23.3230 C   0  0  0  0  0  0  0  0  0  0  0  0
   11.1583   -0.3639   24.5425 C   0  0  0  0  0  0  0  0  0  0  0  0
    9.9424   -0.6060   25.1545 C   0  0  0  0  0  0  0  0  0  0  0  0
    9.0195   -1.4380   24.5452 C   0  0  0  0  0  0  0  0  0  0  0  0
    7.3708   -1.7280   25.4341 Br  0  0  0  0  0  0  0  0  0  0  0  0
   12.9776   -0.6721   22.5242 S   0  0  0  0  0  0  0  0  0  0  0  0
   13.1746   -1.7774   21.3830 N   0  0  0  0  0  0  0  0  0  0  0  0
   14.0065   -0.8810   23.4982 O   0  0  0  0  0  0  0  0  0  0  0  0
   12.8908    0.5997   21.8715 O   0  0  0  0  0  0  0  0  0  0  0  0
  1  2  1  0
  2  3  2  0
  3  4  1  0
  4  5  2  0
  5  6  1  0
  6  7  2  0
  7  8  1  0
  8  9  1  0
  9 10  2  0
  9 11  1  0
 11 12  1  0
 12 13  1  0
 13 14  2  0
 14 15  1  0
 15 16  2  0
 16 17  1  0
 17 18  2  0
 18 19  1  0
 15 20  1  0
 20 21  1  0
 20 22  2  0
 20 23  2  0
  7  2  1  0
 18 13  1  0
M  END
