CVD-0000385|dock_bobby27042020.41|mol2|36|dock2
     RDKit          3D

 26 28  0  0  0  0  0  0  0  0999 V2000
   13.1203    6.5415   23.6195 C   0  0  0  0  0  0  0  0  0  0  0  0
   12.1530    5.7258   22.9175 N   0  0  0  0  0  0  0  0  0  0  0  0
   12.1885    4.3578   22.9056 C   0  0  0  0  0  0  0  0  0  0  0  0
   13.3723    3.6553   23.0883 C   0  0  0  0  0  0  0  0  0  0  0  0
   13.3852    2.3160   23.0749 N   0  0  0  0  0  0  0  0  0  0  0  0
   12.2172    1.6952   22.8777 C   0  0  0  0  0  0  0  0  0  0  0  0
   11.0396    2.3011   22.6932 N   0  0  0  0  0  0  0  0  0  0  0  0
   11.0525    3.6079   22.7116 C   0  0  0  0  0  0  0  0  0  0  0  0
    9.8808    4.2351   22.5288 F   0  0  0  0  0  0  0  0  0  0  0  0
   12.2794    0.2334   22.8703 C   0  0  0  0  0  0  0  0  0  0  0  0
   13.8243   -0.4505   22.4933 S   0  0  0  0  0  0  0  0  0  0  0  0
   13.2056   -2.0303   22.6561 C   0  0  0  0  0  0  0  0  0  0  0  0
   11.8870   -2.0358   22.9808 C   0  0  0  0  0  0  0  0  0  0  0  0
   11.3319   -0.7167   23.1086 C   0  0  0  0  0  0  0  0  0  0  0  0
    9.9035   -0.3993   23.4640 C   0  0  0  0  0  0  0  0  0  0  0  0
    9.4592   -0.9132   24.8412 C   0  0  0  0  0  0  0  0  0  0  0  0
    7.9423   -0.7330   24.8101 C   0  0  0  0  0  0  0  0  0  0  0  0
    7.5323   -0.9889   23.3647 C   0  0  0  0  0  0  0  0  0  0  0  0
    8.8406   -1.0074   22.5306 C   0  0  0  0  0  0  0  0  0  0  0  0
    8.7262   -0.2740   21.2030 C   0  0  0  0  0  0  0  0  0  0  0  0
    9.5177    0.6101   20.8854 O   0  0  0  0  0  0  0  0  0  0  0  0
    7.7104   -0.6182   20.3557 N   0  0  0  0  0  0  0  0  0  0  0  0
    7.3528   -0.1444   19.1080 C   0  0  0  0  0  0  0  0  0  0  0  0
    7.9562    0.7374   18.4798 O   0  0  0  0  0  0  0  0  0  0  0  0
    6.1433   -0.7956   18.5558 C   0  0  0  0  0  0  0  0  0  0  0  0
    5.3862   -0.2175   17.6614 C   0  0  0  0  0  0  0  0  0  0  0  0
  1  2  1  0
  2  3  1  0
  3  4  2  0
  4  5  1  0
  5  6  2  0
  6  7  1  0
  7  8  2  0
  8  9  1  0
  6 10  1  0
 10 11  1  0
 11 12  1  0
 12 13  2  0
 13 14  1  0
 15 14  1  0
 15 16  1  0
 16 17  1  0
 17 18  1  0
 18 19  1  0
 19 20  1  0
 20 21  2  0
 20 22  1  0
 22 23  1  0
 23 24  2  0
 23 25  1  0
 25 26  2  0
  8  3  1  0
 14 10  2  0
 19 15  1  0
M  END
