CVD-0001750|dock_bobby27042020.94|mol2|19|dock3
     RDKit          3D

 26 28  0  0  0  0  0  0  0  0999 V2000
    5.4524    1.5222   17.3325 C   0  0  0  0  0  0  0  0  0  0  0  0
    5.8031    1.3039   18.8006 C   0  0  0  0  0  0  0  0  0  0  0  0
    6.9162    0.2873   19.0238 C   0  0  0  0  0  0  0  0  0  0  0  0
    7.1508   -0.0109   20.4916 C   0  0  0  0  0  0  0  0  0  0  0  0
    5.9265   -0.4732   21.1563 N   0  0  0  0  0  0  0  0  0  0  0  0
    6.1859   -0.8016   22.5435 C   0  0  0  0  0  0  0  0  0  0  0  0
    7.4346   -1.5242   22.7668 N   0  0  0  0  0  0  0  0  0  0  0  0
    8.6386   -0.8692   23.0741 C   0  0  0  0  0  0  0  0  0  0  0  0
    8.6105    0.3254   23.3355 O   0  0  0  0  0  0  0  0  0  0  0  0
    9.8190   -1.5792   23.0927 N   0  0  0  0  0  0  0  0  0  0  0  0
   11.1441   -1.1583   23.3835 C   0  0  0  0  0  0  0  0  0  0  0  0
   12.1877   -1.8519   22.7833 C   0  0  0  0  0  0  0  0  0  0  0  0
   13.4976   -1.4854   23.0360 C   0  0  0  0  0  0  0  0  0  0  0  0
   13.7331   -0.4309   23.8859 C   0  0  0  0  0  0  0  0  0  0  0  0
   12.7577    0.2577   24.4773 N   0  0  0  0  0  0  0  0  0  0  0  0
   11.4952   -0.1011   24.2234 C   0  0  0  0  0  0  0  0  0  0  0  0
    7.2968   -2.9535   22.6289 C   0  0  0  0  0  0  0  0  0  0  0  0
    7.6766   -3.7906   23.6760 C   0  0  0  0  0  0  0  0  0  0  0  0
    7.5529   -5.1659   23.5671 C   0  0  0  0  0  0  0  0  0  0  0  0
    7.0416   -5.7359   22.4161 C   0  0  0  0  0  0  0  0  0  0  0  0
    6.6613   -4.9175   21.3609 C   0  0  0  0  0  0  0  0  0  0  0  0
    6.7979   -3.5352   21.4635 C   0  0  0  0  0  0  0  0  0  0  0  0
    6.1250   -5.4947   20.1529 C   0  0  0  0  0  0  0  0  0  0  0  0
    5.7312   -5.9544   19.1843 N   0  0  0  0  0  0  0  0  0  0  0  0
    4.8934    0.5595   21.0403 C   0  0  0  0  0  0  0  0  0  0  0  0
    4.5751    0.8524   19.5835 C   0  0  0  0  0  0  0  0  0  0  0  0
  1  2  1  0
  2  3  1  0
  3  4  1  0
  4  5  1  0
  5  6  1  0
  6  7  1  0
  7  8  1  0
  8  9  2  0
  8 10  1  0
 10 11  1  0
 11 12  2  0
 12 13  1  0
 13 14  2  0
 14 15  1  0
 15 16  2  0
  7 17  1  0
 17 18  2  0
 18 19  1  0
 19 20  2  0
 20 21  1  0
 21 22  2  0
 21 23  1  0
 23 24  3  0
  5 25  1  0
 25 26  1  0
 26  2  1  0
 16 11  1  0
 22 17  1  0
M  END
