CVD-0003765|dock_bobby27042020.29|mol2|43|dock1
     RDKit          3D

 23 26  0  0  0  0  0  0  0  0999 V2000
    7.5531   -0.4055   20.5390 C   0  0  0  0  0  0  0  0  0  0  0  0
    8.6013   -0.4648   21.6000 C   0  0  0  0  0  0  0  0  0  0  0  0
    8.3672   -0.2279   22.8746 N   0  0  0  0  0  0  0  0  0  0  0  0
    9.5150   -0.3658   23.6122 C   0  0  0  0  0  0  0  0  0  0  0  0
   10.6300   -0.7090   22.9221 C   0  0  0  0  0  0  0  0  0  0  0  0
   10.2477   -0.8771   21.2452 S   0  0  0  0  0  0  0  0  0  0  0  0
   12.0321   -0.9259   23.4930 C   0  0  0  0  0  0  0  0  0  0  0  0
   12.8046    0.1945   22.7571 C   0  0  0  0  0  0  0  0  0  0  0  0
   12.2582    1.5886   22.9040 C   0  0  0  0  0  0  0  0  0  0  0  0
   11.0177    1.9350   22.6126 N   0  0  0  0  0  0  0  0  0  0  0  0
   10.9614    3.2927   22.8899 C   0  0  0  0  0  0  0  0  0  0  0  0
    9.9214    4.2250   22.7878 C   0  0  0  0  0  0  0  0  0  0  0  0
    8.5512    3.8355   22.2994 C   0  0  0  0  0  0  0  0  0  0  0  0
   10.2130    5.5385   23.1547 C   0  0  0  0  0  0  0  0  0  0  0  0
   11.4825    5.8682   23.5969 C   0  0  0  0  0  0  0  0  0  0  0  0
   12.4894    4.9893   23.7025 N   0  0  0  0  0  0  0  0  0  0  0  0
   12.1892    3.7303   23.3433 C   0  0  0  0  0  0  0  0  0  0  0  0
   13.0031    2.6310   23.3437 N   0  0  0  0  0  0  0  0  0  0  0  0
   12.6632   -2.2726   23.1411 C   0  0  0  0  0  0  0  0  0  0  0  0
   14.0679   -2.3870   23.7062 C   0  0  0  0  0  0  0  0  0  0  0  0
   14.0883   -2.1516   25.2025 C   0  0  0  0  0  0  0  0  0  0  0  0
   13.4710   -0.8082   25.5541 C   0  0  0  0  0  0  0  0  0  0  0  0
   12.0605   -0.6853   24.9987 C   0  0  0  0  0  0  0  0  0  0  0  0
  1  2  1  0
  2  3  2  0
  3  4  1  0
  4  5  2  0
  5  6  1  0
  5  7  1  0
  7  8  1  0
  8  9  1  0
  9 10  2  0
 10 11  1  0
 11 12  2  0
 12 13  1  0
 12 14  1  0
 14 15  2  0
 15 16  1  0
 16 17  2  0
 17 18  1  0
  7 19  1  0
 19 20  1  0
 20 21  1  0
 21 22  1  0
 22 23  1  0
  6  2  1  0
 23  7  1  0
 18  9  1  0
 17 11  1  0
M  END
