CVD-0001851|dock_bobby27042020.37|mol2|2|dock1
     RDKit          3D

 18 19  0  0  0  0  0  0  0  0999 V2000
   14.4989    4.4113   22.9092 N   0  0  0  0  0  0  0  0  0  0  0  0
   13.2592    4.5305   22.7531 C   0  0  0  0  0  0  0  0  0  0  0  0
   12.7011    5.5127   22.0801 N   0  0  0  0  0  0  0  0  0  0  0  0
   12.3102    3.5457   23.3450 C   0  0  0  0  0  0  0  0  0  0  0  0
   12.4677    2.1188   22.8206 C   0  0  0  0  0  0  0  0  0  0  0  0
   11.3739    1.1245   23.2276 C   0  0  0  0  0  0  0  0  0  0  0  0
    9.9923    1.4552   22.6674 C   0  0  0  0  0  0  0  0  0  0  0  0
    9.2416    0.1296   22.8345 C   0  0  0  0  0  0  0  0  0  0  0  0
   10.2543   -0.9298   22.3953 C   0  0  0  0  0  0  0  0  0  0  0  0
   11.6843   -0.2909   22.7118 C   0  0  0  0  0  0  0  0  0  0  0  0
   12.6836   -1.0075   23.5912 C   0  0  0  0  0  0  0  0  0  0  0  0
   12.4719   -1.2559   24.9783 C   0  0  0  0  0  0  0  0  0  0  0  0
   13.4973   -1.9150   25.5871 C   0  0  0  0  0  0  0  0  0  0  0  0
   14.7299   -2.2353   24.4626 S   0  0  0  0  0  0  0  0  0  0  0  0
   13.8894   -1.4959   23.1832 C   0  0  0  0  0  0  0  0  0  0  0  0
    9.9392   -2.3099   22.9452 C   0  0  0  0  0  0  0  0  0  0  0  0
    8.8493   -2.8754   22.4514 N   0  0  0  0  0  0  0  0  0  0  0  0
   10.6409   -2.8764   23.7864 O   0  0  0  0  0  0  0  0  0  0  0  0
  1  2  1  0
  2  3  2  0
  2  4  1  0
  4  5  1  0
  6  5  1  0
  6  7  1  0
  7  8  1  0
  8  9  1  0
  9 10  1  0
 10 11  1  0
 11 12  1  0
 12 13  2  0
 13 14  1  0
 14 15  1  0
  9 16  1  0
 16 17  1  0
 16 18  2  0
 10  6  1  0
 15 11  2  0
M  END
