CVD-0000419|dock_bobby27042020.41|mol2|31|dock3
     RDKit          3D

 25 27  0  0  0  0  0  0  0  0999 V2000
   12.6321    6.0098   24.3624 C   0  0  0  0  0  0  0  0  0  0  0  0
   13.4369    5.2245   23.3528 C   0  0  0  0  0  0  0  0  0  0  0  0
   12.6067    4.8215   22.1477 C   0  0  0  0  0  0  0  0  0  0  0  0
   11.4616    3.9019   22.4848 C   0  0  0  0  0  0  0  0  0  0  0  0
   10.1203    4.1956   22.5805 C   0  0  0  0  0  0  0  0  0  0  0  0
    9.3189    5.6906   22.3473 Cl  0  0  0  0  0  0  0  0  0  0  0  0
    9.4111    3.0955   22.9119 N   0  0  0  0  0  0  0  0  0  0  0  0
   10.2759    2.0288   23.0385 C   0  0  0  0  0  0  0  0  0  0  0  0
   10.0360    0.6868   23.3617 C   0  0  0  0  0  0  0  0  0  0  0  0
    8.7299    0.3191   23.5607 O   0  0  0  0  0  0  0  0  0  0  0  0
    7.9543   -0.2800   22.4931 C   0  0  0  0  0  0  0  0  0  0  0  0
    8.2798    0.3105   21.1228 C   0  0  0  0  0  0  0  0  0  0  0  0
    7.3905   -0.2463   20.0295 C   0  0  0  0  0  0  0  0  0  0  0  0
    5.9755   -0.0979   20.3847 N   0  0  0  0  0  0  0  0  0  0  0  0
    5.6288   -0.7623   21.6359 C   0  0  0  0  0  0  0  0  0  0  0  0
    6.4578   -0.1779   22.7582 C   0  0  0  0  0  0  0  0  0  0  0  0
    5.0215    0.4909   19.6134 C   0  0  0  0  0  0  0  0  0  0  0  0
    5.3947    1.0640   18.2770 C   0  0  0  0  0  0  0  0  0  0  0  0
    3.8636    0.5675   20.0091 O   0  0  0  0  0  0  0  0  0  0  0  0
   11.0967   -0.1960   23.4667 C   0  0  0  0  0  0  0  0  0  0  0  0
   12.3615    0.2636   23.2075 C   0  0  0  0  0  0  0  0  0  0  0  0
   13.3974   -0.6014   23.2995 F   0  0  0  0  0  0  0  0  0  0  0  0
   12.6226    1.5743   22.8538 C   0  0  0  0  0  0  0  0  0  0  0  0
   14.2427    2.0512   22.5063 Cl  0  0  0  0  0  0  0  0  0  0  0  0
   11.5808    2.4920   22.7800 C   0  0  0  0  0  0  0  0  0  0  0  0
  1  2  1  0
  2  3  1  0
  3  4  1  0
  4  5  2  0
  5  6  1  0
  5  7  1  0
  7  8  1  0
  8  9  2  0
  9 10  1  0
 10 11  1  0
 11 12  1  0
 12 13  1  0
 13 14  1  0
 14 15  1  0
 15 16  1  0
 14 17  1  0
 17 18  1  0
 17 19  2  0
  9 20  1  0
 20 21  2  0
 21 22  1  0
 21 23  1  0
 23 24  1  0
 23 25  2  0
 25  4  1  0
 25  8  1  0
 16 11  1  0
M  END
