CVD-0003252|dock_bobby27042020.17|mol2|6|dock2
     RDKit          3D

 28 30  0  0  0  0  0  0  0  0999 V2000
   13.2942    6.2641   22.5819 F   0  0  0  0  0  0  0  0  0  0  0  0
   12.7464    5.0200   22.6333 C   0  0  0  0  0  0  0  0  0  0  0  0
   13.5814    3.9366   22.6370 C   0  0  0  0  0  0  0  0  0  0  0  0
   13.0243    2.6712   22.6896 C   0  0  0  0  0  0  0  0  0  0  0  0
   11.6467    2.5213   22.7410 C   0  0  0  0  0  0  0  0  0  0  0  0
   11.0594    1.2740   22.7952 O   0  0  0  0  0  0  0  0  0  0  0  0
   11.4028    0.3408   23.8079 C   0  0  0  0  0  0  0  0  0  0  0  0
   10.1944    0.0095   24.6443 C   0  0  0  0  0  0  0  0  0  0  0  0
    9.1922   -0.7194   23.8531 N   0  0  0  0  0  0  0  0  0  0  0  0
    9.7478   -1.9374   23.2649 C   0  0  0  0  0  0  0  0  0  0  0  0
   10.9399   -1.6174   22.4049 C   0  0  0  0  0  0  0  0  0  0  0  0
   11.9371   -0.8842   23.1870 N   0  0  0  0  0  0  0  0  0  0  0  0
   13.2325   -1.2160   23.3895 C   0  0  0  0  0  0  0  0  0  0  0  0
   13.9692   -0.5196   24.0768 O   0  0  0  0  0  0  0  0  0  0  0  0
   13.7526   -2.4794   22.7315 C   0  0  0  0  0  0  0  0  0  0  0  0
   13.7418   -2.3317   20.9693 Cl  0  0  0  0  0  0  0  0  0  0  0  0
    7.6210   -0.3248   23.6692 S   0  0  0  0  0  0  0  0  0  0  0  0
    6.8782   -1.2101   24.5114 O   0  0  0  0  0  0  0  0  0  0  0  0
    7.5324    1.0885   23.8673 O   0  0  0  0  0  0  0  0  0  0  0  0
    7.1893   -0.6699   21.9989 C   0  0  0  0  0  0  0  0  0  0  0  0
    7.9020   -0.0757   20.9701 C   0  0  0  0  0  0  0  0  0  0  0  0
    7.5578   -0.3446   19.6573 C   0  0  0  0  0  0  0  0  0  0  0  0
    6.5095   -1.1992   19.3954 C   0  0  0  0  0  0  0  0  0  0  0  0
    6.0787   -1.5365   17.7421 Cl  0  0  0  0  0  0  0  0  0  0  0  0
    5.7941   -1.7928   20.4123 C   0  0  0  0  0  0  0  0  0  0  0  0
    6.1352   -1.5266   21.7265 C   0  0  0  0  0  0  0  0  0  0  0  0
   10.8304    3.6395   22.7326 C   0  0  0  0  0  0  0  0  0  0  0  0
   11.3843    4.9060   22.6787 C   0  0  0  0  0  0  0  0  0  0  0  0
  1  2  1  0
  2  3  2  0
  3  4  1  0
  4  5  2  0
  5  6  1  0
  7  6  1  0
  7  8  1  0
  8  9  1  0
  9 10  1  0
 10 11  1  0
 11 12  1  0
 12 13  1  0
 13 14  2  0
 13 15  1  0
 15 16  1  0
  9 17  1  0
 17 18  2  0
 17 19  2  0
 17 20  1  0
 20 21  2  0
 21 22  1  0
 22 23  2  0
 23 24  1  0
 23 25  1  0
 25 26  2  0
  5 27  1  0
 27 28  2  0
 28  2  1  0
 12  7  1  0
 26 20  1  0
M  END
