CVD-0001840|dock_bobby27042020.94|mol2|6|dock1
     RDKit          3D

 20 20  0  0  0  0  0  0  0  0999 V2000
    8.3841   -3.8177   23.3655 C   0  0  0  0  0  0  0  0  0  0  0  0
    9.0329   -2.2181   23.8473 S   0  0  0  0  0  0  0  0  0  0  0  0
   10.5049   -2.1475   22.8986 C   0  0  0  0  0  0  0  0  0  0  0  0
   11.1754   -3.1163   22.6520 O   0  0  0  0  0  0  0  0  0  0  0  0
   10.8507   -0.7351   22.4014 C   0  0  0  0  0  0  0  0  0  0  0  0
   10.2290   -0.4546   21.1112 N   0  0  0  0  0  0  0  0  0  0  0  0
    8.7722   -0.4643   21.1849 C   0  0  0  0  0  0  0  0  0  0  0  0
    8.1403    0.5142   20.2195 C   0  0  0  0  0  0  0  0  0  0  0  0
    8.0171    1.6956   20.4627 O   0  0  0  0  0  0  0  0  0  0  0  0
    7.6715   -0.0853   18.9185 C   0  0  0  0  0  0  0  0  0  0  0  0
    6.2607   -0.6687   18.9596 C   0  0  0  0  0  0  0  0  0  0  0  0
    5.2073    0.3617   19.2885 C   0  0  0  0  0  0  0  0  0  0  0  0
    4.7709    1.2619   18.3285 C   0  0  0  0  0  0  0  0  0  0  0  0
    3.8058    2.2084   18.6302 C   0  0  0  0  0  0  0  0  0  0  0  0
    3.2655    2.2667   19.8967 C   0  0  0  0  0  0  0  0  0  0  0  0
    3.6905    1.3785   20.8610 C   0  0  0  0  0  0  0  0  0  0  0  0
    4.6555    0.4324   20.5584 C   0  0  0  0  0  0  0  0  0  0  0  0
   12.3806   -0.5993   22.3020 C   0  0  0  0  0  0  0  0  0  0  0  0
   13.0459   -0.4760   23.6565 C   0  0  0  0  0  0  0  0  0  0  0  0
   12.9116   -1.7385   21.6223 O   0  0  0  0  0  0  0  0  0  0  0  0
  1  2  1  0
  2  3  1  0
  3  4  2  0
  3  5  1  0
  5  6  1  0
  6  7  1  0
  7  8  1  0
  8  9  2  0
  8 10  1  0
 10 11  1  0
 11 12  1  0
 12 13  2  0
 13 14  1  0
 14 15  2  0
 15 16  1  0
 16 17  2  0
  5 18  1  0
 18 19  1  0
 18 20  1  0
 17 12  1  0
M  END
