CVD-0003436|dock_bobby27042020.73|mol2|43|dock1
     RDKit          3D

 20 21  0  0  0  0  0  0  0  0999 V2000
    4.0404    2.5438   19.4836 C   0  0  0  0  0  0  0  0  0  0  0  0
    4.8855    1.6640   20.2737 N   0  0  0  0  0  0  0  0  0  0  0  0
    4.6494    1.6989   21.7074 C   0  0  0  0  0  0  0  0  0  0  0  0
    5.7356    0.7507   19.6954 C   0  0  0  0  0  0  0  0  0  0  0  0
    5.4018    0.0985   18.5192 C   0  0  0  0  0  0  0  0  0  0  0  0
    6.2061   -0.7865   17.9256 N   0  0  0  0  0  0  0  0  0  0  0  0
    7.3684   -1.0508   18.4899 C   0  0  0  0  0  0  0  0  0  0  0  0
    8.3195   -2.2116   17.6165 Cl  0  0  0  0  0  0  0  0  0  0  0  0
    7.8356   -0.4748   19.6808 C   0  0  0  0  0  0  0  0  0  0  0  0
    9.1101   -0.8379   20.2018 N   0  0  0  0  0  0  0  0  0  0  0  0
    9.6733   -0.5532   21.4265 C   0  0  0  0  0  0  0  0  0  0  0  0
    9.1280    0.0981   22.3108 O   0  0  0  0  0  0  0  0  0  0  0  0
   10.9348   -1.0949   21.5343 N   0  0  0  0  0  0  0  0  0  0  0  0
   11.8740   -1.0582   22.5966 C   0  0  0  0  0  0  0  0  0  0  0  0
   12.7723   -2.1148   22.6961 C   0  0  0  0  0  0  0  0  0  0  0  0
   13.7170   -2.1455   23.7078 C   0  0  0  0  0  0  0  0  0  0  0  0
   13.7782   -1.1257   24.6312 C   0  0  0  0  0  0  0  0  0  0  0  0
   12.8942   -0.0730   24.5440 C   0  0  0  0  0  0  0  0  0  0  0  0
   11.9446   -0.0313   23.5362 C   0  0  0  0  0  0  0  0  0  0  0  0
    6.9665    0.4440   20.2728 C   0  0  0  0  0  0  0  0  0  0  0  0
  1  2  1  0
  2  3  1  0
  2  4  1  0
  4  5  2  0
  5  6  1  0
  6  7  2  0
  7  8  1  0
  7  9  1  0
  9 10  1  0
 10 11  1  0
 11 12  2  0
 11 13  1  0
 13 14  1  0
 14 15  2  0
 15 16  1  0
 16 17  2  0
 17 18  1  0
 18 19  2  0
  9 20  2  0
 20  4  1  0
 19 14  1  0
M  END
