CVD-0001910|dock_bobby27042020.79|mol2|29|dock3
     RDKit          3D

 31 33  0  0  0  0  0  0  0  0999 V2000
   13.7066    5.8608   22.5022 C   0  0  0  0  0  0  0  0  0  0  0  0
   12.4302    5.7770   23.1331 O   0  0  0  0  0  0  0  0  0  0  0  0
   11.5667    4.7583   22.8155 C   0  0  0  0  0  0  0  0  0  0  0  0
   12.0163    3.5131   22.4023 C   0  0  0  0  0  0  0  0  0  0  0  0
   11.1076    2.5157   22.0924 C   0  0  0  0  0  0  0  0  0  0  0  0
    9.7378    2.7443   22.1900 C   0  0  0  0  0  0  0  0  0  0  0  0
    8.7585    1.7652   21.8876 N   0  0  0  0  0  0  0  0  0  0  0  0
    7.5665    1.4824   22.4699 C   0  0  0  0  0  0  0  0  0  0  0  0
    7.0841    2.0665   23.4358 O   0  0  0  0  0  0  0  0  0  0  0  0
    6.8192    0.3223   21.7771 C   0  0  0  0  0  0  0  0  0  0  0  0
    7.5426   -0.9701   21.9315 N   0  0  0  0  0  0  0  0  0  0  0  0
    6.8883   -2.1638   21.6412 C   0  0  0  0  0  0  0  0  0  0  0  0
    5.7199   -2.1818   21.2576 O   0  0  0  0  0  0  0  0  0  0  0  0
    7.5576   -3.4884   21.7972 C   0  0  0  0  0  0  0  0  0  0  0  0
    6.9311   -4.5980   21.5062 C   0  0  0  0  0  0  0  0  0  0  0  0
    8.9112   -0.9325   22.3707 C   0  0  0  0  0  0  0  0  0  0  0  0
    9.2094   -0.4914   23.6551 C   0  0  0  0  0  0  0  0  0  0  0  0
   10.5156   -0.4262   24.1061 C   0  0  0  0  0  0  0  0  0  0  0  0
   11.5636   -0.8019   23.2802 C   0  0  0  0  0  0  0  0  0  0  0  0
   13.2288   -0.7198   23.8506 S   0  0  0  0  0  0  0  0  0  0  0  0
   13.9587   -2.2374   23.2398 C   0  0  0  0  0  0  0  0  0  0  0  0
   11.2770   -1.2576   22.0027 C   0  0  0  0  0  0  0  0  0  0  0  0
    9.9689   -1.3291   21.5572 C   0  0  0  0  0  0  0  0  0  0  0  0
    6.3764    0.5945   20.3409 C   0  0  0  0  0  0  0  0  0  0  0  0
    5.2438    1.3570   20.0967 C   0  0  0  0  0  0  0  0  0  0  0  0
    4.8429    1.6121   18.7971 C   0  0  0  0  0  0  0  0  0  0  0  0
    5.5930    1.0939   17.7667 C   0  0  0  0  0  0  0  0  0  0  0  0
    6.6859    0.3554   17.9620 N   0  0  0  0  0  0  0  0  0  0  0  0
    7.0511    0.1166   19.2253 C   0  0  0  0  0  0  0  0  0  0  0  0
    9.3031    3.9968   22.6049 C   0  0  0  0  0  0  0  0  0  0  0  0
   10.2077    4.9956   22.9153 C   0  0  0  0  0  0  0  0  0  0  0  0
  1  2  1  0
  2  3  1  0
  3  4  2  0
  4  5  1  0
  5  6  2  0
  6  7  1  0
  7  8  1  0
  8  9  2  0
  8 10  1  0
 10 11  1  0
 11 12  1  0
 12 13  2  0
 12 14  1  0
 14 15  2  0
 11 16  1  0
 16 17  2  0
 17 18  1  0
 18 19  2  0
 19 20  1  0
 20 21  1  0
 19 22  1  0
 22 23  2  0
 10 24  1  0
 24 25  2  0
 25 26  1  0
 26 27  2  0
 27 28  1  0
 28 29  2  0
  6 30  1  0
 30 31  2  0
 31  3  1  0
 23 16  1  0
 29 24  1  0
M  END
