CVD-0000842|dock_bobby27042020.40|mol2|17|dock1
     RDKit          3D

 20 22  0  0  0  0  0  0  0  0999 V2000
    8.3388    1.5035   20.5840 O   0  0  0  0  0  0  0  0  0  0  0  0
    7.9436    0.6560   21.3746 C   0  0  0  0  0  0  0  0  0  0  0  0
    8.6897    0.3681   22.6558 C   0  0  0  0  0  0  0  0  0  0  0  0
    9.3888   -0.9174   22.5870 N   0  0  0  0  0  0  0  0  0  0  0  0
    8.5755   -2.0575   23.0155 C   0  0  0  0  0  0  0  0  0  0  0  0
    7.3068   -2.2783   22.2137 C   0  0  0  0  0  0  0  0  0  0  0  0
    6.3860   -1.0782   22.1019 C   0  0  0  0  0  0  0  0  0  0  0  0
    6.8165   -0.0675   21.1299 N   0  0  0  0  0  0  0  0  0  0  0  0
    6.4706    0.5142   19.8561 C   0  0  0  0  0  0  0  0  0  0  0  0
    5.4309    1.4247   19.6969 C   0  0  0  0  0  0  0  0  0  0  0  0
    5.1445    1.9264   18.4395 C   0  0  0  0  0  0  0  0  0  0  0  0
    5.9181    1.5234   17.3774 C   0  0  0  0  0  0  0  0  0  0  0  0
    6.9345    0.6714   17.5023 N   0  0  0  0  0  0  0  0  0  0  0  0
    7.1908    0.1783   18.7180 C   0  0  0  0  0  0  0  0  0  0  0  0
   10.7999   -0.9273   22.7334 C   0  0  0  0  0  0  0  0  0  0  0  0
   11.4233   -0.2725   23.7922 C   0  0  0  0  0  0  0  0  0  0  0  0
   12.8024   -0.2764   23.9165 C   0  0  0  0  0  0  0  0  0  0  0  0
   13.5832   -0.9429   23.0001 C   0  0  0  0  0  0  0  0  0  0  0  0
   12.9822   -1.6073   21.9554 C   0  0  0  0  0  0  0  0  0  0  0  0
   11.6040   -1.6020   21.8172 C   0  0  0  0  0  0  0  0  0  0  0  0
  1  2  2  0
  2  3  1  0
  3  4  1  0
  4  5  1  0
  5  6  1  0
  6  7  1  0
  7  8  1  0
  8  9  1  0
  9 10  2  0
 10 11  1  0
 11 12  2  0
 12 13  1  0
 13 14  2  0
  4 15  1  0
 15 16  2  0
 16 17  1  0
 17 18  2  0
 18 19  1  0
 19 20  2  0
  8  2  1  0
 14  9  1  0
 20 15  1  0
M  END
