CVD-0003209|dock_bobby27042020.31|mol2|34|dock1
     RDKit          3D

 22 24  0  0  0  0  0  0  0  0999 V2000
    9.0750   -5.0535   26.9862 C   0  0  0  0  0  0  0  0  0  0  0  0
    8.7892   -5.5813   25.6043 C   0  0  0  0  0  0  0  0  0  0  0  0
    8.8442   -4.5165   24.5261 C   0  0  0  0  0  0  0  0  0  0  0  0
    7.7035   -4.1109   23.8527 C   0  0  0  0  0  0  0  0  0  0  0  0
    7.6667   -3.1814   22.8883 N   0  0  0  0  0  0  0  0  0  0  0  0
    8.8464   -2.6194   22.5731 C   0  0  0  0  0  0  0  0  0  0  0  0
    9.0825   -1.6571   21.6357 N   0  0  0  0  0  0  0  0  0  0  0  0
   10.4213   -1.3669   21.6353 C   0  0  0  0  0  0  0  0  0  0  0  0
   11.0772   -2.1246   22.5609 C   0  0  0  0  0  0  0  0  0  0  0  0
   12.5436   -2.1171   22.8798 C   0  0  0  0  0  0  0  0  0  0  0  0
   12.8960   -1.1879   24.0243 C   0  0  0  0  0  0  0  0  0  0  0  0
   12.3988    0.1621   23.8005 N   0  0  0  0  0  0  0  0  0  0  0  0
   13.0320    1.0134   22.9882 C   0  0  0  0  0  0  0  0  0  0  0  0
   14.0582    0.6820   22.4021 O   0  0  0  0  0  0  0  0  0  0  0  0
   12.4861    2.3978   22.7842 C   0  0  0  0  0  0  0  0  0  0  0  0
   11.1224    2.6841   22.7829 C   0  0  0  0  0  0  0  0  0  0  0  0
   10.6755    3.9808   22.5890 C   0  0  0  0  0  0  0  0  0  0  0  0
   11.5743    5.0070   22.3950 C   0  0  0  0  0  0  0  0  0  0  0  0
   12.9256    4.7395   22.3942 C   0  0  0  0  0  0  0  0  0  0  0  0
   13.3794    3.4456   22.5872 C   0  0  0  0  0  0  0  0  0  0  0  0
   10.0725   -2.9409   23.1771 C   0  0  0  0  0  0  0  0  0  0  0  0
   10.0446   -3.9137   24.1720 C   0  0  0  0  0  0  0  0  0  0  0  0
  1  2  1  0
  2  3  1  0
  3  4  2  0
  4  5  1  0
  5  6  2  0
  6  7  1  0
  7  8  1  0
  8  9  2  0
  9 10  1  0
 10 11  1  0
 11 12  1  0
 12 13  1  0
 13 14  2  0
 13 15  1  0
 15 16  2  0
 16 17  1  0
 17 18  2  0
 18 19  1  0
 19 20  2  0
  9 21  1  0
 21 22  2  0
 22  3  1  0
 21  6  1  0
 20 15  1  0
M  END
