CVD-0003003|dock_bobby27042020.89|mol2|22|dock3
     RDKit          3D

 45 46  0  0  0  0  0  0  0  0999 V2000
    1.8232   -7.4044   23.5283 C   0  0  0  0  0  0  0  0  0  0  0  0
    2.7091   -6.7818   22.5119 C   0  0  0  0  0  0  0  0  0  0  0  0
    3.9571   -6.4114   23.1674 O   0  0  0  0  0  0  0  0  0  0  0  0
    4.9562   -6.0152   22.3659 C   0  0  0  0  0  0  0  0  0  0  0  0
    4.8351   -5.9176   21.1670 O   0  0  0  0  0  0  0  0  0  0  0  0
    6.2007   -5.7168   23.1042 C   0  0  0  0  0  0  0  0  0  0  0  0
    7.1707   -4.9485   22.6342 C   0  0  0  0  0  0  0  0  0  0  0  0
    8.4538   -4.6126   23.3413 C   0  0  0  0  0  0  0  0  0  0  0  0
    8.2331   -4.3358   24.8337 C   0  0  0  0  0  0  0  0  0  0  0  0
    8.4427   -5.5070   25.8056 C   0  0  0  0  0  0  0  0  0  0  0  0
    7.3952   -5.6054   26.9325 C   0  0  0  0  0  0  0  0  0  0  0  0
    8.1768   -5.9879   28.1826 C   0  0  0  0  0  0  0  0  0  0  0  0
    9.5410   -5.6363   27.8370 N   0  0  0  0  0  0  0  0  0  0  0  0
    9.7567   -5.4197   26.5370 C   0  0  0  0  0  0  0  0  0  0  0  0
   10.8444   -5.1538   26.0327 O   0  0  0  0  0  0  0  0  0  0  0  0
    9.1017   -3.4641   22.7117 N   0  0  0  0  0  0  0  0  0  0  0  0
   10.3421   -3.0771   23.0238 C   0  0  0  0  0  0  0  0  0  0  0  0
   11.0266   -3.6601   23.8604 O   0  0  0  0  0  0  0  0  0  0  0  0
   10.8975   -1.8532   22.2990 C   0  0  0  0  0  0  0  0  0  0  0  0
   12.3242   -1.5403   22.7569 C   0  0  0  0  0  0  0  0  0  0  0  0
   13.1534   -0.6599   21.8263 C   0  0  0  0  0  0  0  0  0  0  0  0
   14.1569    0.1516   22.6271 C   0  0  0  0  0  0  0  0  0  0  0  0
   13.8772   -1.5188   20.8039 C   0  0  0  0  0  0  0  0  0  0  0  0
   10.0468   -0.6982   22.5349 N   0  0  0  0  0  0  0  0  0  0  0  0
    9.6116    0.0691   21.5315 C   0  0  0  0  0  0  0  0  0  0  0  0
    9.9078   -0.1358   20.3574 O   0  0  0  0  0  0  0  0  0  0  0  0
    8.7100    1.2379   21.9139 C   0  0  0  0  0  0  0  0  0  0  0  0
    9.4978    2.4565   22.0112 N   0  0  0  0  0  0  0  0  0  0  0  0
   10.6647    2.4727   22.6765 C   0  0  0  0  0  0  0  0  0  0  0  0
   11.1506    1.5133   23.2379 O   0  0  0  0  0  0  0  0  0  0  0  0
   11.2121    3.7043   22.6234 O   0  0  0  0  0  0  0  0  0  0  0  0
   12.6126    3.8388   22.9896 C   0  0  0  0  0  0  0  0  0  0  0  0
   12.9263    5.2720   23.3101 C   0  0  0  0  0  0  0  0  0  0  0  0
   12.5837    5.8136   24.5392 C   0  0  0  0  0  0  0  0  0  0  0  0
   12.8700    7.1362   24.8337 C   0  0  0  0  0  0  0  0  0  0  0  0
   13.5012    7.9318   23.9017 C   0  0  0  0  0  0  0  0  0  0  0  0
   13.8458    7.4054   22.6753 C   0  0  0  0  0  0  0  0  0  0  0  0
   13.5595    6.0827   22.3810 C   0  0  0  0  0  0  0  0  0  0  0  0
    7.5772    1.3979   20.8930 C   0  0  0  0  0  0  0  0  0  0  0  0
    6.4715    2.2699   21.4472 C   0  0  0  0  0  0  0  0  0  0  0  0
    7.1649    0.0555   20.6006 O   0  0  0  0  0  0  0  0  0  0  0  0
    6.6929   -0.3995   19.3011 C   0  0  0  0  0  0  0  0  0  0  0  0
    7.8875   -0.5556   18.3829 C   0  0  0  0  0  0  0  0  0  0  0  0
    6.0348   -1.7462   19.5192 C   0  0  0  0  0  0  0  0  0  0  0  0
    5.6837    0.5476   18.6843 C   0  0  0  0  0  0  0  0  0  0  0  0
  1  2  1  0
  2  3  1  0
  3  4  1  0
  4  5  2  0
  4  6  1  0
  6  7  2  0
  8  7  1  0
  8  9  1  0
 10  9  1  0
 10 11  1  0
 11 12  1  0
 12 13  1  0
 13 14  1  0
 14 15  2  0
  8 16  1  0
 16 17  1  0
 17 18  2  0
 17 19  1  0
 19 20  1  0
 20 21  1  0
 21 22  1  0
 21 23  1  0
 19 24  1  0
 24 25  1  0
 25 26  2  0
 25 27  1  0
 27 28  1  0
 28 29  1  0
 29 30  2  0
 29 31  1  0
 31 32  1  0
 32 33  1  0
 33 34  2  0
 34 35  1  0
 35 36  2  0
 36 37  1  0
 37 38  2  0
 27 39  1  0
 39 40  1  0
 39 41  1  0
 41 42  1  0
 42 43  1  0
 42 44  1  0
 42 45  1  0
 14 10  1  0
 38 33  1  0
M  END
