CVD-0001044|dock_bobby27042020.96|mol2|33|dock3
     RDKit          3D

 34 38  0  0  0  0  0  0  0  0999 V2000
   15.0281    5.8266   22.8020 O   0  0  0  0  0  0  0  0  0  0  0  0
   13.8330    5.9224   23.0737 N   0  0  0  0  0  0  0  0  0  0  0  0
   13.3091    6.9364   23.5028 O   0  0  0  0  0  0  0  0  0  0  0  0
   12.9821    4.7427   22.8690 C   0  0  0  0  0  0  0  0  0  0  0  0
   13.5644    3.5209   22.5865 C   0  0  0  0  0  0  0  0  0  0  0  0
   12.7675    2.4169   22.3523 C   0  0  0  0  0  0  0  0  0  0  0  0
   11.3794    2.5294   22.4020 C   0  0  0  0  0  0  0  0  0  0  0  0
   10.7890    3.7566   22.7773 C   0  0  0  0  0  0  0  0  0  0  0  0
   11.6063    4.8681   22.9647 C   0  0  0  0  0  0  0  0  0  0  0  0
    9.3600    3.9420   22.9971 N   0  0  0  0  0  0  0  0  0  0  0  0
    8.8251    5.0025   22.6824 O   0  0  0  0  0  0  0  0  0  0  0  0
    8.7202    3.0040   23.4420 O   0  0  0  0  0  0  0  0  0  0  0  0
   10.6335    1.3613   22.0336 N   0  0  0  0  0  0  0  0  0  0  0  0
    9.4781    1.5596   21.2958 N   0  0  0  0  0  0  0  0  0  0  0  0
    8.9993    0.3428   21.0190 C   0  0  0  0  0  0  0  0  0  0  0  0
    9.8391   -0.6336   21.5814 C   0  0  0  0  0  0  0  0  0  0  0  0
   10.8688    0.0210   22.2277 C   0  0  0  0  0  0  0  0  0  0  0  0
   11.9753   -0.6314   22.9627 C   0  0  0  0  0  0  0  0  0  0  0  0
   12.5475   -1.7802   22.4260 C   0  0  0  0  0  0  0  0  0  0  0  0
   13.5963   -2.4239   23.0579 C   0  0  0  0  0  0  0  0  0  0  0  0
   14.0621   -1.9051   24.2341 C   0  0  0  0  0  0  0  0  0  0  0  0
   15.1012   -2.5258   24.8553 F   0  0  0  0  0  0  0  0  0  0  0  0
   13.5246   -0.7881   24.8117 C   0  0  0  0  0  0  0  0  0  0  0  0
   12.4684   -0.1592   24.1764 C   0  0  0  0  0  0  0  0  0  0  0  0
    7.7557    0.1266   20.2289 C   0  0  0  0  0  0  0  0  0  0  0  0
    7.8024   -0.9610   19.3790 C   0  0  0  0  0  0  0  0  0  0  0  0
    6.7278   -1.2983   18.5770 C   0  0  0  0  0  0  0  0  0  0  0  0
    5.5822   -0.5702   18.5950 C   0  0  0  0  0  0  0  0  0  0  0  0
    5.4628    0.5558   19.4388 C   0  0  0  0  0  0  0  0  0  0  0  0
    4.2678    1.3138   19.4563 C   0  0  0  0  0  0  0  0  0  0  0  0
    4.1395    2.4003   20.2636 C   0  0  0  0  0  0  0  0  0  0  0  0
    5.1800    2.7784   21.0800 C   0  0  0  0  0  0  0  0  0  0  0  0
    6.3499    2.0789   21.0970 C   0  0  0  0  0  0  0  0  0  0  0  0
    6.5593    0.9289   20.2797 C   0  0  0  0  0  0  0  0  0  0  0  0
  1  2  1  0
  2  3  2  0
  2  4  1  0
  4  5  2  0
  5  6  1  0
  6  7  2  0
  7  8  1  0
  8  9  2  0
  8 10  1  0
 10 11  1  0
 10 12  2  0
  7 13  1  0
 13 14  1  0
 14 15  2  0
 15 16  1  0
 16 17  2  0
 17 18  1  0
 18 19  2  0
 19 20  1  0
 20 21  2  0
 21 22  1  0
 21 23  1  0
 23 24  2  0
 15 25  1  0
 25 26  2  0
 26 27  1  0
 27 28  2  0
 28 29  1  0
 29 30  2  0
 30 31  1  0
 31 32  2  0
 32 33  1  0
 33 34  2  0
  9  4  1  0
 17 13  1  0
 24 18  1  0
 34 25  1  0
 34 29  1  0
M  CHG  4   1  -1   2   1  10   1  11  -1
M  END
