CVD-0000917|dock_bobby27042020.54|mol2|22|dock2
     RDKit          3D

 34 38  0  0  0  0  0  0  0  0999 V2000
    6.1801    0.0536   17.8785 O   0  0  0  0  0  0  0  0  0  0  0  0
    6.2933   -0.2147   19.2115 C   0  0  0  0  0  0  0  0  0  0  0  0
    5.5344   -1.2213   19.7835 C   0  0  0  0  0  0  0  0  0  0  0  0
    5.6930   -1.5195   21.1238 C   0  0  0  0  0  0  0  0  0  0  0  0
    6.6041   -0.8278   21.9193 C   0  0  0  0  0  0  0  0  0  0  0  0
    6.7988   -1.1824   23.4011 C   0  0  0  0  0  0  0  0  0  0  0  0
    7.5253   -2.5286   23.6346 C   0  0  0  0  0  0  0  0  0  0  0  0
    8.1267   -3.1571   22.3679 C   0  0  0  0  0  0  0  0  0  0  0  0
    7.4628   -4.8359   22.3474 S   0  0  0  0  0  0  0  0  0  0  0  0
    8.3125   -5.7114   23.1085 O   0  0  0  0  0  0  0  0  0  0  0  0
    7.1079   -5.2398   21.0139 O   0  0  0  0  0  0  0  0  0  0  0  0
    5.9862   -4.4157   23.2651 C   0  0  0  0  0  0  0  0  0  0  0  0
    6.5688   -3.4920   24.3290 C   0  0  0  0  0  0  0  0  0  0  0  0
    5.5714   -2.8835   25.2356 N   0  0  0  0  0  0  0  0  0  0  0  0
    4.2934   -2.3775   24.6841 C   0  0  0  0  0  0  0  0  0  0  0  0
    3.8495   -1.3173   25.6950 C   0  0  0  0  0  0  0  0  0  0  0  0
    4.4135   -1.8532   27.0072 C   0  0  0  0  0  0  0  0  0  0  0  0
    5.6398   -2.6310   26.5796 C   0  0  0  0  0  0  0  0  0  0  0  0
    6.5453   -2.9637   27.3345 O   0  0  0  0  0  0  0  0  0  0  0  0
    7.5503   -0.1780   24.1818 N   0  0  0  0  0  0  0  0  0  0  0  0
    7.7997    1.1436   23.5555 C   0  0  0  0  0  0  0  0  0  0  0  0
    8.3326    0.9974   22.1689 C   0  0  0  0  0  0  0  0  0  0  0  0
    9.7272    0.3871   22.2154 C   0  0  0  0  0  0  0  0  0  0  0  0
   10.0213   -0.7658   21.5009 C   0  0  0  0  0  0  0  0  0  0  0  0
   11.2902   -1.3192   21.5415 C   0  0  0  0  0  0  0  0  0  0  0  0
   12.2802   -0.7268   22.2958 C   0  0  0  0  0  0  0  0  0  0  0  0
   12.0024    0.4191   23.0097 C   0  0  0  0  0  0  0  0  0  0  0  0
   10.7338    0.9734   22.9698 C   0  0  0  0  0  0  0  0  0  0  0  0
    7.3685    0.1889   21.3355 C   0  0  0  0  0  0  0  0  0  0  0  0
    7.2066    0.4874   19.9839 C   0  0  0  0  0  0  0  0  0  0  0  0
    7.9371   -0.4552   25.4528 C   0  0  0  0  0  0  0  0  0  0  0  0
    7.4033   -1.3248   26.1302 O   0  0  0  0  0  0  0  0  0  0  0  0
    9.0813    0.3504   26.0392 C   0  0  0  0  0  0  0  0  0  0  0  0
    9.7190   -0.4189   27.4981 Cl  0  0  0  0  0  0  0  0  0  0  0  0
  1  2  1  0
  2  3  2  0
  3  4  1  0
  4  5  2  0
  5  6  1  0
  6  7  1  0
  7  8  1  0
  8  9  1  0
  9 10  2  0
  9 11  2  0
  9 12  1  0
 12 13  1  0
 13 14  1  0
 14 15  1  0
 15 16  1  0
 16 17  1  0
 17 18  1  0
 18 19  2  0
  6 20  1  0
 20 21  1  0
 21 22  1  0
 22 23  1  0
 23 24  2  0
 24 25  1  0
 25 26  2  0
 26 27  1  0
 27 28  2  0
 22 29  1  0
 29 30  2  0
 20 31  1  0
 31 32  2  0
 31 33  1  0
 33 34  1  0
 30  2  1  0
 29  5  1  0
 13  7  1  0
 18 14  1  0
 28 23  1  0
M  END
