CVD-0002707|dock_bobby27042020.47|mol2|33|dock2
     RDKit          3D

 25 27  0  0  0  0  0  0  0  0999 V2000
    8.2979    1.8251   22.3767 C   0  0  0  0  0  0  0  0  0  0  0  0
    9.6118    1.5966   22.8814 O   0  0  0  0  0  0  0  0  0  0  0  0
   10.5400    2.5940   22.7581 C   0  0  0  0  0  0  0  0  0  0  0  0
   10.2544    3.9421   22.5762 C   0  0  0  0  0  0  0  0  0  0  0  0
   11.2905    4.8547   22.4662 C   0  0  0  0  0  0  0  0  0  0  0  0
   12.6024    4.4366   22.5362 C   0  0  0  0  0  0  0  0  0  0  0  0
   12.9031    3.0971   22.7171 C   0  0  0  0  0  0  0  0  0  0  0  0
   11.8762    2.1684   22.8280 C   0  0  0  0  0  0  0  0  0  0  0  0
   12.0518    0.8190   23.0122 O   0  0  0  0  0  0  0  0  0  0  0  0
   13.2229    0.1769   22.4853 C   0  0  0  0  0  0  0  0  0  0  0  0
   13.0276   -1.3136   22.5530 C   0  0  0  0  0  0  0  0  0  0  0  0
   11.7524   -1.7142   21.9759 N   0  0  0  0  0  0  0  0  0  0  0  0
   10.6654   -1.9023   22.7261 C   0  0  0  0  0  0  0  0  0  0  0  0
   10.7452   -1.8851   23.9535 O   0  0  0  0  0  0  0  0  0  0  0  0
    9.3314   -2.1661   22.0951 C   0  0  0  0  0  0  0  0  0  0  0  0
    8.8578   -1.2939   21.1651 C   0  0  0  0  0  0  0  0  0  0  0  0
    7.5953   -1.4321   20.5206 C   0  0  0  0  0  0  0  0  0  0  0  0
    7.1519   -0.6563   19.6620 O   0  0  0  0  0  0  0  0  0  0  0  0
    6.8518   -2.5066   20.9136 N   0  0  0  0  0  0  0  0  0  0  0  0
    7.2587   -3.4515   21.8497 C   0  0  0  0  0  0  0  0  0  0  0  0
    6.4002   -4.4994   22.1708 C   0  0  0  0  0  0  0  0  0  0  0  0
    6.8146   -5.4704   23.0647 C   0  0  0  0  0  0  0  0  0  0  0  0
    8.0711   -5.4082   23.6238 C   0  0  0  0  0  0  0  0  0  0  0  0
    8.9278   -4.3649   23.3168 C   0  0  0  0  0  0  0  0  0  0  0  0
    8.5292   -3.3427   22.4500 C   0  0  0  0  0  0  0  0  0  0  0  0
  1  2  1  0
  2  3  1  0
  3  4  2  0
  4  5  1  0
  5  6  2  0
  6  7  1  0
  7  8  2  0
  8  9  1  0
  9 10  1  0
 10 11  1  0
 11 12  1  0
 12 13  1  0
 13 14  2  0
 13 15  1  0
 15 16  2  0
 16 17  1  0
 17 18  2  0
 17 19  1  0
 19 20  1  0
 20 21  2  0
 21 22  1  0
 22 23  2  0
 23 24  1  0
 24 25  2  0
  8  3  1  0
 25 15  1  0
 25 20  1  0
M  END
