CVD-0001773|dock_bobby27042020.66|mol2|10|dock2
     RDKit          3D

 26 27  0  0  0  0  0  0  0  0999 V2000
    5.0470   -1.6612   18.4922 O   0  0  0  0  0  0  0  0  0  0  0  0
    6.2248   -1.4048   19.2471 C   0  0  0  0  0  0  0  0  0  0  0  0
    6.0397   -0.2422   20.2169 C   0  0  0  0  0  0  0  0  0  0  0  0
    7.3546    0.2826   20.5784 N   0  0  0  0  0  0  0  0  0  0  0  0
    8.1046   -0.2956   21.5277 C   0  0  0  0  0  0  0  0  0  0  0  0
    7.7086   -1.2909   22.1267 O   0  0  0  0  0  0  0  0  0  0  0  0
    9.4503    0.2791   21.8665 C   0  0  0  0  0  0  0  0  0  0  0  0
   10.5292   -0.5839   22.0242 C   0  0  0  0  0  0  0  0  0  0  0  0
   11.7882   -0.1024   22.3354 C   0  0  0  0  0  0  0  0  0  0  0  0
   12.0129    1.2547   22.4987 C   0  0  0  0  0  0  0  0  0  0  0  0
   13.3866    1.7785   22.8414 C   0  0  0  0  0  0  0  0  0  0  0  0
   13.4252    3.2233   23.0130 N   0  0  0  0  0  0  0  0  0  0  0  0
   13.3892    4.0726   21.9828 C   0  0  0  0  0  0  0  0  0  0  0  0
   13.3202    3.6847   20.8078 O   0  0  0  0  0  0  0  0  0  0  0  0
   13.4375    5.5075   22.3440 C   0  0  0  0  0  0  0  0  0  0  0  0
   12.7006    6.0122   23.2978 C   0  0  0  0  0  0  0  0  0  0  0  0
   10.9396    2.1170   22.3441 C   0  0  0  0  0  0  0  0  0  0  0  0
    9.6770    1.6434   22.0331 C   0  0  0  0  0  0  0  0  0  0  0  0
    5.1557    0.8228   19.5968 C   0  0  0  0  0  0  0  0  0  0  0  0
    5.4636    1.3632   18.3556 C   0  0  0  0  0  0  0  0  0  0  0  0
    4.6625    2.3332   17.7802 C   0  0  0  0  0  0  0  0  0  0  0  0
    3.5353    2.7727   18.4509 C   0  0  0  0  0  0  0  0  0  0  0  0
    2.4407    4.1023   17.6591 Br  0  0  0  0  0  0  0  0  0  0  0  0
    3.2334    2.2321   19.6827 C   0  0  0  0  0  0  0  0  0  0  0  0
    2.1322    2.6578   20.3430 F   0  0  0  0  0  0  0  0  0  0  0  0
    4.0221    1.2702   20.2602 C   0  0  0  0  0  0  0  0  0  0  0  0
  1  2  1  0
  3  2  1  0
  3  4  1  0
  4  5  1  0
  5  6  2  0
  5  7  1  0
  7  8  2  0
  8  9  1  0
  9 10  2  0
 10 11  1  0
 11 12  1  0
 12 13  1  0
 13 14  2  0
 13 15  1  0
 15 16  2  0
 10 17  1  0
 17 18  2  0
  3 19  1  0
 19 20  2  0
 20 21  1  0
 21 22  2  0
 22 23  1  0
 22 24  1  0
 24 25  1  0
 24 26  2  0
 18  7  1  0
 26 19  1  0
M  END
