CVD-0003937|dock_bobby27042020.58|mol2|13|dock1
     RDKit          3D

 29 32  0  0  0  0  0  0  0  0999 V2000
    4.8199   -6.7999   23.9523 C   0  0  0  0  0  0  0  0  0  0  0  0
    5.1166   -5.8773   22.8067 C   0  0  0  0  0  0  0  0  0  0  0  0
    4.2308   -5.2592   22.2245 O   0  0  0  0  0  0  0  0  0  0  0  0
    6.3980   -5.7809   22.4469 N   0  0  0  0  0  0  0  0  0  0  0  0
    6.8425   -4.9412   21.3437 C   0  0  0  0  0  0  0  0  0  0  0  0
    6.7824   -3.4680   21.6948 C   0  0  0  0  0  0  0  0  0  0  0  0
    8.0840   -2.9365   22.2195 C   0  0  0  0  0  0  0  0  0  0  0  0
    9.0396   -3.6204   22.9072 C   0  0  0  0  0  0  0  0  0  0  0  0
   10.0844   -2.7937   23.2141 N   0  0  0  0  0  0  0  0  0  0  0  0
    9.8278   -1.5355   22.7205 C   0  0  0  0  0  0  0  0  0  0  0  0
   10.5777   -0.3300   22.7578 C   0  0  0  0  0  0  0  0  0  0  0  0
   10.0120    0.8052   22.1769 C   0  0  0  0  0  0  0  0  0  0  0  0
    8.7805    0.7060   21.5757 C   0  0  0  0  0  0  0  0  0  0  0  0
    8.2608    1.8287   21.0100 F   0  0  0  0  0  0  0  0  0  0  0  0
    8.0386   -0.4448   21.5061 C   0  0  0  0  0  0  0  0  0  0  0  0
    8.5659   -1.5911   22.0922 C   0  0  0  0  0  0  0  0  0  0  0  0
   11.9642   -0.2613   23.4117 C   0  0  0  0  0  0  0  0  0  0  0  0
   11.9623   -0.5803   24.9341 C   0  0  0  0  0  0  0  0  0  0  0  0
   13.0949   -1.5235   25.1796 C   0  0  0  0  0  0  0  0  0  0  0  0
   13.6540   -1.9122   23.8920 C   0  0  0  0  0  0  0  0  0  0  0  0
   12.9371   -1.2775   22.7723 C   0  0  0  0  0  0  0  0  0  0  0  0
   12.4536    1.1069   23.1636 C   0  0  0  0  0  0  0  0  0  0  0  0
   12.7984    2.2367   22.9917 C   0  0  0  0  0  0  0  0  0  0  0  0
   13.1343    3.6253   22.8178 C   0  0  0  0  0  0  0  0  0  0  0  0
   12.3661    4.6137   23.4250 C   0  0  0  0  0  0  0  0  0  0  0  0
   12.7269    5.9354   23.2299 C   0  0  0  0  0  0  0  0  0  0  0  0
   13.8226    6.2343   22.4496 C   0  0  0  0  0  0  0  0  0  0  0  0
   14.5250    5.1926   21.8874 C   0  0  0  0  0  0  0  0  0  0  0  0
   14.2076    3.9014   22.0528 N   0  0  0  0  0  0  0  0  0  0  0  0
  1  2  1  0
  2  3  2  0
  2  4  1  0
  4  5  1  0
  5  6  1  0
  6  7  1  0
  7  8  2  0
  8  9  1  0
  9 10  1  0
 10 11  2  0
 11 12  1  0
 12 13  2  0
 13 14  1  0
 13 15  1  0
 15 16  2  0
 11 17  1  0
 17 18  1  0
 18 19  1  0
 19 20  1  0
 20 21  1  0
 17 22  1  0
 22 23  3  0
 23 24  1  0
 24 25  2  0
 25 26  1  0
 26 27  2  0
 27 28  1  0
 28 29  2  0
 16  7  1  0
 21 17  1  0
 29 24  1  0
 16 10  1  0
M  END
