CVD-0000365|dock_bobby27042020.41|mol2|39|dock2
     RDKit          3D

 25 27  0  0  0  0  0  0  0  0999 V2000
    5.6400   -4.5306   27.4926 C   0  0  0  0  0  0  0  0  0  0  0  0
    6.9512   -5.2428   27.3342 C   0  0  0  0  0  0  0  0  0  0  0  0
    7.0573   -6.4424   27.5630 O   0  0  0  0  0  0  0  0  0  0  0  0
    8.0188   -4.5208   26.9146 N   0  0  0  0  0  0  0  0  0  0  0  0
    9.3442   -5.1091   26.7094 C   0  0  0  0  0  0  0  0  0  0  0  0
    9.8463   -4.8091   25.3093 C   0  0  0  0  0  0  0  0  0  0  0  0
    9.8950   -3.3610   25.0871 N   0  0  0  0  0  0  0  0  0  0  0  0
   10.4185   -3.0638   23.7459 C   0  0  0  0  0  0  0  0  0  0  0  0
   10.6217   -1.5886   23.4946 C   0  0  0  0  0  0  0  0  0  0  0  0
   11.6939   -0.9129   24.0532 C   0  0  0  0  0  0  0  0  0  0  0  0
   11.8892    0.4383   23.8275 C   0  0  0  0  0  0  0  0  0  0  0  0
   11.0057    1.1653   23.0264 C   0  0  0  0  0  0  0  0  0  0  0  0
    9.9368    0.4584   22.4895 C   0  0  0  0  0  0  0  0  0  0  0  0
    9.0399    1.1141   21.7174 F   0  0  0  0  0  0  0  0  0  0  0  0
    9.7312   -0.8808   22.6999 C   0  0  0  0  0  0  0  0  0  0  0  0
   11.2328    2.6210   22.7770 C   0  0  0  0  0  0  0  0  0  0  0  0
   12.4319    2.9169   22.2511 N   0  0  0  0  0  0  0  0  0  0  0  0
   12.6861    4.2067   22.0406 C   0  0  0  0  0  0  0  0  0  0  0  0
   11.8804    5.2373   22.2900 N   0  0  0  0  0  0  0  0  0  0  0  0
   10.6827    4.9417   22.7945 C   0  0  0  0  0  0  0  0  0  0  0  0
    9.7639    6.0935   23.0738 C   0  0  0  0  0  0  0  0  0  0  0  0
   10.2848    3.6252   23.0623 C   0  0  0  0  0  0  0  0  0  0  0  0
    8.9038    3.3577   23.6142 C   0  0  0  0  0  0  0  0  0  0  0  0
    8.5521   -2.8089   25.2458 C   0  0  0  0  0  0  0  0  0  0  0  0
    8.0207   -3.0803   26.6415 C   0  0  0  0  0  0  0  0  0  0  0  0
  1  2  1  0
  2  3  2  0
  2  4  1  0
  4  5  1  0
  5  6  1  0
  6  7  1  0
  7  8  1  0
  8  9  1  0
  9 10  2  0
 10 11  1  0
 11 12  2  0
 12 13  1  0
 13 14  1  0
 13 15  2  0
 12 16  1  0
 16 17  2  0
 17 18  1  0
 18 19  2  0
 19 20  1  0
 20 21  1  0
 20 22  2  0
 22 23  1  0
  7 24  1  0
 24 25  1  0
 25  4  1  0
 15  9  1  0
 22 16  1  0
M  END
