CVD-0001368|dock_bobby27042020.67|mol2|22|dock1
     RDKit          3D

 44 48  0  0  0  0  0  0  0  0999 V2000
    9.7257   -3.8572   26.2225 O   0  0  0  0  0  0  0  0  0  0  0  0
    8.7613   -3.1437   25.9644 C   0  0  0  0  0  0  0  0  0  0  0  0
    8.0378   -2.3606   27.0417 C   0  0  0  0  0  0  0  0  0  0  0  0
    6.9745   -3.1825   27.7348 C   0  0  0  0  0  0  0  0  0  0  0  0
    5.6535   -2.7690   27.7379 C   0  0  0  0  0  0  0  0  0  0  0  0
    4.6874   -3.5296   28.3699 C   0  0  0  0  0  0  0  0  0  0  0  0
    5.0344   -4.7137   28.9975 C   0  0  0  0  0  0  0  0  0  0  0  0
    6.3552   -5.1578   29.0107 C   0  0  0  0  0  0  0  0  0  0  0  0
    7.3139   -4.3682   28.3742 C   0  0  0  0  0  0  0  0  0  0  0  0
    6.6971   -6.4260   29.6869 C   0  0  0  0  0  0  0  0  0  0  0  0
    6.2742   -6.7344   30.9527 C   0  0  0  0  0  0  0  0  0  0  0  0
    6.6372   -7.9598   31.5349 C   0  0  0  0  0  0  0  0  0  0  0  0
    7.4103   -8.8618   30.8637 C   0  0  0  0  0  0  0  0  0  0  0  0
    7.8701   -8.5771   29.5405 C   0  0  0  0  0  0  0  0  0  0  0  0
    8.5720   -9.3292   28.8498 O   0  0  0  0  0  0  0  0  0  0  0  0
    7.4774   -7.3565   29.0264 N   0  0  0  0  0  0  0  0  0  0  0  0
    8.2850   -2.9968   24.7263 N   0  0  0  0  0  0  0  0  0  0  0  0
    8.8833   -3.6791   23.5898 C   0  0  0  0  0  0  0  0  0  0  0  0
    7.9070   -3.7293   22.4124 C   0  0  0  0  0  0  0  0  0  0  0  0
    6.6837   -4.6237   22.6502 C   0  0  0  0  0  0  0  0  0  0  0  0
    7.0142   -6.0715   23.0648 C   0  0  0  0  0  0  0  0  0  0  0  0
    6.0176   -6.9468   22.3161 C   0  0  0  0  0  0  0  0  0  0  0  0
    5.5520   -6.0777   21.2521 N   0  0  0  0  0  0  0  0  0  0  0  0
    5.8384   -4.7834   21.4136 C   0  0  0  0  0  0  0  0  0  0  0  0
    5.4988   -3.8810   20.6530 O   0  0  0  0  0  0  0  0  0  0  0  0
   10.1951   -2.9960   23.2058 C   0  0  0  0  0  0  0  0  0  0  0  0
   11.2401   -3.4157   23.6721 O   0  0  0  0  0  0  0  0  0  0  0  0
   10.1264   -1.7957   22.2415 C   0  0  0  0  0  0  0  0  0  0  0  0
    9.7791   -2.0582   21.0960 O   0  0  0  0  0  0  0  0  0  0  0  0
   10.4235   -0.5322   22.6106 N   0  0  0  0  0  0  0  0  0  0  0  0
   10.3622    0.5486   21.6404 C   0  0  0  0  0  0  0  0  0  0  0  0
    9.5178    1.6717   22.1547 C   0  0  0  0  0  0  0  0  0  0  0  0
   10.0421    2.1082   23.4566 N   0  0  0  0  0  0  0  0  0  0  0  0
   10.0196    1.0209   24.4462 C   0  0  0  0  0  0  0  0  0  0  0  0
   10.8632   -0.1138   23.9453 C   0  0  0  0  0  0  0  0  0  0  0  0
    9.6507    3.6116   23.9506 S   0  0  0  0  0  0  0  0  0  0  0  0
    8.6246    4.0740   23.0684 O   0  0  0  0  0  0  0  0  0  0  0  0
    9.3964    3.5235   25.3551 O   0  0  0  0  0  0  0  0  0  0  0  0
   11.0703    4.6239   23.7152 C   0  0  0  0  0  0  0  0  0  0  0  0
   11.8486    4.4579   22.5810 C   0  0  0  0  0  0  0  0  0  0  0  0
   12.9667    5.2563   22.4070 C   0  0  0  0  0  0  0  0  0  0  0  0
   13.3018    6.2033   23.3511 C   0  0  0  0  0  0  0  0  0  0  0  0
   12.5229    6.3604   24.4778 C   0  0  0  0  0  0  0  0  0  0  0  0
   11.4009    5.5717   24.6700 C   0  0  0  0  0  0  0  0  0  0  0  0
  1  2  2  0
  2  3  1  0
  3  4  1  0
  4  5  2  0
  5  6  1  0
  6  7  2  0
  7  8  1  0
  8  9  2  0
  8 10  1  0
 10 11  2  0
 11 12  1  0
 12 13  2  0
 13 14  1  0
 14 15  2  0
 14 16  1  0
  2 17  1  0
 17 18  1  0
 18 19  1  0
 20 19  1  0
 20 21  1  0
 21 22  1  0
 22 23  1  0
 23 24  1  0
 24 25  2  0
 18 26  1  0
 26 27  2  0
 26 28  1  0
 28 29  2  0
 28 30  1  0
 30 31  1  0
 31 32  1  0
 32 33  1  0
 33 34  1  0
 34 35  1  0
 33 36  1  0
 36 37  2  0
 36 38  2  0
 36 39  1  0
 39 40  2  0
 40 41  1  0
 41 42  2  0
 42 43  1  0
 43 44  2  0
  9  4  1  0
 16 10  1  0
 24 20  1  0
 35 30  1  0
 44 39  1  0
M  END
