CVD-0000117|dock_bobby27042020.85|mol2|27|dock1
     RDKit          3D

 19 21  0  0  0  0  0  0  0  0999 V2000
    4.9827    1.4816   18.8089 N   0  0  0  0  0  0  0  0  0  0  0  0
    6.0357    0.7843   18.3994 C   0  0  0  0  0  0  0  0  0  0  0  0
    6.1780    0.4661   17.2135 O   0  0  0  0  0  0  0  0  0  0  0  0
    7.0907    0.3627   19.3862 C   0  0  0  0  0  0  0  0  0  0  0  0
    7.6964   -0.8792   19.2505 C   0  0  0  0  0  0  0  0  0  0  0  0
    8.6667   -1.3084   20.1378 C   0  0  0  0  0  0  0  0  0  0  0  0
    9.0865   -0.5002   21.1902 C   0  0  0  0  0  0  0  0  0  0  0  0
    8.4799    0.7460   21.3270 C   0  0  0  0  0  0  0  0  0  0  0  0
    7.4981    1.1654   20.4462 C   0  0  0  0  0  0  0  0  0  0  0  0
   10.1034   -0.9255   22.1112 N   0  0  0  0  0  0  0  0  0  0  0  0
   10.0837   -0.2122   23.8631 Se  0  0  0  0  0  2  0  0  0  0  0  0
   11.9741   -0.5972   23.7148 C   0  0  0  0  0  0  0  0  0  0  0  0
   12.9074   -0.5044   24.8969 C   0  0  0  0  0  0  0  0  0  0  0  0
   13.9709   -1.3045   24.9648 C   0  0  0  0  0  0  0  0  0  0  0  0
   14.2295   -2.2561   23.9548 C   0  0  0  0  0  0  0  0  0  0  0  0
   13.2897   -2.6071   23.0757 C   0  0  0  0  0  0  0  0  0  0  0  0
   11.9100   -2.0130   23.1498 C   0  0  0  0  0  0  0  0  0  0  0  0
   11.1326   -1.7989   21.8633 C   0  0  0  0  0  0  0  0  0  0  0  0
   11.3921   -2.3214   20.7965 O   0  0  0  0  0  0  0  0  0  0  0  0
  1  2  1  0
  2  3  2  0
  2  4  1  0
  4  5  2  0
  5  6  1  0
  6  7  2  0
  7  8  1  0
  8  9  2  0
  7 10  1  0
 10 11  1  0
 11 12  1  0
 12 13  1  0
 13 14  2  0
 14 15  1  0
 15 16  2  0
 16 17  1  0
 17 18  1  0
 18 19  2  0
  9  4  1  0
 18 10  1  0
 17 12  1  0
M  END
