CVD-0003418|dock_bobby27042020.31|mol2|4|dock2
     RDKit          3D

 20 22  0  0  0  0  0  0  0  0999 V2000
    6.4505   -2.0181   22.5172 Cl  0  0  0  0  0  0  0  0  0  0  0  0
    6.2746   -0.9499   21.1601 C   0  0  0  0  0  0  0  0  0  0  0  0
    5.0395   -0.5042   21.0057 N   0  0  0  0  0  0  0  0  0  0  0  0
    4.7426    0.1874   19.9018 C   0  0  0  0  0  0  0  0  0  0  0  0
    5.7120    0.4668   18.9528 C   0  0  0  0  0  0  0  0  0  0  0  0
    5.6747    1.1110   17.7573 N   0  0  0  0  0  0  0  0  0  0  0  0
    6.9074    1.1474   17.1756 N   0  0  0  0  0  0  0  0  0  0  0  0
    7.7219    0.5223   18.0036 C   0  0  0  0  0  0  0  0  0  0  0  0
    7.0427    0.0552   19.1554 C   0  0  0  0  0  0  0  0  0  0  0  0
    7.3526   -0.6464   20.3370 C   0  0  0  0  0  0  0  0  0  0  0  0
    8.7345   -0.9738   20.5482 N   0  0  0  0  0  0  0  0  0  0  0  0
    9.4280   -0.7717   21.7174 C   0  0  0  0  0  0  0  0  0  0  0  0
    8.9439   -0.2813   22.7323 O   0  0  0  0  0  0  0  0  0  0  0  0
   10.7350   -1.1778   21.5845 N   0  0  0  0  0  0  0  0  0  0  0  0
   11.8135   -1.1497   22.5044 C   0  0  0  0  0  0  0  0  0  0  0  0
   12.8214   -2.0946   22.3479 C   0  0  0  0  0  0  0  0  0  0  0  0
   13.9028   -2.1217   23.2120 C   0  0  0  0  0  0  0  0  0  0  0  0
   13.9927   -1.2098   24.2400 C   0  0  0  0  0  0  0  0  0  0  0  0
   13.0005   -0.2687   24.4058 C   0  0  0  0  0  0  0  0  0  0  0  0
   11.9136   -0.2317   23.5478 C   0  0  0  0  0  0  0  0  0  0  0  0
  1  2  1  0
  2  3  2  0
  3  4  1  0
  4  5  2  0
  5  6  1  0
  6  7  1  0
  7  8  2  0
  8  9  1  0
  9 10  2  0
 10 11  1  0
 11 12  1  0
 12 13  2  0
 12 14  1  0
 14 15  1  0
 15 16  2  0
 16 17  1  0
 17 18  2  0
 18 19  1  0
 19 20  2  0
 10  2  1  0
 20 15  1  0
  9  5  1  0
M  END
