CVD-0002513|dock_bobby27042020.19|mol2|31|dock1
     RDKit          3D

 22 23  0  0  0  0  0  0  0  0999 V2000
    6.9635   -6.1511   22.5253 C   0  0  0  0  0  0  0  0  0  0  0  0
    6.6482   -4.7407   22.6008 O   0  0  0  0  0  0  0  0  0  0  0  0
    7.2041   -3.9705   21.6694 C   0  0  0  0  0  0  0  0  0  0  0  0
    7.9831   -4.3660   20.8415 O   0  0  0  0  0  0  0  0  0  0  0  0
    6.7249   -2.5342   21.7928 C   0  0  0  0  0  0  0  0  0  0  0  0
    7.2455   -1.8994   23.0872 C   0  0  0  0  0  0  0  0  0  0  0  0
    8.6842   -1.4419   23.0276 C   0  0  0  0  0  0  0  0  0  0  0  0
    9.6606   -2.5793   22.7031 C   0  0  0  0  0  0  0  0  0  0  0  0
   11.1178   -2.2074   22.8315 C   0  0  0  0  0  0  0  0  0  0  0  0
   11.8914   -1.9631   21.7085 C   0  0  0  0  0  0  0  0  0  0  0  0
   13.2275   -1.6256   21.8389 C   0  0  0  0  0  0  0  0  0  0  0  0
   13.7997   -1.5315   23.0963 C   0  0  0  0  0  0  0  0  0  0  0  0
   13.0483   -1.7737   24.2356 C   0  0  0  0  0  0  0  0  0  0  0  0
   13.6669   -1.6695   25.6083 C   0  0  0  0  0  0  0  0  0  0  0  0
   11.7112   -2.1092   24.0835 C   0  0  0  0  0  0  0  0  0  0  0  0
    8.7311   -0.3400   21.9899 C   0  0  0  0  0  0  0  0  0  0  0  0
    8.3613   -0.7860   20.5678 C   0  0  0  0  0  0  0  0  0  0  0  0
    7.1370   -1.7064   20.5843 N   0  0  0  0  0  0  0  0  0  0  0  0
    6.2699   -1.9277   19.5712 C   0  0  0  0  0  0  0  0  0  0  0  0
    5.3451   -2.7198   19.7017 O   0  0  0  0  0  0  0  0  0  0  0  0
    6.4643   -1.1663   18.2741 C   0  0  0  0  0  0  0  0  0  0  0  0
    5.8880    0.4998   18.4124 Cl  0  0  0  0  0  0  0  0  0  0  0  0
  1  2  1  0
  2  3  1  0
  3  4  2  0
  3  5  1  0
  5  6  1  0
  6  7  1  0
  7  8  1  0
  8  9  1  0
  9 10  2  0
 10 11  1  0
 11 12  2  0
 12 13  1  0
 13 14  1  0
 13 15  2  0
  7 16  1  0
 16 17  1  0
 17 18  1  0
 18 19  1  0
 19 20  2  0
 19 21  1  0
 21 22  1  0
 18  5  1  0
 15  9  1  0
M  END
