CVD-0001642|dock_bobby27042020.52|mol2|5|dock3
     RDKit          3D

 17 18  0  0  0  0  0  0  0  0999 V2000
   13.9431   -0.6753   22.4422 C   0  0  0  0  0  0  0  0  0  0  0  0
   12.7939   -1.5342   22.9520 C   0  0  0  0  0  0  0  0  0  0  0  0
   11.4647   -0.8332   22.8123 C   0  0  0  0  0  0  0  0  0  0  0  0
   10.2999   -1.8154   22.8268 C   0  0  0  0  0  0  0  0  0  0  0  0
   11.3629    0.2947   23.7404 N   0  0  0  0  0  0  0  0  0  0  0  0
   11.7059   -0.0518   25.1219 C   0  0  0  0  0  0  0  0  0  0  0  0
   13.0336   -0.7596   25.1734 C   0  0  0  0  0  0  0  0  0  0  0  0
   13.0056   -1.9543   24.3359 N   0  0  0  0  0  0  0  0  0  0  0  0
   14.1476   -2.8509   24.5230 C   0  0  0  0  0  0  0  0  0  0  0  0
   10.9064    1.5897   23.4513 C   0  0  0  0  0  0  0  0  0  0  0  0
   11.7957    2.6530   23.5306 C   0  0  0  0  0  0  0  0  0  0  0  0
   11.3800    3.9348   23.2229 C   0  0  0  0  0  0  0  0  0  0  0  0
   10.0590    4.1151   22.8311 C   0  0  0  0  0  0  0  0  0  0  0  0
    9.1722    3.1060   22.7581 N   0  0  0  0  0  0  0  0  0  0  0  0
    9.5970    1.8837   23.1010 C   0  0  0  0  0  0  0  0  0  0  0  0
    9.5676    5.4323   22.4763 C   0  0  0  0  0  0  0  0  0  0  0  0
    9.1647    6.4550   22.1655 N   0  0  0  0  0  0  0  0  0  0  0  0
  1  2  1  0
  2  3  1  0
  3  4  1  0
  3  5  1  0
  5  6  1  0
  6  7  1  0
  7  8  1  0
  8  9  1  0
  5 10  1  0
 10 11  2  0
 11 12  1  0
 12 13  2  0
 13 14  1  0
 14 15  2  0
 13 16  1  0
 16 17  3  0
  8  2  1  0
 15 10  1  0
M  END
