CVD-0001771|dock_bobby27042020.94|mol2|16|dock3
     RDKit          3D

 28 30  0  0  0  0  0  0  0  0999 V2000
    7.3629    6.8244   21.9197 C   0  0  0  0  0  0  0  0  0  0  0  0
    8.5431    6.7816   22.8359 C   0  0  0  0  0  0  0  0  0  0  0  0
    9.6542    6.0469   22.4896 N   0  0  0  0  0  0  0  0  0  0  0  0
   10.5946    6.1674   23.4895 C   0  0  0  0  0  0  0  0  0  0  0  0
   11.8734    5.6161   23.6046 C   0  0  0  0  0  0  0  0  0  0  0  0
   12.4436    4.7264   22.5276 C   0  0  0  0  0  0  0  0  0  0  0  0
   11.6691    3.5130   22.3120 N   0  0  0  0  0  0  0  0  0  0  0  0
   11.9360    2.3905   22.9858 C   0  0  0  0  0  0  0  0  0  0  0  0
   12.8426    2.3495   23.8120 O   0  0  0  0  0  0  0  0  0  0  0  0
   11.1176    1.1568   22.7326 C   0  0  0  0  0  0  0  0  0  0  0  0
    9.7392    1.1843   22.5342 C   0  0  0  0  0  0  0  0  0  0  0  0
    9.0348    0.0153   22.3057 C   0  0  0  0  0  0  0  0  0  0  0  0
    9.6741   -1.2133   22.2678 C   0  0  0  0  0  0  0  0  0  0  0  0
    8.8996   -2.4842   22.0146 C   0  0  0  0  0  0  0  0  0  0  0  0
    8.5246   -3.1823   23.2354 N   0  0  0  0  0  0  0  0  0  0  0  0
    9.4139   -3.8128   24.0073 C   0  0  0  0  0  0  0  0  0  0  0  0
   10.6220   -3.8449   23.7336 O   0  0  0  0  0  0  0  0  0  0  0  0
    8.8542   -4.4691   25.2106 C   0  0  0  0  0  0  0  0  0  0  0  0
    9.6014   -5.1231   26.0599 C   0  0  0  0  0  0  0  0  0  0  0  0
   11.0451   -1.2416   22.4631 C   0  0  0  0  0  0  0  0  0  0  0  0
   11.7565   -0.0775   22.6921 C   0  0  0  0  0  0  0  0  0  0  0  0
   12.6081    5.9200   24.7463 C   0  0  0  0  0  0  0  0  0  0  0  0
   12.1096    6.7397   25.7514 C   0  0  0  0  0  0  0  0  0  0  0  0
   12.9363    7.0420   26.9774 C   0  0  0  0  0  0  0  0  0  0  0  0
   10.8344    7.2709   25.6097 C   0  0  0  0  0  0  0  0  0  0  0  0
   10.0567    6.9996   24.4856 C   0  0  0  0  0  0  0  0  0  0  0  0
    8.7437    7.3815   24.0487 C   0  0  0  0  0  0  0  0  0  0  0  0
    7.8004    8.2706   24.8051 C   0  0  0  0  0  0  0  0  0  0  0  0
  1  2  1  0
  2  3  1  0
  3  4  1  0
  4  5  2  0
  5  6  1  0
  6  7  1  0
  7  8  1  0
  8  9  2  0
  8 10  1  0
 10 11  2  0
 11 12  1  0
 12 13  2  0
 13 14  1  0
 14 15  1  0
 15 16  1  0
 16 17  2  0
 16 18  1  0
 18 19  2  0
 13 20  1  0
 20 21  2  0
  5 22  1  0
 22 23  2  0
 23 24  1  0
 23 25  1  0
 25 26  2  0
 26 27  1  0
 27 28  1  0
 27  2  2  0
 26  4  1  0
 21 10  1  0
M  END
