CVD-0003868|dock_bobby27042020.58|mol2|23|dock3
     RDKit          3D

 23 25  0  0  0  0  0  0  0  0999 V2000
   13.3185    5.3133   21.4311 N   0  0  0  0  0  0  0  0  0  0  0  0
   13.3075    4.6532   22.8894 S   0  0  0  0  0  0  0  0  0  0  0  0
   14.6719    4.4321   23.2645 O   0  0  0  0  0  0  0  0  0  0  0  0
   12.4865    5.4799   23.7223 O   0  0  0  0  0  0  0  0  0  0  0  0
   12.5267    3.0715   22.7823 C   0  0  0  0  0  0  0  0  0  0  0  0
   11.1461    2.9830   22.7821 C   0  0  0  0  0  0  0  0  0  0  0  0
   10.5398    1.7424   22.6957 C   0  0  0  0  0  0  0  0  0  0  0  0
   11.2949    0.5772   22.6028 C   0  0  0  0  0  0  0  0  0  0  0  0
   12.6818    0.6915   22.6001 C   0  0  0  0  0  0  0  0  0  0  0  0
   13.2982    1.9268   22.6906 C   0  0  0  0  0  0  0  0  0  0  0  0
   10.6811   -0.6650   22.5153 N   0  0  0  0  0  0  0  0  0  0  0  0
    9.5645   -0.9384   21.6056 C   0  0  0  0  0  0  0  0  0  0  0  0
    8.4585   -1.6983   22.2812 C   0  0  0  0  0  0  0  0  0  0  0  0
    8.9807   -3.0042   22.8905 C   0  0  0  0  0  0  0  0  0  0  0  0
    7.8649   -3.7912   23.5802 C   0  0  0  0  0  0  0  0  0  0  0  0
    8.3379   -5.5236   23.8100 S   0  0  0  0  0  0  0  0  0  0  0  0
    8.7521   -5.6505   25.5189 C   0  0  0  0  0  0  0  0  0  0  0  0
    7.7687   -5.7111   26.5298 C   0  0  0  0  0  0  0  0  0  0  0  0
    8.2794   -5.8057   27.7895 C   0  0  0  0  0  0  0  0  0  0  0  0
    9.9752   -5.8193   27.7245 S   0  0  0  0  0  0  0  0  0  0  0  0
    9.9888   -5.6987   26.0295 C   0  0  0  0  0  0  0  0  0  0  0  0
   10.1228   -2.6812   23.8207 C   0  0  0  0  0  0  0  0  0  0  0  0
   11.2244   -1.8879   23.1509 C   0  0  0  0  0  0  0  0  0  0  0  0
  1  2  1  0
  2  3  2  0
  2  4  2  0
  2  5  1  0
  5  6  2  0
  6  7  1  0
  7  8  2  0
  8  9  1  0
  9 10  2  0
  8 11  1  0
 11 12  1  0
 12 13  1  0
 13 14  1  0
 14 15  1  0
 15 16  1  0
 16 17  1  0
 17 18  1  0
 18 19  2  0
 19 20  1  0
 20 21  1  0
 14 22  1  0
 22 23  1  0
 10  5  1  0
 23 11  1  0
 21 17  2  0
M  END
