CVD-0003625|dock_bobby27042020.30|mol2|21|dock3
     RDKit          3D

 21 22  0  0  0  0  0  0  0  0999 V2000
   13.6707   -2.2370   23.3547 C   0  0  0  0  0  0  0  0  0  0  0  0
   12.6667   -1.2053   22.8467 C   0  0  0  0  0  0  0  0  0  0  0  0
   13.1995    0.2001   23.1072 C   0  0  0  0  0  0  0  0  0  0  0  0
   14.2846    0.3584   23.6585 O   0  0  0  0  0  0  0  0  0  0  0  0
   12.3691    1.1846   22.6797 N   0  0  0  0  0  0  0  0  0  0  0  0
   12.5033    2.6005   22.7395 C   0  0  0  0  0  0  0  0  0  0  0  0
   13.7267    3.2566   22.6071 C   0  0  0  0  0  0  0  0  0  0  0  0
   13.8710    4.5825   22.6585 N   0  0  0  0  0  0  0  0  0  0  0  0
   12.7729    5.3192   22.8099 C   0  0  0  0  0  0  0  0  0  0  0  0
   11.4977    4.7835   22.9459 C   0  0  0  0  0  0  0  0  0  0  0  0
   10.4239    5.6355   23.0826 N   0  0  0  0  0  0  0  0  0  0  0  0
   11.3510    3.3868   22.9384 C   0  0  0  0  0  0  0  0  0  0  0  0
    9.9796    2.7837   23.1512 C   0  0  0  0  0  0  0  0  0  0  0  0
   11.3117   -1.3351   23.5289 C   0  0  0  0  0  0  0  0  0  0  0  0
   10.2707   -2.0177   22.9145 C   0  0  0  0  0  0  0  0  0  0  0  0
    9.0385   -2.1390   23.5352 C   0  0  0  0  0  0  0  0  0  0  0  0
    8.8314   -1.5774   24.7836 C   0  0  0  0  0  0  0  0  0  0  0  0
    9.8663   -0.8918   25.4106 C   0  0  0  0  0  0  0  0  0  0  0  0
   11.1029   -0.7740   24.7801 C   0  0  0  0  0  0  0  0  0  0  0  0
    9.6652   -0.3020   26.7112 C   0  0  0  0  0  0  0  0  0  0  0  0
    9.5386    0.1712   27.7432 N   0  0  0  0  0  0  0  0  0  0  0  0
  1  2  1  0
  2  3  1  0
  3  4  2  0
  3  5  1  0
  5  6  1  0
  6  7  2  0
  7  8  1  0
  8  9  2  0
  9 10  1  0
 10 11  1  0
 10 12  2  0
 12 13  1  0
  2 14  1  0
 14 15  2  0
 15 16  1  0
 16 17  2  0
 17 18  1  0
 18 19  2  0
 18 20  1  0
 20 21  3  0
 12  6  1  0
 19 14  1  0
M  END
