CVD-0000757|dock_bobby27042020.26|mol2|19|dock2
     RDKit          3D

 16 17  0  0  0  0  0  0  0  0999 V2000
   13.7678   -3.0423   26.0080 Cl  0  0  0  0  0  0  0  0  0  0  0  0
   13.2869   -2.5136   24.4488 C   0  0  0  0  0  0  0  0  0  0  0  0
   14.0914   -2.0722   23.4628 C   0  0  0  0  0  0  0  0  0  0  0  0
   13.3784   -1.7191   22.3191 C   0  0  0  0  0  0  0  0  0  0  0  0
   12.0416   -1.8945   22.4443 C   0  0  0  0  0  0  0  0  0  0  0  0
   11.0471   -1.6380   21.4886 N   0  0  0  0  0  0  0  0  0  0  0  0
    9.7936   -1.0486   21.6837 C   0  0  0  0  0  0  0  0  0  0  0  0
    9.4111   -0.6704   22.7862 O   0  0  0  0  0  0  0  0  0  0  0  0
    9.0740   -0.9535   20.5173 N   0  0  0  0  0  0  0  0  0  0  0  0
    7.7803   -0.4311   20.2667 C   0  0  0  0  0  0  0  0  0  0  0  0
    7.4619   -0.0245   18.9773 C   0  0  0  0  0  0  0  0  0  0  0  0
    6.2048    0.4884   18.7105 C   0  0  0  0  0  0  0  0  0  0  0  0
    5.2993    0.5808   19.7416 C   0  0  0  0  0  0  0  0  0  0  0  0
    5.5735    0.1996   20.9892 N   0  0  0  0  0  0  0  0  0  0  0  0
    6.7904   -0.2946   21.2376 C   0  0  0  0  0  0  0  0  0  0  0  0
   11.6279   -2.5172   24.0240 S   0  0  0  0  0  0  0  0  0  0  0  0
  1  2  1  0
  2  3  2  0
  3  4  1  0
  4  5  2  0
  5  6  1  0
  6  7  1  0
  7  8  2  0
  7  9  1  0
  9 10  1  0
 10 11  2  0
 11 12  1  0
 12 13  2  0
 13 14  1  0
 14 15  2  0
  5 16  1  0
 16  2  1  0
 15 10  1  0
M  END
