CVD-0003348|dock_bobby27042020.31|mol2|14|dock3
     RDKit          3D

 17 18  0  0  0  0  0  0  0  0999 V2000
    9.7161   -0.9866   23.0056 C   0  0  0  0  0  0  0  0  0  0  0  0
   10.2142    0.3779   22.6264 C   0  0  0  0  0  0  0  0  0  0  0  0
    9.4252    1.0811   22.0032 O   0  0  0  0  0  0  0  0  0  0  0  0
   11.5393    0.8465   22.9457 N   0  0  0  0  0  0  0  0  0  0  0  0
   12.0455    2.1490   22.5591 C   0  0  0  0  0  0  0  0  0  0  0  0
   11.3176    2.9103   21.9344 O   0  0  0  0  0  0  0  0  0  0  0  0
   13.2855    2.5839   22.8596 N   0  0  0  0  0  0  0  0  0  0  0  0
   13.7366    3.9159   22.4566 C   0  0  0  0  0  0  0  0  0  0  0  0
   12.9293    4.8263   23.5625 C   0  0  0  0  0  0  0  0  0  0  0  0
   12.9840    5.2327   22.1341 C   0  0  0  0  0  0  0  0  0  0  0  0
   12.4104   -0.0817   23.6486 C   0  0  0  0  0  0  0  0  0  0  0  0
   12.7935    0.1858   24.9251 C   0  0  0  0  0  0  0  0  0  0  0  0
   13.6037   -0.6182   25.6521 N   0  0  0  0  0  0  0  0  0  0  0  0
   14.1406   -1.8575   25.0681 C   0  0  0  0  0  0  0  0  0  0  0  0
   13.6796   -2.1342   23.7082 C   0  0  0  0  0  0  0  0  0  0  0  0
   12.8832   -1.3079   23.0071 C   0  0  0  0  0  0  0  0  0  0  0  0
   12.5936   -1.6777   21.5781 C   0  0  0  0  0  0  0  0  0  0  0  0
  1  2  1  0
  2  3  2  0
  2  4  1  0
  4  5  1  0
  5  6  2  0
  5  7  1  0
  7  8  1  0
  8  9  1  0
  9 10  1  0
  4 11  1  0
 11 12  2  0
 12 13  1  0
 13 14  1  0
 14 15  1  0
 15 16  2  0
 16 17  1  0
 10  8  1  0
 16 11  1  0
M  END
