CVD-0002604|dock_bobby27042020.90|mol2|41|dock1
     RDKit          3D

 21 22  0  0  0  0  0  0  0  0999 V2000
   11.4987   -1.8458   21.8711 C   0  0  0  0  0  0  0  0  0  0  0  0
   10.2429   -1.1160   21.7051 N   0  0  0  0  0  0  0  0  0  0  0  0
    9.1403   -1.9711   21.3816 C   0  0  0  0  0  0  0  0  0  0  0  0
    8.1001   -1.2691   20.6629 N   0  0  0  0  0  0  0  0  0  0  0  0
    7.0448   -2.1954   20.2355 C   0  0  0  0  0  0  0  0  0  0  0  0
    5.9157   -1.4738   19.5264 C   0  0  0  0  0  0  0  0  0  0  0  0
    6.3956   -0.6640   18.3281 C   0  0  0  0  0  0  0  0  0  0  0  0
    5.3716    0.1285   17.7170 O   0  0  0  0  0  0  0  0  0  0  0  0
    7.5581    0.2151   18.7760 C   0  0  0  0  0  0  0  0  0  0  0  0
    8.6407   -0.5770   19.4898 C   0  0  0  0  0  0  0  0  0  0  0  0
    9.9656   -0.1711   22.7476 C   0  0  0  0  0  0  0  0  0  0  0  0
   11.0952    0.6767   23.0638 N   0  0  0  0  0  0  0  0  0  0  0  0
   10.8134    1.4831   24.2550 C   0  0  0  0  0  0  0  0  0  0  0  0
   12.0159    2.3396   24.6059 C   0  0  0  0  0  0  0  0  0  0  0  0
   12.3723    3.2066   23.4807 N   0  0  0  0  0  0  0  0  0  0  0  0
   12.6023    2.4332   22.2564 C   0  0  0  0  0  0  0  0  0  0  0  0
   11.3951    1.5671   21.9455 C   0  0  0  0  0  0  0  0  0  0  0  0
   12.4939    4.5449   23.5983 C   0  0  0  0  0  0  0  0  0  0  0  0
   12.3175    5.1165   24.6669 O   0  0  0  0  0  0  0  0  0  0  0  0
   12.8663    5.3119   22.3445 C   0  0  0  0  0  0  0  0  0  0  0  0
   14.4780    4.8821   21.7573 Cl  0  0  0  0  0  0  0  0  0  0  0  0
  1  2  1  0
  2  3  1  0
  3  4  1  0
  4  5  1  0
  5  6  1  0
  6  7  1  0
  7  8  1  0
  7  9  1  0
  9 10  1  0
  2 11  1  0
 11 12  1  0
 12 13  1  0
 13 14  1  0
 14 15  1  0
 15 16  1  0
 16 17  1  0
 15 18  1  0
 18 19  2  0
 18 20  1  0
 20 21  1  0
 10  4  1  0
 17 12  1  0
M  END
