CVD-0001925|dock_bobby27042020.93|mol2|32|dock2
     RDKit          3D

 23 25  0  0  0  0  0  0  0  0999 V2000
    6.7738    1.9210   22.3541 N   0  0  0  0  0  0  0  0  0  0  0  0
    5.7141    1.0399   22.8946 C   0  0  0  0  0  0  0  0  0  0  0  0
    5.2218    0.0097   21.8896 C   0  0  0  0  0  0  0  0  0  0  0  0
    6.0385   -1.1414   22.0350 O   0  0  0  0  0  0  0  0  0  0  0  0
    7.3034   -1.0203   21.3500 C   0  0  0  0  0  0  0  0  0  0  0  0
    8.2446   -2.0822   21.8859 C   0  0  0  0  0  0  0  0  0  0  0  0
    8.5773   -2.0081   23.3725 C   0  0  0  0  0  0  0  0  0  0  0  0
    9.4158   -0.8044   23.7851 C   0  0  0  0  0  0  0  0  0  0  0  0
   10.7309   -0.6068   23.0299 C   0  0  0  0  0  0  0  0  0  0  0  0
   11.5692   -1.9016   23.0225 C   0  0  0  0  0  0  0  0  0  0  0  0
   12.9220   -1.7162   22.3378 C   0  0  0  0  0  0  0  0  0  0  0  0
   13.6984   -0.5567   22.9483 C   0  0  0  0  0  0  0  0  0  0  0  0
   12.8792    0.7258   22.9245 C   0  0  0  0  0  0  0  0  0  0  0  0
   11.5471    0.5431   23.6445 C   0  0  0  0  0  0  0  0  0  0  0  0
    6.9545   -1.0644   19.8383 C   0  0  0  0  0  0  0  0  0  0  0  0
    6.0781    0.1395   19.5315 C   0  0  0  0  0  0  0  0  0  0  0  0
    6.0464    0.7584   18.2753 C   0  0  0  0  0  0  0  0  0  0  0  0
    7.0417    0.5421   17.3586 O   0  0  0  0  0  0  0  0  0  0  0  0
    5.0703    1.7024   17.9665 C   0  0  0  0  0  0  0  0  0  0  0  0
    5.1127    2.3311   16.7628 O   0  0  0  0  0  0  0  0  0  0  0  0
    4.1069    2.0481   18.9051 C   0  0  0  0  0  0  0  0  0  0  0  0
    4.1290    1.4439   20.1477 C   0  0  0  0  0  0  0  0  0  0  0  0
    5.1030    0.4968   20.4678 C   0  0  0  0  0  0  0  0  0  0  0  0
  1  2  1  0
  2  3  1  0
  3  4  1  0
  4  5  1  0
  5  6  1  0
  6  7  1  0
  7  8  1  0
  8  9  1  0
  9 10  1  0
 10 11  1  0
 11 12  1  0
 12 13  1  0
 13 14  1  0
  5 15  1  0
 15 16  1  0
 16 17  2  0
 17 18  1  0
 17 19  1  0
 19 20  1  0
 19 21  2  0
 21 22  1  0
 22 23  2  0
 23  3  1  0
 14  9  1  0
 23 16  1  0
M  END
