CVD-0001345|dock_bobby27042020.95|mol2|35|dock2
     RDKit          3D

 28 30  0  0  0  0  0  0  0  0999 V2000
    7.4775   -6.3635   22.3947 C   0  0  0  0  0  0  0  0  0  0  0  0
    6.2721   -5.5193   22.7201 C   0  0  0  0  0  0  0  0  0  0  0  0
    5.0876   -6.1610   23.0692 C   0  0  0  0  0  0  0  0  0  0  0  0
    3.9690   -5.4162   23.3686 C   0  0  0  0  0  0  0  0  0  0  0  0
    3.9538   -4.0867   23.3426 N   0  0  0  0  0  0  0  0  0  0  0  0
    5.0854   -3.4590   23.0076 C   0  0  0  0  0  0  0  0  0  0  0  0
    6.2759   -4.1113   22.6854 C   0  0  0  0  0  0  0  0  0  0  0  0
    7.4818   -3.4457   22.3277 N   0  0  0  0  0  0  0  0  0  0  0  0
    7.7098   -2.1436   22.0256 C   0  0  0  0  0  0  0  0  0  0  0  0
    6.8702   -1.2501   22.0042 O   0  0  0  0  0  0  0  0  0  0  0  0
    9.1537   -1.8510   21.6981 C   0  0  0  0  0  0  0  0  0  0  0  0
   10.0489   -1.9794   22.9203 C   0  0  0  0  0  0  0  0  0  0  0  0
   11.3453   -1.3044   22.7978 N   0  0  0  0  0  0  0  0  0  0  0  0
   12.4617   -2.2328   22.7442 C   0  0  0  0  0  0  0  0  0  0  0  0
   13.7788   -1.5520   23.0488 C   0  0  0  0  0  0  0  0  0  0  0  0
   13.9593   -0.2187   22.3275 C   0  0  0  0  0  0  0  0  0  0  0  0
   12.7776    0.6729   22.5807 C   0  0  0  0  0  0  0  0  0  0  0  0
   12.9019    2.0582   22.5853 C   0  0  0  0  0  0  0  0  0  0  0  0
   11.8095    2.8762   22.7984 C   0  0  0  0  0  0  0  0  0  0  0  0
   10.5698    2.2980   23.0108 C   0  0  0  0  0  0  0  0  0  0  0  0
   10.4078    0.9195   23.0133 C   0  0  0  0  0  0  0  0  0  0  0  0
   11.5134    0.0984   22.7978 C   0  0  0  0  0  0  0  0  0  0  0  0
    9.1587    3.3305   23.2681 S   0  0  0  0  0  0  0  0  0  0  0  0
    9.5262    4.8173   22.8015 N   0  0  0  0  0  0  0  0  0  0  0  0
    8.9146    3.3776   24.6785 O   0  0  0  0  0  0  0  0  0  0  0  0
    8.1203    2.8592   22.4016 O   0  0  0  0  0  0  0  0  0  0  0  0
   13.9177   -1.2872   24.4892 C   0  0  0  0  0  0  0  0  0  0  0  0
   14.0080   -1.0467   25.5988 N   0  0  0  0  0  0  0  0  0  0  0  0
  1  2  1  0
  2  3  2  0
  3  4  1  0
  4  5  2  0
  5  6  1  0
  6  7  2  0
  7  8  1  0
  8  9  1  0
  9 10  2  0
  9 11  1  0
 11 12  1  0
 12 13  1  0
 13 14  1  0
 14 15  1  0
 15 16  1  0
 16 17  1  0
 17 18  2  0
 18 19  1  0
 19 20  2  0
 20 21  1  0
 21 22  2  0
 20 23  1  0
 23 24  1  0
 23 25  2  0
 23 26  2  0
 15 27  1  0
 27 28  3  0
  7  2  1  0
 22 13  1  0
 22 17  1  0
M  END
