CVD-0002602|dock_bobby27042020.19|mol2|17|dock1
     RDKit          3D

 22 23  0  0  0  0  0  0  0  0999 V2000
   10.3162   -2.6655   21.7389 O   0  0  0  0  0  0  0  0  0  0  0  0
   10.8991   -1.6732   22.5854 C   0  0  0  0  0  0  0  0  0  0  0  0
   10.0903   -1.4783   23.8662 C   0  0  0  0  0  0  0  0  0  0  0  0
    9.5367   -2.7394   24.3774 N   0  0  0  0  0  0  0  0  0  0  0  0
   10.6044   -3.7150   24.6271 C   0  0  0  0  0  0  0  0  0  0  0  0
   10.0525   -5.0440   25.1043 C   0  0  0  0  0  0  0  0  0  0  0  0
    9.1877   -4.9081   26.3517 C   0  0  0  0  0  0  0  0  0  0  0  0
    8.5511   -6.1254   26.7495 O   0  0  0  0  0  0  0  0  0  0  0  0
    8.1514   -3.8179   26.1022 C   0  0  0  0  0  0  0  0  0  0  0  0
    8.7797   -2.5235   25.6134 C   0  0  0  0  0  0  0  0  0  0  0  0
   10.9690   -0.3717   21.7828 C   0  0  0  0  0  0  0  0  0  0  0  0
   11.9321   -0.4913   20.7664 O   0  0  0  0  0  0  0  0  0  0  0  0
   11.2726    0.7862   22.6283 N   0  0  0  0  0  0  0  0  0  0  0  0
   10.9625    2.0473   21.9352 C   0  0  0  0  0  0  0  0  0  0  0  0
   11.2314    3.2301   22.8289 C   0  0  0  0  0  0  0  0  0  0  0  0
   12.6212    3.2206   23.2962 N   0  0  0  0  0  0  0  0  0  0  0  0
   12.9902    1.9559   23.9292 C   0  0  0  0  0  0  0  0  0  0  0  0
   12.6906    0.8119   22.9901 C   0  0  0  0  0  0  0  0  0  0  0  0
   13.4653    4.2716   23.3073 C   0  0  0  0  0  0  0  0  0  0  0  0
   14.6188    4.1733   23.7067 O   0  0  0  0  0  0  0  0  0  0  0  0
   12.9118    5.5853   22.7916 C   0  0  0  0  0  0  0  0  0  0  0  0
   14.0893    6.8892   22.9933 Cl  0  0  0  0  0  0  0  0  0  0  0  0
  1  2  1  0
  2  3  1  0
  3  4  1  0
  4  5  1  0
  5  6  1  0
  6  7  1  0
  7  8  1  0
  7  9  1  0
  9 10  1  0
  2 11  1  0
 11 12  1  0
 11 13  1  0
 13 14  1  0
 14 15  1  0
 15 16  1  0
 16 17  1  0
 17 18  1  0
 16 19  1  0
 19 20  2  0
 19 21  1  0
 21 22  1  0
 10  4  1  0
 18 13  1  0
M  END
