CVD-0001702|dock_bobby27042020.80|mol2|19|dock3
     RDKit          3D

 20 20  0  0  0  0  0  0  0  0999 V2000
    6.2222    1.8748   21.6515 C   0  0  0  0  0  0  0  0  0  0  0  0
    5.8137    0.4573   21.2838 C   0  0  0  0  0  0  0  0  0  0  0  0
    5.2818    0.3031   19.8539 C   0  0  0  0  0  0  0  0  0  0  0  0
    6.3855    0.4619   18.8225 C   0  0  0  0  0  0  0  0  0  0  0  0
    7.5117   -0.5276   19.1153 C   0  0  0  0  0  0  0  0  0  0  0  0
    8.0107   -0.3386   20.5535 C   0  0  0  0  0  0  0  0  0  0  0  0
    9.1317   -1.1686   20.9408 N   0  0  0  0  0  0  0  0  0  0  0  0
    9.9796   -0.6184   21.9613 C   0  0  0  0  0  0  0  0  0  0  0  0
   11.2391   -1.7472   22.4437 S   0  0  0  0  0  0  0  0  0  0  0  0
   12.2601   -1.8609   21.2154 N   0  0  0  0  0  0  0  0  0  0  0  0
   11.9112   -1.1295   23.5510 O   0  0  0  0  0  0  0  0  0  0  0  0
   10.5818   -3.0106   22.6201 O   0  0  0  0  0  0  0  0  0  0  0  0
    6.9324   -0.4773   21.5746 N   0  0  0  0  0  0  0  0  0  0  0  0
    6.3979   -1.8382   21.5213 C   0  0  0  0  0  0  0  0  0  0  0  0
    7.3979   -2.9032   21.9414 C   0  0  0  0  0  0  0  0  0  0  0  0
    6.7068   -4.1559   22.3393 C   0  0  0  0  0  0  0  0  0  0  0  0
    6.1231   -3.9967   23.5651 F   0  0  0  0  0  0  0  0  0  0  0  0
    6.6129   -5.2895   21.6895 C   0  0  0  0  0  0  0  0  0  0  0  0
    5.9104   -6.5528   22.1007 C   0  0  0  0  0  0  0  0  0  0  0  0
    5.2206   -6.4619   23.3394 O   0  0  0  0  0  0  0  0  0  0  0  0
  1  2  1  0
  2  3  1  0
  3  4  1  0
  4  5  1  0
  5  6  1  0
  6  7  1  0
  7  8  1  0
  8  9  1  0
  9 10  1  0
  9 11  2  0
  9 12  2  0
  6 13  1  0
 13 14  1  0
 14 15  1  0
 15 16  1  0
 16 17  1  0
 16 18  2  0
 18 19  1  0
 19 20  1  0
 13  2  1  0
M  END
