CVD-0003364|dock_bobby27042020.2|mol2|19|dock3
     RDKit          3D

 30 31  0  0  0  0  0  0  0  0999 V2000
    6.5186   -0.0588   19.3075 C   0  0  0  0  0  0  0  0  0  0  0  0
    7.6796   -0.7377   19.9728 C   0  0  0  0  0  0  0  0  0  0  0  0
    8.7200   -0.9834   19.3705 O   0  0  0  0  0  0  0  0  0  0  0  0
    7.5192   -1.0438   21.2649 N   0  0  0  0  0  0  0  0  0  0  0  0
    8.5709   -1.6876   22.0346 C   0  0  0  0  0  0  0  0  0  0  0  0
    7.9754   -2.5178   23.1826 C   0  0  0  0  0  0  0  0  0  0  0  0
    7.6740   -3.9443   22.7918 C   0  0  0  0  0  0  0  0  0  0  0  0
    6.6409   -4.2356   21.9144 C   0  0  0  0  0  0  0  0  0  0  0  0
    6.3621   -5.5445   21.5581 C   0  0  0  0  0  0  0  0  0  0  0  0
    7.1129   -6.5777   22.0760 C   0  0  0  0  0  0  0  0  0  0  0  0
    8.1421   -6.3022   22.9504 C   0  0  0  0  0  0  0  0  0  0  0  0
    8.4205   -4.9931   23.3063 C   0  0  0  0  0  0  0  0  0  0  0  0
    9.4990   -0.6096   22.5961 C   0  0  0  0  0  0  0  0  0  0  0  0
    9.0298    0.4626   22.9276 O   0  0  0  0  0  0  0  0  0  0  0  0
   10.8090   -0.8809   22.7070 N   0  0  0  0  0  0  0  0  0  0  0  0
   11.4608   -2.1481   22.3444 C   0  0  0  0  0  0  0  0  0  0  0  0
   12.9410   -1.9458   22.6377 C   0  0  0  0  0  0  0  0  0  0  0  0
   13.1265   -0.5140   23.0851 C   0  0  0  0  0  0  0  0  0  0  0  0
   11.7311    0.1516   23.1998 C   0  0  0  0  0  0  0  0  0  0  0  0
   11.5416    1.4784   22.4678 C   0  0  0  0  0  0  0  0  0  0  0  0
   10.7228    1.5715   21.5558 O   0  0  0  0  0  0  0  0  0  0  0  0
   12.3206    2.4820   22.8948 N   0  0  0  0  0  0  0  0  0  0  0  0
   12.1769    3.7631   22.1703 C   0  0  0  0  0  0  0  0  0  0  0  0
   11.0611    4.6144   22.7827 C   0  0  0  0  0  0  0  0  0  0  0  0
    9.6165    4.1159   22.7821 C   0  0  0  0  0  0  0  0  0  0  0  0
    8.5360    5.1664   22.9677 C   0  0  0  0  0  0  0  0  0  0  0  0
    8.5078    6.1642   21.8955 N   0  0  0  0  0  0  0  0  0  0  0  0
   13.5851    4.4662   22.1295 B   0  0  0  0  0  0  0  0  0  0  0  0
   14.2754    4.5972   23.2953 O   0  0  0  0  0  0  0  0  0  0  0  0
   13.8124    5.3991   21.1651 O   0  0  0  0  0  0  0  0  0  0  0  0
  1  2  1  0
  2  3  2  0
  2  4  1  0
  4  5  1  0
  5  6  1  0
  6  7  1  0
  7  8  2  0
  8  9  1  0
  9 10  2  0
 10 11  1  0
 11 12  2  0
  5 13  1  0
 13 14  2  0
 13 15  1  0
 15 16  1  0
 16 17  1  0
 17 18  1  0
 18 19  1  0
 19 20  1  0
 20 21  2  0
 20 22  1  0
 22 23  1  0
 23 24  1  0
 24 25  1  0
 25 26  1  0
 26 27  1  0
 23 28  1  0
 28 29  1  0
 28 30  1  0
 12  7  1  0
 19 15  1  0
M  END
