CVD-0002754|dock_bobby27042020.62|mol2|6|dock1
     RDKit          3D

 23 26  0  0  0  0  0  0  0  0999 V2000
    5.0384    1.5568   22.2352 N   0  0  0  0  0  0  0  0  0  0  0  0
    5.7843    0.5854   21.7340 C   0  0  0  0  0  0  0  0  0  0  0  0
    6.7374    0.0997   22.3478 O   0  0  0  0  0  0  0  0  0  0  0  0
    5.3938    0.1026   20.3505 C   0  0  0  0  0  0  0  0  0  0  0  0
    5.6197    1.2550   19.3581 C   0  0  0  0  0  0  0  0  0  0  0  0
    6.4755    0.6751   18.2338 C   0  0  0  0  0  0  0  0  0  0  0  0
    5.7932    0.6983   16.9770 O   0  0  0  0  0  0  0  0  0  0  0  0
    6.8010   -0.6048   18.5631 C   0  0  0  0  0  0  0  0  0  0  0  0
    6.2229   -1.1053   19.7931 C   0  0  0  0  0  0  0  0  0  0  0  0
    7.2014   -1.7175   20.7667 C   0  0  0  0  0  0  0  0  0  0  0  0
    6.9613   -2.8512   21.4856 C   0  0  0  0  0  0  0  0  0  0  0  0
    8.2763   -3.2706   22.5015 S   0  0  0  0  0  0  0  0  0  0  0  0
    9.1880   -1.9144   21.9822 C   0  0  0  0  0  0  0  0  0  0  0  0
    8.4893   -1.1872   21.0650 C   0  0  0  0  0  0  0  0  0  0  0  0
   10.5219   -1.6874   22.5307 C   0  0  0  0  0  0  0  0  0  0  0  0
   11.0562   -2.5559   23.4835 C   0  0  0  0  0  0  0  0  0  0  0  0
   12.3411   -2.2838   23.9710 C   0  0  0  0  0  0  0  0  0  0  0  0
   13.2015   -2.9172   24.9208 C   0  0  0  0  0  0  0  0  0  0  0  0
   14.3355   -2.1792   24.9705 C   0  0  0  0  0  0  0  0  0  0  0  0
   14.2396   -1.1159   24.1058 N   0  0  0  0  0  0  0  0  0  0  0  0
   13.0184   -1.1560   23.4756 C   0  0  0  0  0  0  0  0  0  0  0  0
   12.4019   -0.3511   22.5267 C   0  0  0  0  0  0  0  0  0  0  0  0
   11.1737   -0.6116   22.0612 N   0  0  0  0  0  0  0  0  0  0  0  0
  1  2  1  0
  2  3  2  0
  4  2  1  0
  4  5  1  0
  5  6  1  0
  6  7  1  0
  6  8  1  0
  8  9  1  0
  9 10  1  0
 10 11  2  0
 11 12  1  0
 12 13  1  0
 13 14  2  0
 13 15  1  0
 15 16  2  0
 16 17  1  0
 17 18  1  0
 18 19  2  0
 19 20  1  0
 20 21  1  0
 21 22  1  0
 22 23  2  0
  9  4  1  0
 14 10  1  0
 23 15  1  0
 21 17  2  0
M  END
