CVD-0003326|dock_bobby27042020.45|mol2|36|dock1
     RDKit          3D

 20 21  0  0  0  0  0  0  0  0999 V2000
   13.8244    5.2699   21.8695 Cl  0  0  0  0  0  0  0  0  0  0  0  0
   12.5515    4.2172   22.3309 C   0  0  0  0  0  0  0  0  0  0  0  0
   11.2591    4.5496   22.5209 C   0  0  0  0  0  0  0  0  0  0  0  0
   10.4923    3.4481   22.8916 C   0  0  0  0  0  0  0  0  0  0  0  0
   11.2183    2.2677   22.9831 C   0  0  0  0  0  0  0  0  0  0  0  0
   12.8775    2.5553   22.5964 S   0  0  0  0  0  0  0  0  0  0  0  0
   10.7176    0.8885   23.3553 C   0  0  0  0  0  0  0  0  0  0  0  0
    9.5988    0.4259   22.4029 C   0  0  0  0  0  0  0  0  0  0  0  0
    9.3785   -1.0554   22.4641 C   0  0  0  0  0  0  0  0  0  0  0  0
    9.4071   -1.7913   23.5531 C   0  0  0  0  0  0  0  0  0  0  0  0
    9.1850   -3.2058   23.5205 C   0  0  0  0  0  0  0  0  0  0  0  0
    8.9804   -4.3315   23.5396 N   0  0  0  0  0  0  0  0  0  0  0  0
   11.8864   -0.0837   23.3823 C   0  0  0  0  0  0  0  0  0  0  0  0
   12.5914   -0.3141   24.5556 C   0  0  0  0  0  0  0  0  0  0  0  0
   13.6582   -1.1971   24.5799 C   0  0  0  0  0  0  0  0  0  0  0  0
   14.0352   -1.8627   23.4260 C   0  0  0  0  0  0  0  0  0  0  0  0
   13.3381   -1.6400   22.2434 C   0  0  0  0  0  0  0  0  0  0  0  0
   12.2663   -0.7503   22.2268 C   0  0  0  0  0  0  0  0  0  0  0  0
   13.7199   -2.3259   21.0336 C   0  0  0  0  0  0  0  0  0  0  0  0
   14.0287   -2.8396   20.0613 N   0  0  0  0  0  0  0  0  0  0  0  0
  1  2  1  0
  2  3  2  0
  3  4  1  0
  4  5  2  0
  5  6  1  0
  5  7  1  0
  7  8  1  0
  8  9  1  0
  9 10  2  0
 10 11  1  0
 11 12  3  0
  7 13  1  0
 13 14  2  0
 14 15  1  0
 15 16  2  0
 16 17  1  0
 17 18  2  0
 17 19  1  0
 19 20  3  0
  6  2  1  0
 18 13  1  0
M  END
