CVD-0002964|dock_bobby27042020.75|mol2|22|dock2
     RDKit          3D

 25 27  0  0  0  0  0  0  0  0999 V2000
   14.1184   -0.8182   22.3757 C   0  0  0  0  0  0  0  0  0  0  0  0
   12.7024   -0.5196   22.4013 O   0  0  0  0  0  0  0  0  0  0  0  0
   12.2658    0.1333   23.4749 C   0  0  0  0  0  0  0  0  0  0  0  0
   12.9832    0.5731   24.3354 O   0  0  0  0  0  0  0  0  0  0  0  0
   10.7529    0.2473   23.4675 C   0  0  0  0  0  0  0  0  0  0  0  0
   10.2444    1.1077   22.3222 C   0  0  0  0  0  0  0  0  0  0  0  0
    8.8070    1.1028   22.2737 O   0  0  0  0  0  0  0  0  0  0  0  0
    8.2483   -0.1708   22.0401 C   0  0  0  0  0  0  0  0  0  0  0  0
    6.7426   -0.0454   21.8716 C   0  0  0  0  0  0  0  0  0  0  0  0
    6.2636   -0.2372   20.4531 C   0  0  0  0  0  0  0  0  0  0  0  0
    6.0085   -1.5055   19.9555 C   0  0  0  0  0  0  0  0  0  0  0  0
    5.5659   -1.6800   18.6548 C   0  0  0  0  0  0  0  0  0  0  0  0
    5.3708   -0.5842   17.8311 C   0  0  0  0  0  0  0  0  0  0  0  0
    5.6246    0.6740   18.3311 C   0  0  0  0  0  0  0  0  0  0  0  0
    5.3836    2.0626   17.3081 Cl  0  0  0  0  0  0  0  0  0  0  0  0
    6.0658    0.8602   19.6251 C   0  0  0  0  0  0  0  0  0  0  0  0
    8.6297   -1.1517   23.1671 C   0  0  0  0  0  0  0  0  0  0  0  0
   10.1315   -1.1187   23.3802 C   0  0  0  0  0  0  0  0  0  0  0  0
   10.8176   -2.1121   23.4852 O   0  0  0  0  0  0  0  0  0  0  0  0
   10.6777    2.5398   22.4972 C   0  0  0  0  0  0  0  0  0  0  0  0
   11.9764    2.9415   22.2246 C   0  0  0  0  0  0  0  0  0  0  0  0
   12.3388    4.2656   22.4005 C   0  0  0  0  0  0  0  0  0  0  0  0
   11.3856    5.1529   22.8474 C   0  0  0  0  0  0  0  0  0  0  0  0
   10.1286    4.7992   23.1199 N   0  0  0  0  0  0  0  0  0  0  0  0
    9.8015    3.5156   22.9428 C   0  0  0  0  0  0  0  0  0  0  0  0
  1  2  1  0
  2  3  1  0
  3  4  2  0
  3  5  1  0
  5  6  1  0
  6  7  1  0
  7  8  1  0
  8  9  1  0
  9 10  1  0
 10 11  2  0
 11 12  1  0
 12 13  2  0
 13 14  1  0
 14 15  1  0
 14 16  2  0
  8 17  1  0
 17 18  1  0
 18 19  2  0
  6 20  1  0
 20 21  2  0
 21 22  1  0
 22 23  2  0
 23 24  1  0
 24 25  2  0
 18  5  1  0
 25 20  1  0
 16 10  1  0
M  END
