CVD-0001585|dock_bobby27042020.66|mol2|37|dock1
     RDKit          3D

 19 20  0  0  0  0  0  0  0  0999 V2000
   13.3971    5.2901   21.6091 C   0  0  0  0  0  0  0  0  0  0  0  0
   12.2172    5.6089   22.3433 O   0  0  0  0  0  0  0  0  0  0  0  0
   11.3440    4.6041   22.6598 C   0  0  0  0  0  0  0  0  0  0  0  0
   11.6786    3.2586   22.7442 C   0  0  0  0  0  0  0  0  0  0  0  0
   10.7058    2.3201   23.0948 C   0  0  0  0  0  0  0  0  0  0  0  0
   10.7178    0.8925   23.2755 C   0  0  0  0  0  0  0  0  0  0  0  0
    9.4508    0.5412   23.6337 C   0  0  0  0  0  0  0  0  0  0  0  0
    8.6477    1.6472   23.6832 N   0  0  0  0  0  0  0  0  0  0  0  0
    9.3912    2.7541   23.3540 C   0  0  0  0  0  0  0  0  0  0  0  0
    9.0570    4.0971   23.2545 C   0  0  0  0  0  0  0  0  0  0  0  0
   10.0343    5.0086   22.9091 C   0  0  0  0  0  0  0  0  0  0  0  0
    9.6156    6.6860   22.7867 Cl  0  0  0  0  0  0  0  0  0  0  0  0
   11.9015   -0.0195   23.1034 C   0  0  0  0  0  0  0  0  0  0  0  0
   12.6296   -0.2243   24.4297 C   0  0  0  0  0  0  0  0  0  0  0  0
   11.4871   -1.3906   22.5511 C   0  0  0  0  0  0  0  0  0  0  0  0
   12.2770   -1.8348   21.4087 N   0  0  0  0  0  0  0  0  0  0  0  0
   13.5227   -2.3039   21.5180 C   0  0  0  0  0  0  0  0  0  0  0  0
   14.1767   -2.7332   20.2379 C   0  0  0  0  0  0  0  0  0  0  0  0
   14.0981   -2.3960   22.5981 O   0  0  0  0  0  0  0  0  0  0  0  0
  1  2  1  0
  2  3  1  0
  3  4  2  0
  4  5  1  0
  5  6  1  0
  6  7  2  0
  7  8  1  0
  8  9  1  0
  9 10  1  0
 10 11  2  0
 11 12  1  0
  6 13  1  0
 13 14  1  0
 13 15  1  0
 15 16  1  0
 16 17  1  0
 17 18  1  0
 17 19  2  0
 11  3  1  0
  9  5  2  0
M  END
