CVD-0001693|dock_bobby27042020.9|mol2|1|dock1
     RDKit          3D

 17 17  0  0  0  0  0  0  0  0999 V2000
   13.4945   -1.8003   22.7381 C   0  0  0  0  0  0  0  0  0  0  0  0
   12.3787   -1.8516   21.8112 N   0  0  0  0  0  0  0  0  0  0  0  0
   11.1181   -2.0318   22.2385 C   0  0  0  0  0  0  0  0  0  0  0  0
   10.8680   -2.1597   23.4339 O   0  0  0  0  0  0  0  0  0  0  0  0
   10.1300   -2.0649   21.2489 N   0  0  0  0  0  0  0  0  0  0  0  0
    8.7566   -2.2372   21.4117 C   0  0  0  0  0  0  0  0  0  0  0  0
    7.8464   -1.2991   21.1240 C   0  0  0  0  0  0  0  0  0  0  0  0
    6.4398   -1.8115   21.3208 C   0  0  0  0  0  0  0  0  0  0  0  0
    6.6257   -3.2178   21.8428 C   0  0  0  0  0  0  0  0  0  0  0  0
    5.9934   -4.1847   20.9998 O   0  0  0  0  0  0  0  0  0  0  0  0
    8.1083   -3.5025   21.9200 C   0  0  0  0  0  0  0  0  0  0  0  0
    8.1012    0.1147   20.6460 C   0  0  0  0  0  0  0  0  0  0  0  0
    8.4709    1.0362   21.8093 C   0  0  0  0  0  0  0  0  0  0  0  0
    6.8772    0.6789   19.9374 C   0  0  0  0  0  0  0  0  0  0  0  0
    6.2204    1.5896   20.4353 O   0  0  0  0  0  0  0  0  0  0  0  0
    6.5774    0.1297   18.7685 N   0  0  0  0  0  0  0  0  0  0  0  0
    5.4403    0.5641   17.9781 C   0  0  0  0  0  0  0  0  0  0  0  0
  1  2  1  0
  2  3  1  0
  3  4  2  0
  3  5  1  0
  5  6  1  0
  6  7  2  0
  7  8  1  0
  8  9  1  0
  9 10  1  0
  9 11  1  0
  7 12  1  0
 12 13  1  0
 12 14  1  0
 14 15  2  0
 14 16  1  0
 16 17  1  0
 11  6  1  0
M  END
