CVD-0001485|dock_bobby27042020.52|mol2|29|dock1
     RDKit          3D

 22 23  0  0  0  0  0  0  0  0999 V2000
    5.8148    0.8164   18.3420 C   0  0  0  0  0  0  0  0  0  0  0  0
    7.1674    0.1891   18.4720 C   0  0  0  0  0  0  0  0  0  0  0  0
    7.5147   -0.0426   19.8640 N   0  0  0  0  0  0  0  0  0  0  0  0
    7.3074   -1.2178   20.4810 C   0  0  0  0  0  0  0  0  0  0  0  0
    6.3982   -2.0406   19.9214 N   0  0  0  0  0  0  0  0  0  0  0  0
    6.1690   -3.2171   20.5144 C   0  0  0  0  0  0  0  0  0  0  0  0
    6.8170   -3.6318   21.6713 C   0  0  0  0  0  0  0  0  0  0  0  0
    7.7528   -2.7736   22.2371 C   0  0  0  0  0  0  0  0  0  0  0  0
    8.0228   -1.5414   21.6525 C   0  0  0  0  0  0  0  0  0  0  0  0
    9.0453   -0.6351   22.2993 C   0  0  0  0  0  0  0  0  0  0  0  0
    9.9685   -1.3450   23.1973 N   0  0  0  0  0  0  0  0  0  0  0  0
   10.7282   -2.1286   22.1753 C   0  0  0  0  0  0  0  0  0  0  0  0
   11.9528   -1.3868   21.6664 C   0  0  0  0  0  0  0  0  0  0  0  0
   13.1892   -1.3943   22.5441 C   0  0  0  0  0  0  0  0  0  0  0  0
   12.9249   -0.8858   23.8874 N   0  0  0  0  0  0  0  0  0  0  0  0
   11.8680    0.1086   24.0007 C   0  0  0  0  0  0  0  0  0  0  0  0
   10.4758   -0.4373   24.2647 C   0  0  0  0  0  0  0  0  0  0  0  0
   13.5937   -1.3098   24.9926 C   0  0  0  0  0  0  0  0  0  0  0  0
   14.6711   -2.3465   24.8569 C   0  0  0  0  0  0  0  0  0  0  0  0
   13.3099   -0.8553   26.0952 O   0  0  0  0  0  0  0  0  0  0  0  0
    6.5315   -4.9119   22.2711 C   0  0  0  0  0  0  0  0  0  0  0  0
    6.3122   -5.9404   22.7169 N   0  0  0  0  0  0  0  0  0  0  0  0
  1  2  1  0
  2  3  1  0
  3  4  1  0
  4  5  2  0
  5  6  1  0
  6  7  2  0
  7  8  1  0
  8  9  2  0
  9 10  1  0
 10 11  1  0
 11 12  1  0
 12 13  1  0
 13 14  1  0
 14 15  1  0
 15 16  1  0
 16 17  1  0
 15 18  1  0
 18 19  1  0
 18 20  2  0
  7 21  1  0
 21 22  3  0
  9  4  1  0
 17 11  1  0
M  END
