CVD-0000551|dock_bobby27042020.69|mol2|48|dock3
     RDKit          3D

 29 31  0  0  0  0  0  0  0  0999 V2000
   13.2331    5.2777   21.2306 N   0  0  0  0  0  0  0  0  0  0  0  0
   13.5078    4.4428   22.5687 S   0  0  0  0  0  0  0  0  0  0  0  0
   14.6445    3.6076   22.3210 O   0  0  0  0  0  0  0  0  0  0  0  0
   13.5610    5.3808   23.6497 O   0  0  0  0  0  0  0  0  0  0  0  0
   12.1258    3.3804   22.8595 C   0  0  0  0  0  0  0  0  0  0  0  0
   10.8402    3.8725   22.7059 C   0  0  0  0  0  0  0  0  0  0  0  0
    9.7648    3.0308   22.9315 C   0  0  0  0  0  0  0  0  0  0  0  0
    9.9705    1.7133   23.3042 C   0  0  0  0  0  0  0  0  0  0  0  0
   11.2611    1.2349   23.4511 C   0  0  0  0  0  0  0  0  0  0  0  0
   11.4292   -0.0991   23.8270 O   0  0  0  0  0  0  0  0  0  0  0  0
   12.2127   -0.9735   23.0717 C   0  0  0  0  0  0  0  0  0  0  0  0
   11.8098   -1.4278   21.8063 C   0  0  0  0  0  0  0  0  0  0  0  0
   10.5337   -1.0048   21.3463 N   0  0  0  0  0  0  0  0  0  0  0  0
    9.5864   -1.7152   20.6496 C   0  0  0  0  0  0  0  0  0  0  0  0
    9.6797   -2.8846   20.2884 O   0  0  0  0  0  0  0  0  0  0  0  0
    8.4842   -0.9440   20.3905 N   0  0  0  0  0  0  0  0  0  0  0  0
    7.2169   -0.5024   19.9379 C   0  0  0  0  0  0  0  0  0  0  0  0
    7.0853    0.7817   19.4262 C   0  0  0  0  0  0  0  0  0  0  0  0
    5.8487    1.2165   18.9830 C   0  0  0  0  0  0  0  0  0  0  0  0
    4.7799    0.3545   19.0645 C   0  0  0  0  0  0  0  0  0  0  0  0
    4.8745   -0.8835   19.5506 N   0  0  0  0  0  0  0  0  0  0  0  0
    6.0715   -1.2980   19.9771 C   0  0  0  0  0  0  0  0  0  0  0  0
   12.6807   -2.2583   21.1025 C   0  0  0  0  0  0  0  0  0  0  0  0
   13.8652   -2.6578   21.5759 N   0  0  0  0  0  0  0  0  0  0  0  0
   14.2230   -2.2547   22.7955 C   0  0  0  0  0  0  0  0  0  0  0  0
   13.4381   -1.4119   23.5885 C   0  0  0  0  0  0  0  0  0  0  0  0
   13.8698   -0.9988   24.8983 C   0  0  0  0  0  0  0  0  0  0  0  0
   14.2450   -0.6763   25.9278 N   0  0  0  0  0  0  0  0  0  0  0  0
   12.3527    2.0636   23.2304 C   0  0  0  0  0  0  0  0  0  0  0  0
  1  2  1  0
  2  3  2  0
  2  4  2  0
  2  5  1  0
  5  6  2  0
  6  7  1  0
  7  8  2  0
  8  9  1  0
  9 10  1  0
 10 11  1  0
 11 12  1  0
 12 13  1  0
 13 14  1  0
 14 15  2  0
 14 16  1  0
 16 17  1  0
 17 18  2  0
 18 19  1  0
 19 20  2  0
 20 21  1  0
 21 22  2  0
 12 23  2  0
 23 24  1  0
 24 25  2  0
 25 26  1  0
 26 27  1  0
 27 28  3  0
  9 29  2  0
 29  5  1  0
 26 11  2  0
 22 17  1  0
M  END
