CVD-0003680|dock_bobby27042020.1|mol2|18|dock2
     RDKit          3D

 29 31  0  0  0  0  0  0  0  0999 V2000
   11.0810   -0.6208   21.2531 O   0  0  0  0  0  0  0  0  0  0  0  0
   11.2941   -1.5395   22.3217 C   0  0  0  0  0  0  0  0  0  0  0  0
   11.7123   -0.7826   23.5754 C   0  0  0  0  0  0  0  0  0  0  0  0
   12.7710    0.2945   23.3634 C   0  0  0  0  0  0  0  0  0  0  0  0
   12.2358    1.6619   22.9681 C   0  0  0  0  0  0  0  0  0  0  0  0
   13.2820    2.7513   22.7521 C   0  0  0  0  0  0  0  0  0  0  0  0
   12.7479    4.1617   22.4772 C   0  0  0  0  0  0  0  0  0  0  0  0
   12.2735    4.8707   23.6542 N   0  0  0  0  0  0  0  0  0  0  0  0
   12.7788    6.1099   23.7489 C   0  0  0  0  0  0  0  0  0  0  0  0
   12.4933    6.9592   24.5889 O   0  0  0  0  0  0  0  0  0  0  0  0
   13.6843    6.2727   22.7191 N   0  0  0  0  0  0  0  0  0  0  0  0
   13.7747    5.1550   21.9435 C   0  0  0  0  0  0  0  0  0  0  0  0
   14.4992    5.0175   20.9615 O   0  0  0  0  0  0  0  0  0  0  0  0
   10.0574   -2.3804   22.5631 C   0  0  0  0  0  0  0  0  0  0  0  0
    8.8259   -2.0020   22.0490 C   0  0  0  0  0  0  0  0  0  0  0  0
    7.6972   -2.7718   22.2668 C   0  0  0  0  0  0  0  0  0  0  0  0
    7.7567   -3.9500   23.0063 C   0  0  0  0  0  0  0  0  0  0  0  0
    6.5536   -4.7602   23.2327 C   0  0  0  0  0  0  0  0  0  0  0  0
    6.3107   -5.5231   24.2857 C   0  0  0  0  0  0  0  0  0  0  0  0
    5.1093   -6.3350   24.5165 C   0  0  0  0  0  0  0  0  0  0  0  0
    4.6639   -6.6095   25.8097 C   0  0  0  0  0  0  0  0  0  0  0  0
    3.5267   -7.3784   26.0109 C   0  0  0  0  0  0  0  0  0  0  0  0
    3.1024   -7.6389   27.2811 O   0  0  0  0  0  0  0  0  0  0  0  0
    2.8174   -7.8844   24.9315 C   0  0  0  0  0  0  0  0  0  0  0  0
    3.2568   -7.6139   23.6442 C   0  0  0  0  0  0  0  0  0  0  0  0
    2.5664   -8.1069   22.5756 O   0  0  0  0  0  0  0  0  0  0  0  0
    4.3929   -6.8460   23.4346 C   0  0  0  0  0  0  0  0  0  0  0  0
    8.9967   -4.3241   23.5181 C   0  0  0  0  0  0  0  0  0  0  0  0
   10.1252   -3.5538   23.2999 C   0  0  0  0  0  0  0  0  0  0  0  0
  1  2  1  0
  2  3  1  0
  3  4  1  0
  4  5  1  0
  5  6  1  0
  6  7  1  0
  7  8  1  0
  8  9  1  0
  9 10  2  0
  9 11  1  0
 11 12  1  0
 12 13  2  0
  2 14  1  0
 14 15  2  0
 15 16  1  0
 16 17  2  0
 17 18  1  0
 18 19  2  0
 19 20  1  0
 20 21  2  0
 21 22  1  0
 22 23  1  0
 22 24  2  0
 24 25  1  0
 25 26  1  0
 25 27  2  0
 17 28  1  0
 28 29  2  0
 12  7  1  0
 29 14  1  0
 27 20  1  0
M  END
