CVD-0003798|dock_bobby27042020.58|mol2|33|dock3
     RDKit          3D

 22 24  0  0  0  0  0  0  0  0999 V2000
   13.0769    5.8814   23.2891 N   0  0  0  0  0  0  0  0  0  0  0  0
   13.5456    4.6665   22.3577 S   0  0  0  0  0  0  0  0  0  0  0  0
   14.8328    4.2469   22.8248 O   0  0  0  0  0  0  0  0  0  0  0  0
   13.4096    5.0978   20.9988 O   0  0  0  0  0  0  0  0  0  0  0  0
   12.4315    3.3157   22.5967 C   0  0  0  0  0  0  0  0  0  0  0  0
   12.9264    2.0515   22.8598 C   0  0  0  0  0  0  0  0  0  0  0  0
   12.0494    0.9997   23.0565 C   0  0  0  0  0  0  0  0  0  0  0  0
   10.6706    1.1863   22.9943 C   0  0  0  0  0  0  0  0  0  0  0  0
   10.1979    2.4669   22.7194 C   0  0  0  0  0  0  0  0  0  0  0  0
   11.0664    3.5268   22.5279 C   0  0  0  0  0  0  0  0  0  0  0  0
    9.8112    0.1137   23.2014 N   0  0  0  0  0  0  0  0  0  0  0  0
    8.6031   -0.1039   22.4000 C   0  0  0  0  0  0  0  0  0  0  0  0
    8.4637   -1.5357   21.9659 C   0  0  0  0  0  0  0  0  0  0  0  0
    8.4794   -2.4804   23.1727 C   0  0  0  0  0  0  0  0  0  0  0  0
    9.7359   -2.2289   23.9675 C   0  0  0  0  0  0  0  0  0  0  0  0
    9.8952   -0.7809   24.3792 C   0  0  0  0  0  0  0  0  0  0  0  0
    8.3415   -3.8798   22.7652 N   0  0  0  0  0  0  0  0  0  0  0  0
    7.2390   -4.6115   22.5967 C   0  0  0  0  0  0  0  0  0  0  0  0
    5.9203   -4.0942   22.8066 C   0  0  0  0  0  0  0  0  0  0  0  0
    4.9483   -5.0213   22.5778 C   0  0  0  0  0  0  0  0  0  0  0  0
    5.6390   -6.5003   22.1118 S   0  0  0  0  0  0  0  0  0  0  0  0
    7.2284   -5.9076   22.2146 C   0  0  0  0  0  0  0  0  0  0  0  0
  1  2  1  0
  2  3  2  0
  2  4  2  0
  2  5  1  0
  5  6  2  0
  6  7  1  0
  7  8  2  0
  8  9  1  0
  9 10  2  0
  8 11  1  0
 11 12  1  0
 12 13  1  0
 13 14  1  0
 14 15  1  0
 15 16  1  0
 14 17  1  0
 17 18  1  0
 18 19  1  0
 19 20  2  0
 20 21  1  0
 21 22  1  0
 10  5  1  0
 16 11  1  0
 22 18  2  0
M  END
