CVD-0000913|dock_bobby27042020.11|mol2|25|dock2
     RDKit          3D

 17 18  0  0  0  0  0  0  0  0999 V2000
    8.8863   -2.8211   22.9841 C   0  0  0  0  0  0  0  0  0  0  0  0
    9.4089   -1.4598   22.5437 C   0  0  0  0  0  0  0  0  0  0  0  0
    9.1730   -1.3098   21.1165 N   0  0  0  0  0  0  0  0  0  0  0  0
    8.0033   -0.8670   20.6504 C   0  0  0  0  0  0  0  0  0  0  0  0
    7.0568   -0.5647   21.3705 O   0  0  0  0  0  0  0  0  0  0  0  0
    7.9246   -0.7726   19.1426 C   0  0  0  0  0  0  0  0  0  0  0  0
    6.2689   -0.9086   18.5366 Cl  0  0  0  0  0  0  0  0  0  0  0  0
   10.8651   -1.2144   22.8645 C   0  0  0  0  0  0  0  0  0  0  0  0
   11.7076   -2.1647   23.2992 C   0  0  0  0  0  0  0  0  0  0  0  0
   13.0614   -1.8568   23.5914 C   0  0  0  0  0  0  0  0  0  0  0  0
   14.1934   -3.1657   23.6707 Cl  0  0  0  0  0  0  0  0  0  0  0  0
   13.4735   -0.5953   23.8129 C   0  0  0  0  0  0  0  0  0  0  0  0
   12.4463    0.4805   23.7686 C   0  0  0  0  0  0  0  0  0  0  0  0
   12.8723    1.8508   23.4133 N   0  0  0  0  0  0  0  0  0  0  0  0
   11.8079    2.3749   22.8569 C   0  0  0  0  0  0  0  0  0  0  0  0
   10.6295    1.4831   22.7678 C   0  0  0  0  0  0  0  0  0  0  0  0
   11.4220    0.1738   22.6690 C   0  0  0  0  0  0  0  0  0  0  0  0
  1  2  1  0
  2  3  1  0
  3  4  1  0
  4  5  2  0
  4  6  1  0
  6  7  1  0
  2  8  1  0
  8  9  2  0
  9 10  1  0
 10 11  1  0
 10 12  2  0
 12 13  1  0
 13 14  1  0
 14 15  2  0
 15 16  1  0
 16 17  1  0
 17  8  1  0
 17 13  1  0
M  END
