CVD-0000025|dock_bobby27042020.14|mol2|25|dock3
     RDKit          3D

 27 29  0  0  0  0  0  0  0  0999 V2000
   12.7547   -0.1671   25.4565 C   0  0  0  0  0  0  0  0  0  0  0  0
   12.4101   -0.6039   24.0536 C   0  0  0  0  0  0  0  0  0  0  0  0
   13.4075   -0.8527   23.1256 C   0  0  0  0  0  0  0  0  0  0  0  0
   13.0760   -1.2380   21.8448 C   0  0  0  0  0  0  0  0  0  0  0  0
   14.3466   -1.5485   20.6951 Cl  0  0  0  0  0  0  0  0  0  0  0  0
   11.7621   -1.3819   21.4509 C   0  0  0  0  0  0  0  0  0  0  0  0
   10.7433   -1.1531   22.3736 C   0  0  0  0  0  0  0  0  0  0  0  0
   11.0876   -0.7605   23.6659 C   0  0  0  0  0  0  0  0  0  0  0  0
    9.3494   -1.2974   22.0330 N   0  0  0  0  0  0  0  0  0  0  0  0
    8.6799   -2.4175   22.7192 C   0  0  0  0  0  0  0  0  0  0  0  0
    7.4441   -2.8476   21.9684 C   0  0  0  0  0  0  0  0  0  0  0  0
    6.6189   -1.6338   21.6519 C   0  0  0  0  0  0  0  0  0  0  0  0
    7.4387   -0.6983   20.8686 N   0  0  0  0  0  0  0  0  0  0  0  0
    8.7280   -0.5122   21.1493 C   0  0  0  0  0  0  0  0  0  0  0  0
    9.3610    0.3681   20.5879 O   0  0  0  0  0  0  0  0  0  0  0  0
    6.7781    0.0019   19.7894 C   0  0  0  0  0  0  0  0  0  0  0  0
    7.2504   -0.1437   18.4900 C   0  0  0  0  0  0  0  0  0  0  0  0
    6.7334    0.4883   17.4325 N   0  0  0  0  0  0  0  0  0  0  0  0
    5.7123    1.3114   17.6559 C   0  0  0  0  0  0  0  0  0  0  0  0
    5.1603    1.5095   18.9029 C   0  0  0  0  0  0  0  0  0  0  0  0
    5.6762    0.8365   20.0074 C   0  0  0  0  0  0  0  0  0  0  0  0
    5.0060    1.0406   21.3420 C   0  0  0  0  0  0  0  0  0  0  0  0
    6.6517   -3.7641   22.7883 N   0  0  0  0  0  0  0  0  0  0  0  0
    5.8050   -4.6560   22.2599 C   0  0  0  0  0  0  0  0  0  0  0  0
    5.6351   -4.7653   21.0372 O   0  0  0  0  0  0  0  0  0  0  0  0
    5.0859   -5.5024   23.2389 C   0  0  0  0  0  0  0  0  0  0  0  0
    4.3517   -6.5202   22.8749 C   0  0  0  0  0  0  0  0  0  0  0  0
  1  2  1  0
  2  3  2  0
  3  4  1  0
  4  5  1  0
  4  6  2  0
  6  7  1  0
  7  8  2  0
  7  9  1  0
  9 10  1  0
 10 11  1  0
 11 12  1  0
 12 13  1  0
 13 14  1  0
 14 15  2  0
 13 16  1  0
 16 17  2  0
 17 18  1  0
 18 19  2  0
 19 20  1  0
 20 21  2  0
 21 22  1  0
 11 23  1  0
 23 24  1  0
 24 25  2  0
 24 26  1  0
 26 27  2  0
  8  2  1  0
 14  9  1  0
 21 16  1  0
M  END
