CVD-0002686|dock_bobby27042020.4|mol2|42|dock1
     RDKit          3D

 29 31  0  0  0  0  0  0  0  0999 V2000
    4.6407   -6.4971   24.2778 C   0  0  0  0  0  0  0  0  0  0  0  0
    5.3919   -5.9481   23.1554 N   0  0  0  0  0  0  0  0  0  0  0  0
    5.5275   -6.4670   21.9261 C   0  0  0  0  0  0  0  0  0  0  0  0
    6.2890   -5.6076   21.1899 C   0  0  0  0  0  0  0  0  0  0  0  0
    6.5830   -4.5238   22.0990 C   0  0  0  0  0  0  0  0  0  0  0  0
    6.0172   -4.7475   23.3023 N   0  0  0  0  0  0  0  0  0  0  0  0
    7.3785   -3.2962   21.8485 C   0  0  0  0  0  0  0  0  0  0  0  0
    6.9305   -2.3796   21.1612 O   0  0  0  0  0  0  0  0  0  0  0  0
    8.5931   -3.2550   22.4104 N   0  0  0  0  0  0  0  0  0  0  0  0
    9.4747   -2.1112   22.2444 C   0  0  0  0  0  0  0  0  0  0  0  0
   10.5668   -2.0938   23.3247 C   0  0  0  0  0  0  0  0  0  0  0  0
   11.6391   -1.0619   23.0724 C   0  0  0  0  0  0  0  0  0  0  0  0
   12.6882   -1.3273   22.2061 C   0  0  0  0  0  0  0  0  0  0  0  0
   13.6740   -0.3820   21.9769 C   0  0  0  0  0  0  0  0  0  0  0  0
   13.6223    0.8400   22.6123 C   0  0  0  0  0  0  0  0  0  0  0  0
   12.5852    1.1163   23.4772 C   0  0  0  0  0  0  0  0  0  0  0  0
   11.5998    0.1705   23.7061 C   0  0  0  0  0  0  0  0  0  0  0  0
    8.6592   -0.8256   22.3376 C   0  0  0  0  0  0  0  0  0  0  0  0
    8.1016   -0.4882   23.3676 O   0  0  0  0  0  0  0  0  0  0  0  0
    8.5521    0.0384   21.0660 C   0  0  0  0  0  0  0  0  0  0  0  0
    9.1359    1.1175   20.9778 O   0  0  0  0  0  0  0  0  0  0  0  0
    7.7910   -0.4786   20.1027 N   0  0  0  0  0  0  0  0  0  0  0  0
    7.0961   -0.6290   18.8326 C   0  0  0  0  0  0  0  0  0  0  0  0
    6.0541    0.4369   18.6044 C   0  0  0  0  0  0  0  0  0  0  0  0
    5.0901    0.7211   19.5570 C   0  0  0  0  0  0  0  0  0  0  0  0
    4.1645    1.7139   19.2864 C   0  0  0  0  0  0  0  0  0  0  0  0
    4.2241    2.3901   18.0874 C   0  0  0  0  0  0  0  0  0  0  0  0
    5.2162    2.0439   17.1986 C   0  0  0  0  0  0  0  0  0  0  0  0
    6.1242    1.0877   17.4351 N   0  0  0  0  0  0  0  0  0  0  0  0
  1  2  1  0
  2  3  1  0
  3  4  2  0
  4  5  1  0
  5  6  2  0
  5  7  1  0
  7  8  2  0
  7  9  1  0
  9 10  1  0
 10 11  1  0
 11 12  1  0
 12 13  2  0
 13 14  1  0
 14 15  2  0
 15 16  1  0
 16 17  2  0
 10 18  1  0
 18 19  2  0
 18 20  1  0
 20 21  2  0
 20 22  1  0
 22 23  1  0
 23 24  1  0
 24 25  2  0
 25 26  1  0
 26 27  2  0
 27 28  1  0
 28 29  2  0
  6  2  1  0
 17 12  1  0
 29 24  1  0
M  END
