CVD-0000971|dock_bobby27042020.96|mol2|45|dock2
     RDKit          3D

 34 38  0  0  0  0  0  0  0  0999 V2000
   12.9951   -1.8287   22.2656 N   0  0  0  0  0  0  0  0  0  0  0  0
   13.4547   -0.4061   22.8386 S   0  0  0  0  0  0  0  0  0  0  0  0
   14.5553    0.0155   22.0247 O   0  0  0  0  0  0  0  0  0  0  0  0
   13.6406   -0.5916   24.2467 O   0  0  0  0  0  0  0  0  0  0  0  0
   12.1174    0.7392   22.6009 C   0  0  0  0  0  0  0  0  0  0  0  0
   12.5295    2.0465   22.3757 C   0  0  0  0  0  0  0  0  0  0  0  0
   11.6158    3.0408   22.0743 C   0  0  0  0  0  0  0  0  0  0  0  0
   10.2759    2.7033   22.0017 C   0  0  0  0  0  0  0  0  0  0  0  0
    9.8406    1.4183   22.2671 C   0  0  0  0  0  0  0  0  0  0  0  0
   10.7431    0.4127   22.6163 C   0  0  0  0  0  0  0  0  0  0  0  0
   10.2304   -0.8650   22.9590 N   0  0  0  0  0  0  0  0  0  0  0  0
   10.3341   -1.3368   24.3477 C   0  0  0  0  0  0  0  0  0  0  0  0
   10.2139   -2.8554   24.4089 C   0  0  0  0  0  0  0  0  0  0  0  0
    9.0299   -3.3381   23.7148 N   0  0  0  0  0  0  0  0  0  0  0  0
    8.9108   -2.8132   22.3463 C   0  0  0  0  0  0  0  0  0  0  0  0
    8.9431   -1.3079   22.3652 C   0  0  0  0  0  0  0  0  0  0  0  0
    8.0967   -4.2162   24.1523 C   0  0  0  0  0  0  0  0  0  0  0  0
    7.1607   -4.5184   23.4320 O   0  0  0  0  0  0  0  0  0  0  0  0
    8.1141   -4.8809   25.5130 C   0  0  0  0  0  0  0  0  0  0  0  0
    6.9062   -5.1854   26.1279 C   0  0  0  0  0  0  0  0  0  0  0  0
    6.8392   -5.7681   27.3283 N   0  0  0  0  0  0  0  0  0  0  0  0
    7.9973   -6.0505   27.9223 C   0  0  0  0  0  0  0  0  0  0  0  0
    9.2045   -5.7548   27.3253 C   0  0  0  0  0  0  0  0  0  0  0  0
    9.2739   -5.1707   26.1232 N   0  0  0  0  0  0  0  0  0  0  0  0
   12.0760    4.4695   21.8195 C   0  0  0  0  0  0  0  0  0  0  0  0
   13.5216    4.6292   21.8930 N   0  0  0  0  0  0  0  0  0  0  0  0
   13.9378    5.5037   22.8288 C   0  0  0  0  0  0  0  0  0  0  0  0
   15.1030    5.7866   23.0860 O   0  0  0  0  0  0  0  0  0  0  0  0
   12.7177    6.0536   23.4593 C   0  0  0  0  0  0  0  0  0  0  0  0
   12.5580    7.0100   24.4611 C   0  0  0  0  0  0  0  0  0  0  0  0
   11.2774    7.3561   24.8670 C   0  0  0  0  0  0  0  0  0  0  0  0
   10.1742    6.7622   24.2873 C   0  0  0  0  0  0  0  0  0  0  0  0
   10.3360    5.8114   23.2914 C   0  0  0  0  0  0  0  0  0  0  0  0
   11.6157    5.4541   22.8739 C   0  0  0  0  0  0  0  0  0  0  0  0
  1  2  1  0
  2  3  2  0
  2  4  2  0
  2  5  1  0
  5  6  2  0
  6  7  1  0
  7  8  2  0
  8  9  1  0
  9 10  2  0
 10 11  1  0
 11 12  1  0
 12 13  1  0
 13 14  1  0
 14 15  1  0
 15 16  1  0
 14 17  1  0
 17 18  2  0
 17 19  1  0
 19 20  2  0
 20 21  1  0
 21 22  2  0
 22 23  1  0
 23 24  2  0
  7 25  1  0
 25 26  1  0
 26 27  1  0
 27 28  2  0
 27 29  1  0
 29 30  2  0
 30 31  1  0
 31 32  2  0
 32 33  1  0
 33 34  2  0
 10  5  1  0
 16 11  1  0
 24 19  1  0
 34 25  1  0
 34 29  1  0
M  END
