CVD-0003385|dock_bobby27042020.2|mol2|16|dock2
     RDKit          3D

 20 22  0  0  0  0  0  0  0  0999 V2000
   14.8815   -2.0120   25.5654 C   0  0  0  0  0  0  0  0  0  0  0  0
   14.0035   -1.2355   24.6919 N   0  0  0  0  0  0  0  0  0  0  0  0
   12.7651   -0.8825   25.3923 C   0  0  0  0  0  0  0  0  0  0  0  0
   11.8756   -0.0419   24.4952 C   0  0  0  0  0  0  0  0  0  0  0  0
   11.5692   -0.7631   23.2580 N   0  0  0  0  0  0  0  0  0  0  0  0
   12.7899   -1.1833   22.5629 C   0  0  0  0  0  0  0  0  0  0  0  0
   13.6713   -1.9985   23.4916 C   0  0  0  0  0  0  0  0  0  0  0  0
   10.3090   -0.9716   22.8262 C   0  0  0  0  0  0  0  0  0  0  0  0
    9.3360   -0.5556   23.4424 O   0  0  0  0  0  0  0  0  0  0  0  0
   10.1362   -1.7432   21.5300 C   0  0  0  0  0  0  0  0  0  0  0  0
    8.7050   -2.0202   21.1736 C   0  0  0  0  0  0  0  0  0  0  0  0
    7.8099   -1.2088   20.5088 C   0  0  0  0  0  0  0  0  0  0  0  0
    8.0422    0.3666   19.8796 Cl  0  0  0  0  0  0  0  0  0  0  0  0
    6.6048   -1.8151   20.3763 N   0  0  0  0  0  0  0  0  0  0  0  0
    6.6695   -3.0542   20.9542 C   0  0  0  0  0  0  0  0  0  0  0  0
    5.7118   -3.9887   21.0522 N   0  0  0  0  0  0  0  0  0  0  0  0
    6.0858   -5.1112   21.6818 C   0  0  0  0  0  0  0  0  0  0  0  0
    7.3612   -5.2888   22.1899 C   0  0  0  0  0  0  0  0  0  0  0  0
    8.3224   -4.3571   22.0944 N   0  0  0  0  0  0  0  0  0  0  0  0
    7.9801   -3.2206   21.4692 C   0  0  0  0  0  0  0  0  0  0  0  0
  1  2  1  0
  2  3  1  0
  3  4  1  0
  4  5  1  0
  5  6  1  0
  6  7  1  0
  5  8  1  0
  8  9  2  0
  8 10  1  0
 10 11  1  0
 11 12  2  0
 12 13  1  0
 12 14  1  0
 14 15  1  0
 15 16  2  0
 16 17  1  0
 17 18  2  0
 18 19  1  0
 19 20  2  0
  7  2  1  0
 20 11  1  0
 20 15  1  0
M  END
