CVD-0001926|dock_bobby27042020.65|mol2|27|dock2
     RDKit          3D

 22 24  0  0  0  0  0  0  0  0999 V2000
    6.5194   -5.2244   21.3553 C   0  0  0  0  0  0  0  0  0  0  0  0
    7.0166   -3.8588   21.5389 N   0  0  0  0  0  0  0  0  0  0  0  0
    7.0210   -3.3996   22.9487 C   0  0  0  0  0  0  0  0  0  0  0  0
    8.3687   -3.7571   23.5423 C   0  0  0  0  0  0  0  0  0  0  0  0
    9.5020   -2.9397   22.9326 C   0  0  0  0  0  0  0  0  0  0  0  0
    9.2668   -1.4287   23.0650 C   0  0  0  0  0  0  0  0  0  0  0  0
    7.9182   -1.0944   22.4167 C   0  0  0  0  0  0  0  0  0  0  0  0
    6.7798   -1.8988   23.0255 C   0  0  0  0  0  0  0  0  0  0  0  0
   10.4383   -0.5805   22.5721 C   0  0  0  0  0  0  0  0  0  0  0  0
   10.1946    0.8967   22.7212 C   0  0  0  0  0  0  0  0  0  0  0  0
   11.4593    1.7143   22.6833 C   0  0  0  0  0  0  0  0  0  0  0  0
   11.4147    3.1168   22.6347 C   0  0  0  0  0  0  0  0  0  0  0  0
   10.2330    3.8046   22.5745 O   0  0  0  0  0  0  0  0  0  0  0  0
   12.5937    3.8571   22.5477 C   0  0  0  0  0  0  0  0  0  0  0  0
   12.5197    5.2096   22.4465 O   0  0  0  0  0  0  0  0  0  0  0  0
   13.8234    3.2157   22.5080 C   0  0  0  0  0  0  0  0  0  0  0  0
   13.8645    1.8350   22.5561 C   0  0  0  0  0  0  0  0  0  0  0  0
   12.6932    1.0811   22.6432 C   0  0  0  0  0  0  0  0  0  0  0  0
   12.7880   -0.4215   22.7803 C   0  0  0  0  0  0  0  0  0  0  0  0
   13.9460   -0.8781   23.6565 C   0  0  0  0  0  0  0  0  0  0  0  0
   13.8318   -2.2970   24.0609 N   0  0  0  0  0  0  0  0  0  0  0  0
   11.5898   -0.9716   23.3346 O   0  0  0  0  0  0  0  0  0  0  0  0
  1  2  1  0
  2  3  1  0
  3  4  1  0
  4  5  1  0
  5  6  1  0
  6  7  1  0
  7  8  1  0
  6  9  1  0
  9 10  1  0
 10 11  1  0
 11 12  2  0
 12 13  1  0
 12 14  1  0
 14 15  1  0
 14 16  2  0
 16 17  1  0
 17 18  2  0
 18 19  1  0
 19 20  1  0
 20 21  1  0
 19 22  1  0
  8  3  1  0
 22  9  1  0
 18 11  1  0
M  END
