CVD-0001459|dock_bobby27042020.23|mol2|45|dock2
     RDKit          3D

 26 28  0  0  0  0  0  0  0  0999 V2000
    6.0924    2.9871   21.8624 C   0  0  0  0  0  0  0  0  0  0  0  0
    6.2454    2.2748   20.5506 C   0  0  0  0  0  0  0  0  0  0  0  0
    7.3381    1.8941   20.1421 O   0  0  0  0  0  0  0  0  0  0  0  0
    5.1265    2.0941   19.8463 N   0  0  0  0  0  0  0  0  0  0  0  0
    5.1141    1.4362   18.5476 C   0  0  0  0  0  0  0  0  0  0  0  0
    5.2024   -0.0713   18.6766 C   0  0  0  0  0  0  0  0  0  0  0  0
    6.4712   -0.5305   19.3333 C   0  0  0  0  0  0  0  0  0  0  0  0
    7.6880   -0.7160   18.7451 C   0  0  0  0  0  0  0  0  0  0  0  0
    8.6052   -1.1413   19.6672 N   0  0  0  0  0  0  0  0  0  0  0  0
    7.9836   -1.2387   20.8877 C   0  0  0  0  0  0  0  0  0  0  0  0
    8.5077   -1.6294   22.1233 C   0  0  0  0  0  0  0  0  0  0  0  0
    9.9537   -2.0341   22.2874 C   0  0  0  0  0  0  0  0  0  0  0  0
   10.7714   -0.9974   22.9333 N   0  0  0  0  0  0  0  0  0  0  0  0
   10.4960    0.3152   22.3418 C   0  0  0  0  0  0  0  0  0  0  0  0
   11.3120    1.3874   23.0397 C   0  0  0  0  0  0  0  0  0  0  0  0
   12.7415    1.0819   22.9499 N   0  0  0  0  0  0  0  0  0  0  0  0
   13.0416   -0.2519   23.4798 C   0  0  0  0  0  0  0  0  0  0  0  0
   12.1926   -1.2993   22.7827 C   0  0  0  0  0  0  0  0  0  0  0  0
   13.6524    1.9601   22.4585 C   0  0  0  0  0  0  0  0  0  0  0  0
   14.8452    1.6621   22.4204 O   0  0  0  0  0  0  0  0  0  0  0  0
   13.2380    3.3013   21.9548 C   0  0  0  0  0  0  0  0  0  0  0  0
   13.6403    4.3891   22.5567 C   0  0  0  0  0  0  0  0  0  0  0  0
    7.6369   -1.6376   23.2096 C   0  0  0  0  0  0  0  0  0  0  0  0
    6.3067   -1.2707   23.0681 C   0  0  0  0  0  0  0  0  0  0  0  0
    5.8025   -0.8843   21.8352 C   0  0  0  0  0  0  0  0  0  0  0  0
    6.6383   -0.8627   20.7195 C   0  0  0  0  0  0  0  0  0  0  0  0
  1  2  1  0
  2  3  2  0
  2  4  1  0
  4  5  1  0
  5  6  1  0
  6  7  1  0
  7  8  2  0
  8  9  1  0
  9 10  1  0
 10 11  2  0
 11 12  1  0
 12 13  1  0
 13 14  1  0
 14 15  1  0
 15 16  1  0
 16 17  1  0
 17 18  1  0
 16 19  1  0
 19 20  2  0
 19 21  1  0
 21 22  2  0
 11 23  1  0
 23 24  2  0
 24 25  1  0
 25 26  2  0
 26  7  1  0
 26 10  1  0
 18 13  1  0
M  END
