CVD-0002211|dock_bobby27042020.92|mol2|20|dock3
     RDKit          3D

 22 24  0  0  0  0  0  0  0  0999 V2000
    5.7810    0.8822   18.3026 C   0  0  0  0  0  0  0  0  0  0  0  0
    5.7536   -0.4604   18.9634 C   0  0  0  0  0  0  0  0  0  0  0  0
    6.9162   -0.6598   19.8244 N   0  0  0  0  0  0  0  0  0  0  0  0
    7.2074   -1.7532   20.5236 C   0  0  0  0  0  0  0  0  0  0  0  0
    8.3404   -1.7580   21.2748 C   0  0  0  0  0  0  0  0  0  0  0  0
    9.3015   -0.5936   21.3698 C   0  0  0  0  0  0  0  0  0  0  0  0
   10.5417   -0.8399   22.2001 C   0  0  0  0  0  0  0  0  0  0  0  0
   11.6513   -1.4691   21.6510 C   0  0  0  0  0  0  0  0  0  0  0  0
   12.7917   -1.6952   22.4051 C   0  0  0  0  0  0  0  0  0  0  0  0
   12.8334   -1.2883   23.7345 C   0  0  0  0  0  0  0  0  0  0  0  0
   13.9250   -1.4100   24.7574 C   0  0  0  0  0  0  0  0  0  0  0  0
   13.3129   -0.7795   25.9068 N   0  0  0  0  0  0  0  0  0  0  0  0
   12.0580   -0.3399   25.7003 C   0  0  0  0  0  0  0  0  0  0  0  0
   11.3616    0.2271   26.5361 O   0  0  0  0  0  0  0  0  0  0  0  0
   11.7345   -0.6606   24.2929 C   0  0  0  0  0  0  0  0  0  0  0  0
   10.5898   -0.4354   23.5304 C   0  0  0  0  0  0  0  0  0  0  0  0
    8.6777   -2.9550   22.0439 C   0  0  0  0  0  0  0  0  0  0  0  0
    7.8538   -4.0159   21.9763 C   0  0  0  0  0  0  0  0  0  0  0  0
    6.6090   -4.0295   21.2090 C   0  0  0  0  0  0  0  0  0  0  0  0
    6.3519   -2.7988   20.4449 N   0  0  0  0  0  0  0  0  0  0  0  0
    8.1730   -5.2224   22.6805 C   0  0  0  0  0  0  0  0  0  0  0  0
    8.4070   -6.2114   23.2064 N   0  0  0  0  0  0  0  0  0  0  0  0
  1  2  1  0
  2  3  1  0
  3  4  1  0
  4  5  2  0
  5  6  1  0
  6  7  1  0
  7  8  2  0
  8  9  1  0
  9 10  2  0
 10 11  1  0
 11 12  1  0
 12 13  1  0
 13 14  2  0
 13 15  1  0
 15 16  2  0
  5 17  1  0
 17 18  2  0
 18 19  1  0
 19 20  1  0
 18 21  1  0
 21 22  3  0
 20  4  1  0
 16  7  1  0
 15 10  1  0
M  END
