CVD-0003640|dock_bobby27042020.16|mol2|3|dock1
     RDKit          3D

 31 34  0  0  0  0  0  0  0  0999 V2000
    5.5705   -4.0576   19.6900 O   0  0  0  0  0  0  0  0  0  0  0  0
    5.5397   -2.9419   19.1746 N   0  0  0  0  0  0  0  0  0  0  0  0
    4.9968   -2.6950   18.1110 O   0  0  0  0  0  0  0  0  0  0  0  0
    6.1978   -1.8366   19.8837 C   0  0  0  0  0  0  0  0  0  0  0  0
    6.0650   -0.5442   19.4101 C   0  0  0  0  0  0  0  0  0  0  0  0
    6.7238    0.4922   20.0435 C   0  0  0  0  0  0  0  0  0  0  0  0
    7.5237    0.2405   21.1556 C   0  0  0  0  0  0  0  0  0  0  0  0
    7.5657   -1.0614   21.7031 C   0  0  0  0  0  0  0  0  0  0  0  0
    6.9406   -2.1017   21.0216 C   0  0  0  0  0  0  0  0  0  0  0  0
    8.2183   -1.3940   22.9617 N   0  0  0  0  0  0  0  0  0  0  0  0
    8.3933   -0.5152   23.8018 O   0  0  0  0  0  0  0  0  0  0  0  0
    8.5125   -2.5590   23.1687 O   0  0  0  0  0  0  0  0  0  0  0  0
    8.2480    1.3758   21.6508 N   0  0  0  0  0  0  0  0  0  0  0  0
    7.5576    2.5766   21.6355 N   0  0  0  0  0  0  0  0  0  0  0  0
    8.3977    3.4723   22.1636 C   0  0  0  0  0  0  0  0  0  0  0  0
    9.6228    2.8748   22.4940 C   0  0  0  0  0  0  0  0  0  0  0  0
    9.5229    1.5419   22.1470 C   0  0  0  0  0  0  0  0  0  0  0  0
   10.5932    0.5313   22.2959 C   0  0  0  0  0  0  0  0  0  0  0  0
   10.6740   -0.6059   21.4974 C   0  0  0  0  0  0  0  0  0  0  0  0
   11.6673   -1.5484   21.6967 C   0  0  0  0  0  0  0  0  0  0  0  0
   12.5934   -1.3227   22.6774 C   0  0  0  0  0  0  0  0  0  0  0  0
   13.5712   -2.2473   22.8769 F   0  0  0  0  0  0  0  0  0  0  0  0
   12.5775   -0.2046   23.4644 C   0  0  0  0  0  0  0  0  0  0  0  0
   11.5709    0.7234   23.2664 C   0  0  0  0  0  0  0  0  0  0  0  0
    7.9845    4.8752   22.3241 C   0  0  0  0  0  0  0  0  0  0  0  0
    8.7658    5.7657   23.0518 C   0  0  0  0  0  0  0  0  0  0  0  0
    8.3816    7.0859   23.2057 C   0  0  0  0  0  0  0  0  0  0  0  0
    7.2068    7.5150   22.6260 C   0  0  0  0  0  0  0  0  0  0  0  0
    6.6732    9.3261   22.8333 Br  0  0  0  0  0  0  0  0  0  0  0  0
    6.4118    6.6551   21.8990 C   0  0  0  0  0  0  0  0  0  0  0  0
    6.8047    5.3368   21.7511 C   0  0  0  0  0  0  0  0  0  0  0  0
  1  2  1  0
  2  3  2  0
  2  4  1  0
  4  5  2  0
  5  6  1  0
  6  7  2  0
  7  8  1  0
  8  9  2  0
  8 10  1  0
 10 11  1  0
 10 12  2  0
  7 13  1  0
 13 14  1  0
 14 15  2  0
 15 16  1  0
 16 17  2  0
 17 18  1  0
 18 19  2  0
 19 20  1  0
 20 21  2  0
 21 22  1  0
 21 23  1  0
 23 24  2  0
 15 25  1  0
 25 26  2  0
 26 27  1  0
 27 28  2  0
 28 29  1  0
 28 30  1  0
 30 31  2  0
  9  4  1  0
 17 13  1  0
 24 18  1  0
 31 25  1  0
M  CHG  4   1  -1   2   1  10   1  11  -1
M  END
