CVD-0002201|dock_bobby27042020.78|mol2|17|dock2
     RDKit          3D

 22 24  0  0  0  0  0  0  0  0999 V2000
    6.5799   -6.6537   22.3336 C   0  0  0  0  0  0  0  0  0  0  0  0
    6.8166   -5.5896   21.3081 C   0  0  0  0  0  0  0  0  0  0  0  0
    6.2179   -4.3266   21.7065 N   0  0  0  0  0  0  0  0  0  0  0  0
    6.1853   -3.2475   20.9075 C   0  0  0  0  0  0  0  0  0  0  0  0
    5.7575   -3.4593   19.6623 N   0  0  0  0  0  0  0  0  0  0  0  0
    5.6912   -2.4430   18.7988 N   0  0  0  0  0  0  0  0  0  0  0  0
    6.0529   -1.2155   19.1834 C   0  0  0  0  0  0  0  0  0  0  0  0
    6.5063   -0.9347   20.4652 C   0  0  0  0  0  0  0  0  0  0  0  0
    6.5830   -1.9821   21.3760 C   0  0  0  0  0  0  0  0  0  0  0  0
    7.0696   -1.7272   22.7913 C   0  0  0  0  0  0  0  0  0  0  0  0
    8.5746   -1.6091   22.9192 C   0  0  0  0  0  0  0  0  0  0  0  0
    9.4108   -2.0133   21.8865 C   0  0  0  0  0  0  0  0  0  0  0  0
   10.7880   -1.9052   21.9962 C   0  0  0  0  0  0  0  0  0  0  0  0
   11.3504   -1.3842   23.1566 C   0  0  0  0  0  0  0  0  0  0  0  0
   12.7873   -1.1622   23.5292 C   0  0  0  0  0  0  0  0  0  0  0  0
   12.6557   -0.5899   24.8514 N   0  0  0  0  0  0  0  0  0  0  0  0
   11.3873   -0.4692   25.2840 C   0  0  0  0  0  0  0  0  0  0  0  0
   11.0523   -0.0053   26.3693 O   0  0  0  0  0  0  0  0  0  0  0  0
   10.5286   -0.9779   24.1924 C   0  0  0  0  0  0  0  0  0  0  0  0
    9.1440   -1.0888   24.0771 C   0  0  0  0  0  0  0  0  0  0  0  0
    5.9565   -0.1552   18.1992 C   0  0  0  0  0  0  0  0  0  0  0  0
    5.9036    0.6601   17.4010 N   0  0  0  0  0  0  0  0  0  0  0  0
  1  2  1  0
  2  3  1  0
  3  4  1  0
  4  5  2  0
  5  6  1  0
  6  7  2  0
  7  8  1  0
  8  9  2  0
  9 10  1  0
 10 11  1  0
 11 12  2  0
 12 13  1  0
 13 14  2  0
 14 15  1  0
 15 16  1  0
 16 17  1  0
 17 18  2  0
 17 19  1  0
 19 20  2  0
  7 21  1  0
 21 22  3  0
  9  4  1  0
 20 11  1  0
 19 14  1  0
M  END
