CVD-0001839|dock_bobby27042020.8|mol2|18|dock3
     RDKit          3D

 25 27  0  0  0  0  0  0  0  0999 V2000
    5.1165    1.6900   18.5127 C   0  0  0  0  0  0  0  0  0  0  0  0
    5.3305    0.6268   19.5434 C   0  0  0  0  0  0  0  0  0  0  0  0
    6.0160   -0.5865   19.4102 C   0  0  0  0  0  0  0  0  0  0  0  0
    5.9232   -1.1776   20.6086 C   0  0  0  0  0  0  0  0  0  0  0  0
    6.4100   -2.4632   21.1809 C   0  0  0  0  0  0  0  0  0  0  0  0
    6.9079   -2.3673   22.6243 C   0  0  0  0  0  0  0  0  0  0  0  0
    8.2004   -1.5199   22.8363 C   0  0  0  0  0  0  0  0  0  0  0  0
    9.1067   -2.4484   23.5767 N   0  0  0  0  0  0  0  0  0  0  0  0
   10.4033   -2.5085   22.8985 C   0  0  0  0  0  0  0  0  0  0  0  0
   11.2091   -1.2544   23.0674 C   0  0  0  0  0  0  0  0  0  0  0  0
   12.4513   -1.1151   23.6448 C   0  0  0  0  0  0  0  0  0  0  0  0
   12.9255    0.1944   23.6442 C   0  0  0  0  0  0  0  0  0  0  0  0
   12.0590    1.0838   23.0685 C   0  0  0  0  0  0  0  0  0  0  0  0
   10.6308    0.2787   22.5187 S   0  0  0  0  0  0  0  0  0  0  0  0
   12.2044    2.4838   22.8928 C   0  0  0  0  0  0  0  0  0  0  0  0
   12.3862    3.6631   22.7992 C   0  0  0  0  0  0  0  0  0  0  0  0
   12.6174    5.1237   22.7485 C   0  0  0  0  0  0  0  0  0  0  0  0
   12.8934    5.6505   24.1456 C   0  0  0  0  0  0  0  0  0  0  0  0
   13.7623    5.4316   21.7999 C   0  0  0  0  0  0  0  0  0  0  0  0
   11.4429    5.7837   22.2519 O   0  0  0  0  0  0  0  0  0  0  0  0
    8.4998   -3.7352   23.8175 C   0  0  0  0  0  0  0  0  0  0  0  0
    7.1722   -3.6724   23.1885 C   0  0  0  0  0  0  0  0  0  0  0  0
    7.1449   -4.7367   22.2324 O   0  0  0  0  0  0  0  0  0  0  0  0
    5.2236   -0.3888   21.4509 O   0  0  0  0  0  0  0  0  0  0  0  0
    4.8468    0.7779   20.7409 N   0  0  0  0  0  0  0  0  0  0  0  0
  1  2  1  0
  2  3  1  0
  3  4  2  0
  4  5  1  0
  5  6  1  0
  6  7  1  0
  7  8  1  0
  8  9  1  0
  9 10  1  0
 10 11  2  0
 11 12  1  0
 12 13  2  0
 13 14  1  0
 13 15  1  0
 15 16  3  0
 16 17  1  0
 17 18  1  0
 17 19  1  0
 17 20  1  0
  8 21  1  0
 21 22  1  0
 22 23  1  0
  4 24  1  0
 24 25  1  0
 25  2  2  0
 22  6  1  0
 14 10  1  0
M  END
