CVD-0000457|dock_bobby27042020.70|mol2|10|dock3
     RDKit          3D

 32 36  0  0  0  0  0  0  0  0999 V2000
   13.5921    5.1079   23.1504 O   0  0  0  0  0  0  0  0  0  0  0  0
   12.8783    5.7919   24.0819 C   0  0  0  0  0  0  0  0  0  0  0  0
   13.0964    7.1476   24.2636 C   0  0  0  0  0  0  0  0  0  0  0  0
   12.3560    7.8067   25.2147 C   0  0  0  0  0  0  0  0  0  0  0  0
   12.5736    9.1381   25.3895 F   0  0  0  0  0  0  0  0  0  0  0  0
   11.4127    7.1907   25.9926 C   0  0  0  0  0  0  0  0  0  0  0  0
   11.1953    5.8365   25.8107 C   0  0  0  0  0  0  0  0  0  0  0  0
   11.9233    5.1239   24.8563 C   0  0  0  0  0  0  0  0  0  0  0  0
   11.6941    3.7206   24.6717 C   0  0  0  0  0  0  0  0  0  0  0  0
   11.5207    2.5580   24.4422 C   0  0  0  0  0  0  0  0  0  0  0  0
   11.3614    1.1758   24.1126 C   0  0  0  0  0  0  0  0  0  0  0  0
   10.3070    0.3142   24.5042 C   0  0  0  0  0  0  0  0  0  0  0  0
   10.5432   -0.9340   23.9690 C   0  0  0  0  0  0  0  0  0  0  0  0
   11.7339   -0.8788   23.2420 N   0  0  0  0  0  0  0  0  0  0  0  0
   12.4045   -1.8546   22.5201 C   0  0  0  0  0  0  0  0  0  0  0  0
   13.5598   -1.5572   21.8900 C   0  0  0  0  0  0  0  0  0  0  0  0
   14.1040   -0.2637   21.9513 C   0  0  0  0  0  0  0  0  0  0  0  0
   13.4696    0.7189   22.6529 C   0  0  0  0  0  0  0  0  0  0  0  0
   12.2593    0.4197   23.3167 C   0  0  0  0  0  0  0  0  0  0  0  0
    9.6500   -2.1887   24.1373 C   0  0  0  0  0  0  0  0  0  0  0  0
   10.1311   -3.4911   24.7391 C   0  0  0  0  0  0  0  0  0  0  0  0
    9.2589   -2.5868   25.5522 C   0  0  0  0  0  0  0  0  0  0  0  0
    8.5393   -2.2224   23.1481 N   0  0  0  0  0  0  0  0  0  0  0  0
    9.0473   -2.0920   21.7725 C   0  0  0  0  0  0  0  0  0  0  0  0
    7.9213   -2.1761   20.7752 C   0  0  0  0  0  0  0  0  0  0  0  0
    6.9054   -1.1563   21.0540 N   0  0  0  0  0  0  0  0  0  0  0  0
    6.4251   -1.2073   22.4335 C   0  0  0  0  0  0  0  0  0  0  0  0
    7.5972   -1.1270   23.3822 C   0  0  0  0  0  0  0  0  0  0  0  0
    6.3267   -0.3333   20.1466 C   0  0  0  0  0  0  0  0  0  0  0  0
    5.4884    0.4960   20.4777 O   0  0  0  0  0  0  0  0  0  0  0  0
    6.7416   -0.4487   18.6922 C   0  0  0  0  0  0  0  0  0  0  0  0
    5.7540    0.6104   17.6772 Cl  0  0  0  0  0  0  0  0  0  0  0  0
  1  2  1  0
  2  3  2  0
  3  4  1  0
  4  5  1  0
  4  6  2  0
  6  7  1  0
  7  8  2  0
  8  9  1  0
  9 10  3  0
 10 11  1  0
 11 12  1  0
 12 13  2  0
 13 14  1  0
 14 15  1  0
 15 16  2  0
 16 17  1  0
 17 18  2  0
 18 19  1  0
 13 20  1  0
 20 21  1  0
 21 22  1  0
 20 23  1  0
 23 24  1  0
 24 25  1  0
 25 26  1  0
 26 27  1  0
 27 28  1  0
 26 29  1  0
 29 30  2  0
 29 31  1  0
 31 32  1  0
  8  2  1  0
 19 11  2  0
 22 20  1  0
 28 23  1  0
 19 14  1  0
M  END
