CVD-0000428|dock_bobby27042020.98|mol2|32|dock3
     RDKit          3D

 27 28  0  0  0  0  0  0  0  0999 V2000
   12.4767    6.9238   27.2041 C   0  0  0  0  0  0  0  0  0  0  0  0
   11.7865    6.4755   25.9540 C   0  0  0  0  0  0  0  0  0  0  0  0
   12.6123    6.7054   24.7802 N   0  0  0  0  0  0  0  0  0  0  0  0
   12.6185    5.8961   23.6854 C   0  0  0  0  0  0  0  0  0  0  0  0
   13.6000    6.0152   22.7024 C   0  0  0  0  0  0  0  0  0  0  0  0
   13.5410    5.1587   21.6191 C   0  0  0  0  0  0  0  0  0  0  0  0
   12.5203    4.2411   21.5755 C   0  0  0  0  0  0  0  0  0  0  0  0
   12.4434    3.3939   20.5238 F   0  0  0  0  0  0  0  0  0  0  0  0
   11.5707    4.1598   22.5752 C   0  0  0  0  0  0  0  0  0  0  0  0
   10.4367    3.1635   22.5504 C   0  0  0  0  0  0  0  0  0  0  0  0
   10.9210    1.7279   22.5536 C   0  0  0  0  0  0  0  0  0  0  0  0
   12.0562    1.3664   23.2656 C   0  0  0  0  0  0  0  0  0  0  0  0
   12.5151    0.0584   23.2866 C   0  0  0  0  0  0  0  0  0  0  0  0
   13.7547   -0.3107   24.0646 C   0  0  0  0  0  0  0  0  0  0  0  0
   11.8147   -0.9032   22.5734 C   0  0  0  0  0  0  0  0  0  0  0  0
   10.6724   -0.5707   21.8505 C   0  0  0  0  0  0  0  0  0  0  0  0
    9.9698   -1.5243   21.1382 N   0  0  0  0  0  0  0  0  0  0  0  0
    8.7954   -2.2020   21.6529 C   0  0  0  0  0  0  0  0  0  0  0  0
    7.5390   -1.3674   21.4967 C   0  0  0  0  0  0  0  0  0  0  0  0
    6.7055   -1.3152   22.3960 O   0  0  0  0  0  0  0  0  0  0  0  0
    7.4040   -0.7039   20.3107 N   0  0  0  0  0  0  0  0  0  0  0  0
    6.3153   -0.0537   19.7635 C   0  0  0  0  0  0  0  0  0  0  0  0
    5.2354   -0.0079   20.3698 O   0  0  0  0  0  0  0  0  0  0  0  0
    6.4590    0.5921   18.4321 C   0  0  0  0  0  0  0  0  0  0  0  0
    5.5094    1.1886   17.7559 C   0  0  0  0  0  0  0  0  0  0  0  0
   10.2346    0.7486   21.8492 C   0  0  0  0  0  0  0  0  0  0  0  0
   11.6310    4.9934   23.6229 N   0  0  0  0  0  0  0  0  0  0  0  0
  1  2  1  0
  2  3  1  0
  3  4  1  0
  4  5  2  0
  5  6  1  0
  6  7  2  0
  7  8  1  0
  7  9  1  0
  9 10  1  0
 10 11  1  0
 11 12  2  0
 12 13  1  0
 13 14  1  0
 13 15  2  0
 15 16  1  0
 16 17  1  0
 17 18  1  0
 18 19  1  0
 19 20  2  0
 19 21  1  0
 21 22  1  0
 22 23  2  0
 22 24  1  0
 24 25  2  0
 16 26  2  0
  9 27  2  0
 27  4  1  0
 26 11  1  0
M  END
