CVD-0003813|dock_bobby27042020.44|mol2|13|dock2
     RDKit          3D

 24 26  0  0  0  0  0  0  0  0999 V2000
   12.9518    5.9371   22.9530 N   0  0  0  0  0  0  0  0  0  0  0  0
   13.4808    4.6746   22.1228 S   0  0  0  0  0  0  0  0  0  0  0  0
   13.2368    4.9459   20.7380 O   0  0  0  0  0  0  0  0  0  0  0  0
   14.8231    4.4184   22.5514 O   0  0  0  0  0  0  0  0  0  0  0  0
   12.5082    3.2667   22.5641 C   0  0  0  0  0  0  0  0  0  0  0  0
   13.1296    2.0743   22.8897 C   0  0  0  0  0  0  0  0  0  0  0  0
   12.3637    0.9773   23.2418 C   0  0  0  0  0  0  0  0  0  0  0  0
   10.9742    1.0491   23.2720 C   0  0  0  0  0  0  0  0  0  0  0  0
   10.3717    2.2587   22.9395 C   0  0  0  0  0  0  0  0  0  0  0  0
   11.1284    3.3632   22.5907 C   0  0  0  0  0  0  0  0  0  0  0  0
   10.2108   -0.0558   23.6241 N   0  0  0  0  0  0  0  0  0  0  0  0
    9.1059    0.0141   24.5849 C   0  0  0  0  0  0  0  0  0  0  0  0
    9.1475   -1.1140   25.5765 C   0  0  0  0  0  0  0  0  0  0  0  0
    9.1495   -2.4718   24.8653 C   0  0  0  0  0  0  0  0  0  0  0  0
   10.2997   -2.5056   23.8908 C   0  0  0  0  0  0  0  0  0  0  0  0
   10.2781   -1.3523   22.9105 C   0  0  0  0  0  0  0  0  0  0  0  0
    9.1874   -3.5905   25.8272 N   0  0  0  0  0  0  0  0  0  0  0  0
    8.8586   -4.9021   25.2765 C   0  0  0  0  0  0  0  0  0  0  0  0
    8.0359   -5.7168   26.2238 C   0  0  0  0  0  0  0  0  0  0  0  0
    6.7666   -6.2104   26.0244 C   0  0  0  0  0  0  0  0  0  0  0  0
    6.2714   -6.9354   27.1052 C   0  0  0  0  0  0  0  0  0  0  0  0
    7.1599   -6.9910   28.1175 C   0  0  0  0  0  0  0  0  0  0  0  0
    6.9506   -7.7806   29.6256 Cl  0  0  0  0  0  0  0  0  0  0  0  0
    8.6239   -6.1637   27.7860 S   0  0  0  0  0  0  0  0  0  0  0  0
  1  2  1  0
  2  3  2  0
  2  4  2  0
  2  5  1  0
  5  6  2  0
  6  7  1  0
  7  8  2  0
  8  9  1  0
  9 10  2  0
  8 11  1  0
 11 12  1  0
 12 13  1  0
 13 14  1  0
 14 15  1  0
 15 16  1  0
 14 17  1  0
 17 18  1  0
 18 19  1  0
 19 20  2  0
 20 21  1  0
 21 22  2  0
 22 23  1  0
 22 24  1  0
 10  5  1  0
 16 11  1  0
 24 19  1  0
M  END
