CVD-0001326|dock_bobby27042020.10|mol2|8|dock2
     RDKit          3D

 22 23  0  0  0  0  0  0  0  0999 V2000
    7.1691   -1.0596   23.0666 C   0  0  0  0  0  0  0  0  0  0  0  0
    8.2614   -1.4017   22.1699 N   0  0  0  0  0  0  0  0  0  0  0  0
    9.4276   -2.0293   22.7727 C   0  0  0  0  0  0  0  0  0  0  0  0
   10.4246   -1.0193   23.2966 C   0  0  0  0  0  0  0  0  0  0  0  0
   10.3942   -0.6165   24.4392 O   0  0  0  0  0  0  0  0  0  0  0  0
   11.4811   -0.5249   22.3100 C   0  0  0  0  0  0  0  0  0  0  0  0
   12.7200   -1.4182   22.3084 C   0  0  0  0  0  0  0  0  0  0  0  0
   13.5613   -0.8388   23.4104 C   0  0  0  0  0  0  0  0  0  0  0  0
   13.3761    0.6584   23.2456 C   0  0  0  0  0  0  0  0  0  0  0  0
   12.0390    0.7845   22.6487 N   0  0  0  0  0  0  0  0  0  0  0  0
   11.4340    1.9295   22.2591 C   0  0  0  0  0  0  0  0  0  0  0  0
   10.4045    1.8320   21.6138 O   0  0  0  0  0  0  0  0  0  0  0  0
   11.9217    3.3215   22.5632 C   0  0  0  0  0  0  0  0  0  0  0  0
   10.9930    4.2299   23.0665 C   0  0  0  0  0  0  0  0  0  0  0  0
   11.3566    5.5254   23.3926 C   0  0  0  0  0  0  0  0  0  0  0  0
   12.6567    5.9440   23.2228 C   0  0  0  0  0  0  0  0  0  0  0  0
   13.5890    5.0681   22.7138 C   0  0  0  0  0  0  0  0  0  0  0  0
   13.2285    3.7743   22.3746 C   0  0  0  0  0  0  0  0  0  0  0  0
    8.2007   -1.2037   20.8407 C   0  0  0  0  0  0  0  0  0  0  0  0
    9.1095   -1.5374   20.0908 O   0  0  0  0  0  0  0  0  0  0  0  0
    6.9373   -0.5477   20.3167 C   0  0  0  0  0  0  0  0  0  0  0  0
    6.9585   -0.4100   18.5535 Cl  0  0  0  0  0  0  0  0  0  0  0  0
  1  2  1  0
  2  3  1  0
  3  4  1  0
  4  5  2  0
  4  6  1  0
  6  7  1  0
  7  8  1  0
  8  9  1  0
  9 10  1  0
 10 11  1  0
 11 12  2  0
 11 13  1  0
 13 14  2  0
 14 15  1  0
 15 16  2  0
 16 17  1  0
 17 18  2  0
  2 19  1  0
 19 20  2  0
 19 21  1  0
 21 22  1  0
 10  6  1  0
 18 13  1  0
M  END
