CVD-0002162|dock_bobby27042020.35|mol2|24|dock1
     RDKit          3D

 26 28  0  0  0  0  0  0  0  0999 V2000
   11.0303    3.0944   22.3218 O   0  0  0  0  0  0  0  0  0  0  0  0
    9.9908    2.4656   22.4876 C   0  0  0  0  0  0  0  0  0  0  0  0
    8.7356    3.0266   22.4037 N   0  0  0  0  0  0  0  0  0  0  0  0
    8.3301    4.3577   22.1293 C   0  0  0  0  0  0  0  0  0  0  0  0
    7.0158    4.5810   21.7387 C   0  0  0  0  0  0  0  0  0  0  0  0
    6.5890    5.8682   21.4636 C   0  0  0  0  0  0  0  0  0  0  0  0
    7.4896    6.9001   21.5866 C   0  0  0  0  0  0  0  0  0  0  0  0
    8.7568    6.7207   21.9588 N   0  0  0  0  0  0  0  0  0  0  0  0
    9.1598    5.4738   22.2225 C   0  0  0  0  0  0  0  0  0  0  0  0
    9.9193    1.1190   22.7749 N   0  0  0  0  0  0  0  0  0  0  0  0
   10.9634    0.1627   22.9456 C   0  0  0  0  0  0  0  0  0  0  0  0
   12.2275    0.5050   23.4390 C   0  0  0  0  0  0  0  0  0  0  0  0
   13.2176   -0.4537   23.5706 C   0  0  0  0  0  0  0  0  0  0  0  0
   12.9742   -1.7623   23.2296 C   0  0  0  0  0  0  0  0  0  0  0  0
   11.7290   -2.1208   22.7531 C   0  0  0  0  0  0  0  0  0  0  0  0
   10.7098   -1.1822   22.6046 C   0  0  0  0  0  0  0  0  0  0  0  0
    9.3661   -1.6397   22.0829 C   0  0  0  0  0  0  0  0  0  0  0  0
    9.0764   -1.2230   20.7248 N   0  0  0  0  0  0  0  0  0  0  0  0
    7.9335   -0.5814   20.3555 C   0  0  0  0  0  0  0  0  0  0  0  0
    7.7133   -0.1940   19.0339 C   0  0  0  0  0  0  0  0  0  0  0  0
    6.5311    0.4543   18.7253 C   0  0  0  0  0  0  0  0  0  0  0  0
    5.5987    0.7031   19.7260 C   0  0  0  0  0  0  0  0  0  0  0  0
    5.9094    0.2778   21.0139 C   0  0  0  0  0  0  0  0  0  0  0  0
    7.0476   -0.3503   21.3296 N   0  0  0  0  0  0  0  0  0  0  0  0
    4.3560    1.3767   19.4401 C   0  0  0  0  0  0  0  0  0  0  0  0
    3.3836    1.9374   19.2285 N   0  0  0  0  0  0  0  0  0  0  0  0
  1  2  2  0
  2  3  1  0
  3  4  1  0
  4  5  2  0
  5  6  1  0
  6  7  2  0
  7  8  1  0
  8  9  2  0
  2 10  1  0
 10 11  1  0
 11 12  2  0
 12 13  1  0
 13 14  2  0
 14 15  1  0
 15 16  2  0
 16 17  1  0
 17 18  1  0
 18 19  1  0
 19 20  2  0
 20 21  1  0
 21 22  2  0
 22 23  1  0
 23 24  2  0
 22 25  1  0
 25 26  3  0
  9  4  1  0
 16 11  1  0
 24 19  1  0
M  END
