CVD-0000289|dock_bobby27042020.85|mol2|1|dock1
     RDKit          3D

 25 27  0  0  0  0  0  0  0  0999 V2000
   10.8342   -0.0720   25.8648 C   0  0  0  0  0  0  0  0  0  0  0  0
   11.7584    0.5149   24.8010 C   0  0  0  0  0  0  0  0  0  0  0  0
   12.6170   -0.5220   24.1728 N   0  0  0  0  0  0  0  0  0  0  0  0
   13.2814   -0.2431   22.8958 C   0  0  0  0  0  0  0  0  0  0  0  0
   13.4919   -1.5285   22.1717 C   0  0  0  0  0  0  0  0  0  0  0  0
   14.2565   -2.4489   22.9354 O   0  0  0  0  0  0  0  0  0  0  0  0
   13.6224   -2.7186   24.1720 C   0  0  0  0  0  0  0  0  0  0  0  0
   13.3966   -1.4578   24.9728 C   0  0  0  0  0  0  0  0  0  0  0  0
   10.9616    1.2249   23.7174 C   0  0  0  0  0  0  0  0  0  0  0  0
   11.1993    2.5533   23.4004 C   0  0  0  0  0  0  0  0  0  0  0  0
   10.4592    3.1796   22.4127 C   0  0  0  0  0  0  0  0  0  0  0  0
    9.4718    2.4882   21.7297 C   0  0  0  0  0  0  0  0  0  0  0  0
    9.2182    1.1531   22.0356 C   0  0  0  0  0  0  0  0  0  0  0  0
    8.2259    0.3810   21.3817 N   0  0  0  0  0  0  0  0  0  0  0  0
    7.3499   -0.5396   21.8532 C   0  0  0  0  0  0  0  0  0  0  0  0
    7.2502   -0.8983   23.0218 O   0  0  0  0  0  0  0  0  0  0  0  0
    6.4476   -1.1196   20.7821 C   0  0  0  0  0  0  0  0  0  0  0  0
    6.0760   -0.1218   19.7091 C   0  0  0  0  0  0  0  0  0  0  0  0
    6.6281   -0.1765   18.4527 C   0  0  0  0  0  0  0  0  0  0  0  0
    6.3440    0.6695   17.4565 N   0  0  0  0  0  0  0  0  0  0  0  0
    5.4578    1.6337   17.7086 C   0  0  0  0  0  0  0  0  0  0  0  0
    4.8347    1.7909   18.9297 C   0  0  0  0  0  0  0  0  0  0  0  0
    5.1581    0.8942   19.9313 C   0  0  0  0  0  0  0  0  0  0  0  0
    4.3966    1.0566   21.4798 Cl  0  0  0  0  0  0  0  0  0  0  0  0
    9.9715    0.5396   23.0310 C   0  0  0  0  0  0  0  0  0  0  0  0
  1  2  1  0
  2  3  1  0
  3  4  1  0
  4  5  1  0
  5  6  1  0
  6  7  1  0
  7  8  1  0
  2  9  1  0
  9 10  2  0
 10 11  1  0
 11 12  2  0
 12 13  1  0
 13 14  1  0
 14 15  1  0
 15 16  2  0
 15 17  1  0
 17 18  1  0
 18 19  2  0
 19 20  1  0
 20 21  2  0
 21 22  1  0
 22 23  2  0
 23 24  1  0
 13 25  2  0
  8  3  1  0
 25  9  1  0
 23 18  1  0
M  END
