CVD-0000336|dock_bobby27042020.84|mol2|34|dock1
     RDKit          3D

 28 31  0  0  0  0  0  0  0  0999 V2000
    8.1275   -1.9704   21.4706 C   0  0  0  0  0  0  0  0  0  0  0  0
    8.6686   -0.8732   20.5901 C   0  0  0  0  0  0  0  0  0  0  0  0
    8.0191    0.4796   20.7779 C   0  0  0  0  0  0  0  0  0  0  0  0
    6.9133    0.7388   19.9751 C   0  0  0  0  0  0  0  0  0  0  0  0
    6.2475    1.9245   20.1655 C   0  0  0  0  0  0  0  0  0  0  0  0
    4.8553    2.2872   19.1892 Cl  0  0  0  0  0  0  0  0  0  0  0  0
    6.5789    2.8453   21.0540 N   0  0  0  0  0  0  0  0  0  0  0  0
    7.6634    2.6184   21.7724 C   0  0  0  0  0  0  0  0  0  0  0  0
    8.0566    3.9365   22.8316 Cl  0  0  0  0  0  0  0  0  0  0  0  0
    8.4531    1.4544   21.7105 C   0  0  0  0  0  0  0  0  0  0  0  0
    9.6602    1.2603   22.5666 C   0  0  0  0  0  0  0  0  0  0  0  0
   10.8724    1.7821   22.2406 C   0  0  0  0  0  0  0  0  0  0  0  0
   11.9890    1.6151   22.9865 N   0  0  0  0  0  0  0  0  0  0  0  0
   13.2330    2.2173   22.6589 C   0  0  0  0  0  0  0  0  0  0  0  0
   13.1451    3.6629   22.6095 N   0  0  0  0  0  0  0  0  0  0  0  0
   12.2524    4.4139   23.4915 C   0  0  0  0  0  0  0  0  0  0  0  0
   12.4181    5.8553   23.0451 C   0  0  0  0  0  0  0  0  0  0  0  0
   13.6058    5.8727   22.0961 C   0  0  0  0  0  0  0  0  0  0  0  0
   13.8900    4.4199   21.8338 C   0  0  0  0  0  0  0  0  0  0  0  0
   14.7042    3.9846   21.0294 O   0  0  0  0  0  0  0  0  0  0  0  0
   11.9457    0.8188   24.2229 C   0  0  0  0  0  0  0  0  0  0  0  0
   10.6202    0.3039   24.5642 C   0  0  0  0  0  0  0  0  0  0  0  0
    9.5310    0.4768   23.7945 C   0  0  0  0  0  0  0  0  0  0  0  0
   12.9286   -0.3155   24.0988 C   0  0  0  0  0  0  0  0  0  0  0  0
   13.9633   -0.5019   24.8967 N   0  0  0  0  0  0  0  0  0  0  0  0
   14.5741   -1.6399   24.4253 C   0  0  0  0  0  0  0  0  0  0  0  0
   13.9029   -2.1233   23.3558 C   0  0  0  0  0  0  0  0  0  0  0  0
   12.8524   -1.2742   23.1517 N   0  0  0  0  0  0  0  0  0  0  0  0
  1  2  1  0
  2  3  1  0
  3  4  2  0
  4  5  1  0
  5  6  1  0
  5  7  2  0
  7  8  1  0
  8  9  1  0
  8 10  2  0
 10 11  1  0
 11 12  2  0
 12 13  1  0
 13 14  1  0
 14 15  1  0
 15 16  1  0
 16 17  1  0
 17 18  1  0
 18 19  1  0
 19 20  2  0
 13 21  1  0
 21 22  1  0
 22 23  2  0
 21 24  1  0
 24 25  2  0
 25 26  1  0
 26 27  2  0
 27 28  1  0
 10  3  1  0
 23 11  1  0
 28 24  1  0
 19 15  1  0
M  END
