CVD-0002256|dock_bobby27042020.21|mol2|4|dock2
     RDKit          3D

 26 28  0  0  0  0  0  0  0  0999 V2000
   10.2684    3.5125   22.5659 C   0  0  0  0  0  0  0  0  0  0  0  0
   11.7271    3.8913   22.5409 C   0  0  0  0  0  0  0  0  0  0  0  0
   12.0643    5.2385   22.6307 C   0  0  0  0  0  0  0  0  0  0  0  0
   13.3884    5.6151   22.6075 C   0  0  0  0  0  0  0  0  0  0  0  0
   14.3888    4.7453   22.5010 N   0  0  0  0  0  0  0  0  0  0  0  0
   14.0773    3.4484   22.4125 C   0  0  0  0  0  0  0  0  0  0  0  0
   12.7726    2.9548   22.4261 C   0  0  0  0  0  0  0  0  0  0  0  0
   12.4400    1.5743   22.3318 N   0  0  0  0  0  0  0  0  0  0  0  0
   13.1307    0.4710   22.7148 C   0  0  0  0  0  0  0  0  0  0  0  0
   14.2376    0.4652   23.2457 O   0  0  0  0  0  0  0  0  0  0  0  0
   12.3470   -0.8106   22.4061 C   0  0  0  0  0  0  0  0  0  0  0  0
   12.9681   -1.6010   21.7050 O   0  0  0  0  0  0  0  0  0  0  0  0
   11.0973   -1.1030   22.8267 N   0  0  0  0  0  0  0  0  0  0  0  0
   10.4307   -2.3084   22.3623 C   0  0  0  0  0  0  0  0  0  0  0  0
    9.0800   -1.9835   21.8064 C   0  0  0  0  0  0  0  0  0  0  0  0
    8.3031   -1.2632   22.8252 N   0  0  0  0  0  0  0  0  0  0  0  0
    8.9556   -0.0065   23.2217 C   0  0  0  0  0  0  0  0  0  0  0  0
   10.3122   -0.3156   23.7825 C   0  0  0  0  0  0  0  0  0  0  0  0
    6.6888   -1.2766   22.6722 S   0  0  0  0  0  0  0  0  0  0  0  0
    6.1669   -0.2213   23.4826 O   0  0  0  0  0  0  0  0  0  0  0  0
    6.2422   -2.6158   22.8961 O   0  0  0  0  0  0  0  0  0  0  0  0
    6.3168   -0.8831   21.0179 C   0  0  0  0  0  0  0  0  0  0  0  0
    5.9996   -1.8360   19.9911 C   0  0  0  0  0  0  0  0  0  0  0  0
    5.7413   -1.2554   18.7800 C   0  0  0  0  0  0  0  0  0  0  0  0
    5.8765    0.4373   18.8634 S   0  0  0  0  0  0  0  0  0  0  0  0
    6.2725    0.3538   20.5095 C   0  0  0  0  0  0  0  0  0  0  0  0
  1  2  1  0
  2  3  2  0
  3  4  1  0
  4  5  2  0
  5  6  1  0
  6  7  2  0
  7  8  1  0
  8  9  1  0
  9 10  2  0
  9 11  1  0
 11 12  2  0
 11 13  1  0
 13 14  1  0
 14 15  1  0
 15 16  1  0
 16 17  1  0
 17 18  1  0
 16 19  1  0
 19 20  2  0
 19 21  2  0
 19 22  1  0
 22 23  1  0
 23 24  2  0
 24 25  1  0
 25 26  1  0
  7  2  1  0
 18 13  1  0
 26 22  2  0
M  END
