CVD-0001180|dock_bobby27042020.67|mol2|50|dock3
     RDKit          3D

 23 24  0  0  0  0  0  0  0  0999 V2000
   13.9364   -0.2490   22.8301 C   0  0  0  0  0  0  0  0  0  0  0  0
   12.8028    0.7418   22.7975 C   0  0  0  0  0  0  0  0  0  0  0  0
   13.0620    2.1090   22.7657 C   0  0  0  0  0  0  0  0  0  0  0  0
   12.0536    3.0680   22.7253 C   0  0  0  0  0  0  0  0  0  0  0  0
   10.7382    2.6122   22.7291 C   0  0  0  0  0  0  0  0  0  0  0  0
   10.4463    1.2600   22.7586 C   0  0  0  0  0  0  0  0  0  0  0  0
   11.4738    0.3274   22.7925 C   0  0  0  0  0  0  0  0  0  0  0  0
   11.2982   -1.0349   22.8151 O   0  0  0  0  0  0  0  0  0  0  0  0
   10.1398   -1.6314   23.4207 C   0  0  0  0  0  0  0  0  0  0  0  0
    9.2698   -2.2766   22.3635 C   0  0  0  0  0  0  0  0  0  0  0  0
    9.0740   -1.4146   21.2396 O   0  0  0  0  0  0  0  0  0  0  0  0
    7.9142   -2.6729   22.9289 C   0  0  0  0  0  0  0  0  0  0  0  0
    7.2751   -3.7187   22.1218 N   0  0  0  0  0  0  0  0  0  0  0  0
    6.4743   -3.3737   21.0717 C   0  0  0  0  0  0  0  0  0  0  0  0
    5.8562   -4.2043   20.2719 N   0  0  0  0  0  0  0  0  0  0  0  0
    6.0581   -5.5312   20.5445 C   0  0  0  0  0  0  0  0  0  0  0  0
    6.8343   -5.9812   21.5570 C   0  0  0  0  0  0  0  0  0  0  0  0
    7.5067   -5.0617   22.4243 C   0  0  0  0  0  0  0  0  0  0  0  0
    8.2319   -5.3863   23.3632 O   0  0  0  0  0  0  0  0  0  0  0  0
   12.3807    4.5693   22.6752 C   0  0  0  0  0  0  0  0  0  0  0  0
   13.3648    4.9560   23.7835 C   0  0  0  0  0  0  0  0  0  0  0  0
   13.0083    4.9287   21.3253 C   0  0  0  0  0  0  0  0  0  0  0  0
   11.1174    5.4155   22.8612 C   0  0  0  0  0  0  0  0  0  0  0  0
  1  2  1  0
  2  3  2  0
  3  4  1  0
  4  5  2  0
  5  6  1  0
  6  7  2  0
  7  8  1  0
  8  9  1  0
  9 10  1  0
 10 11  1  0
 10 12  1  0
 12 13  1  0
 13 14  1  0
 14 15  2  0
 15 16  1  0
 16 17  2  0
 17 18  1  0
 18 19  2  0
  4 20  1  0
 20 21  1  0
 20 22  1  0
 20 23  1  0
  7  2  1  0
 18 13  1  0
M  END
