CVD-0002217|dock_bobby27042020.7|mol2|1|dock3
     RDKit          3D

 16 16  0  0  0  0  0  0  0  0999 V2000
   12.5390    0.4571   23.5039 C   0  0  0  0  0  0  0  0  0  0  0  0
   13.5238   -0.2806   22.6265 C   0  0  0  0  0  0  0  0  0  0  0  0
   13.1725   -1.7353   22.4638 C   0  0  0  0  0  0  0  0  0  0  0  0
   11.8649   -1.9206   21.8508 N   0  0  0  0  0  0  0  0  0  0  0  0
   10.7504   -2.0683   22.5618 C   0  0  0  0  0  0  0  0  0  0  0  0
   10.7421   -2.0593   23.7888 O   0  0  0  0  0  0  0  0  0  0  0  0
    9.4812   -2.2502   21.7658 C   0  0  0  0  0  0  0  0  0  0  0  0
    8.7466   -0.9586   21.4992 C   0  0  0  0  0  0  0  0  0  0  0  0
    7.9628   -1.1357   20.3092 O   0  0  0  0  0  0  0  0  0  0  0  0
    6.9789   -0.2375   19.9771 C   0  0  0  0  0  0  0  0  0  0  0  0
    6.0331   -0.6026   19.0351 C   0  0  0  0  0  0  0  0  0  0  0  0
    5.0319    0.2855   18.6846 C   0  0  0  0  0  0  0  0  0  0  0  0
    4.9494    1.5432   19.2597 C   0  0  0  0  0  0  0  0  0  0  0  0
    3.8571    2.5079   18.8671 C   0  0  0  0  0  0  0  0  0  0  0  0
    5.9038    1.8899   20.2021 C   0  0  0  0  0  0  0  0  0  0  0  0
    6.9119    1.0149   20.5669 C   0  0  0  0  0  0  0  0  0  0  0  0
  1  2  1  0
  2  3  1  0
  3  4  1  0
  4  5  1  0
  5  6  2  0
  5  7  1  0
  7  8  1  0
  8  9  1  0
  9 10  1  0
 10 11  2  0
 11 12  1  0
 12 13  2  0
 13 14  1  0
 13 15  1  0
 15 16  2  0
 16 10  1  0
M  END
