CVD-0002028|dock_bobby27042020.50|mol2|30|dock2
     RDKit          3D

 33 38  0  0  0  0  0  0  0  0999 V2000
   10.2550    2.5650   25.5019 F   0  0  0  0  0  0  0  0  0  0  0  0
   11.1261    1.9719   24.6417 C   0  0  0  0  0  0  0  0  0  0  0  0
   12.2702    2.6484   24.3101 C   0  0  0  0  0  0  0  0  0  0  0  0
   13.1657    2.0551   23.4377 C   0  0  0  0  0  0  0  0  0  0  0  0
   12.8751    0.7949   22.9273 C   0  0  0  0  0  0  0  0  0  0  0  0
   13.5758   -0.0115   22.0645 N   0  0  0  0  0  0  0  0  0  0  0  0
   12.8671   -1.1641   21.8626 C   0  0  0  0  0  0  0  0  0  0  0  0
   11.7050   -1.1390   22.5758 C   0  0  0  0  0  0  0  0  0  0  0  0
   10.6590   -2.2122   22.6189 C   0  0  0  0  0  0  0  0  0  0  0  0
    9.2411   -1.8525   22.1975 C   0  0  0  0  0  0  0  0  0  0  0  0
    9.3024   -1.1231   20.9274 N   0  0  0  0  0  0  0  0  0  0  0  0
    8.4758   -0.1952   20.3963 C   0  0  0  0  0  0  0  0  0  0  0  0
    8.8241    0.3060   19.3301 O   0  0  0  0  0  0  0  0  0  0  0  0
    7.1533    0.2900   21.0245 C   0  0  0  0  0  0  0  0  0  0  0  0
    6.0712    0.5650   19.9997 C   0  0  0  0  0  0  0  0  0  0  0  0
    6.0724    0.3554   18.6501 C   0  0  0  0  0  0  0  0  0  0  0  0
    4.8832    0.7431   18.0925 N   0  0  0  0  0  0  0  0  0  0  0  0
    4.0748    1.2178   19.0820 C   0  0  0  0  0  0  0  0  0  0  0  0
    2.8255    1.6961   18.9556 N   0  0  0  0  0  0  0  0  0  0  0  0
    2.2312    2.1060   20.0845 C   0  0  0  0  0  0  0  0  0  0  0  0
    2.8273    2.0593   21.3266 C   0  0  0  0  0  0  0  0  0  0  0  0
    4.1167    1.5632   21.4379 C   0  0  0  0  0  0  0  0  0  0  0  0
    4.7794    1.1239   20.2936 C   0  0  0  0  0  0  0  0  0  0  0  0
    6.5536   -0.6073   22.1214 C   0  0  0  0  0  0  0  0  0  0  0  0
    6.3210   -0.1352   23.2177 O   0  0  0  0  0  0  0  0  0  0  0  0
    6.3266   -1.9115   21.8775 N   0  0  0  0  0  0  0  0  0  0  0  0
    6.5835   -2.6250   20.6282 C   0  0  0  0  0  0  0  0  0  0  0  0
    7.7773   -3.5016   20.9227 C   0  0  0  0  0  0  0  0  0  0  0  0
    8.4131   -3.0656   22.1779 N   0  0  0  0  0  0  0  0  0  0  0  0
    7.5061   -3.2875   23.3228 C   0  0  0  0  0  0  0  0  0  0  0  0
    6.1031   -2.8583   22.9584 C   0  0  0  0  0  0  0  0  0  0  0  0
   11.6921    0.1153   23.2746 C   0  0  0  0  0  0  0  0  0  0  0  0
   10.8026    0.7266   24.1573 C   0  0  0  0  0  0  0  0  0  0  0  0
  1  2  1  0
  2  3  2  0
  3  4  1  0
  4  5  2  0
  5  6  1  0
  6  7  1  0
  7  8  2  0
  8  9  1  0
  9 10  1  0
 10 11  1  0
 11 12  1  0
 12 13  2  0
 12 14  1  0
 14 15  1  0
 15 16  2  0
 16 17  1  0
 17 18  1  0
 18 19  2  0
 19 20  1  0
 20 21  2  0
 21 22  1  0
 22 23  2  0
 14 24  1  0
 24 25  2  0
 24 26  1  0
 26 27  1  0
 27 28  1  0
 28 29  1  0
 29 30  1  0
 30 31  1  0
  8 32  1  0
 32 33  2  0
 33  2  1  0
 32  5  1  0
 29 10  1  0
 23 15  1  0
 31 26  1  0
 23 18  1  0
M  END
