CVD-0000863|dock_bobby27042020.40|mol2|14|dock3
     RDKit          3D

 21 22  0  0  0  0  0  0  0  0999 V2000
    7.0232    2.4424   21.0091 F   0  0  0  0  0  0  0  0  0  0  0  0
    6.7036    1.2060   21.5951 C   0  0  0  0  0  0  0  0  0  0  0  0
    5.4508    0.6121   20.9425 C   0  0  0  0  0  0  0  0  0  0  0  0
    5.7083    0.2305   19.4931 C   0  0  0  0  0  0  0  0  0  0  0  0
    6.8669   -0.7546   19.3954 C   0  0  0  0  0  0  0  0  0  0  0  0
    8.1354   -0.1947   20.0469 C   0  0  0  0  0  0  0  0  0  0  0  0
    7.8923    0.2410   21.4992 C   0  0  0  0  0  0  0  0  0  0  0  0
    9.3498    0.9124   22.2971 S   0  0  0  0  0  0  0  0  0  0  0  0
    9.0743    1.1334   23.6857 O   0  0  0  0  0  0  0  0  0  0  0  0
    9.7449    2.0456   21.5147 O   0  0  0  0  0  0  0  0  0  0  0  0
   10.5854   -0.1465   22.2039 N   0  0  0  0  0  0  0  0  0  0  0  0
   10.4021   -1.5880   22.4866 C   0  0  0  0  0  0  0  0  0  0  0  0
   11.4028   -2.3725   21.8320 N   0  0  0  0  0  0  0  0  0  0  0  0
   12.7433   -2.0875   22.3460 C   0  0  0  0  0  0  0  0  0  0  0  0
   12.8517   -2.5754   23.7808 C   0  0  0  0  0  0  0  0  0  0  0  0
   12.0174   -3.3356   24.2225 O   0  0  0  0  0  0  0  0  0  0  0  0
   14.0218   -2.0874   24.5875 C   0  0  0  0  0  0  0  0  0  0  0  0
   13.5674   -0.8542   25.7707 Cl  0  0  0  0  0  0  0  0  0  0  0  0
   13.0139   -0.6059   22.1601 C   0  0  0  0  0  0  0  0  0  0  0  0
   14.0407   -0.1844   21.6738 O   0  0  0  0  0  0  0  0  0  0  0  0
   11.9146    0.3284   22.6325 C   0  0  0  0  0  0  0  0  0  0  0  0
  1  2  1  0
  2  3  1  0
  3  4  1  0
  4  5  1  0
  5  6  1  0
  6  7  1  0
  7  8  1  0
  8  9  2  0
  8 10  2  0
  8 11  1  0
 11 12  1  0
 12 13  1  0
 13 14  1  0
 14 15  1  0
 15 16  2  0
 15 17  1  0
 17 18  1  0
 14 19  1  0
 19 20  2  0
 19 21  1  0
  7  2  1  0
 21 11  1  0
M  END
