CVD-0003658|dock_bobby27042020.59|mol2|10|dock1
     RDKit          3D

 20 21  0  0  0  0  0  0  0  0999 V2000
   13.8966   -2.1943   21.0711 C   0  0  0  0  0  0  0  0  0  0  0  0
   12.4766   -1.9251   21.2861 N   0  0  0  0  0  0  0  0  0  0  0  0
   12.0004   -1.4007   22.7363 S   0  0  0  0  0  0  0  0  0  0  0  0
   10.6235   -1.7640   22.8772 O   0  0  0  0  0  0  0  0  0  0  0  0
   12.9549   -1.8844   23.6863 O   0  0  0  0  0  0  0  0  0  0  0  0
   12.0950    0.3572   22.7255 C   0  0  0  0  0  0  0  0  0  0  0  0
   10.9334    1.1091   22.7864 C   0  0  0  0  0  0  0  0  0  0  0  0
   11.0181    2.4901   22.7825 C   0  0  0  0  0  0  0  0  0  0  0  0
   12.2451    3.1360   22.7199 C   0  0  0  0  0  0  0  0  0  0  0  0
   13.3956    2.3615   22.6614 C   0  0  0  0  0  0  0  0  0  0  0  0
   13.3310    0.9794   22.6645 C   0  0  0  0  0  0  0  0  0  0  0  0
   12.3268    4.6511   22.7209 C   0  0  0  0  0  0  0  0  0  0  0  0
   13.3469    5.1556   21.7072 C   0  0  0  0  0  0  0  0  0  0  0  0
   11.0273    5.2493   22.3988 N   0  0  0  0  0  0  0  0  0  0  0  0
   10.4760    6.2143   23.1434 C   0  0  0  0  0  0  0  0  0  0  0  0
   11.0181    6.6672   24.1481 O   0  0  0  0  0  0  0  0  0  0  0  0
    9.1252    6.7380   22.6685 C   0  0  0  0  0  0  0  0  0  0  0  0
    7.8420    6.0161   23.1791 C   0  0  0  0  0  0  0  0  0  0  0  0
    8.1852    7.3590   23.6177 C   0  0  0  0  0  0  0  0  0  0  0  0
    7.9283    8.4116   24.3740 C   0  0  0  0  0  0  0  0  0  0  0  0
  1  2  1  0
  2  3  1  0
  3  4  2  0
  3  5  2  0
  3  6  1  0
  6  7  2  0
  7  8  1  0
  8  9  2  0
  9 10  1  0
 10 11  2  0
  9 12  1  0
 12 13  1  0
 12 14  1  0
 14 15  1  0
 15 16  2  0
 15 17  1  0
 17 18  1  0
 18 19  1  0
 19 20  2  0
 11  6  1  0
 19 17  1  0
M  END
