CVD-0002033|dock_bobby27042020.79|mol2|8|dock1
     RDKit          3D

 33 37  0  0  0  0  0  0  0  0999 V2000
   12.2952    7.7742   27.5667 F   0  0  0  0  0  0  0  0  0  0  0  0
   12.7091    7.7533   26.2711 C   0  0  0  0  0  0  0  0  0  0  0  0
   13.1601    8.9221   25.7168 C   0  0  0  0  0  0  0  0  0  0  0  0
   13.5815    8.9143   24.3988 C   0  0  0  0  0  0  0  0  0  0  0  0
   13.5350    7.7231   23.6831 C   0  0  0  0  0  0  0  0  0  0  0  0
   13.8805    7.4394   22.3850 N   0  0  0  0  0  0  0  0  0  0  0  0
   13.6559    6.1110   22.1485 C   0  0  0  0  0  0  0  0  0  0  0  0
   13.1666    5.5037   23.2672 C   0  0  0  0  0  0  0  0  0  0  0  0
   12.7967    4.0560   23.4160 C   0  0  0  0  0  0  0  0  0  0  0  0
   11.8784    3.5435   22.3233 C   0  0  0  0  0  0  0  0  0  0  0  0
   11.2406    2.2817   22.6727 N   0  0  0  0  0  0  0  0  0  0  0  0
   10.2919    1.7542   21.8760 C   0  0  0  0  0  0  0  0  0  0  0  0
    9.9595    2.3108   20.8366 O   0  0  0  0  0  0  0  0  0  0  0  0
    9.6864    0.5841   22.2279 N   0  0  0  0  0  0  0  0  0  0  0  0
   10.2127   -0.3932   23.1791 C   0  0  0  0  0  0  0  0  0  0  0  0
   10.2549   -1.7687   22.5485 C   0  0  0  0  0  0  0  0  0  0  0  0
    8.9360   -2.1243   22.0296 N   0  0  0  0  0  0  0  0  0  0  0  0
    8.4096   -1.1471   21.0784 C   0  0  0  0  0  0  0  0  0  0  0  0
    8.3675    0.2285   21.7090 C   0  0  0  0  0  0  0  0  0  0  0  0
    8.3364   -3.2827   22.3779 C   0  0  0  0  0  0  0  0  0  0  0  0
    8.8571   -4.0578   23.1702 O   0  0  0  0  0  0  0  0  0  0  0  0
    6.9921   -3.6116   21.7522 C   0  0  0  0  0  0  0  0  0  0  0  0
    6.4671   -4.9670   22.1210 C   0  0  0  0  0  0  0  0  0  0  0  0
    6.8162   -6.1639   21.5674 C   0  0  0  0  0  0  0  0  0  0  0  0
    6.1284   -7.1884   22.1617 N   0  0  0  0  0  0  0  0  0  0  0  0
    5.3129   -6.6651   23.1216 C   0  0  0  0  0  0  0  0  0  0  0  0
    4.4742   -7.3330   23.9315 N   0  0  0  0  0  0  0  0  0  0  0  0
    3.7729   -6.5916   24.8000 C   0  0  0  0  0  0  0  0  0  0  0  0
    3.8720   -5.2199   24.8945 C   0  0  0  0  0  0  0  0  0  0  0  0
    4.7419   -4.5467   24.0513 C   0  0  0  0  0  0  0  0  0  0  0  0
    5.4944   -5.2718   23.1297 C   0  0  0  0  0  0  0  0  0  0  0  0
   13.0747    6.5285   24.2695 C   0  0  0  0  0  0  0  0  0  0  0  0
   12.6487    6.5568   25.5969 C   0  0  0  0  0  0  0  0  0  0  0  0
  1  2  1  0
  2  3  2  0
  3  4  1  0
  4  5  2  0
  5  6  1  0
  6  7  1  0
  7  8  2  0
  8  9  1  0
  9 10  1  0
 10 11  1  0
 11 12  1  0
 12 13  2  0
 12 14  1  0
 14 15  1  0
 15 16  1  0
 16 17  1  0
 17 18  1  0
 18 19  1  0
 17 20  1  0
 20 21  2  0
 20 22  1  0
 22 23  1  0
 23 24  2  0
 24 25  1  0
 25 26  1  0
 26 27  2  0
 27 28  1  0
 28 29  2  0
 29 30  1  0
 30 31  2  0
  8 32  1  0
 32 33  2  0
 33  2  1  0
 32  5  1  0
 19 14  1  0
 31 23  1  0
 31 26  1  0
M  END
