CVD-0001905|dock_bobby27042020.51|mol2|5|dock3
     RDKit          3D

 34 36  0  0  0  0  0  0  0  0999 V2000
    8.1797    3.7877   24.2454 C   0  0  0  0  0  0  0  0  0  0  0  0
    8.8447    4.1939   22.9562 C   0  0  0  0  0  0  0  0  0  0  0  0
   10.3536    4.1371   22.9772 C   0  0  0  0  0  0  0  0  0  0  0  0
   11.0887    5.3182   22.9959 C   0  0  0  0  0  0  0  0  0  0  0  0
   12.4706    5.2935   23.0169 C   0  0  0  0  0  0  0  0  0  0  0  0
   13.1338    4.0805   22.9806 C   0  0  0  0  0  0  0  0  0  0  0  0
   12.4419    2.8721   22.9260 C   0  0  0  0  0  0  0  0  0  0  0  0
   13.2414    1.6025   22.7846 C   0  0  0  0  0  0  0  0  0  0  0  0
   11.0391    2.9138   22.9807 C   0  0  0  0  0  0  0  0  0  0  0  0
   10.2269    1.7297   23.0323 N   0  0  0  0  0  0  0  0  0  0  0  0
    9.4767    1.2306   22.0126 C   0  0  0  0  0  0  0  0  0  0  0  0
    9.4008    1.7428   20.8992 O   0  0  0  0  0  0  0  0  0  0  0  0
    8.6910   -0.0766   22.2739 C   0  0  0  0  0  0  0  0  0  0  0  0
    9.5807   -1.1924   22.6920 N   0  0  0  0  0  0  0  0  0  0  0  0
   10.8670   -1.2297   22.1689 C   0  0  0  0  0  0  0  0  0  0  0  0
   11.2587   -0.3677   21.3832 O   0  0  0  0  0  0  0  0  0  0  0  0
   11.8271   -2.3202   22.5145 C   0  0  0  0  0  0  0  0  0  0  0  0
   13.0306   -2.3361   22.0048 C   0  0  0  0  0  0  0  0  0  0  0  0
    9.1415   -2.1653   23.6520 C   0  0  0  0  0  0  0  0  0  0  0  0
    9.2123   -1.9139   25.0119 C   0  0  0  0  0  0  0  0  0  0  0  0
    8.7754   -2.8447   25.9365 C   0  0  0  0  0  0  0  0  0  0  0  0
    8.2469   -4.0721   25.5246 C   0  0  0  0  0  0  0  0  0  0  0  0
    7.7653   -4.9964   26.5174 N   0  0  0  0  0  0  0  0  0  0  0  0
    6.3567   -5.1260   26.8521 C   0  0  0  0  0  0  0  0  0  0  0  0
    8.7182   -5.7279   27.3361 C   0  0  0  0  0  0  0  0  0  0  0  0
    8.2053   -4.3684   24.1523 C   0  0  0  0  0  0  0  0  0  0  0  0
    7.7462   -5.6658   23.5370 C   0  0  0  0  0  0  0  0  0  0  0  0
    8.6358   -3.3951   23.2541 C   0  0  0  0  0  0  0  0  0  0  0  0
    7.7575   -0.4876   21.1440 C   0  0  0  0  0  0  0  0  0  0  0  0
    8.2366   -1.0381   19.9653 C   0  0  0  0  0  0  0  0  0  0  0  0
    7.3503   -1.3991   18.9655 C   0  0  0  0  0  0  0  0  0  0  0  0
    6.0049   -1.1976   19.1772 C   0  0  0  0  0  0  0  0  0  0  0  0
    5.5118   -0.6713   20.2995 N   0  0  0  0  0  0  0  0  0  0  0  0
    6.3856   -0.3302   21.2513 C   0  0  0  0  0  0  0  0  0  0  0  0
  1  2  1  0
  2  3  1  0
  3  4  2  0
  4  5  1  0
  5  6  2  0
  6  7  1  0
  7  8  1  0
  7  9  2  0
  9 10  1  0
 10 11  1  0
 11 12  2  0
 11 13  1  0
 13 14  1  0
 14 15  1  0
 15 16  2  0
 15 17  1  0
 17 18  2  0
 14 19  1  0
 19 20  2  0
 20 21  1  0
 21 22  2  0
 22 23  1  0
 23 24  1  0
 23 25  1  0
 22 26  1  0
 26 27  1  0
 26 28  2  0
 13 29  1  0
 29 30  2  0
 30 31  1  0
 31 32  2  0
 32 33  1  0
 33 34  2  0
  9  3  1  0
 28 19  1  0
 34 29  1  0
M  END
