CVD-0003951|dock_bobby27042020.58|mol2|11|dock3
     RDKit          3D

 32 35  0  0  0  0  0  0  0  0999 V2000
   10.9626    1.9011   21.5337 O   0  0  0  0  0  0  0  0  0  0  0  0
   11.2305    2.7412   22.3876 C   0  0  0  0  0  0  0  0  0  0  0  0
   12.4212    2.7468   23.0189 N   0  0  0  0  0  0  0  0  0  0  0  0
   13.4502    1.7601   22.7232 C   0  0  0  0  0  0  0  0  0  0  0  0
   13.4322    0.6097   23.7136 C   0  0  0  0  0  0  0  0  0  0  0  0
   12.0728   -0.0355   23.8344 C   0  0  0  0  0  0  0  0  0  0  0  0
   11.2921    0.1042   24.9649 C   0  0  0  0  0  0  0  0  0  0  0  0
   10.0905   -0.4578   25.1136 N   0  0  0  0  0  0  0  0  0  0  0  0
    9.6229   -1.2043   24.1091 C   0  0  0  0  0  0  0  0  0  0  0  0
   10.3035   -1.4060   22.9109 C   0  0  0  0  0  0  0  0  0  0  0  0
    9.8390   -2.1660   21.8176 N   0  0  0  0  0  0  0  0  0  0  0  0
    8.7207   -3.0030   21.6930 C   0  0  0  0  0  0  0  0  0  0  0  0
    8.5141   -4.0750   22.5614 C   0  0  0  0  0  0  0  0  0  0  0  0
    7.3852   -4.8637   22.4328 C   0  0  0  0  0  0  0  0  0  0  0  0
    6.4538   -4.5940   21.4577 C   0  0  0  0  0  0  0  0  0  0  0  0
    6.6422   -3.5426   20.5790 C   0  0  0  0  0  0  0  0  0  0  0  0
    7.7807   -2.7420   20.6789 C   0  0  0  0  0  0  0  0  0  0  0  0
    8.0242   -1.6909   19.7819 N   0  0  0  0  0  0  0  0  0  0  0  0
    7.1731   -0.6911   19.2656 C   0  0  0  0  0  0  0  0  0  0  0  0
    7.4926    0.0931   18.1601 C   0  0  0  0  0  0  0  0  0  0  0  0
    6.6131    1.0665   17.7157 C   0  0  0  0  0  0  0  0  0  0  0  0
    5.4068    1.2607   18.3519 C   0  0  0  0  0  0  0  0  0  0  0  0
    5.0736    0.4796   19.4364 C   0  0  0  0  0  0  0  0  0  0  0  0
    5.9483   -0.4921   19.8926 C   0  0  0  0  0  0  0  0  0  0  0  0
   11.5538   -0.8065   22.8034 C   0  0  0  0  0  0  0  0  0  0  0  0
   10.4037    3.7531   22.8112 N   0  0  0  0  0  0  0  0  0  0  0  0
    9.0882    4.1003   22.4136 C   0  0  0  0  0  0  0  0  0  0  0  0
    8.1224    3.1615   22.0580 C   0  0  0  0  0  0  0  0  0  0  0  0
    6.8558    3.5754   21.6794 C   0  0  0  0  0  0  0  0  0  0  0  0
    6.5364    4.9152   21.6498 C   0  0  0  0  0  0  0  0  0  0  0  0
    7.4844    5.8508   21.9997 C   0  0  0  0  0  0  0  0  0  0  0  0
    8.7539    5.4494   22.3798 C   0  0  0  0  0  0  0  0  0  0  0  0
  1  2  2  0
  2  3  1  0
  3  4  1  0
  4  5  1  0
  5  6  1  0
  6  7  2  0
  7  8  1  0
  8  9  2  0
  9 10  1  0
 10 11  1  0
 11 12  1  0
 12 13  2  0
 13 14  1  0
 14 15  2  0
 15 16  1  0
 16 17  2  0
 17 18  1  0
 18 19  1  0
 19 20  2  0
 20 21  1  0
 21 22  2  0
 22 23  1  0
 23 24  2  0
 10 25  2  0
  2 26  1  0
 26 27  1  0
 27 28  2  0
 28 29  1  0
 29 30  2  0
 30 31  1  0
 31 32  2  0
 25  6  1  0
 32 27  1  0
 17 12  1  0
 24 19  1  0
M  END
