CVD-0001493|dock_bobby27042020.38|mol2|3|dock2
     RDKit          3D

 38 42  0  0  0  0  0  0  0  0999 V2000
   13.4315    9.1705   25.4733 O   0  0  0  0  0  0  0  0  0  0  0  0
   13.7449    8.9883   24.2173 C   0  0  0  0  0  0  0  0  0  0  0  0
   14.3754    9.7958   23.5570 O   0  0  0  0  0  0  0  0  0  0  0  0
   13.2659    7.6991   23.6441 C   0  0  0  0  0  0  0  0  0  0  0  0
   13.7776    7.2110   22.4460 C   0  0  0  0  0  0  0  0  0  0  0  0
   13.4001    6.0624   21.8654 N   0  0  0  0  0  0  0  0  0  0  0  0
   12.4574    5.3594   22.5177 C   0  0  0  0  0  0  0  0  0  0  0  0
   11.9091    4.1656   22.1354 N   0  0  0  0  0  0  0  0  0  0  0  0
   10.9928    3.7799   23.0582 C   0  0  0  0  0  0  0  0  0  0  0  0
   10.2915    2.5871   22.8933 N   0  0  0  0  0  0  0  0  0  0  0  0
    9.2670    2.0818   23.6968 C   0  0  0  0  0  0  0  0  0  0  0  0
    8.8780    2.6991   24.6848 O   0  0  0  0  0  0  0  0  0  0  0  0
    8.7910    0.8698   23.2570 N   0  0  0  0  0  0  0  0  0  0  0  0
    7.7680    0.0533   23.8111 C   0  0  0  0  0  0  0  0  0  0  0  0
    6.7465    0.6084   24.5865 C   0  0  0  0  0  0  0  0  0  0  0  0
    5.7317   -0.1973   25.0814 C   0  0  0  0  0  0  0  0  0  0  0  0
    4.7461    0.3535   25.8474 O   0  0  0  0  0  0  0  0  0  0  0  0
    5.7085   -1.5502   24.8025 C   0  0  0  0  0  0  0  0  0  0  0  0
    6.7236   -2.1015   24.0487 C   0  0  0  0  0  0  0  0  0  0  0  0
    7.7828   -1.3348   23.5636 C   0  0  0  0  0  0  0  0  0  0  0  0
    8.8983   -2.0449   22.7942 C   0  0  0  0  0  0  0  0  0  0  0  0
    8.5974   -1.9567   21.3354 C   0  0  0  0  0  0  0  0  0  0  0  0
    7.3814   -2.7349   20.9924 N   0  0  0  0  0  0  0  0  0  0  0  0
    7.2852   -4.1153   21.5066 C   0  0  0  0  0  0  0  0  0  0  0  0
    8.3156   -4.4835   22.5794 C   0  0  0  0  0  0  0  0  0  0  0  0
    8.4820   -5.8115   22.9557 C   0  0  0  0  0  0  0  0  0  0  0  0
    9.3843   -6.1706   23.9373 C   0  0  0  0  0  0  0  0  0  0  0  0
   10.1365   -5.1879   24.5573 C   0  0  0  0  0  0  0  0  0  0  0  0
   11.0752   -5.5309   25.4862 O   0  0  0  0  0  0  0  0  0  0  0  0
    9.9788   -3.8600   24.1901 C   0  0  0  0  0  0  0  0  0  0  0  0
    9.0691   -3.4879   23.1987 C   0  0  0  0  0  0  0  0  0  0  0  0
    6.3516   -2.2299   20.2791 C   0  0  0  0  0  0  0  0  0  0  0  0
    5.3548   -2.8922   20.0190 O   0  0  0  0  0  0  0  0  0  0  0  0
    6.4822   -0.7966   19.8015 C   0  0  0  0  0  0  0  0  0  0  0  0
    5.1081   -0.3306   18.7906 Cl  0  0  0  0  0  0  0  0  0  0  0  0
   10.9257    4.7203   24.0660 C   0  0  0  0  0  0  0  0  0  0  0  0
   11.8625    5.7457   23.7351 C   0  0  0  0  0  0  0  0  0  0  0  0
   12.2924    6.9521   24.2974 C   0  0  0  0  0  0  0  0  0  0  0  0
  1  2  1  0
  2  3  2  0
  2  4  1  0
  4  5  2  0
  5  6  1  0
  6  7  2  0
  7  8  1  0
  8  9  1  0
  9 10  1  0
 10 11  1  0
 11 12  2  0
 11 13  1  0
 13 14  1  0
 14 15  2  0
 15 16  1  0
 16 17  1  0
 16 18  2  0
 18 19  1  0
 19 20  2  0
 20 21  1  0
 21 22  1  0
 22 23  1  0
 23 24  1  0
 24 25  1  0
 25 26  2  0
 26 27  1  0
 27 28  2  0
 28 29  1  0
 28 30  1  0
 30 31  2  0
 23 32  1  0
 32 33  2  0
 32 34  1  0
 34 35  1  0
  9 36  2  0
 36 37  1  0
 37 38  2  0
 38  4  1  0
 37  7  1  0
 20 14  1  0
 31 21  1  0
 31 25  1  0
M  END
