CVD-0000650|dock_bobby27042020.97|mol2|47|dock3
     RDKit          3D

 21 22  0  0  0  0  0  0  0  0999 V2000
    5.9641    1.2666   24.4940 C   0  0  0  0  0  0  0  0  0  0  0  0
    6.5422    1.3862   23.0886 C   0  0  0  0  0  0  0  0  0  0  0  0
    5.8448    2.5154   22.3393 C   0  0  0  0  0  0  0  0  0  0  0  0
    6.3907    0.0634   22.3301 C   0  0  0  0  0  0  0  0  0  0  0  0
    7.3132   -1.0215   22.8543 C   0  0  0  0  0  0  0  0  0  0  0  0
    8.7135   -0.6398   22.6484 N   0  0  0  0  0  0  0  0  0  0  0  0
    9.6285   -1.6524   23.1944 C   0  0  0  0  0  0  0  0  0  0  0  0
   11.0826   -1.2547   23.1066 C   0  0  0  0  0  0  0  0  0  0  0  0
   11.6610   -0.4628   24.0859 C   0  0  0  0  0  0  0  0  0  0  0  0
   12.9939   -0.0958   24.0031 C   0  0  0  0  0  0  0  0  0  0  0  0
   13.7686   -0.5167   22.9354 C   0  0  0  0  0  0  0  0  0  0  0  0
   13.1880   -1.3025   21.9643 C   0  0  0  0  0  0  0  0  0  0  0  0
   14.1487   -1.8395   20.6147 Cl  0  0  0  0  0  0  0  0  0  0  0  0
   11.8612   -1.6746   22.0359 C   0  0  0  0  0  0  0  0  0  0  0  0
    8.9517   -0.4541   21.2193 C   0  0  0  0  0  0  0  0  0  0  0  0
    8.0526    0.6342   20.6613 C   0  0  0  0  0  0  0  0  0  0  0  0
    6.6447    0.3080   20.9086 N   0  0  0  0  0  0  0  0  0  0  0  0
    5.6467    0.2491   19.9923 C   0  0  0  0  0  0  0  0  0  0  0  0
    4.4938   -0.0091   20.3153 O   0  0  0  0  0  0  0  0  0  0  0  0
    5.9814    0.5045   18.5351 C   0  0  0  0  0  0  0  0  0  0  0  0
    4.5345    0.4272   17.5213 Cl  0  0  0  0  0  0  0  0  0  0  0  0
  1  2  1  0
  2  3  1  0
  4  2  1  0
  4  5  1  0
  5  6  1  0
  6  7  1  0
  7  8  1  0
  8  9  2  0
  9 10  1  0
 10 11  2  0
 11 12  1  0
 12 13  1  0
 12 14  2  0
  6 15  1  0
 15 16  1  0
 16 17  1  0
 17 18  1  0
 18 19  2  0
 18 20  1  0
 20 21  1  0
 17  4  1  0
 14  8  1  0
M  END
