CVD-0001175|dock_bobby27042020.39|mol2|8|dock2
     RDKit          3D

 27 30  0  0  0  0  0  0  0  0999 V2000
    1.5606    2.2029   20.2515 C   0  0  0  0  0  0  0  0  0  0  0  0
    2.9366    2.6712   19.8510 C   0  0  0  0  0  0  0  0  0  0  0  0
    3.8279    1.6052   19.3609 N   0  0  0  0  0  0  0  0  0  0  0  0
    4.9516    2.1335   18.5875 C   0  0  0  0  0  0  0  0  0  0  0  0
    5.8148    1.0119   18.0777 C   0  0  0  0  0  0  0  0  0  0  0  0
    6.3291    0.2056   19.1885 N   0  0  0  0  0  0  0  0  0  0  0  0
    7.2202   -0.8602   18.6987 C   0  0  0  0  0  0  0  0  0  0  0  0
    7.2826   -2.0922   19.5774 C   0  0  0  0  0  0  0  0  0  0  0  0
    6.4969   -3.1918   19.2383 C   0  0  0  0  0  0  0  0  0  0  0  0
    6.5238   -4.3578   19.9819 C   0  0  0  0  0  0  0  0  0  0  0  0
    7.3385   -4.4408   21.0874 C   0  0  0  0  0  0  0  0  0  0  0  0
    8.1125   -3.3533   21.4519 C   0  0  0  0  0  0  0  0  0  0  0  0
    8.0926   -2.1647   20.7236 C   0  0  0  0  0  0  0  0  0  0  0  0
    8.9331   -1.0020   21.1991 C   0  0  0  0  0  0  0  0  0  0  0  0
   10.3607   -1.1874   20.9825 N   0  0  0  0  0  0  0  0  0  0  0  0
   11.2979   -0.4866   21.6306 C   0  0  0  0  0  0  0  0  0  0  0  0
   12.5877   -0.5779   21.5082 N   0  0  0  0  0  0  0  0  0  0  0  0
   13.3195    0.4088   22.3151 C   0  0  0  0  0  0  0  0  0  0  0  0
   12.1942    1.1104   23.0933 C   0  0  0  0  0  0  0  0  0  0  0  0
   10.9893    0.4730   22.5604 N   0  0  0  0  0  0  0  0  0  0  0  0
   12.1399    2.6295   22.9252 C   0  0  0  0  0  0  0  0  0  0  0  0
   11.7517    3.0921   21.5165 C   0  0  0  0  0  0  0  0  0  0  0  0
   12.5166    4.3410   21.2421 C   0  0  0  0  0  0  0  0  0  0  0  0
   13.5290    4.4277   22.2512 C   0  0  0  0  0  0  0  0  0  0  0  0
   13.4497    3.3695   23.2058 C   0  0  0  0  0  0  0  0  0  0  0  0
    5.2054   -0.3228   19.9618 C   0  0  0  0  0  0  0  0  0  0  0  0
    4.3423    0.7988   20.4717 C   0  0  0  0  0  0  0  0  0  0  0  0
  1  2  1  0
  2  3  1  0
  3  4  1  0
  4  5  1  0
  5  6  1  0
  6  7  1  0
  7  8  1  0
  8  9  2  0
  9 10  1  0
 10 11  2  0
 11 12  1  0
 12 13  2  0
 13 14  1  0
 14 15  1  0
 15 16  1  0
 16 17  2  0
 17 18  1  0
 18 19  1  0
 19 20  1  0
 19 21  1  0
 21 22  1  0
 22 23  1  0
 23 24  1  0
 24 25  1  0
  6 26  1  0
 26 27  1  0
 27  3  1  0
 13  8  1  0
 20 16  1  0
 25 21  1  0
M  END
