CVD-0003974|dock_bobby27042020.0|mol2|17|dock3
     RDKit          3D

 16 16  0  0  0  0  0  0  0  0999 V2000
   14.1594   -1.6277   20.4569 C   0  0  0  0  0  0  0  0  0  0  0  0
   14.4704   -0.7759   21.5756 O   0  0  0  0  0  0  0  0  0  0  0  0
   13.7964   -1.1744   22.9170 S   0  0  0  0  0  0  0  0  0  0  0  0
   13.7272   -2.5966   22.9410 O   0  0  0  0  0  0  0  0  0  0  0  0
   14.4484   -0.4656   23.9664 O   0  0  0  0  0  0  0  0  0  0  0  0
   12.1439   -0.5814   22.8028 C   0  0  0  0  0  0  0  0  0  0  0  0
   11.7242    0.6833   22.6822 C   0  0  0  0  0  0  0  0  0  0  0  0
   10.2534    0.7454   22.3426 C   0  0  0  0  0  0  0  0  0  0  0  0
    9.7841   -0.6914   22.4406 C   0  0  0  0  0  0  0  0  0  0  0  0
   10.9859   -1.5513   22.7733 C   0  0  0  0  0  0  0  0  0  0  0  0
   12.4988    1.9328   22.8906 C   0  0  0  0  0  0  0  0  0  0  0  0
   13.6473    1.8410   23.3105 O   0  0  0  0  0  0  0  0  0  0  0  0
   11.9467    3.2842   22.6119 C   0  0  0  0  0  0  0  0  0  0  0  0
   10.8933    3.4374   22.0068 O   0  0  0  0  0  0  0  0  0  0  0  0
   12.7092    4.4805   23.0847 C   0  0  0  0  0  0  0  0  0  0  0  0
   14.1245    4.5065   22.6918 N   0  0  0  0  0  0  0  0  0  0  0  0
  1  2  1  0
  2  3  1  0
  3  4  2  0
  3  5  2  0
  3  6  1  0
  6  7  2  0
  7  8  1  0
  8  9  1  0
  9 10  1  0
  7 11  1  0
 11 12  2  0
 11 13  1  0
 13 14  2  0
 13 15  1  0
 15 16  1  0
 10  6  1  0
M  END
