CVD-0000538|dock_bobby27042020.55|mol2|36|dock1
     RDKit          3D

 25 27  0  0  0  0  0  0  0  0999 V2000
    6.6130   -1.3582   18.3503 C   0  0  0  0  0  0  0  0  0  0  0  0
    6.2954   -0.0067   18.9371 C   0  0  0  0  0  0  0  0  0  0  0  0
    5.1745    0.6693   18.4648 C   0  0  0  0  0  0  0  0  0  0  0  0
    4.8524    1.9041   18.9807 C   0  0  0  0  0  0  0  0  0  0  0  0
    5.5683    2.5024   19.9279 N   0  0  0  0  0  0  0  0  0  0  0  0
    6.6474    1.8627   20.3896 C   0  0  0  0  0  0  0  0  0  0  0  0
    7.0679    0.6089   19.9420 C   0  0  0  0  0  0  0  0  0  0  0  0
    8.2142   -0.0849   20.4265 N   0  0  0  0  0  0  0  0  0  0  0  0
    8.7021   -0.1952   21.7093 C   0  0  0  0  0  0  0  0  0  0  0  0
    8.1852    0.3245   22.6935 O   0  0  0  0  0  0  0  0  0  0  0  0
    9.8304   -0.9542   21.7460 N   0  0  0  0  0  0  0  0  0  0  0  0
   10.6004   -1.2736   22.9275 C   0  0  0  0  0  0  0  0  0  0  0  0
   11.7453   -2.2722   22.7868 C   0  0  0  0  0  0  0  0  0  0  0  0
   10.4912   -2.6852   23.4944 C   0  0  0  0  0  0  0  0  0  0  0  0
   10.7655   -0.1972   23.8334 O   0  0  0  0  0  0  0  0  0  0  0  0
   11.3843    1.0108   23.4546 C   0  0  0  0  0  0  0  0  0  0  0  0
   12.7506    1.0432   23.2364 C   0  0  0  0  0  0  0  0  0  0  0  0
   13.3595    2.2272   22.8600 C   0  0  0  0  0  0  0  0  0  0  0  0
   12.5928    3.3707   22.7051 C   0  0  0  0  0  0  0  0  0  0  0  0
   11.2243    3.3394   22.9191 C   0  0  0  0  0  0  0  0  0  0  0  0
   10.6195    2.1533   23.2953 C   0  0  0  0  0  0  0  0  0  0  0  0
   13.3672    4.8831   22.2192 S   0  0  0  0  0  0  0  0  0  0  0  0
   12.8663    6.0469   23.1980 N   0  0  0  0  0  0  0  0  0  0  0  0
   12.8951    5.2024   20.9052 O   0  0  0  0  0  0  0  0  0  0  0  0
   14.7754    4.7295   22.4299 O   0  0  0  0  0  0  0  0  0  0  0  0
  1  2  1  0
  2  3  2  0
  3  4  1  0
  4  5  2  0
  5  6  1  0
  6  7  2  0
  7  8  1  0
  8  9  1  0
  9 10  2  0
  9 11  1  0
 11 12  1  0
 12 13  1  0
 13 14  1  0
 12 15  1  0
 15 16  1  0
 16 17  2  0
 17 18  1  0
 18 19  2  0
 19 20  1  0
 20 21  2  0
 19 22  1  0
 22 23  1  0
 22 24  2  0
 22 25  2  0
  7  2  1  0
 14 12  1  0
 21 16  1  0
M  END
