CVD-0001992|dock_bobby27042020.79|mol2|14|dock3
     RDKit          3D

 19 21  0  0  0  0  0  0  0  0999 V2000
    4.6568    0.9148   20.3270 C   0  0  0  0  0  0  0  0  0  0  0  0
    5.8601    1.2316   19.4426 C   0  0  0  0  0  0  0  0  0  0  0  0
    5.7276    0.5233   18.1079 C   0  0  0  0  0  0  0  0  0  0  0  0
    4.9597   -0.5357   18.1581 O   0  0  0  0  0  0  0  0  0  0  0  0
    6.2818    0.9034   17.1001 O   0  0  0  0  0  0  0  0  0  0  0  0
    7.1703    0.7976   20.0880 C   0  0  0  0  0  0  0  0  0  0  0  0
    7.6267   -0.5079   19.9634 C   0  0  0  0  0  0  0  0  0  0  0  0
    8.7645   -0.9430   20.6231 C   0  0  0  0  0  0  0  0  0  0  0  0
    9.4728   -0.0539   21.4330 C   0  0  0  0  0  0  0  0  0  0  0  0
    9.0244    1.2674   21.5685 C   0  0  0  0  0  0  0  0  0  0  0  0
   10.0359    2.0855   22.3338 C   0  0  0  0  0  0  0  0  0  0  0  0
   11.0888    1.0596   22.6749 C   0  0  0  0  0  0  0  0  0  0  0  0
   12.3105    1.2211   23.3201 C   0  0  0  0  0  0  0  0  0  0  0  0
   13.1980    0.1647   23.4214 C   0  0  0  0  0  0  0  0  0  0  0  0
   12.8563   -1.0528   22.8737 C   0  0  0  0  0  0  0  0  0  0  0  0
   13.9379   -2.4038   23.0715 Cl  0  0  0  0  0  0  0  0  0  0  0  0
   11.6516   -1.2494   22.2256 C   0  0  0  0  0  0  0  0  0  0  0  0
   10.7558   -0.1842   22.1232 C   0  0  0  0  0  0  0  0  0  0  0  0
    7.8795    1.6755   20.8947 C   0  0  0  0  0  0  0  0  0  0  0  0
  2  1  1  0
  2  3  1  0
  3  4  1  0
  3  5  2  0
  2  6  1  0
  6  7  2  0
  7  8  1  0
  8  9  2  0
  9 10  1  0
 10 11  1  0
 11 12  1  0
 12 13  2  0
 13 14  1  0
 14 15  2  0
 15 16  1  0
 15 17  1  0
 17 18  2  0
 10 19  2  0
 19  6  1  0
  9 18  1  0
 18 12  1  0
M  END
