CVD-0000604|dock_bobby27042020.83|mol2|47|dock2
     RDKit          3D

 16 17  0  0  0  0  0  0  0  0999 V2000
    6.5977   -1.9506   17.7178 Cl  0  0  0  0  0  0  0  0  0  0  0  0
    6.9549   -0.6823   18.8564 C   0  0  0  0  0  0  0  0  0  0  0  0
    6.2392    0.4916   18.7967 C   0  0  0  0  0  0  0  0  0  0  0  0
    6.5318    1.4915   19.7060 C   0  0  0  0  0  0  0  0  0  0  0  0
    7.5252    1.3061   20.6524 C   0  0  0  0  0  0  0  0  0  0  0  0
    8.2500    0.1186   20.7138 C   0  0  0  0  0  0  0  0  0  0  0  0
    7.9487   -0.8855   19.7926 C   0  0  0  0  0  0  0  0  0  0  0  0
    9.3143   -0.0045   21.7729 C   0  0  0  0  0  0  0  0  0  0  0  0
    9.0923    0.5265   22.8558 O   0  0  0  0  0  0  0  0  0  0  0  0
   10.4587   -0.6881   21.4888 N   0  0  0  0  0  0  0  0  0  0  0  0
   11.5977   -0.9638   22.2895 C   0  0  0  0  0  0  0  0  0  0  0  0
   11.9265   -0.2698   23.4531 C   0  0  0  0  0  0  0  0  0  0  0  0
   13.0610   -0.6103   24.1715 C   0  0  0  0  0  0  0  0  0  0  0  0
   13.8777   -1.6354   23.7485 C   0  0  0  0  0  0  0  0  0  0  0  0
   13.5627   -2.3276   22.6008 C   0  0  0  0  0  0  0  0  0  0  0  0
   12.4315   -1.9964   21.8746 C   0  0  0  0  0  0  0  0  0  0  0  0
  1  2  1  0
  2  3  2  0
  3  4  1  0
  4  5  2  0
  5  6  1  0
  6  7  2  0
  6  8  1  0
  8  9  2  0
  8 10  1  0
 10 11  1  0
 11 12  2  0
 12 13  1  0
 13 14  2  0
 14 15  1  0
 15 16  2  0
  7  2  1  0
 16 11  1  0
M  END
