CVD-0001176|dock_bobby27042020.24|mol2|40|dock3
     RDKit          3D

 31 33  0  0  0  0  0  0  0  0999 V2000
    5.0770   -0.2618   18.0212 C   0  0  0  0  0  0  0  0  0  0  0  0
    6.2797    0.4655   18.5650 C   0  0  0  0  0  0  0  0  0  0  0  0
    6.9066   -0.2021   19.7179 N   0  0  0  0  0  0  0  0  0  0  0  0
    8.0363    0.5581   20.2523 C   0  0  0  0  0  0  0  0  0  0  0  0
    8.6240   -0.1404   21.4480 C   0  0  0  0  0  0  0  0  0  0  0  0
    9.0739   -1.4896   21.0927 N   0  0  0  0  0  0  0  0  0  0  0  0
    9.6998   -2.1560   22.2436 C   0  0  0  0  0  0  0  0  0  0  0  0
   10.9115   -1.4172   22.7634 C   0  0  0  0  0  0  0  0  0  0  0  0
   12.0663   -1.3774   21.9858 C   0  0  0  0  0  0  0  0  0  0  0  0
   13.1988   -0.7099   22.4185 C   0  0  0  0  0  0  0  0  0  0  0  0
   13.1907   -0.0714   23.6387 C   0  0  0  0  0  0  0  0  0  0  0  0
   12.0509   -0.1024   24.4235 C   0  0  0  0  0  0  0  0  0  0  0  0
   10.9014   -0.7688   24.0055 C   0  0  0  0  0  0  0  0  0  0  0  0
    9.6827   -0.7834   24.8950 C   0  0  0  0  0  0  0  0  0  0  0  0
    9.3311   -2.1136   25.3699 N   0  0  0  0  0  0  0  0  0  0  0  0
   10.1436   -3.1613   25.2250 C   0  0  0  0  0  0  0  0  0  0  0  0
   11.2389   -3.0776   24.6856 O   0  0  0  0  0  0  0  0  0  0  0  0
    9.6453   -4.5093   25.7692 C   0  0  0  0  0  0  0  0  0  0  0  0
   10.6393   -5.6036   25.3768 C   0  0  0  0  0  0  0  0  0  0  0  0
    9.2435   -4.5026   27.2569 C   0  0  0  0  0  0  0  0  0  0  0  0
    7.8681   -5.0623   26.8733 C   0  0  0  0  0  0  0  0  0  0  0  0
    8.2298   -4.8777   25.4545 N   0  0  0  0  0  0  0  0  0  0  0  0
    7.6329   -5.2243   24.2875 C   0  0  0  0  0  0  0  0  0  0  0  0
    8.1323   -5.0247   23.2071 O   0  0  0  0  0  0  0  0  0  0  0  0
    6.4514   -5.7980   24.5307 O   0  0  0  0  0  0  0  0  0  0  0  0
    5.4400   -6.0407   23.4752 C   0  0  0  0  0  0  0  0  0  0  0  0
    6.0187   -6.9967   22.4516 C   0  0  0  0  0  0  0  0  0  0  0  0
    5.0700   -4.7173   22.8364 C   0  0  0  0  0  0  0  0  0  0  0  0
    4.2276   -6.6578   24.1413 C   0  0  0  0  0  0  0  0  0  0  0  0
    7.9442   -2.2498   20.5583 C   0  0  0  0  0  0  0  0  0  0  0  0
    7.3566   -1.5512   19.3626 C   0  0  0  0  0  0  0  0  0  0  0  0
  1  2  1  0
  2  3  1  0
  3  4  1  0
  4  5  1  0
  5  6  1  0
  6  7  1  0
  7  8  1  0
  8  9  2  0
  9 10  1  0
 10 11  2  0
 11 12  1  0
 12 13  2  0
 13 14  1  0
 14 15  1  0
 15 16  1  0
 16 17  2  0
 16 18  1  0
 18 19  1  0
 18 20  1  0
 20 21  1  0
 21 22  1  0
 22 23  1  0
 23 24  2  0
 23 25  1  0
 25 26  1  0
 26 27  1  0
 26 28  1  0
 26 29  1  0
  6 30  1  0
 30 31  1  0
 31  3  1  0
 13  8  1  0
 22 18  1  0
M  END
