CVD-0002979|dock_bobby27042020.61|mol2|21|dock1
     RDKit          3D

 25 27  0  0  0  0  0  0  0  0999 V2000
    4.5307   -0.0612   19.1747 N   0  0  0  0  0  0  0  0  0  0  0  0
    5.6536   -0.9218   18.4255 S   0  0  0  0  0  0  0  0  0  0  0  0
    5.0753   -2.1952   18.1169 O   0  0  0  0  0  0  0  0  0  0  0  0
    6.1619   -0.1157   17.3565 O   0  0  0  0  0  0  0  0  0  0  0  0
    6.9855   -1.2061   19.5516 C   0  0  0  0  0  0  0  0  0  0  0  0
    8.0441   -0.3123   19.5924 C   0  0  0  0  0  0  0  0  0  0  0  0
    9.0753   -0.5159   20.4584 C   0  0  0  0  0  0  0  0  0  0  0  0
    9.0871   -1.6327   21.3276 C   0  0  0  0  0  0  0  0  0  0  0  0
   10.1325   -1.8903   22.2437 C   0  0  0  0  0  0  0  0  0  0  0  0
   10.0959   -2.9800   23.0592 C   0  0  0  0  0  0  0  0  0  0  0  0
    9.0337   -3.8806   23.0279 C   0  0  0  0  0  0  0  0  0  0  0  0
    9.0256   -4.9844   23.8778 N   0  0  0  0  0  0  0  0  0  0  0  0
    9.0866   -4.8962   25.3333 C   0  0  0  0  0  0  0  0  0  0  0  0
    8.7275   -6.2116   26.0208 C   0  0  0  0  0  0  0  0  0  0  0  0
    8.6905   -6.0815   27.5301 C   0  0  0  0  0  0  0  0  0  0  0  0
    7.8148   -4.9773   27.9352 N   0  0  0  0  0  0  0  0  0  0  0  0
    8.2217   -3.6925   27.3775 C   0  0  0  0  0  0  0  0  0  0  0  0
    8.2037   -3.7754   25.8671 C   0  0  0  0  0  0  0  0  0  0  0  0
    6.7936   -5.0642   28.8143 C   0  0  0  0  0  0  0  0  0  0  0  0
    6.1034   -4.0916   29.0920 O   0  0  0  0  0  0  0  0  0  0  0  0
    6.5346   -6.4148   29.4543 C   0  0  0  0  0  0  0  0  0  0  0  0
    5.9002   -7.5778   28.2829 Cl  0  0  0  0  0  0  0  0  0  0  0  0
    8.0025   -3.6593   22.1475 C   0  0  0  0  0  0  0  0  0  0  0  0
    8.0004   -2.5409   21.2819 C   0  0  0  0  0  0  0  0  0  0  0  0
    6.9479   -2.2967   20.3697 C   0  0  0  0  0  0  0  0  0  0  0  0
  1  2  1  0
  2  3  2  0
  2  4  2  0
  2  5  1  0
  5  6  2  0
  6  7  1  0
  7  8  2  0
  8  9  1  0
  9 10  2  0
 10 11  1  0
 11 12  1  0
 12 13  1  0
 13 14  1  0
 14 15  1  0
 15 16  1  0
 16 17  1  0
 17 18  1  0
 16 19  1  0
 19 20  2  0
 19 21  1  0
 21 22  1  0
 11 23  2  0
 23 24  1  0
 24 25  2  0
 25  5  1  0
 24  8  1  0
 18 13  1  0
M  END
