CVD-0003182|dock_bobby27042020.17|mol2|16|dock2
     RDKit          3D

 24 26  0  0  0  0  0  0  0  0999 V2000
    5.4108    0.6302   18.3110 C   0  0  0  0  0  0  0  0  0  0  0  0
    6.3599    0.7579   19.4113 N   0  0  0  0  0  0  0  0  0  0  0  0
    7.6408    0.1802   19.0211 C   0  0  0  0  0  0  0  0  0  0  0  0
    5.8478    0.0936   20.6145 C   0  0  0  0  0  0  0  0  0  0  0  0
    6.4316    0.6408   21.8953 C   0  0  0  0  0  0  0  0  0  0  0  0
    5.8566    1.6695   22.5012 C   0  0  0  0  0  0  0  0  0  0  0  0
    7.6583   -0.0710   22.4100 C   0  0  0  0  0  0  0  0  0  0  0  0
    7.5470   -1.2830   22.5552 O   0  0  0  0  0  0  0  0  0  0  0  0
    8.8380    0.5218   22.7033 N   0  0  0  0  0  0  0  0  0  0  0  0
    9.9733   -0.2382   23.2824 C   0  0  0  0  0  0  0  0  0  0  0  0
   11.2408    0.0380   22.5438 C   0  0  0  0  0  0  0  0  0  0  0  0
   12.3736   -0.7737   23.1591 C   0  0  0  0  0  0  0  0  0  0  0  0
   12.9068   -0.4264   24.3924 C   0  0  0  0  0  0  0  0  0  0  0  0
   13.9385   -1.1629   24.9502 C   0  0  0  0  0  0  0  0  0  0  0  0
   14.4499   -2.2546   24.2818 C   0  0  0  0  0  0  0  0  0  0  0  0
   13.9308   -2.6104   23.0555 C   0  0  0  0  0  0  0  0  0  0  0  0
   12.8990   -1.8745   22.4968 C   0  0  0  0  0  0  0  0  0  0  0  0
   11.5333    1.5171   22.5695 C   0  0  0  0  0  0  0  0  0  0  0  0
   12.8401    2.0031   22.6385 C   0  0  0  0  0  0  0  0  0  0  0  0
   13.1120    3.3599   22.6468 C   0  0  0  0  0  0  0  0  0  0  0  0
   12.0747    4.2629   22.5857 C   0  0  0  0  0  0  0  0  0  0  0  0
   10.7722    3.8030   22.5166 C   0  0  0  0  0  0  0  0  0  0  0  0
   10.4900    2.4405   22.5079 C   0  0  0  0  0  0  0  0  0  0  0  0
    9.0344    1.9661   22.4681 C   0  0  0  0  0  0  0  0  0  0  0  0
  1  2  1  0
  2  3  1  0
  2  4  1  0
  4  5  1  0
  5  6  2  0
  5  7  1  0
  7  8  2  0
  7  9  1  0
  9 10  1  0
 10 11  1  0
 11 12  1  0
 12 13  2  0
 13 14  1  0
 14 15  2  0
 15 16  1  0
 16 17  2  0
 11 18  1  0
 18 19  2  0
 19 20  1  0
 20 21  2  0
 21 22  1  0
 22 23  2  0
 23 24  1  0
 24  9  1  0
 17 12  1  0
 23 18  1  0
M  END
