CVD-0003160|dock_bobby27042020.31|mol2|41|dock2
     RDKit          3D

 24 27  0  0  0  0  0  0  0  0999 V2000
    8.6641    2.0609   21.0470 O   0  0  0  0  0  0  0  0  0  0  0  0
    9.3923    1.1423   21.3902 C   0  0  0  0  0  0  0  0  0  0  0  0
   10.5201    1.3877   22.1792 N   0  0  0  0  0  0  0  0  0  0  0  0
   10.7796    2.7668   22.5264 C   0  0  0  0  0  0  0  0  0  0  0  0
   11.9909    3.3599   22.1906 C   0  0  0  0  0  0  0  0  0  0  0  0
   12.2361    4.6819   22.5225 C   0  0  0  0  0  0  0  0  0  0  0  0
   11.2821    5.4212   23.1876 C   0  0  0  0  0  0  0  0  0  0  0  0
   10.0781    4.8413   23.5235 C   0  0  0  0  0  0  0  0  0  0  0  0
    9.8224    3.5201   23.1965 C   0  0  0  0  0  0  0  0  0  0  0  0
   11.3849    0.3584   22.6289 C   0  0  0  0  0  0  0  0  0  0  0  0
   12.4760    0.5996   23.4653 C   0  0  0  0  0  0  0  0  0  0  0  0
   13.3004   -0.4483   23.8419 C   0  0  0  0  0  0  0  0  0  0  0  0
   13.0500   -1.7336   23.4168 C   0  0  0  0  0  0  0  0  0  0  0  0
   11.9578   -1.9948   22.6107 C   0  0  0  0  0  0  0  0  0  0  0  0
   11.1149   -0.9561   22.2191 C   0  0  0  0  0  0  0  0  0  0  0  0
    9.9548   -1.2796   21.3808 C   0  0  0  0  0  0  0  0  0  0  0  0
    9.7274   -2.4222   21.0206 O   0  0  0  0  0  0  0  0  0  0  0  0
    9.1425   -0.1875   21.0175 N   0  0  0  0  0  0  0  0  0  0  0  0
    7.9777   -0.4614   20.1951 C   0  0  0  0  0  0  0  0  0  0  0  0
    6.7100   -0.0386   20.5752 C   0  0  0  0  0  0  0  0  0  0  0  0
    5.6237   -0.3150   19.7641 C   0  0  0  0  0  0  0  0  0  0  0  0
    5.8358   -1.0065   18.5944 C   0  0  0  0  0  0  0  0  0  0  0  0
    7.0395   -1.4258   18.2048 N   0  0  0  0  0  0  0  0  0  0  0  0
    8.0804   -1.1559   18.9988 C   0  0  0  0  0  0  0  0  0  0  0  0
  1  2  2  0
  2  3  1  0
  3  4  1  0
  4  5  2  0
  5  6  1  0
  6  7  2  0
  7  8  1  0
  8  9  2  0
  3 10  1  0
 10 11  2  0
 11 12  1  0
 12 13  2  0
 13 14  1  0
 14 15  2  0
 15 16  1  0
 16 17  2  0
 16 18  1  0
 18 19  1  0
 19 20  2  0
 20 21  1  0
 21 22  2  0
 22 23  1  0
 23 24  2  0
 18  2  1  0
 24 19  1  0
  9  4  1  0
 15 10  1  0
M  END
