CVD-0000968|dock_bobby27042020.96|mol2|46|dock3
     RDKit          3D

 31 34  0  0  0  0  0  0  0  0999 V2000
    5.4556   -1.0366   21.1620 N   0  0  0  0  0  0  0  0  0  0  0  0
    6.3754   -2.1494   20.4698 S   0  0  0  0  0  0  0  0  0  0  0  0
    6.9605   -1.5180   19.3252 O   0  0  0  0  0  0  0  0  0  0  0  0
    5.5481   -3.3053   20.2955 O   0  0  0  0  0  0  0  0  0  0  0  0
    7.6984   -2.5759   21.5767 C   0  0  0  0  0  0  0  0  0  0  0  0
    8.8518   -1.8167   21.4177 C   0  0  0  0  0  0  0  0  0  0  0  0
   10.0003   -2.1059   22.1329 C   0  0  0  0  0  0  0  0  0  0  0  0
    9.9749   -3.1697   23.0167 C   0  0  0  0  0  0  0  0  0  0  0  0
    8.8234   -3.9046   23.2276 C   0  0  0  0  0  0  0  0  0  0  0  0
    7.6421   -3.6004   22.5481 C   0  0  0  0  0  0  0  0  0  0  0  0
    6.4671   -4.3300   22.8689 N   0  0  0  0  0  0  0  0  0  0  0  0
    5.9644   -4.2331   24.2479 C   0  0  0  0  0  0  0  0  0  0  0  0
    4.5164   -4.6737   24.3117 C   0  0  0  0  0  0  0  0  0  0  0  0
    4.4347   -6.0618   23.8005 N   0  0  0  0  0  0  0  0  0  0  0  0
    4.9275   -6.1712   22.4119 C   0  0  0  0  0  0  0  0  0  0  0  0
    6.3752   -5.7027   22.3605 C   0  0  0  0  0  0  0  0  0  0  0  0
    3.1166   -6.9457   24.2270 S   0  0  0  0  0  0  0  0  0  0  0  0
    2.5326   -6.3027   25.3645 O   0  0  0  0  0  0  0  0  0  0  0  0
    3.5408   -8.3091   24.3261 O   0  0  0  0  0  0  0  0  0  0  0  0
    1.9778   -6.8322   22.9021 C   0  0  0  0  0  0  0  0  0  0  0  0
    1.8133   -7.8076   22.0533 C   0  0  0  0  0  0  0  0  0  0  0  0
   11.2638   -1.2779   21.9439 C   0  0  0  0  0  0  0  0  0  0  0  0
   12.1338   -1.7888   20.8936 N   0  0  0  0  0  0  0  0  0  0  0  0
   13.3691   -2.1269   21.3099 C   0  0  0  0  0  0  0  0  0  0  0  0
   14.2637   -2.5944   20.6134 O   0  0  0  0  0  0  0  0  0  0  0  0
   13.4259   -1.8073   22.7534 C   0  0  0  0  0  0  0  0  0  0  0  0
   14.4641   -1.9279   23.6762 C   0  0  0  0  0  0  0  0  0  0  0  0
   14.2487   -1.5387   24.9902 C   0  0  0  0  0  0  0  0  0  0  0  0
   13.0227   -1.0383   25.3807 C   0  0  0  0  0  0  0  0  0  0  0  0
   11.9922   -0.9198   24.4610 C   0  0  0  0  0  0  0  0  0  0  0  0
   12.1941   -1.3065   23.1384 C   0  0  0  0  0  0  0  0  0  0  0  0
  1  2  1  0
  2  3  2  0
  2  4  2  0
  2  5  1  0
  5  6  2  0
  6  7  1  0
  7  8  2  0
  8  9  1  0
  9 10  2  0
 10 11  1  0
 11 12  1  0
 12 13  1  0
 13 14  1  0
 14 15  1  0
 15 16  1  0
 14 17  1  0
 17 18  2  0
 17 19  2  0
 17 20  1  0
 20 21  2  0
  7 22  1  0
 22 23  1  0
 23 24  1  0
 24 25  2  0
 24 26  1  0
 26 27  2  0
 27 28  1  0
 28 29  2  0
 29 30  1  0
 30 31  2  0
 10  5  1  0
 16 11  1  0
 31 22  1  0
 31 26  1  0
M  END
