CVD-0003571|dock_bobby27042020.1|mol2|34|dock2
     RDKit          3D

 23 25  0  0  0  0  0  0  0  0999 V2000
   14.7785   -1.8833   25.3410 Cl  0  0  0  0  0  0  0  0  0  0  0  0
   13.3409   -2.2812   24.3913 C   0  0  0  0  0  0  0  0  0  0  0  0
   12.7475   -1.0335   23.7659 C   0  0  0  0  0  0  0  0  0  0  0  0
   13.2671    0.0647   23.9194 O   0  0  0  0  0  0  0  0  0  0  0  0
   11.6211   -1.1961   23.0416 N   0  0  0  0  0  0  0  0  0  0  0  0
   10.9267   -0.0820   22.3925 C   0  0  0  0  0  0  0  0  0  0  0  0
    9.4686   -0.0499   22.8113 C   0  0  0  0  0  0  0  0  0  0  0  0
    8.8160   -1.3185   22.4748 N   0  0  0  0  0  0  0  0  0  0  0  0
    7.3901   -1.2782   22.8431 C   0  0  0  0  0  0  0  0  0  0  0  0
    6.5837   -0.0601   22.4363 C   0  0  0  0  0  0  0  0  0  0  0  0
    6.1226    0.8295   23.4045 C   0  0  0  0  0  0  0  0  0  0  0  0
    5.2914    1.8834   23.0687 C   0  0  0  0  0  0  0  0  0  0  0  0
    4.9184    2.0484   21.7502 C   0  0  0  0  0  0  0  0  0  0  0  0
    5.3662    1.1726   20.7677 C   0  0  0  0  0  0  0  0  0  0  0  0
    4.6835    1.3086   19.4231 C   0  0  0  0  0  0  0  0  0  0  0  0
    5.2522    0.5964   18.2206 C   0  0  0  0  0  0  0  0  0  0  0  0
    6.6958    0.6449   18.0940 N   0  0  0  0  0  0  0  0  0  0  0  0
    7.4645   -0.0799   18.9333 C   0  0  0  0  0  0  0  0  0  0  0  0
    8.6768   -0.0763   18.7544 O   0  0  0  0  0  0  0  0  0  0  0  0
    6.7346   -0.8259   20.0174 C   0  0  0  0  0  0  0  0  0  0  0  0
    6.2067    0.1045   21.0898 C   0  0  0  0  0  0  0  0  0  0  0  0
    9.4950   -2.4047   23.1766 C   0  0  0  0  0  0  0  0  0  0  0  0
   10.9565   -2.4751   22.7729 C   0  0  0  0  0  0  0  0  0  0  0  0
  1  2  1  0
  2  3  1  0
  3  4  2  0
  3  5  1  0
  5  6  1  0
  6  7  1  0
  7  8  1  0
  8  9  1  0
  9 10  1  0
 10 11  2  0
 11 12  1  0
 12 13  2  0
 13 14  1  0
 14 15  1  0
 15 16  1  0
 16 17  1  0
 17 18  1  0
 18 19  2  0
 18 20  1  0
 20 21  1  0
  8 22  1  0
 22 23  1  0
 23  5  1  0
 21 10  1  0
 21 14  2  0
M  END
