CVD-0003993|dock_bobby27042020.29|mol2|10|dock2
     RDKit          3D

 22 22  0  0  0  0  0  0  0  0999 V2000
    6.6388   -6.4596   22.2423 C   0  0  0  0  0  0  0  0  0  0  0  0
    7.2551   -5.0823   22.1670 C   0  0  0  0  0  0  0  0  0  0  0  0
    6.1384   -3.8754   21.5414 S   0  0  0  0  0  0  0  0  0  0  0  0
    5.7726   -4.2233   20.2014 O   0  0  0  0  0  0  0  0  0  0  0  0
    5.1115   -3.6380   22.5108 O   0  0  0  0  0  0  0  0  0  0  0  0
    7.0192   -2.4857   21.4416 N   0  0  0  0  0  0  0  0  0  0  0  0
    6.8864   -1.5861   20.3419 C   0  0  0  0  0  0  0  0  0  0  0  0
    7.5980   -0.4304   20.2281 C   0  0  0  0  0  0  0  0  0  0  0  0
    7.1707    0.2784   18.9461 C   0  0  0  0  0  0  0  0  0  0  0  0
    5.9861   -0.5454   18.4665 C   0  0  0  0  0  0  0  0  0  0  0  0
    5.9838   -1.7257   19.1533 C   0  0  0  0  0  0  0  0  0  0  0  0
    8.8242    0.2052   21.3191 S   0  0  0  0  0  0  0  0  0  0  0  0
    8.2744    0.2581   22.6435 O   0  0  0  0  0  0  0  0  0  0  0  0
    9.3734    1.3926   20.7299 O   0  0  0  0  0  0  0  0  0  0  0  0
   10.0965   -0.9970   21.3259 C   0  0  0  0  0  0  0  0  0  0  0  0
   10.0062   -2.0505   20.7385 O   0  0  0  0  0  0  0  0  0  0  0  0
   11.3001   -0.6384   22.1041 C   0  0  0  0  0  0  0  0  0  0  0  0
   11.5185    0.5415   22.3501 O   0  0  0  0  0  0  0  0  0  0  0  0
   12.2383   -1.7340   22.5813 C   0  0  0  0  0  0  0  0  0  0  0  0
   13.5848   -1.6818   21.8867 C   0  0  0  0  0  0  0  0  0  0  0  0
   13.5793   -1.7964   20.5680 N   0  0  0  0  0  0  0  0  0  0  0  0
   14.6221   -1.5268   22.5375 O   0  0  0  0  0  0  0  0  0  0  0  0
  1  2  1  0
  2  3  1  0
  3  4  2  0
  3  5  2  0
  3  6  1  0
  6  7  1  0
  7  8  2  0
  8  9  1  0
  9 10  1  0
 10 11  2  0
  8 12  1  0
 12 13  2  0
 12 14  2  0
 12 15  1  0
 15 16  2  0
 15 17  1  0
 17 18  2  0
 17 19  1  0
 19 20  1  0
 20 21  1  0
 20 22  2  0
 11  7  1  0
M  END
