CVD-0003934|dock_bobby27042020.0|mol2|23|dock2
     RDKit          3D

 24 26  0  0  0  0  0  0  0  0999 V2000
    5.2011    0.8645   21.2597 C   0  0  0  0  0  0  0  0  0  0  0  0
    5.8752    0.8835   19.9118 C   0  0  0  0  0  0  0  0  0  0  0  0
    5.2457    1.5487   18.8640 C   0  0  0  0  0  0  0  0  0  0  0  0
    5.8395    1.5857   17.6225 C   0  0  0  0  0  0  0  0  0  0  0  0
    7.0085    1.0088   17.3594 N   0  0  0  0  0  0  0  0  0  0  0  0
    7.6233    0.3673   18.3581 C   0  0  0  0  0  0  0  0  0  0  0  0
    7.1149    0.2673   19.6534 C   0  0  0  0  0  0  0  0  0  0  0  0
    7.7685   -0.4140   20.7181 N   0  0  0  0  0  0  0  0  0  0  0  0
    8.5649   -1.5111   20.6990 C   0  0  0  0  0  0  0  0  0  0  0  0
    8.9210   -2.1331   19.7039 O   0  0  0  0  0  0  0  0  0  0  0  0
    9.0310   -1.9517   22.0738 C   0  0  0  0  0  0  0  0  0  0  0  0
   10.0003   -1.0234   22.6626 N   0  0  0  0  0  0  0  0  0  0  0  0
   10.9306   -1.4998   23.7028 C   0  0  0  0  0  0  0  0  0  0  0  0
   12.0111   -2.3559   23.0431 C   0  0  0  0  0  0  0  0  0  0  0  0
   12.8980   -1.5210   22.1365 C   0  0  0  0  0  0  0  0  0  0  0  0
   13.5097   -0.3504   22.8783 C   0  0  0  0  0  0  0  0  0  0  0  0
   12.4364    0.5086   23.5263 C   0  0  0  0  0  0  0  0  0  0  0  0
   11.5460   -0.3165   24.4424 C   0  0  0  0  0  0  0  0  0  0  0  0
    9.9585   -2.2758   24.6031 C   0  0  0  0  0  0  0  0  0  0  0  0
    8.9393   -1.6252   25.2919 C   0  0  0  0  0  0  0  0  0  0  0  0
    8.0553   -2.3275   26.0941 C   0  0  0  0  0  0  0  0  0  0  0  0
    8.1743   -3.6934   26.2271 C   0  0  0  0  0  0  0  0  0  0  0  0
    9.1798   -4.3564   25.5584 C   0  0  0  0  0  0  0  0  0  0  0  0
   10.0641   -3.6550   24.7560 C   0  0  0  0  0  0  0  0  0  0  0  0
  1  2  1  0
  2  3  2  0
  3  4  1  0
  4  5  2  0
  5  6  1  0
  6  7  2  0
  7  8  1  0
  8  9  1  0
  9 10  2  0
  9 11  1  0
 11 12  1  0
 12 13  1  0
 13 14  1  0
 14 15  1  0
 15 16  1  0
 16 17  1  0
 17 18  1  0
 13 19  1  0
 19 20  2  0
 20 21  1  0
 21 22  2  0
 22 23  1  0
 23 24  2  0
  7  2  1  0
 18 13  1  0
 24 19  1  0
M  END
