CVD-0001880|dock_bobby27042020.8|mol2|12|dock3
     RDKit          3D

 33 35  0  0  0  0  0  0  0  0999 V2000
    3.1769    2.5686   21.0345 C   0  0  0  0  0  0  0  0  0  0  0  0
    4.6329    2.2066   20.8984 C   0  0  0  0  0  0  0  0  0  0  0  0
    4.8685    0.9274   20.1190 C   0  0  0  0  0  0  0  0  0  0  0  0
    4.4608    0.8163   18.8001 C   0  0  0  0  0  0  0  0  0  0  0  0
    4.6807   -0.3519   18.0913 C   0  0  0  0  0  0  0  0  0  0  0  0
    5.3130   -1.4286   18.6904 C   0  0  0  0  0  0  0  0  0  0  0  0
    5.7322   -1.3378   20.0151 C   0  0  0  0  0  0  0  0  0  0  0  0
    6.3855   -2.3954   20.6955 N   0  0  0  0  0  0  0  0  0  0  0  0
    7.2115   -2.3880   21.7708 C   0  0  0  0  0  0  0  0  0  0  0  0
    7.5763   -1.4009   22.4028 O   0  0  0  0  0  0  0  0  0  0  0  0
    7.6969   -3.7935   22.1746 C   0  0  0  0  0  0  0  0  0  0  0  0
    8.7420   -3.6666   23.2260 N   0  0  0  0  0  0  0  0  0  0  0  0
    9.0392   -4.7499   24.0505 C   0  0  0  0  0  0  0  0  0  0  0  0
    8.4366   -5.8131   23.9091 O   0  0  0  0  0  0  0  0  0  0  0  0
   10.0470   -4.7398   25.1566 C   0  0  0  0  0  0  0  0  0  0  0  0
    9.9674   -5.4577   26.2471 C   0  0  0  0  0  0  0  0  0  0  0  0
    9.5091   -2.4523   23.3024 C   0  0  0  0  0  0  0  0  0  0  0  0
   10.1653   -1.9394   22.1873 C   0  0  0  0  0  0  0  0  0  0  0  0
   10.8911   -0.7641   22.2635 C   0  0  0  0  0  0  0  0  0  0  0  0
   10.9973   -0.0634   23.4544 C   0  0  0  0  0  0  0  0  0  0  0  0
   10.3536   -0.5771   24.5691 C   0  0  0  0  0  0  0  0  0  0  0  0
    9.6242   -1.7510   24.4986 C   0  0  0  0  0  0  0  0  0  0  0  0
   11.7856    1.2224   23.5341 C   0  0  0  0  0  0  0  0  0  0  0  0
   13.2251    0.9853   23.9427 C   0  0  0  0  0  0  0  0  0  0  0  0
   11.2574    2.0835   24.5249 O   0  0  0  0  0  0  0  0  0  0  0  0
   10.0167    2.6722   24.1533 C   0  0  0  0  0  0  0  0  0  0  0  0
    6.5639   -4.7377   22.5664 C   0  0  0  0  0  0  0  0  0  0  0  0
    5.6130   -4.3404   23.4947 C   0  0  0  0  0  0  0  0  0  0  0  0
    4.5906   -5.2007   23.8542 C   0  0  0  0  0  0  0  0  0  0  0  0
    4.5475   -6.4463   23.2715 C   0  0  0  0  0  0  0  0  0  0  0  0
    5.4432   -6.8626   22.3757 N   0  0  0  0  0  0  0  0  0  0  0  0
    6.4199   -6.0143   22.0395 C   0  0  0  0  0  0  0  0  0  0  0  0
    5.5030   -0.1561   20.7121 C   0  0  0  0  0  0  0  0  0  0  0  0
  1  2  1  0
  2  3  1  0
  3  4  2  0
  4  5  1  0
  5  6  2  0
  6  7  1  0
  7  8  1  0
  8  9  1  0
  9 10  2  0
  9 11  1  0
 11 12  1  0
 12 13  1  0
 13 14  2  0
 13 15  1  0
 15 16  2  0
 12 17  1  0
 17 18  2  0
 18 19  1  0
 19 20  2  0
 20 21  1  0
 21 22  2  0
 20 23  1  0
 23 24  1  0
 23 25  1  0
 25 26  1  0
 11 27  1  0
 27 28  2  0
 28 29  1  0
 29 30  2  0
 30 31  1  0
 31 32  2  0
  7 33  2  0
 33  3  1  0
 22 17  1  0
 32 27  1  0
M  END
