CVD-0001565|dock_bobby27042020.80|mol2|39|dock2
     RDKit          3D

 18 19  0  0  0  0  0  0  0  0999 V2000
    7.9093   -2.3919   26.2189 C   0  0  0  0  0  0  0  0  0  0  0  0
    9.0317   -1.5737   25.8947 O   0  0  0  0  0  0  0  0  0  0  0  0
    9.7032   -1.7529   24.7100 C   0  0  0  0  0  0  0  0  0  0  0  0
    9.0459   -2.1518   23.5525 C   0  0  0  0  0  0  0  0  0  0  0  0
    9.7319   -2.2465   22.3527 C   0  0  0  0  0  0  0  0  0  0  0  0
   11.0868   -1.9391   22.3133 C   0  0  0  0  0  0  0  0  0  0  0  0
   11.9932   -1.9397   21.2622 N   0  0  0  0  0  0  0  0  0  0  0  0
   13.3569   -1.6672   21.6381 C   0  0  0  0  0  0  0  0  0  0  0  0
   13.2336   -1.3345   23.1609 C   0  0  0  0  0  0  0  0  0  0  0  0
   14.0894   -2.1895   23.9170 O   0  0  0  0  0  0  0  0  0  0  0  0
   13.5984    0.1193   23.4879 C   0  0  0  0  0  0  0  0  0  0  0  0
   12.6002    1.1863   23.0505 C   0  0  0  0  0  0  0  0  0  0  0  0
   13.2565    2.4744   22.8775 N   0  0  0  0  0  0  0  0  0  0  0  0
   12.6463    3.5241   22.3239 C   0  0  0  0  0  0  0  0  0  0  0  0
   13.4659    4.7750   22.2005 C   0  0  0  0  0  0  0  0  0  0  0  0
   11.4873    3.4653   21.9250 O   0  0  0  0  0  0  0  0  0  0  0  0
   11.7567   -1.5366   23.4738 C   0  0  0  0  0  0  0  0  0  0  0  0
   11.0546   -1.4468   24.6684 C   0  0  0  0  0  0  0  0  0  0  0  0
  1  2  1  0
  2  3  1  0
  3  4  2  0
  4  5  1  0
  5  6  2  0
  6  7  1  0
  7  8  1  0
  8  9  1  0
  9 10  1  0
  9 11  1  0
 11 12  1  0
 12 13  1  0
 13 14  1  0
 14 15  1  0
 14 16  2  0
  9 17  1  0
 17 18  2  0
 18  3  1  0
 17  6  1  0
M  END
