CVD-0000881|dock_bobby27042020.68|mol2|46|dock2
     RDKit          3D

 15 15  0  0  0  0  0  0  0  0999 V2000
    8.6453   -2.7167   22.4284 C   0  0  0  0  0  0  0  0  0  0  0  0
    8.9938   -1.2607   22.1437 C   0  0  0  0  0  0  0  0  0  0  0  0
    8.7938   -1.0093   20.7131 N   0  0  0  0  0  0  0  0  0  0  0  0
    7.6491   -0.5402   20.2117 C   0  0  0  0  0  0  0  0  0  0  0  0
    6.6655   -0.2781   20.8970 O   0  0  0  0  0  0  0  0  0  0  0  0
    7.6545   -0.3468   18.7112 C   0  0  0  0  0  0  0  0  0  0  0  0
    6.0990   -0.7276   17.9614 Cl  0  0  0  0  0  0  0  0  0  0  0  0
   10.4184   -0.9439   22.5571 C   0  0  0  0  0  0  0  0  0  0  0  0
   10.6766   -0.0478   23.5855 C   0  0  0  0  0  0  0  0  0  0  0  0
   11.9736    0.2470   23.9662 C   0  0  0  0  0  0  0  0  0  0  0  0
   13.0425   -0.3567   23.3159 C   0  0  0  0  0  0  0  0  0  0  0  0
   14.3201   -0.0752   23.6811 O   0  0  0  0  0  0  0  0  0  0  0  0
   12.7849   -1.2540   22.2849 C   0  0  0  0  0  0  0  0  0  0  0  0
   14.1010   -2.0203   21.4575 Cl  0  0  0  0  0  0  0  0  0  0  0  0
   11.4872   -1.5451   21.9084 C   0  0  0  0  0  0  0  0  0  0  0  0
  1  2  1  0
  2  3  1  0
  3  4  1  0
  4  5  2  0
  4  6  1  0
  6  7  1  0
  2  8  1  0
  8  9  2  0
  9 10  1  0
 10 11  2  0
 11 12  1  0
 11 13  1  0
 13 14  1  0
 13 15  2  0
 15  8  1  0
M  END
