CVD-0001544|dock_bobby27042020.80|mol2|42|dock1
     RDKit          3D

 13 13  0  0  0  0  0  0  0  0999 V2000
   14.6736   -1.9454   24.3187 N   0  0  0  0  0  0  0  0  0  0  0  0
   13.8983   -1.8789   23.2435 C   0  0  0  0  0  0  0  0  0  0  0  0
   13.8215   -2.8093   22.4333 O   0  0  0  0  0  0  0  0  0  0  0  0
   13.0749   -0.6267   23.0235 C   0  0  0  0  0  0  0  0  0  0  0  0
   13.6402    0.5043   23.4767 N   0  0  0  0  0  0  0  0  0  0  0  0
   13.0189    1.6155   23.1688 C   0  0  0  0  0  0  0  0  0  0  0  0
   13.6064    2.7405   23.6043 F   0  0  0  0  0  0  0  0  0  0  0  0
   11.8389    1.6937   22.4464 C   0  0  0  0  0  0  0  0  0  0  0  0
   11.1708    2.9645   22.0696 C   0  0  0  0  0  0  0  0  0  0  0  0
   11.5811    4.0730   22.3343 O   0  0  0  0  0  0  0  0  0  0  0  0
   11.2293    0.5640   22.0455 N   0  0  0  0  0  0  0  0  0  0  0  0
   11.8116   -0.6131   22.3926 C   0  0  0  0  0  0  0  0  0  0  0  0
   11.1292   -1.6682   22.1160 O   0  0  0  0  0  0  0  0  0  0  0  0
  1  2  1  0
  2  3  2  0
  2  4  1  0
  4  5  2  0
  5  6  1  0
  6  7  1  0
  6  8  2  0
  8  9  1  0
  9 10  2  0
  8 11  1  0
 11 12  2  0
 12 13  1  0
 12  4  1  0
M  END
