CVD-0002812|dock_bobby27042020.33|mol2|3|dock1
     RDKit          3D

 16 17  0  0  0  0  0  0  0  0999 V2000
   12.7818   -1.6498   21.5873 C   0  0  0  0  0  0  0  0  0  0  0  0
   12.5310   -0.2126   21.9661 C   0  0  0  0  0  0  0  0  0  0  0  0
   13.4652    0.4343   22.7694 C   0  0  0  0  0  0  0  0  0  0  0  0
   13.2644    1.7480   23.1295 C   0  0  0  0  0  0  0  0  0  0  0  0
   12.2041    2.4523   22.7444 N   0  0  0  0  0  0  0  0  0  0  0  0
   11.3008    1.8422   21.9709 C   0  0  0  0  0  0  0  0  0  0  0  0
   11.4017    0.5169   21.5467 C   0  0  0  0  0  0  0  0  0  0  0  0
   10.4412   -0.1350   20.7235 N   0  0  0  0  0  0  0  0  0  0  0  0
    9.1126    0.0924   20.5761 C   0  0  0  0  0  0  0  0  0  0  0  0
    8.4572    0.9503   21.1576 O   0  0  0  0  0  0  0  0  0  0  0  0
    8.4394   -0.8465   19.5974 C   0  0  0  0  0  0  0  0  0  0  0  0
    7.1726   -0.2469   19.0522 C   0  0  0  0  0  0  0  0  0  0  0  0
    7.1197    0.7562   18.0537 C   0  0  0  0  0  0  0  0  0  0  0  0
    5.8591    1.1419   17.7102 C   0  0  0  0  0  0  0  0  0  0  0  0
    4.7237    0.2657   18.6204 S   0  0  0  0  0  0  0  0  0  0  0  0
    5.9221   -0.6103   19.4496 C   0  0  0  0  0  0  0  0  0  0  0  0
  1  2  1  0
  2  3  2  0
  3  4  1  0
  4  5  2  0
  5  6  1  0
  6  7  2  0
  7  8  1  0
  8  9  1  0
  9 10  2  0
  9 11  1  0
 11 12  1  0
 12 13  1  0
 13 14  2  0
 14 15  1  0
 15 16  1  0
  7  2  1  0
 16 12  2  0
M  END
