CVD-0003639|dock_bobby27042020.30|mol2|19|dock1
     RDKit          3D

 31 34  0  0  0  0  0  0  0  0999 V2000
   14.8493    5.2440   23.3979 O   0  0  0  0  0  0  0  0  0  0  0  0
   13.6228    5.3241   23.3735 N   0  0  0  0  0  0  0  0  0  0  0  0
   12.9995    6.3414   23.6252 O   0  0  0  0  0  0  0  0  0  0  0  0
   12.8595    4.1200   23.0194 C   0  0  0  0  0  0  0  0  0  0  0  0
   13.5315    2.9571   22.6908 C   0  0  0  0  0  0  0  0  0  0  0  0
   12.8189    1.8106   22.3970 C   0  0  0  0  0  0  0  0  0  0  0  0
   11.4258    1.8221   22.4287 C   0  0  0  0  0  0  0  0  0  0  0  0
   10.7406    3.0320   22.6779 C   0  0  0  0  0  0  0  0  0  0  0  0
   11.4756    4.1652   23.0160 C   0  0  0  0  0  0  0  0  0  0  0  0
    9.2933    3.1833   22.5934 N   0  0  0  0  0  0  0  0  0  0  0  0
    8.7047    2.8698   21.5613 O   0  0  0  0  0  0  0  0  0  0  0  0
    8.7101    3.6760   23.5443 O   0  0  0  0  0  0  0  0  0  0  0  0
   10.7749    0.5610   22.2231 N   0  0  0  0  0  0  0  0  0  0  0  0
    9.5589    0.5858   21.5582 N   0  0  0  0  0  0  0  0  0  0  0  0
    9.1358   -0.6821   21.5544 C   0  0  0  0  0  0  0  0  0  0  0  0
   10.0591   -1.5190   22.1978 C   0  0  0  0  0  0  0  0  0  0  0  0
   11.1036   -0.7174   22.6151 C   0  0  0  0  0  0  0  0  0  0  0  0
   12.3085   -1.1860   23.3356 C   0  0  0  0  0  0  0  0  0  0  0  0
   13.0688   -2.2776   22.9237 C   0  0  0  0  0  0  0  0  0  0  0  0
   14.2044   -2.6594   23.6161 C   0  0  0  0  0  0  0  0  0  0  0  0
   14.5543   -1.9554   24.7352 C   0  0  0  0  0  0  0  0  0  0  0  0
   15.6706   -2.3272   25.4179 F   0  0  0  0  0  0  0  0  0  0  0  0
   13.8264   -0.8936   25.1958 C   0  0  0  0  0  0  0  0  0  0  0  0
   12.6995   -0.5139   24.4891 C   0  0  0  0  0  0  0  0  0  0  0  0
    7.8533   -1.0364   20.9266 C   0  0  0  0  0  0  0  0  0  0  0  0
    7.0020   -1.9589   21.5246 C   0  0  0  0  0  0  0  0  0  0  0  0
    5.7948   -2.2954   20.9382 C   0  0  0  0  0  0  0  0  0  0  0  0
    5.4582   -1.6981   19.7541 C   0  0  0  0  0  0  0  0  0  0  0  0
    4.2723   -2.0258   19.1737 F   0  0  0  0  0  0  0  0  0  0  0  0
    6.2634   -0.7854   19.1290 C   0  0  0  0  0  0  0  0  0  0  0  0
    7.4684   -0.4556   19.7235 C   0  0  0  0  0  0  0  0  0  0  0  0
  1  2  1  0
  2  3  2  0
  2  4  1  0
  4  5  2  0
  5  6  1  0
  6  7  2  0
  7  8  1  0
  8  9  2  0
  8 10  1  0
 10 11  1  0
 10 12  2  0
  7 13  1  0
 13 14  1  0
 14 15  2  0
 15 16  1  0
 16 17  2  0
 17 18  1  0
 18 19  2  0
 19 20  1  0
 20 21  2  0
 21 22  1  0
 21 23  1  0
 23 24  2  0
 15 25  1  0
 25 26  2  0
 26 27  1  0
 27 28  2  0
 28 29  1  0
 28 30  1  0
 30 31  2  0
  9  4  1  0
 17 13  1  0
 24 18  1  0
 31 25  1  0
M  CHG  4   1  -1   2   1  10   1  11  -1
M  END
