CVD-0002031|dock_bobby27042020.7|mol2|36|dock1
     RDKit          3D

 34 38  0  0  0  0  0  0  0  0999 V2000
    4.6300    2.1972   20.1828 C   0  0  0  0  0  0  0  0  0  0  0  0
    5.9492    1.7284   19.7531 N   0  0  0  0  0  0  0  0  0  0  0  0
    5.9045    1.1172   18.4214 C   0  0  0  0  0  0  0  0  0  0  0  0
    5.0767   -0.1541   18.4546 C   0  0  0  0  0  0  0  0  0  0  0  0
    5.6296   -1.0994   19.4269 N   0  0  0  0  0  0  0  0  0  0  0  0
    5.7435   -0.4974   20.7590 C   0  0  0  0  0  0  0  0  0  0  0  0
    6.5528    0.7849   20.6905 C   0  0  0  0  0  0  0  0  0  0  0  0
    6.6914    1.4025   22.0785 C   0  0  0  0  0  0  0  0  0  0  0  0
    5.9378    1.0743   22.9909 O   0  0  0  0  0  0  0  0  0  0  0  0
    7.6647    2.3010   22.2259 N   0  0  0  0  0  0  0  0  0  0  0  0
    7.9225    2.9773   23.4893 C   0  0  0  0  0  0  0  0  0  0  0  0
    8.9011    4.1235   23.3275 C   0  0  0  0  0  0  0  0  0  0  0  0
   10.3027    3.6635   23.0524 C   0  0  0  0  0  0  0  0  0  0  0  0
   10.7063    2.4189   22.6682 C   0  0  0  0  0  0  0  0  0  0  0  0
   12.0656    2.3857   22.5146 N   0  0  0  0  0  0  0  0  0  0  0  0
   12.5754    3.6283   22.8014 C   0  0  0  0  0  0  0  0  0  0  0  0
   13.8817    4.1044   22.7932 C   0  0  0  0  0  0  0  0  0  0  0  0
   14.1160    5.4259   23.1308 C   0  0  0  0  0  0  0  0  0  0  0  0
   13.0509    6.2214   23.4622 C   0  0  0  0  0  0  0  0  0  0  0  0
   13.2953    7.5184   23.7919 F   0  0  0  0  0  0  0  0  0  0  0  0
   11.7461    5.7887   23.4820 C   0  0  0  0  0  0  0  0  0  0  0  0
   11.4929    4.4600   23.1445 C   0  0  0  0  0  0  0  0  0  0  0  0
    5.9901   -2.3639   19.1290 C   0  0  0  0  0  0  0  0  0  0  0  0
    5.8931   -2.8161   17.9952 O   0  0  0  0  0  0  0  0  0  0  0  0
    6.5187   -3.2219   20.2646 C   0  0  0  0  0  0  0  0  0  0  0  0
    7.8573   -2.7816   20.7769 C   0  0  0  0  0  0  0  0  0  0  0  0
    8.6836   -1.8459   20.2271 C   0  0  0  0  0  0  0  0  0  0  0  0
    9.8229   -1.7105   20.9751 N   0  0  0  0  0  0  0  0  0  0  0  0
    9.7515   -2.5670   22.0343 C   0  0  0  0  0  0  0  0  0  0  0  0
   10.6651   -2.7421   23.0040 N   0  0  0  0  0  0  0  0  0  0  0  0
   10.3654   -3.6491   23.9439 C   0  0  0  0  0  0  0  0  0  0  0  0
    9.1998   -4.3849   23.9576 C   0  0  0  0  0  0  0  0  0  0  0  0
    8.2682   -4.1919   22.9497 C   0  0  0  0  0  0  0  0  0  0  0  0
    8.5322   -3.2597   21.9482 C   0  0  0  0  0  0  0  0  0  0  0  0
  1  2  1  0
  2  3  1  0
  3  4  1  0
  4  5  1  0
  5  6  1  0
  6  7  1  0
  7  8  1  0
  8  9  2  0
  8 10  1  0
 10 11  1  0
 11 12  1  0
 12 13  1  0
 13 14  2  0
 14 15  1  0
 15 16  1  0
 16 17  2  0
 17 18  1  0
 18 19  2  0
 19 20  1  0
 19 21  1  0
 21 22  2  0
  5 23  1  0
 23 24  2  0
 23 25  1  0
 25 26  1  0
 26 27  2  0
 27 28  1  0
 28 29  1  0
 29 30  2  0
 30 31  1  0
 31 32  2  0
 32 33  1  0
 33 34  2  0
  7  2  1  0
 22 13  1  0
 34 26  1  0
 22 16  1  0
 34 29  1  0
M  END
