CVD-0002992|dock_bobby27042020.75|mol2|18|dock1
     RDKit          3D

 32 34  0  0  0  0  0  0  0  0999 V2000
    8.9890    5.8388   22.4602 C   0  0  0  0  0  0  0  0  0  0  0  0
    9.1114    4.4394   22.9898 C   0  0  0  0  0  0  0  0  0  0  0  0
    8.1061    3.7821   23.2352 O   0  0  0  0  0  0  0  0  0  0  0  0
   10.3556    3.9128   23.1969 N   0  0  0  0  0  0  0  0  0  0  0  0
   10.4625    2.5432   23.7267 C   0  0  0  0  0  0  0  0  0  0  0  0
   10.2608    1.4549   22.6771 C   0  0  0  0  0  0  0  0  0  0  0  0
    9.5315    0.2294   23.1900 C   0  0  0  0  0  0  0  0  0  0  0  0
    9.7893   -0.1400   24.5053 C   0  0  0  0  0  0  0  0  0  0  0  0
    9.1784   -1.2293   25.0929 C   0  0  0  0  0  0  0  0  0  0  0  0
    8.3021   -2.0258   24.3613 C   0  0  0  0  0  0  0  0  0  0  0  0
    8.0274   -1.6572   23.0468 C   0  0  0  0  0  0  0  0  0  0  0  0
    8.6197   -0.5429   22.4477 C   0  0  0  0  0  0  0  0  0  0  0  0
    8.3350   -0.1609   21.1071 N   0  0  0  0  0  0  0  0  0  0  0  0
    7.1727   -0.1898   20.4080 C   0  0  0  0  0  0  0  0  0  0  0  0
    6.0828   -0.5717   20.8206 O   0  0  0  0  0  0  0  0  0  0  0  0
    7.3144    0.3104   18.9872 C   0  0  0  0  0  0  0  0  0  0  0  0
    5.7511    0.6101   18.2169 Cl  0  0  0  0  0  0  0  0  0  0  0  0
    7.6124   -3.2564   24.8884 C   0  0  0  0  0  0  0  0  0  0  0  0
    6.5597   -3.0624   25.4720 O   0  0  0  0  0  0  0  0  0  0  0  0
    8.0759   -4.5217   24.7420 N   0  0  0  0  0  0  0  0  0  0  0  0
    9.3115   -4.8959   24.0502 C   0  0  0  0  0  0  0  0  0  0  0  0
   10.4278   -5.1873   25.0206 C   0  0  0  0  0  0  0  0  0  0  0  0
   10.0367   -6.5513   26.1472 S   0  0  0  0  0  0  0  0  0  0  0  0
    8.4313   -5.9524   26.7084 C   0  0  0  0  0  0  0  0  0  0  0  0
    7.5040   -5.5798   25.5814 C   0  0  0  0  0  0  0  0  0  0  0  0
   11.5836    4.6317   22.9646 C   0  0  0  0  0  0  0  0  0  0  0  0
   12.3677    4.3139   21.8636 C   0  0  0  0  0  0  0  0  0  0  0  0
   13.4948    4.9591   21.5492 N   0  0  0  0  0  0  0  0  0  0  0  0
   13.8652    5.9607   22.3446 C   0  0  0  0  0  0  0  0  0  0  0  0
   13.1675    6.3302   23.4751 C   0  0  0  0  0  0  0  0  0  0  0  0
   12.0061    5.6469   23.8246 C   0  0  0  0  0  0  0  0  0  0  0  0
   11.2896    6.0175   25.0972 C   0  0  0  0  0  0  0  0  0  0  0  0
  1  2  1  0
  2  3  2  0
  2  4  1  0
  4  5  1  0
  5  6  1  0
  6  7  1  0
  7  8  2  0
  8  9  1  0
  9 10  2  0
 10 11  1  0
 11 12  2  0
 12 13  1  0
 13 14  1  0
 14 15  2  0
 14 16  1  0
 16 17  1  0
 10 18  1  0
 18 19  2  0
 18 20  1  0
 20 21  1  0
 21 22  1  0
 22 23  1  0
 23 24  1  0
 24 25  1  0
  4 26  1  0
 26 27  2  0
 27 28  1  0
 28 29  2  0
 29 30  1  0
 30 31  2  0
 31 32  1  0
 12  7  1  0
 25 20  1  0
 31 26  1  0
M  END
