CVD-0000238|dock_bobby27042020.42|mol2|18|dock2
     RDKit          3D

 28 30  0  0  0  0  0  0  0  0999 V2000
    8.5184   -3.7115   22.0917 O   0  0  0  0  0  0  0  0  0  0  0  0
    8.6959   -3.2800   23.2109 C   0  0  0  0  0  0  0  0  0  0  0  0
    9.0327   -2.0129   23.5038 N   0  0  0  0  0  0  0  0  0  0  0  0
    9.2154   -1.0285   22.4500 C   0  0  0  0  0  0  0  0  0  0  0  0
   10.5206   -1.3129   21.6884 C   0  0  0  0  0  0  0  0  0  0  0  0
   11.7693   -1.1741   22.5254 C   0  0  0  0  0  0  0  0  0  0  0  0
   12.2824    0.0771   22.8306 C   0  0  0  0  0  0  0  0  0  0  0  0
   13.4262    0.2047   23.6010 C   0  0  0  0  0  0  0  0  0  0  0  0
   14.0697   -0.9177   24.0761 C   0  0  0  0  0  0  0  0  0  0  0  0
   13.5693   -2.1675   23.7810 C   0  0  0  0  0  0  0  0  0  0  0  0
   12.4255   -2.2947   23.0106 C   0  0  0  0  0  0  0  0  0  0  0  0
    8.0199   -1.0384   21.4997 C   0  0  0  0  0  0  0  0  0  0  0  0
    8.1891   -1.2262   20.2978 O   0  0  0  0  0  0  0  0  0  0  0  0
    6.8149   -0.8437   22.0358 N   0  0  0  0  0  0  0  0  0  0  0  0
    5.6207   -0.8428   21.2189 C   0  0  0  0  0  0  0  0  0  0  0  0
    5.7038    0.0997   20.0778 C   0  0  0  0  0  0  0  0  0  0  0  0
    5.7082   -0.0579   18.7476 C   0  0  0  0  0  0  0  0  0  0  0  0
    5.8093    1.2329   18.2393 C   0  0  0  0  0  0  0  0  0  0  0  0
    5.8645    2.1331   19.1579 N   0  0  0  0  0  0  0  0  0  0  0  0
    5.7969    1.4134   20.3731 O   0  0  0  0  0  0  0  0  0  0  0  0
    8.5815   -4.0108   24.3367 O   0  0  0  0  0  0  0  0  0  0  0  0
    8.3461   -5.4316   24.1507 C   0  0  0  0  0  0  0  0  0  0  0  0
    6.9602   -5.6362   23.6121 C   0  0  0  0  0  0  0  0  0  0  0  0
    6.7641   -6.0855   22.3155 C   0  0  0  0  0  0  0  0  0  0  0  0
    5.4854   -6.2775   21.8195 C   0  0  0  0  0  0  0  0  0  0  0  0
    4.3890   -6.0230   22.6151 C   0  0  0  0  0  0  0  0  0  0  0  0
    4.5709   -5.5770   23.9066 C   0  0  0  0  0  0  0  0  0  0  0  0
    5.8495   -5.3851   24.4026 C   0  0  0  0  0  0  0  0  0  0  0  0
  1  2  2  0
  2  3  1  0
  3  4  1  0
  4  5  1  0
  5  6  1  0
  6  7  2  0
  7  8  1  0
  8  9  2  0
  9 10  1  0
 10 11  2  0
  4 12  1  0
 12 13  2  0
 12 14  1  0
 14 15  1  0
 15 16  1  0
 16 17  2  0
 17 18  1  0
 18 19  2  0
 19 20  1  0
  2 21  1  0
 21 22  1  0
 22 23  1  0
 23 24  2  0
 24 25  1  0
 25 26  2  0
 26 27  1  0
 27 28  2  0
 11  6  1  0
 20 16  1  0
 28 23  1  0
M  END
