CVD-0001805|dock_bobby27042020.8|mol2|23|dock2
     RDKit          3D

 20 21  0  0  0  0  0  0  0  0999 V2000
    8.0679   -0.1330   18.4619 C   0  0  0  0  0  0  0  0  0  0  0  0
    6.9018    0.3357   19.2933 C   0  0  0  0  0  0  0  0  0  0  0  0
    5.6715    0.5613   18.6824 C   0  0  0  0  0  0  0  0  0  0  0  0
    4.6143    1.0373   19.4292 C   0  0  0  0  0  0  0  0  0  0  0  0
    4.6977    1.3094   20.7304 N   0  0  0  0  0  0  0  0  0  0  0  0
    5.8689    1.0764   21.3302 C   0  0  0  0  0  0  0  0  0  0  0  0
    6.9812    0.5786   20.6654 C   0  0  0  0  0  0  0  0  0  0  0  0
    8.2075    0.3171   21.3917 N   0  0  0  0  0  0  0  0  0  0  0  0
    9.0583    1.3820   21.6274 C   0  0  0  0  0  0  0  0  0  0  0  0
    8.7842    2.5390   21.3334 O   0  0  0  0  0  0  0  0  0  0  0  0
   10.4274    1.0497   22.2506 C   0  0  0  0  0  0  0  0  0  0  0  0
   10.3613   -0.2118   23.1092 C   0  0  0  0  0  0  0  0  0  0  0  0
    9.6104   -1.2502   22.4713 N   0  0  0  0  0  0  0  0  0  0  0  0
   10.0557   -2.6316   22.6914 C   0  0  0  0  0  0  0  0  0  0  0  0
    9.5628   -3.2128   24.0055 C   0  0  0  0  0  0  0  0  0  0  0  0
   10.0222   -4.6176   24.1926 C   0  0  0  0  0  0  0  0  0  0  0  0
    9.3005   -5.5864   23.8521 N   0  0  0  0  0  0  0  0  0  0  0  0
   11.2108   -4.7513   24.7391 N   0  0  0  0  0  0  0  0  0  0  0  0
    8.4599   -0.9973   21.7677 C   0  0  0  0  0  0  0  0  0  0  0  0
    7.6854   -1.9042   21.5065 O   0  0  0  0  0  0  0  0  0  0  0  0
  1  2  1  0
  2  3  2  0
  3  4  1  0
  4  5  2  0
  5  6  1  0
  6  7  2  0
  7  8  1  0
  8  9  1  0
  9 10  2  0
  9 11  1  0
 11 12  1  0
 12 13  1  0
 13 14  1  0
 14 15  1  0
 15 16  1  0
 16 17  1  0
 16 18  2  0
 13 19  1  0
 19 20  2  0
  7  2  1  0
 19  8  1  0
M  END
