CVD-0000129|dock_bobby27042020.99|mol2|34|dock3
     RDKit          3D

 27 29  0  0  0  0  0  0  0  0999 V2000
    6.4914   -0.7742   25.4985 C   0  0  0  0  0  0  0  0  0  0  0  0
    8.1050   -0.9568   24.8327 S   0  0  0  0  0  0  0  0  0  0  0  0
    9.0508   -0.6658   25.8635 O   0  0  0  0  0  0  0  0  0  0  0  0
    8.1628   -0.1585   23.6475 O   0  0  0  0  0  0  0  0  0  0  0  0
    8.2857   -2.5147   24.4039 N   0  0  0  0  0  0  0  0  0  0  0  0
    9.0938   -2.9044   23.2416 C   0  0  0  0  0  0  0  0  0  0  0  0
    9.8862   -1.8504   22.6275 N   0  0  0  0  0  0  0  0  0  0  0  0
   11.1637   -1.5594   23.3048 C   0  0  0  0  0  0  0  0  0  0  0  0
   11.3072   -0.0750   23.5478 C   0  0  0  0  0  0  0  0  0  0  0  0
   12.6634    0.2507   24.1650 C   0  0  0  0  0  0  0  0  0  0  0  0
   13.7936   -0.2701   23.3159 C   0  0  0  0  0  0  0  0  0  0  0  0
   13.6451   -1.7498   23.0518 C   0  0  0  0  0  0  0  0  0  0  0  0
   12.2911   -2.0820   22.4394 C   0  0  0  0  0  0  0  0  0  0  0  0
    9.4822   -1.1053   21.5458 C   0  0  0  0  0  0  0  0  0  0  0  0
   10.3102   -0.4946   20.8806 O   0  0  0  0  0  0  0  0  0  0  0  0
    8.1770   -1.0455   21.2178 N   0  0  0  0  0  0  0  0  0  0  0  0
    7.7474   -0.2404   20.0769 C   0  0  0  0  0  0  0  0  0  0  0  0
    6.3204    0.2702   20.3038 C   0  0  0  0  0  0  0  0  0  0  0  0
    5.3594   -0.8768   19.9450 C   0  0  0  0  0  0  0  0  0  0  0  0
    5.5296   -1.3089   18.4793 C   0  0  0  0  0  0  0  0  0  0  0  0
    6.9681   -1.4908   18.0897 N   0  0  0  0  0  0  0  0  0  0  0  0
    7.8865   -1.0282   18.8208 C   0  0  0  0  0  0  0  0  0  0  0  0
    7.7864   -3.6525   25.2856 C   0  0  0  0  0  0  0  0  0  0  0  0
    8.3725   -3.6404   26.6945 C   0  0  0  0  0  0  0  0  0  0  0  0
    9.1244   -4.7637   26.8605 C   0  0  0  0  0  0  0  0  0  0  0  0
    9.1070   -5.5583   25.5895 C   0  0  0  0  0  0  0  0  0  0  0  0
    8.1574   -5.0311   24.7620 C   0  0  0  0  0  0  0  0  0  0  0  0
  1  2  1  0
  2  3  2  0
  2  4  2  0
  2  5  1  0
  5  6  1  0
  6  7  1  0
  7  8  1  0
  8  9  1  0
  9 10  1  0
 10 11  1  0
 11 12  1  0
 12 13  1  0
  7 14  1  0
 14 15  2  0
 14 16  1  0
 16 17  1  0
 17 18  1  0
 18 19  1  0
 19 20  1  0
 20 21  1  0
 21 22  2  0
  5 23  1  0
 23 24  1  0
 24 25  2  0
 25 26  1  0
 26 27  2  0
 13  8  1  0
 22 17  1  0
 27 23  1  0
M  END
