CVD-0002504|dock_bobby27042020.48|mol2|21|dock1
     RDKit          3D

 30 32  0  0  0  0  0  0  0  0999 V2000
   12.7408    5.8367   24.3973 C   0  0  0  0  0  0  0  0  0  0  0  0
   13.3799    5.4415   23.1030 C   0  0  0  0  0  0  0  0  0  0  0  0
   12.5218    4.5554   22.3348 N   0  0  0  0  0  0  0  0  0  0  0  0
   12.4124    3.2213   22.5781 C   0  0  0  0  0  0  0  0  0  0  0  0
   11.2971    2.5065   22.1453 C   0  0  0  0  0  0  0  0  0  0  0  0
   11.2411    1.1525   22.4208 C   0  0  0  0  0  0  0  0  0  0  0  0
   12.2734    0.5333   23.1094 C   0  0  0  0  0  0  0  0  0  0  0  0
   13.3347    1.3352   23.4955 C   0  0  0  0  0  0  0  0  0  0  0  0
   13.4187    2.6466   23.2443 N   0  0  0  0  0  0  0  0  0  0  0  0
   12.2367   -0.9388   23.4263 C   0  0  0  0  0  0  0  0  0  0  0  0
   11.4652   -1.2207   24.5704 O   0  0  0  0  0  0  0  0  0  0  0  0
   10.0565   -1.0272   24.4178 C   0  0  0  0  0  0  0  0  0  0  0  0
    9.4939   -1.2714   25.6697 O   0  0  0  0  0  0  0  0  0  0  0  0
    9.5342   -1.9747   23.3494 C   0  0  0  0  0  0  0  0  0  0  0  0
    8.1091   -1.6680   23.1575 N   0  0  0  0  0  0  0  0  0  0  0  0
    7.3757   -2.5581   22.2913 C   0  0  0  0  0  0  0  0  0  0  0  0
    7.2776   -3.9307   22.8046 N   0  0  0  0  0  0  0  0  0  0  0  0
    6.5361   -4.7775   21.8655 C   0  0  0  0  0  0  0  0  0  0  0  0
    6.4732   -6.2033   22.3810 C   0  0  0  0  0  0  0  0  0  0  0  0
    5.8437   -6.2421   23.7027 N   0  0  0  0  0  0  0  0  0  0  0  0
    6.5275   -5.3574   24.6512 C   0  0  0  0  0  0  0  0  0  0  0  0
    6.5990   -3.9458   24.0979 C   0  0  0  0  0  0  0  0  0  0  0  0
    4.7846   -7.0287   23.9860 C   0  0  0  0  0  0  0  0  0  0  0  0
    4.2911   -7.7680   23.1437 O   0  0  0  0  0  0  0  0  0  0  0  0
    4.2224   -6.9538   25.3927 C   0  0  0  0  0  0  0  0  0  0  0  0
    2.8739   -8.0777   25.6072 Cl  0  0  0  0  0  0  0  0  0  0  0  0
   10.2616   -1.7263   22.0318 C   0  0  0  0  0  0  0  0  0  0  0  0
    9.9578   -2.7732   21.1151 O   0  0  0  0  0  0  0  0  0  0  0  0
   11.7628   -1.7690   22.2362 C   0  0  0  0  0  0  0  0  0  0  0  0
   12.3448   -1.2866   21.0290 O   0  0  0  0  0  0  0  0  0  0  0  0
  1  2  1  0
  2  3  1  0
  3  4  1  0
  4  5  2  0
  5  6  1  0
  6  7  2  0
  7  8  1  0
  8  9  2  0
  7 10  1  0
 10 11  1  0
 11 12  1  0
 12 13  1  0
 12 14  1  0
 14 15  1  0
 15 16  1  0
 16 17  1  0
 17 18  1  0
 18 19  1  0
 19 20  1  0
 20 21  1  0
 21 22  1  0
 20 23  1  0
 23 24  2  0
 23 25  1  0
 25 26  1  0
 14 27  1  0
 27 28  1  0
 27 29  1  0
 29 30  1  0
  9  4  1  0
 29 10  1  0
 22 17  1  0
M  END
