CVD-0001782|dock_bobby27042020.37|mol2|12|dock2
     RDKit          3D

 19 21  0  0  0  0  0  0  0  0999 V2000
    8.7963    0.3226   22.3836 O   0  0  0  0  0  0  0  0  0  0  0  0
    9.3311   -0.4061   21.5545 C   0  0  0  0  0  0  0  0  0  0  0  0
   10.6086   -1.1452   21.8923 C   0  0  0  0  0  0  0  0  0  0  0  0
   11.4552   -0.4804   22.9360 C   0  0  0  0  0  0  0  0  0  0  0  0
   11.5255    0.8532   23.2142 C   0  0  0  0  0  0  0  0  0  0  0  0
   12.4091    1.0864   24.2345 N   0  0  0  0  0  0  0  0  0  0  0  0
   12.9314   -0.1073   24.6382 C   0  0  0  0  0  0  0  0  0  0  0  0
   13.8330   -0.3145   25.6127 N   0  0  0  0  0  0  0  0  0  0  0  0
   14.1943   -1.5875   25.8249 C   0  0  0  0  0  0  0  0  0  0  0  0
   13.6972   -2.6565   25.1105 C   0  0  0  0  0  0  0  0  0  0  0  0
   12.7679   -2.4248   24.1086 C   0  0  0  0  0  0  0  0  0  0  0  0
   12.3589   -1.1185   23.8482 C   0  0  0  0  0  0  0  0  0  0  0  0
    8.8710   -0.6450   20.3026 N   0  0  0  0  0  0  0  0  0  0  0  0
    7.7236   -0.1639   19.6250 C   0  0  0  0  0  0  0  0  0  0  0  0
    6.5928    0.3294   20.2679 C   0  0  0  0  0  0  0  0  0  0  0  0
    5.5240    0.7754   19.5095 C   0  0  0  0  0  0  0  0  0  0  0  0
    5.6132    0.7173   18.1378 C   0  0  0  0  0  0  0  0  0  0  0  0
    6.6829    0.2503   17.4942 N   0  0  0  0  0  0  0  0  0  0  0  0
    7.7091   -0.1779   18.2349 C   0  0  0  0  0  0  0  0  0  0  0  0
  1  2  2  0
  2  3  1  0
  3  4  1  0
  4  5  2  0
  5  6  1  0
  6  7  1  0
  7  8  2  0
  8  9  1  0
  9 10  2  0
 10 11  1  0
 11 12  2  0
  2 13  1  0
 13 14  1  0
 14 15  2  0
 15 16  1  0
 16 17  2  0
 17 18  1  0
 18 19  2  0
 12  4  1  0
 19 14  1  0
 12  7  1  0
M  END
