CVD-0002692|dock_bobby27042020.62|mol2|15|dock3
     RDKit          3D

 15 15  0  0  0  0  0  0  0  0999 V2000
   12.6737    6.0301   24.7477 C   0  0  0  0  0  0  0  0  0  0  0  0
   13.4593    5.3310   23.3474 S   0  0  0  0  0  0  0  0  0  0  0  0
   13.9555    6.4000   22.5369 O   0  0  0  0  0  0  0  0  0  0  0  0
   14.3802    4.3368   23.8053 O   0  0  0  0  0  0  0  0  0  0  0  0
   12.3376    4.5724   22.4890 N   0  0  0  0  0  0  0  0  0  0  0  0
   12.6978    3.3719   21.7256 C   0  0  0  0  0  0  0  0  0  0  0  0
   12.2838    2.1095   22.4410 C   0  0  0  0  0  0  0  0  0  0  0  0
   13.2465    1.2856   23.0146 C   0  0  0  0  0  0  0  0  0  0  0  0
   12.8778    0.1171   23.6744 C   0  0  0  0  0  0  0  0  0  0  0  0
   11.5260   -0.2003   23.7415 C   0  0  0  0  0  0  0  0  0  0  0  0
   10.5700    0.5631   23.2027 N   0  0  0  0  0  0  0  0  0  0  0  0
   10.9206    1.7016   22.5590 C   0  0  0  0  0  0  0  0  0  0  0  0
    9.9276    2.4283   22.0373 N   0  0  0  0  0  0  0  0  0  0  0  0
   13.8749   -0.7375   24.2702 C   0  0  0  0  0  0  0  0  0  0  0  0
   14.6414   -1.4379   24.7464 N   0  0  0  0  0  0  0  0  0  0  0  0
  1  2  1  0
  2  3  2  0
  2  4  2  0
  2  5  1  0
  5  6  1  0
  6  7  1  0
  7  8  2  0
  8  9  1  0
  9 10  2  0
 10 11  1  0
 11 12  2  0
 12 13  1  0
  9 14  1  0
 14 15  3  0
 12  7  1  0
M  END
