CVD-0003224|dock_bobby27042020.17|mol2|10|dock3
     RDKit          3D

 25 27  0  0  0  0  0  0  0  0999 V2000
    5.6861   -5.3859   23.8342 C   0  0  0  0  0  0  0  0  0  0  0  0
    6.7350   -5.0475   22.7962 C   0  0  0  0  0  0  0  0  0  0  0  0
    6.5320   -5.8657   21.5384 C   0  0  0  0  0  0  0  0  0  0  0  0
    6.6825   -3.6120   22.4482 N   0  0  0  0  0  0  0  0  0  0  0  0
    7.4681   -2.6768   23.2635 C   0  0  0  0  0  0  0  0  0  0  0  0
    8.8728   -2.4851   22.7241 C   0  0  0  0  0  0  0  0  0  0  0  0
    9.2205   -1.0760   22.4989 N   0  0  0  0  0  0  0  0  0  0  0  0
   10.0971   -0.4474   23.4717 C   0  0  0  0  0  0  0  0  0  0  0  0
   11.5573   -0.7312   23.2257 C   0  0  0  0  0  0  0  0  0  0  0  0
   12.6154   -0.3234   24.0748 C   0  0  0  0  0  0  0  0  0  0  0  0
   13.8565   -0.6861   23.6467 C   0  0  0  0  0  0  0  0  0  0  0  0
   13.7309   -1.5385   22.1833 S   0  0  0  0  0  0  0  0  0  0  0  0
   12.0361   -1.4070   22.1445 C   0  0  0  0  0  0  0  0  0  0  0  0
    8.7578   -0.3832   21.4372 C   0  0  0  0  0  0  0  0  0  0  0  0
    9.0864    0.7785   21.2319 O   0  0  0  0  0  0  0  0  0  0  0  0
    7.7956   -1.0896   20.4836 C   0  0  0  0  0  0  0  0  0  0  0  0
    7.3176   -0.1983   19.4444 N   0  0  0  0  0  0  0  0  0  0  0  0
    8.0495   -0.0023   18.3165 N   0  0  0  0  0  0  0  0  0  0  0  0
    7.3956    0.7946   17.5200 N   0  0  0  0  0  0  0  0  0  0  0  0
    6.1937    1.1045   18.1164 C   0  0  0  0  0  0  0  0  0  0  0  0
    5.1259    1.8960   17.6957 C   0  0  0  0  0  0  0  0  0  0  0  0
    4.0213    2.0206   18.5241 C   0  0  0  0  0  0  0  0  0  0  0  0
    3.9690    1.3772   19.7452 C   0  0  0  0  0  0  0  0  0  0  0  0
    5.0214    0.5883   20.1820 C   0  0  0  0  0  0  0  0  0  0  0  0
    6.1303    0.4649   19.3535 C   0  0  0  0  0  0  0  0  0  0  0  0
  1  2  1  0
  2  3  1  0
  2  4  1  0
  4  5  1  0
  5  6  1  0
  6  7  1  0
  7  8  1  0
  8  9  1  0
  9 10  1  0
 10 11  2  0
 11 12  1  0
 12 13  1  0
  7 14  1  0
 14 15  2  0
 14 16  1  0
 16 17  1  0
 17 18  1  0
 18 19  2  0
 19 20  1  0
 20 21  2  0
 21 22  1  0
 22 23  2  0
 23 24  1  0
 24 25  2  0
 13  9  2  0
 25 17  1  0
 25 20  1  0
M  END
