CVD-0001095|dock_bobby27042020.68|mol2|13|dock2
     RDKit          3D

 22 23  0  0  0  0  0  0  0  0999 V2000
    9.0770   -4.3274   26.5362 C   0  0  0  0  0  0  0  0  0  0  0  0
    9.9108   -4.9619   25.1329 S   0  0  0  0  0  0  0  0  0  0  0  0
    9.0155   -5.8389   24.4435 O   0  0  0  0  0  0  0  0  0  0  0  0
   11.1746   -5.4758   25.5623 O   0  0  0  0  0  0  0  0  0  0  0  0
   10.2132   -3.7320   24.1498 N   0  0  0  0  0  0  0  0  0  0  0  0
    9.1029   -2.9743   23.5638 C   0  0  0  0  0  0  0  0  0  0  0  0
    9.5167   -2.1563   22.3333 C   0  0  0  0  0  0  0  0  0  0  0  0
    8.2975   -1.3841   21.8265 C   0  0  0  0  0  0  0  0  0  0  0  0
    7.3567   -1.1278   22.5719 O   0  0  0  0  0  0  0  0  0  0  0  0
    8.3888   -1.0403   20.5180 N   0  0  0  0  0  0  0  0  0  0  0  0
    7.4955   -0.3343   19.6741 C   0  0  0  0  0  0  0  0  0  0  0  0
    6.1647   -0.2175   20.0539 C   0  0  0  0  0  0  0  0  0  0  0  0
    5.2781    0.4683   19.2425 C   0  0  0  0  0  0  0  0  0  0  0  0
    5.7474    1.0191   18.0728 C   0  0  0  0  0  0  0  0  0  0  0  0
    7.0179    0.9247   17.6803 N   0  0  0  0  0  0  0  0  0  0  0  0
    7.8671    0.2603   18.4702 C   0  0  0  0  0  0  0  0  0  0  0  0
   10.6356   -1.1809   22.6630 C   0  0  0  0  0  0  0  0  0  0  0  0
   10.4150   -0.1103   23.5183 C   0  0  0  0  0  0  0  0  0  0  0  0
   11.4337    0.7794   23.8158 C   0  0  0  0  0  0  0  0  0  0  0  0
   12.6845    0.6104   23.2618 C   0  0  0  0  0  0  0  0  0  0  0  0
   12.9176   -0.4477   22.4097 C   0  0  0  0  0  0  0  0  0  0  0  0
   11.8995   -1.3380   22.1116 C   0  0  0  0  0  0  0  0  0  0  0  0
  1  2  1  0
  2  3  2  0
  2  4  2  0
  2  5  1  0
  5  6  1  0
  6  7  1  0
  7  8  1  0
  8  9  2  0
  8 10  1  0
 10 11  1  0
 11 12  2  0
 12 13  1  0
 13 14  2  0
 14 15  1  0
 15 16  2  0
  7 17  1  0
 17 18  2  0
 18 19  1  0
 19 20  2  0
 20 21  1  0
 21 22  2  0
 16 11  1  0
 22 17  1  0
M  END
