CVD-0003873|dock_bobby27042020.86|mol2|28|dock1
     RDKit          3D

 24 26  0  0  0  0  0  0  0  0999 V2000
   13.0663    5.3895   21.5567 N   0  0  0  0  0  0  0  0  0  0  0  0
   13.3582    4.5539   22.8907 S   0  0  0  0  0  0  0  0  0  0  0  0
   12.7658    5.2726   23.9787 O   0  0  0  0  0  0  0  0  0  0  0  0
   14.7647    4.2857   22.9232 O   0  0  0  0  0  0  0  0  0  0  0  0
   12.5270    2.9991   22.7706 C   0  0  0  0  0  0  0  0  0  0  0  0
   13.2583    1.8254   22.7474 C   0  0  0  0  0  0  0  0  0  0  0  0
   12.6011    0.6117   22.6509 C   0  0  0  0  0  0  0  0  0  0  0  0
   11.2123    0.5410   22.5911 C   0  0  0  0  0  0  0  0  0  0  0  0
   10.5003    1.7367   22.6261 C   0  0  0  0  0  0  0  0  0  0  0  0
   11.1460    2.9577   22.7084 C   0  0  0  0  0  0  0  0  0  0  0  0
   10.5617   -0.6852   22.4992 N   0  0  0  0  0  0  0  0  0  0  0  0
    9.6608   -1.0270   21.3943 C   0  0  0  0  0  0  0  0  0  0  0  0
    8.3908   -1.6672   21.8786 C   0  0  0  0  0  0  0  0  0  0  0  0
    8.6890   -2.9090   22.7260 C   0  0  0  0  0  0  0  0  0  0  0  0
    7.4037   -3.5748   23.2249 C   0  0  0  0  0  0  0  0  0  0  0  0
    7.5577   -5.3710   23.3900 S   0  0  0  0  0  0  0  0  0  0  0  0
    8.2431   -5.5936   24.9994 C   0  0  0  0  0  0  0  0  0  0  0  0
    7.3664   -5.5990   26.0768 C   0  0  0  0  0  0  0  0  0  0  0  0
    7.8951   -5.7788   27.3433 C   0  0  0  0  0  0  0  0  0  0  0  0
    9.2542   -5.9461   27.4963 C   0  0  0  0  0  0  0  0  0  0  0  0
   10.0410   -5.9281   26.3671 C   0  0  0  0  0  0  0  0  0  0  0  0
    9.5603   -5.7569   25.1284 N   0  0  0  0  0  0  0  0  0  0  0  0
    9.6131   -2.5164   23.8511 C   0  0  0  0  0  0  0  0  0  0  0  0
   10.8795   -1.8422   23.3679 C   0  0  0  0  0  0  0  0  0  0  0  0
  1  2  1  0
  2  3  2  0
  2  4  2  0
  2  5  1  0
  5  6  2  0
  6  7  1  0
  7  8  2  0
  8  9  1  0
  9 10  2  0
  8 11  1  0
 11 12  1  0
 12 13  1  0
 13 14  1  0
 14 15  1  0
 15 16  1  0
 16 17  1  0
 17 18  2  0
 18 19  1  0
 19 20  2  0
 20 21  1  0
 21 22  2  0
 14 23  1  0
 23 24  1  0
 10  5  1  0
 24 11  1  0
 22 17  1  0
M  END
