CVD-0003173|dock_bobby27042020.46|mol2|10|dock1
     RDKit          3D

 35 39  0  0  0  0  0  0  0  0999 V2000
    7.9079   -1.7458   24.8446 C   0  0  0  0  0  0  0  0  0  0  0  0
    8.5489   -0.3909   24.9255 C   0  0  0  0  0  0  0  0  0  0  0  0
    8.1608    0.4388   25.7402 O   0  0  0  0  0  0  0  0  0  0  0  0
    9.5572   -0.0821   24.0757 N   0  0  0  0  0  0  0  0  0  0  0  0
   10.1941    1.2960   24.1803 C   0  0  0  0  0  0  0  0  0  0  0  0
   11.6291    1.2718   23.6421 C   0  0  0  0  0  0  0  0  0  0  0  0
   11.7963    0.5366   22.3328 C   0  0  0  0  0  0  0  0  0  0  0  0
   11.4466   -0.9093   22.6163 C   0  0  0  0  0  0  0  0  0  0  0  0
    9.9943   -1.1402   23.0579 C   0  0  0  0  0  0  0  0  0  0  0  0
    9.0379   -1.1754   21.8838 C   0  0  0  0  0  0  0  0  0  0  0  0
    8.5666   -0.0005   21.3148 C   0  0  0  0  0  0  0  0  0  0  0  0
    7.6945   -0.0130   20.2393 C   0  0  0  0  0  0  0  0  0  0  0  0
    7.2724   -1.2279   19.7034 C   0  0  0  0  0  0  0  0  0  0  0  0
    6.3770   -1.2977   18.5970 N   0  0  0  0  0  0  0  0  0  0  0  0
    5.7677    0.0124   17.8607 S   0  0  0  0  0  0  0  0  0  0  0  0
    6.8687    0.8003   17.3998 O   0  0  0  0  0  0  0  0  0  0  0  0
    4.7752   -0.4415   16.9364 O   0  0  0  0  0  0  0  0  0  0  0  0
    4.9417    0.9388   19.0858 C   0  0  0  0  0  0  0  0  0  0  0  0
    4.4596    2.2193   18.9660 C   0  0  0  0  0  0  0  0  0  0  0  0
    3.8452    2.6688   20.1319 C   0  0  0  0  0  0  0  0  0  0  0  0
    3.8682    1.7339   21.1033 C   0  0  0  0  0  0  0  0  0  0  0  0
    3.2225    1.8845   22.6850 Cl  0  0  0  0  0  0  0  0  0  0  0  0
    4.6369    0.2741   20.6367 S   0  0  0  0  0  0  0  0  0  0  0  0
    7.7576   -2.3858   20.2883 C   0  0  0  0  0  0  0  0  0  0  0  0
    7.3519   -3.5692   19.7735 F   0  0  0  0  0  0  0  0  0  0  0  0
    8.6203   -2.3855   21.3527 C   0  0  0  0  0  0  0  0  0  0  0  0
   12.1444    2.6718   23.4810 C   0  0  0  0  0  0  0  0  0  0  0  0
   11.9372    3.6036   24.3575 N   0  0  0  0  0  0  0  0  0  0  0  0
   12.5252    4.8021   23.9609 C   0  0  0  0  0  0  0  0  0  0  0  0
   12.5108    6.0183   24.6465 C   0  0  0  0  0  0  0  0  0  0  0  0
   13.1514    7.1225   24.1050 C   0  0  0  0  0  0  0  0  0  0  0  0
   13.8067    7.0410   22.8942 C   0  0  0  0  0  0  0  0  0  0  0  0
   13.8352    5.8468   22.1955 C   0  0  0  0  0  0  0  0  0  0  0  0
   13.1944    4.7349   22.7334 C   0  0  0  0  0  0  0  0  0  0  0  0
   13.0761    3.1303   22.0737 S   0  0  0  0  0  0  0  0  0  0  0  0
  1  2  1  0
  2  3  2  0
  2  4  1  0
  4  5  1  0
  5  6  1  0
  6  7  1  0
  7  8  1  0
  8  9  1  0
  9 10  1  0
 10 11  2  0
 11 12  1  0
 12 13  2  0
 13 14  1  0
 14 15  1  0
 15 16  2  0
 15 17  2  0
 15 18  1  0
 18 19  2  0
 19 20  1  0
 20 21  2  0
 21 22  1  0
 21 23  1  0
 13 24  1  0
 24 25  1  0
 24 26  2  0
  6 27  1  0
 27 28  2  0
 28 29  1  0
 29 30  2  0
 30 31  1  0
 31 32  2  0
 32 33  1  0
 33 34  2  0
 34 35  1  0
  9  4  1  0
 26 10  1  0
 35 27  1  0
 23 18  1  0
 34 29  1  0
M  END
