CVD-0001257|dock_bobby27042020.10|mol2|18|dock1
     RDKit          3D

 24 26  0  0  0  0  0  0  0  0999 V2000
   14.1693    5.7077   21.8431 C   0  0  0  0  0  0  0  0  0  0  0  0
   13.5544    5.0125   23.0172 C   0  0  0  0  0  0  0  0  0  0  0  0
   12.5461    4.0530   22.5989 N   0  0  0  0  0  0  0  0  0  0  0  0
   11.2421    4.3602   22.5067 C   0  0  0  0  0  0  0  0  0  0  0  0
   10.9034    5.6634   22.5486 N   0  0  0  0  0  0  0  0  0  0  0  0
    9.6033    5.9705   22.4585 C   0  0  0  0  0  0  0  0  0  0  0  0
    8.5867    5.0292   22.3284 C   0  0  0  0  0  0  0  0  0  0  0  0
    8.9337    3.6829   22.2865 C   0  0  0  0  0  0  0  0  0  0  0  0
   10.2729    3.3430   22.3705 C   0  0  0  0  0  0  0  0  0  0  0  0
   10.7177    2.0061   22.3361 O   0  0  0  0  0  0  0  0  0  0  0  0
    9.9924    1.0211   21.7620 C   0  0  0  0  0  0  0  0  0  0  0  0
    9.0169    1.1659   20.9428 N   0  0  0  0  0  0  0  0  0  0  0  0
    8.5525   -0.0953   20.5893 C   0  0  0  0  0  0  0  0  0  0  0  0
    9.2134   -1.1275   21.1680 C   0  0  0  0  0  0  0  0  0  0  0  0
   10.4581   -0.5473   22.1895 S   0  0  0  0  0  0  0  0  0  0  0  0
    7.4246   -0.2116   19.6518 C   0  0  0  0  0  0  0  0  0  0  0  0
    6.6263   -1.3499   19.6407 C   0  0  0  0  0  0  0  0  0  0  0  0
    5.5644   -1.4641   18.7611 C   0  0  0  0  0  0  0  0  0  0  0  0
    5.3183   -0.4287   17.9011 C   0  0  0  0  0  0  0  0  0  0  0  0
    4.2754   -0.5363   17.0343 F   0  0  0  0  0  0  0  0  0  0  0  0
    6.0762    0.7102   17.8757 C   0  0  0  0  0  0  0  0  0  0  0  0
    7.1357    0.8146   18.7592 C   0  0  0  0  0  0  0  0  0  0  0  0
    7.2054    5.4339   22.2393 C   0  0  0  0  0  0  0  0  0  0  0  0
    6.1071    5.7332   22.1436 N   0  0  0  0  0  0  0  0  0  0  0  0
  1  2  1  0
  2  3  1  0
  3  4  1  0
  4  5  2  0
  5  6  1  0
  6  7  2  0
  7  8  1  0
  8  9  2  0
  9 10  1  0
 10 11  1  0
 11 12  2  0
 12 13  1  0
 13 14  2  0
 14 15  1  0
 13 16  1  0
 16 17  2  0
 17 18  1  0
 18 19  2  0
 19 20  1  0
 19 21  1  0
 21 22  2  0
  7 23  1  0
 23 24  3  0
  9  4  1  0
 15 11  1  0
 22 16  1  0
M  END
