CVD-0003540|dock_bobby27042020.59|mol2|28|dock2
     RDKit          3D

 21 22  0  0  0  0  0  0  0  0999 V2000
   10.5171   -0.5665   21.1249 O   0  0  0  0  0  0  0  0  0  0  0  0
   11.5429   -0.6915   22.0041 C   0  0  0  0  0  0  0  0  0  0  0  0
   12.6386   -1.4704   21.6555 C   0  0  0  0  0  0  0  0  0  0  0  0
   13.6946   -1.6085   22.5380 C   0  0  0  0  0  0  0  0  0  0  0  0
   13.6596   -0.9744   23.7611 C   0  0  0  0  0  0  0  0  0  0  0  0
   12.5736   -0.1940   24.1247 C   0  0  0  0  0  0  0  0  0  0  0  0
   11.5002   -0.0436   23.2489 C   0  0  0  0  0  0  0  0  0  0  0  0
   10.3962    0.7675   23.6566 N   0  0  0  0  0  0  0  0  0  0  0  0
    9.0489    1.0950   22.8337 S   0  0  0  0  0  0  0  0  0  0  0  0
    9.3896    1.8595   21.6768 O   0  0  0  0  0  0  0  0  0  0  0  0
    8.0540    1.5555   23.7487 O   0  0  0  0  0  0  0  0  0  0  0  0
    8.5237   -0.3333   22.2805 N   0  0  0  0  0  0  0  0  0  0  0  0
    7.3813   -0.3160   21.3559 C   0  0  0  0  0  0  0  0  0  0  0  0
    7.3720   -1.5882   20.5683 C   0  0  0  0  0  0  0  0  0  0  0  0
    7.3576   -2.7399   21.4552 N   0  0  0  0  0  0  0  0  0  0  0  0
    8.4375   -2.7448   22.4470 C   0  0  0  0  0  0  0  0  0  0  0  0
    8.4471   -1.4603   23.2217 C   0  0  0  0  0  0  0  0  0  0  0  0
    6.4272   -3.7056   21.3018 C   0  0  0  0  0  0  0  0  0  0  0  0
    5.5745   -3.6455   20.4249 O   0  0  0  0  0  0  0  0  0  0  0  0
    6.4750   -4.8722   22.2701 C   0  0  0  0  0  0  0  0  0  0  0  0
    5.2294   -6.0719   21.9001 Cl  0  0  0  0  0  0  0  0  0  0  0  0
  1  2  1  0
  2  3  2  0
  3  4  1  0
  4  5  2  0
  5  6  1  0
  6  7  2  0
  7  8  1  0
  8  9  1  0
  9 10  2  0
  9 11  2  0
  9 12  1  0
 12 13  1  0
 13 14  1  0
 14 15  1  0
 15 16  1  0
 16 17  1  0
 15 18  1  0
 18 19  2  0
 18 20  1  0
 20 21  1  0
  7  2  1  0
 17 12  1  0
M  END
