CVD-0002558|dock_bobby27042020.5|mol2|17|dock3
     RDKit          3D

 21 23  0  0  0  0  0  0  0  0999 V2000
   13.7905   -1.9767   22.3843 C   0  0  0  0  0  0  0  0  0  0  0  0
   12.7366   -1.0650   23.0061 C   0  0  0  0  0  0  0  0  0  0  0  0
   12.7474   -1.1723   24.5184 C   0  0  0  0  0  0  0  0  0  0  0  0
   11.6954   -0.2358   25.1034 C   0  0  0  0  0  0  0  0  0  0  0  0
   10.3147   -0.4794   24.5135 C   0  0  0  0  0  0  0  0  0  0  0  0
   10.3452   -0.3889   22.9804 C   0  0  0  0  0  0  0  0  0  0  0  0
   11.3595   -1.4081   22.4345 C   0  0  0  0  0  0  0  0  0  0  0  0
    8.9637   -0.5073   22.3368 C   0  0  0  0  0  0  0  0  0  0  0  0
    8.9849   -0.2557   20.8534 C   0  0  0  0  0  0  0  0  0  0  0  0
    7.6305    0.0866   20.2898 C   0  0  0  0  0  0  0  0  0  0  0  0
    7.4385    0.2024   18.9034 C   0  0  0  0  0  0  0  0  0  0  0  0
    8.4542    0.0068   18.0072 O   0  0  0  0  0  0  0  0  0  0  0  0
    6.1750    0.4797   18.3859 C   0  0  0  0  0  0  0  0  0  0  0  0
    6.0118    0.5589   17.0399 O   0  0  0  0  0  0  0  0  0  0  0  0
    5.0943    0.6438   19.2383 C   0  0  0  0  0  0  0  0  0  0  0  0
    5.2850    0.5293   20.6029 C   0  0  0  0  0  0  0  0  0  0  0  0
    6.5457    0.2514   21.1414 C   0  0  0  0  0  0  0  0  0  0  0  0
    6.7414    0.2386   22.6426 C   0  0  0  0  0  0  0  0  0  0  0  0
    5.9206    1.3008   23.3658 C   0  0  0  0  0  0  0  0  0  0  0  0
    5.8332    2.6005   22.6643 N   0  0  0  0  0  0  0  0  0  0  0  0
    8.1132    0.4473   22.9891 O   0  0  0  0  0  0  0  0  0  0  0  0
  1  2  1  0
  2  3  1  0
  3  4  1  0
  4  5  1  0
  5  6  1  0
  6  7  1  0
  6  8  1  0
  8  9  1  0
  9 10  1  0
 10 11  2  0
 11 12  1  0
 11 13  1  0
 13 14  1  0
 13 15  2  0
 15 16  1  0
 16 17  2  0
 17 18  1  0
 18 19  1  0
 19 20  1  0
 18 21  1  0
  7  2  1  0
 21  8  1  0
 17 10  1  0
M  END
