CVD-0000099|dock_bobby27042020.57|mol2|17|dock3
     RDKit          3D

 26 27  0  0  0  0  0  0  0  0999 V2000
   14.0924    5.4941   21.8672 C   0  0  0  0  0  0  0  0  0  0  0  0
   12.9048    4.6041   21.8091 C   0  0  0  0  0  0  0  0  0  0  0  0
   13.3405    3.2240   21.9377 O   0  0  0  0  0  0  0  0  0  0  0  0
   12.3812    2.2867   22.1474 C   0  0  0  0  0  0  0  0  0  0  0  0
   12.7263    0.9900   22.2823 C   0  0  0  0  0  0  0  0  0  0  0  0
   11.8880   -0.1163   22.5025 N   0  0  0  0  0  0  0  0  0  0  0  0
   11.2722   -0.4587   23.6829 C   0  0  0  0  0  0  0  0  0  0  0  0
   11.4214    0.1377   24.7412 O   0  0  0  0  0  0  0  0  0  0  0  0
   10.4345   -1.5370   23.6845 N   0  0  0  0  0  0  0  0  0  0  0  0
   10.4425   -2.5489   22.6251 C   0  0  0  0  0  0  0  0  0  0  0  0
    9.7565   -2.1536   21.4206 N   0  0  0  0  0  0  0  0  0  0  0  0
    8.4265   -2.1641   21.3320 C   0  0  0  0  0  0  0  0  0  0  0  0
    7.7123   -2.5174   22.2662 O   0  0  0  0  0  0  0  0  0  0  0  0
    7.8567   -1.7054   20.0048 C   0  0  0  0  0  0  0  0  0  0  0  0
    7.6147   -0.2140   20.0206 C   0  0  0  0  0  0  0  0  0  0  0  0
    6.9564    0.2480   18.7247 C   0  0  0  0  0  0  0  0  0  0  0  0
    5.6788   -0.5045   18.4578 C   0  0  0  0  0  0  0  0  0  0  0  0
    5.9098   -1.9971   18.4614 C   0  0  0  0  0  0  0  0  0  0  0  0
    6.5710   -2.4641   19.7512 C   0  0  0  0  0  0  0  0  0  0  0  0
    9.4386   -1.8036   24.7102 C   0  0  0  0  0  0  0  0  0  0  0  0
    9.6037   -3.1551   25.3298 C   0  0  0  0  0  0  0  0  0  0  0  0
    8.6301   -3.9467   25.9474 C   0  0  0  0  0  0  0  0  0  0  0  0
    9.2660   -5.0573   26.3374 C   0  0  0  0  0  0  0  0  0  0  0  0
    8.8520   -6.3060   27.0447 C   0  0  0  0  0  0  0  0  0  0  0  0
   10.5644   -4.9768   25.9891 O   0  0  0  0  0  0  0  0  0  0  0  0
   10.7666   -3.7359   25.3361 N   0  0  0  0  0  0  0  0  0  0  0  0
  1  2  1  0
  2  3  1  0
  3  4  1  0
  4  5  2  0
  5  6  1  0
  6  7  1  0
  7  8  2  0
  7  9  1  0
  9 10  1  0
 10 11  1  0
 11 12  1  0
 12 13  2  0
 12 14  1  0
 14 15  1  0
 15 16  1  0
 16 17  1  0
 17 18  1  0
 18 19  1  0
  9 20  1  0
 20 21  1  0
 21 22  1  0
 22 23  2  0
 23 24  1  0
 23 25  1  0
 25 26  1  0
 19 14  1  0
 26 21  2  0
M  END
