CVD-0000472|dock_bobby27042020.98|mol2|25|dock3
     RDKit          3D

 27 30  0  0  0  0  0  0  0  0999 V2000
    6.0734   -1.5976   22.1079 O   0  0  0  0  0  0  0  0  0  0  0  0
    6.3920   -0.4547   22.4119 C   0  0  0  0  0  0  0  0  0  0  0  0
    7.6235   -0.2104   22.9086 N   0  0  0  0  0  0  0  0  0  0  0  0
    8.1343    1.0993   23.3093 C   0  0  0  0  0  0  0  0  0  0  0  0
    9.4515    1.3821   22.6192 C   0  0  0  0  0  0  0  0  0  0  0  0
   10.3950    0.2952   22.8721 N   0  0  0  0  0  0  0  0  0  0  0  0
    9.8842   -1.0145   22.4714 C   0  0  0  0  0  0  0  0  0  0  0  0
    8.5669   -1.2972   23.1615 C   0  0  0  0  0  0  0  0  0  0  0  0
   11.6299    0.5401   23.3702 C   0  0  0  0  0  0  0  0  0  0  0  0
   11.9742    1.6935   23.5637 O   0  0  0  0  0  0  0  0  0  0  0  0
   12.6412   -0.5159   23.7301 C   0  0  0  0  0  0  0  0  0  0  0  0
   13.1088   -0.5278   25.0417 C   0  0  0  0  0  0  0  0  0  0  0  0
   14.0200   -1.4772   25.4721 C   0  0  0  0  0  0  0  0  0  0  0  0
   14.4865   -2.4352   24.6005 C   0  0  0  0  0  0  0  0  0  0  0  0
   14.0540   -2.4305   23.2932 C   0  0  0  0  0  0  0  0  0  0  0  0
   13.1545   -1.4732   22.8535 C   0  0  0  0  0  0  0  0  0  0  0  0
    5.3463    0.6546   22.1966 C   0  0  0  0  0  0  0  0  0  0  0  0
    4.7853    1.1568   23.1657 O   0  0  0  0  0  0  0  0  0  0  0  0
    5.0161    1.1260   20.8693 C   0  0  0  0  0  0  0  0  0  0  0  0
    3.9221    1.8343   20.4148 C   0  0  0  0  0  0  0  0  0  0  0  0
    4.0292    2.0678   19.0716 N   0  0  0  0  0  0  0  0  0  0  0  0
    5.1982    1.5224   18.6000 C   0  0  0  0  0  0  0  0  0  0  0  0
    5.7961    1.4637   17.3483 C   0  0  0  0  0  0  0  0  0  0  0  0
    6.9701    0.8615   17.1340 N   0  0  0  0  0  0  0  0  0  0  0  0
    7.5790    0.2988   18.1790 C   0  0  0  0  0  0  0  0  0  0  0  0
    7.0714    0.2999   19.4631 C   0  0  0  0  0  0  0  0  0  0  0  0
    5.8478    0.9239   19.6976 C   0  0  0  0  0  0  0  0  0  0  0  0
  1  2  2  0
  2  3  1  0
  3  4  1  0
  4  5  1  0
  5  6  1  0
  6  7  1  0
  7  8  1  0
  6  9  1  0
  9 10  2  0
  9 11  1  0
 11 12  2  0
 12 13  1  0
 13 14  2  0
 14 15  1  0
 15 16  2  0
  2 17  1  0
 17 18  2  0
 17 19  1  0
 19 20  2  0
 20 21  1  0
 21 22  1  0
 22 23  2  0
 23 24  1  0
 24 25  2  0
 25 26  1  0
 26 27  2  0
  8  3  1  0
 16 11  1  0
 27 19  1  0
 27 22  1  0
M  END
