CVD-0002902|dock_bobby27042020.4|mol2|10|dock1
     RDKit          3D

 19 21  0  0  0  0  0  0  0  0999 V2000
   14.4980   -2.1304   25.0489 N   0  0  0  0  0  0  0  0  0  0  0  0
   13.7433   -1.5074   23.9557 C   0  0  0  0  0  0  0  0  0  0  0  0
   13.0515   -2.5302   23.0569 C   0  0  0  0  0  0  0  0  0  0  0  0
   12.1900   -1.8755   21.9961 C   0  0  0  0  0  0  0  0  0  0  0  0
   11.2472   -0.9304   22.6028 N   0  0  0  0  0  0  0  0  0  0  0  0
   11.9068    0.1223   23.3667 C   0  0  0  0  0  0  0  0  0  0  0  0
   12.7237   -0.5025   24.4761 C   0  0  0  0  0  0  0  0  0  0  0  0
    9.9110   -0.9241   22.4174 C   0  0  0  0  0  0  0  0  0  0  0  0
    9.1887   -0.1003   22.9646 O   0  0  0  0  0  0  0  0  0  0  0  0
    9.3213   -1.9867   21.5070 C   0  0  0  0  0  0  0  0  0  0  0  0
    7.8313   -1.9001   21.3625 C   0  0  0  0  0  0  0  0  0  0  0  0
    6.8926   -2.5695   22.0915 C   0  0  0  0  0  0  0  0  0  0  0  0
    5.6312   -2.2359   21.6751 N   0  0  0  0  0  0  0  0  0  0  0  0
    5.7342   -1.3338   20.6573 C   0  0  0  0  0  0  0  0  0  0  0  0
    4.7306   -0.7576   19.9742 N   0  0  0  0  0  0  0  0  0  0  0  0
    5.0870    0.1034   19.0110 C   0  0  0  0  0  0  0  0  0  0  0  0
    6.3944    0.4122   18.7019 C   0  0  0  0  0  0  0  0  0  0  0  0
    7.4172   -0.1913   19.4164 C   0  0  0  0  0  0  0  0  0  0  0  0
    7.0997   -1.0945   20.4287 C   0  0  0  0  0  0  0  0  0  0  0  0
  1  2  1  0
  2  3  1  0
  3  4  1  0
  4  5  1  0
  5  6  1  0
  6  7  1  0
  5  8  1  0
  8  9  2  0
  8 10  1  0
 10 11  1  0
 11 12  2  0
 12 13  1  0
 13 14  1  0
 14 15  2  0
 15 16  1  0
 16 17  2  0
 17 18  1  0
 18 19  2  0
  7  2  1  0
 19 11  1  0
 19 14  1  0
M  END
