CVD-0001381|dock_bobby27042020.67|mol2|20|dock1
     RDKit          3D

 18 19  0  0  0  0  0  0  0  0999 V2000
   14.1709   -0.8004   24.4992 O   0  0  0  0  0  0  0  0  0  0  0  0
   12.8083   -0.8577   24.0936 C   0  0  0  0  0  0  0  0  0  0  0  0
   12.6710   -1.9882   23.0455 C   0  0  0  0  0  0  0  0  0  0  0  0
   13.5487   -1.6920   21.8288 C   0  0  0  0  0  0  0  0  0  0  0  0
   13.4496   -2.6094   20.9001 O   0  0  0  0  0  0  0  0  0  0  0  0
   14.2568   -0.7130   21.7420 O   0  0  0  0  0  0  0  0  0  0  0  0
   11.2762   -2.1522   22.6330 N   0  0  0  0  0  0  0  0  0  0  0  0
   10.3169   -2.8462   23.3284 C   0  0  0  0  0  0  0  0  0  0  0  0
    9.1435   -2.7564   22.6362 C   0  0  0  0  0  0  0  0  0  0  0  0
    9.3875   -1.9778   21.4855 C   0  0  0  0  0  0  0  0  0  0  0  0
   10.7032   -1.6136   21.5069 C   0  0  0  0  0  0  0  0  0  0  0  0
   12.3548    0.4723   23.5290 C   0  0  0  0  0  0  0  0  0  0  0  0
   11.0059    0.7703   23.4006 C   0  0  0  0  0  0  0  0  0  0  0  0
   10.5991    1.9898   22.8863 C   0  0  0  0  0  0  0  0  0  0  0  0
   11.5389    2.9281   22.4942 C   0  0  0  0  0  0  0  0  0  0  0  0
   12.8878    2.6361   22.6215 C   0  0  0  0  0  0  0  0  0  0  0  0
   13.8216    3.5542   22.2385 O   0  0  0  0  0  0  0  0  0  0  0  0
   13.2947    1.4138   23.1370 C   0  0  0  0  0  0  0  0  0  0  0  0
  1  2  1  0
  2  3  1  0
  3  4  1  0
  4  5  1  0
  4  6  2  0
  3  7  1  0
  7  8  1  0
  8  9  2  0
  9 10  1  0
 10 11  2  0
  2 12  1  0
 12 13  2  0
 13 14  1  0
 14 15  2  0
 15 16  1  0
 16 17  1  0
 16 18  2  0
 11  7  1  0
 18 12  1  0
M  END
