CVD-0000513|dock_bobby27042020.12|mol2|40|dock2
     RDKit          3D

 19 21  0  0  0  0  0  0  0  0999 V2000
   13.3514   -1.8447   20.6311 O   0  0  0  0  0  0  0  0  0  0  0  0
   12.7228   -1.5420   21.8647 C   0  0  0  0  0  0  0  0  0  0  0  0
   12.5630   -0.0553   22.0824 C   0  0  0  0  0  0  0  0  0  0  0  0
   13.5613    0.6254   22.7725 C   0  0  0  0  0  0  0  0  0  0  0  0
   13.4281    1.9783   22.9926 C   0  0  0  0  0  0  0  0  0  0  0  0
   12.3820    2.6858   22.5756 N   0  0  0  0  0  0  0  0  0  0  0  0
   11.4223    2.0411   21.9053 C   0  0  0  0  0  0  0  0  0  0  0  0
   11.4499    0.6749   21.6252 C   0  0  0  0  0  0  0  0  0  0  0  0
   10.4284   -0.0126   20.9109 N   0  0  0  0  0  0  0  0  0  0  0  0
    9.0872    0.1862   20.8841 C   0  0  0  0  0  0  0  0  0  0  0  0
    8.4742    1.0458   21.5078 O   0  0  0  0  0  0  0  0  0  0  0  0
    8.3572   -0.7856   19.9812 C   0  0  0  0  0  0  0  0  0  0  0  0
    6.8820   -0.4590   19.6619 C   0  0  0  0  0  0  0  0  0  0  0  0
    6.0799   -1.2581   18.6121 C   0  0  0  0  0  0  0  0  0  0  0  0
    5.1922   -0.1645   17.9914 C   0  0  0  0  0  0  0  0  0  0  0  0
    5.5888    1.1121   18.7404 C   0  0  0  0  0  0  0  0  0  0  0  0
    5.0299    0.9749   20.1661 C   0  0  0  0  0  0  0  0  0  0  0  0
    5.9164   -0.1022   20.8116 C   0  0  0  0  0  0  0  0  0  0  0  0
    7.0758    0.8651   18.9809 C   0  0  0  0  0  0  0  0  0  0  0  0
  1  2  1  0
  2  3  1  0
  3  4  2  0
  4  5  1  0
  5  6  2  0
  6  7  1  0
  7  8  2  0
  8  9  1  0
  9 10  1  0
 10 11  2  0
 10 12  1  0
 12 13  1  0
 13 14  1  0
 14 15  1  0
 15 16  1  0
 16 17  1  0
 17 18  1  0
 16 19  1  0
  8  3  1  0
 18 13  1  0
 19 13  1  0
M  END
