CVD-0001029|dock_bobby27042020.25|mol2|19|dock1
     RDKit          3D

 37 41  0  0  0  0  0  0  0  0999 V2000
    2.8244   -8.0806   32.3933 C   0  0  0  0  0  0  0  0  0  0  0  0
    2.9189   -6.8334   31.7079 O   0  0  0  0  0  0  0  0  0  0  0  0
    3.9529   -6.5998   30.8359 C   0  0  0  0  0  0  0  0  0  0  0  0
    4.3666   -5.2924   30.6459 C   0  0  0  0  0  0  0  0  0  0  0  0
    5.4050   -5.0117   29.7763 C   0  0  0  0  0  0  0  0  0  0  0  0
    6.0458   -6.0311   29.0835 C   0  0  0  0  0  0  0  0  0  0  0  0
    5.6220   -7.3394   29.2823 C   0  0  0  0  0  0  0  0  0  0  0  0
    4.5839   -7.6285   30.1505 C   0  0  0  0  0  0  0  0  0  0  0  0
    7.1502   -5.7318   28.1586 C   0  0  0  0  0  0  0  0  0  0  0  0
    8.0152   -6.5739   27.6733 N   0  0  0  0  0  0  0  0  0  0  0  0
    8.8321   -5.7907   26.8645 C   0  0  0  0  0  0  0  0  0  0  0  0
    9.9368   -6.0981   26.0742 C   0  0  0  0  0  0  0  0  0  0  0  0
   10.5651   -5.0878   25.3614 C   0  0  0  0  0  0  0  0  0  0  0  0
   10.1103   -3.7677   25.4218 C   0  0  0  0  0  0  0  0  0  0  0  0
   10.7199   -2.7032   24.7114 N   0  0  0  0  0  0  0  0  0  0  0  0
   10.6975   -1.3621   24.9116 C   0  0  0  0  0  0  0  0  0  0  0  0
   10.0998   -0.7817   25.8130 O   0  0  0  0  0  0  0  0  0  0  0  0
   11.5062   -0.5907   23.8896 C   0  0  0  0  0  0  0  0  0  0  0  0
   10.6761   -0.3005   22.6453 C   0  0  0  0  0  0  0  0  0  0  0  0
   11.4797    0.5045   21.6449 C   0  0  0  0  0  0  0  0  0  0  0  0
   11.9416    1.7461   22.2599 N   0  0  0  0  0  0  0  0  0  0  0  0
   12.7868    1.5169   23.4267 C   0  0  0  0  0  0  0  0  0  0  0  0
   12.0199    0.7215   24.4780 C   0  0  0  0  0  0  0  0  0  0  0  0
   11.8740    2.9772   21.7008 C   0  0  0  0  0  0  0  0  0  0  0  0
   11.4189    3.0918   20.5757 O   0  0  0  0  0  0  0  0  0  0  0  0
   12.3107    4.2558   22.3653 C   0  0  0  0  0  0  0  0  0  0  0  0
   13.1720    5.0833   21.6491 C   0  0  0  0  0  0  0  0  0  0  0  0
   13.6119    6.2898   22.1632 C   0  0  0  0  0  0  0  0  0  0  0  0
   13.1950    6.6934   23.4194 C   0  0  0  0  0  0  0  0  0  0  0  0
   12.3547    5.8807   24.1604 C   0  0  0  0  0  0  0  0  0  0  0  0
   11.9314    4.6687   23.6438 C   0  0  0  0  0  0  0  0  0  0  0  0
   13.6444    7.9805   23.9657 N   0  0  0  0  0  0  0  0  0  0  0  0
   14.2092    8.7639   23.2051 O   0  0  0  0  0  0  0  0  0  0  0  0
   13.4338    8.2050   25.1455 O   0  0  0  0  0  0  0  0  0  0  0  0
    9.0051   -3.4657   26.2136 C   0  0  0  0  0  0  0  0  0  0  0  0
    8.3980   -4.4898   26.9129 C   0  0  0  0  0  0  0  0  0  0  0  0
    7.3028   -4.4284   27.7505 O   0  0  0  0  0  0  0  0  0  0  0  0
  1  2  1  0
  2  3  1  0
  3  4  2  0
  4  5  1  0
  5  6  2  0
  6  7  1  0
  7  8  2  0
  6  9  1  0
  9 10  2  0
 10 11  1  0
 11 12  2  0
 12 13  1  0
 13 14  2  0
 14 15  1  0
 15 16  1  0
 16 17  2  0
 16 18  1  0
 18 19  1  0
 19 20  1  0
 20 21  1  0
 21 22  1  0
 22 23  1  0
 21 24  1  0
 24 25  2  0
 24 26  1  0
 26 27  2  0
 27 28  1  0
 28 29  2  0
 29 30  1  0
 30 31  2  0
 29 32  1  0
 32 33  1  0
 32 34  2  0
 14 35  1  0
 35 36  2  0
 36 37  1  0
  8  3  1  0
 37  9  1  0
 36 11  1  0
 23 18  1  0
 31 26  1  0
M  CHG  2  32   1  33  -1
M  END
