CVD-0003536|dock_bobby27042020.45|mol2|6|dock3
     RDKit          3D

 21 23  0  0  0  0  0  0  0  0999 V2000
    6.6700   -0.4604   19.0453 C   0  0  0  0  0  0  0  0  0  0  0  0
    6.4619    0.6555   19.9729 N   0  0  0  0  0  0  0  0  0  0  0  0
    5.1545    1.2363   20.0292 C   0  0  0  0  0  0  0  0  0  0  0  0
    4.6285    1.8897   18.9224 C   0  0  0  0  0  0  0  0  0  0  0  0
    3.3664    2.4523   18.9930 C   0  0  0  0  0  0  0  0  0  0  0  0
    2.6649    2.3467   20.1709 C   0  0  0  0  0  0  0  0  0  0  0  0
    3.1413    1.7211   21.2469 N   0  0  0  0  0  0  0  0  0  0  0  0
    4.3562    1.1698   21.1616 C   0  0  0  0  0  0  0  0  0  0  0  0
    7.5641    1.0569   20.7532 C   0  0  0  0  0  0  0  0  0  0  0  0
    7.6467    2.2723   21.4253 C   0  0  0  0  0  0  0  0  0  0  0  0
    8.7994    2.4823   22.1555 C   0  0  0  0  0  0  0  0  0  0  0  0
    9.8075    1.6060   22.2327 N   0  0  0  0  0  0  0  0  0  0  0  0
    9.6398    0.4770   21.5312 C   0  0  0  0  0  0  0  0  0  0  0  0
   10.6290   -0.4652   21.5455 N   0  0  0  0  0  0  0  0  0  0  0  0
   11.6129   -0.8618   22.4769 C   0  0  0  0  0  0  0  0  0  0  0  0
   12.6861   -1.6995   22.1766 C   0  0  0  0  0  0  0  0  0  0  0  0
   13.6044   -2.0352   23.1579 C   0  0  0  0  0  0  0  0  0  0  0  0
   13.4712   -1.5482   24.4394 C   0  0  0  0  0  0  0  0  0  0  0  0
   12.4152   -0.7201   24.7470 C   0  0  0  0  0  0  0  0  0  0  0  0
   11.4910   -0.3776   23.7747 C   0  0  0  0  0  0  0  0  0  0  0  0
    8.5618    0.1696   20.7923 N   0  0  0  0  0  0  0  0  0  0  0  0
  1  2  1  0
  2  3  1  0
  3  4  2  0
  4  5  1  0
  5  6  2  0
  6  7  1  0
  7  8  2  0
  2  9  1  0
  9 10  2  0
 10 11  1  0
 11 12  2  0
 12 13  1  0
 13 14  1  0
 14 15  1  0
 15 16  2  0
 16 17  1  0
 17 18  2  0
 18 19  1  0
 19 20  2  0
 13 21  2  0
  8  3  1  0
 21  9  1  0
 20 15  1  0
M  END
