CVD-0001715|dock_bobby27042020.94|mol2|24|dock3
     RDKit          3D

 20 22  0  0  0  0  0  0  0  0999 V2000
   14.0151    5.6916   21.7236 C   0  0  0  0  0  0  0  0  0  0  0  0
   13.0587    4.6145   21.9837 C   0  0  0  0  0  0  0  0  0  0  0  0
   12.2869    3.7432   22.2206 C   0  0  0  0  0  0  0  0  0  0  0  0
   11.3860    2.6081   22.3157 C   0  0  0  0  0  0  0  0  0  0  0  0
   10.2124    2.7237   21.9668 O   0  0  0  0  0  0  0  0  0  0  0  0
   11.8639    1.4432   22.7907 N   0  0  0  0  0  0  0  0  0  0  0  0
   13.2525    1.2113   23.2117 C   0  0  0  0  0  0  0  0  0  0  0  0
   13.7513   -0.1080   22.6585 C   0  0  0  0  0  0  0  0  0  0  0  0
   12.8378   -1.2483   23.0893 C   0  0  0  0  0  0  0  0  0  0  0  0
   11.4103   -0.9483   22.6695 C   0  0  0  0  0  0  0  0  0  0  0  0
   10.9300    0.3918   23.2048 C   0  0  0  0  0  0  0  0  0  0  0  0
   10.4678   -2.0286   23.1123 C   0  0  0  0  0  0  0  0  0  0  0  0
   10.5525   -2.6064   24.2691 N   0  0  0  0  0  0  0  0  0  0  0  0
    9.5541   -3.5651   24.4229 C   0  0  0  0  0  0  0  0  0  0  0  0
    9.3335   -4.3856   25.5308 C   0  0  0  0  0  0  0  0  0  0  0  0
    8.2856   -5.2936   25.5183 C   0  0  0  0  0  0  0  0  0  0  0  0
    7.4520   -5.4018   24.4249 C   0  0  0  0  0  0  0  0  0  0  0  0
    7.6499   -4.5996   23.3149 C   0  0  0  0  0  0  0  0  0  0  0  0
    8.6998   -3.6863   23.3209 C   0  0  0  0  0  0  0  0  0  0  0  0
    9.1687   -2.5691   22.0735 S   0  0  0  0  0  0  0  0  0  0  0  0
  1  2  1  0
  2  3  3  0
  3  4  1  0
  4  5  2  0
  4  6  1  0
  6  7  1  0
  7  8  1  0
  8  9  1  0
  9 10  1  0
 10 11  1  0
 10 12  1  0
 12 13  2  0
 13 14  1  0
 14 15  2  0
 15 16  1  0
 16 17  2  0
 17 18  1  0
 18 19  2  0
 19 20  1  0
 11  6  1  0
 20 12  1  0
 19 14  1  0
M  END
