CVD-0003025|dock_bobby27042020.61|mol2|14|dock2
     RDKit          3D

 25 27  0  0  0  0  0  0  0  0999 V2000
    5.0654    1.5015   18.5874 C   0  0  0  0  0  0  0  0  0  0  0  0
    5.4310    0.0907   18.2307 C   0  0  0  0  0  0  0  0  0  0  0  0
    5.8452   -0.2106   17.1155 O   0  0  0  0  0  0  0  0  0  0  0  0
    5.2640   -0.8203   19.1914 N   0  0  0  0  0  0  0  0  0  0  0  0
    5.5576   -2.2325   18.9936 C   0  0  0  0  0  0  0  0  0  0  0  0
    6.2030   -2.8526   20.2169 C   0  0  0  0  0  0  0  0  0  0  0  0
    7.5814   -2.3232   20.4846 C   0  0  0  0  0  0  0  0  0  0  0  0
    8.2502   -1.3628   19.7836 C   0  0  0  0  0  0  0  0  0  0  0  0
    9.4866   -1.1465   20.3288 N   0  0  0  0  0  0  0  0  0  0  0  0
    9.6381   -1.9792   21.4100 C   0  0  0  0  0  0  0  0  0  0  0  0
   10.7246   -2.1193   22.2783 C   0  0  0  0  0  0  0  0  0  0  0  0
   11.9821   -1.2959   22.1264 C   0  0  0  0  0  0  0  0  0  0  0  0
   11.9559   -0.0448   22.8986 N   0  0  0  0  0  0  0  0  0  0  0  0
   10.9321    0.8620   22.3710 C   0  0  0  0  0  0  0  0  0  0  0  0
   10.8812    2.1340   23.1968 C   0  0  0  0  0  0  0  0  0  0  0  0
   12.1885    2.7942   23.2004 N   0  0  0  0  0  0  0  0  0  0  0  0
   13.2461    1.8924   23.6673 C   0  0  0  0  0  0  0  0  0  0  0  0
   13.2557    0.6190   22.8413 C   0  0  0  0  0  0  0  0  0  0  0  0
   12.3589    4.0892   22.8388 C   0  0  0  0  0  0  0  0  0  0  0  0
   13.7457    4.6589   22.8978 C   0  0  0  0  0  0  0  0  0  0  0  0
   11.4036    4.7714   22.4855 O   0  0  0  0  0  0  0  0  0  0  0  0
   10.6026   -3.0524   23.3043 C   0  0  0  0  0  0  0  0  0  0  0  0
    9.4507   -3.8107   23.4538 C   0  0  0  0  0  0  0  0  0  0  0  0
    8.3818   -3.6603   22.5829 C   0  0  0  0  0  0  0  0  0  0  0  0
    8.4598   -2.7364   21.5417 C   0  0  0  0  0  0  0  0  0  0  0  0
  1  2  1  0
  2  3  2  0
  2  4  1  0
  4  5  1  0
  5  6  1  0
  6  7  1  0
  7  8  2  0
  8  9  1  0
  9 10  1  0
 10 11  2  0
 11 12  1  0
 12 13  1  0
 13 14  1  0
 14 15  1  0
 15 16  1  0
 16 17  1  0
 17 18  1  0
 16 19  1  0
 19 20  1  0
 19 21  2  0
 11 22  1  0
 22 23  2  0
 23 24  1  0
 24 25  2  0
 25  7  1  0
 25 10  1  0
 18 13  1  0
M  END
