CVD-0003673|dock_bobby27042020.1|mol2|19|dock3
     RDKit          3D

 14 14  0  0  0  0  0  0  0  0999 V2000
    7.3557   -0.8696   20.3154 C   0  0  0  0  0  0  0  0  0  0  0  0
    8.7377   -0.8529   20.7586 N   0  0  0  0  0  0  0  0  0  0  0  0
    9.0932   -0.3796   21.9452 C   0  0  0  0  0  0  0  0  0  0  0  0
    8.2705    0.0720   22.7370 O   0  0  0  0  0  0  0  0  0  0  0  0
   10.5738   -0.4235   22.2642 C   0  0  0  0  0  0  0  0  0  0  0  0
   11.0133   -1.8397   22.6148 C   0  0  0  0  0  0  0  0  0  0  0  0
   12.4857   -1.8678   22.9700 C   0  0  0  0  0  0  0  0  0  0  0  0
   12.7486   -0.9549   24.0792 N   0  0  0  0  0  0  0  0  0  0  0  0
   12.3927    0.4257   23.7697 C   0  0  0  0  0  0  0  0  0  0  0  0
   10.9112    0.5164   23.4195 C   0  0  0  0  0  0  0  0  0  0  0  0
   13.4957   -1.2355   25.1732 C   0  0  0  0  0  0  0  0  0  0  0  0
   13.6531   -0.4120   26.0659 O   0  0  0  0  0  0  0  0  0  0  0  0
   14.1358   -2.6024   25.2834 C   0  0  0  0  0  0  0  0  0  0  0  0
   13.1378   -3.5489   25.4180 F   0  0  0  0  0  0  0  0  0  0  0  0
  1  2  1  0
  2  3  1  0
  3  4  2  0
  3  5  1  0
  5  6  1  0
  6  7  1  0
  7  8  1  0
  8  9  1  0
  9 10  1  0
  8 11  1  0
 11 12  2  0
 11 13  1  0
 13 14  1  0
 10  5  1  0
M  END
