CVD-0001788|dock_bobby27042020.51|mol2|22|dock2
     RDKit          3D

 32 35  0  0  0  0  0  0  0  0999 V2000
    9.3551   -6.3103   26.8581 C   0  0  0  0  0  0  0  0  0  0  0  0
    9.2752   -4.8111   26.8406 C   0  0  0  0  0  0  0  0  0  0  0  0
   10.0796   -4.1458   27.4834 O   0  0  0  0  0  0  0  0  0  0  0  0
    8.3021   -4.1904   26.1210 N   0  0  0  0  0  0  0  0  0  0  0  0
    8.1763   -2.7405   26.1016 C   0  0  0  0  0  0  0  0  0  0  0  0
    8.9437   -2.0275   25.0022 C   0  0  0  0  0  0  0  0  0  0  0  0
    8.5313   -2.4177   23.6245 N   0  0  0  0  0  0  0  0  0  0  0  0
    9.5813   -2.2159   22.6106 C   0  0  0  0  0  0  0  0  0  0  0  0
   10.4810   -1.0010   22.7362 C   0  0  0  0  0  0  0  0  0  0  0  0
   11.8270   -1.0993   23.0885 C   0  0  0  0  0  0  0  0  0  0  0  0
   12.6173    0.0040   23.1872 C   0  0  0  0  0  0  0  0  0  0  0  0
   12.1007    1.2933   22.9285 C   0  0  0  0  0  0  0  0  0  0  0  0
   12.9388    2.3713   23.0362 N   0  0  0  0  0  0  0  0  0  0  0  0
   12.4305    3.5540   22.7874 C   0  0  0  0  0  0  0  0  0  0  0  0
   11.1292    3.8100   22.4218 C   0  0  0  0  0  0  0  0  0  0  0  0
   10.2819    2.7498   22.3099 C   0  0  0  0  0  0  0  0  0  0  0  0
   10.7364    1.4305   22.5667 C   0  0  0  0  0  0  0  0  0  0  0  0
    9.9291    0.2596   22.4861 C   0  0  0  0  0  0  0  0  0  0  0  0
    8.4636    0.3616   22.1350 C   0  0  0  0  0  0  0  0  0  0  0  0
   13.5650    4.9325   22.9371 S   0  0  0  0  0  0  0  0  0  0  0  0
   13.6669    5.6167   21.4933 N   0  0  0  0  0  0  0  0  0  0  0  0
   12.9718    5.8884   23.8233 O   0  0  0  0  0  0  0  0  0  0  0  0
   14.8567    4.3995   23.2508 O   0  0  0  0  0  0  0  0  0  0  0  0
    7.8360   -3.6553   23.1548 C   0  0  0  0  0  0  0  0  0  0  0  0
    6.8032   -4.1554   24.1509 C   0  0  0  0  0  0  0  0  0  0  0  0
    7.3086   -4.9333   25.3502 C   0  0  0  0  0  0  0  0  0  0  0  0
    5.8268   -5.0554   23.4195 C   0  0  0  0  0  0  0  0  0  0  0  0
    4.4672   -4.7817   23.4223 C   0  0  0  0  0  0  0  0  0  0  0  0
    3.5909   -5.6128   22.7464 C   0  0  0  0  0  0  0  0  0  0  0  0
    4.1026   -6.7030   22.0804 C   0  0  0  0  0  0  0  0  0  0  0  0
    5.4032   -6.9965   22.0550 N   0  0  0  0  0  0  0  0  0  0  0  0
    6.2288   -6.1788   22.7149 C   0  0  0  0  0  0  0  0  0  0  0  0
  1  2  1  0
  2  3  2  0
  2  4  1  0
  4  5  1  0
  5  6  1  0
  6  7  1  0
  7  8  1  0
  8  9  1  0
  9 10  2  0
 10 11  1  0
 11 12  2  0
 12 13  1  0
 13 14  2  0
 14 15  1  0
 15 16  2  0
 16 17  1  0
 17 18  2  0
 18 19  1  0
 14 20  1  0
 20 21  1  0
 20 22  2  0
 20 23  2  0
  7 24  1  0
 24 25  1  0
 25 26  1  0
 25 27  1  0
 27 28  2  0
 28 29  1  0
 29 30  2  0
 30 31  1  0
 31 32  2  0
 26  4  1  0
 32 27  1  0
 18  9  1  0
 17 12  1  0
M  END
