CVD-0000247|dock_bobby27042020.13|mol2|33|dock3
     RDKit          3D

 29 31  0  0  0  0  0  0  0  0999 V2000
    8.1411   -3.2605   22.7606 C   0  0  0  0  0  0  0  0  0  0  0  0
    7.2858   -2.3416   21.9113 C   0  0  0  0  0  0  0  0  0  0  0  0
    7.8591   -0.9281   21.7691 C   0  0  0  0  0  0  0  0  0  0  0  0
    9.2347   -1.0466   21.2907 N   0  0  0  0  0  0  0  0  0  0  0  0
   10.2966   -0.6492   22.0265 C   0  0  0  0  0  0  0  0  0  0  0  0
   10.1740   -0.0962   23.1164 O   0  0  0  0  0  0  0  0  0  0  0  0
   11.5041   -0.9008   21.4835 N   0  0  0  0  0  0  0  0  0  0  0  0
   12.7364   -0.5288   22.1629 C   0  0  0  0  0  0  0  0  0  0  0  0
   13.0063   -1.3645   23.3886 C   0  0  0  0  0  0  0  0  0  0  0  0
   12.3460   -2.5603   23.6254 C   0  0  0  0  0  0  0  0  0  0  0  0
   12.5798   -3.3093   24.7060 N   0  0  0  0  0  0  0  0  0  0  0  0
   13.4937   -2.8446   25.5579 C   0  0  0  0  0  0  0  0  0  0  0  0
   14.1594   -1.6562   25.3331 C   0  0  0  0  0  0  0  0  0  0  0  0
   13.9239   -0.9060   24.2492 N   0  0  0  0  0  0  0  0  0  0  0  0
    7.0326   -0.0624   20.8332 C   0  0  0  0  0  0  0  0  0  0  0  0
    7.0185   -0.2892   19.4567 C   0  0  0  0  0  0  0  0  0  0  0  0
    6.2540    0.4931   18.6088 C   0  0  0  0  0  0  0  0  0  0  0  0
    5.4907    1.5191   19.1205 C   0  0  0  0  0  0  0  0  0  0  0  0
    5.4893    1.7704   20.4819 C   0  0  0  0  0  0  0  0  0  0  0  0
    6.2594    0.9853   21.3334 C   0  0  0  0  0  0  0  0  0  0  0  0
    6.3261    1.1594   22.6949 O   0  0  0  0  0  0  0  0  0  0  0  0
    6.1550    2.4590   23.2530 C   0  0  0  0  0  0  0  0  0  0  0  0
    7.1119    3.4439   22.6015 C   0  0  0  0  0  0  0  0  0  0  0  0
    7.9983    3.0547   21.8516 O   0  0  0  0  0  0  0  0  0  0  0  0
    6.9402    4.7486   22.8944 N   0  0  0  0  0  0  0  0  0  0  0  0
    7.7934    5.7935   22.3431 C   0  0  0  0  0  0  0  0  0  0  0  0
    7.2538    7.0579   22.9089 C   0  0  0  0  0  0  0  0  0  0  0  0
    6.1395    6.7831   23.7313 C   0  0  0  0  0  0  0  0  0  0  0  0
    5.8833    5.2888   23.7508 C   0  0  0  0  0  0  0  0  0  0  0  0
  1  2  1  0
  2  3  1  0
  3  4  1  0
  4  5  1  0
  5  6  2  0
  5  7  1  0
  7  8  1  0
  8  9  1  0
  9 10  2  0
 10 11  1  0
 11 12  2  0
 12 13  1  0
 13 14  2  0
  3 15  1  0
 15 16  2  0
 16 17  1  0
 17 18  2  0
 18 19  1  0
 19 20  2  0
 20 21  1  0
 21 22  1  0
 22 23  1  0
 23 24  2  0
 23 25  1  0
 25 26  1  0
 26 27  1  0
 27 28  1  0
 28 29  1  0
 14  9  1  0
 20 15  1  0
 29 25  1  0
M  END
