CVD-0000612|dock_bobby27042020.55|mol2|25|dock1
     RDKit          3D

 26 28  0  0  0  0  0  0  0  0999 V2000
   10.2319   -6.1000   27.0006 N   0  0  0  0  0  0  0  0  0  0  0  0
    8.6867   -5.7217   26.8215 S   0  0  0  0  0  0  0  0  0  0  0  0
    8.3227   -4.8915   27.9303 O   0  0  0  0  0  0  0  0  0  0  0  0
    7.9730   -6.9451   26.6098 O   0  0  0  0  0  0  0  0  0  0  0  0
    8.5145   -4.7498   25.3556 C   0  0  0  0  0  0  0  0  0  0  0  0
    7.6879   -5.1892   24.3348 C   0  0  0  0  0  0  0  0  0  0  0  0
    7.5629   -4.4211   23.1895 C   0  0  0  0  0  0  0  0  0  0  0  0
    8.2594   -3.2310   23.0620 C   0  0  0  0  0  0  0  0  0  0  0  0
    9.0875   -2.8102   24.0879 C   0  0  0  0  0  0  0  0  0  0  0  0
    9.7876   -1.5954   23.9298 O   0  0  0  0  0  0  0  0  0  0  0  0
   10.9384   -1.3253   23.0705 C   0  0  0  0  0  0  0  0  0  0  0  0
   10.4354   -1.1140   21.6324 C   0  0  0  0  0  0  0  0  0  0  0  0
    9.2166   -0.2224   21.5165 C   0  0  0  0  0  0  0  0  0  0  0  0
    8.8615    0.4948   22.4458 O   0  0  0  0  0  0  0  0  0  0  0  0
    8.5962   -0.3139   20.3150 N   0  0  0  0  0  0  0  0  0  0  0  0
    7.4446    0.3336   19.8019 C   0  0  0  0  0  0  0  0  0  0  0  0
    6.7748   -0.2394   18.7285 C   0  0  0  0  0  0  0  0  0  0  0  0
    5.6487    0.3787   18.2145 C   0  0  0  0  0  0  0  0  0  0  0  0
    5.2231    1.5540   18.7886 C   0  0  0  0  0  0  0  0  0  0  0  0
    5.8433    2.1291   19.8188 N   0  0  0  0  0  0  0  0  0  0  0  0
    6.9304    1.5249   20.3088 C   0  0  0  0  0  0  0  0  0  0  0  0
   11.6529   -0.0424   23.5643 C   0  0  0  0  0  0  0  0  0  0  0  0
   13.0587   -0.3486   23.7007 C   0  0  0  0  0  0  0  0  0  0  0  0
   13.3070   -1.7545   23.4143 C   0  0  0  0  0  0  0  0  0  0  0  0
   12.0043   -2.4246   23.1547 C   0  0  0  0  0  0  0  0  0  0  0  0
    9.2186   -3.5603   25.2459 C   0  0  0  0  0  0  0  0  0  0  0  0
  1  2  1  0
  2  3  2  0
  2  4  2  0
  2  5  1  0
  5  6  2  0
  6  7  1  0
  7  8  2  0
  8  9  1  0
  9 10  1  0
 10 11  1  0
 11 12  1  0
 12 13  1  0
 13 14  2  0
 13 15  1  0
 15 16  1  0
 16 17  2  0
 17 18  1  0
 18 19  2  0
 19 20  1  0
 20 21  2  0
 11 22  1  0
 22 23  1  0
 23 24  1  0
 24 25  1  0
  9 26  2  0
 26  5  1  0
 25 11  1  0
 21 16  1  0
M  END
