CVD-0002998|dock_bobby27042020.89|mol2|23|dock3
     RDKit          3D

 32 35  0  0  0  0  0  0  0  0999 V2000
    5.7978   -7.3371   28.5282 Cl  0  0  0  0  0  0  0  0  0  0  0  0
    6.3063   -6.4690   27.0739 C   0  0  0  0  0  0  0  0  0  0  0  0
    7.8178   -6.3689   26.9963 C   0  0  0  0  0  0  0  0  0  0  0  0
    8.4976   -6.6306   27.9810 O   0  0  0  0  0  0  0  0  0  0  0  0
    8.3780   -5.9921   25.8215 N   0  0  0  0  0  0  0  0  0  0  0  0
    9.8388   -5.8926   25.7393 C   0  0  0  0  0  0  0  0  0  0  0  0
   10.2500   -4.4481   25.5702 C   0  0  0  0  0  0  0  0  0  0  0  0
    9.5337   -3.8336   24.4013 C   0  0  0  0  0  0  0  0  0  0  0  0
   10.0751   -2.7377   23.7377 C   0  0  0  0  0  0  0  0  0  0  0  0
    9.4270   -2.1792   22.6478 C   0  0  0  0  0  0  0  0  0  0  0  0
    8.2265   -2.7058   22.2016 C   0  0  0  0  0  0  0  0  0  0  0  0
    7.6865   -3.7965   22.8611 C   0  0  0  0  0  0  0  0  0  0  0  0
    8.3257   -4.3692   23.9580 C   0  0  0  0  0  0  0  0  0  0  0  0
    7.6673   -5.5607   24.6199 C   0  0  0  0  0  0  0  0  0  0  0  0
   10.1400   -0.7900   21.8347 S   0  0  0  0  0  0  0  0  0  0  0  0
   11.5427   -1.0303   21.6838 O   0  0  0  0  0  0  0  0  0  0  0  0
    9.6867    0.3964   22.4937 O   0  0  0  0  0  0  0  0  0  0  0  0
    9.4977   -0.7678   20.3237 N   0  0  0  0  0  0  0  0  0  0  0  0
    8.3011   -0.2387   19.9178 C   0  0  0  0  0  0  0  0  0  0  0  0
    7.3718    0.3947   20.7015 C   0  0  0  0  0  0  0  0  0  0  0  0
    6.2560    0.8087   19.9279 C   0  0  0  0  0  0  0  0  0  0  0  0
    5.2305    1.4596   20.5418 N   0  0  0  0  0  0  0  0  0  0  0  0
    3.9961    1.9521   20.0504 C   0  0  0  0  0  0  0  0  0  0  0  0
    2.8517    1.7643   20.8179 C   0  0  0  0  0  0  0  0  0  0  0  0
    1.6298    2.1548   20.4448 N   0  0  0  0  0  0  0  0  0  0  0  0
    1.5081    2.7568   19.2597 C   0  0  0  0  0  0  0  0  0  0  0  0
    2.5855    3.0227   18.4208 C   0  0  0  0  0  0  0  0  0  0  0  0
    3.8531    2.6285   18.8420 C   0  0  0  0  0  0  0  0  0  0  0  0
    2.4217    3.6863   17.1525 C   0  0  0  0  0  0  0  0  0  0  0  0
    2.2661    4.1948   16.1017 C   0  0  0  0  0  0  0  0  0  0  0  0
    6.3608    0.4764   18.6172 C   0  0  0  0  0  0  0  0  0  0  0  0
    7.8272   -0.3329   18.2559 S   0  0  0  0  0  0  0  0  0  0  0  0
  1  2  1  0
  2  3  1  0
  3  4  2  0
  3  5  1  0
  5  6  1  0
  6  7  1  0
  7  8  1  0
  8  9  2  0
  9 10  1  0
 10 11  2  0
 11 12  1  0
 12 13  2  0
 13 14  1  0
 10 15  1  0
 15 16  2  0
 15 17  2  0
 15 18  1  0
 18 19  1  0
 19 20  2  0
 20 21  1  0
 21 22  1  0
 22 23  1  0
 23 24  2  0
 24 25  1  0
 25 26  2  0
 26 27  1  0
 27 28  2  0
 27 29  1  0
 29 30  3  0
 21 31  2  0
 31 32  1  0
 14  5  1  0
 32 19  1  0
 13  8  1  0
 28 23  1  0
M  END
