CVD-0002652|dock_bobby27042020.5|mol2|3|dock2
     RDKit          3D

 30 31  0  0  0  0  0  0  0  0999 V2000
    6.0891   -4.8305   21.4506 C   0  0  0  0  0  0  0  0  0  0  0  0
    6.1018   -3.9989   20.2016 C   0  0  0  0  0  0  0  0  0  0  0  0
    6.2192   -4.5227   19.0991 O   0  0  0  0  0  0  0  0  0  0  0  0
    5.9872   -2.6646   20.4315 N   0  0  0  0  0  0  0  0  0  0  0  0
    5.9731   -1.5609   19.5346 C   0  0  0  0  0  0  0  0  0  0  0  0
    5.6593   -1.6711   18.1803 C   0  0  0  0  0  0  0  0  0  0  0  0
    5.6581   -0.6423   17.3274 N   0  0  0  0  0  0  0  0  0  0  0  0
    5.9949    0.5536   17.8020 C   0  0  0  0  0  0  0  0  0  0  0  0
    6.3158    0.7794   19.1222 C   0  0  0  0  0  0  0  0  0  0  0  0
    6.2954   -0.2807   20.0233 C   0  0  0  0  0  0  0  0  0  0  0  0
    6.6185    0.0228   21.4647 C   0  0  0  0  0  0  0  0  0  0  0  0
    7.6535   -0.8339   21.9431 O   0  0  0  0  0  0  0  0  0  0  0  0
    8.8925   -0.6608   21.2673 C   0  0  0  0  0  0  0  0  0  0  0  0
    9.8800   -1.6818   21.8060 C   0  0  0  0  0  0  0  0  0  0  0  0
   11.2684   -1.3565   21.5041 N   0  0  0  0  0  0  0  0  0  0  0  0
   12.3223   -1.8794   22.1408 C   0  0  0  0  0  0  0  0  0  0  0  0
   12.2484   -2.6952   23.0544 O   0  0  0  0  0  0  0  0  0  0  0  0
   13.6773   -1.3874   21.6616 C   0  0  0  0  0  0  0  0  0  0  0  0
   14.0064   -1.8854   20.3193 N   0  0  0  0  0  0  0  0  0  0  0  0
    9.6744   -1.8513   23.3098 C   0  0  0  0  0  0  0  0  0  0  0  0
    9.8754   -0.9548   24.1108 O   0  0  0  0  0  0  0  0  0  0  0  0
    9.2047   -3.2356   23.7976 C   0  0  0  0  0  0  0  0  0  0  0  0
    9.1468   -4.2014   23.0379 O   0  0  0  0  0  0  0  0  0  0  0  0
    8.8757   -3.2791   25.0938 N   0  0  0  0  0  0  0  0  0  0  0  0
    8.4142   -4.4970   25.7602 C   0  0  0  0  0  0  0  0  0  0  0  0
    6.9329   -4.3788   26.1740 C   0  0  0  0  0  0  0  0  0  0  0  0
    6.4411   -5.6071   26.9372 C   0  0  0  0  0  0  0  0  0  0  0  0
    7.3297   -5.9068   28.1375 C   0  0  0  0  0  0  0  0  0  0  0  0
    8.7857   -6.0541   27.7197 C   0  0  0  0  0  0  0  0  0  0  0  0
    9.2801   -4.8076   26.9930 C   0  0  0  0  0  0  0  0  0  0  0  0
  1  2  1  0
  2  3  2  0
  2  4  1  0
  4  5  1  0
  5  6  2  0
  6  7  1  0
  7  8  2  0
  8  9  1  0
  9 10  2  0
 10 11  1  0
 11 12  1  0
 12 13  1  0
 13 14  1  0
 14 15  1  0
 15 16  1  0
 16 17  2  0
 16 18  1  0
 18 19  1  0
 14 20  1  0
 20 21  2  0
 20 22  1  0
 22 23  2  0
 22 24  1  0
 24 25  1  0
 25 26  1  0
 26 27  1  0
 27 28  1  0
 28 29  1  0
 29 30  1  0
 10  5  1  0
 30 25  1  0
M  END
