CVD-0004058|dock_bobby27042020.85|mol2|48|dock2
     RDKit          3D

 24 27  0  0  0  0  0  0  0  0999 V2000
    6.2318   -1.2389   19.2591 C   0  0  0  0  0  0  0  0  0  0  0  0
    7.2857   -0.5170   20.0378 C   0  0  0  0  0  0  0  0  0  0  0  0
    7.2345    0.8926   20.1721 C   0  0  0  0  0  0  0  0  0  0  0  0
    8.1983    1.5162   20.8836 C   0  0  0  0  0  0  0  0  0  0  0  0
    9.2209    0.7409   21.4706 C   0  0  0  0  0  0  0  0  0  0  0  0
   10.3656    0.9673   22.2457 C   0  0  0  0  0  0  0  0  0  0  0  0
   10.9018   -0.3412   22.4715 C   0  0  0  0  0  0  0  0  0  0  0  0
   10.1788   -1.2681   21.8402 N   0  0  0  0  0  0  0  0  0  0  0  0
    9.1715   -0.5964   21.2693 N   0  0  0  0  0  0  0  0  0  0  0  0
    8.2250   -1.2558   20.5659 N   0  0  0  0  0  0  0  0  0  0  0  0
   12.0519   -0.8419   23.2558 C   0  0  0  0  0  0  0  0  0  0  0  0
   12.8429   -1.9082   22.8386 C   0  0  0  0  0  0  0  0  0  0  0  0
   13.8885   -2.3705   23.6179 C   0  0  0  0  0  0  0  0  0  0  0  0
   14.1515   -1.7344   24.7997 C   0  0  0  0  0  0  0  0  0  0  0  0
   15.1779   -2.1859   25.5699 F   0  0  0  0  0  0  0  0  0  0  0  0
   13.4250   -0.6618   25.2377 C   0  0  0  0  0  0  0  0  0  0  0  0
   12.3731   -0.2176   24.4566 C   0  0  0  0  0  0  0  0  0  0  0  0
   10.8382    2.3230   22.6709 C   0  0  0  0  0  0  0  0  0  0  0  0
    9.9517    3.3396   23.0063 C   0  0  0  0  0  0  0  0  0  0  0  0
   10.4601    4.5605   23.4006 C   0  0  0  0  0  0  0  0  0  0  0  0
   11.7684    4.8274   23.4908 N   0  0  0  0  0  0  0  0  0  0  0  0
   12.6354    3.8500   23.1711 C   0  0  0  0  0  0  0  0  0  0  0  0
   13.9453    4.1362   23.2706 N   0  0  0  0  0  0  0  0  0  0  0  0
   12.2005    2.5922   22.7525 C   0  0  0  0  0  0  0  0  0  0  0  0
  1  2  1  0
  2  3  1  0
  3  4  2  0
  4  5  1  0
  5  6  2  0
  6  7  1  0
  7  8  2  0
  8  9  1  0
  9 10  1  0
  7 11  1  0
 11 12  2  0
 12 13  1  0
 13 14  2  0
 14 15  1  0
 14 16  1  0
 16 17  2  0
  6 18  1  0
 18 19  2  0
 19 20  1  0
 20 21  2  0
 21 22  1  0
 22 23  1  0
 22 24  2  0
 10  2  2  0
 17 11  1  0
 24 18  1  0
  9  5  1  0
M  END
