CVD-0001040|dock_bobby27042020.54|mol2|2|dock3
     RDKit          3D

 32 35  0  0  0  0  0  0  0  0999 V2000
   12.9337    6.7305   23.7989 F   0  0  0  0  0  0  0  0  0  0  0  0
   13.4076    5.8841   22.8918 C   0  0  0  0  0  0  0  0  0  0  0  0
   14.6347    5.5700   23.2916 F   0  0  0  0  0  0  0  0  0  0  0  0
   13.5566    6.5900   21.7766 F   0  0  0  0  0  0  0  0  0  0  0  0
   12.5340    4.6849   22.7060 C   0  0  0  0  0  0  0  0  0  0  0  0
   13.0843    3.4289   22.4913 C   0  0  0  0  0  0  0  0  0  0  0  0
   12.2743    2.3232   22.3045 C   0  0  0  0  0  0  0  0  0  0  0  0
   10.8873    2.4320   22.3204 C   0  0  0  0  0  0  0  0  0  0  0  0
   10.3410    3.6909   22.5625 C   0  0  0  0  0  0  0  0  0  0  0  0
   11.1510    4.7988   22.7393 C   0  0  0  0  0  0  0  0  0  0  0  0
   10.0839    1.1811   22.0947 C   0  0  0  0  0  0  0  0  0  0  0  0
    9.2213    1.2438   21.2358 O   0  0  0  0  0  0  0  0  0  0  0  0
   10.2415    0.0156   22.7617 N   0  0  0  0  0  0  0  0  0  0  0  0
   11.2428   -0.2479   23.7917 C   0  0  0  0  0  0  0  0  0  0  0  0
   10.5980   -0.9399   24.9750 C   0  0  0  0  0  0  0  0  0  0  0  0
    9.9219   -2.2329   24.5361 C   0  0  0  0  0  0  0  0  0  0  0  0
    8.9216   -1.9331   23.4220 C   0  0  0  0  0  0  0  0  0  0  0  0
    9.6038   -1.2013   22.2709 C   0  0  0  0  0  0  0  0  0  0  0  0
    9.2416   -2.9114   25.7057 C   0  0  0  0  0  0  0  0  0  0  0  0
    8.6038   -2.2865   26.5490 O   0  0  0  0  0  0  0  0  0  0  0  0
    9.3939   -4.2628   25.7453 N   0  0  0  0  0  0  0  0  0  0  0  0
    8.9030   -5.1426   26.6673 C   0  0  0  0  0  0  0  0  0  0  0  0
    9.4875   -5.6508   27.7108 N   0  0  0  0  0  0  0  0  0  0  0  0
    8.5500   -6.4887   28.3122 N   0  0  0  0  0  0  0  0  0  0  0  0
    7.4839   -6.4220   27.5928 C   0  0  0  0  0  0  0  0  0  0  0  0
    7.6262   -5.5850   26.5245 O   0  0  0  0  0  0  0  0  0  0  0  0
    6.2019   -7.1198   27.7984 C   0  0  0  0  0  0  0  0  0  0  0  0
    5.8750   -7.6273   29.0484 C   0  0  0  0  0  0  0  0  0  0  0  0
    4.6604   -8.2747   29.1937 C   0  0  0  0  0  0  0  0  0  0  0  0
    3.8197   -8.3966   28.1086 C   0  0  0  0  0  0  0  0  0  0  0  0
    4.2274   -7.8621   26.9072 C   0  0  0  0  0  0  0  0  0  0  0  0
    5.3954   -7.2296   26.7318 N   0  0  0  0  0  0  0  0  0  0  0  0
  1  2  1  0
  2  3  1  0
  2  4  1  0
  2  5  1  0
  5  6  2  0
  6  7  1  0
  7  8  2  0
  8  9  1  0
  9 10  2  0
  8 11  1  0
 11 12  2  0
 11 13  1  0
 13 14  1  0
 14 15  1  0
 15 16  1  0
 16 17  1  0
 17 18  1  0
 16 19  1  0
 19 20  2  0
 19 21  1  0
 21 22  1  0
 22 23  2  0
 23 24  1  0
 24 25  2  0
 25 26  1  0
 25 27  1  0
 27 28  2  0
 28 29  1  0
 29 30  2  0
 30 31  1  0
 31 32  2  0
 10  5  1  0
 18 13  1  0
 26 22  1  0
 32 27  1  0
M  END
