CVD-0001644|dock_bobby27042020.23|mol2|17|dock3
     RDKit          3D

 24 26  0  0  0  0  0  0  0  0999 V2000
   12.2420    0.4226   24.8377 C   0  0  0  0  0  0  0  0  0  0  0  0
   13.1905   -0.7646   24.9041 C   0  0  0  0  0  0  0  0  0  0  0  0
   12.4705   -2.0496   24.5754 C   0  0  0  0  0  0  0  0  0  0  0  0
   12.0295   -2.0652   23.1793 N   0  0  0  0  0  0  0  0  0  0  0  0
   13.0887   -1.7212   22.2275 C   0  0  0  0  0  0  0  0  0  0  0  0
   13.7661   -0.4395   22.6336 C   0  0  0  0  0  0  0  0  0  0  0  0
   14.3069   -0.5560   23.9840 N   0  0  0  0  0  0  0  0  0  0  0  0
   10.7350   -2.3744   22.7823 C   0  0  0  0  0  0  0  0  0  0  0  0
   10.0776   -3.5006   23.2510 C   0  0  0  0  0  0  0  0  0  0  0  0
    8.8444   -3.8503   22.8704 N   0  0  0  0  0  0  0  0  0  0  0  0
    8.2100   -3.0781   21.9684 C   0  0  0  0  0  0  0  0  0  0  0  0
    6.9425   -3.6282   21.5371 C   0  0  0  0  0  0  0  0  0  0  0  0
    5.9621   -4.0999   21.1889 N   0  0  0  0  0  0  0  0  0  0  0  0
    8.7470   -1.8699   21.4890 C   0  0  0  0  0  0  0  0  0  0  0  0
   10.0448   -1.5561   21.8942 C   0  0  0  0  0  0  0  0  0  0  0  0
    8.1025   -0.8609   20.5764 C   0  0  0  0  0  0  0  0  0  0  0  0
    8.8140   -0.3129   19.7410 O   0  0  0  0  0  0  0  0  0  0  0  0
    6.7765   -0.5968   20.7323 N   0  0  0  0  0  0  0  0  0  0  0  0
    5.9122    0.2712   20.0163 C   0  0  0  0  0  0  0  0  0  0  0  0
    4.7584    0.7007   20.6628 C   0  0  0  0  0  0  0  0  0  0  0  0
    3.8692    1.5525   20.0300 C   0  0  0  0  0  0  0  0  0  0  0  0
    4.1173    1.9863   18.7469 C   0  0  0  0  0  0  0  0  0  0  0  0
    5.2547    1.5661   18.0934 C   0  0  0  0  0  0  0  0  0  0  0  0
    6.1505    0.7120   18.7155 C   0  0  0  0  0  0  0  0  0  0  0  0
  1  2  1  0
  2  3  1  0
  3  4  1  0
  4  5  1  0
  5  6  1  0
  6  7  1  0
  4  8  1  0
  8  9  2  0
  9 10  1  0
 10 11  2  0
 11 12  1  0
 12 13  3  0
 11 14  1  0
 14 15  2  0
 14 16  1  0
 16 17  2  0
 16 18  1  0
 18 19  1  0
 19 20  2  0
 20 21  1  0
 21 22  2  0
 22 23  1  0
 23 24  2  0
  7  2  1  0
 15  8  1  0
 24 19  1  0
M  END
