CVD-0001974|dock_bobby27042020.36|mol2|21|dock1
     RDKit          3D

 19 18  0  0  0  0  0  0  0  0999 V2000
    5.2001    0.7510   17.7397 C   0  0  0  0  0  0  0  0  0  0  0  0
    5.6119    0.4637   19.1650 C   0  0  0  0  0  0  0  0  0  0  0  0
    6.9844   -0.1763   19.2683 C   0  0  0  0  0  0  0  0  0  0  0  0
    7.3779   -0.5745   20.6803 C   0  0  0  0  0  0  0  0  0  0  0  0
    8.8611   -0.8568   20.8468 C   0  0  0  0  0  0  0  0  0  0  0  0
    9.2003   -1.6282   22.1107 C   0  0  0  0  0  0  0  0  0  0  0  0
   10.6854   -1.7215   22.3588 C   0  0  0  0  0  0  0  0  0  0  0  0
   11.2802   -0.3984   22.4095 O   0  0  0  0  0  0  0  0  0  0  0  0
   12.8439   -0.1457   22.3966 P   0  0  0  0  0  0  0  0  0  0  0  0
   13.4720   -0.0514   24.3587 S   0  0  0  0  0  0  0  0  0  0  0  0
   13.8621   -1.4525   21.4256 S   0  0  0  0  0  0  0  0  0  0  0  0
   12.8934    1.3236   21.8082 O   0  0  0  0  0  0  0  0  0  0  0  0
   12.9838    2.5064   22.6431 C   0  0  0  0  0  0  0  0  0  0  0  0
   12.8068    3.7495   21.8072 C   0  0  0  0  0  0  0  0  0  0  0  0
   13.4266    4.9836   22.4402 C   0  0  0  0  0  0  0  0  0  0  0  0
   12.8397    5.3367   23.7959 C   0  0  0  0  0  0  0  0  0  0  0  0
   11.3541    5.6512   23.7578 C   0  0  0  0  0  0  0  0  0  0  0  0
   10.8267    6.3047   25.0222 C   0  0  0  0  0  0  0  0  0  0  0  0
    9.3343    6.5401   24.9869 C   0  0  0  0  0  0  0  0  0  0  0  0
  1  2  1  0
  2  3  1  0
  3  4  1  0
  4  5  1  0
  5  6  1  0
  6  7  1  0
  7  8  1  0
  8  9  1  0
  9 10  1  0
  9 11  2  0
  9 12  1  0
 12 13  1  0
 13 14  1  0
 14 15  1  0
 15 16  1  0
 16 17  1  0
 17 18  1  0
 18 19  1  0
M  END
