CVD-0001864|dock_bobby27042020.51|mol2|11|dock2
     RDKit          3D

 21 23  0  0  0  0  0  0  0  0999 V2000
   12.2511   -2.2274   20.9638 O   0  0  0  0  0  0  0  0  0  0  0  0
   11.9486   -1.3688   21.7909 C   0  0  0  0  0  0  0  0  0  0  0  0
   10.7543   -0.5200   21.5879 C   0  0  0  0  0  0  0  0  0  0  0  0
    9.5924   -1.0515   21.1907 C   0  0  0  0  0  0  0  0  0  0  0  0
    8.3824   -0.3030   20.9688 C   0  0  0  0  0  0  0  0  0  0  0  0
    7.7750   -0.2021   19.7818 C   0  0  0  0  0  0  0  0  0  0  0  0
    6.5453    0.5375   19.4737 C   0  0  0  0  0  0  0  0  0  0  0  0
    6.3763    1.1559   18.2340 C   0  0  0  0  0  0  0  0  0  0  0  0
    5.2253    1.8638   17.9255 C   0  0  0  0  0  0  0  0  0  0  0  0
    4.2264    1.9502   18.8840 C   0  0  0  0  0  0  0  0  0  0  0  0
    2.9892    2.5452   18.8148 O   0  0  0  0  0  0  0  0  0  0  0  0
    2.4528    2.4768   20.1324 C   0  0  0  0  0  0  0  0  0  0  0  0
    3.2389    1.5317   20.8639 O   0  0  0  0  0  0  0  0  0  0  0  0
    4.3790    1.3429   20.1166 C   0  0  0  0  0  0  0  0  0  0  0  0
    5.5272    0.6358   20.4264 C   0  0  0  0  0  0  0  0  0  0  0  0
   12.7041   -1.1875   22.8991 N   0  0  0  0  0  0  0  0  0  0  0  0
   12.4659   -0.1899   23.9440 C   0  0  0  0  0  0  0  0  0  0  0  0
   12.3291   -0.8589   25.2957 C   0  0  0  0  0  0  0  0  0  0  0  0
   13.5482   -1.7291   25.5997 C   0  0  0  0  0  0  0  0  0  0  0  0
   13.7901   -2.7136   24.4685 C   0  0  0  0  0  0  0  0  0  0  0  0
   13.8991   -2.0055   23.1371 C   0  0  0  0  0  0  0  0  0  0  0  0
  1  2  2  0
  2  3  1  0
  3  4  2  0
  4  5  1  0
  5  6  2  0
  6  7  1  0
  7  8  2  0
  8  9  1  0
  9 10  2  0
 10 11  1  0
 11 12  1  0
 12 13  1  0
 13 14  1  0
 14 15  2  0
  2 16  1  0
 16 17  1  0
 17 18  1  0
 18 19  1  0
 19 20  1  0
 20 21  1  0
 15  7  1  0
 21 16  1  0
 14 10  1  0
M  END
