CVD-0002916|dock_bobby27042020.4|mol2|8|dock2
     RDKit          3D

 26 29  0  0  0  0  0  0  0  0999 V2000
   13.9983   -0.4798   23.1580 C   0  0  0  0  0  0  0  0  0  0  0  0
   12.6186   -0.0412   23.3605 N   0  0  0  0  0  0  0  0  0  0  0  0
   11.6484   -1.0609   22.9510 C   0  0  0  0  0  0  0  0  0  0  0  0
   10.2367   -0.5952   23.2556 C   0  0  0  0  0  0  0  0  0  0  0  0
    9.9576    0.6711   22.5747 N   0  0  0  0  0  0  0  0  0  0  0  0
   10.9477    1.6968   22.9177 C   0  0  0  0  0  0  0  0  0  0  0  0
   10.6666    3.0019   22.1633 C   0  0  0  0  0  0  0  0  0  0  0  0
   11.7841    4.0088   22.2883 C   0  0  0  0  0  0  0  0  0  0  0  0
   11.7829    4.9457   23.3101 C   0  0  0  0  0  0  0  0  0  0  0  0
   12.8098    5.8675   23.4270 C   0  0  0  0  0  0  0  0  0  0  0  0
   13.8506    5.8625   22.5235 C   0  0  0  0  0  0  0  0  0  0  0  0
   13.8648    4.9354   21.5037 C   0  0  0  0  0  0  0  0  0  0  0  0
   12.8376    4.0138   21.3873 C   0  0  0  0  0  0  0  0  0  0  0  0
   12.3501    1.1936   22.6279 C   0  0  0  0  0  0  0  0  0  0  0  0
    8.9221    0.9199   21.7404 C   0  0  0  0  0  0  0  0  0  0  0  0
    8.5139    2.0614   21.5675 O   0  0  0  0  0  0  0  0  0  0  0  0
    8.2456   -0.2341   21.0213 C   0  0  0  0  0  0  0  0  0  0  0  0
    7.2083    0.2013   20.0299 C   0  0  0  0  0  0  0  0  0  0  0  0
    7.3186    0.2081   18.6703 C   0  0  0  0  0  0  0  0  0  0  0  0
    6.1653    0.6730   18.0960 N   0  0  0  0  0  0  0  0  0  0  0  0
    5.2791    0.9785   19.0869 C   0  0  0  0  0  0  0  0  0  0  0  0
    4.0338    1.4631   18.9458 N   0  0  0  0  0  0  0  0  0  0  0  0
    3.3522    1.6847   20.0780 C   0  0  0  0  0  0  0  0  0  0  0  0
    3.8569    1.4447   21.3382 C   0  0  0  0  0  0  0  0  0  0  0  0
    5.1433    0.9446   21.4657 C   0  0  0  0  0  0  0  0  0  0  0  0
    5.8942    0.6970   20.3184 C   0  0  0  0  0  0  0  0  0  0  0  0
  1  2  1  0
  2  3  1  0
  3  4  1  0
  4  5  1  0
  5  6  1  0
  6  7  1  0
  7  8  1  0
  8  9  2  0
  9 10  1  0
 10 11  2  0
 11 12  1  0
 12 13  2  0
  6 14  1  0
  5 15  1  0
 15 16  2  0
 15 17  1  0
 17 18  1  0
 18 19  2  0
 19 20  1  0
 20 21  1  0
 21 22  2  0
 22 23  1  0
 23 24  2  0
 24 25  1  0
 25 26  2  0
 14  2  1  0
 26 18  1  0
 13  8  1  0
 26 21  1  0
M  END
