CVD-0002408|dock_bobby27042020.77|mol2|25|dock3
     RDKit          3D

 27 30  0  0  0  0  0  0  0  0999 V2000
   11.2169   -3.3444   23.7196 C   0  0  0  0  0  0  0  0  0  0  0  0
    9.7857   -3.4886   23.2424 C   0  0  0  0  0  0  0  0  0  0  0  0
    9.0522   -4.5966   23.6774 C   0  0  0  0  0  0  0  0  0  0  0  0
    9.6861   -5.6334   24.9022 Cl  0  0  0  0  0  0  0  0  0  0  0  0
    7.8154   -4.8934   23.1464 C   0  0  0  0  0  0  0  0  0  0  0  0
    7.1507   -5.9838   23.5925 F   0  0  0  0  0  0  0  0  0  0  0  0
    7.2480   -4.1175   22.1796 C   0  0  0  0  0  0  0  0  0  0  0  0
    7.9097   -2.9623   21.7756 C   0  0  0  0  0  0  0  0  0  0  0  0
    9.1335   -2.5856   22.3607 C   0  0  0  0  0  0  0  0  0  0  0  0
    9.6436   -1.2986   22.0098 N   0  0  0  0  0  0  0  0  0  0  0  0
   10.7548   -0.6551   22.6701 C   0  0  0  0  0  0  0  0  0  0  0  0
   11.9467   -0.4743   21.9809 C   0  0  0  0  0  0  0  0  0  0  0  0
   13.0196    0.1437   22.6016 C   0  0  0  0  0  0  0  0  0  0  0  0
   12.9122    0.5828   23.9036 C   0  0  0  0  0  0  0  0  0  0  0  0
   11.7314    0.4070   24.5925 C   0  0  0  0  0  0  0  0  0  0  0  0
   10.6514   -0.2094   23.9829 C   0  0  0  0  0  0  0  0  0  0  0  0
    9.0697   -0.4961   21.0185 C   0  0  0  0  0  0  0  0  0  0  0  0
    9.5721    0.5787   20.7291 O   0  0  0  0  0  0  0  0  0  0  0  0
    7.9113   -0.9645   20.3858 N   0  0  0  0  0  0  0  0  0  0  0  0
    7.3139   -0.1508   19.3424 C   0  0  0  0  0  0  0  0  0  0  0  0
    6.0013    0.2941   19.4398 C   0  0  0  0  0  0  0  0  0  0  0  0
    5.4622    1.0649   18.4249 C   0  0  0  0  0  0  0  0  0  0  0  0
    6.2512    1.3686   17.3403 C   0  0  0  0  0  0  0  0  0  0  0  0
    7.5134    0.9575   17.2203 N   0  0  0  0  0  0  0  0  0  0  0  0
    8.0242    0.2173   18.2093 C   0  0  0  0  0  0  0  0  0  0  0  0
    7.2707   -2.1702   20.7189 C   0  0  0  0  0  0  0  0  0  0  0  0
    6.2406   -2.5396   20.1811 O   0  0  0  0  0  0  0  0  0  0  0  0
  1  2  1  0
  2  3  2  0
  3  4  1  0
  3  5  1  0
  5  6  1  0
  5  7  2  0
  7  8  1  0
  8  9  2  0
  9 10  1  0
 10 11  1  0
 11 12  2  0
 12 13  1  0
 13 14  2  0
 14 15  1  0
 15 16  2  0
 10 17  1  0
 17 18  2  0
 17 19  1  0
 19 20  1  0
 20 21  2  0
 21 22  1  0
 22 23  2  0
 23 24  1  0
 24 25  2  0
 19 26  1  0
 26 27  2  0
  9  2  1  0
 16 11  1  0
 25 20  1  0
 26  8  1  0
M  END
