CVD-0003288|dock_bobby27042020.2|mol2|30|dock2
     RDKit          3D

 15 17  0  0  0  0  0  0  0  0999 V2000
   13.7722   -1.9182   25.0656 C   0  0  0  0  0  0  0  0  0  0  0  0
   12.5055   -1.0990   24.7898 C   0  0  0  0  0  0  0  0  0  0  0  0
   12.4535   -1.0563   23.2530 C   0  0  0  0  0  0  0  0  0  0  0  0
   11.0506   -0.9011   22.6644 C   0  0  0  0  0  0  0  0  0  0  0  0
   10.8199    0.6111   22.6683 C   0  0  0  0  0  0  0  0  0  0  0  0
   12.1603    1.1773   22.6646 N   0  0  0  0  0  0  0  0  0  0  0  0
   13.2084    0.1866   22.7579 C   0  0  0  0  0  0  0  0  0  0  0  0
   12.3740    2.5342   22.6877 C   0  0  0  0  0  0  0  0  0  0  0  0
   11.3073    3.4233   22.7118 C   0  0  0  0  0  0  0  0  0  0  0  0
   11.5985    4.7767   22.7342 C   0  0  0  0  0  0  0  0  0  0  0  0
   12.9106    5.1968   22.7320 C   0  0  0  0  0  0  0  0  0  0  0  0
   13.8970    4.2383   22.7073 C   0  0  0  0  0  0  0  0  0  0  0  0
   13.6512    2.9221   22.6852 N   0  0  0  0  0  0  0  0  0  0  0  0
   13.1762   -2.3630   22.9060 C   0  0  0  0  0  0  0  0  0  0  0  0
   14.2775   -2.3705   23.8207 O   0  0  0  0  0  0  0  0  0  0  0  0
  1  2  1  0
  2  3  1  0
  3  4  1  0
  4  5  1  0
  5  6  1  0
  6  7  1  0
  6  8  1  0
  8  9  2  0
  9 10  1  0
 10 11  2  0
 11 12  1  0
 12 13  2  0
  3 14  1  0
 14 15  1  0
 15  1  1  0
  7  3  1  0
 13  8  1  0
M  END
