CVD-0003437|dock_bobby27042020.59|mol2|43|dock3
     RDKit          3D

 21 23  0  0  0  0  0  0  0  0999 V2000
    6.6665   -1.2057   22.7326 Cl  0  0  0  0  0  0  0  0  0  0  0  0
    6.1747   -0.3166   21.3267 C   0  0  0  0  0  0  0  0  0  0  0  0
    4.9163    0.0903   21.3182 N   0  0  0  0  0  0  0  0  0  0  0  0
    4.4848    0.7815   20.2858 C   0  0  0  0  0  0  0  0  0  0  0  0
    5.2693    1.0673   19.1490 C   0  0  0  0  0  0  0  0  0  0  0  0
    4.7348    1.7686   18.1012 N   0  0  0  0  0  0  0  0  0  0  0  0
    5.5356    1.9356   17.0703 C   0  0  0  0  0  0  0  0  0  0  0  0
    6.7873    1.5115   16.9103 N   0  0  0  0  0  0  0  0  0  0  0  0
    7.3084    0.8503   17.9267 C   0  0  0  0  0  0  0  0  0  0  0  0
    6.6060    0.6029   19.1301 C   0  0  0  0  0  0  0  0  0  0  0  0
    7.0778   -0.0668   20.3035 C   0  0  0  0  0  0  0  0  0  0  0  0
    8.4216   -0.4964   20.4681 N   0  0  0  0  0  0  0  0  0  0  0  0
    9.2087   -0.2272   21.5623 C   0  0  0  0  0  0  0  0  0  0  0  0
    8.8407    0.4219   22.5364 O   0  0  0  0  0  0  0  0  0  0  0  0
   10.4512   -0.7988   21.4198 N   0  0  0  0  0  0  0  0  0  0  0  0
   11.5746   -0.8046   22.2847 C   0  0  0  0  0  0  0  0  0  0  0  0
   11.6811    0.0014   23.4161 C   0  0  0  0  0  0  0  0  0  0  0  0
   12.8127   -0.0625   24.2126 C   0  0  0  0  0  0  0  0  0  0  0  0
   13.8438   -0.9201   23.8978 C   0  0  0  0  0  0  0  0  0  0  0  0
   13.7482   -1.7207   22.7814 C   0  0  0  0  0  0  0  0  0  0  0  0
   12.6222   -1.6659   21.9777 C   0  0  0  0  0  0  0  0  0  0  0  0
  1  2  1  0
  2  3  2  0
  3  4  1  0
  4  5  2  0
  5  6  1  0
  6  7  2  0
  7  8  1  0
  8  9  2  0
  9 10  1  0
 10 11  2  0
 11 12  1  0
 12 13  1  0
 13 14  2  0
 13 15  1  0
 15 16  1  0
 16 17  2  0
 17 18  1  0
 18 19  2  0
 19 20  1  0
 20 21  2  0
 11  2  1  0
 21 16  1  0
 10  5  1  0
M  END
