CVD-0002149|dock_bobby27042020.64|mol2|26|dock1
     RDKit          3D

 16 16  0  0  0  0  0  0  0  0999 V2000
    6.0348   -0.8598   18.5268 C   0  0  0  0  0  0  0  0  0  0  0  0
    7.5782   -0.1102   18.8769 S   0  0  0  0  0  0  0  0  0  0  0  0
    8.3582   -0.1192   17.6779 O   0  0  0  0  0  0  0  0  0  0  0  0
    7.3276    1.1430   19.5192 O   0  0  0  0  0  0  0  0  0  0  0  0
    8.3395   -1.0386   19.9394 N   0  0  0  0  0  0  0  0  0  0  0  0
    7.6392   -1.4788   21.1520 C   0  0  0  0  0  0  0  0  0  0  0  0
    8.6217   -2.0405   22.1638 C   0  0  0  0  0  0  0  0  0  0  0  0
    9.8084   -1.1354   22.3904 C   0  0  0  0  0  0  0  0  0  0  0  0
    9.6455    0.1199   22.9538 C   0  0  0  0  0  0  0  0  0  0  0  0
   10.7367    0.9462   23.1565 C   0  0  0  0  0  0  0  0  0  0  0  0
   12.0034    0.5215   22.7949 C   0  0  0  0  0  0  0  0  0  0  0  0
   12.1938   -0.7332   22.2267 C   0  0  0  0  0  0  0  0  0  0  0  0
   11.0840   -1.5522   22.0298 C   0  0  0  0  0  0  0  0  0  0  0  0
   13.5772   -1.1525   21.8506 C   0  0  0  0  0  0  0  0  0  0  0  0
   13.8121   -1.7154   20.6438 N   0  0  0  0  0  0  0  0  0  0  0  0
   14.5661   -0.9875   22.6624 N   0  0  0  0  0  0  0  0  0  0  0  0
  1  2  1  0
  2  3  2  0
  2  4  2  0
  2  5  1  0
  5  6  1  0
  6  7  1  0
  7  8  1  0
  8  9  2  0
  9 10  1  0
 10 11  2  0
 11 12  1  0
 12 13  2  0
 12 14  1  0
 14 15  1  0
 14 16  2  0
 13  8  1  0
M  END
