CVD-0003370|dock_bobby27042020.16|mol2|43|dock3
     RDKit          3D

 19 21  0  0  0  0  0  0  0  0999 V2000
   14.1259   -2.2652   25.5214 C   0  0  0  0  0  0  0  0  0  0  0  0
   13.5637   -1.4898   24.4171 N   0  0  0  0  0  0  0  0  0  0  0  0
   12.6754   -0.4411   24.9270 C   0  0  0  0  0  0  0  0  0  0  0  0
   12.1270    0.3866   23.7795 C   0  0  0  0  0  0  0  0  0  0  0  0
   11.4092   -0.4671   22.8304 N   0  0  0  0  0  0  0  0  0  0  0  0
   12.2539   -1.5635   22.3464 C   0  0  0  0  0  0  0  0  0  0  0  0
   12.8092   -2.3566   23.5155 C   0  0  0  0  0  0  0  0  0  0  0  0
   10.1334   -0.2272   22.4468 C   0  0  0  0  0  0  0  0  0  0  0  0
    9.5065    0.7328   22.8772 O   0  0  0  0  0  0  0  0  0  0  0  0
    9.4704   -1.1630   21.4509 C   0  0  0  0  0  0  0  0  0  0  0  0
    8.0324   -0.8341   21.1829 C   0  0  0  0  0  0  0  0  0  0  0  0
    7.0070   -0.8151   22.0830 C   0  0  0  0  0  0  0  0  0  0  0  0
    5.8317   -0.4683   21.4698 N   0  0  0  0  0  0  0  0  0  0  0  0
    6.0803   -0.2545   20.1459 C   0  0  0  0  0  0  0  0  0  0  0  0
    5.2074    0.1021   19.1889 N   0  0  0  0  0  0  0  0  0  0  0  0
    5.7495    0.2378   17.9756 C   0  0  0  0  0  0  0  0  0  0  0  0
    7.0214    0.0633   17.6231 N   0  0  0  0  0  0  0  0  0  0  0  0
    7.8580   -0.2910   18.6039 C   0  0  0  0  0  0  0  0  0  0  0  0
    7.4487   -0.4734   19.9243 C   0  0  0  0  0  0  0  0  0  0  0  0
  1  2  1  0
  2  3  1  0
  3  4  1  0
  4  5  1  0
  5  6  1  0
  6  7  1  0
  5  8  1  0
  8  9  2  0
  8 10  1  0
 10 11  1  0
 11 12  2  0
 12 13  1  0
 13 14  1  0
 14 15  2  0
 15 16  1  0
 16 17  2  0
 17 18  1  0
 18 19  2  0
  7  2  1  0
 19 11  1  0
 19 14  1  0
M  END
