CVD-0001370|dock_bobby27042020.38|mol2|23|dock2
     RDKit          3D

 24 26  0  0  0  0  0  0  0  0999 V2000
   11.6819   -3.9969   24.7005 F   0  0  0  0  0  0  0  0  0  0  0  0
   10.5263   -3.9850   23.9971 C   0  0  0  0  0  0  0  0  0  0  0  0
    9.5794   -4.9022   24.3756 C   0  0  0  0  0  0  0  0  0  0  0  0
    8.3718   -4.9117   23.7088 C   0  0  0  0  0  0  0  0  0  0  0  0
    8.1460   -4.0442   22.6562 C   0  0  0  0  0  0  0  0  0  0  0  0
    9.1326   -3.1401   22.2526 C   0  0  0  0  0  0  0  0  0  0  0  0
    8.9529   -2.2981   21.1207 N   0  0  0  0  0  0  0  0  0  0  0  0
    7.8254   -1.6260   20.7041 C   0  0  0  0  0  0  0  0  0  0  0  0
    6.7444   -1.6499   21.2841 O   0  0  0  0  0  0  0  0  0  0  0  0
    8.0672   -0.9134   19.5518 N   0  0  0  0  0  0  0  0  0  0  0  0
    7.2110   -0.0839   18.7843 C   0  0  0  0  0  0  0  0  0  0  0  0
    5.8529    0.0914   19.0338 C   0  0  0  0  0  0  0  0  0  0  0  0
    5.1162    0.9292   18.2142 C   0  0  0  0  0  0  0  0  0  0  0  0
    5.7504    1.5664   17.1729 C   0  0  0  0  0  0  0  0  0  0  0  0
    7.0483    1.4186   16.9089 N   0  0  0  0  0  0  0  0  0  0  0  0
    7.7504    0.6080   17.7058 C   0  0  0  0  0  0  0  0  0  0  0  0
   10.3620   -3.0607   22.9682 C   0  0  0  0  0  0  0  0  0  0  0  0
   11.4226   -2.0568   22.6637 C   0  0  0  0  0  0  0  0  0  0  0  0
   12.7588   -2.3533   22.6753 C   0  0  0  0  0  0  0  0  0  0  0  0
   13.6997   -1.3536   22.3778 C   0  0  0  0  0  0  0  0  0  0  0  0
   13.3082   -0.0806   22.0762 C   0  0  0  0  0  0  0  0  0  0  0  0
   11.9211    0.2671   22.0581 C   0  0  0  0  0  0  0  0  0  0  0  0
   11.4668    1.3911   21.8008 O   0  0  0  0  0  0  0  0  0  0  0  0
   11.0524   -0.7634   22.3594 N   0  0  0  0  0  0  0  0  0  0  0  0
  1  2  1  0
  2  3  2  0
  3  4  1  0
  4  5  2  0
  5  6  1  0
  6  7  1  0
  7  8  1  0
  8  9  2  0
  8 10  1  0
 10 11  1  0
 11 12  2  0
 12 13  1  0
 13 14  2  0
 14 15  1  0
 15 16  2  0
  6 17  2  0
 17 18  1  0
 18 19  2  0
 19 20  1  0
 20 21  2  0
 21 22  1  0
 22 23  2  0
 22 24  1  0
 17  2  1  0
 24 18  1  0
 16 11  1  0
M  END
