CVD-0003474|dock_bobby27042020.30|mol2|44|dock1
     RDKit          3D

 27 29  0  0  0  0  0  0  0  0999 V2000
    5.0335    2.0840   18.9742 Cl  0  0  0  0  0  0  0  0  0  0  0  0
    6.0436    0.7073   18.5140 C   0  0  0  0  0  0  0  0  0  0  0  0
    5.8815   -0.4304   19.5043 C   0  0  0  0  0  0  0  0  0  0  0  0
    5.3981   -1.4947   19.1391 O   0  0  0  0  0  0  0  0  0  0  0  0
    6.2862   -0.2440   20.7834 N   0  0  0  0  0  0  0  0  0  0  0  0
    6.1554   -1.3222   21.7579 C   0  0  0  0  0  0  0  0  0  0  0  0
    7.5169   -1.6614   22.3475 C   0  0  0  0  0  0  0  0  0  0  0  0
    8.2096   -0.4250   22.9408 C   0  0  0  0  0  0  0  0  0  0  0  0
    9.5281   -0.7603   23.4671 N   0  0  0  0  0  0  0  0  0  0  0  0
   10.5258   -1.1852   22.6787 C   0  0  0  0  0  0  0  0  0  0  0  0
   10.3621   -1.3123   21.4690 O   0  0  0  0  0  0  0  0  0  0  0  0
   11.8643   -1.5119   23.2772 C   0  0  0  0  0  0  0  0  0  0  0  0
   12.6429   -2.4943   22.6744 C   0  0  0  0  0  0  0  0  0  0  0  0
   13.8841   -2.8317   23.1869 C   0  0  0  0  0  0  0  0  0  0  0  0
   14.3669   -2.1941   24.3086 C   0  0  0  0  0  0  0  0  0  0  0  0
   13.6086   -1.2188   24.9187 C   0  0  0  0  0  0  0  0  0  0  0  0
   12.3659   -0.8764   24.4113 C   0  0  0  0  0  0  0  0  0  0  0  0
    8.2996    0.6719   21.8625 C   0  0  0  0  0  0  0  0  0  0  0  0
    6.9106    0.9737   21.3050 C   0  0  0  0  0  0  0  0  0  0  0  0
    8.9226    1.9033   22.3687 N   0  0  0  0  0  0  0  0  0  0  0  0
   10.3331    1.7751   22.7483 C   0  0  0  0  0  0  0  0  0  0  0  0
   11.0556    3.1005   22.7381 C   0  0  0  0  0  0  0  0  0  0  0  0
   10.3526    4.2919   22.8289 C   0  0  0  0  0  0  0  0  0  0  0  0
   11.0154    5.5079   22.8228 C   0  0  0  0  0  0  0  0  0  0  0  0
   12.3897    5.5466   22.7267 C   0  0  0  0  0  0  0  0  0  0  0  0
   13.1010    4.3695   22.6371 C   0  0  0  0  0  0  0  0  0  0  0  0
   12.4377    3.1539   22.6433 C   0  0  0  0  0  0  0  0  0  0  0  0
  1  2  1  0
  2  3  1  0
  3  4  2  0
  3  5  1  0
  5  6  1  0
  6  7  1  0
  7  8  1  0
  8  9  1  0
  9 10  1  0
 10 11  2  0
 10 12  1  0
 12 13  2  0
 13 14  1  0
 14 15  2  0
 15 16  1  0
 16 17  2  0
  8 18  1  0
 18 19  1  0
 18 20  1  0
 20 21  1  0
 21 22  1  0
 22 23  2  0
 23 24  1  0
 24 25  2  0
 25 26  1  0
 26 27  2  0
 19  5  1  0
 27 22  1  0
 17 12  1  0
M  END
