CVD-0001451|dock_bobby27042020.38|mol2|9|dock3
     RDKit          3D

 23 24  0  0  0  0  0  0  0  0999 V2000
    8.5017   -5.5253   25.7268 C   0  0  0  0  0  0  0  0  0  0  0  0
    8.6995   -4.0897   26.1159 C   0  0  0  0  0  0  0  0  0  0  0  0
    8.7443   -3.7482   27.2924 O   0  0  0  0  0  0  0  0  0  0  0  0
    8.8166   -3.1734   25.1242 N   0  0  0  0  0  0  0  0  0  0  0  0
    8.9987   -1.7433   25.3818 C   0  0  0  0  0  0  0  0  0  0  0  0
   10.2253   -1.2255   24.6538 C   0  0  0  0  0  0  0  0  0  0  0  0
   10.1010   -1.4690   23.2136 N   0  0  0  0  0  0  0  0  0  0  0  0
   11.2637   -0.9358   22.5021 C   0  0  0  0  0  0  0  0  0  0  0  0
   11.6450    0.4721   22.9261 C   0  0  0  0  0  0  0  0  0  0  0  0
   12.6673    0.6716   23.5734 O   0  0  0  0  0  0  0  0  0  0  0  0
   10.7559    1.4134   22.5255 N   0  0  0  0  0  0  0  0  0  0  0  0
   10.7289    2.8178   22.7136 C   0  0  0  0  0  0  0  0  0  0  0  0
    9.5491    3.5381   22.8843 C   0  0  0  0  0  0  0  0  0  0  0  0
    9.5898    4.9110   23.0629 C   0  0  0  0  0  0  0  0  0  0  0  0
   10.7977    5.5860   23.0753 C   0  0  0  0  0  0  0  0  0  0  0  0
   11.9687    4.8675   22.9076 C   0  0  0  0  0  0  0  0  0  0  0  0
   11.9451    3.4934   22.7256 C   0  0  0  0  0  0  0  0  0  0  0  0
   13.5219    5.7106   22.9142 S   0  0  0  0  0  0  0  0  0  0  0  0
   14.0054    5.8949   21.3992 N   0  0  0  0  0  0  0  0  0  0  0  0
   13.2956    7.0198   23.4488 O   0  0  0  0  0  0  0  0  0  0  0  0
   14.4706    4.8541   23.5603 O   0  0  0  0  0  0  0  0  0  0  0  0
    9.9741   -2.9055   22.9822 C   0  0  0  0  0  0  0  0  0  0  0  0
    8.7486   -3.4576   23.6874 C   0  0  0  0  0  0  0  0  0  0  0  0
  1  2  1  0
  2  3  2  0
  2  4  1  0
  4  5  1  0
  5  6  1  0
  6  7  1  0
  7  8  1  0
  8  9  1  0
  9 10  2  0
  9 11  1  0
 11 12  1  0
 12 13  2  0
 13 14  1  0
 14 15  2  0
 15 16  1  0
 16 17  2  0
 16 18  1  0
 18 19  1  0
 18 20  2  0
 18 21  2  0
  7 22  1  0
 22 23  1  0
 23  4  1  0
 17 12  1  0
M  END
