CVD-0000284|dock_bobby27042020.56|mol2|30|dock2
     RDKit          3D

 23 25  0  0  0  0  0  0  0  0999 V2000
   11.6032   -2.6796   23.5109 O   0  0  0  0  0  0  0  0  0  0  0  0
   11.3079   -2.5178   22.3304 C   0  0  0  0  0  0  0  0  0  0  0  0
   12.2523   -2.3101   21.3917 N   0  0  0  0  0  0  0  0  0  0  0  0
   13.6538   -2.2714   21.7496 C   0  0  0  0  0  0  0  0  0  0  0  0
   13.8868   -1.6471   23.0889 C   0  0  0  0  0  0  0  0  0  0  0  0
   14.5019   -2.2099   24.1795 C   0  0  0  0  0  0  0  0  0  0  0  0
   14.5405   -1.3335   25.2559 C   0  0  0  0  0  0  0  0  0  0  0  0
   14.0054   -0.1355   25.0903 N   0  0  0  0  0  0  0  0  0  0  0  0
   13.4173   -0.0672   23.5283 S   0  0  0  0  0  0  0  0  0  0  0  0
   10.0371   -2.5225   21.8086 N   0  0  0  0  0  0  0  0  0  0  0  0
    8.7797   -2.7035   22.4373 C   0  0  0  0  0  0  0  0  0  0  0  0
    8.5604   -3.6245   23.4588 C   0  0  0  0  0  0  0  0  0  0  0  0
    7.3014   -3.7435   24.0238 C   0  0  0  0  0  0  0  0  0  0  0  0
    6.2556   -2.9524   23.5815 C   0  0  0  0  0  0  0  0  0  0  0  0
    6.4534   -2.0298   22.5681 C   0  0  0  0  0  0  0  0  0  0  0  0
    5.3175   -1.1650   22.0767 C   0  0  0  0  0  0  0  0  0  0  0  0
    5.4712   -0.7544   20.6796 N   0  0  0  0  0  0  0  0  0  0  0  0
    5.7564    0.6308   20.3077 C   0  0  0  0  0  0  0  0  0  0  0  0
    5.7478    0.6155   18.7897 C   0  0  0  0  0  0  0  0  0  0  0  0
    5.7157   -0.8482   18.3795 C   0  0  0  0  0  0  0  0  0  0  0  0
    5.4352   -1.5844   19.6599 C   0  0  0  0  0  0  0  0  0  0  0  0
    5.2172   -2.7851   19.7613 O   0  0  0  0  0  0  0  0  0  0  0  0
    7.7174   -1.9163   22.0049 C   0  0  0  0  0  0  0  0  0  0  0  0
  1  2  2  0
  2  3  1  0
  3  4  1  0
  4  5  1  0
  5  6  2  0
  6  7  1  0
  7  8  2  0
  8  9  1  0
  2 10  1  0
 10 11  1  0
 11 12  2  0
 12 13  1  0
 13 14  2  0
 14 15  1  0
 15 16  1  0
 16 17  1  0
 17 18  1  0
 18 19  1  0
 19 20  1  0
 20 21  1  0
 21 22  2  0
 15 23  2  0
  9  5  1  0
 23 11  1  0
 21 17  1  0
M  END
