CVD-0002802|dock_bobby27042020.76|mol2|4|dock3
     RDKit          3D

 25 27  0  0  0  0  0  0  0  0999 V2000
   13.7243   -1.9020   20.4499 N   0  0  0  0  0  0  0  0  0  0  0  0
   13.7688   -1.7502   21.7641 C   0  0  0  0  0  0  0  0  0  0  0  0
   14.8218   -1.5450   22.3746 O   0  0  0  0  0  0  0  0  0  0  0  0
   12.4514   -1.8408   22.4937 C   0  0  0  0  0  0  0  0  0  0  0  0
   12.3026   -0.8919   23.6812 C   0  0  0  0  0  0  0  0  0  0  0  0
   12.0144    0.5355   23.2654 C   0  0  0  0  0  0  0  0  0  0  0  0
   13.1011    1.4037   23.1974 C   0  0  0  0  0  0  0  0  0  0  0  0
   12.9497    2.7189   22.7964 C   0  0  0  0  0  0  0  0  0  0  0  0
   11.7022    3.1895   22.4542 C   0  0  0  0  0  0  0  0  0  0  0  0
   10.6031    2.3512   22.5253 C   0  0  0  0  0  0  0  0  0  0  0  0
   10.7349    1.0252   22.9427 C   0  0  0  0  0  0  0  0  0  0  0  0
    9.4752    0.2272   23.0054 C   0  0  0  0  0  0  0  0  0  0  0  0
    9.0065   -0.2247   24.2376 C   0  0  0  0  0  0  0  0  0  0  0  0
    7.8267   -0.9648   24.2882 C   0  0  0  0  0  0  0  0  0  0  0  0
    7.3369   -1.4330   25.4495 N   0  0  0  0  0  0  0  0  0  0  0  0
    7.1118   -1.2511   23.1789 N   0  0  0  0  0  0  0  0  0  0  0  0
    7.5516   -0.8094   21.9946 C   0  0  0  0  0  0  0  0  0  0  0  0
    6.7396   -1.1257   20.9151 N   0  0  0  0  0  0  0  0  0  0  0  0
    6.2604   -0.3888   19.8122 C   0  0  0  0  0  0  0  0  0  0  0  0
    5.6040   -0.9830   18.7386 C   0  0  0  0  0  0  0  0  0  0  0  0
    5.1320   -0.1970   17.7016 C   0  0  0  0  0  0  0  0  0  0  0  0
    5.3484    1.1602   17.7474 C   0  0  0  0  0  0  0  0  0  0  0  0
    5.9992    1.7587   18.7440 N   0  0  0  0  0  0  0  0  0  0  0  0
    6.4372    0.9892   19.7447 C   0  0  0  0  0  0  0  0  0  0  0  0
    8.7434   -0.0963   21.8625 C   0  0  0  0  0  0  0  0  0  0  0  0
  1  2  1  0
  2  3  2  0
  2  4  1  0
  4  5  1  0
  5  6  1  0
  6  7  2  0
  7  8  1  0
  8  9  2  0
  9 10  1  0
 10 11  2  0
 11 12  1  0
 12 13  2  0
 13 14  1  0
 14 15  1  0
 14 16  2  0
 16 17  1  0
 17 18  1  0
 18 19  1  0
 19 20  2  0
 20 21  1  0
 21 22  2  0
 22 23  1  0
 23 24  2  0
 17 25  2  0
 11  6  1  0
 25 12  1  0
 24 19  1  0
M  END
