CVD-0001847|dock_bobby27042020.94|mol2|5|dock1
     RDKit          3D

 28 31  0  0  0  0  0  0  0  0999 V2000
    8.0768   -0.5380   21.3344 C   0  0  0  0  0  0  0  0  0  0  0  0
    9.1520    0.4721   21.6071 C   0  0  0  0  0  0  0  0  0  0  0  0
    9.5714    1.1709   20.6913 O   0  0  0  0  0  0  0  0  0  0  0  0
    9.7268    0.6633   22.8869 N   0  0  0  0  0  0  0  0  0  0  0  0
    9.4099   -0.0195   24.1219 C   0  0  0  0  0  0  0  0  0  0  0  0
    8.9626    0.4861   25.2877 C   0  0  0  0  0  0  0  0  0  0  0  0
    8.7882   -0.5090   26.2111 N   0  0  0  0  0  0  0  0  0  0  0  0
    9.1259   -1.7019   25.6497 C   0  0  0  0  0  0  0  0  0  0  0  0
    9.0893   -2.9100   26.2365 N   0  0  0  0  0  0  0  0  0  0  0  0
    9.4764   -3.9160   25.4505 C   0  0  0  0  0  0  0  0  0  0  0  0
    9.8820   -3.8482   24.1860 N   0  0  0  0  0  0  0  0  0  0  0  0
    9.9032   -2.6276   23.6414 C   0  0  0  0  0  0  0  0  0  0  0  0
    9.5298   -1.4669   24.3249 C   0  0  0  0  0  0  0  0  0  0  0  0
   10.7526    1.6859   22.9158 C   0  0  0  0  0  0  0  0  0  0  0  0
   10.3633    3.0391   22.8019 C   0  0  0  0  0  0  0  0  0  0  0  0
   11.3857    3.9890   22.8482 C   0  0  0  0  0  0  0  0  0  0  0  0
   12.6864    3.5691   23.0136 C   0  0  0  0  0  0  0  0  0  0  0  0
   13.0537    2.2900   23.1269 N   0  0  0  0  0  0  0  0  0  0  0  0
   12.1133    1.3330   23.0574 C   0  0  0  0  0  0  0  0  0  0  0  0
   12.7221   -0.0053   23.1458 C   0  0  0  0  0  0  0  0  0  0  0  0
   13.4771   -0.5125   24.1633 C   0  0  0  0  0  0  0  0  0  0  0  0
   13.8916   -1.8267   23.9006 C   0  0  0  0  0  0  0  0  0  0  0  0
   14.6494   -2.5247   24.7749 F   0  0  0  0  0  0  0  0  0  0  0  0
   13.4822   -2.3401   22.7201 C   0  0  0  0  0  0  0  0  0  0  0  0
   12.5487   -1.1666   21.8921 S   0  0  0  0  0  0  0  0  0  0  0  0
    8.9601    3.5202   22.6410 C   0  0  0  0  0  0  0  0  0  0  0  0
    8.5710    4.8825   23.1222 C   0  0  0  0  0  0  0  0  0  0  0  0
    8.0989    2.8392   22.1105 O   0  0  0  0  0  0  0  0  0  0  0  0
  1  2  1  0
  2  3  2  0
  2  4  1  0
  4  5  1  0
  5  6  2  0
  6  7  1  0
  7  8  1  0
  8  9  2  0
  9 10  1  0
 10 11  2  0
 11 12  1  0
 12 13  2  0
  4 14  1  0
 14 15  2  0
 15 16  1  0
 16 17  2  0
 17 18  1  0
 18 19  2  0
 19 20  1  0
 20 21  2  0
 21 22  1  0
 22 23  1  0
 22 24  2  0
 24 25  1  0
 15 26  1  0
 26 27  1  0
 26 28  2  0
 13  5  1  0
 19 14  1  0
 25 20  1  0
 13  8  1  0
M  END
