CVD-0002769|dock_bobby27042020.47|mol2|24|dock2
     RDKit          3D

 27 29  0  0  0  0  0  0  0  0999 V2000
   14.4589   -1.8751   24.1820 N   0  0  0  0  0  0  0  0  0  0  0  0
   13.5179   -2.1693   22.9206 S   0  0  0  0  0  0  0  0  0  0  0  0
   12.6597   -3.2589   23.2776 O   0  0  0  0  0  0  0  0  0  0  0  0
   14.3712   -2.3062   21.7785 O   0  0  0  0  0  0  0  0  0  0  0  0
   12.4914   -0.7572   22.6462 C   0  0  0  0  0  0  0  0  0  0  0  0
   13.0139    0.5165   22.7809 C   0  0  0  0  0  0  0  0  0  0  0  0
   12.2020    1.6373   22.6110 C   0  0  0  0  0  0  0  0  0  0  0  0
   12.9301    2.9509   22.6872 C   0  0  0  0  0  0  0  0  0  0  0  0
   13.8547    3.1704   21.9105 O   0  0  0  0  0  0  0  0  0  0  0  0
   12.5526    3.8760   23.5804 N   0  0  0  0  0  0  0  0  0  0  0  0
   13.2297    5.1618   23.7073 C   0  0  0  0  0  0  0  0  0  0  0  0
   13.3890    5.9184   22.4883 C   0  0  0  0  0  0  0  0  0  0  0  0
   12.3685    6.3332   23.4990 C   0  0  0  0  0  0  0  0  0  0  0  0
   11.0156    6.1493   23.1655 F   0  0  0  0  0  0  0  0  0  0  0  0
   10.8203    1.4744   22.4000 C   0  0  0  0  0  0  0  0  0  0  0  0
    9.6390    2.9474   22.5396 Br  0  0  0  0  0  0  0  0  0  0  0  0
   10.3326    0.1838   22.1236 C   0  0  0  0  0  0  0  0  0  0  0  0
   11.1628   -0.9227   22.2983 C   0  0  0  0  0  0  0  0  0  0  0  0
    8.9451   -0.1481   21.6485 C   0  0  0  0  0  0  0  0  0  0  0  0
    8.3999   -1.1696   22.0554 O   0  0  0  0  0  0  0  0  0  0  0  0
    8.3258    0.6552   20.7724 N   0  0  0  0  0  0  0  0  0  0  0  0
    6.9668    0.3901   20.3002 C   0  0  0  0  0  0  0  0  0  0  0  0
    6.0237    1.5659   20.6278 C   0  0  0  0  0  0  0  0  0  0  0  0
    4.6128    1.3509   20.0833 C   0  0  0  0  0  0  0  0  0  0  0  0
    4.6340    1.0570   18.5888 C   0  0  0  0  0  0  0  0  0  0  0  0
    5.5410   -0.1239   18.2741 C   0  0  0  0  0  0  0  0  0  0  0  0
    6.9573    0.1161   18.7866 C   0  0  0  0  0  0  0  0  0  0  0  0
  1  2  1  0
  2  3  2  0
  2  4  2  0
  2  5  1  0
  5  6  2  0
  6  7  1  0
  7  8  1  0
  8  9  2  0
  8 10  1  0
 11 10  1  0
 11 12  1  0
 12 13  1  0
 13 14  1  0
  7 15  2  0
 15 16  1  0
 15 17  1  0
 17 18  2  0
 17 19  1  0
 19 20  2  0
 19 21  1  0
 21 22  1  0
 22 23  1  0
 23 24  1  0
 24 25  1  0
 25 26  1  0
 26 27  1  0
 18  5  1  0
 27 22  1  0
 13 11  1  0
M  END
