CVD-0001856|dock_bobby27042020.65|mol2|39|dock3
     RDKit          3D

 18 19  0  0  0  0  0  0  0  0999 V2000
    7.3201    2.9436   23.3063 C   0  0  0  0  0  0  0  0  0  0  0  0
    7.8611    2.3439   22.0463 C   0  0  0  0  0  0  0  0  0  0  0  0
    9.0978    1.6206   22.2898 N   0  0  0  0  0  0  0  0  0  0  0  0
   10.2882    2.2295   22.4116 C   0  0  0  0  0  0  0  0  0  0  0  0
   10.3131    3.5732   22.3172 N   0  0  0  0  0  0  0  0  0  0  0  0
   11.4911    4.1865   22.4856 C   0  0  0  0  0  0  0  0  0  0  0  0
   12.6866    3.5208   22.7381 C   0  0  0  0  0  0  0  0  0  0  0  0
   12.6665    2.1321   22.8111 C   0  0  0  0  0  0  0  0  0  0  0  0
   11.4620    1.4764   22.6341 C   0  0  0  0  0  0  0  0  0  0  0  0
   11.3759    0.0867   22.6723 O   0  0  0  0  0  0  0  0  0  0  0  0
   12.4000   -0.6837   23.2265 C   0  0  0  0  0  0  0  0  0  0  0  0
   12.9296   -0.3965   24.4758 C   0  0  0  0  0  0  0  0  0  0  0  0
   13.9457   -1.1903   24.9819 C   0  0  0  0  0  0  0  0  0  0  0  0
   14.4281   -2.2573   24.2552 C   0  0  0  0  0  0  0  0  0  0  0  0
   13.8975   -2.5396   23.0153 C   0  0  0  0  0  0  0  0  0  0  0  0
   12.8818   -1.7557   22.4948 C   0  0  0  0  0  0  0  0  0  0  0  0
   13.9189    4.2477   22.9192 C   0  0  0  0  0  0  0  0  0  0  0  0
   14.8783    4.8520   23.0584 N   0  0  0  0  0  0  0  0  0  0  0  0
  1  2  1  0
  2  3  1  0
  3  4  1  0
  4  5  2  0
  5  6  1  0
  6  7  2  0
  7  8  1  0
  8  9  2  0
  9 10  1  0
 10 11  1  0
 11 12  2  0
 12 13  1  0
 13 14  2  0
 14 15  1  0
 15 16  2  0
  7 17  1  0
 17 18  3  0
  9  4  1  0
 16 11  1  0
M  END
