CVD-0002742|dock_bobby27042020.33|mol2|13|dock2
     RDKit          3D

 21 22  0  0  0  0  0  0  0  0999 V2000
    9.9406    5.9016   22.6377 Cl  0  0  0  0  0  0  0  0  0  0  0  0
   11.0335    4.5458   22.6294 C   0  0  0  0  0  0  0  0  0  0  0  0
   12.3329    4.7306   22.2113 C   0  0  0  0  0  0  0  0  0  0  0  0
   13.1926    3.6452   22.2095 C   0  0  0  0  0  0  0  0  0  0  0  0
   12.7448    2.4014   22.6219 C   0  0  0  0  0  0  0  0  0  0  0  0
   11.4340    2.2217   23.0409 C   0  0  0  0  0  0  0  0  0  0  0  0
   10.5758    3.3113   23.0426 C   0  0  0  0  0  0  0  0  0  0  0  0
   10.9476    0.8521   23.4966 C   0  0  0  0  0  0  0  0  0  0  0  0
    9.7763    0.3572   22.6225 C   0  0  0  0  0  0  0  0  0  0  0  0
    9.3466   -1.0395   22.9527 C   0  0  0  0  0  0  0  0  0  0  0  0
    9.3764   -2.0668   22.1330 C   0  0  0  0  0  0  0  0  0  0  0  0
    8.9447   -3.3720   22.5344 C   0  0  0  0  0  0  0  0  0  0  0  0
    8.6501   -4.4311   22.8527 N   0  0  0  0  0  0  0  0  0  0  0  0
   12.0990   -0.1449   23.4897 C   0  0  0  0  0  0  0  0  0  0  0  0
   12.7987   -0.4226   24.6560 C   0  0  0  0  0  0  0  0  0  0  0  0
   13.8489   -1.3257   24.6563 C   0  0  0  0  0  0  0  0  0  0  0  0
   14.2151   -1.9652   23.4844 C   0  0  0  0  0  0  0  0  0  0  0  0
   13.5238   -1.6956   22.3083 C   0  0  0  0  0  0  0  0  0  0  0  0
   12.4688   -0.7859   22.3164 C   0  0  0  0  0  0  0  0  0  0  0  0
   13.8942   -2.3536   21.0796 C   0  0  0  0  0  0  0  0  0  0  0  0
   14.1787   -2.8474   20.0897 N   0  0  0  0  0  0  0  0  0  0  0  0
  1  2  1  0
  2  3  2  0
  3  4  1  0
  4  5  2  0
  5  6  1  0
  6  7  2  0
  6  8  1  0
  8  9  1  0
  9 10  1  0
 10 11  2  0
 11 12  1  0
 12 13  3  0
  8 14  1  0
 14 15  2  0
 15 16  1  0
 16 17  2  0
 17 18  1  0
 18 19  2  0
 18 20  1  0
 20 21  3  0
  7  2  1  0
 19 14  1  0
M  END
