CVD-0001680|dock_bobby27042020.94|mol2|29|dock3
     RDKit          3D

 20 21  0  0  0  0  0  0  0  0999 V2000
   14.5764   -2.1058   25.2974 C   0  0  0  0  0  0  0  0  0  0  0  0
   13.4355   -1.1351   25.3895 C   0  0  0  0  0  0  0  0  0  0  0  0
   13.4499   -0.2221   26.2073 O   0  0  0  0  0  0  0  0  0  0  0  0
   12.3869   -1.2763   24.5400 N   0  0  0  0  0  0  0  0  0  0  0  0
   12.2494   -2.3192   23.5250 C   0  0  0  0  0  0  0  0  0  0  0  0
   11.9697   -1.7006   22.1720 C   0  0  0  0  0  0  0  0  0  0  0  0
   10.8062   -0.8202   22.2528 N   0  0  0  0  0  0  0  0  0  0  0  0
   10.9436    0.2227   23.2679 C   0  0  0  0  0  0  0  0  0  0  0  0
   11.2235   -0.3959   24.6208 C   0  0  0  0  0  0  0  0  0  0  0  0
    9.7648   -0.9605   21.4092 C   0  0  0  0  0  0  0  0  0  0  0  0
    9.7333   -1.8771   20.6106 O   0  0  0  0  0  0  0  0  0  0  0  0
    8.6231    0.0466   21.4633 C   0  0  0  0  0  0  0  0  0  0  0  0
    9.2096    1.2913   21.2439 F   0  0  0  0  0  0  0  0  0  0  0  0
    7.6187   -0.2005   20.3484 C   0  0  0  0  0  0  0  0  0  0  0  0
    7.5300    0.7520   19.4142 N   0  0  0  0  0  0  0  0  0  0  0  0
    6.6509    0.5652   18.4189 C   0  0  0  0  0  0  0  0  0  0  0  0
    5.8391   -0.5422   18.3045 C   0  0  0  0  0  0  0  0  0  0  0  0
    5.9281   -1.5287   19.2712 C   0  0  0  0  0  0  0  0  0  0  0  0
    6.8305   -1.3496   20.3031 C   0  0  0  0  0  0  0  0  0  0  0  0
    6.9638   -2.5675   21.5291 Cl  0  0  0  0  0  0  0  0  0  0  0  0
  1  2  1  0
  2  3  2  0
  2  4  1  0
  4  5  1  0
  5  6  1  0
  6  7  1  0
  7  8  1  0
  8  9  1  0
  7 10  1  0
 10 11  2  0
 10 12  1  0
 12 13  1  0
 12 14  1  0
 14 15  2  0
 15 16  1  0
 16 17  2  0
 17 18  1  0
 18 19  2  0
 19 20  1  0
  9  4  1  0
 19 14  1  0
M  END
