CVD-0003196|dock_bobby27042020.17|mol2|14|dock2
     RDKit          3D

 25 26  0  0  0  0  0  0  0  0999 V2000
   11.8572    6.7842   25.4545 C   0  0  0  0  0  0  0  0  0  0  0  0
   12.6172    6.3920   24.2216 C   0  0  0  0  0  0  0  0  0  0  0  0
   13.1803    7.2218   23.5146 O   0  0  0  0  0  0  0  0  0  0  0  0
   12.6312    5.0900   23.9295 N   0  0  0  0  0  0  0  0  0  0  0  0
   13.3104    4.5556   22.7578 C   0  0  0  0  0  0  0  0  0  0  0  0
   13.2555    3.0391   22.7145 C   0  0  0  0  0  0  0  0  0  0  0  0
   11.8461    2.5381   22.4905 C   0  0  0  0  0  0  0  0  0  0  0  0
   10.7991    3.4179   22.4160 C   0  0  0  0  0  0  0  0  0  0  0  0
    9.5180    2.9432   22.2079 C   0  0  0  0  0  0  0  0  0  0  0  0
    9.2015    1.6681   22.0682 N   0  0  0  0  0  0  0  0  0  0  0  0
   10.2180    0.7582   22.1345 C   0  0  0  0  0  0  0  0  0  0  0  0
    9.8990   -0.6268   21.9852 C   0  0  0  0  0  0  0  0  0  0  0  0
    8.4730   -1.0760   21.7551 C   0  0  0  0  0  0  0  0  0  0  0  0
    8.0236   -0.8102   20.3296 C   0  0  0  0  0  0  0  0  0  0  0  0
    6.6662   -1.3231   20.1079 N   0  0  0  0  0  0  0  0  0  0  0  0
    5.9812   -1.1565   18.6679 S   0  0  0  0  0  0  0  0  0  0  0  0
    5.1228    0.3699   18.6617 C   0  0  0  0  0  0  0  0  0  0  0  0
    5.0195   -2.2071   18.5373 O   0  0  0  0  0  0  0  0  0  0  0  0
    7.0384   -1.0750   17.7079 O   0  0  0  0  0  0  0  0  0  0  0  0
   10.9164   -1.5526   22.0491 C   0  0  0  0  0  0  0  0  0  0  0  0
   12.2418   -1.1760   22.2559 C   0  0  0  0  0  0  0  0  0  0  0  0
   12.5661    0.1546   22.4025 C   0  0  0  0  0  0  0  0  0  0  0  0
   11.5632    1.1541   22.3454 C   0  0  0  0  0  0  0  0  0  0  0  0
   13.2742   -2.1810   22.3164 C   0  0  0  0  0  0  0  0  0  0  0  0
   14.0940   -2.9723   22.3971 N   0  0  0  0  0  0  0  0  0  0  0  0
  1  2  1  0
  2  3  2  0
  2  4  1  0
  4  5  1  0
  5  6  1  0
  6  7  1  0
  7  8  2  0
  8  9  1  0
  9 10  2  0
 10 11  1  0
 11 12  2  0
 12 13  1  0
 13 14  1  0
 14 15  1  0
 15 16  1  0
 16 17  1  0
 16 18  2  0
 16 19  2  0
 12 20  1  0
 20 21  2  0
 21 22  1  0
 22 23  2  0
 21 24  1  0
 24 25  3  0
 23  7  1  0
 23 11  1  0
M  END
