CVD-0000619|dock_bobby27042020.55|mol2|24|dock3
     RDKit          3D

 24 26  0  0  0  0  0  0  0  0999 V2000
    9.7045    0.8265   22.9780 O   0  0  0  0  0  0  0  0  0  0  0  0
   10.0763    0.0153   22.1374 C   0  0  0  0  0  0  0  0  0  0  0  0
   11.4052   -0.7056   22.2482 C   0  0  0  0  0  0  0  0  0  0  0  0
   12.4615   -0.1093   23.2132 C   0  0  0  0  0  0  0  0  0  0  0  0
   13.7815   -0.7567   22.8027 C   0  0  0  0  0  0  0  0  0  0  0  0
   13.7851   -2.2379   23.1243 C   0  0  0  0  0  0  0  0  0  0  0  0
   13.5056   -2.4862   24.5987 C   0  0  0  0  0  0  0  0  0  0  0  0
   12.1981   -1.8355   25.0202 C   0  0  0  0  0  0  0  0  0  0  0  0
   12.1810   -0.3484   24.6901 C   0  0  0  0  0  0  0  0  0  0  0  0
   12.6397    1.3346   23.0152 C   0  0  0  0  0  0  0  0  0  0  0  0
   12.8156    2.5104   22.9084 C   0  0  0  0  0  0  0  0  0  0  0  0
   13.0575    3.9252   22.8515 C   0  0  0  0  0  0  0  0  0  0  0  0
   14.1905    4.4308   22.2236 C   0  0  0  0  0  0  0  0  0  0  0  0
   14.3750    5.7991   22.1974 C   0  0  0  0  0  0  0  0  0  0  0  0
   13.5275    6.6736   22.7411 N   0  0  0  0  0  0  0  0  0  0  0  0
   12.4453    6.1750   23.3399 C   0  0  0  0  0  0  0  0  0  0  0  0
   12.1649    4.8254   23.4229 C   0  0  0  0  0  0  0  0  0  0  0  0
    9.3751   -0.3364   21.0320 N   0  0  0  0  0  0  0  0  0  0  0  0
    8.1112    0.0838   20.5474 C   0  0  0  0  0  0  0  0  0  0  0  0
    7.7611   -0.2191   19.2379 C   0  0  0  0  0  0  0  0  0  0  0  0
    6.5316    0.1827   18.7465 C   0  0  0  0  0  0  0  0  0  0  0  0
    5.6851    0.8769   19.5791 C   0  0  0  0  0  0  0  0  0  0  0  0
    5.9910    1.1832   20.8399 N   0  0  0  0  0  0  0  0  0  0  0  0
    7.1808    0.7910   21.3059 C   0  0  0  0  0  0  0  0  0  0  0  0
  1  2  2  0
  2  3  1  0
  3  4  1  0
  4  5  1  0
  5  6  1  0
  6  7  1  0
  7  8  1  0
  8  9  1  0
  4 10  1  0
 10 11  3  0
 11 12  1  0
 12 13  2  0
 13 14  1  0
 14 15  2  0
 15 16  1  0
 16 17  2  0
  2 18  1  0
 18 19  1  0
 19 20  2  0
 20 21  1  0
 21 22  2  0
 22 23  1  0
 23 24  2  0
  9  4  1  0
 17 12  1  0
 24 19  1  0
M  END
