CVD-0002810|dock_bobby27042020.61|mol2|46|dock1
     RDKit          3D

 30 33  0  0  0  0  0  0  0  0999 V2000
   14.0385    5.4847   21.7714 C   0  0  0  0  0  0  0  0  0  0  0  0
   14.0274    4.6319   23.3009 S   0  0  0  0  0  0  0  0  0  0  0  0
   13.3905    5.4684   24.2708 O   0  0  0  0  0  0  0  0  0  0  0  0
   15.3564    4.1724   23.5626 O   0  0  0  0  0  0  0  0  0  0  0  0
   13.1067    3.3313   23.1256 N   0  0  0  0  0  0  0  0  0  0  0  0
   11.6458    3.4712   23.1308 C   0  0  0  0  0  0  0  0  0  0  0  0
   10.9529    2.1305   23.1015 C   0  0  0  0  0  0  0  0  0  0  0  0
   11.2716    1.1681   24.0490 C   0  0  0  0  0  0  0  0  0  0  0  0
   10.6644   -0.0500   24.0573 C   0  0  0  0  0  0  0  0  0  0  0  0
    9.6841   -0.3659   23.0894 C   0  0  0  0  0  0  0  0  0  0  0  0
    9.0023   -1.6004   23.0417 C   0  0  0  0  0  0  0  0  0  0  0  0
    8.0623   -1.8250   22.0625 C   0  0  0  0  0  0  0  0  0  0  0  0
    7.3350   -3.0436   22.0646 N   0  0  0  0  0  0  0  0  0  0  0  0
    8.1169   -4.2672   21.9265 C   0  0  0  0  0  0  0  0  0  0  0  0
    7.2653   -5.5046   21.9122 C   0  0  0  0  0  0  0  0  0  0  0  0
    6.3906   -5.5800   23.0596 N   0  0  0  0  0  0  0  0  0  0  0  0
    5.6478   -6.8300   23.0477 O   0  0  0  0  0  0  0  0  0  0  0  0
    5.5103   -4.4297   22.9958 C   0  0  0  0  0  0  0  0  0  0  0  0
    6.2981   -3.1553   23.0813 C   0  0  0  0  0  0  0  0  0  0  0  0
    7.8517   -0.8333   21.0718 C   0  0  0  0  0  0  0  0  0  0  0  0
    6.9892   -1.0177   19.8451 C   0  0  0  0  0  0  0  0  0  0  0  0
    5.9374    0.0637   19.7044 C   0  0  0  0  0  0  0  0  0  0  0  0
    5.8742    0.8745   18.5835 C   0  0  0  0  0  0  0  0  0  0  0  0
    4.8998    1.8531   18.4956 C   0  0  0  0  0  0  0  0  0  0  0  0
    4.0139    1.9906   19.5399 C   0  0  0  0  0  0  0  0  0  0  0  0
    4.0500    1.2264   20.6325 N   0  0  0  0  0  0  0  0  0  0  0  0
    4.9999    0.2882   20.6949 C   0  0  0  0  0  0  0  0  0  0  0  0
    8.4315    0.3507   21.1399 N   0  0  0  0  0  0  0  0  0  0  0  0
    9.3594    0.6010   22.1143 C   0  0  0  0  0  0  0  0  0  0  0  0
   10.0098    1.8568   22.1440 C   0  0  0  0  0  0  0  0  0  0  0  0
  1  2  1  0
  2  3  2  0
  2  4  2  0
  2  5  1  0
  5  6  1  0
  6  7  1  0
  7  8  2  0
  8  9  1  0
  9 10  2  0
 10 11  1  0
 11 12  2  0
 12 13  1  0
 13 14  1  0
 14 15  1  0
 15 16  1  0
 16 17  1  0
 16 18  1  0
 18 19  1  0
 12 20  1  0
 20 21  1  0
 21 22  1  0
 22 23  2  0
 23 24  1  0
 24 25  2  0
 25 26  1  0
 26 27  2  0
 20 28  2  0
 28 29  1  0
 29 30  2  0
 30  7  1  0
 29 10  1  0
 19 13  1  0
 27 22  1  0
M  END
