CVD-0001041|dock_bobby27042020.39|mol2|29|dock3
     RDKit          3D

 29 32  0  0  0  0  0  0  0  0999 V2000
   13.3120    6.6618   23.2239 F   0  0  0  0  0  0  0  0  0  0  0  0
   12.5940    5.5471   22.9199 C   0  0  0  0  0  0  0  0  0  0  0  0
   13.2634    4.4141   22.5508 C   0  0  0  0  0  0  0  0  0  0  0  0
   12.5305    3.2815   22.2425 C   0  0  0  0  0  0  0  0  0  0  0  0
   11.1380    3.2724   22.3350 C   0  0  0  0  0  0  0  0  0  0  0  0
   10.5092    4.4604   22.6980 C   0  0  0  0  0  0  0  0  0  0  0  0
   11.2306    5.6030   22.9935 C   0  0  0  0  0  0  0  0  0  0  0  0
   10.2567    2.0828   22.0603 C   0  0  0  0  0  0  0  0  0  0  0  0
    9.2952    2.2889   21.3399 O   0  0  0  0  0  0  0  0  0  0  0  0
   10.4515    0.8385   22.5568 N   0  0  0  0  0  0  0  0  0  0  0  0
   11.5321    0.4387   23.4543 C   0  0  0  0  0  0  0  0  0  0  0  0
   10.9786   -0.3970   24.5901 C   0  0  0  0  0  0  0  0  0  0  0  0
   10.2467   -1.6188   24.0486 C   0  0  0  0  0  0  0  0  0  0  0  0
    9.1606   -1.1723   23.0726 C   0  0  0  0  0  0  0  0  0  0  0  0
    9.7546   -0.3014   21.9706 C   0  0  0  0  0  0  0  0  0  0  0  0
    9.6562   -2.4404   25.1774 C   0  0  0  0  0  0  0  0  0  0  0  0
    9.0131   -1.9189   26.0846 O   0  0  0  0  0  0  0  0  0  0  0  0
    9.8731   -3.7876   25.1466 N   0  0  0  0  0  0  0  0  0  0  0  0
    9.4890   -4.7896   25.9976 C   0  0  0  0  0  0  0  0  0  0  0  0
   10.1702   -5.4883   26.8576 N   0  0  0  0  0  0  0  0  0  0  0  0
    9.2723   -6.3716   27.4538 N   0  0  0  0  0  0  0  0  0  0  0  0
    8.1257   -6.1427   26.9157 C   0  0  0  0  0  0  0  0  0  0  0  0
    8.1786   -5.1508   25.9804 O   0  0  0  0  0  0  0  0  0  0  0  0
    6.8396   -6.8067   27.1942 C   0  0  0  0  0  0  0  0  0  0  0  0
    6.6313   -7.4451   28.4092 C   0  0  0  0  0  0  0  0  0  0  0  0
    5.4078   -8.0548   28.6258 C   0  0  0  0  0  0  0  0  0  0  0  0
    4.4425   -8.0124   27.6432 C   0  0  0  0  0  0  0  0  0  0  0  0
    4.7380   -7.3564   26.4696 C   0  0  0  0  0  0  0  0  0  0  0  0
    5.9109   -6.7561   26.2271 N   0  0  0  0  0  0  0  0  0  0  0  0
  1  2  1  0
  2  3  2  0
  3  4  1  0
  4  5  2  0
  5  6  1  0
  6  7  2  0
  5  8  1  0
  8  9  2  0
  8 10  1  0
 10 11  1  0
 11 12  1  0
 12 13  1  0
 13 14  1  0
 14 15  1  0
 13 16  1  0
 16 17  2  0
 16 18  1  0
 18 19  1  0
 19 20  2  0
 20 21  1  0
 21 22  2  0
 22 23  1  0
 22 24  1  0
 24 25  2  0
 25 26  1  0
 26 27  2  0
 27 28  1  0
 28 29  2  0
  7  2  1  0
 15 10  1  0
 23 19  1  0
 29 24  1  0
M  END
