CVD-0000154|dock_bobby27042020.85|mol2|21|dock3
     RDKit          3D

 14 14  0  0  0  0  0  0  0  0999 V2000
   12.8193    5.6149   23.7673 C   0  0  0  0  0  0  0  0  0  0  0  0
   13.4696    4.8393   22.3382 S   0  0  0  0  0  0  0  0  0  0  0  0
   12.4489    4.8274   21.3362 O   0  0  0  0  0  0  0  0  0  0  0  0
   14.7224    5.4566   22.0294 O   0  0  0  0  0  0  0  0  0  0  0  0
   13.7785    3.3112   22.7123 N   0  0  0  0  0  0  0  0  0  0  0  0
   12.6880    2.3288   22.7113 C   0  0  0  0  0  0  0  0  0  0  0  0
   13.1263    1.0414   23.3858 C   0  0  0  0  0  0  0  0  0  0  0  0
   12.0216    0.0076   23.4381 C   0  0  0  0  0  0  0  0  0  0  0  0
   11.0625    0.1116   24.4421 C   0  0  0  0  0  0  0  0  0  0  0  0
   10.0290   -0.8036   24.5461 C   0  0  0  0  0  0  0  0  0  0  0  0
    9.9363   -1.8426   23.6461 C   0  0  0  0  0  0  0  0  0  0  0  0
   10.8770   -1.9707   22.6386 C   0  0  0  0  0  0  0  0  0  0  0  0
   11.9168   -1.0543   22.5296 C   0  0  0  0  0  0  0  0  0  0  0  0
   12.8151   -1.2267   21.5208 O   0  0  0  0  0  0  0  0  0  0  0  0
  1  2  1  0
  2  3  2  0
  2  4  2  0
  2  5  1  0
  5  6  1  0
  6  7  1  0
  7  8  1  0
  8  9  2  0
  9 10  1  0
 10 11  2  0
 11 12  1  0
 12 13  2  0
 13 14  1  0
 13  8  1  0
M  END
