CVD-0000532|dock_bobby27042020.41|mol2|14|dock1
     RDKit          3D

 24 27  0  0  0  0  0  0  0  0999 V2000
    7.9218    3.6564   22.3532 C   0  0  0  0  0  0  0  0  0  0  0  0
    8.3097    2.2153   22.2462 C   0  0  0  0  0  0  0  0  0  0  0  0
    9.5531    1.9012   22.5228 N   0  0  0  0  0  0  0  0  0  0  0  0
    9.7510    0.6097   22.0687 N   0  0  0  0  0  0  0  0  0  0  0  0
    8.5893    0.1467   21.5066 C   0  0  0  0  0  0  0  0  0  0  0  0
    8.4386   -1.1694   21.0736 N   0  0  0  0  0  0  0  0  0  0  0  0
    7.3123   -1.8762   21.3399 C   0  0  0  0  0  0  0  0  0  0  0  0
    6.9723   -2.8983   20.7538 O   0  0  0  0  0  0  0  0  0  0  0  0
    6.4842   -1.3496   22.4736 C   0  0  0  0  0  0  0  0  0  0  0  0
    5.2565   -0.0802   21.9421 S   0  0  0  0  0  0  0  0  0  0  0  0
    6.2786    1.0923   20.9495 C   0  0  0  0  0  0  0  0  0  0  0  0
    6.3647    0.5913   19.5038 C   0  0  0  0  0  0  0  0  0  0  0  0
    5.0059    0.5849   18.8272 C   0  0  0  0  0  0  0  0  0  0  0  0
    4.3654    1.9577   18.8661 C   0  0  0  0  0  0  0  0  0  0  0  0
    4.2494    2.4610   20.2950 C   0  0  0  0  0  0  0  0  0  0  0  0
    5.5933    2.4556   21.0006 C   0  0  0  0  0  0  0  0  0  0  0  0
    7.6405    1.1451   21.6002 C   0  0  0  0  0  0  0  0  0  0  0  0
   10.9618   -0.0054   22.5312 C   0  0  0  0  0  0  0  0  0  0  0  0
   12.1504    0.6920   22.7181 C   0  0  0  0  0  0  0  0  0  0  0  0
   13.2794    0.0505   23.1958 C   0  0  0  0  0  0  0  0  0  0  0  0
   13.2283   -1.3000   23.4573 C   0  0  0  0  0  0  0  0  0  0  0  0
   14.6477   -2.1099   24.0590 Cl  0  0  0  0  0  0  0  0  0  0  0  0
   12.0744   -2.0212   23.2499 C   0  0  0  0  0  0  0  0  0  0  0  0
   10.9447   -1.3710   22.7864 C   0  0  0  0  0  0  0  0  0  0  0  0
  1  2  1  0
  2  3  2  0
  3  4  1  0
  4  5  1  0
  5  6  1  0
  6  7  1  0
  7  8  2  0
  7  9  1  0
  9 10  1  0
 10 11  1  0
 11 12  1  0
 12 13  1  0
 13 14  1  0
 14 15  1  0
 15 16  1  0
 11 17  1  0
  4 18  1  0
 18 19  2  0
 19 20  1  0
 20 21  2  0
 21 22  1  0
 21 23  1  0
 23 24  2  0
 17  2  1  0
 24 18  1  0
 17  5  2  0
 16 11  1  0
M  END
