CVD-0003690|dock_bobby27042020.59|mol2|5|dock1
     RDKit          3D

 25 27  0  0  0  0  0  0  0  0999 V2000
    5.8559   -3.9930   21.7977 O   0  0  0  0  0  0  0  0  0  0  0  0
    5.4479   -3.3409   23.0017 C   0  0  0  0  0  0  0  0  0  0  0  0
    5.2470   -4.4035   24.0659 C   0  0  0  0  0  0  0  0  0  0  0  0
    3.7152   -5.2899   23.8221 Cl  0  0  0  0  0  0  0  0  0  0  0  0
    6.4895   -2.2970   23.4135 C   0  0  0  0  0  0  0  0  0  0  0  0
    7.9043   -2.9624   23.3643 C   0  0  0  0  0  0  0  0  0  0  0  0
    8.9339   -2.0146   23.7616 N   0  0  0  0  0  0  0  0  0  0  0  0
    8.9358   -0.8337   22.9009 C   0  0  0  0  0  0  0  0  0  0  0  0
   10.1312    0.0462   23.2856 C   0  0  0  0  0  0  0  0  0  0  0  0
   11.4616   -0.6630   23.2122 C   0  0  0  0  0  0  0  0  0  0  0  0
   11.8776   -1.2578   22.0281 C   0  0  0  0  0  0  0  0  0  0  0  0
   13.1020   -1.9065   21.9607 C   0  0  0  0  0  0  0  0  0  0  0  0
   13.4977   -2.4872   20.7912 O   0  0  0  0  0  0  0  0  0  0  0  0
   13.9265   -1.9689   23.0744 C   0  0  0  0  0  0  0  0  0  0  0  0
   13.5125   -1.3740   24.2571 C   0  0  0  0  0  0  0  0  0  0  0  0
   14.3144   -1.4277   25.3597 O   0  0  0  0  0  0  0  0  0  0  0  0
   12.2885   -0.7247   24.3264 C   0  0  0  0  0  0  0  0  0  0  0  0
    7.6162   -0.0867   23.0187 C   0  0  0  0  0  0  0  0  0  0  0  0
    6.4490   -0.9842   22.6114 C   0  0  0  0  0  0  0  0  0  0  0  0
    6.3057   -1.1156   21.0854 C   0  0  0  0  0  0  0  0  0  0  0  0
    6.5373    0.0874   20.1653 C   0  0  0  0  0  0  0  0  0  0  0  0
    6.4265   -0.2256   18.7578 C   0  0  0  0  0  0  0  0  0  0  0  0
    5.3717    0.7585   18.1641 C   0  0  0  0  0  0  0  0  0  0  0  0
    4.9249    1.5467   19.3518 N   0  0  0  0  0  0  0  0  0  0  0  0
    5.5951    1.1435   20.5644 C   0  0  0  0  0  0  0  0  0  0  0  0
  1  2  1  0
  2  3  1  0
  3  4  1  0
  2  5  1  0
  5  6  1  0
  6  7  1  0
  7  8  1  0
  8  9  1  0
  9 10  1  0
 10 11  2  0
 11 12  1  0
 12 13  1  0
 12 14  2  0
 14 15  1  0
 15 16  1  0
 15 17  2  0
  8 18  1  0
 18 19  1  0
 19 20  1  0
 20 21  1  0
 21 22  1  0
 22 23  1  0
 23 24  1  0
 24 25  1  0
 19  5  1  0
 25 21  1  0
 17 10  1  0
M  END
