CVD-0000355|dock_bobby27042020.13|mol2|17|dock3
     RDKit          3D

 30 32  0  0  0  0  0  0  0  0999 V2000
    9.4019    0.8361   23.7428 C   0  0  0  0  0  0  0  0  0  0  0  0
   10.5330    1.2767   22.8371 C   0  0  0  0  0  0  0  0  0  0  0  0
   10.2943    2.5884   22.3319 N   0  0  0  0  0  0  0  0  0  0  0  0
   11.1432    3.6516   22.5547 C   0  0  0  0  0  0  0  0  0  0  0  0
   12.5193    3.5360   22.3621 C   0  0  0  0  0  0  0  0  0  0  0  0
   13.3350    4.6303   22.5972 C   0  0  0  0  0  0  0  0  0  0  0  0
   12.7636    5.8082   23.0167 C   0  0  0  0  0  0  0  0  0  0  0  0
   11.4493    5.9580   23.2132 N   0  0  0  0  0  0  0  0  0  0  0  0
   10.6869    4.9046   22.9848 C   0  0  0  0  0  0  0  0  0  0  0  0
    8.9927    5.1622   23.2595 Cl  0  0  0  0  0  0  0  0  0  0  0  0
   10.6336    0.3348   21.7829 O   0  0  0  0  0  0  0  0  0  0  0  0
   11.0091   -0.9754   22.2044 C   0  0  0  0  0  0  0  0  0  0  0  0
    9.7688   -1.7937   22.4387 C   0  0  0  0  0  0  0  0  0  0  0  0
    9.7295   -2.7843   23.4138 C   0  0  0  0  0  0  0  0  0  0  0  0
    8.5878   -3.5499   23.6367 C   0  0  0  0  0  0  0  0  0  0  0  0
    8.5536   -4.6243   24.7008 C   0  0  0  0  0  0  0  0  0  0  0  0
    7.7410   -4.2060   25.8955 C   0  0  0  0  0  0  0  0  0  0  0  0
    7.8161   -5.2416   26.9247 N   0  0  0  0  0  0  0  0  0  0  0  0
    9.1860   -5.6305   27.2533 C   0  0  0  0  0  0  0  0  0  0  0  0
    9.9351   -5.9742   26.0002 C   0  0  0  0  0  0  0  0  0  0  0  0
    9.8970   -4.9161   25.0572 O   0  0  0  0  0  0  0  0  0  0  0  0
    6.7473   -5.7966   27.5531 C   0  0  0  0  0  0  0  0  0  0  0  0
    5.6096   -5.4349   27.2569 O   0  0  0  0  0  0  0  0  0  0  0  0
    6.9014   -6.8446   28.6039 C   0  0  0  0  0  0  0  0  0  0  0  0
    6.1872   -7.9379   28.5576 C   0  0  0  0  0  0  0  0  0  0  0  0
    7.4877   -3.2848   22.8448 C   0  0  0  0  0  0  0  0  0  0  0  0
    6.3671   -4.0160   23.0444 F   0  0  0  0  0  0  0  0  0  0  0  0
    7.4742   -2.3211   21.8695 C   0  0  0  0  0  0  0  0  0  0  0  0
    8.6258   -1.5982   21.6940 C   0  0  0  0  0  0  0  0  0  0  0  0
    8.6509   -0.6391   20.7404 F   0  0  0  0  0  0  0  0  0  0  0  0
  2  1  1  0
  2  3  1  0
  3  4  1  0
  4  5  2  0
  5  6  1  0
  6  7  2  0
  7  8  1  0
  8  9  2  0
  9 10  1  0
  2 11  1  0
 11 12  1  0
 12 13  1  0
 13 14  2  0
 14 15  1  0
 16 15  1  0
 16 17  1  0
 17 18  1  0
 18 19  1  0
 19 20  1  0
 20 21  1  0
 18 22  1  0
 22 23  2  0
 22 24  1  0
 24 25  2  0
 15 26  2  0
 26 27  1  0
 26 28  1  0
 28 29  2  0
 29 30  1  0
  9  4  1  0
 29 13  1  0
 21 16  1  0
M  END
