CVD-0001429|dock_bobby27042020.67|mol2|11|dock3
     RDKit          3D

 20 22  0  0  0  0  0  0  0  0999 V2000
    6.2044   -2.9888   20.5414 F   0  0  0  0  0  0  0  0  0  0  0  0
    6.0866   -1.7627   19.9822 C   0  0  0  0  0  0  0  0  0  0  0  0
    5.6386   -1.6954   18.6846 C   0  0  0  0  0  0  0  0  0  0  0  0
    5.5158   -0.4536   18.0861 C   0  0  0  0  0  0  0  0  0  0  0  0
    5.8427    0.6961   18.7842 C   0  0  0  0  0  0  0  0  0  0  0  0
    6.2873    0.5853   20.0807 C   0  0  0  0  0  0  0  0  0  0  0  0
    6.6012    1.7354   20.7195 F   0  0  0  0  0  0  0  0  0  0  0  0
    6.4229   -0.6400   20.7410 C   0  0  0  0  0  0  0  0  0  0  0  0
    6.9934   -0.8056   22.4365 S   0  0  0  0  0  0  0  0  0  0  0  0
    6.7445   -2.1452   22.8707 O   0  0  0  0  0  0  0  0  0  0  0  0
    6.5283    0.2891   23.2301 O   0  0  0  0  0  0  0  0  0  0  0  0
    8.6107   -0.6414   22.3046 N   0  0  0  0  0  0  0  0  0  0  0  0
    9.3548   -1.6632   21.5453 C   0  0  0  0  0  0  0  0  0  0  0  0
   10.7205   -1.8290   22.1573 C   0  0  0  0  0  0  0  0  0  0  0  0
   11.2961   -0.4704   22.4149 C   0  0  0  0  0  0  0  0  0  0  0  0
   12.9583   -0.1862   22.7687 S   0  0  0  0  0  0  0  0  0  0  0  0
   12.7498    1.5009   22.7982 C   0  0  0  0  0  0  0  0  0  0  0  0
   11.4608    1.8166   22.5471 C   0  0  0  0  0  0  0  0  0  0  0  0
   10.6070    0.7025   22.3242 C   0  0  0  0  0  0  0  0  0  0  0  0
    9.1243    0.7273   22.0870 C   0  0  0  0  0  0  0  0  0  0  0  0
  1  2  1  0
  2  3  2  0
  3  4  1  0
  4  5  2  0
  5  6  1  0
  6  7  1  0
  6  8  2  0
  8  9  1  0
  9 10  2  0
  9 11  2  0
  9 12  1  0
 12 13  1  0
 13 14  1  0
 14 15  1  0
 15 16  1  0
 16 17  1  0
 17 18  2  0
 18 19  1  0
 19 20  1  0
  8  2  1  0
 20 12  1  0
 19 15  2  0
M  END
