CVD-0002595|dock_bobby27042020.19|mol2|18|dock3
     RDKit          3D

 58 65  0  0  0  0  0  0  0  0999 V2000
    0.1894   -9.9348   26.1401 Cl  0  0  0  0  0  0  0  0  0  0  0  0
    1.5089   -8.7715   26.3222 C   0  0  0  0  0  0  0  0  0  0  0  0
    1.8287   -8.5493   27.7875 C   0  0  0  0  0  0  0  0  0  0  0  0
    1.2319   -9.1516   28.6711 O   0  0  0  0  0  0  0  0  0  0  0  0
    2.7976   -7.6522   28.0614 N   0  0  0  0  0  0  0  0  0  0  0  0
    3.1563   -7.3583   29.4391 C   0  0  0  0  0  0  0  0  0  0  0  0
    4.6320   -7.5014   29.6420 C   0  0  0  0  0  0  0  0  0  0  0  0
    5.3337   -6.6418   28.6781 N   0  0  0  0  0  0  0  0  0  0  0  0
    5.0192   -7.0090   27.2895 C   0  0  0  0  0  0  0  0  0  0  0  0
    3.5419   -6.8700   27.0694 C   0  0  0  0  0  0  0  0  0  0  0  0
    6.8564   -6.2196   29.0352 S   0  0  0  0  0  0  0  0  0  0  0  0
    7.6285   -7.4218   29.0684 O   0  0  0  0  0  0  0  0  0  0  0  0
    6.8005   -5.3907   30.1982 O   0  0  0  0  0  0  0  0  0  0  0  0
    7.4791   -5.2431   27.7361 C   0  0  0  0  0  0  0  0  0  0  0  0
    7.2611   -3.8991   27.5508 C   0  0  0  0  0  0  0  0  0  0  0  0
    7.8958   -3.4096   26.4095 C   0  0  0  0  0  0  0  0  0  0  0  0
    8.6007   -4.3642   25.7087 C   0  0  0  0  0  0  0  0  0  0  0  0
    9.3914   -4.1809   24.4484 C   0  0  0  0  0  0  0  0  0  0  0  0
    8.9477   -3.0124   23.6871 N   0  0  0  0  0  0  0  0  0  0  0  0
   10.0724   -2.1279   23.4106 C   0  0  0  0  0  0  0  0  0  0  0  0
    9.6143   -0.8944   22.6552 C   0  0  0  0  0  0  0  0  0  0  0  0
    8.9683   -1.3310   21.4025 N   0  0  0  0  0  0  0  0  0  0  0  0
    7.8251   -2.2262   21.6625 C   0  0  0  0  0  0  0  0  0  0  0  0
    8.3294   -3.4266   22.4345 C   0  0  0  0  0  0  0  0  0  0  0  0
    8.7878   -0.2256   20.2177 S   0  0  0  0  0  0  0  0  0  0  0  0
    8.9968   -0.9141   18.9820 O   0  0  0  0  0  0  0  0  0  0  0  0
    9.6174    0.8856   20.5668 O   0  0  0  0  0  0  0  0  0  0  0  0
    7.0963    0.3168   20.2616 C   0  0  0  0  0  0  0  0  0  0  0  0
    6.2210   -0.3163   19.4224 C   0  0  0  0  0  0  0  0  0  0  0  0
    4.8847    0.0478   19.3979 C   0  0  0  0  0  0  0  0  0  0  0  0
    4.4119    1.0386   20.2061 C   0  0  0  0  0  0  0  0  0  0  0  0
    5.2800    1.7200   21.0925 C   0  0  0  0  0  0  0  0  0  0  0  0
    4.8323    2.7496   21.9486 C   0  0  0  0  0  0  0  0  0  0  0  0
    5.6745    3.4038   22.8063 C   0  0  0  0  0  0  0  0  0  0  0  0
    5.1218    4.4876   23.7052 C   0  0  0  0  0  0  0  0  0  0  0  0
    5.5578    5.8407   23.3266 N   0  0  0  0  0  0  0  0  0  0  0  0
    5.5106    5.9970   21.8731 C   0  0  0  0  0  0  0  0  0  0  0  0
    6.0798    7.3412   21.4550 C   0  0  0  0  0  0  0  0  0  0  0  0
    5.3695    8.4350   22.1338 N   0  0  0  0  0  0  0  0  0  0  0  0
    5.2404    8.2629   23.5877 C   0  0  0  0  0  0  0  0  0  0  0  0
    4.7090    6.8778   23.9156 C   0  0  0  0  0  0  0  0  0  0  0  0
    5.0675    9.5967   21.5200 C   0  0  0  0  0  0  0  0  0  0  0  0
    4.6953   10.7688   22.1091 C   0  0  0  0  0  0  0  0  0  0  0  0
    4.4482   11.7957   21.2012 C   0  0  0  0  0  0  0  0  0  0  0  0
    4.6330   11.3989   19.9282 C   0  0  0  0  0  0  0  0  0  0  0  0
    4.4357   12.3497   18.5145 Cl  0  0  0  0  0  0  0  0  0  0  0  0
    5.1143    9.7611   19.7939 S   0  0  0  0  0  0  0  0  0  0  0  0
    7.0369    3.0542   22.8349 C   0  0  0  0  0  0  0  0  0  0  0  0
    8.0507    3.7336   23.7335 C   0  0  0  0  0  0  0  0  0  0  0  0
    8.7223    4.9249   23.0541 C   0  0  0  0  0  0  0  0  0  0  0  0
   10.1232    5.1712   23.5465 C   0  0  0  0  0  0  0  0  0  0  0  0
   10.4697    5.9243   24.6959 C   0  0  0  0  0  0  0  0  0  0  0  0
   11.8061    6.0013   24.9474 C   0  0  0  0  0  0  0  0  0  0  0  0
   12.6611    5.1388   23.7613 S   0  0  0  0  0  0  0  0  0  0  0  0
   11.2425    4.6823   22.9429 C   0  0  0  0  0  0  0  0  0  0  0  0
    7.5074    2.0581   22.0225 C   0  0  0  0  0  0  0  0  0  0  0  0
    6.6553    1.3625   21.1310 C   0  0  0  0  0  0  0  0  0  0  0  0
    8.4631   -5.8957   26.4954 S   0  0  0  0  0  0  0  0  0  0  0  0
  1  2  1  0
  2  3  1  0
  3  4  2  0
  3  5  1  0
  5  6  1  0
  6  7  1  0
  7  8  1  0
  8  9  1  0
  9 10  1  0
  8 11  1  0
 11 12  2  0
 11 13  2  0
 11 14  1  0
 14 15  2  0
 15 16  1  0
 16 17  2  0
 17 18  1  0
 18 19  1  0
 19 20  1  0
 20 21  1  0
 21 22  1  0
 22 23  1  0
 23 24  1  0
 22 25  1  0
 25 26  2  0
 25 27  2  0
 25 28  1  0
 28 29  2  0
 29 30  1  0
 30 31  2  0
 31 32  1  0
 32 33  2  0
 33 34  1  0
 34 35  1  0
 35 36  1  0
 36 37  1  0
 37 38  1  0
 38 39  1  0
 39 40  1  0
 40 41  1  0
 39 42  1  0
 42 43  2  0
 43 44  1  0
 44 45  2  0
 45 46  1  0
 45 47  1  0
 34 48  2  0
 48 49  1  0
 49 50  1  0
 50 51  1  0
 51 52  1  0
 52 53  2  0
 53 54  1  0
 54 55  1  0
 48 56  1  0
 56 57  2  0
 17 58  1  0
 10  5  1  0
 58 14  1  0
 24 19  1  0
 57 28  1  0
 57 32  1  0
 41 36  1  0
 47 42  1  0
 55 51  2  0
M  END
