CVD-0003054|dock_bobby27042020.3|mol2|23|dock2
     RDKit          3D

 32 35  0  0  0  0  0  0  0  0999 V2000
   -0.0814   -6.3503   20.7977 C   0  0  0  0  0  0  0  0  0  0  0  0
    0.9776   -7.2185   21.4113 C   0  0  0  0  0  0  0  0  0  0  0  0
    1.3670   -8.2483   20.8696 O   0  0  0  0  0  0  0  0  0  0  0  0
    1.4594   -6.8142   22.5881 N   0  0  0  0  0  0  0  0  0  0  0  0
    2.4773   -7.5577   23.3167 C   0  0  0  0  0  0  0  0  0  0  0  0
    3.0299   -6.7641   24.4839 C   0  0  0  0  0  0  0  0  0  0  0  0
    3.8626   -5.5919   24.0543 C   0  0  0  0  0  0  0  0  0  0  0  0
    3.5959   -4.2694   24.2554 C   0  0  0  0  0  0  0  0  0  0  0  0
    4.5886   -3.4949   23.7202 N   0  0  0  0  0  0  0  0  0  0  0  0
    5.5294   -4.3202   23.1551 C   0  0  0  0  0  0  0  0  0  0  0  0
    6.7236   -4.0008   22.4893 C   0  0  0  0  0  0  0  0  0  0  0  0
    7.4879   -5.0641   22.0111 C   0  0  0  0  0  0  0  0  0  0  0  0
    7.0884   -6.3801   22.1876 C   0  0  0  0  0  0  0  0  0  0  0  0
    5.9077   -6.6796   22.8490 C   0  0  0  0  0  0  0  0  0  0  0  0
    5.1083   -5.6500   23.3436 C   0  0  0  0  0  0  0  0  0  0  0  0
    7.1899   -2.5672   22.2791 C   0  0  0  0  0  0  0  0  0  0  0  0
    8.6585   -2.5165   22.3359 N   0  0  0  0  0  0  0  0  0  0  0  0
    9.1404   -2.5912   23.7250 C   0  0  0  0  0  0  0  0  0  0  0  0
   10.6464   -2.5879   23.7706 C   0  0  0  0  0  0  0  0  0  0  0  0
   11.1822   -1.4012   23.0965 N   0  0  0  0  0  0  0  0  0  0  0  0
   10.6714   -1.2524   21.7351 C   0  0  0  0  0  0  0  0  0  0  0  0
    9.1615   -1.2710   21.7547 C   0  0  0  0  0  0  0  0  0  0  0  0
   12.1498   -0.5863   23.5655 C   0  0  0  0  0  0  0  0  0  0  0  0
   12.5278    0.3918   22.9329 O   0  0  0  0  0  0  0  0  0  0  0  0
   12.7472   -0.9279   24.9172 C   0  0  0  0  0  0  0  0  0  0  0  0
   13.5190   -2.5187   24.8834 Cl  0  0  0  0  0  0  0  0  0  0  0  0
    6.6132   -2.0069   20.9964 C   0  0  0  0  0  0  0  0  0  0  0  0
    6.2093   -2.7172   19.8742 C   0  0  0  0  0  0  0  0  0  0  0  0
    5.7146   -1.9105   18.8526 C   0  0  0  0  0  0  0  0  0  0  0  0
    5.7359   -0.6061   19.1860 C   0  0  0  0  0  0  0  0  0  0  0  0
    5.1714    0.8343   18.1326 Br  0  0  0  0  0  0  0  0  0  0  0  0
    6.3596   -0.3145   20.7577 S   0  0  0  0  0  0  0  0  0  0  0  0
  1  2  1  0
  2  3  2  0
  2  4  1  0
  4  5  1  0
  5  6  1  0
  6  7  1  0
  7  8  2  0
  8  9  1  0
  9 10  1  0
 10 11  2  0
 11 12  1  0
 12 13  2  0
 13 14  1  0
 14 15  2  0
 11 16  1  0
 16 17  1  0
 17 18  1  0
 18 19  1  0
 19 20  1  0
 20 21  1  0
 21 22  1  0
 20 23  1  0
 23 24  2  0
 23 25  1  0
 25 26  1  0
 16 27  1  0
 27 28  2  0
 28 29  1  0
 29 30  2  0
 30 31  1  0
 30 32  1  0
 15  7  1  0
 22 17  1  0
 32 27  1  0
 15 10  1  0
M  END
