CVD-0002633|dock_bobby27042020.76|mol2|30|dock1
     RDKit          3D

 19 20  0  0  0  0  0  0  0  0999 V2000
    6.7555   -3.2151   21.6543 C   0  0  0  0  0  0  0  0  0  0  0  0
    7.8997   -2.2915   21.3832 C   0  0  0  0  0  0  0  0  0  0  0  0
    7.7196   -1.1716   20.6770 N   0  0  0  0  0  0  0  0  0  0  0  0
    6.5301   -0.5886   20.0455 C   0  0  0  0  0  0  0  0  0  0  0  0
    6.8652   -0.0059   18.6572 C   0  0  0  0  0  0  0  0  0  0  0  0
    5.6628    0.6733   18.0043 C   0  0  0  0  0  0  0  0  0  0  0  0
    5.0596    1.7316   18.9187 C   0  0  0  0  0  0  0  0  0  0  0  0
    4.7013    1.1446   20.2764 C   0  0  0  0  0  0  0  0  0  0  0  0
    5.9164    0.5033   20.9385 C   0  0  0  0  0  0  0  0  0  0  0  0
    9.1199   -2.6533   21.8923 C   0  0  0  0  0  0  0  0  0  0  0  0
   10.4350   -1.9352   21.7836 C   0  0  0  0  0  0  0  0  0  0  0  0
   10.5531   -0.7930   22.7896 C   0  0  0  0  0  0  0  0  0  0  0  0
   11.9413   -0.3692   22.8764 N   0  0  0  0  0  0  0  0  0  0  0  0
   12.8274   -0.8174   23.8374 C   0  0  0  0  0  0  0  0  0  0  0  0
   12.6735   -0.4933   25.1793 C   0  0  0  0  0  0  0  0  0  0  0  0
   13.5106   -0.9133   26.1312 N   0  0  0  0  0  0  0  0  0  0  0  0
   14.5179   -1.6743   25.7161 C   0  0  0  0  0  0  0  0  0  0  0  0
   14.7780   -2.0545   24.4696 N   0  0  0  0  0  0  0  0  0  0  0  0
   13.9254   -1.6159   23.5400 C   0  0  0  0  0  0  0  0  0  0  0  0
  1  2  1  0
  2  3  1  0
  3  4  1  0
  4  5  1  0
  5  6  1  0
  6  7  1  0
  7  8  1  0
  8  9  1  0
  2 10  2  0
 10 11  1  0
 11 12  1  0
 12 13  1  0
 13 14  1  0
 14 15  2  0
 15 16  1  0
 16 17  2  0
 17 18  1  0
 18 19  2  0
  9  4  1  0
 19 14  1  0
M  END
