CVD-0003091|dock_bobby27042020.46|mol2|23|dock3
     RDKit          3D

 16 16  0  0  0  0  0  0  0  0999 V2000
    8.3183    0.6341   25.3395 C   0  0  0  0  0  0  0  0  0  0  0  0
    9.4022   -0.3384   24.9940 C   0  0  0  0  0  0  0  0  0  0  0  0
    9.8844   -0.1378   23.6377 N   0  0  0  0  0  0  0  0  0  0  0  0
   10.7376    0.8455   23.3062 C   0  0  0  0  0  0  0  0  0  0  0  0
   10.1936    1.9833   22.8302 N   0  0  0  0  0  0  0  0  0  0  0  0
   11.0197    2.9797   22.4922 C   0  0  0  0  0  0  0  0  0  0  0  0
   12.4029    2.9046   22.6060 C   0  0  0  0  0  0  0  0  0  0  0  0
   12.9528    1.7268   23.0987 C   0  0  0  0  0  0  0  0  0  0  0  0
   12.1280    0.6681   23.4598 C   0  0  0  0  0  0  0  0  0  0  0  0
   12.7573   -0.5988   23.9971 C   0  0  0  0  0  0  0  0  0  0  0  0
   13.6889   -1.2605   22.9846 C   0  0  0  0  0  0  0  0  0  0  0  0
   13.0220   -1.5544   21.6852 C   0  0  0  0  0  0  0  0  0  0  0  0
   13.6903   -1.8618   20.6682 N   0  0  0  0  0  0  0  0  0  0  0  0
   11.7096   -1.4744   21.6975 N   0  0  0  0  0  0  0  0  0  0  0  0
   13.2462    4.0111   22.2262 C   0  0  0  0  0  0  0  0  0  0  0  0
   13.8886    4.9082   21.9307 N   0  0  0  0  0  0  0  0  0  0  0  0
  1  2  1  0
  2  3  1  0
  3  4  1  0
  4  5  2  0
  5  6  1  0
  6  7  2  0
  7  8  1  0
  8  9  2  0
  9 10  1  0
 10 11  1  0
 11 12  1  0
 12 13  1  0
 12 14  2  0
  7 15  1  0
 15 16  3  0
  9  4  1  0
M  END
