CVD-0003251|dock_bobby27042020.31|mol2|28|dock3
     RDKit          3D

 25 27  0  0  0  0  0  0  0  0999 V2000
   13.1595    3.9453   22.7010 C   0  0  0  0  0  0  0  0  0  0  0  0
   11.9331    3.0757   22.5685 C   0  0  0  0  0  0  0  0  0  0  0  0
   10.6697    3.6313   22.4646 C   0  0  0  0  0  0  0  0  0  0  0  0
    9.5381    2.8431   22.3580 C   0  0  0  0  0  0  0  0  0  0  0  0
    9.6546    1.4545   22.3515 C   0  0  0  0  0  0  0  0  0  0  0  0
    8.4463    0.6762   22.2842 N   0  0  0  0  0  0  0  0  0  0  0  0
    8.0165    0.1621   20.9428 C   0  0  0  0  0  0  0  0  0  0  0  0
    7.1465    1.1791   20.2011 C   0  0  0  0  0  0  0  0  0  0  0  0
    5.6840    0.2607   19.6291 S   0  0  0  0  0  0  0  0  0  0  0  0
    4.4740    0.7970   20.1893 O   0  0  0  0  0  0  0  0  0  0  0  0
    5.7162    0.0675   18.2053 O   0  0  0  0  0  0  0  0  0  0  0  0
    6.1147   -1.2443   20.4227 C   0  0  0  0  0  0  0  0  0  0  0  0
    7.3087   -1.1481   21.0198 C   0  0  0  0  0  0  0  0  0  0  0  0
    7.6815    0.4724   23.4033 C   0  0  0  0  0  0  0  0  0  0  0  0
    6.6099   -0.1159   23.3415 O   0  0  0  0  0  0  0  0  0  0  0  0
    8.2038    0.9758   24.7357 C   0  0  0  0  0  0  0  0  0  0  0  0
    9.5682    0.0027   25.3004 Cl  0  0  0  0  0  0  0  0  0  0  0  0
   10.9281    0.8649   22.4151 C   0  0  0  0  0  0  0  0  0  0  0  0
   11.1743   -0.6276   22.3398 C   0  0  0  0  0  0  0  0  0  0  0  0
   12.3520   -1.0849   23.1433 C   0  0  0  0  0  0  0  0  0  0  0  0
   13.2624   -2.0430   22.8315 C   0  0  0  0  0  0  0  0  0  0  0  0
   14.1473   -2.1090   23.8661 N   0  0  0  0  0  0  0  0  0  0  0  0
   13.7619   -1.2039   24.7703 C   0  0  0  0  0  0  0  0  0  0  0  0
   12.6770   -0.5560   24.3777 N   0  0  0  0  0  0  0  0  0  0  0  0
   12.0369    1.6949   22.5397 C   0  0  0  0  0  0  0  0  0  0  0  0
  1  2  1  0
  2  3  2  0
  3  4  1  0
  4  5  2  0
  5  6  1  0
  6  7  1  0
  7  8  1  0
  8  9  1  0
  9 10  2  0
  9 11  2  0
  9 12  1  0
 12 13  2  0
  6 14  1  0
 14 15  2  0
 14 16  1  0
 16 17  1  0
  5 18  1  0
 18 19  1  0
 19 20  1  0
 20 21  2  0
 21 22  1  0
 22 23  1  0
 23 24  2  0
 18 25  2  0
 25  2  1  0
 13  7  1  0
 24 20  1  0
M  END
