CVD-0003932|dock_bobby27042020.29|mol2|19|dock2
     RDKit          3D

 30 33  0  0  0  0  0  0  0  0999 V2000
    5.4698   -0.3159   21.1214 O   0  0  0  0  0  0  0  0  0  0  0  0
    6.5834    0.2693   20.4412 C   0  0  0  0  0  0  0  0  0  0  0  0
    7.2952    1.3244   21.2902 C   0  0  0  0  0  0  0  0  0  0  0  0
    8.0630    0.7150   22.4670 C   0  0  0  0  0  0  0  0  0  0  0  0
    9.0588   -0.3102   21.9432 C   0  0  0  0  0  0  0  0  0  0  0  0
    8.3706   -1.4020   21.1294 C   0  0  0  0  0  0  0  0  0  0  0  0
    7.5839   -0.7814   19.9752 C   0  0  0  0  0  0  0  0  0  0  0  0
    9.8615   -0.8880   23.0398 N   0  0  0  0  0  0  0  0  0  0  0  0
    9.2324   -1.3699   24.2259 C   0  0  0  0  0  0  0  0  0  0  0  0
    8.7930   -2.6867   24.3285 C   0  0  0  0  0  0  0  0  0  0  0  0
    8.1794   -3.1440   25.4830 C   0  0  0  0  0  0  0  0  0  0  0  0
    7.9937   -2.2973   26.5603 C   0  0  0  0  0  0  0  0  0  0  0  0
    8.4300   -0.9814   26.4771 C   0  0  0  0  0  0  0  0  0  0  0  0
    9.0475   -0.5229   25.3159 C   0  0  0  0  0  0  0  0  0  0  0  0
    8.2463   -0.0845   27.5915 C   0  0  0  0  0  0  0  0  0  0  0  0
    8.1269    0.6437   28.4634 N   0  0  0  0  0  0  0  0  0  0  0  0
   11.3631   -0.9247   22.8737 C   0  0  0  0  0  0  0  0  0  0  0  0
   11.8505   -1.6863   21.6418 C   0  0  0  0  0  0  0  0  0  0  0  0
   13.3637   -1.6351   21.5254 C   0  0  0  0  0  0  0  0  0  0  0  0
   14.0374   -2.1463   22.7822 C   0  0  0  0  0  0  0  0  0  0  0  0
   13.5625   -1.3830   24.0076 C   0  0  0  0  0  0  0  0  0  0  0  0
   12.0480   -1.4336   24.1379 C   0  0  0  0  0  0  0  0  0  0  0  0
   11.6416    0.5152   22.6853 C   0  0  0  0  0  0  0  0  0  0  0  0
   11.9362    1.6719   22.6699 C   0  0  0  0  0  0  0  0  0  0  0  0
   12.3219    3.0545   22.7219 C   0  0  0  0  0  0  0  0  0  0  0  0
   11.3743    4.0650   22.8379 C   0  0  0  0  0  0  0  0  0  0  0  0
   11.7897    5.3845   22.8845 C   0  0  0  0  0  0  0  0  0  0  0  0
   13.1375    5.6553   22.8139 C   0  0  0  0  0  0  0  0  0  0  0  0
   14.0708    4.7089   22.7023 N   0  0  0  0  0  0  0  0  0  0  0  0
   13.6583    3.4387   22.6582 C   0  0  0  0  0  0  0  0  0  0  0  0
  1  2  1  0
  2  3  1  0
  3  4  1  0
  4  5  1  0
  5  6  1  0
  6  7  1  0
  5  8  1  0
  8  9  1  0
  9 10  2  0
 10 11  1  0
 11 12  2  0
 12 13  1  0
 13 14  2  0
 13 15  1  0
 15 16  3  0
  8 17  1  0
 17 18  1  0
 18 19  1  0
 19 20  1  0
 20 21  1  0
 21 22  1  0
 17 23  1  0
 23 24  3  0
 24 25  1  0
 25 26  2  0
 26 27  1  0
 27 28  2  0
 28 29  1  0
 29 30  2  0
  7  2  1  0
 14  9  1  0
 22 17  1  0
 30 25  1  0
M  END
