CVD-0001156|dock_bobby27042020.10|mol2|33|dock2
     RDKit          3D

 34 37  0  0  0  0  0  0  0  0999 V2000
    2.3931    2.9416   18.8151 N   0  0  0  0  0  0  0  0  0  0  0  0
    3.6071    2.4042   18.8106 C   0  0  0  0  0  0  0  0  0  0  0  0
    4.3761    2.5530   17.8544 O   0  0  0  0  0  0  0  0  0  0  0  0
    4.0751    1.5921   19.9878 C   0  0  0  0  0  0  0  0  0  0  0  0
    3.6309    1.8199   21.2878 C   0  0  0  0  0  0  0  0  0  0  0  0
    4.0946    1.0427   22.3364 C   0  0  0  0  0  0  0  0  0  0  0  0
    5.0068    0.0263   22.1092 C   0  0  0  0  0  0  0  0  0  0  0  0
    5.4479   -0.2027   20.8168 C   0  0  0  0  0  0  0  0  0  0  0  0
    4.9912    0.5709   19.7609 C   0  0  0  0  0  0  0  0  0  0  0  0
    6.6115   -1.4850   20.5047 S   0  0  0  0  0  0  0  0  0  0  0  0
    7.1940   -1.2529   19.2196 O   0  0  0  0  0  0  0  0  0  0  0  0
    5.9780   -2.7361   20.7841 O   0  0  0  0  0  0  0  0  0  0  0  0
    7.8144   -1.3234   21.5933 N   0  0  0  0  0  0  0  0  0  0  0  0
    8.5331   -2.5646   21.9355 C   0  0  0  0  0  0  0  0  0  0  0  0
    9.3360   -2.3519   23.1906 C   0  0  0  0  0  0  0  0  0  0  0  0
   10.2812   -1.1781   23.0861 C   0  0  0  0  0  0  0  0  0  0  0  0
   11.3479   -1.4307   22.0180 C   0  0  0  0  0  0  0  0  0  0  0  0
   12.7448   -1.4350   22.5779 C   0  0  0  0  0  0  0  0  0  0  0  0
   13.0336   -2.5166   23.2606 O   0  0  0  0  0  0  0  0  0  0  0  0
   13.5274   -0.5251   22.4129 O   0  0  0  0  0  0  0  0  0  0  0  0
    9.5189    0.0752   22.6614 C   0  0  0  0  0  0  0  0  0  0  0  0
    8.7337   -0.1911   21.3820 C   0  0  0  0  0  0  0  0  0  0  0  0
   10.4135    1.2912   22.5881 C   0  0  0  0  0  0  0  0  0  0  0  0
   10.2287    2.6252   22.6059 C   0  0  0  0  0  0  0  0  0  0  0  0
    9.0176    3.1511   22.7071 N   0  0  0  0  0  0  0  0  0  0  0  0
    8.7707    4.5857   22.6935 C   0  0  0  0  0  0  0  0  0  0  0  0
    9.8285    5.2877   23.5002 C   0  0  0  0  0  0  0  0  0  0  0  0
   11.1934    4.8726   23.0312 C   0  0  0  0  0  0  0  0  0  0  0  0
   12.2537    5.7711   23.0378 C   0  0  0  0  0  0  0  0  0  0  0  0
   13.4813    5.3512   22.5943 C   0  0  0  0  0  0  0  0  0  0  0  0
   14.5093    6.2421   22.5898 F   0  0  0  0  0  0  0  0  0  0  0  0
   13.7072    4.0804   22.1442 C   0  0  0  0  0  0  0  0  0  0  0  0
   12.6500    3.1862   22.1383 C   0  0  0  0  0  0  0  0  0  0  0  0
   11.3750    3.5576   22.5787 C   0  0  0  0  0  0  0  0  0  0  0  0
  1  2  1  0
  2  3  2  0
  2  4  1  0
  4  5  2  0
  5  6  1  0
  6  7  2  0
  7  8  1  0
  8  9  2  0
  8 10  1  0
 10 11  2  0
 10 12  2  0
 10 13  1  0
 13 14  1  0
 14 15  1  0
 15 16  1  0
 16 17  1  0
 17 18  1  0
 18 19  1  0
 18 20  2  0
 16 21  1  0
 21 22  1  0
 21 23  1  0
 23 24  2  0
 24 25  1  0
 25 26  1  0
 26 27  1  0
 27 28  1  0
 28 29  2  0
 29 30  1  0
 30 31  1  0
 30 32  2  0
 32 33  1  0
 33 34  2  0
  9  4  1  0
 22 13  1  0
 34 24  1  0
 34 28  1  0
M  END
