CVD-0002526|dock_bobby27042020.34|mol2|8|dock2
     RDKit          3D

 28 30  0  0  0  0  0  0  0  0999 V2000
    9.4102    0.9942   20.4007 O   0  0  0  0  0  0  0  0  0  0  0  0
    9.4358   -0.2009   20.6737 C   0  0  0  0  0  0  0  0  0  0  0  0
   10.4749   -0.7545   21.6233 C   0  0  0  0  0  0  0  0  0  0  0  0
   11.5597    0.2591   22.0000 C   0  0  0  0  0  0  0  0  0  0  0  0
   12.7972   -0.4439   22.5946 C   0  0  0  0  0  0  0  0  0  0  0  0
   13.8687    0.5460   23.0475 C   0  0  0  0  0  0  0  0  0  0  0  0
   13.2988    1.5764   24.0139 C   0  0  0  0  0  0  0  0  0  0  0  0
   12.0976    2.2898   23.4103 C   0  0  0  0  0  0  0  0  0  0  0  0
   11.0162    1.2967   22.9971 C   0  0  0  0  0  0  0  0  0  0  0  0
    8.5927   -1.1462   20.1905 N   0  0  0  0  0  0  0  0  0  0  0  0
    7.5038   -1.0325   19.2836 C   0  0  0  0  0  0  0  0  0  0  0  0
    7.3119    0.0394   18.4118 C   0  0  0  0  0  0  0  0  0  0  0  0
    6.2844    0.1419   17.5622 N   0  0  0  0  0  0  0  0  0  0  0  0
    5.3841   -0.8379   17.5457 C   0  0  0  0  0  0  0  0  0  0  0  0
    5.4616   -1.9483   18.3564 C   0  0  0  0  0  0  0  0  0  0  0  0
    6.5300   -2.0523   19.2322 C   0  0  0  0  0  0  0  0  0  0  0  0
    6.5706   -3.5058   20.2484 S   0  0  0  0  0  0  0  0  0  0  0  0
    5.4121   -4.2887   19.9443 O   0  0  0  0  0  0  0  0  0  0  0  0
    7.8693   -4.0913   20.1130 O   0  0  0  0  0  0  0  0  0  0  0  0
    6.4275   -3.0365   21.7824 N   0  0  0  0  0  0  0  0  0  0  0  0
    7.5009   -3.3240   22.7413 C   0  0  0  0  0  0  0  0  0  0  0  0
    7.1784   -4.5682   23.5492 C   0  0  0  0  0  0  0  0  0  0  0  0
    8.1563   -4.8035   24.6749 C   0  0  0  0  0  0  0  0  0  0  0  0
    7.7119   -4.9724   25.9773 C   0  0  0  0  0  0  0  0  0  0  0  0
    8.6086   -5.1914   27.0099 C   0  0  0  0  0  0  0  0  0  0  0  0
    9.9614   -5.2448   26.7523 C   0  0  0  0  0  0  0  0  0  0  0  0
   10.4170   -5.0798   25.4621 C   0  0  0  0  0  0  0  0  0  0  0  0
    9.5196   -4.8610   24.4303 C   0  0  0  0  0  0  0  0  0  0  0  0
  1  2  2  0
  2  3  1  0
  3  4  1  0
  4  5  1  0
  5  6  1  0
  6  7  1  0
  7  8  1  0
  8  9  1  0
  2 10  1  0
 10 11  1  0
 11 12  2  0
 12 13  1  0
 13 14  2  0
 14 15  1  0
 15 16  2  0
 16 17  1  0
 17 18  2  0
 17 19  2  0
 17 20  1  0
 20 21  1  0
 21 22  1  0
 22 23  1  0
 23 24  2  0
 24 25  1  0
 25 26  2  0
 26 27  1  0
 27 28  2  0
  9  4  1  0
 16 11  1  0
 28 23  1  0
M  END
