CVD-0003234|dock_bobby27042020.74|mol2|29|dock2
     RDKit          3D

 33 36  0  0  0  0  0  0  0  0999 V2000
   12.2295   -0.3028   23.1364 C   0  0  0  0  0  0  0  0  0  0  0  0
   12.2380    1.1744   22.8444 C   0  0  0  0  0  0  0  0  0  0  0  0
   13.4421    1.8446   22.6474 C   0  0  0  0  0  0  0  0  0  0  0  0
   13.4270    3.1990   22.3845 C   0  0  0  0  0  0  0  0  0  0  0  0
   12.3069    3.9167   22.3077 N   0  0  0  0  0  0  0  0  0  0  0  0
   11.1581    3.2615   22.5003 C   0  0  0  0  0  0  0  0  0  0  0  0
   11.0567    1.9178   22.7663 C   0  0  0  0  0  0  0  0  0  0  0  0
    9.7097    1.2637   22.9739 C   0  0  0  0  0  0  0  0  0  0  0  0
    9.1576    0.6566   21.6975 C   0  0  0  0  0  0  0  0  0  0  0  0
    9.3334    1.2514   20.6413 O   0  0  0  0  0  0  0  0  0  0  0  0
    8.4869   -0.5355   21.7122 N   0  0  0  0  0  0  0  0  0  0  0  0
    8.0021   -0.9934   20.4119 C   0  0  0  0  0  0  0  0  0  0  0  0
    7.0302   -0.0458   19.7547 C   0  0  0  0  0  0  0  0  0  0  0  0
    7.1416    0.5177   18.4628 C   0  0  0  0  0  0  0  0  0  0  0  0
    6.0610    1.3158   18.2240 C   0  0  0  0  0  0  0  0  0  0  0  0
    5.2617    1.2836   19.3327 N   0  0  0  0  0  0  0  0  0  0  0  0
    3.9870    1.9846   19.4953 C   0  0  0  0  0  0  0  0  0  0  0  0
    5.8355    0.4561   20.2569 C   0  0  0  0  0  0  0  0  0  0  0  0
    8.2485   -1.4006   22.8394 C   0  0  0  0  0  0  0  0  0  0  0  0
    8.7127   -2.7095   22.7984 C   0  0  0  0  0  0  0  0  0  0  0  0
    8.5174   -3.5688   23.8644 C   0  0  0  0  0  0  0  0  0  0  0  0
    7.8539   -3.1523   25.0110 C   0  0  0  0  0  0  0  0  0  0  0  0
    7.7094   -4.0931   26.0635 N   0  0  0  0  0  0  0  0  0  0  0  0
    7.6127   -3.9131   27.4108 C   0  0  0  0  0  0  0  0  0  0  0  0
    7.6395   -2.8131   27.9526 O   0  0  0  0  0  0  0  0  0  0  0  0
    7.4643   -5.1170   28.3033 C   0  0  0  0  0  0  0  0  0  0  0  0
    8.1595   -6.3141   28.1266 C   0  0  0  0  0  0  0  0  0  0  0  0
    7.9690   -7.3796   28.9911 C   0  0  0  0  0  0  0  0  0  0  0  0
    7.0874   -7.2764   30.0439 C   0  0  0  0  0  0  0  0  0  0  0  0
    6.3922   -6.1035   30.2347 C   0  0  0  0  0  0  0  0  0  0  0  0
    6.5779   -5.0348   29.3742 C   0  0  0  0  0  0  0  0  0  0  0  0
    7.3759   -1.8452   25.0505 C   0  0  0  0  0  0  0  0  0  0  0  0
    7.5600   -0.9918   23.9766 C   0  0  0  0  0  0  0  0  0  0  0  0
  1  2  1  0
  2  3  2  0
  3  4  1  0
  4  5  2  0
  5  6  1  0
  6  7  2  0
  7  8  1  0
  8  9  1  0
  9 10  2  0
  9 11  1  0
 11 12  1  0
 12 13  1  0
 13 14  1  0
 14 15  2  0
 15 16  1  0
 16 17  1  0
 16 18  1  0
 11 19  1  0
 19 20  2  0
 20 21  1  0
 21 22  2  0
 22 23  1  0
 23 24  1  0
 24 25  2  0
 24 26  1  0
 26 27  2  0
 27 28  1  0
 28 29  2  0
 29 30  1  0
 30 31  2  0
 22 32  1  0
 32 33  2  0
  7  2  1  0
 18 13  2  0
 33 19  1  0
 31 26  1  0
M  END
