CVD-0000412|dock_bobby27042020.41|mol2|32|dock2
     RDKit          3D

 23 25  0  0  0  0  0  0  0  0999 V2000
   13.9098    4.3179   22.0921 C   0  0  0  0  0  0  0  0  0  0  0  0
   12.9308    3.2364   22.5234 C   0  0  0  0  0  0  0  0  0  0  0  0
   13.5858    1.8853   22.6667 C   0  0  0  0  0  0  0  0  0  0  0  0
   14.7687    1.7255   22.3935 O   0  0  0  0  0  0  0  0  0  0  0  0
   12.8202    0.8662   23.1057 N   0  0  0  0  0  0  0  0  0  0  0  0
   11.4012    1.0225   23.4329 C   0  0  0  0  0  0  0  0  0  0  0  0
   10.5663    0.0125   22.6679 C   0  0  0  0  0  0  0  0  0  0  0  0
   11.0100   -1.3501   22.9764 N   0  0  0  0  0  0  0  0  0  0  0  0
   10.1784   -2.3343   22.2685 C   0  0  0  0  0  0  0  0  0  0  0  0
    8.7246   -1.9317   22.1848 C   0  0  0  0  0  0  0  0  0  0  0  0
    7.8896   -2.0444   23.2907 C   0  0  0  0  0  0  0  0  0  0  0  0
    6.5706   -1.6711   23.1758 C   0  0  0  0  0  0  0  0  0  0  0  0
    5.7765   -1.7911   24.2739 F   0  0  0  0  0  0  0  0  0  0  0  0
    6.0038   -1.1842   22.0209 C   0  0  0  0  0  0  0  0  0  0  0  0
    6.8195   -1.0627   20.8965 C   0  0  0  0  0  0  0  0  0  0  0  0
    6.6131   -0.6126   19.5491 C   0  0  0  0  0  0  0  0  0  0  0  0
    5.3295   -0.1027   18.9402 C   0  0  0  0  0  0  0  0  0  0  0  0
    5.4706    1.2811   18.3243 C   0  0  0  0  0  0  0  0  0  0  0  0
    7.8173   -0.7370   18.9193 C   0  0  0  0  0  0  0  0  0  0  0  0
    8.7608   -1.2327   19.7777 N   0  0  0  0  0  0  0  0  0  0  0  0
    8.1706   -1.4405   20.9995 C   0  0  0  0  0  0  0  0  0  0  0  0
   12.4117   -1.4936   22.5916 C   0  0  0  0  0  0  0  0  0  0  0  0
   13.2808   -0.5047   23.3471 C   0  0  0  0  0  0  0  0  0  0  0  0
  1  2  1  0
  2  3  1  0
  3  4  2  0
  3  5  1  0
  5  6  1  0
  6  7  1  0
  7  8  1  0
  8  9  1  0
  9 10  1  0
 10 11  2  0
 11 12  1  0
 12 13  1  0
 12 14  2  0
 14 15  1  0
 15 16  1  0
 16 17  1  0
 17 18  1  0
 16 19  2  0
 19 20  1  0
 20 21  1  0
  8 22  1  0
 22 23  1  0
 23  5  1  0
 21 10  1  0
 21 15  2  0
M  END
