CVD-0000208|dock_bobby27042020.71|mol2|9|dock2
     RDKit          3D

 26 28  0  0  0  0  0  0  0  0999 V2000
    6.2087   -5.8744   20.5634 C   0  0  0  0  0  0  0  0  0  0  0  0
    6.2902   -4.4717   20.3185 O   0  0  0  0  0  0  0  0  0  0  0  0
    6.5394   -3.6030   21.3520 C   0  0  0  0  0  0  0  0  0  0  0  0
    6.6002   -2.2504   21.0625 C   0  0  0  0  0  0  0  0  0  0  0  0
    6.8028   -1.3242   22.0710 C   0  0  0  0  0  0  0  0  0  0  0  0
    6.9499   -1.7285   23.3970 C   0  0  0  0  0  0  0  0  0  0  0  0
    7.1370   -0.7663   24.5633 C   0  0  0  0  0  0  0  0  0  0  0  0
    6.3093   -1.3270   25.7608 C   0  0  0  0  0  0  0  0  0  0  0  0
    6.7567   -2.7048   26.0762 N   0  0  0  0  0  0  0  0  0  0  0  0
    7.0025   -3.4945   25.0913 C   0  0  0  0  0  0  0  0  0  0  0  0
    6.8873   -3.1022   23.6841 C   0  0  0  0  0  0  0  0  0  0  0  0
    6.6821   -4.0397   22.6630 C   0  0  0  0  0  0  0  0  0  0  0  0
    8.6313   -0.5382   24.9130 C   0  0  0  0  0  0  0  0  0  0  0  0
    8.8429    0.7723   25.6724 C   0  0  0  0  0  0  0  0  0  0  0  0
    9.4682   -0.6246   23.6290 C   0  0  0  0  0  0  0  0  0  0  0  0
    9.5660   -1.8733   22.9940 O   0  0  0  0  0  0  0  0  0  0  0  0
   10.8606   -0.1331   23.7531 N   0  0  0  0  0  0  0  0  0  0  0  0
   11.1911    1.1431   23.3326 C   0  0  0  0  0  0  0  0  0  0  0  0
   12.3753    1.6733   23.2920 C   0  0  0  0  0  0  0  0  0  0  0  0
   11.9586   -1.0011   24.1479 C   0  0  0  0  0  0  0  0  0  0  0  0
   12.0808   -1.3005   25.5046 C   0  0  0  0  0  0  0  0  0  0  0  0
   13.0440   -2.0613   26.0317 N   0  0  0  0  0  0  0  0  0  0  0  0
   13.9685   -2.5339   25.2042 C   0  0  0  0  0  0  0  0  0  0  0  0
   13.9391   -2.3089   23.8475 C   0  0  0  0  0  0  0  0  0  0  0  0
   12.9134   -1.5561   23.2816 C   0  0  0  0  0  0  0  0  0  0  0  0
   12.9364   -1.4323   21.7827 C   0  0  0  0  0  0  0  0  0  0  0  0
  1  2  1  0
  2  3  1  0
  3  4  2  0
  4  5  1  0
  5  6  2  0
  6  7  1  0
  7  8  1  0
  8  9  1  0
  9 10  2  0
 10 11  1  0
 11 12  2  0
  7 13  1  0
 13 14  1  0
 13 15  1  0
 15 16  1  0
 15 17  1  0
 17 18  1  0
 18 19  2  0
 17 20  1  0
 20 21  2  0
 21 22  1  0
 22 23  2  0
 23 24  1  0
 24 25  2  0
 25 26  1  0
 12  3  1  0
 25 20  1  0
 11  6  1  0
M  END
