CVD-0001803|dock_bobby27042020.37|mol2|9|dock3
     RDKit          3D

 19 20  0  0  0  0  0  0  0  0999 V2000
    5.5410    0.6719   21.6409 C   0  0  0  0  0  0  0  0  0  0  0  0
    5.9788    0.2774   20.2540 C   0  0  0  0  0  0  0  0  0  0  0  0
    5.0325    0.1789   19.2378 C   0  0  0  0  0  0  0  0  0  0  0  0
    5.4209   -0.2323   17.9798 C   0  0  0  0  0  0  0  0  0  0  0  0
    6.6742   -0.5573   17.6672 N   0  0  0  0  0  0  0  0  0  0  0  0
    7.5938   -0.4451   18.6304 C   0  0  0  0  0  0  0  0  0  0  0  0
    7.3007   -0.0181   19.9180 C   0  0  0  0  0  0  0  0  0  0  0  0
    8.3629    0.1110   20.8942 N   0  0  0  0  0  0  0  0  0  0  0  0
    8.6519    1.3841   21.3515 C   0  0  0  0  0  0  0  0  0  0  0  0
    8.0186    2.3776   21.0171 O   0  0  0  0  0  0  0  0  0  0  0  0
    9.8618    1.5228   22.2952 C   0  0  0  0  0  0  0  0  0  0  0  0
   10.1011    0.2419   23.0919 C   0  0  0  0  0  0  0  0  0  0  0  0
    9.9821   -0.9248   22.2711 N   0  0  0  0  0  0  0  0  0  0  0  0
   10.8400   -2.0462   22.6115 C   0  0  0  0  0  0  0  0  0  0  0  0
   12.2799   -1.7386   22.3715 C   0  0  0  0  0  0  0  0  0  0  0  0
   12.6565   -1.7005   21.1747 N   0  0  0  0  0  0  0  0  0  0  0  0
   13.1149   -1.5116   23.3618 N   0  0  0  0  0  0  0  0  0  0  0  0
    9.0166   -1.0456   21.3037 C   0  0  0  0  0  0  0  0  0  0  0  0
    8.7406   -2.1441   20.8483 O   0  0  0  0  0  0  0  0  0  0  0  0
  1  2  1  0
  2  3  2  0
  3  4  1  0
  4  5  2  0
  5  6  1  0
  6  7  2  0
  7  8  1  0
  8  9  1  0
  9 10  2  0
  9 11  1  0
 11 12  1  0
 12 13  1  0
 13 14  1  0
 14 15  1  0
 15 16  1  0
 15 17  2  0
 13 18  1  0
 18 19  2  0
  7  2  1  0
 18  8  1  0
M  END
