CVD-0002780|dock_bobby27042020.90|mol2|14|dock2
     RDKit          3D

 33 36  0  0  0  0  0  0  0  0999 V2000
    6.4346   -1.6981   20.1490 C   0  0  0  0  0  0  0  0  0  0  0  0
    7.4544   -1.5214   21.2821 C   0  0  0  0  0  0  0  0  0  0  0  0
    7.5844   -2.8865   22.0075 C   0  0  0  0  0  0  0  0  0  0  0  0
    6.3175   -3.4584   22.4325 N   0  0  0  0  0  0  0  0  0  0  0  0
    6.1252   -4.7697   22.5732 C   0  0  0  0  0  0  0  0  0  0  0  0
    7.0092   -5.5933   22.3530 O   0  0  0  0  0  0  0  0  0  0  0  0
    4.7392   -5.1810   23.0238 C   0  0  0  0  0  0  0  0  0  0  0  0
    4.4529   -6.6520   22.7643 C   0  0  0  0  0  0  0  0  0  0  0  0
    3.0624   -7.0234   23.2426 C   0  0  0  0  0  0  0  0  0  0  0  0
    2.8540   -6.6668   24.7090 C   0  0  0  0  0  0  0  0  0  0  0  0
    3.1363   -5.1984   24.9579 C   0  0  0  0  0  0  0  0  0  0  0  0
    2.9336   -4.8130   26.3591 N   0  0  0  0  0  0  0  0  0  0  0  0
    4.5466   -4.8391   24.5106 C   0  0  0  0  0  0  0  0  0  0  0  0
    7.5506   -0.2273   22.0288 C   0  0  0  0  0  0  0  0  0  0  0  0
    8.6656   -0.6112   21.0720 C   0  0  0  0  0  0  0  0  0  0  0  0
   10.0275   -1.0409   21.5972 C   0  0  0  0  0  0  0  0  0  0  0  0
   10.3417   -2.2071   21.4528 O   0  0  0  0  0  0  0  0  0  0  0  0
   10.9682   -0.1850   22.2443 N   0  0  0  0  0  0  0  0  0  0  0  0
   10.9933    1.2519   22.3861 C   0  0  0  0  0  0  0  0  0  0  0  0
    9.9661    1.8452   22.0842 O   0  0  0  0  0  0  0  0  0  0  0  0
   12.1117    1.9148   22.8319 N   0  0  0  0  0  0  0  0  0  0  0  0
   12.3833    3.3055   22.9290 C   0  0  0  0  0  0  0  0  0  0  0  0
   13.6896    3.7084   22.6727 C   0  0  0  0  0  0  0  0  0  0  0  0
   14.0478    5.0437   22.7461 C   0  0  0  0  0  0  0  0  0  0  0  0
   13.1102    5.9963   23.0754 C   0  0  0  0  0  0  0  0  0  0  0  0
   11.8120    5.6136   23.3300 C   0  0  0  0  0  0  0  0  0  0  0  0
   11.4418    4.2806   23.2582 C   0  0  0  0  0  0  0  0  0  0  0  0
   12.0904   -0.8373   22.8843 C   0  0  0  0  0  0  0  0  0  0  0  0
   12.2356   -0.8117   24.2647 C   0  0  0  0  0  0  0  0  0  0  0  0
   13.3193   -1.4497   24.8421 C   0  0  0  0  0  0  0  0  0  0  0  0
   14.2188   -2.0912   24.0219 C   0  0  0  0  0  0  0  0  0  0  0  0
   14.0999   -2.1307   22.6941 N   0  0  0  0  0  0  0  0  0  0  0  0
   13.0501   -1.5120   22.1451 C   0  0  0  0  0  0  0  0  0  0  0  0
  2  1  1  0
  2  3  1  0
  3  4  1  0
  4  5  1  0
  5  6  2  0
  7  5  1  0
  7  8  1  0
  8  9  1  0
  9 10  1  0
 10 11  1  0
 11 12  1  0
 11 13  1  0
  2 14  1  0
 14 15  1  0
 15 16  1  0
 16 17  2  0
 16 18  1  0
 18 19  1  0
 19 20  2  0
 19 21  1  0
 21 22  1  0
 22 23  2  0
 23 24  1  0
 24 25  2  0
 25 26  1  0
 26 27  2  0
 18 28  1  0
 28 29  2  0
 29 30  1  0
 30 31  2  0
 31 32  1  0
 32 33  2  0
 15  2  1  0
 27 22  1  0
 33 28  1  0
 13  7  1  0
M  END
