CVD-0002715|dock_bobby27042020.33|mol2|17|dock2
     RDKit          3D

 21 23  0  0  0  0  0  0  0  0999 V2000
   12.2440    5.4519   24.2718 Cl  0  0  0  0  0  0  0  0  0  0  0  0
   13.1146    5.2001   22.7534 C   0  0  0  0  0  0  0  0  0  0  0  0
   13.5956    3.7754   22.5867 C   0  0  0  0  0  0  0  0  0  0  0  0
   14.7954    3.5219   22.5637 O   0  0  0  0  0  0  0  0  0  0  0  0
   12.5903    2.8726   22.4815 N   0  0  0  0  0  0  0  0  0  0  0  0
   12.6080    1.4643   22.3245 C   0  0  0  0  0  0  0  0  0  0  0  0
   13.7355    0.6855   22.5676 C   0  0  0  0  0  0  0  0  0  0  0  0
   13.6757   -0.6861   22.3898 C   0  0  0  0  0  0  0  0  0  0  0  0
   12.5048   -1.2930   21.9696 C   0  0  0  0  0  0  0  0  0  0  0  0
   11.3608   -0.5410   21.7213 C   0  0  0  0  0  0  0  0  0  0  0  0
   11.4372    0.8399   21.9076 C   0  0  0  0  0  0  0  0  0  0  0  0
   10.0954   -1.1827   21.2717 C   0  0  0  0  0  0  0  0  0  0  0  0
    9.6071   -2.3340   21.8815 C   0  0  0  0  0  0  0  0  0  0  0  0
    8.4149   -2.9035   21.4741 C   0  0  0  0  0  0  0  0  0  0  0  0
    7.6619   -2.3499   20.4439 C   0  0  0  0  0  0  0  0  0  0  0  0
    6.3740   -3.0178   20.0089 C   0  0  0  0  0  0  0  0  0  0  0  0
    5.4646   -2.1018   19.2218 C   0  0  0  0  0  0  0  0  0  0  0  0
    6.2534   -1.3586   18.1585 C   0  0  0  0  0  0  0  0  0  0  0  0
    7.3264   -0.4885   18.7466 C   0  0  0  0  0  0  0  0  0  0  0  0
    8.1339   -1.1873   19.8123 C   0  0  0  0  0  0  0  0  0  0  0  0
    9.3358   -0.6322   20.2392 C   0  0  0  0  0  0  0  0  0  0  0  0
  1  2  1  0
  2  3  1  0
  3  4  2  0
  3  5  1  0
  5  6  1  0
  6  7  2  0
  7  8  1  0
  8  9  2  0
  9 10  1  0
 10 11  2  0
 10 12  1  0
 12 13  2  0
 13 14  1  0
 14 15  2  0
 15 16  1  0
 16 17  1  0
 17 18  1  0
 18 19  1  0
 19 20  1  0
 20 21  2  0
 11  6  1  0
 21 12  1  0
 20 15  1  0
M  END
