CVD-0001881|dock_bobby27042020.93|mol2|40|dock1
     RDKit          3D

 33 35  0  0  0  0  0  0  0  0999 V2000
    8.0007    4.2072   23.9123 C   0  0  0  0  0  0  0  0  0  0  0  0
    8.8692    4.5080   22.7174 C   0  0  0  0  0  0  0  0  0  0  0  0
   10.3449    4.2299   22.8983 C   0  0  0  0  0  0  0  0  0  0  0  0
   11.1972    5.3256   23.0141 C   0  0  0  0  0  0  0  0  0  0  0  0
   12.5704    5.1713   23.0755 C   0  0  0  0  0  0  0  0  0  0  0  0
   13.1200    3.9044   23.0175 C   0  0  0  0  0  0  0  0  0  0  0  0
   12.3085    2.7760   22.9427 C   0  0  0  0  0  0  0  0  0  0  0  0
   12.9265    1.4041   22.8841 C   0  0  0  0  0  0  0  0  0  0  0  0
   10.9207    2.9454   22.9313 C   0  0  0  0  0  0  0  0  0  0  0  0
   10.1408    1.7411   22.9474 N   0  0  0  0  0  0  0  0  0  0  0  0
    9.3988    1.2570   21.9219 C   0  0  0  0  0  0  0  0  0  0  0  0
    9.2878    1.7871   20.8207 O   0  0  0  0  0  0  0  0  0  0  0  0
    8.6687   -0.0598   22.2642 C   0  0  0  0  0  0  0  0  0  0  0  0
    9.6184   -1.1365   22.6560 N   0  0  0  0  0  0  0  0  0  0  0  0
   10.7986   -1.2345   21.9234 C   0  0  0  0  0  0  0  0  0  0  0  0
   11.0158   -0.4511   21.0006 O   0  0  0  0  0  0  0  0  0  0  0  0
   11.8762   -2.2400   22.1813 C   0  0  0  0  0  0  0  0  0  0  0  0
   13.0424   -2.2532   21.5880 C   0  0  0  0  0  0  0  0  0  0  0  0
    9.2235   -2.0117   23.7222 C   0  0  0  0  0  0  0  0  0  0  0  0
    9.0438   -1.5136   25.0062 C   0  0  0  0  0  0  0  0  0  0  0  0
    8.6550   -2.3563   26.0310 C   0  0  0  0  0  0  0  0  0  0  0  0
    8.4495   -3.6951   25.7501 C   0  0  0  0  0  0  0  0  0  0  0  0
    8.6122   -4.1946   24.5195 N   0  0  0  0  0  0  0  0  0  0  0  0
    8.9885   -3.3654   23.5387 C   0  0  0  0  0  0  0  0  0  0  0  0
    8.0223   -4.6657   26.8236 C   0  0  0  0  0  0  0  0  0  0  0  0
    9.1924   -5.5496   27.2536 C   0  0  0  0  0  0  0  0  0  0  0  0
    6.8748   -5.5475   26.3330 C   0  0  0  0  0  0  0  0  0  0  0  0
    7.6713   -0.4978   21.1953 C   0  0  0  0  0  0  0  0  0  0  0  0
    6.3271   -0.1776   21.3133 C   0  0  0  0  0  0  0  0  0  0  0  0
    5.4313   -0.5728   20.3355 C   0  0  0  0  0  0  0  0  0  0  0  0
    5.9085   -1.2820   19.2571 C   0  0  0  0  0  0  0  0  0  0  0  0
    7.1933   -1.6077   19.1102 N   0  0  0  0  0  0  0  0  0  0  0  0
    8.0401   -1.2187   20.0683 C   0  0  0  0  0  0  0  0  0  0  0  0
  1  2  1  0
  2  3  1  0
  3  4  2  0
  4  5  1  0
  5  6  2  0
  6  7  1  0
  7  8  1  0
  7  9  2  0
  9 10  1  0
 10 11  1  0
 11 12  2  0
 11 13  1  0
 13 14  1  0
 14 15  1  0
 15 16  2  0
 15 17  1  0
 17 18  2  0
 14 19  1  0
 19 20  2  0
 20 21  1  0
 21 22  2  0
 22 23  1  0
 23 24  2  0
 22 25  1  0
 25 26  1  0
 25 27  1  0
 13 28  1  0
 28 29  2  0
 29 30  1  0
 30 31  2  0
 31 32  1  0
 32 33  2  0
  9  3  1  0
 24 19  1  0
 33 28  1  0
M  END
