CVD-0000233|dock_bobby27042020.13|mol2|35|dock3
     RDKit          3D

 23 25  0  0  0  0  0  0  0  0999 V2000
    9.5507    2.1961   23.7302 N   0  0  0  0  0  0  0  0  0  0  0  0
   10.6521    2.6816   23.1376 C   0  0  0  0  0  0  0  0  0  0  0  0
   10.9032    4.0008   22.7520 C   0  0  0  0  0  0  0  0  0  0  0  0
   12.1774    3.9834   22.1724 C   0  0  0  0  0  0  0  0  0  0  0  0
   12.7026    2.7718   22.1798 N   0  0  0  0  0  0  0  0  0  0  0  0
   11.7618    1.9670   22.7842 N   0  0  0  0  0  0  0  0  0  0  0  0
   12.0624    0.5736   22.9777 C   0  0  0  0  0  0  0  0  0  0  0  0
   13.1991    0.2489   23.7141 C   0  0  0  0  0  0  0  0  0  0  0  0
   13.5356   -1.0781   23.9070 C   0  0  0  0  0  0  0  0  0  0  0  0
   12.7641   -2.0780   23.3634 C   0  0  0  0  0  0  0  0  0  0  0  0
   11.6310   -1.7772   22.6288 C   0  0  0  0  0  0  0  0  0  0  0  0
   11.2496   -0.4469   22.4380 C   0  0  0  0  0  0  0  0  0  0  0  0
   10.0720   -0.0834   21.7303 N   0  0  0  0  0  0  0  0  0  0  0  0
    9.0702   -0.8395   21.2163 C   0  0  0  0  0  0  0  0  0  0  0  0
    8.9848   -2.0617   21.2683 O   0  0  0  0  0  0  0  0  0  0  0  0
    7.9985   -0.0314   20.5156 C   0  0  0  0  0  0  0  0  0  0  0  0
    7.2356   -0.8273   19.5006 C   0  0  0  0  0  0  0  0  0  0  0  0
    5.8975   -0.9554   19.2759 C   0  0  0  0  0  0  0  0  0  0  0  0
    5.7654   -1.8267   18.2001 C   0  0  0  0  0  0  0  0  0  0  0  0
    6.9513   -2.2314   17.7633 N   0  0  0  0  0  0  0  0  0  0  0  0
    7.8425   -1.6011   18.5816 N   0  0  0  0  0  0  0  0  0  0  0  0
   10.0256    5.1175   22.9213 C   0  0  0  0  0  0  0  0  0  0  0  0
    9.3433    6.0302   23.0266 N   0  0  0  0  0  0  0  0  0  0  0  0
  1  2  1  0
  2  3  2  0
  3  4  1  0
  4  5  2  0
  5  6  1  0
  6  7  1  0
  7  8  2  0
  8  9  1  0
  9 10  2  0
 10 11  1  0
 11 12  2  0
 12 13  1  0
 13 14  1  0
 14 15  2  0
 14 16  1  0
 16 17  1  0
 17 18  2  0
 18 19  1  0
 19 20  2  0
 20 21  1  0
  3 22  1  0
 22 23  3  0
  6  2  1  0
 12  7  1  0
 21 17  1  0
M  END
