CVD-0003574|dock_bobby27042020.59|mol2|22|dock1
     RDKit          3D

 23 24  0  0  0  0  0  0  0  0999 V2000
    8.1194   -0.1346   18.5160 C   0  0  0  0  0  0  0  0  0  0  0  0
    8.8022   -0.9959   19.4638 N   0  0  0  0  0  0  0  0  0  0  0  0
    8.3471   -1.1502   20.7052 C   0  0  0  0  0  0  0  0  0  0  0  0
    7.3480   -0.5398   21.0736 O   0  0  0  0  0  0  0  0  0  0  0  0
    9.0500   -2.0478   21.6875 C   0  0  0  0  0  0  0  0  0  0  0  0
    8.2520   -3.0655   22.2143 C   0  0  0  0  0  0  0  0  0  0  0  0
    8.7238   -3.9323   23.1812 C   0  0  0  0  0  0  0  0  0  0  0  0
   10.0242   -3.7987   23.6463 C   0  0  0  0  0  0  0  0  0  0  0  0
   10.8461   -2.8162   23.1030 C   0  0  0  0  0  0  0  0  0  0  0  0
   10.3974   -1.9578   22.1028 C   0  0  0  0  0  0  0  0  0  0  0  0
   11.4270   -1.0066   21.5316 C   0  0  0  0  0  0  0  0  0  0  0  0
   11.7544    0.1215   22.4195 N   0  0  0  0  0  0  0  0  0  0  0  0
   13.2069    0.2971   22.5108 C   0  0  0  0  0  0  0  0  0  0  0  0
   13.5398    1.4342   23.4588 C   0  0  0  0  0  0  0  0  0  0  0  0
   12.9071    2.6764   23.0099 N   0  0  0  0  0  0  0  0  0  0  0  0
   11.4584    2.5162   22.8507 C   0  0  0  0  0  0  0  0  0  0  0  0
   11.1555    1.3563   21.9196 C   0  0  0  0  0  0  0  0  0  0  0  0
   13.5979    3.8168   22.8062 C   0  0  0  0  0  0  0  0  0  0  0  0
   14.8063    3.8822   22.9936 O   0  0  0  0  0  0  0  0  0  0  0  0
   12.8036    5.0205   22.3383 C   0  0  0  0  0  0  0  0  0  0  0  0
   13.8438    6.4405   22.1676 Cl  0  0  0  0  0  0  0  0  0  0  0  0
   10.5256   -4.6693   24.6810 C   0  0  0  0  0  0  0  0  0  0  0  0
   10.9516   -5.3420   25.4999 N   0  0  0  0  0  0  0  0  0  0  0  0
  1  2  1  0
  2  3  1  0
  3  4  2  0
  3  5  1  0
  5  6  2  0
  6  7  1  0
  7  8  2  0
  8  9  1  0
  9 10  2  0
 10 11  1  0
 11 12  1  0
 12 13  1  0
 13 14  1  0
 14 15  1  0
 15 16  1  0
 16 17  1  0
 15 18  1  0
 18 19  2  0
 18 20  1  0
 20 21  1  0
  8 22  1  0
 22 23  3  0
 10  5  1  0
 17 12  1  0
M  END
