CVD-0003486|dock_bobby27042020.59|mol2|36|dock1
     RDKit          3D

 21 22  0  0  0  0  0  0  0  0999 V2000
   13.6127    5.0108   21.6717 Cl  0  0  0  0  0  0  0  0  0  0  0  0
   12.4642    3.7335   22.0930 C   0  0  0  0  0  0  0  0  0  0  0  0
   13.1753    2.4801   22.5667 C   0  0  0  0  0  0  0  0  0  0  0  0
   14.3975    2.4047   22.5647 O   0  0  0  0  0  0  0  0  0  0  0  0
   12.4043    1.4537   22.9819 N   0  0  0  0  0  0  0  0  0  0  0  0
   10.9409    1.5117   22.9886 C   0  0  0  0  0  0  0  0  0  0  0  0
   10.3603    0.3380   22.2219 C   0  0  0  0  0  0  0  0  0  0  0  0
   10.8198   -0.9261   22.8048 N   0  0  0  0  0  0  0  0  0  0  0  0
   10.2285   -2.0666   22.0904 C   0  0  0  0  0  0  0  0  0  0  0  0
    8.7123   -2.0550   22.0792 C   0  0  0  0  0  0  0  0  0  0  0  0
    8.1957   -1.2764   20.9627 N   0  0  0  0  0  0  0  0  0  0  0  0
    6.8858   -1.0673   20.8038 C   0  0  0  0  0  0  0  0  0  0  0  0
    6.0707   -1.5371   21.5921 O   0  0  0  0  0  0  0  0  0  0  0  0
    6.3961   -0.2460   19.6455 C   0  0  0  0  0  0  0  0  0  0  0  0
    5.2029    0.4561   19.7627 C   0  0  0  0  0  0  0  0  0  0  0  0
    4.7421    1.2164   18.7027 C   0  0  0  0  0  0  0  0  0  0  0  0
    5.4911    1.2537   17.5494 C   0  0  0  0  0  0  0  0  0  0  0  0
    6.6397    0.5922   17.4037 N   0  0  0  0  0  0  0  0  0  0  0  0
    7.0729   -0.1390   18.4356 C   0  0  0  0  0  0  0  0  0  0  0  0
   12.2778   -0.9802   22.7368 C   0  0  0  0  0  0  0  0  0  0  0  0
   12.8951    0.1746   23.5044 C   0  0  0  0  0  0  0  0  0  0  0  0
  1  2  1  0
  2  3  1  0
  3  4  2  0
  3  5  1  0
  5  6  1  0
  6  7  1  0
  7  8  1  0
  8  9  1  0
  9 10  1  0
 10 11  1  0
 11 12  1  0
 12 13  2  0
 12 14  1  0
 14 15  2  0
 15 16  1  0
 16 17  2  0
 17 18  1  0
 18 19  2  0
  8 20  1  0
 20 21  1  0
 21  5  1  0
 19 14  1  0
M  END
