CVD-0003388|dock_bobby27042020.60|mol2|3|dock2
     RDKit          3D

 19 21  0  0  0  0  0  0  0  0999 V2000
    8.8600   -0.6039   23.0403 O   0  0  0  0  0  0  0  0  0  0  0  0
    9.3013   -0.9566   21.9516 C   0  0  0  0  0  0  0  0  0  0  0  0
   10.5548   -1.4865   21.7492 N   0  0  0  0  0  0  0  0  0  0  0  0
   11.6069   -1.7549   22.6614 C   0  0  0  0  0  0  0  0  0  0  0  0
   11.4043   -2.1955   23.9679 C   0  0  0  0  0  0  0  0  0  0  0  0
   12.4873   -2.4355   24.7977 C   0  0  0  0  0  0  0  0  0  0  0  0
   13.7738   -2.2425   24.3448 C   0  0  0  0  0  0  0  0  0  0  0  0
   13.9846   -1.8072   23.0554 C   0  0  0  0  0  0  0  0  0  0  0  0
   12.9102   -1.5641   22.2166 C   0  0  0  0  0  0  0  0  0  0  0  0
    8.6014   -0.8718   20.7708 N   0  0  0  0  0  0  0  0  0  0  0  0
    7.2880   -0.3884   20.5419 C   0  0  0  0  0  0  0  0  0  0  0  0
    6.2211   -0.3900   21.4425 C   0  0  0  0  0  0  0  0  0  0  0  0
    4.9959    0.0796   21.1778 N   0  0  0  0  0  0  0  0  0  0  0  0
    4.7454    0.5930   19.9732 C   0  0  0  0  0  0  0  0  0  0  0  0
    5.7247    0.6483   18.9983 C   0  0  0  0  0  0  0  0  0  0  0  0
    5.7414    1.1072   17.7197 N   0  0  0  0  0  0  0  0  0  0  0  0
    6.9695    0.9397   17.1497 N   0  0  0  0  0  0  0  0  0  0  0  0
    7.7288    0.3746   18.0692 C   0  0  0  0  0  0  0  0  0  0  0  0
    7.0131    0.1566   19.2711 C   0  0  0  0  0  0  0  0  0  0  0  0
  1  2  2  0
  2  3  1  0
  3  4  1  0
  4  5  2  0
  5  6  1  0
  6  7  2  0
  7  8  1  0
  8  9  2  0
  2 10  1  0
 10 11  1  0
 11 12  2  0
 12 13  1  0
 13 14  2  0
 14 15  1  0
 15 16  1  0
 16 17  1  0
 17 18  2  0
 18 19  1  0
  9  4  1  0
 19 11  1  0
 19 15  2  0
M  END
