CVD-0000049|dock_bobby27042020.71|mol2|34|dock1
     RDKit          3D

 26 28  0  0  0  0  0  0  0  0999 V2000
   14.0938   -2.7106   23.2200 C   0  0  0  0  0  0  0  0  0  0  0  0
   14.2168   -1.3225   23.5209 O   0  0  0  0  0  0  0  0  0  0  0  0
   13.1041   -0.5685   23.4348 C   0  0  0  0  0  0  0  0  0  0  0  0
   13.2732    0.7710   23.1304 C   0  0  0  0  0  0  0  0  0  0  0  0
   12.1354    1.5652   23.0374 C   0  0  0  0  0  0  0  0  0  0  0  0
   10.8974    0.9737   23.2539 C   0  0  0  0  0  0  0  0  0  0  0  0
   10.8347   -0.3755   23.5528 C   0  0  0  0  0  0  0  0  0  0  0  0
    9.5210   -1.0649   23.7960 C   0  0  0  0  0  0  0  0  0  0  0  0
    9.3172   -2.4873   22.7429 S   0  0  0  0  0  0  0  0  0  0  0  0
   10.6046   -3.0903   22.5691 O   0  0  0  0  0  0  0  0  0  0  0  0
    8.2387   -3.2693   23.2686 O   0  0  0  0  0  0  0  0  0  0  0  0
    8.8444   -1.9191   21.2891 N   0  0  0  0  0  0  0  0  0  0  0  0
    7.5487   -1.3463   21.0032 C   0  0  0  0  0  0  0  0  0  0  0  0
    7.2920   -0.9011   19.7001 C   0  0  0  0  0  0  0  0  0  0  0  0
    8.2978   -0.9930   18.5819 C   0  0  0  0  0  0  0  0  0  0  0  0
    6.0378   -0.3543   19.4439 C   0  0  0  0  0  0  0  0  0  0  0  0
    5.1061   -0.2667   20.4569 C   0  0  0  0  0  0  0  0  0  0  0  0
    5.3254   -0.6827   21.7095 N   0  0  0  0  0  0  0  0  0  0  0  0
    6.5007   -1.1991   21.9600 C   0  0  0  0  0  0  0  0  0  0  0  0
    6.6301   -1.5877   23.2369 F   0  0  0  0  0  0  0  0  0  0  0  0
   11.9293   -1.1443   23.6434 N   0  0  0  0  0  0  0  0  0  0  0  0
   12.2296    2.9967   22.7182 C   0  0  0  0  0  0  0  0  0  0  0  0
   11.1973    3.8774   22.4989 C   0  0  0  0  0  0  0  0  0  0  0  0
   11.6674    5.1825   22.2161 C   0  0  0  0  0  0  0  0  0  0  0  0
   13.0071    5.2782   22.2228 C   0  0  0  0  0  0  0  0  0  0  0  0
   13.7478    3.7816   22.5741 S   0  0  0  0  0  0  0  0  0  0  0  0
  1  2  1  0
  2  3  1  0
  3  4  2  0
  4  5  1  0
  5  6  2  0
  6  7  1  0
  7  8  1  0
  8  9  1  0
  9 10  2  0
  9 11  2  0
  9 12  1  0
 12 13  1  0
 13 14  2  0
 14 15  1  0
 14 16  1  0
 16 17  2  0
 17 18  1  0
 18 19  2  0
 19 20  1  0
  7 21  2  0
  5 22  1  0
 22 23  2  0
 23 24  1  0
 24 25  2  0
 25 26  1  0
 21  3  1  0
 26 22  1  0
 19 13  1  0
M  END
