CVD-0000966|dock_bobby27042020.54|mol2|15|dock2
     RDKit          3D

 30 33  0  0  0  0  0  0  0  0999 V2000
   13.7171    6.7194   22.6201 C   0  0  0  0  0  0  0  0  0  0  0  0
   12.8046    5.7075   23.2911 C   0  0  0  0  0  0  0  0  0  0  0  0
   12.8981    5.8348   24.8018 C   0  0  0  0  0  0  0  0  0  0  0  0
   13.1889    4.2945   22.8625 C   0  0  0  0  0  0  0  0  0  0  0  0
   12.6447    3.2165   23.6972 N   0  0  0  0  0  0  0  0  0  0  0  0
   13.2202    1.9320   23.2994 C   0  0  0  0  0  0  0  0  0  0  0  0
   12.7690    0.8244   24.2350 C   0  0  0  0  0  0  0  0  0  0  0  0
   11.3010    0.7596   24.2864 N   0  0  0  0  0  0  0  0  0  0  0  0
   10.6459    2.0532   24.5264 C   0  0  0  0  0  0  0  0  0  0  0  0
   11.1894    3.1101   23.5797 C   0  0  0  0  0  0  0  0  0  0  0  0
   10.5922   -0.4654   24.3430 C   0  0  0  0  0  0  0  0  0  0  0  0
   10.0376   -0.8757   25.5541 C   0  0  0  0  0  0  0  0  0  0  0  0
    9.4240   -2.1092   25.6692 C   0  0  0  0  0  0  0  0  0  0  0  0
    9.3389   -2.9747   24.5920 C   0  0  0  0  0  0  0  0  0  0  0  0
    9.8383   -2.5598   23.3692 C   0  0  0  0  0  0  0  0  0  0  0  0
   10.4139   -1.3037   23.2233 C   0  0  0  0  0  0  0  0  0  0  0  0
   10.8650   -0.8748   21.5588 S   0  0  0  0  0  0  0  0  0  0  0  0
    9.7483   -1.4040   20.5409 N   0  0  0  0  0  0  0  0  0  0  0  0
   10.8382    0.5547   21.4757 O   0  0  0  0  0  0  0  0  0  0  0  0
   12.0979   -1.5339   21.2470 O   0  0  0  0  0  0  0  0  0  0  0  0
    8.7016   -4.3489   24.7449 C   0  0  0  0  0  0  0  0  0  0  0  0
    9.6740   -5.4325   24.7799 N   0  0  0  0  0  0  0  0  0  0  0  0
    9.6458   -6.1689   25.9070 C   0  0  0  0  0  0  0  0  0  0  0  0
   10.3789   -7.1164   26.1695 O   0  0  0  0  0  0  0  0  0  0  0  0
    8.5553   -5.6166   26.7403 C   0  0  0  0  0  0  0  0  0  0  0  0
    8.0700   -6.0077   27.9874 C   0  0  0  0  0  0  0  0  0  0  0  0
    7.0110   -5.3098   28.5497 C   0  0  0  0  0  0  0  0  0  0  0  0
    6.4441   -4.2413   27.8842 C   0  0  0  0  0  0  0  0  0  0  0  0
    6.9288   -3.8546   26.6443 C   0  0  0  0  0  0  0  0  0  0  0  0
    7.9912   -4.5461   26.0677 C   0  0  0  0  0  0  0  0  0  0  0  0
  1  2  1  0
  2  3  1  0
  2  4  1  0
  4  5  1  0
  5  6  1  0
  6  7  1  0
  7  8  1  0
  8  9  1  0
  9 10  1  0
  8 11  1  0
 11 12  2  0
 12 13  1  0
 13 14  2  0
 14 15  1  0
 15 16  2  0
 16 17  1  0
 17 18  1  0
 17 19  2  0
 17 20  2  0
 14 21  1  0
 21 22  1  0
 22 23  1  0
 23 24  2  0
 23 25  1  0
 25 26  2  0
 26 27  1  0
 27 28  2  0
 28 29  1  0
 29 30  2  0
 10  5  1  0
 16 11  1  0
 30 21  1  0
 30 25  1  0
M  END
