CVD-0001166|dock_bobby27042020.68|mol2|1|dock2
     RDKit          3D

 35 40  0  0  0  0  0  0  0  0999 V2000
   13.4064   -1.5586   20.8747 N   0  0  0  0  0  0  0  0  0  0  0  0
   13.2839   -1.5585   22.1927 C   0  0  0  0  0  0  0  0  0  0  0  0
   14.2006   -1.2119   22.9431 O   0  0  0  0  0  0  0  0  0  0  0  0
   11.9525   -2.0141   22.7383 C   0  0  0  0  0  0  0  0  0  0  0  0
   10.8126   -1.0486   22.4237 C   0  0  0  0  0  0  0  0  0  0  0  0
    9.4960   -1.3782   23.1224 C   0  0  0  0  0  0  0  0  0  0  0  0
    9.0727   -2.7659   22.8935 N   0  0  0  0  0  0  0  0  0  0  0  0
    7.6920   -2.8496   23.3652 C   0  0  0  0  0  0  0  0  0  0  0  0
    7.0668   -1.5297   22.7980 C   0  0  0  0  0  0  0  0  0  0  0  0
    8.2540   -0.5694   22.6475 C   0  0  0  0  0  0  0  0  0  0  0  0
    8.2832   -0.2092   21.1766 C   0  0  0  0  0  0  0  0  0  0  0  0
    9.0180    0.5938   20.6301 O   0  0  0  0  0  0  0  0  0  0  0  0
    7.1981   -0.8146   20.5561 N   0  0  0  0  0  0  0  0  0  0  0  0
    6.8967   -0.6559   19.1292 C   0  0  0  0  0  0  0  0  0  0  0  0
    5.8713    0.4178   18.8546 C   0  0  0  0  0  0  0  0  0  0  0  0
    6.0379    1.2937   17.7883 C   0  0  0  0  0  0  0  0  0  0  0  0
    5.1120    2.2891   17.5168 C   0  0  0  0  0  0  0  0  0  0  0  0
    4.0002    2.3981   18.3390 C   0  0  0  0  0  0  0  0  0  0  0  0
    2.9323    3.2607   18.2680 O   0  0  0  0  0  0  0  0  0  0  0  0
    2.1830    3.0474   19.4603 C   0  0  0  0  0  0  0  0  0  0  0  0
    2.6365    1.8177   20.0342 O   0  0  0  0  0  0  0  0  0  0  0  0
    3.8251    1.5320   19.4022 C   0  0  0  0  0  0  0  0  0  0  0  0
    4.7503    0.5394   19.6713 C   0  0  0  0  0  0  0  0  0  0  0  0
    6.5478   -1.7150   21.3854 C   0  0  0  0  0  0  0  0  0  0  0  0
    5.6325   -2.4303   21.0213 O   0  0  0  0  0  0  0  0  0  0  0  0
    7.5821   -2.8856   24.9060 C   0  0  0  0  0  0  0  0  0  0  0  0
    8.1714   -2.1418   25.6730 O   0  0  0  0  0  0  0  0  0  0  0  0
    6.8227   -3.9718   25.2383 N   0  0  0  0  0  0  0  0  0  0  0  0
    6.4254   -4.6773   24.1133 C   0  0  0  0  0  0  0  0  0  0  0  0
    6.9634   -4.1080   22.9664 C   0  0  0  0  0  0  0  0  0  0  0  0
    6.7485   -4.7213   21.7402 C   0  0  0  0  0  0  0  0  0  0  0  0
    6.0040   -5.8893   21.6646 C   0  0  0  0  0  0  0  0  0  0  0  0
    5.4649   -6.4613   22.8064 C   0  0  0  0  0  0  0  0  0  0  0  0
    5.6780   -5.8514   24.0312 C   0  0  0  0  0  0  0  0  0  0  0  0
    5.0229   -6.5716   25.4629 Cl  0  0  0  0  0  0  0  0  0  0  0  0
  1  2  1  0
  2  3  2  0
  2  4  1  0
  4  5  1  0
  6  5  1  0
  6  7  1  0
  8  7  1  0
  8  9  1  0
  9 10  1  0
 10 11  1  0
 11 12  2  0
 11 13  1  0
 13 14  1  0
 14 15  1  0
 15 16  2  0
 16 17  1  0
 17 18  2  0
 18 19  1  0
 19 20  1  0
 20 21  1  0
 21 22  1  0
 22 23  2  0
 13 24  1  0
 24 25  2  0
  8 26  1  0
 26 27  2  0
 26 28  1  0
 28 29  1  0
 29 30  2  0
 30 31  1  0
 31 32  2  0
 32 33  1  0
 33 34  2  0
 34 35  1  0
 10  6  1  0
 23 15  1  0
 34 29  1  0
 30  8  1  0
  9 24  1  0
 22 18  1  0
M  END
