CVD-0002732|dock_bobby27042020.76|mol2|14|dock2
     RDKit          3D

 23 25  0  0  0  0  0  0  0  0999 V2000
    7.7116    0.4774   19.7821 N   0  0  0  0  0  0  0  0  0  0  0  0
    8.4098    0.3701   20.9017 C   0  0  0  0  0  0  0  0  0  0  0  0
    8.8487    1.3522   21.5042 O   0  0  0  0  0  0  0  0  0  0  0  0
    8.6463   -1.0317   21.4251 C   0  0  0  0  0  0  0  0  0  0  0  0
    7.3611   -1.8475   21.6415 C   0  0  0  0  0  0  0  0  0  0  0  0
    7.4822   -2.4895   23.0383 C   0  0  0  0  0  0  0  0  0  0  0  0
    8.9537   -2.2887   23.4282 C   0  0  0  0  0  0  0  0  0  0  0  0
    9.3261   -0.9602   22.7911 C   0  0  0  0  0  0  0  0  0  0  0  0
   10.8299   -0.7794   22.7509 C   0  0  0  0  0  0  0  0  0  0  0  0
   11.6338   -1.6672   22.0494 C   0  0  0  0  0  0  0  0  0  0  0  0
   13.0079   -1.4997   22.0103 C   0  0  0  0  0  0  0  0  0  0  0  0
   13.5958   -0.4424   22.6708 C   0  0  0  0  0  0  0  0  0  0  0  0
   12.8100    0.4480   23.3705 C   0  0  0  0  0  0  0  0  0  0  0  0
   11.4357    0.2813   23.4102 C   0  0  0  0  0  0  0  0  0  0  0  0
    6.5437   -1.8182   24.0478 C   0  0  0  0  0  0  0  0  0  0  0  0
    6.5760   -2.5009   25.4129 C   0  0  0  0  0  0  0  0  0  0  0  0
    6.3670   -4.0123   25.3269 C   0  0  0  0  0  0  0  0  0  0  0  0
    7.2528   -4.6046   24.3163 N   0  0  0  0  0  0  0  0  0  0  0  0
    7.1531   -3.9838   22.9913 C   0  0  0  0  0  0  0  0  0  0  0  0
    8.1928   -5.5476   24.5314 C   0  0  0  0  0  0  0  0  0  0  0  0
    8.8891   -5.9949   23.6287 O   0  0  0  0  0  0  0  0  0  0  0  0
    8.3473   -6.0258   25.9617 C   0  0  0  0  0  0  0  0  0  0  0  0
    9.6022   -7.2644   26.0963 Cl  0  0  0  0  0  0  0  0  0  0  0  0
  1  2  1  0
  2  3  2  0
  2  4  1  0
  4  5  1  0
  5  6  1  0
  6  7  1  0
  7  8  1  0
  8  9  1  0
  9 10  2  0
 10 11  1  0
 11 12  2  0
 12 13  1  0
 13 14  2  0
  6 15  1  0
 15 16  1  0
 16 17  1  0
 17 18  1  0
 18 19  1  0
 18 20  1  0
 20 21  2  0
 20 22  1  0
 22 23  1  0
  8  4  1  0
 14  9  1  0
 19  6  1  0
M  END
