CVD-0001799|dock_bobby27042020.94|mol2|12|dock1
     RDKit          3D

 14 15  0  0  0  0  0  0  0  0999 V2000
   13.7758    5.0264   22.9358 C   0  0  0  0  0  0  0  0  0  0  0  0
   12.7741    4.1796   22.2072 C   0  0  0  0  0  0  0  0  0  0  0  0
   12.3291    4.5312   21.1200 O   0  0  0  0  0  0  0  0  0  0  0  0
   12.4528    3.0318   22.8603 N   0  0  0  0  0  0  0  0  0  0  0  0
   11.5715    1.9688   22.5103 C   0  0  0  0  0  0  0  0  0  0  0  0
   10.3434    2.1703   21.8827 C   0  0  0  0  0  0  0  0  0  0  0  0
    9.5454    1.1753   21.4907 N   0  0  0  0  0  0  0  0  0  0  0  0
    9.9533   -0.0724   21.7156 C   0  0  0  0  0  0  0  0  0  0  0  0
   11.1359   -0.4051   22.3219 C   0  0  0  0  0  0  0  0  0  0  0  0
   11.4601   -1.8484   22.6430 C   0  0  0  0  0  0  0  0  0  0  0  0
   12.8092   -2.0784   23.1933 N   0  0  0  0  0  0  0  0  0  0  0  0
   13.7814   -1.0439   22.8417 C   0  0  0  0  0  0  0  0  0  0  0  0
   13.3105    0.3042   23.3430 C   0  0  0  0  0  0  0  0  0  0  0  0
   11.9740    0.6367   22.7335 C   0  0  0  0  0  0  0  0  0  0  0  0
  1  2  1  0
  2  3  2  0
  2  4  1  0
  4  5  1  0
  5  6  2  0
  6  7  1  0
  7  8  2  0
  8  9  1  0
  9 10  1  0
 10 11  1  0
 11 12  1  0
 12 13  1  0
 13 14  1  0
 14  5  1  0
 14  9  2  0
M  END
