CVD-0000588|dock_bobby27042020.26|mol2|44|dock1
     RDKit          3D

 16 17  0  0  0  0  0  0  0  0999 V2000
   13.6448    6.0594   22.2488 Cl  0  0  0  0  0  0  0  0  0  0  0  0
   12.3152    4.9705   22.5296 C   0  0  0  0  0  0  0  0  0  0  0  0
   11.0600    5.4873   22.7552 C   0  0  0  0  0  0  0  0  0  0  0  0
   10.0134    4.6105   22.9768 C   0  0  0  0  0  0  0  0  0  0  0  0
   10.2282    3.2422   22.9710 C   0  0  0  0  0  0  0  0  0  0  0  0
   11.5018    2.7197   22.7420 C   0  0  0  0  0  0  0  0  0  0  0  0
   12.5486    3.6107   22.5201 C   0  0  0  0  0  0  0  0  0  0  0  0
   11.8153    1.2470   22.7201 C   0  0  0  0  0  0  0  0  0  0  0  0
   11.0625    0.5219   22.0784 O   0  0  0  0  0  0  0  0  0  0  0  0
   12.9022    0.7868   23.4009 N   0  0  0  0  0  0  0  0  0  0  0  0
   13.4114   -0.5298   23.5404 C   0  0  0  0  0  0  0  0  0  0  0  0
   13.4546   -1.4797   22.5231 C   0  0  0  0  0  0  0  0  0  0  0  0
   13.9777   -2.7338   22.7877 C   0  0  0  0  0  0  0  0  0  0  0  0
   14.4421   -3.0072   24.0532 C   0  0  0  0  0  0  0  0  0  0  0  0
   14.4147   -2.1202   25.0473 N   0  0  0  0  0  0  0  0  0  0  0  0
   13.9078   -0.9130   24.7814 C   0  0  0  0  0  0  0  0  0  0  0  0
  1  2  1  0
  2  3  2  0
  3  4  1  0
  4  5  2  0
  5  6  1  0
  6  7  2  0
  6  8  1  0
  8  9  2  0
  8 10  1  0
 10 11  1  0
 11 12  2  0
 12 13  1  0
 13 14  2  0
 14 15  1  0
 15 16  2  0
  7  2  1  0
 16 11  1  0
M  END
