CVD-0000149|dock_bobby27042020.57|mol2|9|dock1
     RDKit          3D

 24 26  0  0  0  0  0  0  0  0999 V2000
   13.9642    5.5638   22.6611 C   0  0  0  0  0  0  0  0  0  0  0  0
   13.0413    4.4659   22.2335 C   0  0  0  0  0  0  0  0  0  0  0  0
   13.6746    3.1630   22.3490 N   0  0  0  0  0  0  0  0  0  0  0  0
   12.9955    1.9606   22.3021 C   0  0  0  0  0  0  0  0  0  0  0  0
   13.5894    0.7901   22.7536 C   0  0  0  0  0  0  0  0  0  0  0  0
   12.8927   -0.4005   22.6962 C   0  0  0  0  0  0  0  0  0  0  0  0
   11.5931   -0.4480   22.1903 C   0  0  0  0  0  0  0  0  0  0  0  0
   10.9349   -1.7295   22.1653 C   0  0  0  0  0  0  0  0  0  0  0  0
   10.4257   -2.7508   22.1138 N   0  0  0  0  0  0  0  0  0  0  0  0
   10.9715    0.7328   21.7272 C   0  0  0  0  0  0  0  0  0  0  0  0
    9.6442    0.6567   21.2164 N   0  0  0  0  0  0  0  0  0  0  0  0
    9.0465   -0.2935   20.4553 C   0  0  0  0  0  0  0  0  0  0  0  0
    9.5658   -1.3240   20.0405 O   0  0  0  0  0  0  0  0  0  0  0  0
    7.6058    0.0219   20.1127 C   0  0  0  0  0  0  0  0  0  0  0  0
    6.8918   -1.0637   19.3645 C   0  0  0  0  0  0  0  0  0  0  0  0
    6.2002   -0.9417   18.1951 C   0  0  0  0  0  0  0  0  0  0  0  0
    5.6829   -2.1510   17.8132 N   0  0  0  0  0  0  0  0  0  0  0  0
    6.0357   -3.0868   18.7406 C   0  0  0  0  0  0  0  0  0  0  0  0
    5.7281   -4.3950   18.7366 N   0  0  0  0  0  0  0  0  0  0  0  0
    6.1934   -5.1164   19.7655 C   0  0  0  0  0  0  0  0  0  0  0  0
    6.9483   -4.5917   20.7927 C   0  0  0  0  0  0  0  0  0  0  0  0
    7.2564   -3.2404   20.7813 C   0  0  0  0  0  0  0  0  0  0  0  0
    6.7964   -2.4461   19.7332 C   0  0  0  0  0  0  0  0  0  0  0  0
   11.7004    1.9221   21.7962 C   0  0  0  0  0  0  0  0  0  0  0  0
  1  2  1  0
  2  3  1  0
  3  4  1  0
  4  5  2  0
  5  6  1  0
  6  7  2  0
  7  8  1  0
  8  9  3  0
  7 10  1  0
 10 11  1  0
 11 12  1  0
 12 13  2  0
 12 14  1  0
 14 15  1  0
 15 16  2  0
 16 17  1  0
 17 18  1  0
 18 19  2  0
 19 20  1  0
 20 21  2  0
 21 22  1  0
 22 23  2  0
 10 24  2  0
 24  4  1  0
 23 15  1  0
 23 18  1  0
M  END
