CVD-0004041|dock_bobby27042020.29|mol2|2|dock3
     RDKit          3D

 24 27  0  0  0  0  0  0  0  0999 V2000
    6.3457   -1.5728   20.0801 C   0  0  0  0  0  0  0  0  0  0  0  0
    7.6386   -1.1202   20.7006 C   0  0  0  0  0  0  0  0  0  0  0  0
    8.4892   -2.0596   21.3365 C   0  0  0  0  0  0  0  0  0  0  0  0
    9.6475   -1.6867   21.9116 C   0  0  0  0  0  0  0  0  0  0  0  0
   10.0312   -0.3568   21.8934 N   0  0  0  0  0  0  0  0  0  0  0  0
   11.1575    0.3035   22.3925 C   0  0  0  0  0  0  0  0  0  0  0  0
   10.9678    1.6340   22.0524 C   0  0  0  0  0  0  0  0  0  0  0  0
    9.7853    1.7980   21.3569 N   0  0  0  0  0  0  0  0  0  0  0  0
    9.2327    0.5952   21.2763 C   0  0  0  0  0  0  0  0  0  0  0  0
    8.0186    0.1888   20.6807 C   0  0  0  0  0  0  0  0  0  0  0  0
   11.7608    2.8592   22.2933 C   0  0  0  0  0  0  0  0  0  0  0  0
   13.1516    2.8609   22.3414 C   0  0  0  0  0  0  0  0  0  0  0  0
   13.8588    4.0356   22.5272 C   0  0  0  0  0  0  0  0  0  0  0  0
   13.1588    5.1978   22.6990 C   0  0  0  0  0  0  0  0  0  0  0  0
   13.8498    6.3553   22.8811 F   0  0  0  0  0  0  0  0  0  0  0  0
   11.7920    5.2430   22.6965 C   0  0  0  0  0  0  0  0  0  0  0  0
   11.0962    4.0646   22.4941 C   0  0  0  0  0  0  0  0  0  0  0  0
   12.2526   -0.4018   23.1041 C   0  0  0  0  0  0  0  0  0  0  0  0
   12.8153    0.0982   24.2697 C   0  0  0  0  0  0  0  0  0  0  0  0
   13.8097   -0.5015   24.9330 N   0  0  0  0  0  0  0  0  0  0  0  0
   14.2699   -1.6560   24.4039 C   0  0  0  0  0  0  0  0  0  0  0  0
   15.2677   -2.2718   25.0418 N   0  0  0  0  0  0  0  0  0  0  0  0
   13.7973   -2.2350   23.2786 N   0  0  0  0  0  0  0  0  0  0  0  0
   12.7963   -1.5991   22.6604 C   0  0  0  0  0  0  0  0  0  0  0  0
  1  2  1  0
  2  3  1  0
  3  4  2  0
  4  5  1  0
  5  6  1  0
  6  7  2  0
  7  8  1  0
  8  9  2  0
  9 10  1  0
  7 11  1  0
 11 12  2  0
 12 13  1  0
 13 14  2  0
 14 15  1  0
 14 16  1  0
 16 17  2  0
  6 18  1  0
 18 19  2  0
 19 20  1  0
 20 21  2  0
 21 22  1  0
 21 23  1  0
 23 24  2  0
 10  2  2  0
 17 11  1  0
 24 18  1  0
  9  5  1  0
M  END
