CVD-0003887|dock_bobby27042020.86|mol2|26|dock1
     RDKit          3D

 28 30  0  0  0  0  0  0  0  0999 V2000
    6.4940    1.7843   22.2935 C   0  0  0  0  0  0  0  0  0  0  0  0
    6.8694    0.4320   21.6822 C   0  0  0  0  0  0  0  0  0  0  0  0
    8.3625    0.1417   21.8208 C   0  0  0  0  0  0  0  0  0  0  0  0
    9.0219    0.6334   20.9256 O   0  0  0  0  0  0  0  0  0  0  0  0
    9.0515   -0.6077   22.8161 N   0  0  0  0  0  0  0  0  0  0  0  0
   10.5444   -0.6947   22.6178 C   0  0  0  0  0  0  0  0  0  0  0  0
   11.2714    0.4160   23.3689 C   0  0  0  0  0  0  0  0  0  0  0  0
   12.7747    0.3206   23.0957 C   0  0  0  0  0  0  0  0  0  0  0  0
   13.3483   -1.0373   23.4518 C   0  0  0  0  0  0  0  0  0  0  0  0
   14.7451   -1.1194   23.1560 O   0  0  0  0  0  0  0  0  0  0  0  0
   12.5738   -2.1343   22.7381 C   0  0  0  0  0  0  0  0  0  0  0  0
   11.0684   -2.0646   23.0194 C   0  0  0  0  0  0  0  0  0  0  0  0
    8.5433   -1.2842   23.9593 C   0  0  0  0  0  0  0  0  0  0  0  0
    9.0990   -1.1060   25.0242 O   0  0  0  0  0  0  0  0  0  0  0  0
    7.3506   -2.2307   24.0480 C   0  0  0  0  0  0  0  0  0  0  0  0
    6.3207   -1.6403   25.0091 C   0  0  0  0  0  0  0  0  0  0  0  0
    7.8478   -3.5897   24.5259 C   0  0  0  0  0  0  0  0  0  0  0  0
    7.8782   -3.9119   25.8765 C   0  0  0  0  0  0  0  0  0  0  0  0
    8.3258   -5.1524   26.2996 C   0  0  0  0  0  0  0  0  0  0  0  0
    8.7499   -6.0871   25.3800 C   0  0  0  0  0  0  0  0  0  0  0  0
    8.7262   -5.7820   24.0362 C   0  0  0  0  0  0  0  0  0  0  0  0
    8.2777   -4.5423   23.6121 C   0  0  0  0  0  0  0  0  0  0  0  0
    6.3186    0.0895   20.3021 C   0  0  0  0  0  0  0  0  0  0  0  0
    6.1149    1.0925   19.3643 C   0  0  0  0  0  0  0  0  0  0  0  0
    5.6218    0.7950   18.1048 C   0  0  0  0  0  0  0  0  0  0  0  0
    5.3281   -0.5085   17.7660 C   0  0  0  0  0  0  0  0  0  0  0  0
    5.5279   -1.5155   18.6858 C   0  0  0  0  0  0  0  0  0  0  0  0
    6.0209   -1.2194   19.9456 C   0  0  0  0  0  0  0  0  0  0  0  0
  1  2  1  0
  2  3  1  0
  3  4  2  0
  3  5  1  0
  5  6  1  0
  6  7  1  0
  7  8  1  0
  8  9  1  0
  9 10  1  0
  9 11  1  0
 11 12  1  0
  5 13  1  0
 13 14  2  0
 13 15  1  0
 15 16  1  0
 15 17  1  0
 17 18  2  0
 18 19  1  0
 19 20  2  0
 20 21  1  0
 21 22  2  0
  2 23  1  0
 23 24  2  0
 24 25  1  0
 25 26  2  0
 26 27  1  0
 27 28  2  0
 12  6  1  0
 22 17  1  0
 28 23  1  0
M  END
