CVD-0003153|dock_bobby27042020.31|mol2|42|dock3
     RDKit          3D

 26 29  0  0  0  0  0  0  0  0999 V2000
   14.2961   -1.7057   20.2322 Cl  0  0  0  0  0  0  0  0  0  0  0  0
   13.3382   -1.5310   21.6760 C   0  0  0  0  0  0  0  0  0  0  0  0
   13.9233   -1.0242   22.8155 C   0  0  0  0  0  0  0  0  0  0  0  0
   13.1515   -0.8897   23.9570 C   0  0  0  0  0  0  0  0  0  0  0  0
   11.8174   -1.2607   23.9435 C   0  0  0  0  0  0  0  0  0  0  0  0
   11.2341   -1.7716   22.7925 C   0  0  0  0  0  0  0  0  0  0  0  0
   12.0098   -1.9040   21.6503 C   0  0  0  0  0  0  0  0  0  0  0  0
    9.7658   -2.1754   22.7819 C   0  0  0  0  0  0  0  0  0  0  0  0
    8.9713   -1.1524   22.0406 C   0  0  0  0  0  0  0  0  0  0  0  0
    8.9672    0.1466   22.7579 N   0  0  0  0  0  0  0  0  0  0  0  0
    8.6485    0.1297   24.1998 C   0  0  0  0  0  0  0  0  0  0  0  0
    8.6702   -1.2554   24.8531 C   0  0  0  0  0  0  0  0  0  0  0  0
    8.1702   -1.4220   26.1407 C   0  0  0  0  0  0  0  0  0  0  0  0
    8.2008   -2.6561   26.7645 C   0  0  0  0  0  0  0  0  0  0  0  0
    8.7340   -3.7395   26.1032 C   0  0  0  0  0  0  0  0  0  0  0  0
    9.2334   -3.5816   24.8223 C   0  0  0  0  0  0  0  0  0  0  0  0
    9.2127   -2.3457   24.1739 C   0  0  0  0  0  0  0  0  0  0  0  0
    9.2875    1.2725   22.0664 C   0  0  0  0  0  0  0  0  0  0  0  0
    9.5687    1.2152   20.8701 O   0  0  0  0  0  0  0  0  0  0  0  0
    9.2984    2.5770   22.7702 C   0  0  0  0  0  0  0  0  0  0  0  0
   10.3018    3.4677   22.7079 C   0  0  0  0  0  0  0  0  0  0  0  0
   11.6027    3.4203   21.9735 C   0  0  0  0  0  0  0  0  0  0  0  0
   12.4283    4.6016   22.5228 C   0  0  0  0  0  0  0  0  0  0  0  0
   11.4409    5.3637   23.2808 N   0  0  0  0  0  0  0  0  0  0  0  0
   10.2516    4.7613   23.4430 C   0  0  0  0  0  0  0  0  0  0  0  0
    9.2989    5.2025   24.0840 O   0  0  0  0  0  0  0  0  0  0  0  0
  1  2  1  0
  2  3  2  0
  3  4  1  0
  4  5  2  0
  5  6  1  0
  6  7  2  0
  8  6  1  0
  8  9  1  0
  9 10  1  0
 10 11  1  0
 11 12  1  0
 12 13  2  0
 13 14  1  0
 14 15  2  0
 15 16  1  0
 16 17  2  0
 10 18  1  0
 18 19  2  0
 18 20  1  0
 20 21  2  0
 21 22  1  0
 22 23  1  0
 23 24  1  0
 24 25  1  0
 25 26  2  0
  7  2  1  0
 17  8  1  0
 25 21  1  0
 17 12  1  0
M  END
