CVD-0000167|dock_bobby27042020.85|mol2|19|dock1
     RDKit          3D

 20 21  0  0  0  0  0  0  0  0999 V2000
    7.6461   -0.1663   19.3661 C   0  0  0  0  0  0  0  0  0  0  0  0
    8.4535   -1.1009   20.1471 N   0  0  0  0  0  0  0  0  0  0  0  0
    7.8818   -1.7598   21.4871 S   0  0  0  0  0  0  0  0  0  0  0  0
    8.4498   -3.0700   21.5931 O   0  0  0  0  0  0  0  0  0  0  0  0
    6.4565   -1.6255   21.4530 O   0  0  0  0  0  0  0  0  0  0  0  0
    8.4989   -0.7772   22.8390 C   0  0  0  0  0  0  0  0  0  0  0  0
   10.0011   -0.6940   22.8537 C   0  0  0  0  0  0  0  0  0  0  0  0
   10.7664   -1.8110   23.1585 C   0  0  0  0  0  0  0  0  0  0  0  0
   12.1496   -1.7531   23.1802 C   0  0  0  0  0  0  0  0  0  0  0  0
   12.7752   -0.5455   22.8899 C   0  0  0  0  0  0  0  0  0  0  0  0
   14.1035   -0.2006   22.8370 N   0  0  0  0  0  0  0  0  0  0  0  0
   14.2032    1.1230   22.5038 C   0  0  0  0  0  0  0  0  0  0  0  0
   12.9632    1.6651   22.3338 C   0  0  0  0  0  0  0  0  0  0  0  0
   12.6283    3.0808   21.9659 C   0  0  0  0  0  0  0  0  0  0  0  0
   13.1142    4.0844   22.9976 C   0  0  0  0  0  0  0  0  0  0  0  0
   12.9714    5.4749   22.5725 N   0  0  0  0  0  0  0  0  0  0  0  0
   14.1195    5.8957   21.7775 C   0  0  0  0  0  0  0  0  0  0  0  0
   12.8308    6.3518   23.7292 C   0  0  0  0  0  0  0  0  0  0  0  0
   12.0277    0.6050   22.5783 C   0  0  0  0  0  0  0  0  0  0  0  0
   10.6376    0.5076   22.5664 C   0  0  0  0  0  0  0  0  0  0  0  0
  1  2  1  0
  2  3  1  0
  3  4  2  0
  3  5  2  0
  3  6  1  0
  6  7  1  0
  7  8  2  0
  8  9  1  0
  9 10  2  0
 10 11  1  0
 11 12  1  0
 12 13  2  0
 13 14  1  0
 14 15  1  0
 15 16  1  0
 16 17  1  0
 16 18  1  0
 13 19  1  0
 19 20  2  0
 20  7  1  0
 19 10  1  0
M  END
