CVD-0001169|dock_bobby27042020.24|mol2|41|dock3
     RDKit          3D

 24 26  0  0  0  0  0  0  0  0999 V2000
   13.2839    0.5239   25.9249 F   0  0  0  0  0  0  0  0  0  0  0  0
   12.2136    0.3093   25.1132 C   0  0  0  0  0  0  0  0  0  0  0  0
   12.3410    0.5711   23.7766 C   0  0  0  0  0  0  0  0  0  0  0  0
   11.2477    0.3491   22.9585 C   0  0  0  0  0  0  0  0  0  0  0  0
   10.0486   -0.1259   23.4713 C   0  0  0  0  0  0  0  0  0  0  0  0
    9.9690   -0.3753   24.8356 C   0  0  0  0  0  0  0  0  0  0  0  0
   11.0538   -0.1595   25.6670 C   0  0  0  0  0  0  0  0  0  0  0  0
    8.8749   -0.3646   22.5553 C   0  0  0  0  0  0  0  0  0  0  0  0
    8.8857    0.5966   21.5098 O   0  0  0  0  0  0  0  0  0  0  0  0
    7.7804    0.3932   20.6455 C   0  0  0  0  0  0  0  0  0  0  0  0
    7.8042   -0.9711   20.0229 C   0  0  0  0  0  0  0  0  0  0  0  0
    7.8777   -1.9937   21.0644 N   0  0  0  0  0  0  0  0  0  0  0  0
    8.9608   -1.7677   22.0199 C   0  0  0  0  0  0  0  0  0  0  0  0
   10.2320   -1.9675   21.3579 N   0  0  0  0  0  0  0  0  0  0  0  0
   11.4199   -2.1698   21.9982 C   0  0  0  0  0  0  0  0  0  0  0  0
   12.6375   -2.0392   21.3014 C   0  0  0  0  0  0  0  0  0  0  0  0
   13.8136   -2.2315   21.9045 N   0  0  0  0  0  0  0  0  0  0  0  0
   13.7771   -2.5529   23.1977 C   0  0  0  0  0  0  0  0  0  0  0  0
   12.5869   -2.6821   23.8847 C   0  0  0  0  0  0  0  0  0  0  0  0
   11.4010   -2.4923   23.2932 N   0  0  0  0  0  0  0  0  0  0  0  0
    6.9678   -2.9954   21.1451 C   0  0  0  0  0  0  0  0  0  0  0  0
    6.1041   -3.1052   20.2840 O   0  0  0  0  0  0  0  0  0  0  0  0
    7.0082   -3.9807   22.2998 C   0  0  0  0  0  0  0  0  0  0  0  0
    5.7718   -5.2398   22.1856 Cl  0  0  0  0  0  0  0  0  0  0  0  0
  1  2  1  0
  2  3  2  0
  3  4  1  0
  4  5  2  0
  5  6  1  0
  6  7  2  0
  8  5  1  0
  8  9  1  0
  9 10  1  0
 10 11  1  0
 11 12  1  0
 12 13  1  0
 13 14  1  0
 14 15  1  0
 15 16  2  0
 16 17  1  0
 17 18  2  0
 18 19  1  0
 19 20  2  0
 12 21  1  0
 21 22  2  0
 21 23  1  0
 23 24  1  0
  7  2  1  0
 13  8  1  0
 20 15  1  0
M  END
