CVD-0001698|dock_bobby27042020.37|mol2|24|dock3
     RDKit          3D

 27 29  0  0  0  0  0  0  0  0999 V2000
    2.6624    3.1104   19.2396 C   0  0  0  0  0  0  0  0  0  0  0  0
    3.7047    2.2755   18.6712 N   0  0  0  0  0  0  0  0  0  0  0  0
    4.6920    1.7798   19.4044 C   0  0  0  0  0  0  0  0  0  0  0  0
    4.8069    1.9823   20.6103 O   0  0  0  0  0  0  0  0  0  0  0  0
    5.7146    0.9206   18.6738 C   0  0  0  0  0  0  0  0  0  0  0  0
    5.2018   -0.1504   17.7021 C   0  0  0  0  0  0  0  0  0  0  0  0
    6.0251   -1.3302   17.8854 C   0  0  0  0  0  0  0  0  0  0  0  0
    7.0165   -1.0120   19.0198 C   0  0  0  0  0  0  0  0  0  0  0  0
    6.5085    0.1863   19.6140 O   0  0  0  0  0  0  0  0  0  0  0  0
    7.2040   -2.0295   20.0457 N   0  0  0  0  0  0  0  0  0  0  0  0
    6.0630   -2.9048   20.3184 C   0  0  0  0  0  0  0  0  0  0  0  0
    6.1166   -3.3660   21.7640 C   0  0  0  0  0  0  0  0  0  0  0  0
    7.4552   -4.0179   22.0589 C   0  0  0  0  0  0  0  0  0  0  0  0
    7.4739   -4.3563   23.5525 C   0  0  0  0  0  0  0  0  0  0  0  0
    8.8342   -4.7996   24.1290 C   0  0  0  0  0  0  0  0  0  0  0  0
    9.8866   -3.8361   23.6375 C   0  0  0  0  0  0  0  0  0  0  0  0
   11.1210   -3.9041   24.4993 C   0  0  0  0  0  0  0  0  0  0  0  0
    9.7318   -3.2202   22.4500 C   0  0  0  0  0  0  0  0  0  0  0  0
   10.7736   -2.3633   22.1699 N   0  0  0  0  0  0  0  0  0  0  0  0
   11.9489   -2.0524   22.9385 C   0  0  0  0  0  0  0  0  0  0  0  0
   13.0015   -0.9403   22.0731 S   0  0  0  0  0  0  0  0  0  0  0  0
   13.4265   -1.6646   20.7097 N   0  0  0  0  0  0  0  0  0  0  0  0
   12.1884    0.1999   21.7596 O   0  0  0  0  0  0  0  0  0  0  0  0
   14.1649   -0.7845   22.8987 O   0  0  0  0  0  0  0  0  0  0  0  0
    8.5696   -3.0917   21.7521 N   0  0  0  0  0  0  0  0  0  0  0  0
    8.4038   -2.1591   20.7179 C   0  0  0  0  0  0  0  0  0  0  0  0
    9.2162   -1.1614   20.2728 C   0  0  0  0  0  0  0  0  0  0  0  0
  1  2  1  0
  2  3  1  0
  3  4  2  0
  5  3  1  0
  5  6  1  0
  6  7  1  0
  7  8  1  0
  8  9  1  0
  8 10  1  0
 10 11  1  0
 11 12  1  0
 12 13  1  0
 13 14  1  0
 14 15  1  0
 15 16  1  0
 16 17  1  0
 16 18  2  0
 18 19  1  0
 19 20  1  0
 20 21  1  0
 21 22  1  0
 21 23  2  0
 21 24  2  0
 18 25  1  0
 25 26  1  0
 26 27  2  0
  9  5  1  0
 26 10  1  0
 25 13  1  0
M  END
