CVD-0000979|dock_bobby27042020.39|mol2|39|dock2
     RDKit          3D

 36 40  0  0  0  0  0  0  0  0999 V2000
    0.7038   -9.6669   27.4286 C   0  0  0  0  0  0  0  0  0  0  0  0
    1.7546   -8.8584   27.9543 O   0  0  0  0  0  0  0  0  0  0  0  0
    2.5800   -8.1633   27.1064 C   0  0  0  0  0  0  0  0  0  0  0  0
    3.5826   -7.3905   27.6603 C   0  0  0  0  0  0  0  0  0  0  0  0
    4.4368   -6.6737   26.8434 C   0  0  0  0  0  0  0  0  0  0  0  0
    4.3205   -6.7033   25.4514 C   0  0  0  0  0  0  0  0  0  0  0  0
    5.2864   -5.8994   24.6710 C   0  0  0  0  0  0  0  0  0  0  0  0
    5.5523   -5.9828   23.3989 N   0  0  0  0  0  0  0  0  0  0  0  0
    6.5232   -5.0125   23.1767 C   0  0  0  0  0  0  0  0  0  0  0  0
    7.2058   -4.6159   22.0298 C   0  0  0  0  0  0  0  0  0  0  0  0
    8.1392   -3.5951   22.1218 C   0  0  0  0  0  0  0  0  0  0  0  0
    8.4090   -2.9584   23.3329 C   0  0  0  0  0  0  0  0  0  0  0  0
    9.3789   -1.9249   23.3334 N   0  0  0  0  0  0  0  0  0  0  0  0
   10.4834   -1.7357   22.5696 C   0  0  0  0  0  0  0  0  0  0  0  0
   10.8732   -2.4787   21.6736 O   0  0  0  0  0  0  0  0  0  0  0  0
   11.2474   -0.4755   22.9153 C   0  0  0  0  0  0  0  0  0  0  0  0
   10.6099    0.7789   22.3229 C   0  0  0  0  0  0  0  0  0  0  0  0
   11.3981    2.0015   22.7600 C   0  0  0  0  0  0  0  0  0  0  0  0
   12.7845    1.9133   22.3131 N   0  0  0  0  0  0  0  0  0  0  0  0
   13.5175    3.1366   22.6551 C   0  0  0  0  0  0  0  0  0  0  0  0
   12.8204    4.4382   22.2910 C   0  0  0  0  0  0  0  0  0  0  0  0
   12.8279    4.8672   21.1524 O   0  0  0  0  0  0  0  0  0  0  0  0
   12.1048    5.1878   23.3647 C   0  0  0  0  0  0  0  0  0  0  0  0
   12.7174    5.4904   24.5774 C   0  0  0  0  0  0  0  0  0  0  0  0
   12.0313    6.1912   25.5554 C   0  0  0  0  0  0  0  0  0  0  0  0
   10.7312    6.5947   25.3400 C   0  0  0  0  0  0  0  0  0  0  0  0
   10.1117    6.2987   24.1451 C   0  0  0  0  0  0  0  0  0  0  0  0
   10.7921    5.5996   23.1623 C   0  0  0  0  0  0  0  0  0  0  0  0
   13.4082    0.7423   22.9391 C   0  0  0  0  0  0  0  0  0  0  0  0
   12.7140   -0.5430   22.5160 C   0  0  0  0  0  0  0  0  0  0  0  0
    7.7232   -3.3582   24.4803 C   0  0  0  0  0  0  0  0  0  0  0  0
    6.7986   -4.3776   24.3608 C   0  0  0  0  0  0  0  0  0  0  0  0
    6.0067   -4.9385   25.3416 O   0  0  0  0  0  0  0  0  0  0  0  0
    3.2981   -7.4928   24.9199 C   0  0  0  0  0  0  0  0  0  0  0  0
    2.9883   -7.6550   23.0556 Br  0  0  0  0  0  0  0  0  0  0  0  0
    2.4370   -8.2147   25.7275 C   0  0  0  0  0  0  0  0  0  0  0  0
  1  2  1  0
  2  3  1  0
  3  4  2  0
  4  5  1  0
  5  6  2  0
  6  7  1  0
  7  8  2  0
  8  9  1  0
  9 10  2  0
 10 11  1  0
 11 12  2  0
 12 13  1  0
 13 14  1  0
 14 15  2  0
 14 16  1  0
 16 17  1  0
 17 18  1  0
 18 19  1  0
 19 20  1  0
 20 21  1  0
 21 22  2  0
 21 23  1  0
 23 24  2  0
 24 25  1  0
 25 26  2  0
 26 27  1  0
 27 28  2  0
 19 29  1  0
 29 30  1  0
 12 31  1  0
 31 32  2  0
 32 33  1  0
  6 34  1  0
 34 35  1  0
 34 36  2  0
 36  3  1  0
 33  7  1  0
 32  9  1  0
 30 16  1  0
 28 23  1  0
M  END
