CVD-0000411|dock_bobby27042020.56|mol2|11|dock2
     RDKit          3D

 22 24  0  0  0  0  0  0  0  0999 V2000
    5.0967    1.7312   18.3231 C   0  0  0  0  0  0  0  0  0  0  0  0
    4.9281    0.3038   18.8215 C   0  0  0  0  0  0  0  0  0  0  0  0
    6.1872   -0.2616   19.4323 C   0  0  0  0  0  0  0  0  0  0  0  0
    7.3567   -0.5266   18.7809 C   0  0  0  0  0  0  0  0  0  0  0  0
    8.2860   -1.0349   19.6470 N   0  0  0  0  0  0  0  0  0  0  0  0
    7.7217   -1.1086   20.8961 C   0  0  0  0  0  0  0  0  0  0  0  0
    8.2735   -1.5611   22.0978 C   0  0  0  0  0  0  0  0  0  0  0  0
    9.6921   -2.0750   22.1693 C   0  0  0  0  0  0  0  0  0  0  0  0
   10.5912   -1.1650   22.8941 N   0  0  0  0  0  0  0  0  0  0  0  0
   10.3888    0.2172   22.4498 C   0  0  0  0  0  0  0  0  0  0  0  0
   11.2895    1.1568   23.2298 C   0  0  0  0  0  0  0  0  0  0  0  0
   12.6933    0.7732   23.0660 N   0  0  0  0  0  0  0  0  0  0  0  0
   12.9176   -0.6250   23.4461 C   0  0  0  0  0  0  0  0  0  0  0  0
   11.9856   -1.5381   22.6705 C   0  0  0  0  0  0  0  0  0  0  0  0
   13.6508    1.6414   22.6396 C   0  0  0  0  0  0  0  0  0  0  0  0
   13.2815    3.0636   22.3321 C   0  0  0  0  0  0  0  0  0  0  0  0
   14.8136    1.2726   22.5176 O   0  0  0  0  0  0  0  0  0  0  0  0
    7.4721   -1.5189   23.2334 C   0  0  0  0  0  0  0  0  0  0  0  0
    6.1849   -1.0454   23.1285 C   0  0  0  0  0  0  0  0  0  0  0  0
    5.4235   -1.0148   24.2555 F   0  0  0  0  0  0  0  0  0  0  0  0
    5.6188   -0.6010   21.9562 C   0  0  0  0  0  0  0  0  0  0  0  0
    6.4026   -0.6288   20.8032 C   0  0  0  0  0  0  0  0  0  0  0  0
  1  2  1  0
  2  3  1  0
  3  4  2  0
  4  5  1  0
  5  6  1  0
  6  7  2  0
  7  8  1  0
  8  9  1  0
  9 10  1  0
 10 11  1  0
 11 12  1  0
 12 13  1  0
 13 14  1  0
 12 15  1  0
 15 16  1  0
 15 17  2  0
  7 18  1  0
 18 19  2  0
 19 20  1  0
 19 21  1  0
 21 22  2  0
 22  3  1  0
 22  6  1  0
 14  9  1  0
M  END
