CVD-0000750|dock_bobby27042020.26|mol2|20|dock2
     RDKit          3D

 16 17  0  0  0  0  0  0  0  0999 V2000
   14.1879   -2.0325   24.9209 C   0  0  0  0  0  0  0  0  0  0  0  0
   12.9172   -2.0235   24.2063 N   0  0  0  0  0  0  0  0  0  0  0  0
   12.6993   -1.6951   22.9269 C   0  0  0  0  0  0  0  0  0  0  0  0
   11.3421   -1.8066   22.7105 C   0  0  0  0  0  0  0  0  0  0  0  0
   10.5812   -1.5836   21.5435 N   0  0  0  0  0  0  0  0  0  0  0  0
    9.3348   -0.9556   21.4775 C   0  0  0  0  0  0  0  0  0  0  0  0
    8.7807   -0.5285   22.4863 O   0  0  0  0  0  0  0  0  0  0  0  0
    8.8376   -0.8833   20.1993 N   0  0  0  0  0  0  0  0  0  0  0  0
    7.6252   -0.3322   19.7154 C   0  0  0  0  0  0  0  0  0  0  0  0
    6.4681   -0.2062   20.4775 C   0  0  0  0  0  0  0  0  0  0  0  0
    5.3369    0.3480   19.9036 C   0  0  0  0  0  0  0  0  0  0  0  0
    5.3912    0.7593   18.5917 C   0  0  0  0  0  0  0  0  0  0  0  0
    6.4846    0.6516   17.8372 N   0  0  0  0  0  0  0  0  0  0  0  0
    7.5710    0.1153   18.4003 C   0  0  0  0  0  0  0  0  0  0  0  0
   10.8249   -2.2046   23.9422 C   0  0  0  0  0  0  0  0  0  0  0  0
   11.7714   -2.3325   24.8581 N   0  0  0  0  0  0  0  0  0  0  0  0
  1  2  1  0
  2  3  1  0
  3  4  2  0
  4  5  1  0
  5  6  1  0
  6  7  2  0
  6  8  1  0
  8  9  1  0
  9 10  2  0
 10 11  1  0
 11 12  2  0
 12 13  1  0
 13 14  2  0
  4 15  1  0
 15 16  2  0
 16  2  1  0
 14  9  1  0
M  END
