CVD-0003594|dock_bobby27042020.73|mol2|19|dock2
     RDKit          3D

 20 21  0  0  0  0  0  0  0  0999 V2000
    8.8557   -3.6771   21.4230 O   0  0  0  0  0  0  0  0  0  0  0  0
    8.5365   -2.7159   22.4342 S   0  0  0  0  0  0  0  0  0  0  0  0
    7.8590   -3.1633   23.6130 O   0  0  0  0  0  0  0  0  0  0  0  0
    7.6723   -1.3979   21.7317 C   0  0  0  0  0  0  0  0  0  0  0  0
    6.7489   -1.5901   20.8058 C   0  0  0  0  0  0  0  0  0  0  0  0
    5.9573   -0.5519   20.1360 C   0  0  0  0  0  0  0  0  0  0  0  0
    5.8625   -0.5048   18.7477 C   0  0  0  0  0  0  0  0  0  0  0  0
    5.1150    0.4754   18.1166 C   0  0  0  0  0  0  0  0  0  0  0  0
    4.4493    1.4258   18.8601 C   0  0  0  0  0  0  0  0  0  0  0  0
    4.5303    1.3967   20.2357 C   0  0  0  0  0  0  0  0  0  0  0  0
    5.2772    0.4172   20.8688 C   0  0  0  0  0  0  0  0  0  0  0  0
    9.9724   -2.0983   22.9420 N   0  0  0  0  0  0  0  0  0  0  0  0
   10.9256   -1.6427   21.9118 C   0  0  0  0  0  0  0  0  0  0  0  0
   12.2998   -1.5380   22.5466 C   0  0  0  0  0  0  0  0  0  0  0  0
   12.2783   -0.6187   23.6772 N   0  0  0  0  0  0  0  0  0  0  0  0
   13.6134   -0.4945   24.2595 C   0  0  0  0  0  0  0  0  0  0  0  0
   14.1194   -1.7296   24.8640 C   0  0  0  0  0  0  0  0  0  0  0  0
   14.4900   -2.7407   25.3346 C   0  0  0  0  0  0  0  0  0  0  0  0
   11.3298   -1.0919   24.6767 C   0  0  0  0  0  0  0  0  0  0  0  0
    9.9353   -1.1782   24.0944 C   0  0  0  0  0  0  0  0  0  0  0  0
  1  2  2  0
  2  3  2  0
  2  4  1  0
  4  5  2  0
  5  6  1  0
  6  7  2  0
  7  8  1  0
  8  9  2  0
  9 10  1  0
 10 11  2  0
  2 12  1  0
 12 13  1  0
 13 14  1  0
 14 15  1  0
 15 16  1  0
 16 17  1  0
 17 18  3  0
 15 19  1  0
 19 20  1  0
 11  6  1  0
 20 12  1  0
M  END
