CVD-0002022|dock_bobby27042020.36|mol2|14|dock3
     RDKit          3D

 34 38  0  0  0  0  0  0  0  0999 V2000
   14.5364   -1.7075   25.6466 C   0  0  0  0  0  0  0  0  0  0  0  0
   13.7969   -1.1790   24.5016 N   0  0  0  0  0  0  0  0  0  0  0  0
   12.4345   -0.8101   24.8973 C   0  0  0  0  0  0  0  0  0  0  0  0
   11.6849   -0.2242   23.7152 C   0  0  0  0  0  0  0  0  0  0  0  0
   11.6485   -1.1812   22.6071 N   0  0  0  0  0  0  0  0  0  0  0  0
   12.9959   -1.6165   22.2267 C   0  0  0  0  0  0  0  0  0  0  0  0
   13.7305   -2.1725   23.4330 C   0  0  0  0  0  0  0  0  0  0  0  0
   10.5017   -1.5698   22.0142 C   0  0  0  0  0  0  0  0  0  0  0  0
   10.4880   -2.3866   21.1019 O   0  0  0  0  0  0  0  0  0  0  0  0
    9.2117   -0.9468   22.5171 C   0  0  0  0  0  0  0  0  0  0  0  0
    7.9776   -1.4742   21.8423 C   0  0  0  0  0  0  0  0  0  0  0  0
    7.0764   -2.4388   22.2591 C   0  0  0  0  0  0  0  0  0  0  0  0
    6.1068   -2.6094   21.2891 N   0  0  0  0  0  0  0  0  0  0  0  0
    6.3622   -1.7567   20.2530 C   0  0  0  0  0  0  0  0  0  0  0  0
    5.6431   -1.6257   19.1257 N   0  0  0  0  0  0  0  0  0  0  0  0
    6.0835   -0.7127   18.2491 C   0  0  0  0  0  0  0  0  0  0  0  0
    7.2031    0.0668   18.4489 C   0  0  0  0  0  0  0  0  0  0  0  0
    7.9334   -0.0863   19.6170 C   0  0  0  0  0  0  0  0  0  0  0  0
    7.5179   -1.0232   20.5611 C   0  0  0  0  0  0  0  0  0  0  0  0
    6.9193   -3.2934   23.4532 C   0  0  0  0  0  0  0  0  0  0  0  0
    7.8591   -3.9998   23.8148 O   0  0  0  0  0  0  0  0  0  0  0  0
    5.7570   -3.2839   24.1054 N   0  0  0  0  0  0  0  0  0  0  0  0
    5.5421   -4.0654   25.3148 C   0  0  0  0  0  0  0  0  0  0  0  0
    5.4445   -5.5487   25.0194 C   0  0  0  0  0  0  0  0  0  0  0  0
    5.1601   -6.3725   26.2411 C   0  0  0  0  0  0  0  0  0  0  0  0
    4.0546   -7.1311   26.4904 C   0  0  0  0  0  0  0  0  0  0  0  0
    4.1587   -7.7365   27.7131 N   0  0  0  0  0  0  0  0  0  0  0  0
    5.3528   -7.3752   28.2873 C   0  0  0  0  0  0  0  0  0  0  0  0
    5.9203   -7.7188   29.5092 C   0  0  0  0  0  0  0  0  0  0  0  0
    7.1598   -7.2010   29.8422 C   0  0  0  0  0  0  0  0  0  0  0  0
    7.7864   -6.3660   28.9550 C   0  0  0  0  0  0  0  0  0  0  0  0
    9.0043   -5.8640   29.2949 F   0  0  0  0  0  0  0  0  0  0  0  0
    7.2589   -6.0026   27.7386 C   0  0  0  0  0  0  0  0  0  0  0  0
    6.0111   -6.5155   27.3878 C   0  0  0  0  0  0  0  0  0  0  0  0
  1  2  1  0
  2  3  1  0
  3  4  1  0
  4  5  1  0
  5  6  1  0
  6  7  1  0
  5  8  1  0
  8  9  2  0
  8 10  1  0
 10 11  1  0
 11 12  2  0
 12 13  1  0
 13 14  1  0
 14 15  2  0
 15 16  1  0
 16 17  2  0
 17 18  1  0
 18 19  2  0
 12 20  1  0
 20 21  2  0
 20 22  1  0
 22 23  1  0
 23 24  1  0
 24 25  1  0
 25 26  2  0
 26 27  1  0
 27 28  1  0
 28 29  2  0
 29 30  1  0
 30 31  2  0
 31 32  1  0
 31 33  1  0
 33 34  2  0
  7  2  1  0
 19 11  1  0
 34 25  1  0
 19 14  1  0
 34 28  1  0
M  END
