CVD-0003302|dock_bobby27042020.88|mol2|24|dock1
     RDKit          3D

 16 17  0  0  0  0  0  0  0  0999 V2000
    6.9492   -1.9388   21.6626 O   0  0  0  0  0  0  0  0  0  0  0  0
    7.5508   -1.2056   20.8835 C   0  0  0  0  0  0  0  0  0  0  0  0
    8.8757   -1.0494   20.9645 N   0  0  0  0  0  0  0  0  0  0  0  0
    9.6717   -1.7360   21.9745 C   0  0  0  0  0  0  0  0  0  0  0  0
   11.0385   -1.1063   22.1673 C   0  0  0  0  0  0  0  0  0  0  0  0
   11.9007   -1.9337   23.1428 C   0  0  0  0  0  0  0  0  0  0  0  0
   13.2574   -1.2866   23.4142 C   0  0  0  0  0  0  0  0  0  0  0  0
   13.1004    0.1502   23.8950 C   0  0  0  0  0  0  0  0  0  0  0  0
   12.2759    0.9707   22.9136 C   0  0  0  0  0  0  0  0  0  0  0  0
   10.9079    0.3385   22.6786 C   0  0  0  0  0  0  0  0  0  0  0  0
    6.7770   -0.4749   19.8236 C   0  0  0  0  0  0  0  0  0  0  0  0
    5.4996   -0.0097   20.1109 C   0  0  0  0  0  0  0  0  0  0  0  0
    4.7767    0.6653   19.1435 C   0  0  0  0  0  0  0  0  0  0  0  0
    5.3539    0.8575   17.9097 C   0  0  0  0  0  0  0  0  0  0  0  0
    6.5766    0.4243   17.6010 N   0  0  0  0  0  0  0  0  0  0  0  0
    7.2638   -0.2270   18.5449 C   0  0  0  0  0  0  0  0  0  0  0  0
  1  2  2  0
  2  3  1  0
  3  4  1  0
  4  5  1  0
  5  6  1  0
  6  7  1  0
  7  8  1  0
  8  9  1  0
  9 10  1  0
  2 11  1  0
 11 12  2  0
 12 13  1  0
 13 14  2  0
 14 15  1  0
 15 16  2  0
 10  5  1  0
 16 11  1  0
M  END
