CVD-0001730|dock_bobby27042020.80|mol2|15|dock2
     RDKit          3D

 22 23  0  0  0  0  0  0  0  0999 V2000
   10.2788   -5.9082   26.2250 N   0  0  0  0  0  0  0  0  0  0  0  0
    9.7867   -4.7861   25.9517 C   0  0  0  0  0  0  0  0  0  0  0  0
    9.0757   -4.0772   26.8012 N   0  0  0  0  0  0  0  0  0  0  0  0
    9.9878   -4.1627   24.6136 C   0  0  0  0  0  0  0  0  0  0  0  0
    9.7269   -2.6665   24.6457 C   0  0  0  0  0  0  0  0  0  0  0  0
    9.9001   -2.0422   23.3238 N   0  0  0  0  0  0  0  0  0  0  0  0
    8.8048   -2.1769   22.4666 C   0  0  0  0  0  0  0  0  0  0  0  0
    7.8261   -2.7735   22.8960 O   0  0  0  0  0  0  0  0  0  0  0  0
    8.8518   -1.6343   21.2058 N   0  0  0  0  0  0  0  0  0  0  0  0
    7.8783   -1.6231   20.1728 C   0  0  0  0  0  0  0  0  0  0  0  0
    7.8041   -0.5007   19.3573 C   0  0  0  0  0  0  0  0  0  0  0  0
    6.8652   -0.4464   18.3424 C   0  0  0  0  0  0  0  0  0  0  0  0
    6.0216   -1.5182   18.1687 C   0  0  0  0  0  0  0  0  0  0  0  0
    6.0670   -2.6108   18.9304 N   0  0  0  0  0  0  0  0  0  0  0  0
    6.9820   -2.6568   19.9039 C   0  0  0  0  0  0  0  0  0  0  0  0
   11.1550   -1.3722   23.1030 C   0  0  0  0  0  0  0  0  0  0  0  0
   11.5472   -0.3506   23.9607 C   0  0  0  0  0  0  0  0  0  0  0  0
   12.7555    0.3010   23.7778 C   0  0  0  0  0  0  0  0  0  0  0  0
   13.5948   -0.0545   22.7368 C   0  0  0  0  0  0  0  0  0  0  0  0
   13.2035   -1.0674   21.8915 C   0  0  0  0  0  0  0  0  0  0  0  0
   14.2475   -1.5287   20.5761 Cl  0  0  0  0  0  0  0  0  0  0  0  0
   12.0040   -1.7279   22.0595 C   0  0  0  0  0  0  0  0  0  0  0  0
  1  2  1  0
  2  3  2  0
  2  4  1  0
  4  5  1  0
  5  6  1  0
  6  7  1  0
  7  8  2  0
  7  9  1  0
  9 10  1  0
 10 11  2  0
 11 12  1  0
 12 13  2  0
 13 14  1  0
 14 15  2  0
  6 16  1  0
 16 17  2  0
 17 18  1  0
 18 19  2  0
 19 20  1  0
 20 21  1  0
 20 22  2  0
 15 10  1  0
 22 16  1  0
M  END
