CVD-0003075|dock_bobby27042020.75|mol2|5|dock2
     RDKit          3D

 22 23  0  0  0  0  0  0  0  0999 V2000
   10.1330    2.1089   22.4390 C   0  0  0  0  0  0  0  0  0  0  0  0
   11.4952    2.7531   22.4690 C   0  0  0  0  0  0  0  0  0  0  0  0
   11.5720    4.1367   22.5965 C   0  0  0  0  0  0  0  0  0  0  0  0
   12.8027    4.7531   22.6300 C   0  0  0  0  0  0  0  0  0  0  0  0
   13.9506    4.0871   22.5460 N   0  0  0  0  0  0  0  0  0  0  0  0
   13.8898    2.7573   22.4244 C   0  0  0  0  0  0  0  0  0  0  0  0
   12.7004    2.0296   22.3799 C   0  0  0  0  0  0  0  0  0  0  0  0
   12.6326    0.6139   22.2512 N   0  0  0  0  0  0  0  0  0  0  0  0
   13.4741   -0.3500   22.7001 C   0  0  0  0  0  0  0  0  0  0  0  0
   14.5068   -0.1676   23.3357 O   0  0  0  0  0  0  0  0  0  0  0  0
   13.0266   -1.7464   22.3431 C   0  0  0  0  0  0  0  0  0  0  0  0
   11.7069   -2.1106   22.9936 C   0  0  0  0  0  0  0  0  0  0  0  0
   10.5730   -1.7843   22.1406 N   0  0  0  0  0  0  0  0  0  0  0  0
    9.3949   -1.4269   22.6623 C   0  0  0  0  0  0  0  0  0  0  0  0
    9.2653   -1.3810   23.8819 O   0  0  0  0  0  0  0  0  0  0  0  0
    8.2169   -1.0844   21.7868 C   0  0  0  0  0  0  0  0  0  0  0  0
    7.0393   -0.7512   22.4646 C   0  0  0  0  0  0  0  0  0  0  0  0
    5.8761   -0.4387   21.7817 C   0  0  0  0  0  0  0  0  0  0  0  0
    5.8509   -0.4484   20.4066 C   0  0  0  0  0  0  0  0  0  0  0  0
    6.9985   -0.7582   19.7018 C   0  0  0  0  0  0  0  0  0  0  0  0
    8.1485   -1.0536   20.3956 C   0  0  0  0  0  0  0  0  0  0  0  0
    9.2347   -1.3100   19.6335 F   0  0  0  0  0  0  0  0  0  0  0  0
  1  2  1  0
  2  3  2  0
  3  4  1  0
  4  5  2  0
  5  6  1  0
  6  7  2  0
  7  8  1  0
  8  9  1  0
  9 10  2  0
  9 11  1  0
 11 12  1  0
 12 13  1  0
 13 14  1  0
 14 15  2  0
 14 16  1  0
 16 17  2  0
 17 18  1  0
 18 19  2  0
 19 20  1  0
 20 21  2  0
 21 22  1  0
  7  2  1  0
 21 16  1  0
M  END
