CVD-0000073|dock_bobby27042020.85|mol2|34|dock2
     RDKit          3D

 13 13  0  0  0  0  0  0  0  0999 V2000
   13.7224   -0.3879   22.6900 Br  0  0  0  0  0  0  0  0  0  0  0  0
   12.3122   -1.6994   22.4076 C   0  0  0  0  0  0  0  0  0  0  0  0
   10.9759   -1.0456   22.1723 C   0  0  0  0  0  0  0  0  0  0  0  0
    9.8170   -2.0297   22.1001 C   0  0  0  0  0  0  0  0  0  0  0  0
    8.5168   -1.3837   21.6878 C   0  0  0  0  0  0  0  0  0  0  0  0
    7.6525   -1.1203   22.5171 O   0  0  0  0  0  0  0  0  0  0  0  0
    8.4288   -1.1440   20.3570 N   0  0  0  0  0  0  0  0  0  0  0  0
    7.3948   -0.5630   19.5819 C   0  0  0  0  0  0  0  0  0  0  0  0
    6.1316   -0.2570   20.0779 C   0  0  0  0  0  0  0  0  0  0  0  0
    5.1926    0.3100   19.2334 C   0  0  0  0  0  0  0  0  0  0  0  0
    5.5384    0.5545   17.9244 C   0  0  0  0  0  0  0  0  0  0  0  0
    6.7400    0.2723   17.4213 N   0  0  0  0  0  0  0  0  0  0  0  0
    7.6393   -0.2746   18.2442 C   0  0  0  0  0  0  0  0  0  0  0  0
  1  2  1  0
  2  3  1  0
  3  4  1  0
  4  5  1  0
  5  6  2  0
  5  7  1  0
  7  8  1  0
  8  9  2  0
  9 10  1  0
 10 11  2  0
 11 12  1  0
 12 13  2  0
 13  8  1  0
M  END
