CVD-0000479|dock_bobby27042020.98|mol2|24|dock1
     RDKit          3D

 17 19  0  0  0  0  0  0  0  0999 V2000
    6.3777   -1.3094   18.4357 C   0  0  0  0  0  0  0  0  0  0  0  0
    6.9448   -0.3599   19.4598 C   0  0  0  0  0  0  0  0  0  0  0  0
    8.1173   -0.7116   20.1245 C   0  0  0  0  0  0  0  0  0  0  0  0
    8.7015    0.1133   21.0787 C   0  0  0  0  0  0  0  0  0  0  0  0
    8.0970    1.3276   21.3782 C   0  0  0  0  0  0  0  0  0  0  0  0
    6.9332    1.7046   20.7342 C   0  0  0  0  0  0  0  0  0  0  0  0
    6.3572    0.8722   19.7818 C   0  0  0  0  0  0  0  0  0  0  0  0
    5.2111    1.2891   19.1753 O   0  0  0  0  0  0  0  0  0  0  0  0
    9.9376   -0.2972   21.7559 C   0  0  0  0  0  0  0  0  0  0  0  0
   10.2858    0.0976   22.9744 N   0  0  0  0  0  0  0  0  0  0  0  0
   11.5083   -0.5220   23.2139 C   0  0  0  0  0  0  0  0  0  0  0  0
   12.3451   -0.4742   24.3281 C   0  0  0  0  0  0  0  0  0  0  0  0
   13.5271   -1.1993   24.3058 C   0  0  0  0  0  0  0  0  0  0  0  0
   13.8788   -1.9579   23.2060 C   0  0  0  0  0  0  0  0  0  0  0  0
   13.0581   -2.0160   22.0909 C   0  0  0  0  0  0  0  0  0  0  0  0
   11.8732   -1.2899   22.1115 C   0  0  0  0  0  0  0  0  0  0  0  0
   10.8550   -1.1319   21.1910 N   0  0  0  0  0  0  0  0  0  0  0  0
  1  2  1  0
  2  3  2  0
  3  4  1  0
  4  5  2  0
  5  6  1  0
  6  7  2  0
  7  8  1  0
  4  9  1  0
  9 10  2  0
 10 11  1  0
 11 12  2  0
 12 13  1  0
 13 14  2  0
 14 15  1  0
 15 16  2  0
 16 17  1  0
  7  2  1  0
 17  9  1  0
 16 11  1  0
M  END
