CVD-0003136|dock_bobby27042020.74|mol2|43|dock3
     RDKit          3D

 17 19  0  0  0  0  0  0  0  0999 V2000
    9.3745   -6.6558   24.0230 O   0  0  0  0  0  0  0  0  0  0  0  0
    9.2116   -5.3920   23.7362 C   0  0  0  0  0  0  0  0  0  0  0  0
   10.0553   -4.5495   23.9600 O   0  0  0  0  0  0  0  0  0  0  0  0
    7.8673   -5.0707   23.0954 C   0  0  0  0  0  0  0  0  0  0  0  0
    6.6284   -5.4387   23.8301 C   0  0  0  0  0  0  0  0  0  0  0  0
    6.9831   -6.1003   22.5078 C   0  0  0  0  0  0  0  0  0  0  0  0
    6.4310   -5.5635   21.2071 C   0  0  0  0  0  0  0  0  0  0  0  0
    6.8365   -4.1503   21.2346 N   0  0  0  0  0  0  0  0  0  0  0  0
    7.9035   -3.8644   22.1910 C   0  0  0  0  0  0  0  0  0  0  0  0
    6.2322   -3.3365   20.3141 C   0  0  0  0  0  0  0  0  0  0  0  0
    5.3718   -3.8578   19.6226 O   0  0  0  0  0  0  0  0  0  0  0  0
    6.5122   -2.0047   20.1210 N   0  0  0  0  0  0  0  0  0  0  0  0
    5.5873   -1.0860   19.4470 C   0  0  0  0  0  0  0  0  0  0  0  0
    6.3404   -0.2456   18.4359 C   0  0  0  0  0  0  0  0  0  0  0  0
    7.4181    0.4519   19.0270 O   0  0  0  0  0  0  0  0  0  0  0  0
    8.3391   -0.4696   19.6113 C   0  0  0  0  0  0  0  0  0  0  0  0
    7.6737   -1.3068   20.6810 C   0  0  0  0  0  0  0  0  0  0  0  0
  1  2  1  0
  2  3  2  0
  4  2  1  0
  4  5  1  0
  6  5  1  0
  6  7  1  0
  7  8  1  0
  8  9  1  0
  8 10  1  0
 10 11  2  0
 10 12  1  0
 12 13  1  0
 13 14  1  0
 14 15  1  0
 15 16  1  0
 16 17  1  0
  6  4  1  0
 17 12  1  0
  9  4  1  0
M  END
