CVD-0000646|dock_bobby27042020.55|mol2|20|dock1
     RDKit          3D

 21 22  0  0  0  0  0  0  0  0999 V2000
    8.3189   -3.3546   23.0141 N   0  0  0  0  0  0  0  0  0  0  0  0
    9.2109   -2.3776   23.0473 C   0  0  0  0  0  0  0  0  0  0  0  0
    9.9151   -2.1646   24.0359 O   0  0  0  0  0  0  0  0  0  0  0  0
    9.3142   -1.5272   21.7782 C   0  0  0  0  0  0  0  0  0  0  0  0
   10.7882   -1.2806   21.5156 C   0  0  0  0  0  0  0  0  0  0  0  0
   11.3571   -0.4231   22.5576 N   0  0  0  0  0  0  0  0  0  0  0  0
   10.6159    0.8358   22.6834 C   0  0  0  0  0  0  0  0  0  0  0  0
    9.1421    0.5584   22.9185 C   0  0  0  0  0  0  0  0  0  0  0  0
    8.5897   -0.2542   21.8378 N   0  0  0  0  0  0  0  0  0  0  0  0
    7.1209   -0.3118   21.8903 C   0  0  0  0  0  0  0  0  0  0  0  0
    6.4820   -0.4476   20.5289 C   0  0  0  0  0  0  0  0  0  0  0  0
    6.0890   -1.6878   20.0509 C   0  0  0  0  0  0  0  0  0  0  0  0
    5.5002   -1.8112   18.8035 C   0  0  0  0  0  0  0  0  0  0  0  0
    5.2948   -0.6917   18.0150 C   0  0  0  0  0  0  0  0  0  0  0  0
    5.6861    0.5386   18.4957 C   0  0  0  0  0  0  0  0  0  0  0  0
    5.4341    1.9563   17.5163 Cl  0  0  0  0  0  0  0  0  0  0  0  0
    6.2738    0.6740   19.7367 C   0  0  0  0  0  0  0  0  0  0  0  0
   12.4290   -0.7184   23.3300 C   0  0  0  0  0  0  0  0  0  0  0  0
   12.8323    0.0648   24.1807 O   0  0  0  0  0  0  0  0  0  0  0  0
   13.1362   -2.0438   23.1200 C   0  0  0  0  0  0  0  0  0  0  0  0
   14.5247   -2.2045   24.2033 Cl  0  0  0  0  0  0  0  0  0  0  0  0
  1  2  1  0
  2  3  2  0
  2  4  1  0
  4  5  1  0
  5  6  1  0
  6  7  1  0
  7  8  1  0
  8  9  1  0
  9 10  1  0
 10 11  1  0
 11 12  2  0
 12 13  1  0
 13 14  2  0
 14 15  1  0
 15 16  1  0
 15 17  2  0
  6 18  1  0
 18 19  2  0
 18 20  1  0
 20 21  1  0
  9  4  1  0
 17 11  1  0
M  END
