CVD-0000041|dock_bobby27042020.57|mol2|27|dock1
     RDKit          3D

 25 27  0  0  0  0  0  0  0  0999 V2000
    4.9835   -0.4719   17.0749 F   0  0  0  0  0  0  0  0  0  0  0  0
    5.7280   -0.6070   18.2054 C   0  0  0  0  0  0  0  0  0  0  0  0
    6.5919    0.3967   18.5439 C   0  0  0  0  0  0  0  0  0  0  0  0
    7.3429    0.2653   19.6985 C   0  0  0  0  0  0  0  0  0  0  0  0
    7.2275   -0.8676   20.5079 C   0  0  0  0  0  0  0  0  0  0  0  0
    6.3405   -1.8529   20.0842 C   0  0  0  0  0  0  0  0  0  0  0  0
    6.2091   -2.9901   20.8048 F   0  0  0  0  0  0  0  0  0  0  0  0
    5.5748   -1.7478   18.9514 C   0  0  0  0  0  0  0  0  0  0  0  0
    8.0610   -0.9253   21.7467 C   0  0  0  0  0  0  0  0  0  0  0  0
    7.5127   -0.8195   23.0231 C   0  0  0  0  0  0  0  0  0  0  0  0
    8.3104   -0.8864   24.1536 C   0  0  0  0  0  0  0  0  0  0  0  0
    9.6797   -1.0520   24.0381 C   0  0  0  0  0  0  0  0  0  0  0  0
   10.2350   -1.1494   22.7739 C   0  0  0  0  0  0  0  0  0  0  0  0
    9.4426   -1.0854   21.6384 C   0  0  0  0  0  0  0  0  0  0  0  0
   11.9771   -1.3482   22.5895 S   0  0  0  0  0  0  0  0  0  0  0  0
   12.2355   -1.7775   21.2423 O   0  0  0  0  0  0  0  0  0  0  0  0
   12.4491   -2.1616   23.6766 O   0  0  0  0  0  0  0  0  0  0  0  0
   12.6198    0.2645   22.7874 C   0  0  0  0  0  0  0  0  0  0  0  0
   11.9433    1.3353   22.4096 C   0  0  0  0  0  0  0  0  0  0  0  0
   12.3805    2.7321   22.5199 C   0  0  0  0  0  0  0  0  0  0  0  0
   11.4757    3.7825   22.6268 C   0  0  0  0  0  0  0  0  0  0  0  0
   11.9386    5.0827   22.7284 C   0  0  0  0  0  0  0  0  0  0  0  0
   13.2984    5.2975   22.7202 C   0  0  0  0  0  0  0  0  0  0  0  0
   14.1943    4.3141   22.6190 N   0  0  0  0  0  0  0  0  0  0  0  0
   13.7286    3.0652   22.5219 C   0  0  0  0  0  0  0  0  0  0  0  0
  1  2  1  0
  2  3  2  0
  3  4  1  0
  4  5  2  0
  5  6  1  0
  6  7  1  0
  6  8  2  0
  5  9  1  0
  9 10  2  0
 10 11  1  0
 11 12  2  0
 12 13  1  0
 13 14  2  0
 13 15  1  0
 15 16  2  0
 15 17  2  0
 15 18  1  0
 18 19  2  0
 19 20  1  0
 20 21  2  0
 21 22  1  0
 22 23  2  0
 23 24  1  0
 24 25  2  0
  8  2  1  0
 14  9  1  0
 25 20  1  0
M  END
