CVD-0000807|dock_bobby27042020.11|mol2|41|dock1
     RDKit          3D

 22 24  0  0  0  0  0  0  0  0999 V2000
   13.3048   -1.8093   21.4396 C   0  0  0  0  0  0  0  0  0  0  0  0
   12.2438   -1.7714   22.5086 C   0  0  0  0  0  0  0  0  0  0  0  0
   11.3693   -0.5341   22.4501 C   0  0  0  0  0  0  0  0  0  0  0  0
    9.9885   -0.6526   22.3240 C   0  0  0  0  0  0  0  0  0  0  0  0
    9.1576    0.4614   22.2696 C   0  0  0  0  0  0  0  0  0  0  0  0
    7.6617    0.2984   22.1350 C   0  0  0  0  0  0  0  0  0  0  0  0
    7.1100    0.5942   20.7350 C   0  0  0  0  0  0  0  0  0  0  0  0
    7.5412   -0.4895   19.7256 C   0  0  0  0  0  0  0  0  0  0  0  0
    6.9472   -0.2620   18.3367 C   0  0  0  0  0  0  0  0  0  0  0  0
    5.4308   -0.1320   18.3966 C   0  0  0  0  0  0  0  0  0  0  0  0
    5.0112    0.9602   19.3700 C   0  0  0  0  0  0  0  0  0  0  0  0
    5.5760    0.7042   20.7634 C   0  0  0  0  0  0  0  0  0  0  0  0
    9.7552    1.7220   22.3491 C   0  0  0  0  0  0  0  0  0  0  0  0
    9.1875    2.9717   22.3225 N   0  0  0  0  0  0  0  0  0  0  0  0
   10.1852    3.9024   22.4316 C   0  0  0  0  0  0  0  0  0  0  0  0
   11.4019    3.2916   22.5303 C   0  0  0  0  0  0  0  0  0  0  0  0
   12.7511    3.9493   22.6647 C   0  0  0  0  0  0  0  0  0  0  0  0
   12.6924    5.4137   22.7324 N   0  0  0  0  0  0  0  0  0  0  0  0
   13.9211    5.9896   22.1980 C   0  0  0  0  0  0  0  0  0  0  0  0
   12.5146    5.8605   24.1100 C   0  0  0  0  0  0  0  0  0  0  0  0
   11.1458    1.8805   22.4785 C   0  0  0  0  0  0  0  0  0  0  0  0
   11.9369    0.7337   22.5272 C   0  0  0  0  0  0  0  0  0  0  0  0
  1  2  1  0
  2  3  1  0
  3  4  2  0
  4  5  1  0
  5  6  1  0
  6  7  1  0
  7  8  1  0
  8  9  1  0
  9 10  1  0
 10 11  1  0
 11 12  1  0
  5 13  2  0
 13 14  1  0
 14 15  1  0
 15 16  2  0
 16 17  1  0
 17 18  1  0
 18 19  1  0
 18 20  1  0
 16 21  1  0
 21 22  2  0
 22  3  1  0
 12  7  1  0
 21 13  1  0
M  END
