CVD-0002446|dock_bobby27042020.34|mol2|20|dock3
     RDKit          3D

 12 13  0  0  0  0  0  0  0  0999 V2000
   13.7389   -2.8269   25.4268 C   0  0  0  0  0  0  0  0  0  0  0  0
   13.9903   -1.4809   24.7554 C   0  0  0  0  0  0  0  0  0  0  0  0
   12.9204   -0.4455   25.1080 C   0  0  0  0  0  0  0  0  0  0  0  0
   11.5660   -0.7536   24.4627 C   0  0  0  0  0  0  0  0  0  0  0  0
   11.7368   -0.8528   22.9535 C   0  0  0  0  0  0  0  0  0  0  0  0
   12.7665   -1.9114   22.5696 C   0  0  0  0  0  0  0  0  0  0  0  0
   14.1060   -1.6107   23.2414 C   0  0  0  0  0  0  0  0  0  0  0  0
   10.4266   -1.1006   22.2724 C   0  0  0  0  0  0  0  0  0  0  0  0
    9.7153   -2.3352   22.3067 C   0  0  0  0  0  0  0  0  0  0  0  0
    8.5424   -2.3236   21.6136 C   0  0  0  0  0  0  0  0  0  0  0  0
    8.2992   -0.7962   20.9121 S   0  0  0  0  0  0  0  0  0  0  0  0
    9.7510   -0.1710   21.5375 C   0  0  0  0  0  0  0  0  0  0  0  0
  1  2  1  0
  2  3  1  0
  3  4  1  0
  4  5  1  0
  5  6  1  0
  6  7  1  0
  5  8  1  0
  8  9  1  0
  9 10  2  0
 10 11  1  0
 11 12  1  0
  7  2  1  0
 12  8  2  0
M  END
