CVD-0001161|dock_bobby27042020.39|mol2|10|dock2
     RDKit          3D

 26 29  0  0  0  0  0  0  0  0999 V2000
    5.0267   -0.0850   17.4925 Cl  0  0  0  0  0  0  0  0  0  0  0  0
    5.0748    0.0946   19.2239 C   0  0  0  0  0  0  0  0  0  0  0  0
    4.2475    1.0171   19.8239 C   0  0  0  0  0  0  0  0  0  0  0  0
    4.2915    1.1536   21.1997 C   0  0  0  0  0  0  0  0  0  0  0  0
    5.1537    0.3747   21.9524 C   0  0  0  0  0  0  0  0  0  0  0  0
    5.9868   -0.5546   21.3398 C   0  0  0  0  0  0  0  0  0  0  0  0
    6.8436   -1.3161   22.1743 N   0  0  0  0  0  0  0  0  0  0  0  0
    7.2564   -2.6078   22.0880 C   0  0  0  0  0  0  0  0  0  0  0  0
    6.9048   -3.4073   21.2255 O   0  0  0  0  0  0  0  0  0  0  0  0
    8.2431   -3.0817   23.1568 C   0  0  0  0  0  0  0  0  0  0  0  0
    7.5464   -3.1502   24.5343 C   0  0  0  0  0  0  0  0  0  0  0  0
    8.0019   -1.9892   25.2867 C   0  0  0  0  0  0  0  0  0  0  0  0
    9.2511   -1.4963   24.5999 C   0  0  0  0  0  0  0  0  0  0  0  0
   10.0820   -0.6958   25.0102 O   0  0  0  0  0  0  0  0  0  0  0  0
    9.3003   -2.1083   23.3900 N   0  0  0  0  0  0  0  0  0  0  0  0
   10.3775   -1.9201   22.4661 C   0  0  0  0  0  0  0  0  0  0  0  0
   11.4610   -2.8449   22.7861 O   0  0  0  0  0  0  0  0  0  0  0  0
   12.6255   -2.1748   23.0302 C   0  0  0  0  0  0  0  0  0  0  0  0
   13.6569   -2.7669   23.3015 O   0  0  0  0  0  0  0  0  0  0  0  0
   12.3654   -0.7346   22.8708 C   0  0  0  0  0  0  0  0  0  0  0  0
   13.2104    0.3636   23.0210 C   0  0  0  0  0  0  0  0  0  0  0  0
   12.6832    1.6384   22.8711 C   0  0  0  0  0  0  0  0  0  0  0  0
   11.3450    1.8152   22.5783 C   0  0  0  0  0  0  0  0  0  0  0  0
   10.5098    0.7186   22.4303 C   0  0  0  0  0  0  0  0  0  0  0  0
   11.0252   -0.5659   22.5779 C   0  0  0  0  0  0  0  0  0  0  0  0
    5.9422   -0.6934   19.9531 C   0  0  0  0  0  0  0  0  0  0  0  0
  1  2  1  0
  2  3  2  0
  3  4  1  0
  4  5  2  0
  5  6  1  0
  6  7  1  0
  7  8  1  0
  8  9  2  0
 10  8  1  0
 10 11  1  0
 11 12  1  0
 12 13  1  0
 13 14  2  0
 13 15  1  0
 16 15  1  0
 16 17  1  0
 17 18  1  0
 18 19  2  0
 18 20  1  0
 20 21  2  0
 21 22  1  0
 22 23  2  0
 23 24  1  0
 24 25  2  0
  6 26  2  0
 26  2  1  0
 15 10  1  0
 25 16  1  0
 25 20  1  0
M  END
