CVD-0000362|dock_bobby27042020.84|mol2|30|dock3
     RDKit          3D

 28 30  0  0  0  0  0  0  0  0999 V2000
    6.8867    1.6781   20.5654 C   0  0  0  0  0  0  0  0  0  0  0  0
    7.6376    0.6549   21.3364 C   0  0  0  0  0  0  0  0  0  0  0  0
    8.9057    1.2213   21.6828 O   0  0  0  0  0  0  0  0  0  0  0  0
    9.7856    0.5079   22.4607 C   0  0  0  0  0  0  0  0  0  0  0  0
    9.6672   -0.8534   22.6980 C   0  0  0  0  0  0  0  0  0  0  0  0
   10.5756   -1.5090   23.5161 C   0  0  0  0  0  0  0  0  0  0  0  0
   10.4440   -2.9907   23.7735 C   0  0  0  0  0  0  0  0  0  0  0  0
    9.8960   -3.2958   25.1025 N   0  0  0  0  0  0  0  0  0  0  0  0
    9.8216   -4.7456   25.3057 C   0  0  0  0  0  0  0  0  0  0  0  0
    9.2939   -5.0549   26.6944 C   0  0  0  0  0  0  0  0  0  0  0  0
    7.9747   -4.4485   26.8871 N   0  0  0  0  0  0  0  0  0  0  0  0
    8.0029   -3.0049   26.6321 C   0  0  0  0  0  0  0  0  0  0  0  0
    8.5594   -2.7250   25.2479 C   0  0  0  0  0  0  0  0  0  0  0  0
    6.8900   -5.1589   27.2817 C   0  0  0  0  0  0  0  0  0  0  0  0
    5.5949   -4.4230   27.4626 C   0  0  0  0  0  0  0  0  0  0  0  0
    6.9742   -6.3631   27.4950 O   0  0  0  0  0  0  0  0  0  0  0  0
   11.6091   -0.7843   24.0898 C   0  0  0  0  0  0  0  0  0  0  0  0
   11.7165    0.5577   23.8320 C   0  0  0  0  0  0  0  0  0  0  0  0
   12.7492    1.2141   24.4088 F   0  0  0  0  0  0  0  0  0  0  0  0
   10.8321    1.2632   23.0169 C   0  0  0  0  0  0  0  0  0  0  0  0
   10.9867    2.7315   22.7529 C   0  0  0  0  0  0  0  0  0  0  0  0
   12.1771    3.2521   22.2569 C   0  0  0  0  0  0  0  0  0  0  0  0
   12.2515    4.6165   22.0337 C   0  0  0  0  0  0  0  0  0  0  0  0
   13.4975    5.2695   21.4957 C   0  0  0  0  0  0  0  0  0  0  0  0
   14.2096    6.1198   22.5153 C   0  0  0  0  0  0  0  0  0  0  0  0
   11.2102    5.4211   22.2826 N   0  0  0  0  0  0  0  0  0  0  0  0
   10.1177    4.8193   22.7548 C   0  0  0  0  0  0  0  0  0  0  0  0
    9.9311    3.5234   23.0090 N   0  0  0  0  0  0  0  0  0  0  0  0
  1  2  1  0
  2  3  1  0
  3  4  1  0
  4  5  2  0
  5  6  1  0
  6  7  1  0
  7  8  1  0
  8  9  1  0
  9 10  1  0
 10 11  1  0
 11 12  1  0
 12 13  1  0
 11 14  1  0
 14 15  1  0
 14 16  2  0
  6 17  2  0
 17 18  1  0
 18 19  1  0
 18 20  2  0
 20 21  1  0
 21 22  2  0
 22 23  1  0
 23 24  1  0
 24 25  1  0
 23 26  2  0
 26 27  1  0
 27 28  2  0
 20  4  1  0
 28 21  1  0
 13  8  1  0
M  END
