CVD-0001590|dock_bobby27042020.94|mol2|42|dock3
     RDKit          3D

 26 27  0  0  0  0  0  0  0  0999 V2000
    1.2453   -6.6548   21.9597 C   0  0  0  0  0  0  0  0  0  0  0  0
    2.6408   -6.9982   22.1629 N   0  0  0  0  0  0  0  0  0  0  0  0
    3.4801   -6.2033   22.8189 C   0  0  0  0  0  0  0  0  0  0  0  0
    3.1284   -5.1282   23.2945 O   0  0  0  0  0  0  0  0  0  0  0  0
    4.8951   -6.7141   22.9508 C   0  0  0  0  0  0  0  0  0  0  0  0
    5.6882   -6.6486   21.6569 C   0  0  0  0  0  0  0  0  0  0  0  0
    6.1740   -5.2726   21.3088 C   0  0  0  0  0  0  0  0  0  0  0  0
    5.6068   -4.5439   20.3705 N   0  0  0  0  0  0  0  0  0  0  0  0
    6.2796   -3.3604   20.2964 N   0  0  0  0  0  0  0  0  0  0  0  0
    5.8079   -2.3771   19.3292 C   0  0  0  0  0  0  0  0  0  0  0  0
    7.2909   -3.3069   21.2022 C   0  0  0  0  0  0  0  0  0  0  0  0
    7.2286   -4.5728   21.8732 C   0  0  0  0  0  0  0  0  0  0  0  0
    8.2175   -5.1946   23.1398 Cl  0  0  0  0  0  0  0  0  0  0  0  0
    8.2263   -2.2163   21.4411 C   0  0  0  0  0  0  0  0  0  0  0  0
    9.4905   -2.3191   21.9891 C   0  0  0  0  0  0  0  0  0  0  0  0
   10.1649   -1.1058   22.0994 C   0  0  0  0  0  0  0  0  0  0  0  0
    9.4376   -0.0335   21.6398 C   0  0  0  0  0  0  0  0  0  0  0  0
    7.8917   -0.5562   21.0641 S   0  0  0  0  0  0  0  0  0  0  0  0
    9.7327    1.4100   21.5575 C   0  0  0  0  0  0  0  0  0  0  0  0
    9.0517    2.1237   20.8232 O   0  0  0  0  0  0  0  0  0  0  0  0
   10.7576    1.8243   22.3450 N   0  0  0  0  0  0  0  0  0  0  0  0
   11.2032    3.1410   22.4442 N   0  0  0  0  0  0  0  0  0  0  0  0
   11.9187    3.6488   23.4653 C   0  0  0  0  0  0  0  0  0  0  0  0
   12.2902    3.0402   24.4634 O   0  0  0  0  0  0  0  0  0  0  0  0
   12.2293    5.1205   23.3032 C   0  0  0  0  0  0  0  0  0  0  0  0
   13.4267    5.4343   22.0404 Cl  0  0  0  0  0  0  0  0  0  0  0  0
  1  2  1  0
  2  3  1  0
  3  4  2  0
  3  5  1  0
  5  6  1  0
  6  7  1  0
  7  8  2  0
  8  9  1  0
  9 10  1  0
  9 11  1  0
 11 12  2  0
 12 13  1  0
 11 14  1  0
 14 15  2  0
 15 16  1  0
 16 17  2  0
 17 18  1  0
 17 19  1  0
 19 20  2  0
 19 21  1  0
 21 22  1  0
 22 23  1  0
 23 24  2  0
 23 25  1  0
 25 26  1  0
 12  7  1  0
 18 14  1  0
M  END
