CVD-0002706|dock_bobby27042020.62|mol2|13|dock1
     RDKit          3D

 24 26  0  0  0  0  0  0  0  0999 V2000
    7.0739   -3.2306   27.3778 C   0  0  0  0  0  0  0  0  0  0  0  0
    6.8357   -3.0425   25.9846 O   0  0  0  0  0  0  0  0  0  0  0  0
    7.7850   -2.3939   25.2435 C   0  0  0  0  0  0  0  0  0  0  0  0
    8.6655   -1.4325   25.7229 C   0  0  0  0  0  0  0  0  0  0  0  0
    9.5811   -0.8506   24.8655 C   0  0  0  0  0  0  0  0  0  0  0  0
    9.6392   -1.2093   23.5265 C   0  0  0  0  0  0  0  0  0  0  0  0
    8.7614   -2.1697   23.0450 C   0  0  0  0  0  0  0  0  0  0  0  0
    7.8366   -2.7638   23.8899 C   0  0  0  0  0  0  0  0  0  0  0  0
    6.9275   -3.7178   23.5215 O   0  0  0  0  0  0  0  0  0  0  0  0
    6.7905   -4.0346   22.1379 C   0  0  0  0  0  0  0  0  0  0  0  0
   10.6493   -0.5641   22.5984 C   0  0  0  0  0  0  0  0  0  0  0  0
   10.3744    0.9135   22.3050 C   0  0  0  0  0  0  0  0  0  0  0  0
   11.6102    1.6020   22.8010 C   0  0  0  0  0  0  0  0  0  0  0  0
   12.5100    0.7970   23.2670 N   0  0  0  0  0  0  0  0  0  0  0  0
   12.0193   -0.4998   23.1719 N   0  0  0  0  0  0  0  0  0  0  0  0
   12.8072   -1.5828   23.3909 C   0  0  0  0  0  0  0  0  0  0  0  0
   12.3828   -2.7288   23.3092 O   0  0  0  0  0  0  0  0  0  0  0  0
   14.2583   -1.3070   23.7321 C   0  0  0  0  0  0  0  0  0  0  0  0
   14.9432   -2.6199   24.6989 Cl  0  0  0  0  0  0  0  0  0  0  0  0
   11.8247    3.0342   22.7706 C   0  0  0  0  0  0  0  0  0  0  0  0
   10.8656    4.0192   22.6738 C   0  0  0  0  0  0  0  0  0  0  0  0
   11.4516    5.3080   22.6734 C   0  0  0  0  0  0  0  0  0  0  0  0
   12.7921    5.2872   22.7659 C   0  0  0  0  0  0  0  0  0  0  0  0
   13.4046    3.6967   22.8580 S   0  0  0  0  0  0  0  0  0  0  0  0
  1  2  1  0
  2  3  1  0
  3  4  2  0
  4  5  1  0
  5  6  2  0
  6  7  1  0
  7  8  2  0
  8  9  1  0
  9 10  1  0
  6 11  1  0
 11 12  1  0
 12 13  1  0
 13 14  2  0
 14 15  1  0
 15 16  1  0
 16 17  2  0
 16 18  1  0
 18 19  1  0
 13 20  1  0
 20 21  2  0
 21 22  1  0
 22 23  2  0
 23 24  1  0
  8  3  1  0
 15 11  1  0
 24 20  1  0
M  END
