CVD-0000271|dock_bobby27042020.42|mol2|13|dock3
     RDKit          3D

 26 28  0  0  0  0  0  0  0  0999 V2000
    5.1299   -0.1806   21.4255 N   0  0  0  0  0  0  0  0  0  0  0  0
    5.0671    0.5177   20.2881 C   0  0  0  0  0  0  0  0  0  0  0  0
    4.0074    1.3379   20.1104 N   0  0  0  0  0  0  0  0  0  0  0  0
    3.9564    2.0298   18.9723 C   0  0  0  0  0  0  0  0  0  0  0  0
    4.8404    2.0042   17.9816 N   0  0  0  0  0  0  0  0  0  0  0  0
    5.8835    1.1901   18.1683 C   0  0  0  0  0  0  0  0  0  0  0  0
    6.0745    0.4138   19.2850 C   0  0  0  0  0  0  0  0  0  0  0  0
    7.2818   -0.4801   19.4256 C   0  0  0  0  0  0  0  0  0  0  0  0
    8.2760    0.0355   20.3552 N   0  0  0  0  0  0  0  0  0  0  0  0
    9.3013   -0.7266   20.7846 C   0  0  0  0  0  0  0  0  0  0  0  0
    9.4404   -1.8871   20.4091 O   0  0  0  0  0  0  0  0  0  0  0  0
   10.1282   -0.0611   21.6560 N   0  0  0  0  0  0  0  0  0  0  0  0
   11.2966   -0.5247   22.3114 C   0  0  0  0  0  0  0  0  0  0  0  0
   11.6190   -1.8626   22.5407 C   0  0  0  0  0  0  0  0  0  0  0  0
   12.7993   -2.1749   23.1964 C   0  0  0  0  0  0  0  0  0  0  0  0
   13.6571   -1.1843   23.6242 C   0  0  0  0  0  0  0  0  0  0  0  0
   13.3528    0.1476   23.4049 C   0  0  0  0  0  0  0  0  0  0  0  0
   12.1737    0.4768   22.7491 C   0  0  0  0  0  0  0  0  0  0  0  0
   11.7579    1.7554   22.4713 O   0  0  0  0  0  0  0  0  0  0  0  0
   12.6714    2.8404   22.6852 C   0  0  0  0  0  0  0  0  0  0  0  0
   12.0266    4.0905   22.1453 C   0  0  0  0  0  0  0  0  0  0  0  0
   12.5822    5.3040   22.7588 N   0  0  0  0  0  0  0  0  0  0  0  0
   12.1758    5.8867   23.9267 C   0  0  0  0  0  0  0  0  0  0  0  0
   12.9759    6.9591   24.1102 C   0  0  0  0  0  0  0  0  0  0  0  0
   13.8808    7.0580   23.0874 N   0  0  0  0  0  0  0  0  0  0  0  0
   13.6119    6.0396   22.3008 C   0  0  0  0  0  0  0  0  0  0  0  0
  1  2  1  0
  2  3  2  0
  3  4  1  0
  4  5  2  0
  5  6  1  0
  6  7  2  0
  7  8  1  0
  8  9  1  0
  9 10  1  0
 10 11  2  0
 10 12  1  0
 12 13  1  0
 13 14  2  0
 14 15  1  0
 15 16  2  0
 16 17  1  0
 17 18  2  0
 18 19  1  0
 19 20  1  0
 20 21  1  0
 21 22  1  0
 22 23  1  0
 23 24  2  0
 24 25  1  0
 25 26  2  0
  7  2  1  0
 18 13  1  0
 26 22  1  0
M  END
