CVD-0002527|dock_bobby27042020.19|mol2|29|dock2
     RDKit          3D

 28 30  0  0  0  0  0  0  0  0999 V2000
    6.6410   -2.5775   21.6434 O   0  0  0  0  0  0  0  0  0  0  0  0
    7.7297   -2.0236   21.5349 C   0  0  0  0  0  0  0  0  0  0  0  0
    7.9512   -0.9421   20.5010 C   0  0  0  0  0  0  0  0  0  0  0  0
    6.6568   -0.4469   19.8484 C   0  0  0  0  0  0  0  0  0  0  0  0
    5.7251    0.2103   20.8872 C   0  0  0  0  0  0  0  0  0  0  0  0
    4.4565    0.7797   20.2547 C   0  0  0  0  0  0  0  0  0  0  0  0
    4.7859    1.7401   19.1192 C   0  0  0  0  0  0  0  0  0  0  0  0
    5.6794    1.0769   18.0809 C   0  0  0  0  0  0  0  0  0  0  0  0
    6.9615    0.5463   18.7141 C   0  0  0  0  0  0  0  0  0  0  0  0
    8.8292   -2.2910   22.2806 N   0  0  0  0  0  0  0  0  0  0  0  0
    9.0459   -3.2172   23.3310 C   0  0  0  0  0  0  0  0  0  0  0  0
    8.3696   -4.4310   23.3101 C   0  0  0  0  0  0  0  0  0  0  0  0
    8.5608   -5.3541   24.3225 C   0  0  0  0  0  0  0  0  0  0  0  0
    9.4342   -5.0130   25.3263 C   0  0  0  0  0  0  0  0  0  0  0  0
   10.1061   -3.8694   25.3924 N   0  0  0  0  0  0  0  0  0  0  0  0
    9.9059   -2.9914   24.4033 C   0  0  0  0  0  0  0  0  0  0  0  0
    9.7402   -6.1528   26.6656 S   0  0  0  0  0  0  0  0  0  0  0  0
   10.4183   -5.4245   27.6939 O   0  0  0  0  0  0  0  0  0  0  0  0
   10.3496   -7.3170   26.0990 O   0  0  0  0  0  0  0  0  0  0  0  0
    8.3169   -6.6077   27.2664 N   0  0  0  0  0  0  0  0  0  0  0  0
    7.2877   -5.6022   27.5572 C   0  0  0  0  0  0  0  0  0  0  0  0
    6.0643   -6.2520   28.1783 C   0  0  0  0  0  0  0  0  0  0  0  0
    6.2899   -6.6724   29.6104 C   0  0  0  0  0  0  0  0  0  0  0  0
    6.0999   -5.7766   30.6514 C   0  0  0  0  0  0  0  0  0  0  0  0
    6.3096   -6.1609   31.9653 C   0  0  0  0  0  0  0  0  0  0  0  0
    6.7131   -7.4466   32.2544 C   0  0  0  0  0  0  0  0  0  0  0  0
    6.9072   -8.3472   31.2294 C   0  0  0  0  0  0  0  0  0  0  0  0
    6.6972   -7.9619   29.9159 C   0  0  0  0  0  0  0  0  0  0  0  0
  1  2  2  0
  2  3  1  0
  3  4  1  0
  4  5  1  0
  5  6  1  0
  6  7  1  0
  7  8  1  0
  8  9  1  0
  2 10  1  0
 10 11  1  0
 11 12  2  0
 12 13  1  0
 13 14  2  0
 14 15  1  0
 15 16  2  0
 14 17  1  0
 17 18  2  0
 17 19  2  0
 17 20  1  0
 20 21  1  0
 21 22  1  0
 22 23  1  0
 23 24  2  0
 24 25  1  0
 25 26  2  0
 26 27  1  0
 27 28  2  0
  9  4  1  0
 16 11  1  0
 28 23  1  0
M  END
