CVD-0000798|dock_bobby27042020.40|mol2|24|dock2
     RDKit          3D

 23 25  0  0  0  0  0  0  0  0999 V2000
   10.0235   -5.2131   26.7866 C   0  0  0  0  0  0  0  0  0  0  0  0
   10.4355   -5.5985   25.3896 C   0  0  0  0  0  0  0  0  0  0  0  0
    9.7166   -4.8152   24.3086 C   0  0  0  0  0  0  0  0  0  0  0  0
    8.4243   -5.1472   23.9323 C   0  0  0  0  0  0  0  0  0  0  0  0
    7.7519   -4.4496   22.9432 C   0  0  0  0  0  0  0  0  0  0  0  0
    8.3845   -3.3837   22.3045 C   0  0  0  0  0  0  0  0  0  0  0  0
    7.9735   -2.5073   21.2785 N   0  0  0  0  0  0  0  0  0  0  0  0
    9.0281   -1.6300   21.0630 C   0  0  0  0  0  0  0  0  0  0  0  0
   10.0807   -1.9055   21.8721 C   0  0  0  0  0  0  0  0  0  0  0  0
   11.4059   -1.1909   21.9384 C   0  0  0  0  0  0  0  0  0  0  0  0
   11.8150   -0.8265   23.2993 N   0  0  0  0  0  0  0  0  0  0  0  0
   10.7856   -0.0081   23.9297 C   0  0  0  0  0  0  0  0  0  0  0  0
   13.0708   -0.0839   23.2800 C   0  0  0  0  0  0  0  0  0  0  0  0
    9.6927   -3.0263   22.6736 C   0  0  0  0  0  0  0  0  0  0  0  0
   10.3409   -3.7526   23.6703 C   0  0  0  0  0  0  0  0  0  0  0  0
    6.7179   -2.5303   20.6393 C   0  0  0  0  0  0  0  0  0  0  0  0
    5.9416   -3.4443   20.8528 O   0  0  0  0  0  0  0  0  0  0  0  0
    6.2457   -1.4666   19.6876 C   0  0  0  0  0  0  0  0  0  0  0  0
    6.4769   -0.1391   20.0338 C   0  0  0  0  0  0  0  0  0  0  0  0
    6.0911    0.8954   19.1979 C   0  0  0  0  0  0  0  0  0  0  0  0
    5.4633    0.6231   18.0027 C   0  0  0  0  0  0  0  0  0  0  0  0
    5.2057   -0.6839   17.6519 C   0  0  0  0  0  0  0  0  0  0  0  0
    5.5772   -1.7207   18.4918 C   0  0  0  0  0  0  0  0  0  0  0  0
  1  2  1  0
  2  3  1  0
  3  4  2  0
  4  5  1  0
  5  6  2  0
  6  7  1  0
  7  8  1  0
  8  9  2  0
  9 10  1  0
 10 11  1  0
 11 12  1  0
 11 13  1  0
  9 14  1  0
 14 15  2  0
  7 16  1  0
 16 17  2  0
 16 18  1  0
 18 19  2  0
 19 20  1  0
 20 21  2  0
 21 22  1  0
 22 23  2  0
 15  3  1  0
 23 18  1  0
 14  6  1  0
M  END
