CVD-0003122|dock_bobby27042020.89|mol2|3|dock3
     RDKit          3D

 18 20  0  0  0  0  0  0  0  0999 V2000
   12.1560   -2.1018   21.5127 O   0  0  0  0  0  0  0  0  0  0  0  0
   11.9168   -0.8273   21.9169 C   0  0  0  0  0  0  0  0  0  0  0  0
   12.9609    0.0202   22.2620 C   0  0  0  0  0  0  0  0  0  0  0  0
   12.6715    1.3112   22.6676 C   0  0  0  0  0  0  0  0  0  0  0  0
   11.3516    1.7010   22.7108 C   0  0  0  0  0  0  0  0  0  0  0  0
   10.3285    0.9000   22.3819 N   0  0  0  0  0  0  0  0  0  0  0  0
   10.6067   -0.3523   21.9898 C   0  0  0  0  0  0  0  0  0  0  0  0
    9.4189   -1.2168   21.6265 C   0  0  0  0  0  0  0  0  0  0  0  0
    8.1133   -0.5876   21.8678 N   0  0  0  0  0  0  0  0  0  0  0  0
    7.0192   -1.5968   21.7884 C   0  0  0  0  0  0  0  0  0  0  0  0
    6.0000   -0.9669   20.7962 C   0  0  0  0  0  0  0  0  0  0  0  0
    6.5850    0.3161   20.3546 C   0  0  0  0  0  0  0  0  0  0  0  0
    7.8764    0.5736   21.0536 C   0  0  0  0  0  0  0  0  0  0  0  0
    5.6838    1.4790   20.7597 C   0  0  0  0  0  0  0  0  0  0  0  0
    4.3913    1.4039   19.9634 C   0  0  0  0  0  0  0  0  0  0  0  0
    4.6393    1.4740   18.5570 O   0  0  0  0  0  0  0  0  0  0  0  0
    5.4565    0.3812   18.1357 C   0  0  0  0  0  0  0  0  0  0  0  0
    6.8033    0.3836   18.8440 C   0  0  0  0  0  0  0  0  0  0  0  0
  1  2  1  0
  2  3  2  0
  3  4  1  0
  4  5  2  0
  5  6  1  0
  6  7  2  0
  7  8  1  0
  8  9  1  0
  9 10  1  0
 10 11  1  0
 11 12  1  0
 12 13  1  0
 12 14  1  0
 14 15  1  0
 15 16  1  0
 16 17  1  0
 17 18  1  0
  7  2  1  0
 13  9  1  0
 18 12  1  0
M  END
