CVD-0000192|dock_bobby27042020.99|mol2|24|dock2
     RDKit          3D

 23 25  0  0  0  0  0  0  0  0999 V2000
    8.1362   -0.1612   22.5836 O   0  0  0  0  0  0  0  0  0  0  0  0
    8.9184   -0.6022   21.7490 C   0  0  0  0  0  0  0  0  0  0  0  0
   10.2855   -1.1243   22.1386 C   0  0  0  0  0  0  0  0  0  0  0  0
   10.9043   -0.4741   23.3893 C   0  0  0  0  0  0  0  0  0  0  0  0
   11.0324    1.0374   23.2137 C   0  0  0  0  0  0  0  0  0  0  0  0
   12.1763    1.5645   22.6295 C   0  0  0  0  0  0  0  0  0  0  0  0
   12.3227    2.9300   22.4512 C   0  0  0  0  0  0  0  0  0  0  0  0
   11.3259    3.7918   22.8540 C   0  0  0  0  0  0  0  0  0  0  0  0
   10.1831    3.2870   23.4353 C   0  0  0  0  0  0  0  0  0  0  0  0
   10.0373    1.9215   23.6141 C   0  0  0  0  0  0  0  0  0  0  0  0
   12.2086   -1.1201   23.8589 C   0  0  0  0  0  0  0  0  0  0  0  0
   12.9653   -1.9652   23.0527 C   0  0  0  0  0  0  0  0  0  0  0  0
   14.1433   -2.5272   23.5168 C   0  0  0  0  0  0  0  0  0  0  0  0
   14.5844   -2.2639   24.7948 C   0  0  0  0  0  0  0  0  0  0  0  0
   13.8449   -1.4372   25.6112 C   0  0  0  0  0  0  0  0  0  0  0  0
   12.6688   -0.8729   25.1467 C   0  0  0  0  0  0  0  0  0  0  0  0
    8.6796   -0.6757   20.4171 N   0  0  0  0  0  0  0  0  0  0  0  0
    7.5502   -0.2973   19.6498 C   0  0  0  0  0  0  0  0  0  0  0  0
    6.3645    0.1828   20.1967 C   0  0  0  0  0  0  0  0  0  0  0  0
    5.3205    0.5244   19.3543 C   0  0  0  0  0  0  0  0  0  0  0  0
    5.4877    0.3783   17.9965 C   0  0  0  0  0  0  0  0  0  0  0  0
    6.6113   -0.0788   17.4439 N   0  0  0  0  0  0  0  0  0  0  0  0
    7.6130   -0.4058   18.2653 C   0  0  0  0  0  0  0  0  0  0  0  0
  1  2  2  0
  2  3  1  0
  3  4  1  0
  4  5  1  0
  5  6  2  0
  6  7  1  0
  7  8  2  0
  8  9  1  0
  9 10  2  0
  4 11  1  0
 11 12  2  0
 12 13  1  0
 13 14  2  0
 14 15  1  0
 15 16  2  0
  2 17  1  0
 17 18  1  0
 18 19  2  0
 19 20  1  0
 20 21  2  0
 21 22  1  0
 22 23  2  0
 10  5  1  0
 16 11  1  0
 23 18  1  0
M  END
