CVD-0002775|dock_bobby27042020.62|mol2|3|dock2
     RDKit          3D

 26 27  0  0  0  0  0  0  0  0999 V2000
    6.9642   -6.7337   28.6974 C   0  0  0  0  0  0  0  0  0  0  0  0
    8.3050   -6.5697   28.1780 O   0  0  0  0  0  0  0  0  0  0  0  0
    8.4968   -5.5273   27.3753 C   0  0  0  0  0  0  0  0  0  0  0  0
    7.6528   -4.6827   27.1404 O   0  0  0  0  0  0  0  0  0  0  0  0
    9.8950   -5.5336   26.8126 C   0  0  0  0  0  0  0  0  0  0  0  0
   10.1031   -4.5102   25.8112 N   0  0  0  0  0  0  0  0  0  0  0  0
    9.8624   -4.7540   24.5201 C   0  0  0  0  0  0  0  0  0  0  0  0
    9.4926   -5.8652   24.1530 O   0  0  0  0  0  0  0  0  0  0  0  0
   10.0654   -3.6774   23.4900 C   0  0  0  0  0  0  0  0  0  0  0  0
   11.3891   -3.2660   23.3396 C   0  0  0  0  0  0  0  0  0  0  0  0
   11.7091   -2.2218   22.4907 C   0  0  0  0  0  0  0  0  0  0  0  0
   10.7047   -1.5503   21.8169 C   0  0  0  0  0  0  0  0  0  0  0  0
    9.3742   -1.9443   21.9525 C   0  0  0  0  0  0  0  0  0  0  0  0
    8.3874   -1.0590   21.2426 C   0  0  0  0  0  0  0  0  0  0  0  0
    7.3443   -0.7479   21.8096 O   0  0  0  0  0  0  0  0  0  0  0  0
    8.6405   -0.6373   19.9958 N   0  0  0  0  0  0  0  0  0  0  0  0
    7.7258    0.2319   19.2641 C   0  0  0  0  0  0  0  0  0  0  0  0
    7.9692    0.3606   17.8471 C   0  0  0  0  0  0  0  0  0  0  0  0
    6.8237   -0.4654   18.3381 C   0  0  0  0  0  0  0  0  0  0  0  0
    6.9220   -1.8598   18.1918 F   0  0  0  0  0  0  0  0  0  0  0  0
    9.0579   -3.0941   22.6995 C   0  0  0  0  0  0  0  0  0  0  0  0
    7.3334   -3.8691   22.5997 Br  0  0  0  0  0  0  0  0  0  0  0  0
   13.3968   -1.7484   22.2655 S   0  0  0  0  0  0  0  0  0  0  0  0
   13.6821   -1.6184   20.6956 N   0  0  0  0  0  0  0  0  0  0  0  0
   14.2106   -2.8198   22.7564 O   0  0  0  0  0  0  0  0  0  0  0  0
   13.5544   -0.4434   22.8341 O   0  0  0  0  0  0  0  0  0  0  0  0
  1  2  1  0
  2  3  1  0
  3  4  2  0
  3  5  1  0
  5  6  1  0
  6  7  1  0
  7  8  2  0
  7  9  1  0
  9 10  2  0
 10 11  1  0
 11 12  2  0
 12 13  1  0
 13 14  1  0
 14 15  2  0
 14 16  1  0
 17 16  1  0
 17 18  1  0
 18 19  1  0
 19 20  1  0
 13 21  2  0
 21 22  1  0
 11 23  1  0
 23 24  1  0
 23 25  2  0
 23 26  2  0
 21  9  1  0
 19 17  1  0
M  END
