CVD-0002973|dock_bobby27042020.46|mol2|41|dock2
     RDKit          3D

 24 26  0  0  0  0  0  0  0  0999 V2000
   14.2109   -1.9235   25.7091 C   0  0  0  0  0  0  0  0  0  0  0  0
   13.5704   -1.7148   24.3584 C   0  0  0  0  0  0  0  0  0  0  0  0
   14.0641   -2.3519   23.2318 C   0  0  0  0  0  0  0  0  0  0  0  0
   13.4721   -2.1595   21.9956 C   0  0  0  0  0  0  0  0  0  0  0  0
   12.3742   -1.3258   21.8679 C   0  0  0  0  0  0  0  0  0  0  0  0
   11.8589   -0.6783   22.9837 C   0  0  0  0  0  0  0  0  0  0  0  0
   12.4689   -0.8844   24.2171 C   0  0  0  0  0  0  0  0  0  0  0  0
   10.7207    0.1849   22.8712 N   0  0  0  0  0  0  0  0  0  0  0  0
    9.3641   -0.4160   22.8994 C   0  0  0  0  0  0  0  0  0  0  0  0
    8.7525   -0.4447   21.5041 C   0  0  0  0  0  0  0  0  0  0  0  0
    7.3846   -1.0946   21.5357 C   0  0  0  0  0  0  0  0  0  0  0  0
    7.4863   -2.4446   22.0838 N   0  0  0  0  0  0  0  0  0  0  0  0
    8.0181   -2.4628   23.4423 C   0  0  0  0  0  0  0  0  0  0  0  0
    9.4067   -1.8329   23.4672 C   0  0  0  0  0  0  0  0  0  0  0  0
    6.9074   -3.5533   21.5653 C   0  0  0  0  0  0  0  0  0  0  0  0
    6.2116   -3.4993   20.5589 O   0  0  0  0  0  0  0  0  0  0  0  0
    7.1431   -4.8835   22.2553 C   0  0  0  0  0  0  0  0  0  0  0  0
    6.4994   -6.2164   21.2878 Cl  0  0  0  0  0  0  0  0  0  0  0  0
   10.8964    1.5314   22.7736 C   0  0  0  0  0  0  0  0  0  0  0  0
    9.9496    2.5131   22.7286 C   0  0  0  0  0  0  0  0  0  0  0  0
   10.4808    3.7972   22.6294 C   0  0  0  0  0  0  0  0  0  0  0  0
   11.8249    3.7912   22.6052 C   0  0  0  0  0  0  0  0  0  0  0  0
   12.9603    5.2738   22.4809 Br  0  0  0  0  0  0  0  0  0  0  0  0
   12.4891    2.2144   22.7032 S   0  0  0  0  0  0  0  0  0  0  0  0
  1  2  1  0
  2  3  2  0
  3  4  1  0
  4  5  2  0
  5  6  1  0
  6  7  2  0
  6  8  1  0
  8  9  1  0
  9 10  1  0
 10 11  1  0
 11 12  1  0
 12 13  1  0
 13 14  1  0
 12 15  1  0
 15 16  2  0
 15 17  1  0
 17 18  1  0
  8 19  1  0
 19 20  2  0
 20 21  1  0
 21 22  2  0
 22 23  1  0
 22 24  1  0
  7  2  1  0
 14  9  1  0
 24 19  1  0
M  END
