CVD-0002801|dock_bobby27042020.90|mol2|11|dock2
     RDKit          3D

 27 29  0  0  0  0  0  0  0  0999 V2000
    6.6545   -3.5231   20.2174 C   0  0  0  0  0  0  0  0  0  0  0  0
    7.0583   -2.1705   19.6926 C   0  0  0  0  0  0  0  0  0  0  0  0
    6.2536   -1.5085   18.7696 C   0  0  0  0  0  0  0  0  0  0  0  0
    6.6422   -0.2718   18.2962 C   0  0  0  0  0  0  0  0  0  0  0  0
    7.7642    0.3386   18.6767 N   0  0  0  0  0  0  0  0  0  0  0  0
    8.5290   -0.3064   19.5626 C   0  0  0  0  0  0  0  0  0  0  0  0
    8.2378   -1.5376   20.0969 C   0  0  0  0  0  0  0  0  0  0  0  0
    9.1600   -2.1932   21.0982 C   0  0  0  0  0  0  0  0  0  0  0  0
   10.2739   -1.3067   21.4842 N   0  0  0  0  0  0  0  0  0  0  0  0
    9.8661   -0.3346   22.5549 C   0  0  0  0  0  0  0  0  0  0  0  0
   11.1548    0.5398   22.7096 C   0  0  0  0  0  0  0  0  0  0  0  0
   12.3754   -0.3137   23.0971 C   0  0  0  0  0  0  0  0  0  0  0  0
   12.5383   -1.5470   22.2048 C   0  0  0  0  0  0  0  0  0  0  0  0
   12.9707   -1.2807   20.9649 N   0  0  0  0  0  0  0  0  0  0  0  0
   11.2544   -2.2106   22.0795 O   0  0  0  0  0  0  0  0  0  0  0  0
   10.8983    1.6593   23.7078 C   0  0  0  0  0  0  0  0  0  0  0  0
   10.2435    1.3965   24.9134 C   0  0  0  0  0  0  0  0  0  0  0  0
    9.9876    2.4041   25.8260 C   0  0  0  0  0  0  0  0  0  0  0  0
   10.3909    3.6910   25.5525 C   0  0  0  0  0  0  0  0  0  0  0  0
   11.0509    3.9678   24.3683 C   0  0  0  0  0  0  0  0  0  0  0  0
   11.3146    2.9690   23.4312 C   0  0  0  0  0  0  0  0  0  0  0  0
   12.0366    3.2973   22.1444 C   0  0  0  0  0  0  0  0  0  0  0  0
   12.4778    4.6957   22.0744 N   0  0  0  0  0  0  0  0  0  0  0  0
   13.9848    5.0702   22.4733 S   0  0  0  0  0  0  0  0  0  0  0  0
   14.0953    6.8163   22.5502 C   0  0  0  0  0  0  0  0  0  0  0  0
   14.2113    4.5529   23.7874 O   0  0  0  0  0  0  0  0  0  0  0  0
   14.8249    4.6188   21.4073 O   0  0  0  0  0  0  0  0  0  0  0  0
  1  2  1  0
  2  3  2  0
  3  4  1  0
  4  5  2  0
  5  6  1  0
  6  7  2  0
  7  8  1  0
  8  9  1  0
  9 10  1  0
 10 11  1  0
 11 12  1  0
 12 13  1  0
 13 14  1  0
 13 15  1  0
 11 16  1  0
 16 17  2  0
 17 18  1  0
 18 19  2  0
 19 20  1  0
 20 21  2  0
 21 22  1  0
 22 23  1  0
 23 24  1  0
 24 25  1  0
 24 26  2  0
 24 27  2  0
  7  2  1  0
 15  9  1  0
 21 16  1  0
M  END
