CVD-0003525|dock_bobby27042020.1|mol2|42|dock3
     RDKit          3D

 25 27  0  0  0  0  0  0  0  0999 V2000
   10.9062    5.9901   22.3698 N   0  0  0  0  0  0  0  0  0  0  0  0
   12.1823    5.6783   23.2850 S   0  0  0  0  0  0  0  0  0  0  0  0
   13.2409    6.5348   22.8413 O   0  0  0  0  0  0  0  0  0  0  0  0
   11.7543    5.7573   24.6494 O   0  0  0  0  0  0  0  0  0  0  0  0
   12.6913    4.0124   22.9872 C   0  0  0  0  0  0  0  0  0  0  0  0
   14.0091    3.7390   22.6618 C   0  0  0  0  0  0  0  0  0  0  0  0
   14.3838    2.4276   22.4313 C   0  0  0  0  0  0  0  0  0  0  0  0
   13.4665    1.3841   22.5199 C   0  0  0  0  0  0  0  0  0  0  0  0
   13.8804   -0.0340   22.2330 C   0  0  0  0  0  0  0  0  0  0  0  0
   12.8714   -1.0398   22.7412 C   0  0  0  0  0  0  0  0  0  0  0  0
   11.5158   -0.6737   22.3261 N   0  0  0  0  0  0  0  0  0  0  0  0
   10.5771   -1.7407   22.6934 C   0  0  0  0  0  0  0  0  0  0  0  0
    9.1192   -1.4646   22.3484 C   0  0  0  0  0  0  0  0  0  0  0  0
    8.9342   -0.9698   20.9155 C   0  0  0  0  0  0  0  0  0  0  0  0
    7.4737   -0.7995   20.5489 C   0  0  0  0  0  0  0  0  0  0  0  0
    6.7228   -2.0293   20.8211 N   0  0  0  0  0  0  0  0  0  0  0  0
    6.7961   -2.4451   22.2171 C   0  0  0  0  0  0  0  0  0  0  0  0
    8.2419   -2.6860   22.5914 C   0  0  0  0  0  0  0  0  0  0  0  0
    5.9372   -2.6899   19.9328 C   0  0  0  0  0  0  0  0  0  0  0  0
    5.4173   -3.7616   20.2396 O   0  0  0  0  0  0  0  0  0  0  0  0
    5.6820   -2.1411   18.5696 C   0  0  0  0  0  0  0  0  0  0  0  0
    5.1714   -0.9476   18.4205 C   0  0  0  0  0  0  0  0  0  0  0  0
   11.1291    0.5649   23.0032 C   0  0  0  0  0  0  0  0  0  0  0  0
   12.1383    1.6662   22.8486 C   0  0  0  0  0  0  0  0  0  0  0  0
   11.7639    2.9860   23.0800 C   0  0  0  0  0  0  0  0  0  0  0  0
  1  2  1  0
  2  3  2  0
  2  4  2  0
  2  5  1  0
  5  6  2  0
  6  7  1  0
  7  8  2  0
  8  9  1  0
  9 10  1  0
 10 11  1  0
 11 12  1  0
 12 13  1  0
 13 14  1  0
 14 15  1  0
 15 16  1  0
 16 17  1  0
 17 18  1  0
 16 19  1  0
 19 20  2  0
 19 21  1  0
 21 22  2  0
 11 23  1  0
 23 24  1  0
 24 25  2  0
 25  5  1  0
 24  8  1  0
 18 13  1  0
M  END
