CVD-0002037|dock_bobby27042020.79|mol2|7|dock1
     RDKit          3D

 26 28  0  0  0  0  0  0  0  0999 V2000
    2.0523    2.9739   22.5150 C   0  0  0  0  0  0  0  0  0  0  0  0
    1.6915    3.4334   21.1254 C   0  0  0  0  0  0  0  0  0  0  0  0
    0.4994    4.1309   20.9547 C   0  0  0  0  0  0  0  0  0  0  0  0
    0.1306    4.5600   19.7000 C   0  0  0  0  0  0  0  0  0  0  0  0
    0.8674    4.3427   18.6151 N   0  0  0  0  0  0  0  0  0  0  0  0
    2.0183    3.6801   18.7675 C   0  0  0  0  0  0  0  0  0  0  0  0
    2.4887    3.1919   19.9882 C   0  0  0  0  0  0  0  0  0  0  0  0
    3.7085    2.4750   20.1594 N   0  0  0  0  0  0  0  0  0  0  0  0
    4.3486    1.6102   19.3216 C   0  0  0  0  0  0  0  0  0  0  0  0
    3.9366    1.3135   18.2054 O   0  0  0  0  0  0  0  0  0  0  0  0
    5.6351    0.9664   19.7691 C   0  0  0  0  0  0  0  0  0  0  0  0
    6.5659    0.6112   18.7980 C   0  0  0  0  0  0  0  0  0  0  0  0
    7.7682    0.0156   19.1330 C   0  0  0  0  0  0  0  0  0  0  0  0
    8.0893   -0.2498   20.4574 C   0  0  0  0  0  0  0  0  0  0  0  0
    9.3391   -0.8630   20.7272 N   0  0  0  0  0  0  0  0  0  0  0  0
   10.0655   -0.9503   21.8930 C   0  0  0  0  0  0  0  0  0  0  0  0
    9.7134   -0.4713   22.9658 O   0  0  0  0  0  0  0  0  0  0  0  0
   11.2381   -1.6446   21.7000 N   0  0  0  0  0  0  0  0  0  0  0  0
   12.2797   -1.9745   22.6041 C   0  0  0  0  0  0  0  0  0  0  0  0
   11.9475   -2.2659   23.9210 C   0  0  0  0  0  0  0  0  0  0  0  0
   12.9433   -2.5911   24.8250 C   0  0  0  0  0  0  0  0  0  0  0  0
   14.2467   -2.6162   24.3874 C   0  0  0  0  0  0  0  0  0  0  0  0
   14.5991   -2.3418   23.1315 N   0  0  0  0  0  0  0  0  0  0  0  0
   13.6304   -2.0288   22.2652 C   0  0  0  0  0  0  0  0  0  0  0  0
    7.1662    0.1018   21.4379 C   0  0  0  0  0  0  0  0  0  0  0  0
    5.9644    0.6983   21.0977 C   0  0  0  0  0  0  0  0  0  0  0  0
  1  2  1  0
  2  3  2  0
  3  4  1  0
  4  5  2  0
  5  6  1  0
  6  7  2  0
  7  8  1  0
  8  9  1  0
  9 10  2  0
  9 11  1  0
 11 12  2  0
 12 13  1  0
 13 14  2  0
 14 15  1  0
 15 16  1  0
 16 17  2  0
 16 18  1  0
 18 19  1  0
 19 20  2  0
 20 21  1  0
 21 22  2  0
 22 23  1  0
 23 24  2  0
 14 25  1  0
 25 26  2  0
  7  2  1  0
 26 11  1  0
 24 19  1  0
M  END
