CVD-0002095|dock_bobby27042020.78|mol2|39|dock1
     RDKit          3D

 20 22  0  0  0  0  0  0  0  0999 V2000
    7.0907    0.6803   25.1655 N   0  0  0  0  0  0  0  0  0  0  0  0
    8.5613    0.7922   25.0438 C   0  0  0  0  0  0  0  0  0  0  0  0
    9.2394   -0.5560   24.8401 C   0  0  0  0  0  0  0  0  0  0  0  0
    8.3728   -1.3583   24.0469 O   0  0  0  0  0  0  0  0  0  0  0  0
    8.9915   -2.5717   23.5708 C   0  0  0  0  0  0  0  0  0  0  0  0
   10.0341   -2.1389   22.5052 C   0  0  0  0  0  0  0  0  0  0  0  0
   11.0318   -1.2176   23.1829 C   0  0  0  0  0  0  0  0  0  0  0  0
   12.3519   -1.0957   22.7233 C   0  0  0  0  0  0  0  0  0  0  0  0
   12.8041   -1.7949   21.6373 O   0  0  0  0  0  0  0  0  0  0  0  0
   13.2092   -0.1477   23.2797 C   0  0  0  0  0  0  0  0  0  0  0  0
   14.4577   -0.0042   22.7631 O   0  0  0  0  0  0  0  0  0  0  0  0
   12.7714    0.6888   24.2956 C   0  0  0  0  0  0  0  0  0  0  0  0
   11.4727    0.5742   24.7534 C   0  0  0  0  0  0  0  0  0  0  0  0
   10.5980   -0.3672   24.2112 C   0  0  0  0  0  0  0  0  0  0  0  0
    9.5683   -3.2784   24.7971 C   0  0  0  0  0  0  0  0  0  0  0  0
    8.4974   -3.5481   25.8526 C   0  0  0  0  0  0  0  0  0  0  0  0
    9.0994   -4.3489   27.0207 C   0  0  0  0  0  0  0  0  0  0  0  0
    9.8857   -5.6042   26.5180 C   0  0  0  0  0  0  0  0  0  0  0  0
   10.8677   -5.2289   25.5125 N   0  0  0  0  0  0  0  0  0  0  0  0
   10.2388   -4.5743   24.3676 C   0  0  0  0  0  0  0  0  0  0  0  0
  1  2  1  0
  2  3  1  0
  3  4  1  0
  4  5  1  0
  5  6  1  0
  6  7  1  0
  7  8  2  0
  8  9  1  0
  8 10  1  0
 10 11  1  0
 10 12  2  0
 12 13  1  0
 13 14  2  0
  5 15  1  0
 15 16  1  0
 16 17  1  0
 17 18  1  0
 18 19  1  0
 19 20  1  0
 14  3  1  0
 20 15  1  0
 14  7  1  0
M  END
