CVD-0003317|dock_bobby27042020.74|mol2|17|dock1
     RDKit          3D

 30 33  0  0  0  0  0  0  0  0999 V2000
    7.8790    0.5831   18.0734 Cl  0  0  0  0  0  0  0  0  0  0  0  0
    7.5126   -0.4569   19.4212 C   0  0  0  0  0  0  0  0  0  0  0  0
    6.4974   -1.3806   19.3029 C   0  0  0  0  0  0  0  0  0  0  0  0
    6.2157   -2.2022   20.3811 C   0  0  0  0  0  0  0  0  0  0  0  0
    6.9461   -2.0896   21.5522 C   0  0  0  0  0  0  0  0  0  0  0  0
    7.9668   -1.1562   21.6653 C   0  0  0  0  0  0  0  0  0  0  0  0
    8.2472   -0.3354   20.5830 C   0  0  0  0  0  0  0  0  0  0  0  0
    8.7693   -1.0388   22.9542 C   0  0  0  0  0  0  0  0  0  0  0  0
    8.1211   -0.0540   23.8693 C   0  0  0  0  0  0  0  0  0  0  0  0
    8.1682    1.3171   23.3035 N   0  0  0  0  0  0  0  0  0  0  0  0
    9.4691    1.8061   22.8042 C   0  0  0  0  0  0  0  0  0  0  0  0
   10.5384    0.7235   22.6146 C   0  0  0  0  0  0  0  0  0  0  0  0
   11.8636    1.0988   22.3757 C   0  0  0  0  0  0  0  0  0  0  0  0
   12.0698    2.4559   22.3410 O   0  0  0  0  0  0  0  0  0  0  0  0
   13.3376    2.9776   22.7633 C   0  0  0  0  0  0  0  0  0  0  0  0
   13.2188    4.4788   22.8094 C   0  0  0  0  0  0  0  0  0  0  0  0
   12.1854    4.9503   23.7403 N   0  0  0  0  0  0  0  0  0  0  0  0
   12.6726    6.0706   24.5498 C   0  0  0  0  0  0  0  0  0  0  0  0
   11.5991    6.5220   25.4848 C   0  0  0  0  0  0  0  0  0  0  0  0
   10.4334    6.9386   24.7830 O   0  0  0  0  0  0  0  0  0  0  0  0
    9.9498    5.8696   23.9871 C   0  0  0  0  0  0  0  0  0  0  0  0
   10.9863    5.3783   23.0217 C   0  0  0  0  0  0  0  0  0  0  0  0
   12.8510    0.1358   22.2089 C   0  0  0  0  0  0  0  0  0  0  0  0
   12.5141   -1.2049   22.2812 C   0  0  0  0  0  0  0  0  0  0  0  0
   11.2024   -1.5770   22.5177 C   0  0  0  0  0  0  0  0  0  0  0  0
   10.1956   -0.6283   22.6880 C   0  0  0  0  0  0  0  0  0  0  0  0
    7.0486    2.0856   23.2878 C   0  0  0  0  0  0  0  0  0  0  0  0
    5.9966    1.6457   23.7493 O   0  0  0  0  0  0  0  0  0  0  0  0
    7.0475    3.4671   22.7247 C   0  0  0  0  0  0  0  0  0  0  0  0
    5.9297    4.0248   22.3414 C   0  0  0  0  0  0  0  0  0  0  0  0
  1  2  1  0
  2  3  2  0
  3  4  1  0
  4  5  2  0
  5  6  1  0
  6  7  2  0
  8  6  1  0
  8  9  1  0
  9 10  1  0
 10 11  1  0
 11 12  1  0
 12 13  2  0
 13 14  1  0
 14 15  1  0
 15 16  1  0
 16 17  1  0
 17 18  1  0
 18 19  1  0
 19 20  1  0
 20 21  1  0
 21 22  1  0
 13 23  1  0
 23 24  2  0
 24 25  1  0
 25 26  2  0
 10 27  1  0
 27 28  2  0
 27 29  1  0
 29 30  2  0
  7  2  1  0
 26  8  1  0
 26 12  1  0
 22 17  1  0
M  END
