CVD-0003764|dock_bobby27042020.44|mol2|20|dock1
     RDKit          3D

 26 29  0  0  0  0  0  0  0  0999 V2000
   13.3378    5.5117   22.8755 Cl  0  0  0  0  0  0  0  0  0  0  0  0
   13.0970    3.8154   22.4375 C   0  0  0  0  0  0  0  0  0  0  0  0
   12.4717    3.0431   23.5826 C   0  0  0  0  0  0  0  0  0  0  0  0
   12.0866    3.6047   24.6003 O   0  0  0  0  0  0  0  0  0  0  0  0
   12.3699    1.7087   23.4184 N   0  0  0  0  0  0  0  0  0  0  0  0
   12.7829    0.9621   22.2331 C   0  0  0  0  0  0  0  0  0  0  0  0
   11.7019   -0.0235   21.8397 C   0  0  0  0  0  0  0  0  0  0  0  0
   11.3942   -0.9697   22.9936 C   0  0  0  0  0  0  0  0  0  0  0  0
   11.0192   -0.1593   24.2323 C   0  0  0  0  0  0  0  0  0  0  0  0
   12.1156    0.8465   24.5675 C   0  0  0  0  0  0  0  0  0  0  0  0
   10.2782   -1.9416   22.6192 C   0  0  0  0  0  0  0  0  0  0  0  0
    9.5143   -1.5788   21.6094 N   0  0  0  0  0  0  0  0  0  0  0  0
    8.5136   -2.3904   21.2419 C   0  0  0  0  0  0  0  0  0  0  0  0
    8.1937   -3.5558   21.7963 N   0  0  0  0  0  0  0  0  0  0  0  0
    8.9750   -3.9576   22.8455 C   0  0  0  0  0  0  0  0  0  0  0  0
    8.6933   -5.1881   23.4842 C   0  0  0  0  0  0  0  0  0  0  0  0
    9.4570   -5.6121   24.5318 C   0  0  0  0  0  0  0  0  0  0  0  0
   10.5170   -4.8560   24.9886 C   0  0  0  0  0  0  0  0  0  0  0  0
   10.8259   -3.6647   24.4025 C   0  0  0  0  0  0  0  0  0  0  0  0
   10.0608   -3.1758   23.3130 C   0  0  0  0  0  0  0  0  0  0  0  0
    7.6752   -1.9499   20.1029 C   0  0  0  0  0  0  0  0  0  0  0  0
    7.9172   -0.7479   19.4487 C   0  0  0  0  0  0  0  0  0  0  0  0
    7.1147   -0.3662   18.3879 C   0  0  0  0  0  0  0  0  0  0  0  0
    6.0878   -1.2006   18.0089 C   0  0  0  0  0  0  0  0  0  0  0  0
    5.8274   -2.3604   18.6140 N   0  0  0  0  0  0  0  0  0  0  0  0
    6.6129   -2.7126   19.6365 C   0  0  0  0  0  0  0  0  0  0  0  0
  1  2  1  0
  2  3  1  0
  3  4  2  0
  3  5  1  0
  5  6  1  0
  6  7  1  0
  7  8  1  0
  8  9  1  0
  9 10  1  0
  8 11  1  0
 11 12  2  0
 12 13  1  0
 13 14  2  0
 14 15  1  0
 15 16  2  0
 16 17  1  0
 17 18  2  0
 18 19  1  0
 19 20  2  0
 13 21  1  0
 21 22  2  0
 22 23  1  0
 23 24  2  0
 24 25  1  0
 25 26  2  0
 10  5  1  0
 20 11  1  0
 26 21  1  0
 20 15  1  0
M  END
