CVD-0001216|dock_bobby27042020.53|mol2|24|dock3
     RDKit          3D

 20 22  0  0  0  0  0  0  0  0999 V2000
    4.8885    1.0672   21.2021 C   0  0  0  0  0  0  0  0  0  0  0  0
    5.2998    0.6658   19.8088 C   0  0  0  0  0  0  0  0  0  0  0  0
    5.0570    1.5522   18.7640 C   0  0  0  0  0  0  0  0  0  0  0  0
    5.4241    1.2141   17.4809 C   0  0  0  0  0  0  0  0  0  0  0  0
    6.0126    0.0616   17.1741 N   0  0  0  0  0  0  0  0  0  0  0  0
    6.2529   -0.7974   18.1696 C   0  0  0  0  0  0  0  0  0  0  0  0
    5.9236   -0.5598   19.5043 C   0  0  0  0  0  0  0  0  0  0  0  0
    6.1779   -1.4728   20.5659 N   0  0  0  0  0  0  0  0  0  0  0  0
    6.1850   -2.8286   20.5749 C   0  0  0  0  0  0  0  0  0  0  0  0
    5.9608   -3.5590   19.6157 O   0  0  0  0  0  0  0  0  0  0  0  0
    6.4919   -3.4265   21.9317 C   0  0  0  0  0  0  0  0  0  0  0  0
    7.9332   -3.2032   22.2913 C   0  0  0  0  0  0  0  0  0  0  0  0
    8.5751   -3.6806   23.3074 N   0  0  0  0  0  0  0  0  0  0  0  0
    9.8541   -3.1813   23.1643 C   0  0  0  0  0  0  0  0  0  0  0  0
   10.9117   -3.3823   23.9693 N   0  0  0  0  0  0  0  0  0  0  0  0
   12.0487   -2.7733   23.5931 C   0  0  0  0  0  0  0  0  0  0  0  0
   12.1835   -1.9833   22.4682 C   0  0  0  0  0  0  0  0  0  0  0  0
   11.0805   -1.7899   21.6532 C   0  0  0  0  0  0  0  0  0  0  0  0
    9.9037   -2.4127   22.0314 C   0  0  0  0  0  0  0  0  0  0  0  0
    8.6576   -2.4136   21.4408 O   0  0  0  0  0  0  0  0  0  0  0  0
  1  2  1  0
  2  3  2  0
  3  4  1  0
  4  5  2  0
  5  6  1  0
  6  7  2  0
  7  8  1  0
  8  9  1  0
  9 10  2  0
  9 11  1  0
 11 12  1  0
 12 13  2  0
 13 14  1  0
 14 15  2  0
 15 16  1  0
 16 17  2  0
 17 18  1  0
 18 19  2  0
 19 20  1  0
  7  2  1  0
 20 12  1  0
 19 14  1  0
M  END
