CVD-0000781|dock_bobby27042020.83|mol2|21|dock3
     RDKit          3D

 30 33  0  0  0  0  0  0  0  0999 V2000
    6.7477   -7.3116   29.1604 C   0  0  0  0  0  0  0  0  0  0  0  0
    7.3425   -6.2366   28.2990 C   0  0  0  0  0  0  0  0  0  0  0  0
    7.1103   -5.0473   28.4918 O   0  0  0  0  0  0  0  0  0  0  0  0
    8.1256   -6.6500   27.3007 N   0  0  0  0  0  0  0  0  0  0  0  0
    8.7612   -5.7296   26.3688 C   0  0  0  0  0  0  0  0  0  0  0  0
    7.7753   -5.1777   25.3584 C   0  0  0  0  0  0  0  0  0  0  0  0
    8.3821   -4.1515   24.4470 C   0  0  0  0  0  0  0  0  0  0  0  0
    8.6611   -4.2850   23.1182 C   0  0  0  0  0  0  0  0  0  0  0  0
    9.2111   -3.1324   22.6263 N   0  0  0  0  0  0  0  0  0  0  0  0
    9.2974   -2.2195   23.6484 C   0  0  0  0  0  0  0  0  0  0  0  0
    9.7868   -0.9035   23.6456 C   0  0  0  0  0  0  0  0  0  0  0  0
    9.7527   -0.1994   24.8477 C   0  0  0  0  0  0  0  0  0  0  0  0
    9.2500   -0.7916   25.9907 C   0  0  0  0  0  0  0  0  0  0  0  0
    9.2238    0.1218   27.4731 Cl  0  0  0  0  0  0  0  0  0  0  0  0
    8.7679   -2.0856   25.9931 C   0  0  0  0  0  0  0  0  0  0  0  0
    8.7856   -2.8234   24.8114 C   0  0  0  0  0  0  0  0  0  0  0  0
   10.3369   -0.2821   22.3686 C   0  0  0  0  0  0  0  0  0  0  0  0
   11.6941   -0.8266   22.0769 C   0  0  0  0  0  0  0  0  0  0  0  0
   12.6729   -0.3750   23.0966 N   0  0  0  0  0  0  0  0  0  0  0  0
   12.6613    1.0522   23.4690 C   0  0  0  0  0  0  0  0  0  0  0  0
   11.4999    1.8732   22.9035 C   0  0  0  0  0  0  0  0  0  0  0  0
   11.5477    3.2627   22.9461 C   0  0  0  0  0  0  0  0  0  0  0  0
   10.4823    4.0233   22.5004 C   0  0  0  0  0  0  0  0  0  0  0  0
    9.3590    3.3954   22.0077 C   0  0  0  0  0  0  0  0  0  0  0  0
    9.3112    2.0137   21.9652 C   0  0  0  0  0  0  0  0  0  0  0  0
   10.3740    1.2244   22.4093 C   0  0  0  0  0  0  0  0  0  0  0  0
   13.5373   -1.1830   23.7497 C   0  0  0  0  0  0  0  0  0  0  0  0
   14.3173   -0.7495   24.5884 O   0  0  0  0  0  0  0  0  0  0  0  0
   13.5053   -2.6610   23.4113 C   0  0  0  0  0  0  0  0  0  0  0  0
   13.8924   -2.9326   21.7073 Cl  0  0  0  0  0  0  0  0  0  0  0  0
  1  2  1  0
  2  3  2  0
  2  4  1  0
  4  5  1  0
  5  6  1  0
  6  7  1  0
  7  8  2  0
  8  9  1  0
  9 10  1  0
 10 11  2  0
 11 12  1  0
 12 13  2  0
 13 14  1  0
 13 15  1  0
 15 16  2  0
 17 11  1  0
 17 18  1  0
 18 19  1  0
 19 20  1  0
 20 21  1  0
 21 22  2  0
 22 23  1  0
 23 24  2  0
 24 25  1  0
 25 26  2  0
 19 27  1  0
 27 28  2  0
 27 29  1  0
 29 30  1  0
 16  7  1  0
 26 17  1  0
 16 10  1  0
 26 21  1  0
M  END
