CVD-0000188|dock_bobby27042020.57|mol2|3|dock1
     RDKit          3D

 24 26  0  0  0  0  0  0  0  0999 V2000
   10.2557    5.7486   25.4460 C   0  0  0  0  0  0  0  0  0  0  0  0
   10.8326    4.6810   24.6967 O   0  0  0  0  0  0  0  0  0  0  0  0
   11.8162    4.9427   23.7816 C   0  0  0  0  0  0  0  0  0  0  0  0
   12.7093    6.0016   23.9184 C   0  0  0  0  0  0  0  0  0  0  0  0
   13.6816    6.2152   22.9607 C   0  0  0  0  0  0  0  0  0  0  0  0
   13.7688    5.3822   21.8705 C   0  0  0  0  0  0  0  0  0  0  0  0
   12.8916    4.3228   21.7133 C   0  0  0  0  0  0  0  0  0  0  0  0
   11.8984    4.0842   22.6677 C   0  0  0  0  0  0  0  0  0  0  0  0
   11.0253    2.9638   22.4337 N   0  0  0  0  0  0  0  0  0  0  0  0
   10.0190    2.4135   23.1571 C   0  0  0  0  0  0  0  0  0  0  0  0
    9.5548    1.3634   22.4226 C   0  0  0  0  0  0  0  0  0  0  0  0
    8.4541    0.3953   22.7279 C   0  0  0  0  0  0  0  0  0  0  0  0
    8.8317   -1.0041   22.5148 N   0  0  0  0  0  0  0  0  0  0  0  0
    7.6665   -1.8792   22.6731 C   0  0  0  0  0  0  0  0  0  0  0  0
    8.0544   -3.3226   22.4110 C   0  0  0  0  0  0  0  0  0  0  0  0
    9.1258   -3.7375   23.3192 N   0  0  0  0  0  0  0  0  0  0  0  0
   10.2851   -2.8445   23.2281 C   0  0  0  0  0  0  0  0  0  0  0  0
    9.8628   -1.4064   23.4678 C   0  0  0  0  0  0  0  0  0  0  0  0
    9.0354   -4.8292   24.1072 C   0  0  0  0  0  0  0  0  0  0  0  0
    8.0422   -5.5454   24.0989 O   0  0  0  0  0  0  0  0  0  0  0  0
   10.2142   -5.1308   25.0128 C   0  0  0  0  0  0  0  0  0  0  0  0
    9.9746   -6.6146   25.9449 Cl  0  0  0  0  0  0  0  0  0  0  0  0
   10.2809    1.2944   21.2795 N   0  0  0  0  0  0  0  0  0  0  0  0
   11.1695    2.2608   21.2825 N   0  0  0  0  0  0  0  0  0  0  0  0
  1  2  1  0
  2  3  1  0
  3  4  2  0
  4  5  1  0
  5  6  2  0
  6  7  1  0
  7  8  2  0
  8  9  1  0
  9 10  1  0
 10 11  2  0
 11 12  1  0
 12 13  1  0
 13 14  1  0
 14 15  1  0
 15 16  1  0
 16 17  1  0
 17 18  1  0
 16 19  1  0
 19 20  2  0
 19 21  1  0
 21 22  1  0
 11 23  1  0
 23 24  2  0
  8  3  1  0
 24  9  1  0
 18 13  1  0
M  END
