CVD-0001163|dock_bobby27042020.10|mol2|32|dock1
     RDKit          3D

 28 30  0  0  0  0  0  0  0  0999 V2000
    5.3737   -6.1266   24.1919 O   0  0  0  0  0  0  0  0  0  0  0  0
    6.3031   -5.0715   23.9409 C   0  0  0  0  0  0  0  0  0  0  0  0
    5.6651   -3.9422   23.1331 C   0  0  0  0  0  0  0  0  0  0  0  0
    6.8714   -3.0932   22.7311 C   0  0  0  0  0  0  0  0  0  0  0  0
    7.9806   -4.1272   22.4299 C   0  0  0  0  0  0  0  0  0  0  0  0
    9.3248   -3.6835   22.7590 N   0  0  0  0  0  0  0  0  0  0  0  0
    9.9331   -2.7115   22.0640 C   0  0  0  0  0  0  0  0  0  0  0  0
    9.3675   -2.1609   21.1241 O   0  0  0  0  0  0  0  0  0  0  0  0
   11.3251   -2.2859   22.4349 C   0  0  0  0  0  0  0  0  0  0  0  0
   12.1720   -1.8397   21.4255 C   0  0  0  0  0  0  0  0  0  0  0  0
   13.4659   -1.4350   21.7079 C   0  0  0  0  0  0  0  0  0  0  0  0
   13.9370   -1.4694   23.0085 C   0  0  0  0  0  0  0  0  0  0  0  0
   13.1043   -1.9122   24.0298 C   0  0  0  0  0  0  0  0  0  0  0  0
   11.8028   -2.3186   23.7436 C   0  0  0  0  0  0  0  0  0  0  0  0
   13.5832   -1.9528   25.3895 C   0  0  0  0  0  0  0  0  0  0  0  0
   13.9937   -1.9831   26.4550 N   0  0  0  0  0  0  0  0  0  0  0  0
    7.5708   -5.4438   23.1350 C   0  0  0  0  0  0  0  0  0  0  0  0
    7.3392   -6.4835   22.1895 O   0  0  0  0  0  0  0  0  0  0  0  0
    6.6162   -2.1214   21.5965 C   0  0  0  0  0  0  0  0  0  0  0  0
    6.2352   -2.5749   20.3414 C   0  0  0  0  0  0  0  0  0  0  0  0
    5.9991   -1.6895   19.3046 C   0  0  0  0  0  0  0  0  0  0  0  0
    6.1380   -0.3206   19.4951 C   0  0  0  0  0  0  0  0  0  0  0  0
    6.5166    0.1359   20.7512 C   0  0  0  0  0  0  0  0  0  0  0  0
    6.7518   -0.7531   21.7850 C   0  0  0  0  0  0  0  0  0  0  0  0
    5.8803    0.6383   18.3773 C   0  0  0  0  0  0  0  0  0  0  0  0
    5.1345    0.1143   17.4111 F   0  0  0  0  0  0  0  0  0  0  0  0
    5.2441    1.7342   18.7755 F   0  0  0  0  0  0  0  0  0  0  0  0
    6.9960    1.0568   17.7907 F   0  0  0  0  0  0  0  0  0  0  0  0
  2  1  1  0
  2  3  1  0
  3  4  1  0
  4  5  1  0
  5  6  1  0
  6  7  1  0
  7  8  2  0
  7  9  1  0
  9 10  2  0
 10 11  1  0
 11 12  2  0
 12 13  1  0
 13 14  2  0
 13 15  1  0
 15 16  3  0
  5 17  1  0
 17 18  1  0
  4 19  1  0
 19 20  2  0
 20 21  1  0
 21 22  2  0
 22 23  1  0
 23 24  2  0
 22 25  1  0
 25 26  1  0
 25 27  1  0
 25 28  1  0
 17  2  1  0
 24 19  1  0
 14  9  1  0
M  END
