CVD-0003343|dock_bobby27042020.2|mol2|22|dock2
     RDKit          3D

 24 26  0  0  0  0  0  0  0  0999 V2000
    7.2693    2.8046   21.9513 Cl  0  0  0  0  0  0  0  0  0  0  0  0
    8.4449    1.8521   22.8666 C   0  0  0  0  0  0  0  0  0  0  0  0
    8.9687    0.6896   22.0463 C   0  0  0  0  0  0  0  0  0  0  0  0
    8.6489    0.5398   20.8738 O   0  0  0  0  0  0  0  0  0  0  0  0
    9.8054   -0.1646   22.6704 N   0  0  0  0  0  0  0  0  0  0  0  0
   10.3712   -1.3221   21.9786 C   0  0  0  0  0  0  0  0  0  0  0  0
   11.8564   -1.1874   21.8586 C   0  0  0  0  0  0  0  0  0  0  0  0
   12.4187   -0.9882   23.1890 N   0  0  0  0  0  0  0  0  0  0  0  0
   11.8633    0.1527   23.9502 C   0  0  0  0  0  0  0  0  0  0  0  0
   10.3510   -0.0035   24.0057 C   0  0  0  0  0  0  0  0  0  0  0  0
   12.3054    1.4611   23.3657 C   0  0  0  0  0  0  0  0  0  0  0  0
   11.5194    2.5167   23.2667 N   0  0  0  0  0  0  0  0  0  0  0  0
   12.3287    3.4785   22.6764 C   0  0  0  0  0  0  0  0  0  0  0  0
   13.5859    2.9553   22.4396 C   0  0  0  0  0  0  0  0  0  0  0  0
   13.5589    1.6632   22.8842 N   0  0  0  0  0  0  0  0  0  0  0  0
   14.6133    3.6135   21.8798 N   0  0  0  0  0  0  0  0  0  0  0  0
   14.3041    4.8702   21.5577 C   0  0  0  0  0  0  0  0  0  0  0  0
   13.1380    5.4989   21.7290 N   0  0  0  0  0  0  0  0  0  0  0  0
   12.1294    4.8054   22.2945 C   0  0  0  0  0  0  0  0  0  0  0  0
   10.8570    5.4507   22.4951 C   0  0  0  0  0  0  0  0  0  0  0  0
    9.8305    6.0121   22.6296 C   0  0  0  0  0  0  0  0  0  0  0  0
   13.9700   -1.4111   23.4620 S   0  0  0  0  0  0  0  0  0  0  0  0
   14.3559   -1.1399   24.8356 O   0  0  0  0  0  0  0  0  0  0  0  0
   14.2217   -2.7826   23.0563 O   0  0  0  0  0  0  0  0  0  0  0  0
  1  2  1  0
  2  3  1  0
  3  4  2  0
  3  5  1  0
  5  6  1  0
  6  7  1  0
  7  8  1  0
  8  9  1  0
  9 10  1  0
  9 11  1  0
 11 12  2  0
 12 13  1  0
 13 14  2  0
 14 15  1  0
 14 16  1  0
 16 17  2  0
 17 18  1  0
 18 19  2  0
 19 20  1  0
 20 21  3  0
  8 22  1  0
 22 23  2  0
 22 24  2  0
 10  5  1  0
 15 11  1  0
 19 13  1  0
M  END
