CVD-0000504|dock_bobby27042020.41|mol2|18|dock1
     RDKit          3D

 36 38  0  0  0  0  0  0  0  0999 V2000
   14.2770    5.8934   21.9673 C   0  0  0  0  0  0  0  0  0  0  0  0
   13.3006    5.0012   22.5805 N   0  0  0  0  0  0  0  0  0  0  0  0
   12.2554    5.3425   23.3491 C   0  0  0  0  0  0  0  0  0  0  0  0
   11.6580    4.1825   23.7085 C   0  0  0  0  0  0  0  0  0  0  0  0
   10.2533    4.0136   24.6962 Cl  0  0  0  0  0  0  0  0  0  0  0  0
   12.4231    3.1631   23.1126 C   0  0  0  0  0  0  0  0  0  0  0  0
   12.1404    1.8126   23.2405 N   0  0  0  0  0  0  0  0  0  0  0  0
   11.0503    1.1246   22.7027 C   0  0  0  0  0  0  0  0  0  0  0  0
   10.1942    1.6913   22.0281 O   0  0  0  0  0  0  0  0  0  0  0  0
   10.9978   -0.1985   22.9709 N   0  0  0  0  0  0  0  0  0  0  0  0
    9.8633   -0.9983   22.5388 C   0  0  0  0  0  0  0  0  0  0  0  0
   10.0018   -1.3567   21.0514 C   0  0  0  0  0  0  0  0  0  0  0  0
    8.6746   -1.5276   20.3530 C   0  0  0  0  0  0  0  0  0  0  0  0
    8.0411   -0.4480   19.7578 C   0  0  0  0  0  0  0  0  0  0  0  0
    6.8261   -0.5980   19.1132 C   0  0  0  0  0  0  0  0  0  0  0  0
    6.2249   -1.8450   19.0557 C   0  0  0  0  0  0  0  0  0  0  0  0
    5.0266   -2.0000   18.4220 O   0  0  0  0  0  0  0  0  0  0  0  0
    6.8471   -2.9337   19.6450 C   0  0  0  0  0  0  0  0  0  0  0  0
    8.0620   -2.7692   20.2863 C   0  0  0  0  0  0  0  0  0  0  0  0
    9.7536   -2.2751   23.3673 C   0  0  0  0  0  0  0  0  0  0  0  0
   10.7285   -2.7061   23.9774 O   0  0  0  0  0  0  0  0  0  0  0  0
    8.5608   -2.8768   23.3849 N   0  0  0  0  0  0  0  0  0  0  0  0
    8.2974   -4.1056   24.1295 C   0  0  0  0  0  0  0  0  0  0  0  0
    7.9545   -3.7597   25.5820 C   0  0  0  0  0  0  0  0  0  0  0  0
    9.0994   -3.7620   26.4985 N   0  0  0  0  0  0  0  0  0  0  0  0
    9.7653   -5.3347   26.6093 S   0  0  0  0  0  0  0  0  0  0  0  0
   10.8991   -5.4707   25.5908 N   0  0  0  0  0  0  0  0  0  0  0  0
   10.3477   -5.4946   27.9588 O   0  0  0  0  0  0  0  0  0  0  0  0
    8.7121   -6.3066   26.2462 O   0  0  0  0  0  0  0  0  0  0  0  0
    7.1801   -4.9065   23.4907 C   0  0  0  0  0  0  0  0  0  0  0  0
    5.8988   -4.3823   23.3909 C   0  0  0  0  0  0  0  0  0  0  0  0
    4.8777   -5.1157   22.8101 C   0  0  0  0  0  0  0  0  0  0  0  0
    5.1246   -6.3815   22.3233 C   0  0  0  0  0  0  0  0  0  0  0  0
    6.3921   -6.9151   22.4172 C   0  0  0  0  0  0  0  0  0  0  0  0
    7.4141   -6.1826   22.9977 C   0  0  0  0  0  0  0  0  0  0  0  0
   13.4409    3.6564   22.4209 N   0  0  0  0  0  0  0  0  0  0  0  0
  1  2  1  0
  2  3  1  0
  3  4  2  0
  4  5  1  0
  4  6  1  0
  6  7  1  0
  7  8  1  0
  8  9  2  0
  8 10  1  0
 10 11  1  0
 11 12  1  0
 12 13  1  0
 13 14  2  0
 14 15  1  0
 15 16  2  0
 16 17  1  0
 16 18  1  0
 18 19  2  0
 11 20  1  0
 20 21  2  0
 20 22  1  0
 22 23  1  0
 23 24  1  0
 24 25  1  0
 25 26  1  0
 26 27  1  0
 26 28  2  0
 26 29  2  0
 23 30  1  0
 30 31  2  0
 31 32  1  0
 32 33  2  0
 33 34  1  0
 34 35  2  0
  6 36  2  0
 36  2  1  0
 19 13  1  0
 35 30  1  0
M  END
