CVD-0003310|dock_bobby27042020.74|mol2|18|dock3
     RDKit          3D

 18 20  0  0  0  0  0  0  0  0999 V2000
    9.9586   -1.6173   24.8869 N   0  0  0  0  0  0  0  0  0  0  0  0
   10.0171   -2.0809   23.6484 C   0  0  0  0  0  0  0  0  0  0  0  0
    9.9932   -3.2853   23.3858 O   0  0  0  0  0  0  0  0  0  0  0  0
   10.1201   -1.0433   22.5491 C   0  0  0  0  0  0  0  0  0  0  0  0
    9.0387    0.0838   22.5162 C   0  0  0  0  0  0  0  0  0  0  0  0
    9.7782    1.4146   22.4147 C   0  0  0  0  0  0  0  0  0  0  0  0
   11.1428    1.1663   23.0567 C   0  0  0  0  0  0  0  0  0  0  0  0
   11.4705   -0.2491   22.5638 C   0  0  0  0  0  0  0  0  0  0  0  0
   12.5885   -0.9344   23.3142 C   0  0  0  0  0  0  0  0  0  0  0  0
   13.1847   -2.1568   22.8889 C   0  0  0  0  0  0  0  0  0  0  0  0
   14.1802   -2.6026   23.7055 C   0  0  0  0  0  0  0  0  0  0  0  0
   14.3931   -1.5255   25.0019 S   0  0  0  0  0  0  0  0  0  0  0  0
   13.1650   -0.4806   24.4634 C   0  0  0  0  0  0  0  0  0  0  0  0
   12.1534    2.2425   22.7704 C   0  0  0  0  0  0  0  0  0  0  0  0
   13.4320    2.0662   22.7843 N   0  0  0  0  0  0  0  0  0  0  0  0
   14.1368    3.2253   22.4905 N   0  0  0  0  0  0  0  0  0  0  0  0
   13.3529    4.2229   22.2716 C   0  0  0  0  0  0  0  0  0  0  0  0
   11.6773    3.8648   22.3981 S   0  0  0  0  0  0  0  0  0  0  0  0
  1  2  1  0
  2  3  2  0
  2  4  1  0
  4  5  1  0
  5  6  1  0
  6  7  1  0
  7  8  1  0
  8  9  1  0
  9 10  1  0
 10 11  2  0
 11 12  1  0
 12 13  1  0
  7 14  1  0
 14 15  2  0
 15 16  1  0
 16 17  2  0
 17 18  1  0
  8  4  1  0
 13  9  2  0
 18 14  1  0
M  END
