CVD-0002343|dock_bobby27042020.34|mol2|36|dock1
     RDKit          3D

 15 16  0  0  0  0  0  0  0  0999 V2000
   13.7096    4.0805   22.4893 N   0  0  0  0  0  0  0  0  0  0  0  0
   12.3899    3.8289   22.5939 C   0  0  0  0  0  0  0  0  0  0  0  0
   11.3078    4.6523   22.5093 C   0  0  0  0  0  0  0  0  0  0  0  0
   10.2118    3.8715   22.6945 N   0  0  0  0  0  0  0  0  0  0  0  0
   10.5503    2.5764   22.8963 C   0  0  0  0  0  0  0  0  0  0  0  0
    9.8268    1.6088   23.0988 O   0  0  0  0  0  0  0  0  0  0  0  0
   11.9394    2.5602   22.8249 N   0  0  0  0  0  0  0  0  0  0  0  0
   12.7074    1.3301   23.0042 C   0  0  0  0  0  0  0  0  0  0  0  0
   11.9714    0.1879   23.5011 N   0  0  0  0  0  0  0  0  0  0  0  0
   12.6899   -0.6112   24.5169 C   0  0  0  0  0  0  0  0  0  0  0  0
   13.9916   -1.2089   24.0039 C   0  0  0  0  0  0  0  0  0  0  0  0
   13.8707   -2.6200   23.3997 C   0  0  0  0  0  0  0  0  0  0  0  0
   12.6375   -2.7614   22.6868 O   0  0  0  0  0  0  0  0  0  0  0  0
   12.2701   -1.6724   21.8464 C   0  0  0  0  0  0  0  0  0  0  0  0
   11.3307   -0.7026   22.5217 C   0  0  0  0  0  0  0  0  0  0  0  0
  1  2  1  0
  2  3  2  0
  3  4  1  0
  4  5  1  0
  5  6  2  0
  5  7  1  0
  7  8  1  0
  8  9  1  0
  9 10  1  0
 10 11  1  0
 11 12  1  0
 12 13  1  0
 13 14  1  0
 14 15  1  0
  7  2  1  0
 15  9  1  0
M  END
