CVD-0001158|dock_bobby27042020.82|mol2|2|dock2
     RDKit          3D

 28 30  0  0  0  0  0  0  0  0999 V2000
    7.6483   -0.4612   18.1175 O   0  0  0  0  0  0  0  0  0  0  0  0
    6.4574   -0.9785   17.9555 C   0  0  0  0  0  0  0  0  0  0  0  0
    6.1976   -1.8476   17.1537 O   0  0  0  0  0  0  0  0  0  0  0  0
    5.4228   -0.3683   18.8880 C   0  0  0  0  0  0  0  0  0  0  0  0
    5.1089    1.1368   18.6905 C   0  0  0  0  0  0  0  0  0  0  0  0
    5.2434    1.8352   20.0242 C   0  0  0  0  0  0  0  0  0  0  0  0
    5.7641    0.8152   21.0271 C   0  0  0  0  0  0  0  0  0  0  0  0
    5.8351   -0.4583   20.2954 N   0  0  0  0  0  0  0  0  0  0  0  0
    6.2600   -1.6383   20.7981 C   0  0  0  0  0  0  0  0  0  0  0  0
    6.2587   -2.6423   20.0971 O   0  0  0  0  0  0  0  0  0  0  0  0
    6.7268   -1.6970   22.2343 C   0  0  0  0  0  0  0  0  0  0  0  0
    7.5008   -2.9727   22.5976 C   0  0  0  0  0  0  0  0  0  0  0  0
    8.4033   -2.7158   23.8118 C   0  0  0  0  0  0  0  0  0  0  0  0
    9.4384   -1.7264   23.5391 N   0  0  0  0  0  0  0  0  0  0  0  0
   10.5222   -1.9987   22.8124 C   0  0  0  0  0  0  0  0  0  0  0  0
   10.7129   -3.0866   22.2754 O   0  0  0  0  0  0  0  0  0  0  0  0
   11.5455   -0.8760   22.6688 C   0  0  0  0  0  0  0  0  0  0  0  0
   12.9570   -1.4271   22.2956 C   0  0  0  0  0  0  0  0  0  0  0  0
   14.0447   -0.0074   22.6136 S   0  0  0  0  0  0  0  0  0  0  0  0
   12.9546    0.7266   23.8962 C   0  0  0  0  0  0  0  0  0  0  0  0
   11.7217   -0.0952   23.9101 N   0  0  0  0  0  0  0  0  0  0  0  0
    6.5737   -4.1461   22.8550 C   0  0  0  0  0  0  0  0  0  0  0  0
    6.4793   -5.1757   21.9288 C   0  0  0  0  0  0  0  0  0  0  0  0
    5.6453   -6.2592   22.1394 C   0  0  0  0  0  0  0  0  0  0  0  0
    4.8966   -6.3128   23.2939 C   0  0  0  0  0  0  0  0  0  0  0  0
    3.8427   -7.6714   23.5691 Cl  0  0  0  0  0  0  0  0  0  0  0  0
    4.9677   -5.3094   24.2346 C   0  0  0  0  0  0  0  0  0  0  0  0
    5.8067   -4.2322   24.0097 C   0  0  0  0  0  0  0  0  0  0  0  0
  1  2  1  0
  2  3  2  0
  4  2  1  0
  4  5  1  0
  5  6  1  0
  6  7  1  0
  7  8  1  0
  8  9  1  0
  9 10  2  0
  9 11  1  0
 12 11  1  0
 12 13  1  0
 13 14  1  0
 14 15  1  0
 15 16  2  0
 17 15  1  0
 17 18  1  0
 18 19  1  0
 19 20  1  0
 20 21  1  0
 12 22  1  0
 22 23  2  0
 23 24  1  0
 24 25  2  0
 25 26  1  0
 25 27  1  0
 27 28  2  0
  8  4  1  0
 21 17  1  0
 28 22  1  0
M  END
