CVD-0002499|dock_bobby27042020.20|mol2|1|dock2
     RDKit          3D

 31 33  0  0  0  0  0  0  0  0999 V2000
   14.1453   -1.5116   25.1892 C   0  0  0  0  0  0  0  0  0  0  0  0
   13.1699   -1.8720   24.2202 O   0  0  0  0  0  0  0  0  0  0  0  0
   12.1708   -0.8732   24.0072 C   0  0  0  0  0  0  0  0  0  0  0  0
   12.6754    0.3505   23.2564 C   0  0  0  0  0  0  0  0  0  0  0  0
   11.4374    0.9534   22.7658 N   0  0  0  0  0  0  0  0  0  0  0  0
   10.3539   -0.0253   22.6167 C   0  0  0  0  0  0  0  0  0  0  0  0
   10.9687   -1.3349   23.1599 C   0  0  0  0  0  0  0  0  0  0  0  0
    9.9802   -2.1796   23.9613 C   0  0  0  0  0  0  0  0  0  0  0  0
    8.6827   -2.4100   23.3113 N   0  0  0  0  0  0  0  0  0  0  0  0
    8.7323   -3.6173   22.4814 C   0  0  0  0  0  0  0  0  0  0  0  0
    7.4030   -3.8276   21.7803 C   0  0  0  0  0  0  0  0  0  0  0  0
    6.3189   -3.9309   22.7595 N   0  0  0  0  0  0  0  0  0  0  0  0
    6.2803   -2.7634   23.6456 C   0  0  0  0  0  0  0  0  0  0  0  0
    7.6293   -2.5622   24.3116 C   0  0  0  0  0  0  0  0  0  0  0  0
    5.4584   -4.9760   22.7948 C   0  0  0  0  0  0  0  0  0  0  0  0
    4.5636   -5.0388   23.6287 O   0  0  0  0  0  0  0  0  0  0  0  0
    5.6266   -6.0877   21.7767 C   0  0  0  0  0  0  0  0  0  0  0  0
    7.0916   -7.0269   22.0912 Cl  0  0  0  0  0  0  0  0  0  0  0  0
   11.3485    2.2748   22.5141 C   0  0  0  0  0  0  0  0  0  0  0  0
   10.3071    2.7828   22.1176 O   0  0  0  0  0  0  0  0  0  0  0  0
   12.5870    3.1101   22.7429 C   0  0  0  0  0  0  0  0  0  0  0  0
   12.5676    4.3858   21.9239 C   0  0  0  0  0  0  0  0  0  0  0  0
   11.3777    5.1782   22.1876 N   0  0  0  0  0  0  0  0  0  0  0  0
   11.2359    5.9882   23.2717 C   0  0  0  0  0  0  0  0  0  0  0  0
   10.0017    6.5609   23.5740 C   0  0  0  0  0  0  0  0  0  0  0  0
    9.9088    7.3772   24.6865 C   0  0  0  0  0  0  0  0  0  0  0  0
   11.0348    7.6059   25.4693 C   0  0  0  0  0  0  0  0  0  0  0  0
   12.2216    6.9890   25.0852 C   0  0  0  0  0  0  0  0  0  0  0  0
   12.3289    6.1969   24.0124 N   0  0  0  0  0  0  0  0  0  0  0  0
   10.9751    8.4511   26.6362 C   0  0  0  0  0  0  0  0  0  0  0  0
   10.9474    9.1426   27.5451 N   0  0  0  0  0  0  0  0  0  0  0  0
  1  2  1  0
  2  3  1  0
  3  4  1  0
  4  5  1  0
  5  6  1  0
  6  7  1  0
  7  8  1  0
  8  9  1  0
  9 10  1  0
 10 11  1  0
 11 12  1  0
 12 13  1  0
 13 14  1  0
 12 15  1  0
 15 16  2  0
 15 17  1  0
 17 18  1  0
  5 19  1  0
 19 20  2  0
 19 21  1  0
 21 22  1  0
 22 23  1  0
 23 24  1  0
 24 25  2  0
 25 26  1  0
 26 27  2  0
 27 28  1  0
 28 29  2  0
 27 30  1  0
 30 31  3  0
  7  3  1  0
 14  9  1  0
 29 24  1  0
M  END
