CVD-0000989|dock_bobby27042020.82|mol2|29|dock1
     RDKit          3D

 37 41  0  0  0  0  0  0  0  0999 V2000
    7.9555  -13.4757   32.9855 C   0  0  0  0  0  0  0  0  0  0  0  0
    8.8412  -12.9348   32.0070 O   0  0  0  0  0  0  0  0  0  0  0  0
    8.5707  -11.7228   31.4220 C   0  0  0  0  0  0  0  0  0  0  0  0
    7.8737  -10.7280   32.0879 C   0  0  0  0  0  0  0  0  0  0  0  0
    7.6286   -9.5254   31.4511 C   0  0  0  0  0  0  0  0  0  0  0  0
    8.0609   -9.2714   30.1490 C   0  0  0  0  0  0  0  0  0  0  0  0
    7.7159   -7.9357   29.6177 C   0  0  0  0  0  0  0  0  0  0  0  0
    6.8903   -7.0993   30.1784 N   0  0  0  0  0  0  0  0  0  0  0  0
    6.8815   -5.9946   29.3337 C   0  0  0  0  0  0  0  0  0  0  0  0
    6.2025   -4.7799   29.3858 C   0  0  0  0  0  0  0  0  0  0  0  0
    6.3978   -3.8486   28.3767 C   0  0  0  0  0  0  0  0  0  0  0  0
    7.2627   -4.1071   27.3098 C   0  0  0  0  0  0  0  0  0  0  0  0
    7.4935   -3.1865   26.2570 N   0  0  0  0  0  0  0  0  0  0  0  0
    8.0300   -3.3520   25.0224 C   0  0  0  0  0  0  0  0  0  0  0  0
    8.4448   -4.4087   24.5557 O   0  0  0  0  0  0  0  0  0  0  0  0
    8.0840   -2.0718   24.2155 C   0  0  0  0  0  0  0  0  0  0  0  0
    8.3701   -2.3213   22.7367 C   0  0  0  0  0  0  0  0  0  0  0  0
    8.3515   -0.9998   21.9881 C   0  0  0  0  0  0  0  0  0  0  0  0
    9.3561   -0.0857   22.5218 N   0  0  0  0  0  0  0  0  0  0  0  0
    9.3990    1.1546   21.7349 C   0  0  0  0  0  0  0  0  0  0  0  0
   10.4772    2.1067   22.1936 C   0  0  0  0  0  0  0  0  0  0  0  0
   10.1983    3.4506   22.3916 C   0  0  0  0  0  0  0  0  0  0  0  0
   11.1804    4.3285   22.8148 C   0  0  0  0  0  0  0  0  0  0  0  0
   12.4638    3.8611   23.0463 C   0  0  0  0  0  0  0  0  0  0  0  0
   12.7592    2.5213   22.8547 C   0  0  0  0  0  0  0  0  0  0  0  0
   11.7667    1.6554   22.4313 C   0  0  0  0  0  0  0  0  0  0  0  0
   13.5121    4.7868   23.4955 N   0  0  0  0  0  0  0  0  0  0  0  0
   14.6775    4.3971   23.4636 O   0  0  0  0  0  0  0  0  0  0  0  0
   13.1715    5.8939   23.8765 O   0  0  0  0  0  0  0  0  0  0  0  0
    9.0358    0.2001   23.9246 C   0  0  0  0  0  0  0  0  0  0  0  0
    9.0813   -1.0644   24.7681 C   0  0  0  0  0  0  0  0  0  0  0  0
    7.9390   -5.3238   27.2631 C   0  0  0  0  0  0  0  0  0  0  0  0
    7.7263   -6.2326   28.2804 C   0  0  0  0  0  0  0  0  0  0  0  0
    8.2775   -7.4865   28.4460 O   0  0  0  0  0  0  0  0  0  0  0  0
    8.7616  -10.2931   29.5021 C   0  0  0  0  0  0  0  0  0  0  0  0
    9.4352  -10.1527   27.7340 Br  0  0  0  0  0  0  0  0  0  0  0  0
    9.0126  -11.5005   30.1291 C   0  0  0  0  0  0  0  0  0  0  0  0
  1  2  1  0
  2  3  1  0
  3  4  2  0
  4  5  1  0
  5  6  2  0
  6  7  1  0
  7  8  2  0
  8  9  1  0
  9 10  2  0
 10 11  1  0
 11 12  2  0
 12 13  1  0
 13 14  1  0
 14 15  2  0
 14 16  1  0
 16 17  1  0
 17 18  1  0
 18 19  1  0
 19 20  1  0
 20 21  1  0
 21 22  2  0
 22 23  1  0
 23 24  2  0
 24 25  1  0
 25 26  2  0
 24 27  1  0
 27 28  1  0
 27 29  2  0
 19 30  1  0
 30 31  1  0
 12 32  1  0
 32 33  2  0
 33 34  1  0
  6 35  1  0
 35 36  1  0
 35 37  2  0
 37  3  1  0
 34  7  1  0
 33  9  1  0
 31 16  1  0
 26 21  1  0
M  CHG  2  27   1  28  -1
M  END
