CVD-0003842|dock_bobby27042020.29|mol2|32|dock1
     RDKit          3D

 32 36  0  0  0  0  0  0  0  0999 V2000
    2.9763   -7.9942   22.5304 N   0  0  0  0  0  0  0  0  0  0  0  0
    3.5925   -7.4691   23.9115 S   0  0  0  0  0  0  0  0  0  0  0  0
    4.6569   -8.3594   24.2659 O   0  0  0  0  0  0  0  0  0  0  0  0
    2.5019   -7.2973   24.8237 O   0  0  0  0  0  0  0  0  0  0  0  0
    4.3066   -5.8761   23.6364 C   0  0  0  0  0  0  0  0  0  0  0  0
    3.6074   -4.7367   23.9926 C   0  0  0  0  0  0  0  0  0  0  0  0
    4.1734   -3.4922   23.7803 C   0  0  0  0  0  0  0  0  0  0  0  0
    5.4349   -3.3639   23.2076 C   0  0  0  0  0  0  0  0  0  0  0  0
    6.1211   -4.5240   22.8615 C   0  0  0  0  0  0  0  0  0  0  0  0
    5.5663   -5.7735   23.0736 C   0  0  0  0  0  0  0  0  0  0  0  0
    5.9978   -2.1143   22.9871 N   0  0  0  0  0  0  0  0  0  0  0  0
    6.1132   -1.5450   21.6535 C   0  0  0  0  0  0  0  0  0  0  0  0
    7.4924   -0.9358   21.4609 C   0  0  0  0  0  0  0  0  0  0  0  0
    7.8612    0.0310   22.5420 C   0  0  0  0  0  0  0  0  0  0  0  0
    7.6924   -0.6246   23.9035 C   0  0  0  0  0  0  0  0  0  0  0  0
    6.2837   -1.1860   24.0743 C   0  0  0  0  0  0  0  0  0  0  0  0
    9.2433    0.5495   22.3760 N   0  0  0  0  0  0  0  0  0  0  0  0
   10.2462   -0.3630   22.9412 C   0  0  0  0  0  0  0  0  0  0  0  0
   11.6508    0.0546   22.5170 C   0  0  0  0  0  0  0  0  0  0  0  0
   12.6696   -0.7543   23.3093 C   0  0  0  0  0  0  0  0  0  0  0  0
   13.1198   -0.3127   24.5456 C   0  0  0  0  0  0  0  0  0  0  0  0
   14.0437   -1.0502   25.2671 C   0  0  0  0  0  0  0  0  0  0  0  0
   14.5280   -2.2378   24.7620 C   0  0  0  0  0  0  0  0  0  0  0  0
   14.0887   -2.6892   23.5360 C   0  0  0  0  0  0  0  0  0  0  0  0
   13.1648   -1.9525   22.8137 C   0  0  0  0  0  0  0  0  0  0  0  0
   11.8593    1.5512   22.6370 C   0  0  0  0  0  0  0  0  0  0  0  0
   13.1367    2.0990   22.5215 C   0  0  0  0  0  0  0  0  0  0  0  0
   13.3460    3.4616   22.6528 C   0  0  0  0  0  0  0  0  0  0  0  0
   12.2781    4.2950   22.9018 C   0  0  0  0  0  0  0  0  0  0  0  0
   11.0065    3.7628   23.0184 C   0  0  0  0  0  0  0  0  0  0  0  0
   10.7777    2.3953   22.8892 C   0  0  0  0  0  0  0  0  0  0  0  0
    9.3790    1.8493   23.0491 C   0  0  0  0  0  0  0  0  0  0  0  0
  1  2  1  0
  2  3  2  0
  2  4  2  0
  2  5  1  0
  5  6  2  0
  6  7  1  0
  7  8  2  0
  8  9  1  0
  9 10  2  0
  8 11  1  0
 11 12  1  0
 12 13  1  0
 13 14  1  0
 14 15  1  0
 15 16  1  0
 14 17  1  0
 17 18  1  0
 18 19  1  0
 19 20  1  0
 20 21  2  0
 21 22  1  0
 22 23  2  0
 23 24  1  0
 24 25  2  0
 19 26  1  0
 26 27  2  0
 27 28  1  0
 28 29  2  0
 29 30  1  0
 30 31  2  0
 31 32  1  0
 10  5  1  0
 16 11  1  0
 32 17  1  0
 25 20  1  0
 31 26  1  0
M  END
