CVD-0001666|dock_bobby27042020.94|mol2|31|dock1
     RDKit          3D

 28 30  0  0  0  0  0  0  0  0999 V2000
    8.6885   -0.5124   18.8248 N   0  0  0  0  0  0  0  0  0  0  0  0
    7.4901   -0.9773   19.1517 C   0  0  0  0  0  0  0  0  0  0  0  0
    6.4694   -0.2901   19.0348 O   0  0  0  0  0  0  0  0  0  0  0  0
    7.3782   -2.3927   19.6825 C   0  0  0  0  0  0  0  0  0  0  0  0
    6.3651   -3.1170   19.1792 N   0  0  0  0  0  0  0  0  0  0  0  0
    6.2391   -4.3497   19.6184 C   0  0  0  0  0  0  0  0  0  0  0  0
    5.2087   -5.0465   19.0891 F   0  0  0  0  0  0  0  0  0  0  0  0
    7.0837   -4.9282   20.5569 C   0  0  0  0  0  0  0  0  0  0  0  0
    8.1008   -4.2351   21.0769 N   0  0  0  0  0  0  0  0  0  0  0  0
    8.2548   -2.9932   20.6564 C   0  0  0  0  0  0  0  0  0  0  0  0
    9.2726   -2.2756   21.1664 O   0  0  0  0  0  0  0  0  0  0  0  0
    9.6746   -2.5901   22.4949 C   0  0  0  0  0  0  0  0  0  0  0  0
   11.0736   -2.0534   22.7442 C   0  0  0  0  0  0  0  0  0  0  0  0
   11.9837   -2.8067   23.0667 O   0  0  0  0  0  0  0  0  0  0  0  0
   11.2627   -0.7271   22.5896 N   0  0  0  0  0  0  0  0  0  0  0  0
   10.2334    0.2437   22.2270 C   0  0  0  0  0  0  0  0  0  0  0  0
   10.3283    1.4586   23.1267 C   0  0  0  0  0  0  0  0  0  0  0  0
   11.7150    2.0837   23.0383 C   0  0  0  0  0  0  0  0  0  0  0  0
   12.7711    1.0316   23.3690 C   0  0  0  0  0  0  0  0  0  0  0  0
   12.6132   -0.1888   22.4681 C   0  0  0  0  0  0  0  0  0  0  0  0
   11.8311    3.2786   23.9660 C   0  0  0  0  0  0  0  0  0  0  0  0
   11.0392    3.4211   24.8780 O   0  0  0  0  0  0  0  0  0  0  0  0
   12.8198    4.1750   23.7753 N   0  0  0  0  0  0  0  0  0  0  0  0
   13.8522    4.1037   22.7396 C   0  0  0  0  0  0  0  0  0  0  0  0
   13.8360    5.3551   21.8867 C   0  0  0  0  0  0  0  0  0  0  0  0
   13.9762    6.6069   22.7520 C   0  0  0  0  0  0  0  0  0  0  0  0
   12.9202    6.6156   23.8439 C   0  0  0  0  0  0  0  0  0  0  0  0
   12.9585    5.3408   24.6559 C   0  0  0  0  0  0  0  0  0  0  0  0
  1  2  1  0
  2  3  2  0
  2  4  1  0
  4  5  2  0
  5  6  1  0
  6  7  1  0
  6  8  2  0
  8  9  1  0
  9 10  2  0
 10 11  1  0
 11 12  1  0
 12 13  1  0
 13 14  2  0
 13 15  1  0
 15 16  1  0
 16 17  1  0
 17 18  1  0
 18 19  1  0
 19 20  1  0
 18 21  1  0
 21 22  2  0
 21 23  1  0
 23 24  1  0
 24 25  1  0
 25 26  1  0
 26 27  1  0
 27 28  1  0
 10  4  1  0
 20 15  1  0
 28 23  1  0
M  END
