CVD-0002846|dock_bobby27042020.4|mol2|18|dock1
     RDKit          3D

 18 19  0  0  0  0  0  0  0  0999 V2000
   10.1501   -1.0513   21.1440 O   0  0  0  0  0  0  0  0  0  0  0  0
   10.5668   -1.7410   22.3102 C   0  0  0  0  0  0  0  0  0  0  0  0
   11.8005   -1.1476   22.9517 C   0  0  0  0  0  0  0  0  0  0  0  0
   12.8258   -2.0032   23.3519 C   0  0  0  0  0  0  0  0  0  0  0  0
   13.9757   -1.4845   23.9099 C   0  0  0  0  0  0  0  0  0  0  0  0
   14.1772   -0.1845   24.1083 N   0  0  0  0  0  0  0  0  0  0  0  0
   13.1829    0.6362   23.7627 C   0  0  0  0  0  0  0  0  0  0  0  0
   11.9859    0.2338   23.1635 C   0  0  0  0  0  0  0  0  0  0  0  0
   10.9812    1.2622   22.7897 C   0  0  0  0  0  0  0  0  0  0  0  0
    9.6218    0.9864   22.8896 N   0  0  0  0  0  0  0  0  0  0  0  0
    9.0098    2.0915   22.5026 C   0  0  0  0  0  0  0  0  0  0  0  0
    9.8769    3.0550   22.1585 N   0  0  0  0  0  0  0  0  0  0  0  0
   11.1426    2.5496   22.3279 C   0  0  0  0  0  0  0  0  0  0  0  0
   12.3495    3.3745   22.0146 C   0  0  0  0  0  0  0  0  0  0  0  0
   12.4853    4.5978   22.9154 C   0  0  0  0  0  0  0  0  0  0  0  0
   11.5036    5.5674   22.5397 O   0  0  0  0  0  0  0  0  0  0  0  0
   13.8607    5.2129   22.8256 C   0  0  0  0  0  0  0  0  0  0  0  0
   14.2811    5.5713   21.1266 Cl  0  0  0  0  0  0  0  0  0  0  0  0
  1  2  1  0
  2  3  1  0
  3  4  2  0
  4  5  1  0
  5  6  2  0
  6  7  1  0
  7  8  2  0
  8  9  1  0
  9 10  1  0
 10 11  2  0
 11 12  1  0
 12 13  1  0
 13 14  1  0
 14 15  1  0
 15 16  1  0
 15 17  1  0
 17 18  1  0
  8  3  1  0
 13  9  2  0
M  END
