CVD-0002073|dock_bobby27042020.36|mol2|6|dock2
     RDKit          3D

 24 25  0  0  0  0  0  0  0  0999 V2000
   12.2880    5.8959   24.1499 C   0  0  0  0  0  0  0  0  0  0  0  0
   13.2909    6.3991   23.2076 N   0  0  0  0  0  0  0  0  0  0  0  0
   13.3680    5.5848   21.9956 C   0  0  0  0  0  0  0  0  0  0  0  0
   13.8509    4.1776   22.2874 C   0  0  0  0  0  0  0  0  0  0  0  0
   12.4473    3.0666   22.5845 S   0  0  0  0  0  0  0  0  0  0  0  0
   13.2765    1.5106   22.6810 C   0  0  0  0  0  0  0  0  0  0  0  0
   14.4840    1.4308   22.6120 O   0  0  0  0  0  0  0  0  0  0  0  0
   12.4283    0.2928   22.8545 C   0  0  0  0  0  0  0  0  0  0  0  0
   13.0402   -0.9556   22.8714 C   0  0  0  0  0  0  0  0  0  0  0  0
   12.2868   -2.1057   23.0306 C   0  0  0  0  0  0  0  0  0  0  0  0
   10.9131   -2.0188   23.1740 C   0  0  0  0  0  0  0  0  0  0  0  0
   10.2808   -0.7859   23.1590 C   0  0  0  0  0  0  0  0  0  0  0  0
    8.7824   -0.6875   23.3188 C   0  0  0  0  0  0  0  0  0  0  0  0
    8.1319    0.1286   22.2829 N   0  0  0  0  0  0  0  0  0  0  0  0
    6.7468    0.4258   22.6591 C   0  0  0  0  0  0  0  0  0  0  0  0
    6.0932    1.3022   21.6067 C   0  0  0  0  0  0  0  0  0  0  0  0
    6.1323    0.6458   20.2981 N   0  0  0  0  0  0  0  0  0  0  0  0
    7.5010    0.2810   19.9192 C   0  0  0  0  0  0  0  0  0  0  0  0
    8.1379   -0.5719   21.0012 C   0  0  0  0  0  0  0  0  0  0  0  0
    5.0302    0.4444   19.5479 C   0  0  0  0  0  0  0  0  0  0  0  0
    3.9206    0.8091   19.9159 O   0  0  0  0  0  0  0  0  0  0  0  0
    5.2338   -0.2640   18.2231 C   0  0  0  0  0  0  0  0  0  0  0  0
    5.7058   -1.9505   18.4686 Cl  0  0  0  0  0  0  0  0  0  0  0  0
   11.0443    0.3640   23.0001 C   0  0  0  0  0  0  0  0  0  0  0  0
  1  2  1  0
  2  3  1  0
  3  4  1  0
  4  5  1  0
  5  6  1  0
  6  7  2  0
  6  8  1  0
  8  9  2  0
  9 10  1  0
 10 11  2  0
 11 12  1  0
 12 13  1  0
 13 14  1  0
 14 15  1  0
 15 16  1  0
 16 17  1  0
 17 18  1  0
 18 19  1  0
 17 20  1  0
 20 21  2  0
 20 22  1  0
 22 23  1  0
 12 24  2  0
 24  8  1  0
 19 14  1  0
M  END
