CVD-0002491|dock_bobby27042020.34|mol2|13|dock1
     RDKit          3D

 30 32  0  0  0  0  0  0  0  0999 V2000
   13.3400    3.2829   22.4567 C   0  0  0  0  0  0  0  0  0  0  0  0
   13.1971    1.8718   22.9348 C   0  0  0  0  0  0  0  0  0  0  0  0
   11.8743    1.3440   22.5885 N   0  0  0  0  0  0  0  0  0  0  0  0
   11.2809    0.4343   23.5823 C   0  0  0  0  0  0  0  0  0  0  0  0
    9.7936    0.1783   23.2703 C   0  0  0  0  0  0  0  0  0  0  0  0
    9.5863   -0.6682   22.0122 C   0  0  0  0  0  0  0  0  0  0  0  0
   10.3251   -1.9896   22.1857 C   0  0  0  0  0  0  0  0  0  0  0  0
   11.8127   -1.7846   22.4926 C   0  0  0  0  0  0  0  0  0  0  0  0
   12.0571   -0.8859   23.7116 C   0  0  0  0  0  0  0  0  0  0  0  0
   13.4650   -0.6907   23.9815 O   0  0  0  0  0  0  0  0  0  0  0  0
   14.2274   -1.7161   24.1415 C   0  0  0  0  0  0  0  0  0  0  0  0
   14.9504   -2.5819   24.2996 N   0  0  0  0  0  0  0  0  0  0  0  0
    8.1778   -0.8741   21.7366 O   0  0  0  0  0  0  0  0  0  0  0  0
    7.4461    0.0271   20.9917 C   0  0  0  0  0  0  0  0  0  0  0  0
    7.3199   -0.1061   19.6184 C   0  0  0  0  0  0  0  0  0  0  0  0
    6.5754    0.8245   18.9135 C   0  0  0  0  0  0  0  0  0  0  0  0
    5.9665    1.8773   19.5748 C   0  0  0  0  0  0  0  0  0  0  0  0
    6.0916    2.0159   20.9477 C   0  0  0  0  0  0  0  0  0  0  0  0
    5.4321    3.1666   21.6693 C   0  0  0  0  0  0  0  0  0  0  0  0
    6.1899    4.4226   21.5673 N   0  0  0  0  0  0  0  0  0  0  0  0
    7.5184    4.2700   22.1677 C   0  0  0  0  0  0  0  0  0  0  0  0
    8.3109    5.5559   22.0232 C   0  0  0  0  0  0  0  0  0  0  0  0
    7.5970    6.6701   22.6506 N   0  0  0  0  0  0  0  0  0  0  0  0
    6.2403    6.8118   22.1129 C   0  0  0  0  0  0  0  0  0  0  0  0
    5.4812    5.5041   22.2466 C   0  0  0  0  0  0  0  0  0  0  0  0
    8.1608    7.4692   23.5873 C   0  0  0  0  0  0  0  0  0  0  0  0
    9.3160    7.3023   23.9581 O   0  0  0  0  0  0  0  0  0  0  0  0
    7.3260    8.5856   24.1854 C   0  0  0  0  0  0  0  0  0  0  0  0
    8.2514    9.5093   25.3760 Cl  0  0  0  0  0  0  0  0  0  0  0  0
    6.8389    1.0822   21.6540 C   0  0  0  0  0  0  0  0  0  0  0  0
  1  2  1  0
  2  3  1  0
  3  4  1  0
  4  5  1  0
  5  6  1  0
  6  7  1  0
  7  8  1  0
  8  9  1  0
  9 10  1  0
 10 11  1  0
 11 12  3  0
  6 13  1  0
 13 14  1  0
 14 15  2  0
 15 16  1  0
 16 17  2  0
 17 18  1  0
 18 19  1  0
 19 20  1  0
 20 21  1  0
 21 22  1  0
 22 23  1  0
 23 24  1  0
 24 25  1  0
 23 26  1  0
 26 27  2  0
 26 28  1  0
 28 29  1  0
 18 30  2  0
  9  4  1  0
 30 14  1  0
 25 20  1  0
M  END
