CVD-0000491|dock_bobby27042020.27|mol2|5|dock2
     RDKit          3D

 33 34  0  0  0  0  0  0  0  0999 V2000
    5.0311   -5.6256   24.0954 C   0  0  0  0  0  0  0  0  0  0  0  0
    5.8150   -5.0417   23.0138 N   0  0  0  0  0  0  0  0  0  0  0  0
    5.9117   -5.3978   21.7403 C   0  0  0  0  0  0  0  0  0  0  0  0
    6.7109   -4.5859   21.0815 N   0  0  0  0  0  0  0  0  0  0  0  0
    7.0847   -3.6992   22.0474 C   0  0  0  0  0  0  0  0  0  0  0  0
    7.9409   -2.6502   21.7820 N   0  0  0  0  0  0  0  0  0  0  0  0
    8.1097   -1.4278   22.4338 C   0  0  0  0  0  0  0  0  0  0  0  0
    7.4371   -1.1327   23.4184 O   0  0  0  0  0  0  0  0  0  0  0  0
    9.0472   -0.6023   21.9193 N   0  0  0  0  0  0  0  0  0  0  0  0
    9.2424    0.7304   22.4661 C   0  0  0  0  0  0  0  0  0  0  0  0
   10.1003    0.6388   23.7386 C   0  0  0  0  0  0  0  0  0  0  0  0
   11.3682   -0.1550   23.5369 C   0  0  0  0  0  0  0  0  0  0  0  0
   11.3557   -1.5399   23.5936 C   0  0  0  0  0  0  0  0  0  0  0  0
   12.5147   -2.2736   23.4129 C   0  0  0  0  0  0  0  0  0  0  0  0
   13.7133   -1.6218   23.1713 C   0  0  0  0  0  0  0  0  0  0  0  0
   14.8600   -2.3392   22.9918 O   0  0  0  0  0  0  0  0  0  0  0  0
   13.7414   -0.2378   23.1131 C   0  0  0  0  0  0  0  0  0  0  0  0
   12.5748    0.4833   23.2958 C   0  0  0  0  0  0  0  0  0  0  0  0
    7.8533    1.3135   22.7444 C   0  0  0  0  0  0  0  0  0  0  0  0
    7.5985    1.6138   23.8950 O   0  0  0  0  0  0  0  0  0  0  0  0
    6.9132    1.5014   21.7914 N   0  0  0  0  0  0  0  0  0  0  0  0
    7.0305    1.1921   20.3574 C   0  0  0  0  0  0  0  0  0  0  0  0
    6.1797    0.0368   19.8575 C   0  0  0  0  0  0  0  0  0  0  0  0
    6.1975   -0.1063   18.3583 C   0  0  0  0  0  0  0  0  0  0  0  0
    5.3186    1.3949   17.4855 Br  0  0  0  0  0  0  0  0  0  0  0  0
    5.6340    2.1221   22.1565 C   0  0  0  0  0  0  0  0  0  0  0  0
    5.7830    3.5367   22.6792 C   0  0  0  0  0  0  0  0  0  0  0  0
    6.3700    4.3989   21.6466 N   0  0  0  0  0  0  0  0  0  0  0  0
    7.9184    5.0752   21.9186 S   0  0  0  0  0  0  0  0  0  0  0  0
    7.8993    5.8558   23.2345 N   0  0  0  0  0  0  0  0  0  0  0  0
    8.2003    6.0331   20.8283 O   0  0  0  0  0  0  0  0  0  0  0  0
    8.8856    3.9665   22.0643 O   0  0  0  0  0  0  0  0  0  0  0  0
    6.5612   -3.9286   23.2433 N   0  0  0  0  0  0  0  0  0  0  0  0
  1  2  1  0
  2  3  1  0
  3  4  2  0
  4  5  1  0
  5  6  1  0
  6  7  1  0
  7  8  2  0
  7  9  1  0
  9 10  1  0
 10 11  1  0
 11 12  1  0
 12 13  2  0
 13 14  1  0
 14 15  2  0
 15 16  1  0
 15 17  1  0
 17 18  2  0
 10 19  1  0
 19 20  2  0
 19 21  1  0
 21 22  1  0
 22 23  1  0
 23 24  1  0
 24 25  1  0
 21 26  1  0
 26 27  1  0
 27 28  1  0
 28 29  1  0
 29 30  1  0
 29 31  2  0
 29 32  2  0
  5 33  2  0
 33  2  1  0
 18 12  1  0
M  END
