CVD-0003193|dock_bobby27042020.60|mol2|31|dock2
     RDKit          3D

 26 29  0  0  0  0  0  0  0  0999 V2000
   10.2305   -1.5095   21.9371 C   0  0  0  0  0  0  0  0  0  0  0  0
    9.5932   -2.2040   23.0671 N   0  0  0  0  0  0  0  0  0  0  0  0
    8.4455   -2.9872   22.5881 C   0  0  0  0  0  0  0  0  0  0  0  0
    7.3372   -3.2469   23.5997 C   0  0  0  0  0  0  0  0  0  0  0  0
    6.8273   -2.0329   24.3660 C   0  0  0  0  0  0  0  0  0  0  0  0
    7.7827   -1.2291   25.2398 C   0  0  0  0  0  0  0  0  0  0  0  0
    8.4755   -1.8917   26.4215 C   0  0  0  0  0  0  0  0  0  0  0  0
    9.1559   -3.2297   26.2080 C   0  0  0  0  0  0  0  0  0  0  0  0
    8.8567   -4.1696   27.1933 C   0  0  0  0  0  0  0  0  0  0  0  0
    9.3710   -5.4526   27.1739 C   0  0  0  0  0  0  0  0  0  0  0  0
   10.2102   -5.8254   26.1488 C   0  0  0  0  0  0  0  0  0  0  0  0
   10.5191   -4.9069   25.1618 C   0  0  0  0  0  0  0  0  0  0  0  0
   10.0101   -3.6077   25.1639 C   0  0  0  0  0  0  0  0  0  0  0  0
   10.5502   -2.8085   23.9945 C   0  0  0  0  0  0  0  0  0  0  0  0
   11.5036   -0.7846   22.3042 C   0  0  0  0  0  0  0  0  0  0  0  0
   12.7386   -1.3969   22.2163 C   0  0  0  0  0  0  0  0  0  0  0  0
   13.8901   -0.7981   22.5297 N   0  0  0  0  0  0  0  0  0  0  0  0
   13.8346    0.4663   22.9574 C   0  0  0  0  0  0  0  0  0  0  0  0
   12.6575    1.1941   23.0882 C   0  0  0  0  0  0  0  0  0  0  0  0
   11.4783    0.5312   22.7458 C   0  0  0  0  0  0  0  0  0  0  0  0
   12.6468    2.6035   23.5664 C   0  0  0  0  0  0  0  0  0  0  0  0
   13.5337    3.5510   23.0646 C   0  0  0  0  0  0  0  0  0  0  0  0
   13.5004    4.8536   23.5306 C   0  0  0  0  0  0  0  0  0  0  0  0
   12.5727    5.1839   24.4905 C   0  0  0  0  0  0  0  0  0  0  0  0
   11.7046    4.3069   24.9937 N   0  0  0  0  0  0  0  0  0  0  0  0
   11.7565    3.0522   24.5356 C   0  0  0  0  0  0  0  0  0  0  0  0
  1  2  1  0
  2  3  1  0
  3  4  1  0
  4  5  1  0
  5  6  1  0
  6  7  1  0
  7  8  1  0
  8  9  2  0
  9 10  1  0
 10 11  2  0
 11 12  1  0
 12 13  2  0
 13 14  1  0
  1 15  1  0
 15 16  2  0
 16 17  1  0
 17 18  2  0
 18 19  1  0
 19 20  2  0
 19 21  1  0
 21 22  2  0
 22 23  1  0
 23 24  2  0
 24 25  1  0
 25 26  2  0
 14  2  1  0
 20 15  1  0
 26 21  1  0
 13  8  1  0
M  END
