CVD-0003493|dock_bobby27042020.59|mol2|35|dock2
     RDKit          3D

 30 31  0  0  0  0  0  0  0  0999 V2000
   13.7816    4.1904   22.3285 C   0  0  0  0  0  0  0  0  0  0  0  0
   12.5920    4.2879   23.2556 C   0  0  0  0  0  0  0  0  0  0  0  0
   11.5062    3.3065   22.9040 C   0  0  0  0  0  0  0  0  0  0  0  0
   11.8790    1.9360   23.2164 N   0  0  0  0  0  0  0  0  0  0  0  0
   11.0934    0.8301   22.9785 C   0  0  0  0  0  0  0  0  0  0  0  0
    9.7597    0.9851   22.6082 C   0  0  0  0  0  0  0  0  0  0  0  0
    8.9484   -0.0859   22.2396 C   0  0  0  0  0  0  0  0  0  0  0  0
    7.6236    0.1219   21.8279 N   0  0  0  0  0  0  0  0  0  0  0  0
    7.0579    0.5325   20.6556 C   0  0  0  0  0  0  0  0  0  0  0  0
    7.8677    0.4690   19.5876 N   0  0  0  0  0  0  0  0  0  0  0  0
    7.3233    0.8641   18.4300 C   0  0  0  0  0  0  0  0  0  0  0  0
    6.0227    1.3102   18.3050 C   0  0  0  0  0  0  0  0  0  0  0  0
    5.2685    1.3349   19.4720 C   0  0  0  0  0  0  0  0  0  0  0  0
    5.7808    0.9468   20.6482 N   0  0  0  0  0  0  0  0  0  0  0  0
    3.8346    1.7958   19.4962 C   0  0  0  0  0  0  0  0  0  0  0  0
    3.0841    1.5422   20.5623 N   0  0  0  0  0  0  0  0  0  0  0  0
    3.3890    2.4029   18.5160 O   0  0  0  0  0  0  0  0  0  0  0  0
    9.4845   -1.3846   22.2696 C   0  0  0  0  0  0  0  0  0  0  0  0
    8.6700   -2.4908   21.9054 N   0  0  0  0  0  0  0  0  0  0  0  0
    8.5967   -3.7398   22.4260 C   0  0  0  0  0  0  0  0  0  0  0  0
    9.2740   -4.1657   23.3718 O   0  0  0  0  0  0  0  0  0  0  0  0
    7.6014   -4.5921   21.7368 C   0  0  0  0  0  0  0  0  0  0  0  0
    7.5626   -5.8883   21.8968 C   0  0  0  0  0  0  0  0  0  0  0  0
   10.8082   -1.5405   22.6765 C   0  0  0  0  0  0  0  0  0  0  0  0
   11.6067   -0.4755   23.0802 C   0  0  0  0  0  0  0  0  0  0  0  0
   12.9072   -0.7308   23.5864 N   0  0  0  0  0  0  0  0  0  0  0  0
   13.1753   -1.1278   24.9743 C   0  0  0  0  0  0  0  0  0  0  0  0
   13.4645   -2.5964   25.1570 C   0  0  0  0  0  0  0  0  0  0  0  0
   14.0373   -0.8049   22.6565 C   0  0  0  0  0  0  0  0  0  0  0  0
   13.7943   -1.7253   21.4877 C   0  0  0  0  0  0  0  0  0  0  0  0
  1  2  1  0
  2  3  1  0
  3  4  1  0
  4  5  1  0
  5  6  2  0
  6  7  1  0
  7  8  1  0
  8  9  1  0
  9 10  2  0
 10 11  1  0
 11 12  2  0
 12 13  1  0
 13 14  2  0
 13 15  1  0
 15 16  1  0
 15 17  2  0
  7 18  2  0
 18 19  1  0
 19 20  1  0
 20 21  2  0
 20 22  1  0
 22 23  2  0
 18 24  1  0
 24 25  2  0
 25 26  1  0
 26 27  1  0
 27 28  1  0
 26 29  1  0
 29 30  1  0
 25  5  1  0
 14  9  1  0
M  END
