CVD-0003184|dock_bobby27042020.88|mol2|41|dock2
     RDKit          3D

 26 28  0  0  0  0  0  0  0  0999 V2000
    8.2425   -1.3186   18.1773 C   0  0  0  0  0  0  0  0  0  0  0  0
    6.8740   -0.7967   18.2207 N   0  0  0  0  0  0  0  0  0  0  0  0
    6.7680    0.3924   19.0647 C   0  0  0  0  0  0  0  0  0  0  0  0
    5.8718    0.1586   20.2647 C   0  0  0  0  0  0  0  0  0  0  0  0
    5.6633    1.3801   21.0510 N   0  0  0  0  0  0  0  0  0  0  0  0
    4.6542    2.2826   20.5213 C   0  0  0  0  0  0  0  0  0  0  0  0
    6.3718    1.6765   22.1664 C   0  0  0  0  0  0  0  0  0  0  0  0
    6.1351    2.7219   22.7626 O   0  0  0  0  0  0  0  0  0  0  0  0
    7.4749    0.7329   22.6885 C   0  0  0  0  0  0  0  0  0  0  0  0
    7.1972   -0.4396   22.9157 O   0  0  0  0  0  0  0  0  0  0  0  0
    8.7332    1.1752   22.8912 N   0  0  0  0  0  0  0  0  0  0  0  0
    9.8288    0.3001   23.3763 C   0  0  0  0  0  0  0  0  0  0  0  0
   11.0768    0.5212   22.5876 C   0  0  0  0  0  0  0  0  0  0  0  0
   12.1634   -0.4314   23.0708 C   0  0  0  0  0  0  0  0  0  0  0  0
   12.7708   -0.2473   24.3051 C   0  0  0  0  0  0  0  0  0  0  0  0
   13.7604   -1.1117   24.7428 C   0  0  0  0  0  0  0  0  0  0  0  0
   14.1550   -2.1697   23.9521 C   0  0  0  0  0  0  0  0  0  0  0  0
   13.5609   -2.3640   22.7235 C   0  0  0  0  0  0  0  0  0  0  0  0
   12.5714   -1.5000   22.2848 C   0  0  0  0  0  0  0  0  0  0  0  0
   11.4988    1.9651   22.6967 C   0  0  0  0  0  0  0  0  0  0  0  0
   12.8393    2.3548   22.6963 C   0  0  0  0  0  0  0  0  0  0  0  0
   13.2131    3.6862   22.7264 C   0  0  0  0  0  0  0  0  0  0  0  0
   12.2440    4.6648   22.7577 C   0  0  0  0  0  0  0  0  0  0  0  0
   10.9095    4.3022   22.7586 C   0  0  0  0  0  0  0  0  0  0  0  0
   10.5307    2.9642   22.7284 C   0  0  0  0  0  0  0  0  0  0  0  0
    9.0475    2.5942   22.6378 C   0  0  0  0  0  0  0  0  0  0  0  0
  1  2  1  0
  2  3  1  0
  3  4  1  0
  4  5  1  0
  5  6  1  0
  5  7  1  0
  7  8  2  0
  7  9  1  0
  9 10  2  0
  9 11  1  0
 11 12  1  0
 12 13  1  0
 13 14  1  0
 14 15  2  0
 15 16  1  0
 16 17  2  0
 17 18  1  0
 18 19  2  0
 13 20  1  0
 20 21  2  0
 21 22  1  0
 22 23  2  0
 23 24  1  0
 24 25  2  0
 25 26  1  0
 26 11  1  0
 19 14  1  0
 25 20  1  0
M  END
