CVD-0001896|dock_bobby27042020.79|mol2|31|dock2
     RDKit          3D

 28 29  0  0  0  0  0  0  0  0999 V2000
   14.4202   -1.1056   24.3465 C   0  0  0  0  0  0  0  0  0  0  0  0
   13.6004   -2.3704   24.0949 C   0  0  0  0  0  0  0  0  0  0  0  0
   13.3744   -3.0993   25.4187 C   0  0  0  0  0  0  0  0  0  0  0  0
   12.2849   -2.0345   23.4364 C   0  0  0  0  0  0  0  0  0  0  0  0
   12.2151   -1.7017   22.0958 C   0  0  0  0  0  0  0  0  0  0  0  0
   10.9832   -1.3985   21.5462 C   0  0  0  0  0  0  0  0  0  0  0  0
    9.8399   -1.4304   22.3341 C   0  0  0  0  0  0  0  0  0  0  0  0
   10.0122   -1.7773   23.6658 C   0  0  0  0  0  0  0  0  0  0  0  0
   11.1973   -2.0698   24.2140 N   0  0  0  0  0  0  0  0  0  0  0  0
    8.5530   -1.1379   21.7659 N   0  0  0  0  0  0  0  0  0  0  0  0
    8.2453    0.2482   21.3053 C   0  0  0  0  0  0  0  0  0  0  0  0
    7.8463    1.2207   22.4420 C   0  0  0  0  0  0  0  0  0  0  0  0
    7.5771    0.8685   23.5875 O   0  0  0  0  0  0  0  0  0  0  0  0
    7.8364    2.5091   22.0743 N   0  0  0  0  0  0  0  0  0  0  0  0
    7.5165    3.6673   22.9387 C   0  0  0  0  0  0  0  0  0  0  0  0
    8.5209    3.7348   24.0807 C   0  0  0  0  0  0  0  0  0  0  0  0
    7.6001    4.9382   22.1052 C   0  0  0  0  0  0  0  0  0  0  0  0
    6.1073    3.5076   23.4921 C   0  0  0  0  0  0  0  0  0  0  0  0
    7.2652    0.2248   20.1349 C   0  0  0  0  0  0  0  0  0  0  0  0
    5.9699    0.6893   20.3101 C   0  0  0  0  0  0  0  0  0  0  0  0
    5.0724    0.6671   19.2570 C   0  0  0  0  0  0  0  0  0  0  0  0
    5.4971    0.1754   18.0444 C   0  0  0  0  0  0  0  0  0  0  0  0
    6.7332   -0.2789   17.8366 N   0  0  0  0  0  0  0  0  0  0  0  0
    7.5838   -0.2444   18.8670 C   0  0  0  0  0  0  0  0  0  0  0  0
    7.5177   -2.0626   21.6311 C   0  0  0  0  0  0  0  0  0  0  0  0
    6.4339   -1.7267   21.1554 O   0  0  0  0  0  0  0  0  0  0  0  0
    7.6007   -3.4979   22.0466 C   0  0  0  0  0  0  0  0  0  0  0  0
    6.5759   -4.3059   22.1420 C   0  0  0  0  0  0  0  0  0  0  0  0
  1  2  1  0
  2  3  1  0
  2  4  1  0
  4  5  2  0
  5  6  1  0
  6  7  2  0
  7  8  1  0
  8  9  2  0
  7 10  1  0
 10 11  1  0
 11 12  1  0
 12 13  2  0
 12 14  1  0
 14 15  1  0
 15 16  1  0
 15 17  1  0
 15 18  1  0
 11 19  1  0
 19 20  2  0
 20 21  1  0
 21 22  2  0
 22 23  1  0
 23 24  2  0
 10 25  1  0
 25 26  2  0
 25 27  1  0
 27 28  2  0
  9  4  1  0
 24 19  1  0
M  END
