CVD-0003083|dock_bobby27042020.61|mol2|5|dock1
     RDKit          3D

 25 27  0  0  0  0  0  0  0  0999 V2000
   12.6394    5.2843   22.2869 N   0  0  0  0  0  0  0  0  0  0  0  0
   13.8766    4.2690   22.3291 S   0  0  0  0  0  0  0  0  0  0  0  0
   14.4816    4.2848   21.0311 O   0  0  0  0  0  0  0  0  0  0  0  0
   14.6724    4.6183   23.4675 O   0  0  0  0  0  0  0  0  0  0  0  0
   13.2534    2.6379   22.6012 C   0  0  0  0  0  0  0  0  0  0  0  0
   14.1156    1.5567   22.5304 C   0  0  0  0  0  0  0  0  0  0  0  0
   13.6087    0.2843   22.7054 C   0  0  0  0  0  0  0  0  0  0  0  0
   12.2567    0.0716   22.9497 C   0  0  0  0  0  0  0  0  0  0  0  0
   11.7267   -1.3130   23.2346 C   0  0  0  0  0  0  0  0  0  0  0  0
   10.2503   -1.4059   22.9103 C   0  0  0  0  0  0  0  0  0  0  0  0
    9.4923   -0.2954   23.6158 C   0  0  0  0  0  0  0  0  0  0  0  0
   10.0073    1.0022   23.1968 N   0  0  0  0  0  0  0  0  0  0  0  0
    9.1175    2.1539   23.3274 C   0  0  0  0  0  0  0  0  0  0  0  0
    8.8784    2.8833   22.0203 C   0  0  0  0  0  0  0  0  0  0  0  0
    7.7062    2.3745   21.3211 N   0  0  0  0  0  0  0  0  0  0  0  0
    7.7213    1.1459   20.7720 C   0  0  0  0  0  0  0  0  0  0  0  0
    8.7190    0.4395   20.8512 O   0  0  0  0  0  0  0  0  0  0  0  0
    6.6269    0.6633   20.1152 N   0  0  0  0  0  0  0  0  0  0  0  0
    5.5306    1.4674   19.5719 C   0  0  0  0  0  0  0  0  0  0  0  0
    5.3628    1.2043   18.0899 C   0  0  0  0  0  0  0  0  0  0  0  0
    5.1698   -0.2873   17.8191 C   0  0  0  0  0  0  0  0  0  0  0  0
    6.2995   -1.0883   18.4430 C   0  0  0  0  0  0  0  0  0  0  0  0
    6.4446   -0.7793   19.9159 C   0  0  0  0  0  0  0  0  0  0  0  0
   11.3854    1.1792   23.0201 C   0  0  0  0  0  0  0  0  0  0  0  0
   11.8993    2.4627   22.8432 C   0  0  0  0  0  0  0  0  0  0  0  0
  1  2  1  0
  2  3  2  0
  2  4  2  0
  2  5  1  0
  5  6  2  0
  6  7  1  0
  7  8  2  0
  8  9  1  0
  9 10  1  0
 10 11  1  0
 11 12  1  0
 12 13  1  0
 13 14  1  0
 14 15  1  0
 15 16  1  0
 16 17  2  0
 16 18  1  0
 18 19  1  0
 19 20  1  0
 20 21  1  0
 21 22  1  0
 22 23  1  0
 12 24  1  0
 24 25  2  0
 25  5  1  0
 24  8  1  0
 23 18  1  0
M  END
