CVD-0004065|dock_bobby27042020.85|mol2|47|dock3
     RDKit          3D

 23 26  0  0  0  0  0  0  0  0999 V2000
    6.5537   -1.9145   20.6957 C   0  0  0  0  0  0  0  0  0  0  0  0
    7.8770   -1.4289   21.1970 C   0  0  0  0  0  0  0  0  0  0  0  0
    8.8375   -2.3480   21.6871 C   0  0  0  0  0  0  0  0  0  0  0  0
   10.0194   -1.8898   22.1328 C   0  0  0  0  0  0  0  0  0  0  0  0
   10.2474   -0.5308   22.0909 N   0  0  0  0  0  0  0  0  0  0  0  0
   11.3432    0.2417   22.4765 C   0  0  0  0  0  0  0  0  0  0  0  0
   12.5396   -0.3850   23.0564 C   0  0  0  0  0  0  0  0  0  0  0  0
   13.0856   -0.2634   24.3678 C   0  0  0  0  0  0  0  0  0  0  0  0
   14.2222   -1.0613   24.3512 C   0  0  0  0  0  0  0  0  0  0  0  0
   14.4165   -1.6382   23.1721 N   0  0  0  0  0  0  0  0  0  0  0  0
   13.3847   -1.2200   22.3867 N   0  0  0  0  0  0  0  0  0  0  0  0
   13.3748   -1.6517   20.9940 C   0  0  0  0  0  0  0  0  0  0  0  0
   10.9838    1.5501   22.1781 C   0  0  0  0  0  0  0  0  0  0  0  0
    9.7040    1.5919   21.6542 N   0  0  0  0  0  0  0  0  0  0  0  0
    9.2742    0.3343   21.6015 C   0  0  0  0  0  0  0  0  0  0  0  0
    8.0878   -0.1145   21.1544 N   0  0  0  0  0  0  0  0  0  0  0  0
   11.7065    2.8325   22.3051 C   0  0  0  0  0  0  0  0  0  0  0  0
   11.0339    4.0480   22.3599 C   0  0  0  0  0  0  0  0  0  0  0  0
   11.7237    5.2405   22.4867 C   0  0  0  0  0  0  0  0  0  0  0  0
   13.0891    5.1973   22.5596 C   0  0  0  0  0  0  0  0  0  0  0  0
   13.7727    6.3669   22.6835 F   0  0  0  0  0  0  0  0  0  0  0  0
   13.7955    4.0268   22.5132 C   0  0  0  0  0  0  0  0  0  0  0  0
   13.0948    2.8405   22.3863 C   0  0  0  0  0  0  0  0  0  0  0  0
  1  2  1  0
  2  3  1  0
  3  4  2  0
  4  5  1  0
  5  6  1  0
  6  7  1  0
  7  8  2  0
  8  9  1  0
  9 10  2  0
 10 11  1  0
 11 12  1  0
  6 13  2  0
 13 14  1  0
 14 15  2  0
 15 16  1  0
 13 17  1  0
 17 18  2  0
 18 19  1  0
 19 20  2  0
 20 21  1  0
 20 22  1  0
 22 23  2  0
 16  2  2  0
 23 17  1  0
 15  5  1  0
 11  7  1  0
M  END
