CVD-0002203|dock_bobby27042020.49|mol2|34|dock3
     RDKit          3D

 22 24  0  0  0  0  0  0  0  0999 V2000
   13.7585   -1.9441   22.7337 C   0  0  0  0  0  0  0  0  0  0  0  0
   12.2658   -1.9623   22.8412 C   0  0  0  0  0  0  0  0  0  0  0  0
   11.6482   -1.1754   21.7868 N   0  0  0  0  0  0  0  0  0  0  0  0
   11.1652    0.0616   21.9775 C   0  0  0  0  0  0  0  0  0  0  0  0
   11.9987    0.9545   22.5121 N   0  0  0  0  0  0  0  0  0  0  0  0
   11.5836    2.2065   22.7307 N   0  0  0  0  0  0  0  0  0  0  0  0
   10.3197    2.5001   22.3916 C   0  0  0  0  0  0  0  0  0  0  0  0
    9.4276    1.6717   21.8558 N   0  0  0  0  0  0  0  0  0  0  0  0
    9.8479    0.4214   21.6375 C   0  0  0  0  0  0  0  0  0  0  0  0
    8.8460   -0.5326   21.0326 C   0  0  0  0  0  0  0  0  0  0  0  0
    7.5803    0.1635   20.5751 C   0  0  0  0  0  0  0  0  0  0  0  0
    6.5910    0.5127   21.4851 C   0  0  0  0  0  0  0  0  0  0  0  0
    5.4323    1.1520   21.0734 C   0  0  0  0  0  0  0  0  0  0  0  0
    5.2494    1.4525   19.7279 C   0  0  0  0  0  0  0  0  0  0  0  0
    4.1073    2.1276   19.0262 C   0  0  0  0  0  0  0  0  0  0  0  0
    4.5707    2.1249   17.6556 N   0  0  0  0  0  0  0  0  0  0  0  0
    5.7728    1.5484   17.4737 C   0  0  0  0  0  0  0  0  0  0  0  0
    6.3509    1.4450   16.3965 O   0  0  0  0  0  0  0  0  0  0  0  0
    6.2273    1.1101   18.8113 C   0  0  0  0  0  0  0  0  0  0  0  0
    7.3906    0.4673   19.2306 C   0  0  0  0  0  0  0  0  0  0  0  0
    9.8745    3.8643   22.6333 C   0  0  0  0  0  0  0  0  0  0  0  0
    9.5698    4.9541   22.7896 N   0  0  0  0  0  0  0  0  0  0  0  0
  1  2  1  0
  2  3  1  0
  3  4  1  0
  4  5  2  0
  5  6  1  0
  6  7  2  0
  7  8  1  0
  8  9  2  0
  9 10  1  0
 10 11  1  0
 11 12  2  0
 12 13  1  0
 13 14  2  0
 14 15  1  0
 15 16  1  0
 16 17  1  0
 17 18  2  0
 17 19  1  0
 19 20  2  0
  7 21  1  0
 21 22  3  0
  9  4  1  0
 20 11  1  0
 19 14  1  0
M  END
