CVD-0000367|dock_bobby27042020.13|mol2|15|dock2
     RDKit          3D

 25 27  0  0  0  0  0  0  0  0999 V2000
    5.7334   -1.6350   18.4222 C   0  0  0  0  0  0  0  0  0  0  0  0
    5.9210   -2.4131   19.6914 C   0  0  0  0  0  0  0  0  0  0  0  0
    5.4435   -3.5338   19.8287 O   0  0  0  0  0  0  0  0  0  0  0  0
    6.6496   -1.8450   20.6830 N   0  0  0  0  0  0  0  0  0  0  0  0
    6.9119   -2.5141   21.9590 C   0  0  0  0  0  0  0  0  0  0  0  0
    8.4027   -2.5559   22.2389 C   0  0  0  0  0  0  0  0  0  0  0  0
    8.9538   -1.1977   22.2566 N   0  0  0  0  0  0  0  0  0  0  0  0
   10.3898   -1.2298   22.5666 C   0  0  0  0  0  0  0  0  0  0  0  0
   11.0011    0.1467   22.6720 C   0  0  0  0  0  0  0  0  0  0  0  0
   10.2217    1.2516   22.9670 C   0  0  0  0  0  0  0  0  0  0  0  0
   10.7717    2.5179   23.0575 C   0  0  0  0  0  0  0  0  0  0  0  0
   12.1393    2.7273   22.8563 C   0  0  0  0  0  0  0  0  0  0  0  0
   12.8928    1.5916   22.5685 C   0  0  0  0  0  0  0  0  0  0  0  0
   14.2274    1.6997   22.3739 F   0  0  0  0  0  0  0  0  0  0  0  0
   12.3603    0.3319   22.4690 C   0  0  0  0  0  0  0  0  0  0  0  0
   12.6657    4.1188   22.9648 C   0  0  0  0  0  0  0  0  0  0  0  0
   13.3631    4.7216   21.9222 C   0  0  0  0  0  0  0  0  0  0  0  0
   13.7941    6.0028   22.1630 C   0  0  0  0  0  0  0  0  0  0  0  0
   14.4809    6.6642   21.2048 F   0  0  0  0  0  0  0  0  0  0  0  0
   13.5977    6.6743   23.2731 N   0  0  0  0  0  0  0  0  0  0  0  0
   12.9198    6.0236   24.2215 C   0  0  0  0  0  0  0  0  0  0  0  0
   12.6664    6.7496   25.5025 C   0  0  0  0  0  0  0  0  0  0  0  0
   12.4437    4.7778   24.1184 N   0  0  0  0  0  0  0  0  0  0  0  0
    8.7253   -0.5736   20.9558 C   0  0  0  0  0  0  0  0  0  0  0  0
    7.2409   -0.5038   20.6464 C   0  0  0  0  0  0  0  0  0  0  0  0
  1  2  1  0
  2  3  2  0
  2  4  1  0
  4  5  1  0
  5  6  1  0
  6  7  1  0
  7  8  1  0
  8  9  1  0
  9 10  2  0
 10 11  1  0
 11 12  2  0
 12 13  1  0
 13 14  1  0
 13 15  2  0
 12 16  1  0
 16 17  2  0
 17 18  1  0
 18 19  1  0
 18 20  2  0
 20 21  1  0
 21 22  1  0
 21 23  2  0
  7 24  1  0
 24 25  1  0
 25  4  1  0
 15  9  1  0
 23 16  1  0
M  END
