CVD-0001536|dock_bobby27042020.95|mol2|4|dock2
     RDKit          3D

 19 21  0  0  0  0  0  0  0  0999 V2000
    6.8965   -1.1471   18.0269 O   0  0  0  0  0  0  0  0  0  0  0  0
    7.0859    0.0727   18.7484 S   0  0  0  0  0  0  0  0  0  0  0  0
    8.0496    0.9940   18.2316 O   0  0  0  0  0  0  0  0  0  0  0  0
    7.3967   -0.2450   20.3096 N   0  0  0  0  0  0  0  0  0  0  0  0
    8.5976   -0.9272   20.8272 C   0  0  0  0  0  0  0  0  0  0  0  0
    9.3398   -0.0940   21.8596 C   0  0  0  0  0  0  0  0  0  0  0  0
   10.7815   -0.3747   21.9140 N   0  0  0  0  0  0  0  0  0  0  0  0
   11.0104   -1.7344   22.4179 C   0  0  0  0  0  0  0  0  0  0  0  0
   12.4811   -2.0635   22.4566 C   0  0  0  0  0  0  0  0  0  0  0  0
   13.2509   -1.0714   23.2884 C   0  0  0  0  0  0  0  0  0  0  0  0
   12.9508    0.3391   22.8183 C   0  0  0  0  0  0  0  0  0  0  0  0
   11.4674    0.5911   22.7841 C   0  0  0  0  0  0  0  0  0  0  0  0
    6.3315    0.0254   21.2806 C   0  0  0  0  0  0  0  0  0  0  0  0
    5.2769    0.7488   20.4706 C   0  0  0  0  0  0  0  0  0  0  0  0
    4.0918    1.3211   20.9226 C   0  0  0  0  0  0  0  0  0  0  0  0
    3.2382    1.9728   20.0484 C   0  0  0  0  0  0  0  0  0  0  0  0
    3.5522    2.0644   18.7096 C   0  0  0  0  0  0  0  0  0  0  0  0
    4.7243    1.5052   18.2285 C   0  0  0  0  0  0  0  0  0  0  0  0
    5.5649    0.8571   19.1214 C   0  0  0  0  0  0  0  0  0  0  0  0
  1  2  2  0
  2  3  2  0
  2  4  1  0
  4  5  1  0
  5  6  1  0
  6  7  1  0
  7  8  1  0
  8  9  1  0
  9 10  1  0
 10 11  1  0
 11 12  1  0
  4 13  1  0
 13 14  1  0
 14 15  2  0
 15 16  1  0
 16 17  2  0
 17 18  1  0
 18 19  2  0
 19  2  1  0
 12  7  1  0
 19 14  1  0
M  END
