CVD-0000991|dock_bobby27042020.54|mol2|10|dock1
     RDKit          3D

 36 40  0  0  0  0  0  0  0  0999 V2000
    7.7512  -14.2890   33.0904 C   0  0  0  0  0  0  0  0  0  0  0  0
    8.5304  -13.8084   31.9968 O   0  0  0  0  0  0  0  0  0  0  0  0
    8.3282  -12.5429   31.5048 C   0  0  0  0  0  0  0  0  0  0  0  0
    7.5165  -11.6261   32.1524 C   0  0  0  0  0  0  0  0  0  0  0  0
    7.3452  -10.3631   31.6154 C   0  0  0  0  0  0  0  0  0  0  0  0
    7.9689   -9.9714   30.4275 C   0  0  0  0  0  0  0  0  0  0  0  0
    7.7141   -8.5961   29.9459 C   0  0  0  0  0  0  0  0  0  0  0  0
    6.8521   -7.7353   30.4064 N   0  0  0  0  0  0  0  0  0  0  0  0
    7.0165   -6.6090   29.6074 C   0  0  0  0  0  0  0  0  0  0  0  0
    6.3908   -5.3650   29.6005 C   0  0  0  0  0  0  0  0  0  0  0  0
    6.7738   -4.4173   28.6630 C   0  0  0  0  0  0  0  0  0  0  0  0
    7.7750   -4.6883   27.7263 C   0  0  0  0  0  0  0  0  0  0  0  0
    8.1986   -3.7514   26.7507 N   0  0  0  0  0  0  0  0  0  0  0  0
    8.3671   -2.4072   26.8123 C   0  0  0  0  0  0  0  0  0  0  0  0
    8.1694   -1.7016   27.7970 O   0  0  0  0  0  0  0  0  0  0  0  0
    8.8432   -1.7991   25.5104 C   0  0  0  0  0  0  0  0  0  0  0  0
    7.7397   -1.7270   24.4578 C   0  0  0  0  0  0  0  0  0  0  0  0
    8.3077   -1.1613   23.1677 C   0  0  0  0  0  0  0  0  0  0  0  0
    8.8524    0.1757   23.3816 N   0  0  0  0  0  0  0  0  0  0  0  0
    9.3152    0.7567   22.1127 C   0  0  0  0  0  0  0  0  0  0  0  0
    8.2752    0.6958   21.0198 C   0  0  0  0  0  0  0  0  0  0  0  0
    8.4632   -0.1055   19.9039 C   0  0  0  0  0  0  0  0  0  0  0  0
    7.5109   -0.1627   18.9020 C   0  0  0  0  0  0  0  0  0  0  0  0
    6.3460    0.5813   18.9944 C   0  0  0  0  0  0  0  0  0  0  0  0
    5.3313    0.5240   17.9252 C   0  0  0  0  0  0  0  0  0  0  0  0
    5.1862   -0.6480   17.2096 F   0  0  0  0  0  0  0  0  0  0  0  0
    6.1542    1.3843   20.1068 C   0  0  0  0  0  0  0  0  0  0  0  0
    7.1083    1.4395   21.1072 C   0  0  0  0  0  0  0  0  0  0  0  0
    9.9554    0.0869   24.3448 C   0  0  0  0  0  0  0  0  0  0  0  0
    9.4695   -0.4244   25.6921 C   0  0  0  0  0  0  0  0  0  0  0  0
    8.3971   -5.9342   27.7383 C   0  0  0  0  0  0  0  0  0  0  0  0
    7.9966   -6.8589   28.6821 C   0  0  0  0  0  0  0  0  0  0  0  0
    8.4619   -8.1419   28.8846 O   0  0  0  0  0  0  0  0  0  0  0  0
    8.7805  -10.9181   29.7992 C   0  0  0  0  0  0  0  0  0  0  0  0
    9.7074  -10.5702   28.1813 Br  0  0  0  0  0  0  0  0  0  0  0  0
    8.9594  -12.1841   30.3265 C   0  0  0  0  0  0  0  0  0  0  0  0
  1  2  1  0
  2  3  1  0
  3  4  2  0
  4  5  1  0
  5  6  2  0
  6  7  1  0
  7  8  2  0
  8  9  1  0
  9 10  2  0
 10 11  1  0
 11 12  2  0
 12 13  1  0
 13 14  1  0
 14 15  2  0
 14 16  1  0
 16 17  1  0
 17 18  1  0
 18 19  1  0
 19 20  1  0
 20 21  1  0
 21 22  2  0
 22 23  1  0
 23 24  2  0
 24 25  1  0
 25 26  1  0
 24 27  1  0
 27 28  2  0
 19 29  1  0
 29 30  1  0
 12 31  1  0
 31 32  2  0
 32 33  1  0
  6 34  1  0
 34 35  1  0
 34 36  2  0
 36  3  1  0
 33  7  1  0
 32  9  1  0
 30 16  1  0
 28 21  1  0
M  END
