CVD-0001703|dock_bobby27042020.66|mol2|20|dock1
     RDKit          3D

 28 31  0  0  0  0  0  0  0  0999 V2000
   15.0223   -2.3221   25.7036 Cl  0  0  0  0  0  0  0  0  0  0  0  0
   13.7190   -2.3396   24.5085 C   0  0  0  0  0  0  0  0  0  0  0  0
   13.0255   -0.9925   24.4373 C   0  0  0  0  0  0  0  0  0  0  0  0
   13.3633   -0.0892   25.1921 O   0  0  0  0  0  0  0  0  0  0  0  0
   12.0409   -0.8189   23.5237 N   0  0  0  0  0  0  0  0  0  0  0  0
   11.5482   -1.8257   22.5785 C   0  0  0  0  0  0  0  0  0  0  0  0
   10.0419   -1.8543   22.5690 C   0  0  0  0  0  0  0  0  0  0  0  0
    9.4950   -0.5253   22.2498 N   0  0  0  0  0  0  0  0  0  0  0  0
    9.9588    0.4077   23.2778 C   0  0  0  0  0  0  0  0  0  0  0  0
   11.4658    0.5032   23.2835 C   0  0  0  0  0  0  0  0  0  0  0  0
    8.0303   -0.5546   22.1916 C   0  0  0  0  0  0  0  0  0  0  0  0
    7.5015   -1.8615   22.6032 N   0  0  0  0  0  0  0  0  0  0  0  0
    6.6960   -2.6420   21.6395 C   0  0  0  0  0  0  0  0  0  0  0  0
    6.9377   -4.1417   21.7268 C   0  0  0  0  0  0  0  0  0  0  0  0
    5.9999   -4.9015   22.6829 C   0  0  0  0  0  0  0  0  0  0  0  0
    5.7082   -4.1107   23.8402 O   0  0  0  0  0  0  0  0  0  0  0  0
    6.8119   -3.4329   24.4314 C   0  0  0  0  0  0  0  0  0  0  0  0
    6.9453   -2.0061   23.9568 C   0  0  0  0  0  0  0  0  0  0  0  0
    7.4595   -0.1130   20.8515 C   0  0  0  0  0  0  0  0  0  0  0  0
    8.2193   -0.3266   19.7298 C   0  0  0  0  0  0  0  0  0  0  0  0
    7.7930    0.0409   18.4667 C   0  0  0  0  0  0  0  0  0  0  0  0
    6.5836    0.6376   18.2918 C   0  0  0  0  0  0  0  0  0  0  0  0
    5.7409    0.8891   19.3998 C   0  0  0  0  0  0  0  0  0  0  0  0
    4.4795    1.5096   19.2342 C   0  0  0  0  0  0  0  0  0  0  0  0
    3.6715    1.7481   20.3032 C   0  0  0  0  0  0  0  0  0  0  0  0
    4.0697    1.3849   21.5702 C   0  0  0  0  0  0  0  0  0  0  0  0
    5.2750    0.7836   21.7789 C   0  0  0  0  0  0  0  0  0  0  0  0
    6.1717    0.5093   20.7093 C   0  0  0  0  0  0  0  0  0  0  0  0
  1  2  1  0
  2  3  1  0
  3  4  2  0
  3  5  1  0
  5  6  1  0
  6  7  1  0
  7  8  1  0
  8  9  1  0
  9 10  1  0
  8 11  1  0
 11 12  1  0
 12 13  1  0
 13 14  1  0
 14 15  1  0
 15 16  1  0
 16 17  1  0
 17 18  1  0
 11 19  1  0
 19 20  2  0
 20 21  1  0
 21 22  2  0
 22 23  1  0
 23 24  2  0
 24 25  1  0
 25 26  2  0
 26 27  1  0
 27 28  2  0
 10  5  1  0
 18 12  1  0
 28 19  1  0
 28 23  1  0
M  END
