CVD-0001145|dock_bobby27042020.10|mol2|35|dock1
     RDKit          3D

 33 36  0  0  0  0  0  0  0  0999 V2000
   12.2115    2.7157   23.1042 N   0  0  0  0  0  0  0  0  0  0  0  0
   11.2817    1.8201   22.7480 C   0  0  0  0  0  0  0  0  0  0  0  0
    9.9395    1.9913   22.3826 C   0  0  0  0  0  0  0  0  0  0  0  0
    9.2059    3.6256   22.3345 S   0  0  0  0  0  0  0  0  0  0  0  0
    9.9063    4.4559   23.3586 O   0  0  0  0  0  0  0  0  0  0  0  0
    7.5979    3.1921   23.0280 C   0  0  0  0  0  0  0  0  0  0  0  0
    7.4927    2.2331   24.0225 C   0  0  0  0  0  0  0  0  0  0  0  0
    6.2438    1.9289   24.5326 C   0  0  0  0  0  0  0  0  0  0  0  0
    5.1413    2.6066   24.0197 C   0  0  0  0  0  0  0  0  0  0  0  0
    5.2264    3.5422   23.0540 N   0  0  0  0  0  0  0  0  0  0  0  0
    6.4469    3.8164   22.5792 C   0  0  0  0  0  0  0  0  0  0  0  0
    3.8102    2.3242   24.5202 C   0  0  0  0  0  0  0  0  0  0  0  0
    2.7590    2.0726   24.8901 N   0  0  0  0  0  0  0  0  0  0  0  0
    9.4324    0.6504   22.0985 C   0  0  0  0  0  0  0  0  0  0  0  0
   10.4159   -0.2077   22.2782 N   0  0  0  0  0  0  0  0  0  0  0  0
   11.5291    0.4988   22.6825 N   0  0  0  0  0  0  0  0  0  0  0  0
   12.7802   -0.2344   22.9412 C   0  0  0  0  0  0  0  0  0  0  0  0
   12.7995   -1.7173   22.5101 C   0  0  0  0  0  0  0  0  0  0  0  0
   13.1723   -2.1123   23.9510 C   0  0  0  0  0  0  0  0  0  0  0  0
   14.5386   -2.5285   24.0611 O   0  0  0  0  0  0  0  0  0  0  0  0
   12.9320   -0.6583   24.4159 C   0  0  0  0  0  0  0  0  0  0  0  0
    8.1376    0.1740   21.6868 N   0  0  0  0  0  0  0  0  0  0  0  0
    7.4990    0.7663   20.4930 C   0  0  0  0  0  0  0  0  0  0  0  0
    7.7575   -0.0725   19.2397 C   0  0  0  0  0  0  0  0  0  0  0  0
    6.1183   -0.4569   18.5506 S   0  0  0  0  0  0  0  0  0  0  0  0
    5.9642    0.1060   17.2372 O   0  0  0  0  0  0  0  0  0  0  0  0
    5.7977   -1.8493   18.7052 O   0  0  0  0  0  0  0  0  0  0  0  0
    5.2229    0.5166   19.7041 C   0  0  0  0  0  0  0  0  0  0  0  0
    6.0404    1.0481   20.6211 C   0  0  0  0  0  0  0  0  0  0  0  0
    7.4124   -0.8542   22.3449 C   0  0  0  0  0  0  0  0  0  0  0  0
    6.2115   -0.9655   22.1330 O   0  0  0  0  0  0  0  0  0  0  0  0
    8.0189   -1.8549   23.3157 C   0  0  0  0  0  0  0  0  0  0  0  0
    9.1102   -2.9862   22.5030 Cl  0  0  0  0  0  0  0  0  0  0  0  0
  1  2  1  0
  2  3  2  0
  3  4  1  0
  4  5  1  0
  4  6  1  0
  6  7  2  0
  7  8  1  0
  8  9  2  0
  9 10  1  0
 10 11  2  0
  9 12  1  0
 12 13  3  0
  3 14  1  0
 14 15  2  0
 15 16  1  0
 16 17  1  0
 17 18  1  0
 18 19  1  0
 19 20  1  0
 19 21  1  0
 14 22  1  0
 22 23  1  0
 23 24  1  0
 24 25  1  0
 25 26  2  0
 25 27  2  0
 25 28  1  0
 28 29  2  0
 22 30  1  0
 30 31  2  0
 30 32  1  0
 32 33  1  0
 16  2  1  0
 21 17  1  0
 29 23  1  0
 11  6  1  0
M  CHG  2   4   1   5  -1
M  END
