CVD-0001254|dock_bobby27042020.53|mol2|18|dock3
     RDKit          3D

 22 24  0  0  0  0  0  0  0  0999 V2000
   14.1056    5.7920   22.2338 C   0  0  0  0  0  0  0  0  0  0  0  0
   13.4293    5.1713   23.4159 C   0  0  0  0  0  0  0  0  0  0  0  0
   12.3139    4.3324   23.0108 N   0  0  0  0  0  0  0  0  0  0  0  0
   12.4341    3.0051   22.7369 C   0  0  0  0  0  0  0  0  0  0  0  0
   11.4004    2.3256   22.0942 C   0  0  0  0  0  0  0  0  0  0  0  0
   11.5578    0.9663   21.8290 C   0  0  0  0  0  0  0  0  0  0  0  0
   10.5665    0.2504   21.1955 N   0  0  0  0  0  0  0  0  0  0  0  0
    9.1599    0.5803   21.3185 C   0  0  0  0  0  0  0  0  0  0  0  0
    8.2590   -0.2449   20.4319 C   0  0  0  0  0  0  0  0  0  0  0  0
    7.6291    0.3221   19.3330 C   0  0  0  0  0  0  0  0  0  0  0  0
    6.8016   -0.4218   18.5082 C   0  0  0  0  0  0  0  0  0  0  0  0
    6.5961   -1.7697   18.7861 C   0  0  0  0  0  0  0  0  0  0  0  0
    5.8605   -2.7404   18.1816 N   0  0  0  0  0  0  0  0  0  0  0  0
    5.9727   -3.9359   18.8307 N   0  0  0  0  0  0  0  0  0  0  0  0
    6.7817   -3.7247   19.8505 C   0  0  0  0  0  0  0  0  0  0  0  0
    7.2180   -2.3762   19.8888 C   0  0  0  0  0  0  0  0  0  0  0  0
    8.0481   -1.5914   20.6998 C   0  0  0  0  0  0  0  0  0  0  0  0
   12.7566    0.3446   22.2270 C   0  0  0  0  0  0  0  0  0  0  0  0
   13.7309    1.1210   22.8665 C   0  0  0  0  0  0  0  0  0  0  0  0
   13.5751    2.4240   23.1168 N   0  0  0  0  0  0  0  0  0  0  0  0
   13.0069   -1.0549   21.9970 C   0  0  0  0  0  0  0  0  0  0  0  0
   13.2290   -2.1644   21.8398 N   0  0  0  0  0  0  0  0  0  0  0  0
  1  2  1  0
  2  3  1  0
  3  4  1  0
  4  5  2  0
  5  6  1  0
  6  7  1  0
  7  8  1  0
  8  9  1  0
  9 10  2  0
 10 11  1  0
 11 12  2  0
 12 13  1  0
 13 14  1  0
 14 15  2  0
 15 16  1  0
 16 17  2  0
  6 18  2  0
 18 19  1  0
 19 20  2  0
 18 21  1  0
 21 22  3  0
 20  4  1  0
 17  9  1  0
 16 12  1  0
M  END
