CVD-0000860|dock_bobby27042020.83|mol2|9|dock2
     RDKit          3D

 23 25  0  0  0  0  0  0  0  0999 V2000
   12.8123   -1.7091   21.4036 C   0  0  0  0  0  0  0  0  0  0  0  0
   12.5242   -1.1495   22.7990 C   0  0  0  0  0  0  0  0  0  0  0  0
   12.4487    0.3553   22.7742 C   0  0  0  0  0  0  0  0  0  0  0  0
   13.5969    1.1371   22.8978 C   0  0  0  0  0  0  0  0  0  0  0  0
   13.5287    2.5167   22.8681 C   0  0  0  0  0  0  0  0  0  0  0  0
   12.2973    3.1278   22.7127 C   0  0  0  0  0  0  0  0  0  0  0  0
   11.1334    2.3844   22.5865 C   0  0  0  0  0  0  0  0  0  0  0  0
   11.2046    0.9918   22.6169 C   0  0  0  0  0  0  0  0  0  0  0  0
   10.0337    0.2381   22.4855 N   0  0  0  0  0  0  0  0  0  0  0  0
    9.9813   -1.2039   22.6737 C   0  0  0  0  0  0  0  0  0  0  0  0
   11.2263   -1.7259   23.3586 C   0  0  0  0  0  0  0  0  0  0  0  0
   11.2621   -3.0864   23.2535 F   0  0  0  0  0  0  0  0  0  0  0  0
   11.1532   -1.4641   24.6960 F   0  0  0  0  0  0  0  0  0  0  0  0
    8.7162    0.8447   22.1975 C   0  0  0  0  0  0  0  0  0  0  0  0
    8.0468    1.3082   23.4856 C   0  0  0  0  0  0  0  0  0  0  0  0
    6.6953    1.9244   23.1450 C   0  0  0  0  0  0  0  0  0  0  0  0
    5.8661    1.0154   22.4474 O   0  0  0  0  0  0  0  0  0  0  0  0
    6.4544    0.6272   21.2060 C   0  0  0  0  0  0  0  0  0  0  0  0
    7.7920   -0.0814   21.4181 C   0  0  0  0  0  0  0  0  0  0  0  0
   12.2185    4.9145   22.6173 S   0  0  0  0  0  0  0  0  0  0  0  0
   13.1720    5.3049   21.1954 C   0  0  0  0  0  0  0  0  0  0  0  0
   10.7907    5.3181   22.3327 N   0  0  0  0  0  0  0  0  0  0  0  0
   12.9275    5.4436   23.7687 O   0  0  0  0  0  0  0  0  0  0  0  0
  2  1  1  0
  2  3  1  0
  3  4  2  0
  4  5  1  0
  5  6  2  0
  6  7  1  0
  7  8  2  0
  8  9  1  0
  9 10  1  0
 10 11  1  0
 11 12  1  0
 11 13  1  0
  9 14  1  0
 14 15  1  0
 15 16  1  0
 16 17  1  0
 17 18  1  0
 18 19  1  0
  6 20  1  0
 20 21  1  0
 20 22  2  0
 20 23  2  0
 11  2  1  0
 19 14  1  0
  8  3  1  0
M  END
