CVD-0001105|dock_bobby27042020.68|mol2|11|dock1
     RDKit          3D

 27 30  0  0  0  0  0  0  0  0999 V2000
    8.1672   -3.9948   22.0616 C   0  0  0  0  0  0  0  0  0  0  0  0
    7.6965   -3.5757   23.3762 N   0  0  0  0  0  0  0  0  0  0  0  0
    6.8261   -4.3266   24.1309 C   0  0  0  0  0  0  0  0  0  0  0  0
    6.5083   -3.6824   25.2747 C   0  0  0  0  0  0  0  0  0  0  0  0
    7.1906   -2.4275   25.2567 C   0  0  0  0  0  0  0  0  0  0  0  0
    7.2294   -1.3248   26.1227 C   0  0  0  0  0  0  0  0  0  0  0  0
    7.9891   -0.2117   25.8153 C   0  0  0  0  0  0  0  0  0  0  0  0
    8.7541   -0.1782   24.6616 C   0  0  0  0  0  0  0  0  0  0  0  0
    8.7704   -1.2775   23.8041 C   0  0  0  0  0  0  0  0  0  0  0  0
    9.6461   -1.2041   22.6633 N   0  0  0  0  0  0  0  0  0  0  0  0
   11.0711   -1.5230   22.9327 C   0  0  0  0  0  0  0  0  0  0  0  0
   11.2323   -2.2898   24.2413 C   0  0  0  0  0  0  0  0  0  0  0  0
   12.7071   -2.6431   24.4502 C   0  0  0  0  0  0  0  0  0  0  0  0
   13.6093   -1.4246   24.4235 C   0  0  0  0  0  0  0  0  0  0  0  0
   14.9859   -1.7778   24.5837 O   0  0  0  0  0  0  0  0  0  0  0  0
   13.3925   -0.6428   23.1374 C   0  0  0  0  0  0  0  0  0  0  0  0
   11.9224   -0.2632   22.9250 C   0  0  0  0  0  0  0  0  0  0  0  0
    9.1140   -0.8972   21.4065 C   0  0  0  0  0  0  0  0  0  0  0  0
    9.8569   -0.9815   20.4374 O   0  0  0  0  0  0  0  0  0  0  0  0
    7.8011   -0.5091   21.2919 N   0  0  0  0  0  0  0  0  0  0  0  0
    7.0430   -0.1441   20.1482 C   0  0  0  0  0  0  0  0  0  0  0  0
    5.7823    0.4028   20.3530 C   0  0  0  0  0  0  0  0  0  0  0  0
    5.0061    0.7746   19.2697 C   0  0  0  0  0  0  0  0  0  0  0  0
    5.5113    0.5900   18.0045 C   0  0  0  0  0  0  0  0  0  0  0  0
    6.7152    0.0685   17.7712 N   0  0  0  0  0  0  0  0  0  0  0  0
    7.4575   -0.2882   18.8241 C   0  0  0  0  0  0  0  0  0  0  0  0
    7.9560   -2.3971   24.0649 C   0  0  0  0  0  0  0  0  0  0  0  0
  1  2  1  0
  2  3  1  0
  3  4  2  0
  4  5  1  0
  5  6  2  0
  6  7  1  0
  7  8  2  0
  8  9  1  0
  9 10  1  0
 10 11  1  0
 11 12  1  0
 12 13  1  0
 13 14  1  0
 14 15  1  0
 14 16  1  0
 16 17  1  0
 10 18  1  0
 18 19  2  0
 18 20  1  0
 20 21  1  0
 21 22  2  0
 22 23  1  0
 23 24  2  0
 24 25  1  0
 25 26  2  0
  9 27  2  0
 27  2  1  0
 27  5  1  0
 17 11  1  0
 26 21  1  0
M  END
