CVD-0002588|dock_bobby27042020.33|mol2|37|dock1
     RDKit          3D

 37 40  0  0  0  0  0  0  0  0999 V2000
    8.6548   -4.5543   26.8698 C   0  0  0  0  0  0  0  0  0  0  0  0
    9.5419   -5.5632   26.2851 N   0  0  0  0  0  0  0  0  0  0  0  0
   10.3630   -5.0771   25.1711 C   0  0  0  0  0  0  0  0  0  0  0  0
    9.5152   -4.5927   24.0243 C   0  0  0  0  0  0  0  0  0  0  0  0
    9.7392   -3.4168   23.2874 C   0  0  0  0  0  0  0  0  0  0  0  0
    8.7815   -3.2787   22.2975 C   0  0  0  0  0  0  0  0  0  0  0  0
    8.6784   -2.1714   21.3082 C   0  0  0  0  0  0  0  0  0  0  0  0
    7.9963   -2.3459   20.1016 C   0  0  0  0  0  0  0  0  0  0  0  0
    7.8942   -1.3217   19.1757 C   0  0  0  0  0  0  0  0  0  0  0  0
    8.4742   -0.0908   19.4179 C   0  0  0  0  0  0  0  0  0  0  0  0
    9.1591    0.1194   20.6046 C   0  0  0  0  0  0  0  0  0  0  0  0
    9.7379    1.3788   20.8466 O   0  0  0  0  0  0  0  0  0  0  0  0
    9.4250    2.0523   21.9844 C   0  0  0  0  0  0  0  0  0  0  0  0
    8.3651    1.9442   22.5787 O   0  0  0  0  0  0  0  0  0  0  0  0
   10.5253    2.9569   22.4412 C   0  0  0  0  0  0  0  0  0  0  0  0
   10.4783    3.5795   23.6847 C   0  0  0  0  0  0  0  0  0  0  0  0
   11.5011    4.4142   24.0992 C   0  0  0  0  0  0  0  0  0  0  0  0
   12.5856    4.6309   23.2652 C   0  0  0  0  0  0  0  0  0  0  0  0
   12.6505    4.0222   22.0227 C   0  0  0  0  0  0  0  0  0  0  0  0
   11.6220    3.1897   21.6190 C   0  0  0  0  0  0  0  0  0  0  0  0
   13.8919    5.7008   23.7865 S   0  0  0  0  0  0  0  0  0  0  0  0
   13.9626    6.9431   22.7792 N   0  0  0  0  0  0  0  0  0  0  0  0
   13.5333    6.2184   25.0728 O   0  0  0  0  0  0  0  0  0  0  0  0
   15.1191    4.9750   23.6505 O   0  0  0  0  0  0  0  0  0  0  0  0
    9.2578   -0.9244   21.5218 C   0  0  0  0  0  0  0  0  0  0  0  0
    9.9492   -0.6815   22.6507 F   0  0  0  0  0  0  0  0  0  0  0  0
    7.9290   -4.4119   22.4358 N   0  0  0  0  0  0  0  0  0  0  0  0
    8.3933   -5.1990   23.4823 C   0  0  0  0  0  0  0  0  0  0  0  0
    6.5419   -4.9238   21.6025 S   0  0  0  0  0  0  0  0  0  0  0  0
    5.7926   -3.7296   21.3634 O   0  0  0  0  0  0  0  0  0  0  0  0
    6.9575   -5.7192   20.4896 O   0  0  0  0  0  0  0  0  0  0  0  0
    5.6208   -5.9033   22.7386 C   0  0  0  0  0  0  0  0  0  0  0  0
    4.7518   -5.3050   23.6348 C   0  0  0  0  0  0  0  0  0  0  0  0
    4.0513   -6.1127   24.5140 C   0  0  0  0  0  0  0  0  0  0  0  0
    4.2475   -7.4742   24.4623 C   0  0  0  0  0  0  0  0  0  0  0  0
    5.0826   -8.0640   23.6056 N   0  0  0  0  0  0  0  0  0  0  0  0
    5.7559   -7.2785   22.7599 C   0  0  0  0  0  0  0  0  0  0  0  0
  1  2  1  0
  2  3  1  0
  3  4  1  0
  4  5  1  0
  5  6  2  0
  6  7  1  0
  7  8  2  0
  8  9  1  0
  9 10  2  0
 10 11  1  0
 11 12  1  0
 12 13  1  0
 13 14  2  0
 13 15  1  0
 15 16  2  0
 16 17  1  0
 17 18  2  0
 18 19  1  0
 19 20  2  0
 18 21  1  0
 21 22  1  0
 21 23  2  0
 21 24  2  0
 11 25  2  0
 25 26  1  0
  6 27  1  0
 27 28  1  0
 27 29  1  0
 29 30  2  0
 29 31  2  0
 29 32  1  0
 32 33  2  0
 33 34  1  0
 34 35  2  0
 35 36  1  0
 36 37  2  0
 28  4  2  0
 37 32  1  0
 25  7  1  0
 20 15  1  0
M  END
