CVD-0002438|dock_bobby27042020.48|mol2|31|dock1
     RDKit          3D

 32 34  0  0  0  0  0  0  0  0999 V2000
   14.2642    6.2226   21.9566 C   0  0  0  0  0  0  0  0  0  0  0  0
   13.5674    5.0268   22.5363 C   0  0  0  0  0  0  0  0  0  0  0  0
   13.3882    4.9213   23.7450 O   0  0  0  0  0  0  0  0  0  0  0  0
   13.1542    4.1172   21.6428 N   0  0  0  0  0  0  0  0  0  0  0  0
   12.4430    2.8907   21.9801 C   0  0  0  0  0  0  0  0  0  0  0  0
   13.2360    2.0063   22.9562 C   0  0  0  0  0  0  0  0  0  0  0  0
   12.4595    0.7994   23.4242 C   0  0  0  0  0  0  0  0  0  0  0  0
   11.9155    0.7542   24.6974 C   0  0  0  0  0  0  0  0  0  0  0  0
   11.2055   -0.3506   25.1319 C   0  0  0  0  0  0  0  0  0  0  0  0
   11.0296   -1.4351   24.2901 C   0  0  0  0  0  0  0  0  0  0  0  0
   10.3190   -2.5143   24.7551 O   0  0  0  0  0  0  0  0  0  0  0  0
    9.6355   -3.3814   23.8461 C   0  0  0  0  0  0  0  0  0  0  0  0
    8.9155   -4.4621   24.6555 C   0  0  0  0  0  0  0  0  0  0  0  0
    9.9361   -5.4460   25.2955 C   0  0  0  0  0  0  0  0  0  0  0  0
    9.9723   -5.1406   26.7577 C   0  0  0  0  0  0  0  0  0  0  0  0
    8.9277   -4.1681   27.0481 C   0  0  0  0  0  0  0  0  0  0  0  0
    8.1693   -3.8049   25.8384 C   0  0  0  0  0  0  0  0  0  0  0  0
    7.9532   -5.1149   23.6966 C   0  0  0  0  0  0  0  0  0  0  0  0
    6.8009   -4.4779   23.2591 C   0  0  0  0  0  0  0  0  0  0  0  0
    5.9733   -5.1426   22.3703 C   0  0  0  0  0  0  0  0  0  0  0  0
    6.3052   -6.4103   21.9457 C   0  0  0  0  0  0  0  0  0  0  0  0
    7.4638   -6.9697   22.4326 C   0  0  0  0  0  0  0  0  0  0  0  0
    8.2814   -6.3477   23.2920 N   0  0  0  0  0  0  0  0  0  0  0  0
   11.5687   -1.4069   23.0123 C   0  0  0  0  0  0  0  0  0  0  0  0
   12.2763   -0.2940   22.5930 C   0  0  0  0  0  0  0  0  0  0  0  0
   11.0437    3.1648   22.5279 C   0  0  0  0  0  0  0  0  0  0  0  0
   10.8596    4.0965   23.3066 O   0  0  0  0  0  0  0  0  0  0  0  0
   10.0596    2.3635   22.1211 N   0  0  0  0  0  0  0  0  0  0  0  0
    8.6890    2.5454   22.5804 C   0  0  0  0  0  0  0  0  0  0  0  0
    8.1276    3.8426   22.1851 C   0  0  0  0  0  0  0  0  0  0  0  0
    7.7212    4.8988   21.8305 C   0  0  0  0  0  0  0  0  0  0  0  0
    7.1308    6.4929   21.2362 Br  0  0  0  0  0  0  0  0  0  0  0  0
  1  2  1  0
  2  3  2  0
  2  4  1  0
  4  5  1  0
  5  6  1  0
  6  7  1  0
  7  8  2  0
  8  9  1  0
  9 10  2  0
 10 11  1  0
 11 12  1  0
 12 13  1  0
 13 14  1  0
 14 15  1  0
 15 16  1  0
 16 17  1  0
 13 18  1  0
 18 19  2  0
 19 20  1  0
 20 21  2  0
 21 22  1  0
 22 23  2  0
 10 24  1  0
 24 25  2  0
  5 26  1  0
 26 27  2  0
 26 28  1  0
 28 29  1  0
 29 30  1  0
 30 31  3  0
 31 32  1  0
 25  7  1  0
 17 13  1  0
 23 18  1  0
M  END
