CVD-0002224|dock_bobby27042020.6|mol2|34|dock1
     RDKit          3D

 25 27  0  0  0  0  0  0  0  0999 V2000
    6.1357    0.5376   18.9997 C   0  0  0  0  0  0  0  0  0  0  0  0
    6.7824   -0.6033   19.7506 C   0  0  0  0  0  0  0  0  0  0  0  0
    5.9302   -1.0700   20.8073 O   0  0  0  0  0  0  0  0  0  0  0  0
    6.7240   -1.5082   21.9270 C   0  0  0  0  0  0  0  0  0  0  0  0
    8.1552   -1.4985   21.4167 C   0  0  0  0  0  0  0  0  0  0  0  0
    9.1945   -1.4810   22.3918 O   0  0  0  0  0  0  0  0  0  0  0  0
   10.4953   -1.3687   21.8710 C   0  0  0  0  0  0  0  0  0  0  0  0
   11.4934   -1.7456   22.8416 N   0  0  0  0  0  0  0  0  0  0  0  0
   11.3369   -0.9712   24.0786 C   0  0  0  0  0  0  0  0  0  0  0  0
   12.3417   -1.3881   25.1347 C   0  0  0  0  0  0  0  0  0  0  0  0
   13.7825   -1.2836   24.6497 C   0  0  0  0  0  0  0  0  0  0  0  0
   14.7438   -1.7905   25.5794 O   0  0  0  0  0  0  0  0  0  0  0  0
   13.8942   -2.0099   23.3138 C   0  0  0  0  0  0  0  0  0  0  0  0
   12.8464   -1.5479   22.3149 C   0  0  0  0  0  0  0  0  0  0  0  0
    8.1501   -0.3199   20.3990 C   0  0  0  0  0  0  0  0  0  0  0  0
    8.3297    0.9561   21.0109 O   0  0  0  0  0  0  0  0  0  0  0  0
    6.3177   -2.8577   22.3522 N   0  0  0  0  0  0  0  0  0  0  0  0
    6.2177   -3.8830   21.4420 C   0  0  0  0  0  0  0  0  0  0  0  0
    5.8524   -5.1118   21.7900 C   0  0  0  0  0  0  0  0  0  0  0  0
    5.7570   -6.1157   20.8844 N   0  0  0  0  0  0  0  0  0  0  0  0
    5.5534   -5.3684   23.1669 C   0  0  0  0  0  0  0  0  0  0  0  0
    5.1755   -6.5539   23.6552 N   0  0  0  0  0  0  0  0  0  0  0  0
    5.6507   -4.3677   24.0514 N   0  0  0  0  0  0  0  0  0  0  0  0
    6.0245   -3.1110   23.6929 C   0  0  0  0  0  0  0  0  0  0  0  0
    6.1096   -2.1993   24.5166 O   0  0  0  0  0  0  0  0  0  0  0  0
  1  2  1  0
  2  3  1  0
  3  4  1  0
  4  5  1  0
  5  6  1  0
  6  7  1  0
  7  8  1  0
  8  9  1  0
  9 10  1  0
 10 11  1  0
 11 12  1  0
 11 13  1  0
 13 14  1  0
  5 15  1  0
 15 16  1  0
  4 17  1  0
 17 18  1  0
 18 19  2  0
 19 20  1  0
 19 21  1  0
 21 22  1  0
 21 23  2  0
 23 24  1  0
 24 25  2  0
 15  2  1  0
 24 17  1  0
 14  8  1  0
M  END
