CVD-0004045|dock_bobby27042020.72|mol2|1|dock2
     RDKit          3D

 26 30  0  0  0  0  0  0  0  0999 V2000
    4.9158    0.0672   19.9308 C   0  0  0  0  0  0  0  0  0  0  0  0
    6.3125    0.2122   20.4689 C   0  0  0  0  0  0  0  0  0  0  0  0
    7.1070   -0.9570   20.7922 C   0  0  0  0  0  0  0  0  0  0  0  0
    8.3293   -0.9255   21.2723 N   0  0  0  0  0  0  0  0  0  0  0  0
    8.8670    0.3021   21.4781 C   0  0  0  0  0  0  0  0  0  0  0  0
   10.1447    0.7494   21.9687 C   0  0  0  0  0  0  0  0  0  0  0  0
   10.0410    2.1767   21.9547 C   0  0  0  0  0  0  0  0  0  0  0  0
    8.8682    2.5720   21.4535 N   0  0  0  0  0  0  0  0  0  0  0  0
    8.1485    1.4390   21.1837 N   0  0  0  0  0  0  0  0  0  0  0  0
    6.8897    1.4136   20.6884 C   0  0  0  0  0  0  0  0  0  0  0  0
   10.9486    3.2597   22.3927 C   0  0  0  0  0  0  0  0  0  0  0  0
   10.4038    4.4661   22.8201 C   0  0  0  0  0  0  0  0  0  0  0  0
   11.2104    5.5160   23.2212 C   0  0  0  0  0  0  0  0  0  0  0  0
   12.5664    5.3410   23.1926 C   0  0  0  0  0  0  0  0  0  0  0  0
   13.3661    6.3738   23.5727 F   0  0  0  0  0  0  0  0  0  0  0  0
   13.1509    4.1690   22.7987 C   0  0  0  0  0  0  0  0  0  0  0  0
   12.3332    3.1219   22.4119 C   0  0  0  0  0  0  0  0  0  0  0  0
   11.2514   -0.1820   22.3561 C   0  0  0  0  0  0  0  0  0  0  0  0
   11.5991   -1.2784   21.5702 C   0  0  0  0  0  0  0  0  0  0  0  0
   12.6275   -2.1327   21.9316 C   0  0  0  0  0  0  0  0  0  0  0  0
   13.3200   -1.9038   23.1155 C   0  0  0  0  0  0  0  0  0  0  0  0
   14.3476   -2.5489   23.7290 N   0  0  0  0  0  0  0  0  0  0  0  0
   14.6938   -1.9435   24.9021 N   0  0  0  0  0  0  0  0  0  0  0  0
   13.8858   -0.9095   25.0326 C   0  0  0  0  0  0  0  0  0  0  0  0
   12.9882   -0.8169   23.9387 C   0  0  0  0  0  0  0  0  0  0  0  0
   11.9499    0.0356   23.5401 C   0  0  0  0  0  0  0  0  0  0  0  0
  1  2  1  0
  2  3  1  0
  3  4  2  0
  4  5  1  0
  5  6  2  0
  6  7  1  0
  7  8  2  0
  8  9  1  0
  9 10  1  0
  7 11  1  0
 11 12  2  0
 12 13  1  0
 13 14  2  0
 14 15  1  0
 14 16  1  0
 16 17  2  0
  6 18  1  0
 18 19  2  0
 19 20  1  0
 20 21  2  0
 21 22  1  0
 22 23  1  0
 23 24  2  0
 24 25  1  0
 25 26  2  0
 10  2  2  0
 17 11  1  0
 26 18  1  0
  9  5  1  0
 25 21  1  0
M  END
