CVD-0002752|dock_bobby27042020.90|mol2|18|dock1
     RDKit          3D

 14 15  0  0  0  0  0  0  0  0999 V2000
   11.0339   -1.7661   21.3843 N   0  0  0  0  0  0  0  0  0  0  0  0
   12.2235   -1.7862   21.9639 C   0  0  0  0  0  0  0  0  0  0  0  0
   13.2625   -1.7316   21.3022 O   0  0  0  0  0  0  0  0  0  0  0  0
   12.1910   -1.8868   23.4801 C   0  0  0  0  0  0  0  0  0  0  0  0
   13.5577   -2.3953   23.9672 C   0  0  0  0  0  0  0  0  0  0  0  0
   13.9586   -1.4750   25.1186 C   0  0  0  0  0  0  0  0  0  0  0  0
   14.0018   -2.1683   26.3691 O   0  0  0  0  0  0  0  0  0  0  0  0
   13.0186   -0.4968   25.2289 C   0  0  0  0  0  0  0  0  0  0  0  0
   11.8878   -0.6055   24.3307 C   0  0  0  0  0  0  0  0  0  0  0  0
   11.5265    0.6715   23.6090 C   0  0  0  0  0  0  0  0  0  0  0  0
   12.4313    1.4282   22.8092 C   0  0  0  0  0  0  0  0  0  0  0  0
   11.8796    2.5420   22.2510 C   0  0  0  0  0  0  0  0  0  0  0  0
   10.2468    2.6695   22.7025 S   0  0  0  0  0  0  0  0  0  0  0  0
   10.2902    1.2456   23.6303 C   0  0  0  0  0  0  0  0  0  0  0  0
  1  2  1  0
  2  3  2  0
  4  2  1  0
  4  5  1  0
  5  6  1  0
  6  7  1  0
  6  8  1  0
  8  9  1  0
  9 10  1  0
 10 11  1  0
 11 12  2  0
 12 13  1  0
 13 14  1  0
  9  4  1  0
 14 10  2  0
M  END
