CVD-0002276|dock_bobby27042020.6|mol2|26|dock2
     RDKit          3D

 40 43  0  0  0  0  0  0  0  0999 V2000
    5.9031    8.6020   20.6627 C   0  0  0  0  0  0  0  0  0  0  0  0
    6.8240    7.4924   20.9229 N   0  0  0  0  0  0  0  0  0  0  0  0
    6.9648    7.1397   22.3398 C   0  0  0  0  0  0  0  0  0  0  0  0
    7.9721    6.0384   22.5422 C   0  0  0  0  0  0  0  0  0  0  0  0
    7.6860    4.6626   22.5326 C   0  0  0  0  0  0  0  0  0  0  0  0
    8.8397    3.9271   22.7454 C   0  0  0  0  0  0  0  0  0  0  0  0
    8.9417    2.4431   22.8102 C   0  0  0  0  0  0  0  0  0  0  0  0
    9.5869    1.7991   23.8688 C   0  0  0  0  0  0  0  0  0  0  0  0
    9.6800    0.4211   23.9383 C   0  0  0  0  0  0  0  0  0  0  0  0
    9.1221   -0.3834   22.9589 C   0  0  0  0  0  0  0  0  0  0  0  0
    8.4730    0.2309   21.9010 C   0  0  0  0  0  0  0  0  0  0  0  0
    8.4021    1.5998   21.8435 C   0  0  0  0  0  0  0  0  0  0  0  0
    7.7681    2.1160   20.7660 F   0  0  0  0  0  0  0  0  0  0  0  0
    9.2197   -1.8999   23.0317 C   0  0  0  0  0  0  0  0  0  0  0  0
    8.8419   -2.5676   21.7129 C   0  0  0  0  0  0  0  0  0  0  0  0
    8.3424   -2.3988   24.1241 N   0  0  0  0  0  0  0  0  0  0  0  0
    7.1863   -1.5764   24.4705 C   0  0  0  0  0  0  0  0  0  0  0  0
    8.6384   -3.5615   24.7520 C   0  0  0  0  0  0  0  0  0  0  0  0
    9.6106   -4.2246   24.4443 O   0  0  0  0  0  0  0  0  0  0  0  0
    7.7407   -4.0454   25.8738 C   0  0  0  0  0  0  0  0  0  0  0  0
    8.5367   -4.8348   26.9057 C   0  0  0  0  0  0  0  0  0  0  0  0
    7.6259   -5.3475   28.0022 C   0  0  0  0  0  0  0  0  0  0  0  0
    6.5661   -6.1707   27.4260 N   0  0  0  0  0  0  0  0  0  0  0  0
    5.7417   -5.4401   26.4694 C   0  0  0  0  0  0  0  0  0  0  0  0
    6.6079   -4.9132   25.3302 C   0  0  0  0  0  0  0  0  0  0  0  0
    6.1620   -7.3748   27.8902 C   0  0  0  0  0  0  0  0  0  0  0  0
    5.2713   -7.9987   27.3274 O   0  0  0  0  0  0  0  0  0  0  0  0
    6.8417   -7.9441   29.1209 C   0  0  0  0  0  0  0  0  0  0  0  0
    6.5825   -6.8892   30.5163 Cl  0  0  0  0  0  0  0  0  0  0  0  0
    9.8808    4.8916   22.8815 N   0  0  0  0  0  0  0  0  0  0  0  0
    9.3350    6.1631   22.7577 C   0  0  0  0  0  0  0  0  0  0  0  0
   11.5533    4.7695   23.1435 S   0  0  0  0  0  0  0  0  0  0  0  0
   11.7523    3.4394   23.6294 O   0  0  0  0  0  0  0  0  0  0  0  0
   12.2079    5.1721   21.9372 O   0  0  0  0  0  0  0  0  0  0  0  0
   11.9583    5.8696   24.4560 C   0  0  0  0  0  0  0  0  0  0  0  0
   11.1702    5.9235   25.5929 C   0  0  0  0  0  0  0  0  0  0  0  0
   11.5282    6.7995   26.6029 C   0  0  0  0  0  0  0  0  0  0  0  0
   12.6509    7.5787   26.4369 C   0  0  0  0  0  0  0  0  0  0  0  0
   13.4202    7.5360   25.3482 N   0  0  0  0  0  0  0  0  0  0  0  0
   13.0691    6.6880   24.3771 C   0  0  0  0  0  0  0  0  0  0  0  0
  1  2  1  0
  2  3  1  0
  3  4  1  0
  4  5  1  0
  5  6  2  0
  6  7  1  0
  7  8  2  0
  8  9  1  0
  9 10  2  0
 10 11  1  0
 11 12  2  0
 12 13  1  0
 10 14  1  0
 14 15  1  0
 14 16  1  0
 16 17  1  0
 16 18  1  0
 18 19  2  0
 18 20  1  0
 20 21  1  0
 21 22  1  0
 22 23  1  0
 23 24  1  0
 24 25  1  0
 23 26  1  0
 26 27  2  0
 26 28  1  0
 28 29  1  0
  6 30  1  0
 30 31  1  0
 30 32  1  0
 32 33  2  0
 32 34  2  0
 32 35  1  0
 35 36  2  0
 36 37  1  0
 37 38  2  0
 38 39  1  0
 39 40  2  0
 31  4  2  0
 40 35  1  0
 12  7  1  0
 25 20  1  0
M  END
