CVD-0003912|dock_bobby27042020.15|mol2|11|dock3
     RDKit          3D

 24 27  0  0  0  0  0  0  0  0999 V2000
   12.0878    2.8882   22.5087 C   0  0  0  0  0  0  0  0  0  0  0  0
   12.9136    1.7982   23.1878 C   0  0  0  0  0  0  0  0  0  0  0  0
   12.5403    0.4114   22.7228 C   0  0  0  0  0  0  0  0  0  0  0  0
   13.4257   -0.3762   22.0066 C   0  0  0  0  0  0  0  0  0  0  0  0
   13.0236   -1.6352   21.6070 C   0  0  0  0  0  0  0  0  0  0  0  0
   11.8151   -2.1506   21.8706 N   0  0  0  0  0  0  0  0  0  0  0  0
   10.9525   -1.3916   22.5609 C   0  0  0  0  0  0  0  0  0  0  0  0
    9.5948   -1.9865   22.8527 C   0  0  0  0  0  0  0  0  0  0  0  0
    8.4607   -1.2038   22.2229 C   0  0  0  0  0  0  0  0  0  0  0  0
    7.3829   -0.8142   23.0051 C   0  0  0  0  0  0  0  0  0  0  0  0
    6.3408   -0.1069   22.4866 C   0  0  0  0  0  0  0  0  0  0  0  0
    6.3201    0.2599   21.1207 C   0  0  0  0  0  0  0  0  0  0  0  0
    5.2643    0.9935   20.5291 C   0  0  0  0  0  0  0  0  0  0  0  0
    5.3016    1.3179   19.2053 C   0  0  0  0  0  0  0  0  0  0  0  0
    6.3669    0.9389   18.4151 C   0  0  0  0  0  0  0  0  0  0  0  0
    7.4074    0.2311   18.9397 C   0  0  0  0  0  0  0  0  0  0  0  0
    7.4142   -0.1293   20.3082 C   0  0  0  0  0  0  0  0  0  0  0  0
    8.4708   -0.8624   20.8956 C   0  0  0  0  0  0  0  0  0  0  0  0
   11.2878   -0.1202   22.9948 C   0  0  0  0  0  0  0  0  0  0  0  0
   12.7397    4.2421   22.5899 C   0  0  0  0  0  0  0  0  0  0  0  0
   13.6300    4.8427   21.6694 C   0  0  0  0  0  0  0  0  0  0  0  0
   13.9944    6.0530   22.0732 N   0  0  0  0  0  0  0  0  0  0  0  0
   13.3457    6.2381   23.2421 N   0  0  0  0  0  0  0  0  0  0  0  0
   12.5918    5.1852   23.5772 C   0  0  0  0  0  0  0  0  0  0  0  0
  1  2  1  0
  2  3  1  0
  3  4  2  0
  4  5  1  0
  5  6  2  0
  6  7  1  0
  7  8  1  0
  8  9  1  0
  9 10  2  0
 10 11  1  0
 11 12  2  0
 12 13  1  0
 13 14  2  0
 14 15  1  0
 15 16  2  0
 16 17  1  0
 17 18  2  0
  7 19  2  0
  1 20  1  0
 20 21  1  0
 21 22  2  0
 22 23  1  0
 23 24  1  0
 19  3  1  0
 24 20  2  0
 18  9  1  0
 17 12  1  0
M  END
