CVD-0003851|dock_bobby27042020.0|mol2|35|dock3
     RDKit          3D

 23 25  0  0  0  0  0  0  0  0999 V2000
   12.9645    6.0755   23.4819 N   0  0  0  0  0  0  0  0  0  0  0  0
   13.4480    4.9779   22.4214 S   0  0  0  0  0  0  0  0  0  0  0  0
   13.1729    5.4998   21.1165 O   0  0  0  0  0  0  0  0  0  0  0  0
   14.7960    4.6298   22.7572 O   0  0  0  0  0  0  0  0  0  0  0  0
   12.4611    3.5266   22.6282 C   0  0  0  0  0  0  0  0  0  0  0  0
   11.0834    3.6314   22.6869 C   0  0  0  0  0  0  0  0  0  0  0  0
   10.3162    2.4917   22.8510 C   0  0  0  0  0  0  0  0  0  0  0  0
   10.9005    1.2314   22.9432 C   0  0  0  0  0  0  0  0  0  0  0  0
   12.2884    1.1538   22.8724 C   0  0  0  0  0  0  0  0  0  0  0  0
   13.0677    2.2872   22.7227 C   0  0  0  0  0  0  0  0  0  0  0  0
   10.1263    0.0863   23.1006 N   0  0  0  0  0  0  0  0  0  0  0  0
    9.9493   -0.9067   22.0369 C   0  0  0  0  0  0  0  0  0  0  0  0
   10.1075   -2.3122   22.5442 C   0  0  0  0  0  0  0  0  0  0  0  0
    9.1403   -2.5918   23.6999 C   0  0  0  0  0  0  0  0  0  0  0  0
    9.2868   -4.0158   24.2241 C   0  0  0  0  0  0  0  0  0  0  0  0
    8.6786   -4.2698   25.5360 N   0  0  0  0  0  0  0  0  0  0  0  0
    7.2254   -4.3673   25.4236 C   0  0  0  0  0  0  0  0  0  0  0  0
    6.5793   -4.3815   26.7843 C   0  0  0  0  0  0  0  0  0  0  0  0
    7.0574   -5.8333   27.7549 S   0  0  0  0  0  0  0  0  0  0  0  0
    8.8402   -5.6554   27.5579 C   0  0  0  0  0  0  0  0  0  0  0  0
    9.2474   -5.4839   26.1199 C   0  0  0  0  0  0  0  0  0  0  0  0
    9.3554   -1.5540   24.7726 C   0  0  0  0  0  0  0  0  0  0  0  0
    9.2283   -0.1363   24.2576 C   0  0  0  0  0  0  0  0  0  0  0  0
  1  2  1  0
  2  3  2  0
  2  4  2  0
  2  5  1  0
  5  6  2  0
  6  7  1  0
  7  8  2  0
  8  9  1  0
  9 10  2  0
  8 11  1  0
 11 12  1  0
 12 13  1  0
 13 14  1  0
 14 15  1  0
 15 16  1  0
 16 17  1  0
 17 18  1  0
 18 19  1  0
 19 20  1  0
 20 21  1  0
 14 22  1  0
 22 23  1  0
 10  5  1  0
 23 11  1  0
 21 16  1  0
M  END
