CVD-0003283|dock_bobby27042020.74|mol2|22|dock2
     RDKit          3D

 23 24  0  0  0  0  0  0  0  0999 V2000
   12.1008    6.5951   25.0133 C   0  0  0  0  0  0  0  0  0  0  0  0
   12.8512    6.0085   23.8538 C   0  0  0  0  0  0  0  0  0  0  0  0
   13.6164    6.6801   23.1691 O   0  0  0  0  0  0  0  0  0  0  0  0
   12.6508    4.7099   23.6210 N   0  0  0  0  0  0  0  0  0  0  0  0
   13.3192    3.9932   22.5443 C   0  0  0  0  0  0  0  0  0  0  0  0
   13.2671    2.4920   22.7471 C   0  0  0  0  0  0  0  0  0  0  0  0
   11.8985    1.9063   22.5140 C   0  0  0  0  0  0  0  0  0  0  0  0
   10.7443    2.5813   22.1850 C   0  0  0  0  0  0  0  0  0  0  0  0
    9.7340    1.6766   22.1125 N   0  0  0  0  0  0  0  0  0  0  0  0
   10.2102    0.4133   22.3903 C   0  0  0  0  0  0  0  0  0  0  0  0
    9.4616   -0.8819   22.3822 C   0  0  0  0  0  0  0  0  0  0  0  0
    8.5893   -1.0483   21.1317 C   0  0  0  0  0  0  0  0  0  0  0  0
    7.3488   -0.1732   21.0621 C   0  0  0  0  0  0  0  0  0  0  0  0
    6.2343   -0.9438   20.4975 N   0  0  0  0  0  0  0  0  0  0  0  0
    5.9976   -0.9500   18.9119 S   0  0  0  0  0  0  0  0  0  0  0  0
    5.0960    0.4948   18.5040 C   0  0  0  0  0  0  0  0  0  0  0  0
    5.1774   -2.0836   18.6152 O   0  0  0  0  0  0  0  0  0  0  0  0
    7.2851   -0.8586   18.2956 O   0  0  0  0  0  0  0  0  0  0  0  0
   10.3766   -2.0336   22.5040 C   0  0  0  0  0  0  0  0  0  0  0  0
   11.6297   -1.8919   23.1161 C   0  0  0  0  0  0  0  0  0  0  0  0
   12.3963   -2.9386   22.5666 F   0  0  0  0  0  0  0  0  0  0  0  0
   12.4114   -0.6179   23.0231 C   0  0  0  0  0  0  0  0  0  0  0  0
   11.5449    0.5448   22.6393 C   0  0  0  0  0  0  0  0  0  0  0  0
  1  2  1  0
  2  3  2  0
  2  4  1  0
  4  5  1  0
  5  6  1  0
  6  7  1  0
  7  8  2  0
  8  9  1  0
  9 10  1  0
 10 11  1  0
 11 12  1  0
 12 13  1  0
 13 14  1  0
 14 15  1  0
 15 16  1  0
 15 17  2  0
 15 18  2  0
 11 19  1  0
 19 20  1  0
 20 21  1  0
 20 22  1  0
 22 23  1  0
 23  7  1  0
 23 10  2  0
M  END
