CVD-0001662|dock_bobby27042020.52|mol2|2|dock1
     RDKit          3D

 19 20  0  0  0  0  0  0  0  0999 V2000
   13.6982   -0.8078   22.3000 C   0  0  0  0  0  0  0  0  0  0  0  0
   12.6297   -1.3240   23.2315 C   0  0  0  0  0  0  0  0  0  0  0  0
   12.6442   -2.7241   23.1459 O   0  0  0  0  0  0  0  0  0  0  0  0
   11.3133   -0.7783   22.8904 N   0  0  0  0  0  0  0  0  0  0  0  0
   10.7461   -1.2350   21.6295 C   0  0  0  0  0  0  0  0  0  0  0  0
    9.4925   -0.4496   21.3106 C   0  0  0  0  0  0  0  0  0  0  0  0
    8.4801   -0.6258   22.3626 N   0  0  0  0  0  0  0  0  0  0  0  0
    7.2819    0.1570   22.0280 C   0  0  0  0  0  0  0  0  0  0  0  0
    6.6823   -0.2235   20.6943 C   0  0  0  0  0  0  0  0  0  0  0  0
    6.4855    0.7481   19.7183 C   0  0  0  0  0  0  0  0  0  0  0  0
    5.9404    0.4126   18.4825 C   0  0  0  0  0  0  0  0  0  0  0  0
    5.6014   -0.9161   18.2537 C   0  0  0  0  0  0  0  0  0  0  0  0
    5.7739   -1.8797   19.1639 N   0  0  0  0  0  0  0  0  0  0  0  0
    6.3006   -1.5608   20.3699 C   0  0  0  0  0  0  0  0  0  0  0  0
    6.4455   -2.5608   21.2447 N   0  0  0  0  0  0  0  0  0  0  0  0
    5.7351    1.4196   17.4708 C   0  0  0  0  0  0  0  0  0  0  0  0
    5.5923    2.1999   16.6490 N   0  0  0  0  0  0  0  0  0  0  0  0
    9.0567   -0.2012   23.6436 C   0  0  0  0  0  0  0  0  0  0  0  0
   10.3207   -0.9741   23.9464 C   0  0  0  0  0  0  0  0  0  0  0  0
  2  1  1  0
  2  3  1  0
  2  4  1  0
  4  5  1  0
  5  6  1  0
  6  7  1  0
  7  8  1  0
  8  9  1  0
  9 10  2  0
 10 11  1  0
 11 12  2  0
 12 13  1  0
 13 14  2  0
 14 15  1  0
 11 16  1  0
 16 17  3  0
  7 18  1  0
 18 19  1  0
 19  4  1  0
 14  9  1  0
M  END
