CVD-0000279|dock_bobby27042020.27|mol2|37|dock2
     RDKit          3D

 28 30  0  0  0  0  0  0  0  0999 V2000
   12.4668   -2.0411   21.3373 O   0  0  0  0  0  0  0  0  0  0  0  0
   11.9724   -1.2535   22.4098 C   0  0  0  0  0  0  0  0  0  0  0  0
   10.5948   -1.7611   22.8160 C   0  0  0  0  0  0  0  0  0  0  0  0
   10.3212   -1.8212   24.0114 O   0  0  0  0  0  0  0  0  0  0  0  0
    9.7805   -2.1143   21.7902 N   0  0  0  0  0  0  0  0  0  0  0  0
    8.4542   -2.6258   21.8000 C   0  0  0  0  0  0  0  0  0  0  0  0
    8.0462   -3.5670   22.7475 C   0  0  0  0  0  0  0  0  0  0  0  0
    6.7389   -4.0184   22.7634 C   0  0  0  0  0  0  0  0  0  0  0  0
    5.8225   -3.5382   21.8583 C   0  0  0  0  0  0  0  0  0  0  0  0
    6.2016   -2.6161   20.9007 C   0  0  0  0  0  0  0  0  0  0  0  0
    7.5238   -2.1729   20.8430 C   0  0  0  0  0  0  0  0  0  0  0  0
    7.9170   -1.2701   19.8053 N   0  0  0  0  0  0  0  0  0  0  0  0
    6.9184   -0.6968   18.6468 S   0  0  0  0  0  0  0  0  0  0  0  0
    6.1999   -1.8177   18.1220 O   0  0  0  0  0  0  0  0  0  0  0  0
    7.7267    0.0930   17.7690 O   0  0  0  0  0  0  0  0  0  0  0  0
    5.7689    0.3802   19.4335 C   0  0  0  0  0  0  0  0  0  0  0  0
    5.8015    0.5291   20.8105 C   0  0  0  0  0  0  0  0  0  0  0  0
    4.9007    1.3794   21.4269 C   0  0  0  0  0  0  0  0  0  0  0  0
    3.9994    2.0531   20.6482 C   0  0  0  0  0  0  0  0  0  0  0  0
    3.1140    2.8885   21.2556 F   0  0  0  0  0  0  0  0  0  0  0  0
    3.9476    1.9253   19.2868 C   0  0  0  0  0  0  0  0  0  0  0  0
    4.8472    1.0756   18.6678 C   0  0  0  0  0  0  0  0  0  0  0  0
   12.9128   -1.3148   23.5980 C   0  0  0  0  0  0  0  0  0  0  0  0
   13.7807   -2.3802   23.7805 C   0  0  0  0  0  0  0  0  0  0  0  0
   14.6219   -2.4017   24.8793 C   0  0  0  0  0  0  0  0  0  0  0  0
   14.5682   -1.3511   25.7674 C   0  0  0  0  0  0  0  0  0  0  0  0
   13.7444   -0.3119   25.6217 N   0  0  0  0  0  0  0  0  0  0  0  0
   12.9412   -0.3124   24.5535 C   0  0  0  0  0  0  0  0  0  0  0  0
  1  2  1  0
  2  3  1  0
  3  4  2  0
  3  5  1  0
  5  6  1  0
  6  7  2  0
  7  8  1  0
  8  9  2  0
  9 10  1  0
 10 11  2  0
 11 12  1  0
 12 13  1  0
 13 14  2  0
 13 15  2  0
 13 16  1  0
 16 17  2  0
 17 18  1  0
 18 19  2  0
 19 20  1  0
 19 21  1  0
 21 22  2  0
  2 23  1  0
 23 24  2  0
 24 25  1  0
 25 26  2  0
 26 27  1  0
 27 28  2  0
 11  6  1  0
 22 16  1  0
 28 23  1  0
M  END
