CVD-0003767|dock_bobby27042020.1|mol2|5|dock1
     RDKit          3D

 21 23  0  0  0  0  0  0  0  0999 V2000
    4.3678    1.4776   20.9117 C   0  0  0  0  0  0  0  0  0  0  0  0
    5.3656    1.1185   19.8426 C   0  0  0  0  0  0  0  0  0  0  0  0
    5.2070    1.5560   18.5280 C   0  0  0  0  0  0  0  0  0  0  0  0
    6.1384    1.2078   17.5653 C   0  0  0  0  0  0  0  0  0  0  0  0
    7.2200    0.4541   17.8092 N   0  0  0  0  0  0  0  0  0  0  0  0
    7.3543    0.0410   19.0802 C   0  0  0  0  0  0  0  0  0  0  0  0
    8.3450   -0.7322   19.6203 N   0  0  0  0  0  0  0  0  0  0  0  0
    8.0495   -0.8850   20.9329 C   0  0  0  0  0  0  0  0  0  0  0  0
    8.8997   -1.6622   21.8605 C   0  0  0  0  0  0  0  0  0  0  0  0
   10.3090   -1.0979   22.0623 C   0  0  0  0  0  0  0  0  0  0  0  0
   11.3268   -2.1713   22.4417 C   0  0  0  0  0  0  0  0  0  0  0  0
   12.6932   -1.5890   22.7422 C   0  0  0  0  0  0  0  0  0  0  0  0
   12.5953   -0.5258   23.7474 N   0  0  0  0  0  0  0  0  0  0  0  0
   11.7156    0.5641   23.3409 C   0  0  0  0  0  0  0  0  0  0  0  0
   10.3253    0.0197   23.0975 C   0  0  0  0  0  0  0  0  0  0  0  0
   13.3046   -0.4589   24.8936 C   0  0  0  0  0  0  0  0  0  0  0  0
   13.1574    0.4625   25.6867 O   0  0  0  0  0  0  0  0  0  0  0  0
   14.2904   -1.5790   25.1647 C   0  0  0  0  0  0  0  0  0  0  0  0
   13.4840   -3.1190   25.4900 Cl  0  0  0  0  0  0  0  0  0  0  0  0
    6.9406   -0.2623   21.2875 N   0  0  0  0  0  0  0  0  0  0  0  0
    6.4889    0.3284   20.1167 C   0  0  0  0  0  0  0  0  0  0  0  0
  1  2  1  0
  2  3  2  0
  3  4  1  0
  4  5  2  0
  5  6  1  0
  6  7  1  0
  7  8  1  0
  8  9  1  0
  9 10  1  0
 10 11  1  0
 11 12  1  0
 12 13  1  0
 13 14  1  0
 14 15  1  0
 13 16  1  0
 16 17  2  0
 16 18  1  0
 18 19  1  0
  8 20  2  0
 20 21  1  0
 21  2  1  0
 21  6  2  0
 15 10  1  0
M  END
