CVD-0002904|dock_bobby27042020.75|mol2|31|dock1
     RDKit          3D

 20 22  0  0  0  0  0  0  0  0999 V2000
   13.4420   -1.8404   22.4495 C   0  0  0  0  0  0  0  0  0  0  0  0
   12.4407   -1.0128   21.7718 N   0  0  0  0  0  0  0  0  0  0  0  0
   11.1894   -0.8187   22.5437 C   0  0  0  0  0  0  0  0  0  0  0  0
   10.1932    0.0961   21.8346 C   0  0  0  0  0  0  0  0  0  0  0  0
    8.8781    0.2032   22.5798 C   0  0  0  0  0  0  0  0  0  0  0  0
    8.3253   -1.1274   22.8523 N   0  0  0  0  0  0  0  0  0  0  0  0
    9.2239   -1.9693   23.6338 C   0  0  0  0  0  0  0  0  0  0  0  0
   10.5236   -2.1468   22.8803 C   0  0  0  0  0  0  0  0  0  0  0  0
    7.0825   -1.5430   22.5328 C   0  0  0  0  0  0  0  0  0  0  0  0
    6.6950   -2.6758   22.7900 O   0  0  0  0  0  0  0  0  0  0  0  0
    6.1627   -0.5498   21.8450 C   0  0  0  0  0  0  0  0  0  0  0  0
    6.5238   -0.2890   20.4133 C   0  0  0  0  0  0  0  0  0  0  0  0
    7.5601   -0.8323   19.7121 C   0  0  0  0  0  0  0  0  0  0  0  0
    7.5743   -0.3564   18.4279 N   0  0  0  0  0  0  0  0  0  0  0  0
    6.5347    0.5133   18.2752 C   0  0  0  0  0  0  0  0  0  0  0  0
    6.1989    1.1958   17.1675 N   0  0  0  0  0  0  0  0  0  0  0  0
    5.1277    1.9950   17.2657 C   0  0  0  0  0  0  0  0  0  0  0  0
    4.3814    2.1418   18.4155 C   0  0  0  0  0  0  0  0  0  0  0  0
    4.7418    1.4304   19.5491 C   0  0  0  0  0  0  0  0  0  0  0  0
    5.8484    0.5852   19.4991 C   0  0  0  0  0  0  0  0  0  0  0  0
  1  2  1  0
  2  3  1  0
  3  4  1  0
  4  5  1  0
  5  6  1  0
  6  7  1  0
  7  8  1  0
  6  9  1  0
  9 10  2  0
  9 11  1  0
 11 12  1  0
 12 13  2  0
 13 14  1  0
 14 15  1  0
 15 16  2  0
 16 17  1  0
 17 18  2  0
 18 19  1  0
 19 20  2  0
  8  3  1  0
 20 12  1  0
 20 15  1  0
M  END
