CVD-0001007|dock_bobby27042020.54|mol2|7|dock2
     RDKit          3D

 32 36  0  0  0  0  0  0  0  0999 V2000
   14.2795   14.4479   25.8820 C   0  0  0  0  0  0  0  0  0  0  0  0
   14.0239   13.2502   26.6128 O   0  0  0  0  0  0  0  0  0  0  0  0
   13.9127   12.0496   25.9565 C   0  0  0  0  0  0  0  0  0  0  0  0
   13.4072   10.9661   26.6545 C   0  0  0  0  0  0  0  0  0  0  0  0
   13.2780    9.7376   26.0320 C   0  0  0  0  0  0  0  0  0  0  0  0
   13.6510    9.5722   24.7042 C   0  0  0  0  0  0  0  0  0  0  0  0
   14.1570   10.6667   24.0137 C   0  0  0  0  0  0  0  0  0  0  0  0
   14.2895   11.8992   24.6294 C   0  0  0  0  0  0  0  0  0  0  0  0
   13.5133    8.2652   24.0426 C   0  0  0  0  0  0  0  0  0  0  0  0
   14.1574    7.8478   22.9919 N   0  0  0  0  0  0  0  0  0  0  0  0
   13.6629    6.5650   22.7806 C   0  0  0  0  0  0  0  0  0  0  0  0
   13.9470    5.5985   21.8191 C   0  0  0  0  0  0  0  0  0  0  0  0
   13.2762    4.3856   21.8636 C   0  0  0  0  0  0  0  0  0  0  0  0
   12.3254    4.0975   22.8459 C   0  0  0  0  0  0  0  0  0  0  0  0
   12.0516    5.0762   23.8051 C   0  0  0  0  0  0  0  0  0  0  0  0
   12.7266    6.2795   23.7427 C   0  0  0  0  0  0  0  0  0  0  0  0
   12.6129    7.3742   24.5755 O   0  0  0  0  0  0  0  0  0  0  0  0
   11.6191    2.7878   22.8775 C   0  0  0  0  0  0  0  0  0  0  0  0
   11.5098    2.0425   24.0471 C   0  0  0  0  0  0  0  0  0  0  0  0
   10.8508    0.8266   24.0545 C   0  0  0  0  0  0  0  0  0  0  0  0
   10.2917    0.3619   22.8662 C   0  0  0  0  0  0  0  0  0  0  0  0
    9.6054   -0.8634   22.7942 N   0  0  0  0  0  0  0  0  0  0  0  0
    9.0740   -1.5159   21.7232 C   0  0  0  0  0  0  0  0  0  0  0  0
    9.1298   -1.0802   20.5766 O   0  0  0  0  0  0  0  0  0  0  0  0
    8.3810   -2.8356   21.9339 C   0  0  0  0  0  0  0  0  0  0  0  0
    8.7550   -3.7700   22.9002 C   0  0  0  0  0  0  0  0  0  0  0  0
    8.0672   -4.9650   23.0341 C   0  0  0  0  0  0  0  0  0  0  0  0
    6.9993   -5.2524   22.2134 C   0  0  0  0  0  0  0  0  0  0  0  0
    6.6155   -4.3423   21.2539 C   0  0  0  0  0  0  0  0  0  0  0  0
    7.2988   -3.1461   21.1149 C   0  0  0  0  0  0  0  0  0  0  0  0
   10.3802    1.0609   21.7305 N   0  0  0  0  0  0  0  0  0  0  0  0
   11.0291    2.2306   21.7495 C   0  0  0  0  0  0  0  0  0  0  0  0
  1  2  1  0
  2  3  1  0
  3  4  2  0
  4  5  1  0
  5  6  2  0
  6  7  1  0
  7  8  2  0
  6  9  1  0
  9 10  2  0
 10 11  1  0
 11 12  2  0
 12 13  1  0
 13 14  2  0
 14 15  1  0
 15 16  2  0
 16 17  1  0
 14 18  1  0
 18 19  2  0
 19 20  1  0
 20 21  2  0
 21 22  1  0
 22 23  1  0
 23 24  2  0
 23 25  1  0
 25 26  2  0
 26 27  1  0
 27 28  2  0
 28 29  1  0
 29 30  2  0
 21 31  1  0
 31 32  2  0
  8  3  1  0
 17  9  1  0
 32 18  1  0
 16 11  1  0
 30 25  1  0
M  END
