CVD-0002092|dock_bobby27042020.21|mol2|35|dock2
     RDKit          3D

 24 26  0  0  0  0  0  0  0  0999 V2000
    9.7552   -0.9668   23.9732 O   0  0  0  0  0  0  0  0  0  0  0  0
   10.2341   -1.1817   22.8607 C   0  0  0  0  0  0  0  0  0  0  0  0
    9.5121   -1.6509   21.8363 N   0  0  0  0  0  0  0  0  0  0  0  0
    8.0902   -1.9283   21.9542 C   0  0  0  0  0  0  0  0  0  0  0  0
    7.8906   -3.3239   22.2843 N   0  0  0  0  0  0  0  0  0  0  0  0
    8.5071   -3.7859   23.5328 C   0  0  0  0  0  0  0  0  0  0  0  0
    8.1418   -5.2322   23.8150 C   0  0  0  0  0  0  0  0  0  0  0  0
    6.7436   -5.5799   23.3644 C   0  0  0  0  0  0  0  0  0  0  0  0
    5.6485   -5.2974   24.1664 C   0  0  0  0  0  0  0  0  0  0  0  0
    4.3659   -5.6192   23.7548 C   0  0  0  0  0  0  0  0  0  0  0  0
    4.1627   -6.2289   22.5357 C   0  0  0  0  0  0  0  0  0  0  0  0
    5.2422   -6.5168   21.7287 C   0  0  0  0  0  0  0  0  0  0  0  0
    6.5244   -6.1946   22.1412 C   0  0  0  0  0  0  0  0  0  0  0  0
    7.3745   -1.5689   20.6670 C   0  0  0  0  0  0  0  0  0  0  0  0
    6.2904   -2.3146   20.2258 C   0  0  0  0  0  0  0  0  0  0  0  0
    5.6389   -1.9879   19.0481 C   0  0  0  0  0  0  0  0  0  0  0  0
    6.0636   -0.9128   18.2971 C   0  0  0  0  0  0  0  0  0  0  0  0
    7.1399   -0.1642   18.7226 C   0  0  0  0  0  0  0  0  0  0  0  0
    7.7920   -0.4901   19.9001 C   0  0  0  0  0  0  0  0  0  0  0  0
   11.6621   -0.9259   22.5961 C   0  0  0  0  0  0  0  0  0  0  0  0
   12.5123   -1.4679   21.6562 C   0  0  0  0  0  0  0  0  0  0  0  0
   13.8143   -0.9230   21.7661 C   0  0  0  0  0  0  0  0  0  0  0  0
   13.9330   -0.0120   22.7467 C   0  0  0  0  0  0  0  0  0  0  0  0
   12.4641    0.2256   23.5830 S   0  0  0  0  0  0  0  0  0  0  0  0
  1  2  2  0
  2  3  1  0
  3  4  1  0
  4  5  1  0
  5  6  1  0
  6  7  1  0
  7  8  1  0
  8  9  2  0
  9 10  1  0
 10 11  2  0
 11 12  1  0
 12 13  2  0
  4 14  1  0
 14 15  2  0
 15 16  1  0
 16 17  2  0
 17 18  1  0
 18 19  2  0
  2 20  1  0
 20 21  2  0
 21 22  1  0
 22 23  2  0
 23 24  1  0
 13  8  1  0
 19 14  1  0
 24 20  1  0
M  END
