CVD-0003394|dock_bobby27042020.74|mol2|6|dock3
     RDKit          3D

 17 18  0  0  0  0  0  0  0  0999 V2000
    4.6596    1.0089   20.4785 N   0  0  0  0  0  0  0  0  0  0  0  0
    5.7661    0.6188   19.7610 C   0  0  0  0  0  0  0  0  0  0  0  0
    5.8240    0.7879   18.3823 C   0  0  0  0  0  0  0  0  0  0  0  0
    6.8819    0.4209   17.6543 N   0  0  0  0  0  0  0  0  0  0  0  0
    7.9251   -0.1315   18.2815 C   0  0  0  0  0  0  0  0  0  0  0  0
    7.9716   -0.3465   19.6570 C   0  0  0  0  0  0  0  0  0  0  0  0
    9.0741   -0.9311   20.3286 N   0  0  0  0  0  0  0  0  0  0  0  0
    9.4499   -0.8998   21.6303 C   0  0  0  0  0  0  0  0  0  0  0  0
    8.8581   -0.3150   22.5312 O   0  0  0  0  0  0  0  0  0  0  0  0
   10.7132   -1.6826   21.9115 C   0  0  0  0  0  0  0  0  0  0  0  0
   11.2877   -1.4329   23.3094 C   0  0  0  0  0  0  0  0  0  0  0  0
   11.7954    0.0165   23.4525 C   0  0  0  0  0  0  0  0  0  0  0  0
   12.4408    0.2766   24.8125 C   0  0  0  0  0  0  0  0  0  0  0  0
   13.5469   -0.7295   25.1029 C   0  0  0  0  0  0  0  0  0  0  0  0
   13.0331   -2.1579   24.9916 C   0  0  0  0  0  0  0  0  0  0  0  0
   12.4260   -2.4205   23.6173 C   0  0  0  0  0  0  0  0  0  0  0  0
    6.8622    0.0415   20.3992 C   0  0  0  0  0  0  0  0  0  0  0  0
  1  2  1  0
  2  3  2  0
  3  4  1  0
  4  5  2  0
  5  6  1  0
  6  7  1  0
  7  8  1  0
  8  9  2  0
  8 10  1  0
 10 11  1  0
 11 12  1  0
 12 13  1  0
 13 14  1  0
 14 15  1  0
 15 16  1  0
  6 17  2  0
 17  2  1  0
 16 11  1  0
M  END
