CVD-0003013|dock_bobby27042020.46|mol2|35|dock2
     RDKit          3D

 23 24  0  0  0  0  0  0  0  0999 V2000
    7.3256   -6.0528   22.9624 C   0  0  0  0  0  0  0  0  0  0  0  0
    7.5248   -5.3951   24.3041 C   0  0  0  0  0  0  0  0  0  0  0  0
    8.8066   -4.6803   24.4394 N   0  0  0  0  0  0  0  0  0  0  0  0
    9.2622   -4.6468   25.8368 C   0  0  0  0  0  0  0  0  0  0  0  0
   10.0609   -5.8618   26.2485 C   0  0  0  0  0  0  0  0  0  0  0  0
   10.5271   -5.7671   27.5848 O   0  0  0  0  0  0  0  0  0  0  0  0
    8.7117   -3.3323   23.8618 C   0  0  0  0  0  0  0  0  0  0  0  0
   10.0146   -2.8007   23.2888 C   0  0  0  0  0  0  0  0  0  0  0  0
   10.5308   -1.5706   24.0233 C   0  0  0  0  0  0  0  0  0  0  0  0
   11.6265   -0.8112   23.2820 C   0  0  0  0  0  0  0  0  0  0  0  0
   12.7102   -1.7611   22.7956 C   0  0  0  0  0  0  0  0  0  0  0  0
   11.0380   -0.0891   22.1426 N   0  0  0  0  0  0  0  0  0  0  0  0
   10.4114    1.1336   22.2443 C   0  0  0  0  0  0  0  0  0  0  0  0
    9.0420    1.2476   22.1674 C   0  0  0  0  0  0  0  0  0  0  0  0
    8.4499    2.4911   22.2710 C   0  0  0  0  0  0  0  0  0  0  0  0
    9.1030    3.6245   22.4442 N   0  0  0  0  0  0  0  0  0  0  0  0
   10.4679    3.5518   22.5279 C   0  0  0  0  0  0  0  0  0  0  0  0
   11.1812    4.7578   22.7149 C   0  0  0  0  0  0  0  0  0  0  0  0
   12.5398    4.7296   22.8038 C   0  0  0  0  0  0  0  0  0  0  0  0
   13.4046    6.2235   23.0337 Cl  0  0  0  0  0  0  0  0  0  0  0  0
   13.2542    3.5544   22.7176 C   0  0  0  0  0  0  0  0  0  0  0  0
   12.5965    2.3753   22.5375 C   0  0  0  0  0  0  0  0  0  0  0  0
   11.1804    2.3272   22.4350 C   0  0  0  0  0  0  0  0  0  0  0  0
  1  2  1  0
  2  3  1  0
  3  4  1  0
  4  5  1  0
  5  6  1  0
  3  7  1  0
  7  8  1  0
  8  9  1  0
  9 10  1  0
 10 11  1  0
 10 12  1  0
 12 13  1  0
 13 14  2  0
 14 15  1  0
 15 16  2  0
 16 17  1  0
 17 18  2  0
 18 19  1  0
 19 20  1  0
 19 21  2  0
 21 22  1  0
 22 23  2  0
 23 13  1  0
 23 17  1  0
M  END
