CVD-0001469|dock_bobby27042020.81|mol2|3|dock3
     RDKit          3D

 34 37  0  0  0  0  0  0  0  0999 V2000
    2.2386    4.2663   18.8832 C   0  0  0  0  0  0  0  0  0  0  0  0
    2.1667    2.9913   18.6064 C   0  0  0  0  0  0  0  0  0  0  0  0
    2.6400    1.9690   19.5821 C   0  0  0  0  0  0  0  0  0  0  0  0
    1.8458    1.4544   20.3677 O   0  0  0  0  0  0  0  0  0  0  0  0
    3.9468    1.6195   19.5889 N   0  0  0  0  0  0  0  0  0  0  0  0
    4.4450    0.6639   20.5645 C   0  0  0  0  0  0  0  0  0  0  0  0
    5.1952   -0.4392   19.8868 C   0  0  0  0  0  0  0  0  0  0  0  0
    6.2665    0.1433   19.0664 N   0  0  0  0  0  0  0  0  0  0  0  0
    5.7340    1.0444   18.0334 C   0  0  0  0  0  0  0  0  0  0  0  0
    4.9790    2.1576   18.6973 C   0  0  0  0  0  0  0  0  0  0  0  0
    7.5170   -0.8273   18.6760 S   0  0  0  0  0  0  0  0  0  0  0  0
    7.2835   -1.2538   17.3312 O   0  0  0  0  0  0  0  0  0  0  0  0
    8.7062   -0.1085   19.0139 O   0  0  0  0  0  0  0  0  0  0  0  0
    7.4311   -2.2612   19.7267 C   0  0  0  0  0  0  0  0  0  0  0  0
    6.5021   -3.2127   19.3278 C   0  0  0  0  0  0  0  0  0  0  0  0
    6.3770   -4.3873   20.0487 C   0  0  0  0  0  0  0  0  0  0  0  0
    7.1647   -4.6110   21.1550 C   0  0  0  0  0  0  0  0  0  0  0  0
    8.0766   -3.6554   21.5665 C   0  0  0  0  0  0  0  0  0  0  0  0
    8.2219   -2.4509   20.8757 C   0  0  0  0  0  0  0  0  0  0  0  0
    9.2156   -1.4925   21.4444 C   0  0  0  0  0  0  0  0  0  0  0  0
    8.9408   -0.1386   21.6059 C   0  0  0  0  0  0  0  0  0  0  0  0
    9.8848    0.7319   22.1205 C   0  0  0  0  0  0  0  0  0  0  0  0
   11.1416    0.2756   22.4978 C   0  0  0  0  0  0  0  0  0  0  0  0
   12.0724    1.2105   22.9953 N   0  0  0  0  0  0  0  0  0  0  0  0
   12.4032    2.5071   22.6306 C   0  0  0  0  0  0  0  0  0  0  0  0
   12.1366    3.0352   21.3659 C   0  0  0  0  0  0  0  0  0  0  0  0
   12.5425    4.3283   21.0885 C   0  0  0  0  0  0  0  0  0  0  0  0
   13.1806    5.0788   22.0686 C   0  0  0  0  0  0  0  0  0  0  0  0
   13.3765    4.4781   23.3076 C   0  0  0  0  0  0  0  0  0  0  0  0
   12.9932    3.2282   23.5899 N   0  0  0  0  0  0  0  0  0  0  0  0
   13.6213    6.4277   21.8116 C   0  0  0  0  0  0  0  0  0  0  0  0
   13.9485    7.5070   21.6308 N   0  0  0  0  0  0  0  0  0  0  0  0
   11.4140   -1.0832   22.3753 C   0  0  0  0  0  0  0  0  0  0  0  0
   10.4681   -1.9436   21.8464 C   0  0  0  0  0  0  0  0  0  0  0  0
  1  2  2  0
  2  3  1  0
  3  4  2  0
  3  5  1  0
  5  6  1  0
  6  7  1  0
  7  8  1  0
  8  9  1  0
  9 10  1  0
  8 11  1  0
 11 12  2  0
 11 13  2  0
 11 14  1  0
 14 15  2  0
 15 16  1  0
 16 17  2  0
 17 18  1  0
 18 19  2  0
 19 20  1  0
 20 21  2  0
 21 22  1  0
 22 23  2  0
 23 24  1  0
 24 25  1  0
 25 26  2  0
 26 27  1  0
 27 28  2  0
 28 29  1  0
 29 30  2  0
 28 31  1  0
 31 32  3  0
 23 33  1  0
 33 34  2  0
 10  5  1  0
 19 14  1  0
 34 20  1  0
 30 25  1  0
M  END
