CVD-0000854|dock_bobby27042020.69|mol2|3|dock3
     RDKit          3D

 21 23  0  0  0  0  0  0  0  0999 V2000
    5.8194   -5.4481   24.8068 C   0  0  0  0  0  0  0  0  0  0  0  0
    7.0836   -4.7304   24.7852 N   0  0  0  0  0  0  0  0  0  0  0  0
    7.1337   -3.4825   23.9992 C   0  0  0  0  0  0  0  0  0  0  0  0
    8.1387   -3.5039   22.8803 C   0  0  0  0  0  0  0  0  0  0  0  0
    9.4668   -3.1759   23.3051 O   0  0  0  0  0  0  0  0  0  0  0  0
   10.1083   -4.2043   24.0576 C   0  0  0  0  0  0  0  0  0  0  0  0
    9.4612   -4.4147   25.4343 C   0  0  0  0  0  0  0  0  0  0  0  0
    8.1517   -5.2268   25.4049 C   0  0  0  0  0  0  0  0  0  0  0  0
    8.1110   -6.3207   25.9538 O   0  0  0  0  0  0  0  0  0  0  0  0
    7.7050   -2.4968   21.8414 C   0  0  0  0  0  0  0  0  0  0  0  0
    8.0955   -1.1632   21.9136 C   0  0  0  0  0  0  0  0  0  0  0  0
    7.6745   -0.2472   20.9664 C   0  0  0  0  0  0  0  0  0  0  0  0
    6.8539   -0.6731   19.9366 C   0  0  0  0  0  0  0  0  0  0  0  0
    6.4462   -1.9890   19.8329 C   0  0  0  0  0  0  0  0  0  0  0  0
    6.8803   -2.8983   20.7968 C   0  0  0  0  0  0  0  0  0  0  0  0
    5.5302   -2.1817   18.6595 C   0  0  0  0  0  0  0  0  0  0  0  0
    5.0263   -3.2637   18.3553 O   0  0  0  0  0  0  0  0  0  0  0  0
    5.3128   -1.0244   17.9419 N   0  0  0  0  0  0  0  0  0  0  0  0
    6.1389    0.1724   18.5623 S   0  0  0  0  0  0  0  0  0  0  0  0
    5.0142    1.3818   19.1647 C   0  0  0  0  0  0  0  0  0  0  0  0
    7.1023    0.8103   17.6903 O   0  0  0  0  0  0  0  0  0  0  0  0
  1  2  1  0
  2  3  1  0
  3  4  1  0
  4  5  1  0
  5  6  1  0
  6  7  1  0
  7  8  1  0
  8  9  2  0
  4 10  1  0
 10 11  2  0
 11 12  1  0
 12 13  2  0
 13 14  1  0
 14 15  2  0
 14 16  1  0
 16 17  2  0
 16 18  1  0
 18 19  2  0
 19 20  1  0
 19 21  2  0
  8  2  1  0
 15 10  1  0
 19 13  1  0
M  END
