CVD-0000900|dock_bobby27042020.97|mol2|10|dock1
     RDKit          3D

 22 22  0  0  0  0  0  0  0  0999 V2000
    6.6492   -1.4408   21.1846 C   0  0  0  0  0  0  0  0  0  0  0  0
    8.1490   -1.2792   21.1673 C   0  0  0  0  0  0  0  0  0  0  0  0
    8.5076   -0.8248   19.8886 O   0  0  0  0  0  0  0  0  0  0  0  0
    8.6031   -0.3748   22.2285 N   0  0  0  0  0  0  0  0  0  0  0  0
    8.6759   -0.9867   23.5460 C   0  0  0  0  0  0  0  0  0  0  0  0
   10.0265   -1.7138   23.7881 C   0  0  0  0  0  0  0  0  0  0  0  0
   11.1689   -0.8856   23.3952 N   0  0  0  0  0  0  0  0  0  0  0  0
   11.0828   -0.1962   22.1236 C   0  0  0  0  0  0  0  0  0  0  0  0
    9.7252    0.4828   21.9148 C   0  0  0  0  0  0  0  0  0  0  0  0
    9.5601    1.7532   22.7454 C   0  0  0  0  0  0  0  0  0  0  0  0
    8.1477    2.3400   22.6522 C   0  0  0  0  0  0  0  0  0  0  0  0
    8.1014    3.8407   22.8443 C   0  0  0  0  0  0  0  0  0  0  0  0
    8.7149    4.3139   23.9175 N   0  0  0  0  0  0  0  0  0  0  0  0
    7.5201    4.5684   22.0341 O   0  0  0  0  0  0  0  0  0  0  0  0
   10.5252    2.7407   22.2746 N   0  0  0  0  0  0  0  0  0  0  0  0
   11.7027    2.9496   22.8734 C   0  0  0  0  0  0  0  0  0  0  0  0
   12.5835    3.9916   22.2492 C   0  0  0  0  0  0  0  0  0  0  0  0
   12.0493    2.3163   23.8656 O   0  0  0  0  0  0  0  0  0  0  0  0
   12.4842   -1.5124   23.5506 C   0  0  0  0  0  0  0  0  0  0  0  0
   12.4832   -2.8384   23.0813 O   0  0  0  0  0  0  0  0  0  0  0  0
   12.9041   -1.5237   25.0032 C   0  0  0  0  0  0  0  0  0  0  0  0
   14.6244   -1.9848   25.1430 Cl  0  0  0  0  0  0  0  0  0  0  0  0
  1  2  1  0
  2  3  1  0
  2  4  1  0
  4  5  1  0
  5  6  1  0
  6  7  1  0
  7  8  1  0
  8  9  1  0
  9 10  1  0
 10 11  1  0
 11 12  1  0
 12 13  1  0
 12 14  2  0
 10 15  1  0
 15 16  1  0
 16 17  1  0
 16 18  2  0
  7 19  1  0
 19 20  1  0
 19 21  1  0
 21 22  1  0
  9  4  1  0
M  END
