CVD-0003316|dock_bobby27042020.88|mol2|22|dock1
     RDKit          3D

 23 25  0  0  0  0  0  0  0  0999 V2000
   14.2537   -2.8070   23.3749 Cl  0  0  0  0  0  0  0  0  0  0  0  0
   13.2695   -1.4041   23.3070 C   0  0  0  0  0  0  0  0  0  0  0  0
   13.2813   -0.3637   24.1582 C   0  0  0  0  0  0  0  0  0  0  0  0
   12.3482    0.6084   23.8056 C   0  0  0  0  0  0  0  0  0  0  0  0
   11.6223    0.3136   22.6863 C   0  0  0  0  0  0  0  0  0  0  0  0
   12.1193   -1.2242   22.0531 S   0  0  0  0  0  0  0  0  0  0  0  0
   10.6153    1.1508   22.1335 N   0  0  0  0  0  0  0  0  0  0  0  0
    9.4232    0.8658   21.3720 C   0  0  0  0  0  0  0  0  0  0  0  0
    8.8878    1.8194   20.8222 O   0  0  0  0  0  0  0  0  0  0  0  0
    8.9205   -0.4075   21.2683 N   0  0  0  0  0  0  0  0  0  0  0  0
    7.8476   -0.9069   20.4843 C   0  0  0  0  0  0  0  0  0  0  0  0
    7.0839   -1.9552   20.9831 C   0  0  0  0  0  0  0  0  0  0  0  0
    6.0544   -2.4942   20.3256 N   0  0  0  0  0  0  0  0  0  0  0  0
    5.7906   -1.9611   19.1384 C   0  0  0  0  0  0  0  0  0  0  0  0
    6.4373   -0.9633   18.5464 N   0  0  0  0  0  0  0  0  0  0  0  0
    7.4639   -0.4458   19.2266 C   0  0  0  0  0  0  0  0  0  0  0  0
   10.7947    2.5694   22.3481 C   0  0  0  0  0  0  0  0  0  0  0  0
    9.7431    3.3406   22.8272 C   0  0  0  0  0  0  0  0  0  0  0  0
    9.9115    4.7003   23.0297 C   0  0  0  0  0  0  0  0  0  0  0  0
   11.1264    5.3056   22.7566 C   0  0  0  0  0  0  0  0  0  0  0  0
   12.1619    4.5326   22.2804 C   0  0  0  0  0  0  0  0  0  0  0  0
   13.6942    5.2835   21.9329 Cl  0  0  0  0  0  0  0  0  0  0  0  0
   12.0163    3.1765   22.0714 C   0  0  0  0  0  0  0  0  0  0  0  0
  1  2  1  0
  2  3  2  0
  3  4  1  0
  4  5  2  0
  5  6  1  0
  5  7  1  0
  7  8  1  0
  8  9  2  0
  8 10  1  0
 10 11  1  0
 11 12  2  0
 12 13  1  0
 13 14  2  0
 14 15  1  0
 15 16  2  0
  7 17  1  0
 17 18  2  0
 18 19  1  0
 19 20  2  0
 20 21  1  0
 21 22  1  0
 21 23  2  0
  6  2  1  0
 16 11  1  0
 23 17  1  0
M  END
