CVD-0002953|dock_bobby27042020.46|mol2|44|dock1
     RDKit          3D

 26 28  0  0  0  0  0  0  0  0999 V2000
   10.2540   -5.8810   26.9352 N   0  0  0  0  0  0  0  0  0  0  0  0
    8.7630   -5.3600   26.6733 S   0  0  0  0  0  0  0  0  0  0  0  0
    8.5191   -4.2929   27.5968 O   0  0  0  0  0  0  0  0  0  0  0  0
    7.9038   -6.5056   26.6974 O   0  0  0  0  0  0  0  0  0  0  0  0
    8.6863   -4.6769   25.0454 C   0  0  0  0  0  0  0  0  0  0  0  0
    7.6422   -5.0234   24.2032 C   0  0  0  0  0  0  0  0  0  0  0  0
    7.5961   -4.4849   22.9281 C   0  0  0  0  0  0  0  0  0  0  0  0
    8.5814   -3.6120   22.4980 C   0  0  0  0  0  0  0  0  0  0  0  0
    9.6247   -3.2719   23.3473 C   0  0  0  0  0  0  0  0  0  0  0  0
    9.6811   -3.8058   24.6282 C   0  0  0  0  0  0  0  0  0  0  0  0
   10.6445   -2.3721   22.9082 N   0  0  0  0  0  0  0  0  0  0  0  0
   11.3468   -1.4659   23.6208 C   0  0  0  0  0  0  0  0  0  0  0  0
   12.1882   -0.8741   22.7252 C   0  0  0  0  0  0  0  0  0  0  0  0
   13.2143    0.2044   22.8948 C   0  0  0  0  0  0  0  0  0  0  0  0
   12.7980    1.5354   22.4426 N   0  0  0  0  0  0  0  0  0  0  0  0
   13.7727    2.5472   22.8609 C   0  0  0  0  0  0  0  0  0  0  0  0
   13.3582    3.9165   22.3551 C   0  0  0  0  0  0  0  0  0  0  0  0
   12.0246    4.2630   22.8513 N   0  0  0  0  0  0  0  0  0  0  0  0
   11.0362    3.2386   22.5001 C   0  0  0  0  0  0  0  0  0  0  0  0
   11.4895    1.8771   22.9946 C   0  0  0  0  0  0  0  0  0  0  0  0
   11.7664    5.4089   23.5216 C   0  0  0  0  0  0  0  0  0  0  0  0
   12.6555    6.2225   23.7390 O   0  0  0  0  0  0  0  0  0  0  0  0
   10.3531    5.6663   24.0085 C   0  0  0  0  0  0  0  0  0  0  0  0
    9.2345    5.8604   22.6527 Cl  0  0  0  0  0  0  0  0  0  0  0  0
   11.9693   -1.4375   21.5082 N   0  0  0  0  0  0  0  0  0  0  0  0
   11.0302   -2.3512   21.6107 N   0  0  0  0  0  0  0  0  0  0  0  0
  1  2  1  0
  2  3  2  0
  2  4  2  0
  2  5  1  0
  5  6  2  0
  6  7  1  0
  7  8  2  0
  8  9  1  0
  9 10  2  0
  9 11  1  0
 11 12  1  0
 12 13  2  0
 13 14  1  0
 14 15  1  0
 15 16  1  0
 16 17  1  0
 17 18  1  0
 18 19  1  0
 19 20  1  0
 18 21  1  0
 21 22  2  0
 21 23  1  0
 23 24  1  0
 13 25  1  0
 25 26  2  0
 10  5  1  0
 26 11  1  0
 20 15  1  0
M  END
