CVD-0001587|dock_bobby27042020.37|mol2|40|dock2
     RDKit          3D

 18 19  0  0  0  0  0  0  0  0999 V2000
   11.6612    4.9084   22.3039 C   0  0  0  0  0  0  0  0  0  0  0  0
   10.8898    3.7089   22.2715 O   0  0  0  0  0  0  0  0  0  0  0  0
   11.4637    2.4836   22.5106 C   0  0  0  0  0  0  0  0  0  0  0  0
   12.8226    2.3888   22.7917 C   0  0  0  0  0  0  0  0  0  0  0  0
   13.4078    1.1824   23.0313 C   0  0  0  0  0  0  0  0  0  0  0  0
   12.6591   -0.0159   23.0035 C   0  0  0  0  0  0  0  0  0  0  0  0
   13.2314   -1.2872   23.2476 C   0  0  0  0  0  0  0  0  0  0  0  0
   12.4586   -2.4089   23.2080 C   0  0  0  0  0  0  0  0  0  0  0  0
   11.1047   -2.3260   22.9288 C   0  0  0  0  0  0  0  0  0  0  0  0
   10.4941   -1.1240   22.6827 C   0  0  0  0  0  0  0  0  0  0  0  0
    9.0117   -1.0816   22.3857 C   0  0  0  0  0  0  0  0  0  0  0  0
    8.7426   -0.9154   20.9010 C   0  0  0  0  0  0  0  0  0  0  0  0
    7.3258   -1.0390   20.5892 N   0  0  0  0  0  0  0  0  0  0  0  0
    6.8600   -1.0200   19.3388 C   0  0  0  0  0  0  0  0  0  0  0  0
    5.3759   -1.1774   19.1844 C   0  0  0  0  0  0  0  0  0  0  0  0
    7.6041   -0.8964   18.3709 O   0  0  0  0  0  0  0  0  0  0  0  0
   11.2678    0.0689   22.7166 C   0  0  0  0  0  0  0  0  0  0  0  0
   10.7025    1.3456   22.4740 C   0  0  0  0  0  0  0  0  0  0  0  0
  1  2  1  0
  2  3  1  0
  3  4  2  0
  4  5  1  0
  5  6  2  0
  6  7  1  0
  7  8  2  0
  8  9  1  0
  9 10  2  0
 10 11  1  0
 11 12  1  0
 12 13  1  0
 13 14  1  0
 14 15  1  0
 14 16  2  0
 10 17  1  0
 17 18  2  0
 18  3  1  0
 17  6  1  0
M  END
