CVD-0002215|dock_bobby27042020.35|mol2|15|dock2
     RDKit          3D

 26 27  0  0  0  0  0  0  0  0999 V2000
    7.3219   -6.0196   26.9070 C   0  0  0  0  0  0  0  0  0  0  0  0
    8.7328   -6.4448   27.1681 C   0  0  0  0  0  0  0  0  0  0  0  0
    9.6667   -5.7556   26.2935 N   0  0  0  0  0  0  0  0  0  0  0  0
    9.6265   -4.4158   26.0595 C   0  0  0  0  0  0  0  0  0  0  0  0
   10.3309   -3.8712   24.9872 C   0  0  0  0  0  0  0  0  0  0  0  0
   10.2720   -2.4938   24.7705 C   0  0  0  0  0  0  0  0  0  0  0  0
   10.9542   -1.8420   23.7053 N   0  0  0  0  0  0  0  0  0  0  0  0
   11.5336   -0.6168   23.6521 C   0  0  0  0  0  0  0  0  0  0  0  0
   11.6114    0.1960   24.5687 O   0  0  0  0  0  0  0  0  0  0  0  0
   12.1292   -0.2747   22.2907 C   0  0  0  0  0  0  0  0  0  0  0  0
   13.3582   -1.1385   22.0414 C   0  0  0  0  0  0  0  0  0  0  0  0
   11.1584   -0.4797   21.2273 N   0  0  0  0  0  0  0  0  0  0  0  0
    9.9483    0.1196   21.2694 C   0  0  0  0  0  0  0  0  0  0  0  0
    9.6001    0.7963   22.2326 O   0  0  0  0  0  0  0  0  0  0  0  0
    9.1986   -0.1199   20.1439 N   0  0  0  0  0  0  0  0  0  0  0  0
    7.8961    0.3180   19.7982 C   0  0  0  0  0  0  0  0  0  0  0  0
    7.0614   -0.3493   18.9073 C   0  0  0  0  0  0  0  0  0  0  0  0
    5.8053    0.1676   18.6407 C   0  0  0  0  0  0  0  0  0  0  0  0
    5.4186    1.3300   19.2670 C   0  0  0  0  0  0  0  0  0  0  0  0
    6.1959    1.9910   20.1246 N   0  0  0  0  0  0  0  0  0  0  0  0
    7.4064    1.4841   20.3753 C   0  0  0  0  0  0  0  0  0  0  0  0
    9.4940   -1.7221   25.6596 C   0  0  0  0  0  0  0  0  0  0  0  0
    8.8266   -2.3727   26.7047 C   0  0  0  0  0  0  0  0  0  0  0  0
    8.8891   -3.6915   26.9037 N   0  0  0  0  0  0  0  0  0  0  0  0
    9.3542   -0.2930   25.5417 C   0  0  0  0  0  0  0  0  0  0  0  0
    9.2138    0.8352   25.4310 N   0  0  0  0  0  0  0  0  0  0  0  0
  1  2  1  0
  2  3  1  0
  3  4  1  0
  4  5  2  0
  5  6  1  0
  6  7  1  0
  7  8  1  0
  8  9  2  0
  8 10  1  0
 10 11  1  0
 10 12  1  0
 12 13  1  0
 13 14  2  0
 13 15  1  0
 15 16  1  0
 16 17  2  0
 17 18  1  0
 18 19  2  0
 19 20  1  0
 20 21  2  0
  6 22  2  0
 22 23  1  0
 23 24  2  0
 22 25  1  0
 25 26  3  0
 24  4  1  0
 21 16  1  0
M  END
