CVD-0003846|dock_bobby27042020.72|mol2|31|dock2
     RDKit          3D

 23 25  0  0  0  0  0  0  0  0999 V2000
    6.9710   -3.1530   21.6959 C   0  0  0  0  0  0  0  0  0  0  0  0
    6.7071   -2.3204   20.4690 C   0  0  0  0  0  0  0  0  0  0  0  0
    5.9595   -2.8518   19.4215 C   0  0  0  0  0  0  0  0  0  0  0  0
    5.7191   -2.0871   18.2993 C   0  0  0  0  0  0  0  0  0  0  0  0
    6.1688   -0.8420   18.1539 N   0  0  0  0  0  0  0  0  0  0  0  0
    6.8862   -0.3381   19.1623 C   0  0  0  0  0  0  0  0  0  0  0  0
    7.1936   -1.0104   20.3330 C   0  0  0  0  0  0  0  0  0  0  0  0
    8.0216   -0.4083   21.4542 C   0  0  0  0  0  0  0  0  0  0  0  0
    9.4902   -0.5231   21.1895 C   0  0  0  0  0  0  0  0  0  0  0  0
   10.3405    0.1462   22.2569 C   0  0  0  0  0  0  0  0  0  0  0  0
    9.9059    1.5199   22.4564 N   0  0  0  0  0  0  0  0  0  0  0  0
    8.4934    1.6723   22.7833 C   0  0  0  0  0  0  0  0  0  0  0  0
    7.6474    1.0485   21.6769 C   0  0  0  0  0  0  0  0  0  0  0  0
   10.8092    2.5707   22.5596 C   0  0  0  0  0  0  0  0  0  0  0  0
   10.9320    3.2728   23.7558 C   0  0  0  0  0  0  0  0  0  0  0  0
   11.8289    4.3182   23.8861 C   0  0  0  0  0  0  0  0  0  0  0  0
   12.6241    4.6757   22.8125 C   0  0  0  0  0  0  0  0  0  0  0  0
   12.5165    3.9979   21.6118 C   0  0  0  0  0  0  0  0  0  0  0  0
   11.6116    2.9584   21.4897 C   0  0  0  0  0  0  0  0  0  0  0  0
   13.7727    6.0092   22.9720 S   0  0  0  0  0  0  0  0  0  0  0  0
   13.2661    6.9779   24.1418 N   0  0  0  0  0  0  0  0  0  0  0  0
   15.0211    5.4499   23.3962 O   0  0  0  0  0  0  0  0  0  0  0  0
   13.7294    6.7591   21.7527 O   0  0  0  0  0  0  0  0  0  0  0  0
  1  2  1  0
  2  3  2  0
  3  4  1  0
  4  5  2  0
  5  6  1  0
  6  7  2  0
  7  8  1  0
  8  9  1  0
  9 10  1  0
 10 11  1  0
 11 12  1  0
 12 13  1  0
 11 14  1  0
 14 15  2  0
 15 16  1  0
 16 17  2  0
 17 18  1  0
 18 19  2  0
 17 20  1  0
 20 21  1  0
 20 22  2  0
 20 23  2  0
  7  2  1  0
 13  8  1  0
 19 14  1  0
M  END
