CVD-0001853|dock_bobby27042020.8|mol2|16|dock2
     RDKit          3D

 16 16  0  0  0  0  0  0  0  0999 V2000
    8.6665    5.7598   22.3837 C   0  0  0  0  0  0  0  0  0  0  0  0
   10.1217    6.2020   22.4384 C   0  0  0  0  0  0  0  0  0  0  0  0
   11.5283    5.0890   22.9083 Si  0  0  0  0  0  4  0  0  0  0  0  0
   12.8427    5.0488   21.6067 C   0  0  0  0  0  0  0  0  0  0  0  0
   12.2935    5.5843   24.5186 C   0  0  0  0  0  0  0  0  0  0  0  0
   10.9127    3.5462   23.0759 O   0  0  0  0  0  0  0  0  0  0  0  0
   11.4655    2.2956   22.8927 C   0  0  0  0  0  0  0  0  0  0  0  0
   10.7263    1.2346   22.3893 C   0  0  0  0  0  0  0  0  0  0  0  0
   11.3192   -0.0043   22.2201 C   0  0  0  0  0  0  0  0  0  0  0  0
   12.6514   -0.1801   22.5536 C   0  0  0  0  0  0  0  0  0  0  0  0
   13.3942    0.8733   23.0582 C   0  0  0  0  0  0  0  0  0  0  0  0
   12.7967    2.1096   23.2253 C   0  0  0  0  0  0  0  0  0  0  0  0
   13.4064   -1.7641   22.3432 S   0  0  0  0  0  0  0  0  0  0  0  0
   13.6800   -1.9922   20.7824 N   0  0  0  0  0  0  0  0  0  0  0  0
   14.6811   -1.7203   22.9945 O   0  0  0  0  0  0  0  0  0  0  0  0
   12.4529   -2.7503   22.7545 O   0  0  0  0  0  0  0  0  0  0  0  0
  1  2  1  0
  2  3  1  0
  3  4  1  0
  3  5  1  0
  3  6  1  0
  6  7  1  0
  7  8  2  0
  8  9  1  0
  9 10  2  0
 10 11  1  0
 11 12  2  0
 10 13  1  0
 13 14  1  0
 13 15  2  0
 13 16  2  0
 12  7  1  0
M  END
