CVD-0000948|dock_bobby27042020.11|mol2|20|dock3
     RDKit          3D

 17 19  0  0  0  0  0  0  0  0999 V2000
   14.6063   -2.1356   24.3603 N   0  0  0  0  0  0  0  0  0  0  0  0
   13.7806   -2.0782   23.3206 C   0  0  0  0  0  0  0  0  0  0  0  0
   13.7125   -2.9849   22.4831 O   0  0  0  0  0  0  0  0  0  0  0  0
   12.8938   -0.8925   23.1311 C   0  0  0  0  0  0  0  0  0  0  0  0
   11.5371   -0.8537   22.9522 C   0  0  0  0  0  0  0  0  0  0  0  0
   10.9971    0.4398   22.7828 C   0  0  0  0  0  0  0  0  0  0  0  0
    9.5935    0.7744   22.3586 C   0  0  0  0  0  0  0  0  0  0  0  0
    9.2797    2.2933   22.4412 C   0  0  0  0  0  0  0  0  0  0  0  0
    8.1644    2.7090   22.1879 O   0  0  0  0  0  0  0  0  0  0  0  0
   10.3824    3.2503   22.6850 C   0  0  0  0  0  0  0  0  0  0  0  0
   10.0913    4.6140   22.7197 C   0  0  0  0  0  0  0  0  0  0  0  0
   11.1034    5.5389   22.9136 C   0  0  0  0  0  0  0  0  0  0  0  0
   12.4061    5.1199   23.0738 C   0  0  0  0  0  0  0  0  0  0  0  0
   12.7140    3.7705   23.0422 C   0  0  0  0  0  0  0  0  0  0  0  0
   11.7081    2.8234   22.8479 C   0  0  0  0  0  0  0  0  0  0  0  0
   11.9678    1.4006   22.8352 C   0  0  0  0  0  0  0  0  0  0  0  0
   13.5450    0.7111   23.0926 S   0  0  0  0  0  0  0  0  0  0  0  0
  1  2  1  0
  2  3  2  0
  2  4  1  0
  4  5  2  0
  5  6  1  0
  6  7  1  0
  7  8  1  0
  8  9  2  0
  8 10  1  0
 10 11  2  0
 11 12  1  0
 12 13  2  0
 13 14  1  0
 14 15  2  0
 15 16  1  0
 16 17  1  0
 17  4  1  0
 16  6  2  0
 15 10  1  0
M  END
