CVD-0002767|dock_bobby27042020.76|mol2|9|dock1
     RDKit          3D

 21 22  0  0  0  0  0  0  0  0999 V2000
   13.5567   -2.2739   20.9253 N   0  0  0  0  0  0  0  0  0  0  0  0
   13.2984   -1.7514   22.4164 S   0  0  0  0  0  0  0  0  0  0  0  0
   12.5946   -2.7867   23.1119 O   0  0  0  0  0  0  0  0  0  0  0  0
   14.5572   -1.3038   22.9322 O   0  0  0  0  0  0  0  0  0  0  0  0
   12.2295   -0.3461   22.3401 C   0  0  0  0  0  0  0  0  0  0  0  0
   12.7241    0.9153   22.6173 C   0  0  0  0  0  0  0  0  0  0  0  0
   11.9008    2.0463   22.5928 C   0  0  0  0  0  0  0  0  0  0  0  0
   12.5346    3.3702   22.9207 C   0  0  0  0  0  0  0  0  0  0  0  0
   13.8300    3.4990   22.7484 O   0  0  0  0  0  0  0  0  0  0  0  0
   11.8905    4.3165   23.3383 O   0  0  0  0  0  0  0  0  0  0  0  0
   10.5362    1.8762   22.2811 C   0  0  0  0  0  0  0  0  0  0  0  0
    9.3496    3.3487   22.3672 Br  0  0  0  0  0  0  0  0  0  0  0  0
   10.0607    0.6010   21.9189 C   0  0  0  0  0  0  0  0  0  0  0  0
   10.9023   -0.5055   21.9939 C   0  0  0  0  0  0  0  0  0  0  0  0
    8.6713    0.2824   21.4389 C   0  0  0  0  0  0  0  0  0  0  0  0
    7.7094    0.7772   22.0188 O   0  0  0  0  0  0  0  0  0  0  0  0
    8.4901   -0.5521   20.4058 N   0  0  0  0  0  0  0  0  0  0  0  0
    7.1642   -0.9154   19.9182 C   0  0  0  0  0  0  0  0  0  0  0  0
    6.5664   -0.0074   18.9685 C   0  0  0  0  0  0  0  0  0  0  0  0
    7.1176   -1.3180   18.5064 C   0  0  0  0  0  0  0  0  0  0  0  0
    8.2939   -1.2902   17.7377 F   0  0  0  0  0  0  0  0  0  0  0  0
  1  2  1  0
  2  3  2  0
  2  4  2  0
  2  5  1  0
  5  6  2  0
  6  7  1  0
  7  8  1  0
  8  9  1  0
  8 10  2  0
  7 11  2  0
 11 12  1  0
 11 13  1  0
 13 14  2  0
 13 15  1  0
 15 16  2  0
 15 17  1  0
 18 17  1  0
 18 19  1  0
 19 20  1  0
 20 21  1  0
 14  5  1  0
 20 18  1  0
M  END
