CVD-0002966|dock_bobby27042020.46|mol2|42|dock2
     RDKit          3D

 32 35  0  0  0  0  0  0  0  0999 V2000
    1.4789    3.6570   18.4865 C   0  0  0  0  0  0  0  0  0  0  0  0
    2.2154    3.0819   19.5916 O   0  0  0  0  0  0  0  0  0  0  0  0
    3.5175    2.8983   19.3891 C   0  0  0  0  0  0  0  0  0  0  0  0
    4.0558    3.0178   18.3193 O   0  0  0  0  0  0  0  0  0  0  0  0
    4.2278    2.5185   20.6754 C   0  0  0  0  0  0  0  0  0  0  0  0
    5.6391    2.0189   20.4113 C   0  0  0  0  0  0  0  0  0  0  0  0
    6.3425    1.7886   21.6445 O   0  0  0  0  0  0  0  0  0  0  0  0
    6.5141    2.9482   22.4286 C   0  0  0  0  0  0  0  0  0  0  0  0
    7.3502    2.6304   23.6578 C   0  0  0  0  0  0  0  0  0  0  0  0
    8.8206    2.4459   23.3715 C   0  0  0  0  0  0  0  0  0  0  0  0
    9.6425    3.5482   23.1893 C   0  0  0  0  0  0  0  0  0  0  0  0
   10.9715    3.4075   22.9268 C   0  0  0  0  0  0  0  0  0  0  0  0
   11.5610    2.1249   22.8298 C   0  0  0  0  0  0  0  0  0  0  0  0
   12.9352    1.9219   22.5590 C   0  0  0  0  0  0  0  0  0  0  0  0
   13.4557    0.6661   22.4754 C   0  0  0  0  0  0  0  0  0  0  0  0
   12.6381   -0.4385   22.6575 C   0  0  0  0  0  0  0  0  0  0  0  0
   11.3069   -0.2983   22.9188 C   0  0  0  0  0  0  0  0  0  0  0  0
   10.7316    0.9898   23.0129 C   0  0  0  0  0  0  0  0  0  0  0  0
    9.3580    1.1887   23.2834 C   0  0  0  0  0  0  0  0  0  0  0  0
   13.3314   -2.0596   22.5388 S   0  0  0  0  0  0  0  0  0  0  0  0
   13.5197   -2.4186   20.9900 N   0  0  0  0  0  0  0  0  0  0  0  0
   12.3690   -2.9765   23.0719 O   0  0  0  0  0  0  0  0  0  0  0  0
   14.6377   -2.0100   23.1238 O   0  0  0  0  0  0  0  0  0  0  0  0
    5.1502    3.5432   22.8329 C   0  0  0  0  0  0  0  0  0  0  0  0
    4.2818    3.7033   21.5989 C   0  0  0  0  0  0  0  0  0  0  0  0
    3.6644    4.7150   21.3461 O   0  0  0  0  0  0  0  0  0  0  0  0
    5.6170    0.7185   19.6513 C   0  0  0  0  0  0  0  0  0  0  0  0
    5.3172   -0.4813   20.2779 C   0  0  0  0  0  0  0  0  0  0  0  0
    5.3045   -1.6559   19.5462 C   0  0  0  0  0  0  0  0  0  0  0  0
    5.5936   -1.5945   18.2016 C   0  0  0  0  0  0  0  0  0  0  0  0
    5.8853   -0.4574   17.5681 N   0  0  0  0  0  0  0  0  0  0  0  0
    5.8914    0.6642   18.2946 C   0  0  0  0  0  0  0  0  0  0  0  0
  1  2  1  0
  2  3  1  0
  3  4  2  0
  3  5  1  0
  5  6  1  0
  6  7  1  0
  7  8  1  0
  8  9  1  0
  9 10  1  0
 10 11  2  0
 11 12  1  0
 12 13  2  0
 13 14  1  0
 14 15  2  0
 15 16  1  0
 16 17  2  0
 17 18  1  0
 18 19  2  0
 16 20  1  0
 20 21  1  0
 20 22  2  0
 20 23  2  0
  8 24  1  0
 24 25  1  0
 25 26  2  0
  6 27  1  0
 27 28  2  0
 28 29  1  0
 29 30  2  0
 30 31  1  0
 31 32  2  0
 25  5  1  0
 32 27  1  0
 19 10  1  0
 18 13  1  0
M  END
