CVD-0002097|dock_bobby27042020.21|mol2|34|dock3
     RDKit          3D

 21 23  0  0  0  0  0  0  0  0999 V2000
   12.6648    2.4440   22.2264 N   0  0  0  0  0  0  0  0  0  0  0  0
   11.3026    2.2915   22.7854 C   0  0  0  0  0  0  0  0  0  0  0  0
   10.8652    0.8389   22.9365 C   0  0  0  0  0  0  0  0  0  0  0  0
   10.5254    0.3697   21.6373 O   0  0  0  0  0  0  0  0  0  0  0  0
   10.2998   -1.0544   21.5835 C   0  0  0  0  0  0  0  0  0  0  0  0
   11.6887   -1.7218   21.7729 C   0  0  0  0  0  0  0  0  0  0  0  0
   12.2331   -1.2802   23.1193 C   0  0  0  0  0  0  0  0  0  0  0  0
   13.1325   -2.0760   23.8455 C   0  0  0  0  0  0  0  0  0  0  0  0
   13.5810   -3.2776   23.3680 O   0  0  0  0  0  0  0  0  0  0  0  0
   13.7157   -1.5945   25.0165 C   0  0  0  0  0  0  0  0  0  0  0  0
   14.6479   -2.3544   25.6492 O   0  0  0  0  0  0  0  0  0  0  0  0
   13.4164   -0.3230   25.4817 C   0  0  0  0  0  0  0  0  0  0  0  0
   12.5317    0.4656   24.7716 C   0  0  0  0  0  0  0  0  0  0  0  0
   11.9355    0.0051   23.5973 C   0  0  0  0  0  0  0  0  0  0  0  0
    9.2882   -1.3659   22.6743 C   0  0  0  0  0  0  0  0  0  0  0  0
    7.9900   -0.5544   22.5551 C   0  0  0  0  0  0  0  0  0  0  0  0
    6.9923   -0.9010   23.6649 C   0  0  0  0  0  0  0  0  0  0  0  0
    6.7091   -2.3975   23.7129 C   0  0  0  0  0  0  0  0  0  0  0  0
    8.0012   -3.1817   23.8807 C   0  0  0  0  0  0  0  0  0  0  0  0
    8.9945   -2.8695   22.7564 C   0  0  0  0  0  0  0  0  0  0  0  0
    8.5002   -3.3544   21.5032 O   0  0  0  0  0  0  0  0  0  0  0  0
  1  2  1  0
  2  3  1  0
  3  4  1  0
  4  5  1  0
  5  6  1  0
  6  7  1  0
  7  8  2  0
  8  9  1  0
  8 10  1  0
 10 11  1  0
 10 12  2  0
 12 13  1  0
 13 14  2  0
  5 15  1  0
 15 16  1  0
 16 17  1  0
 17 18  1  0
 18 19  1  0
 19 20  1  0
 20 21  1  0
 14  3  1  0
 20 15  1  0
 14  7  1  0
M  END
