CVD-0003365|dock_bobby27042020.88|mol2|15|dock1
     RDKit          3D

 18 19  0  0  0  0  0  0  0  0999 V2000
   13.1889   -2.0983   21.1386 O   0  0  0  0  0  0  0  0  0  0  0  0
   12.4994   -1.7148   22.2440 B   0  0  0  0  0  0  0  0  0  0  0  0
   12.0521   -2.6873   23.0800 O   0  0  0  0  0  0  0  0  0  0  0  0
   11.8031   -0.2975   22.2663 C   0  0  0  0  0  0  0  0  0  0  0  0
   10.5415   -0.1687   21.6680 C   0  0  0  0  0  0  0  0  0  0  0  0
    9.8815    1.0545   21.6554 C   0  0  0  0  0  0  0  0  0  0  0  0
    8.6454    1.2123   21.0781 O   0  0  0  0  0  0  0  0  0  0  0  0
    7.9587    0.0874   20.5169 C   0  0  0  0  0  0  0  0  0  0  0  0
    6.6824    0.5655   19.8884 C   0  0  0  0  0  0  0  0  0  0  0  0
    6.6459    0.9339   18.5526 C   0  0  0  0  0  0  0  0  0  0  0  0
    5.4690    1.3782   17.9734 C   0  0  0  0  0  0  0  0  0  0  0  0
    4.3159    1.4598   18.7242 C   0  0  0  0  0  0  0  0  0  0  0  0
    4.3395    1.0977   20.0540 C   0  0  0  0  0  0  0  0  0  0  0  0
    5.5165    0.6534   20.6331 C   0  0  0  0  0  0  0  0  0  0  0  0
   10.4662    2.1671   22.2367 C   0  0  0  0  0  0  0  0  0  0  0  0
   11.7102    2.0658   22.8322 C   0  0  0  0  0  0  0  0  0  0  0  0
   12.3428    0.8472   22.8325 C   0  0  0  0  0  0  0  0  0  0  0  0
   13.5595    0.7590   23.4172 F   0  0  0  0  0  0  0  0  0  0  0  0
  1  2  1  0
  2  3  1  0
  2  4  1  0
  4  5  2  0
  5  6  1  0
  6  7  1  0
  7  8  1  0
  8  9  1  0
  9 10  2  0
 10 11  1  0
 11 12  2  0
 12 13  1  0
 13 14  2  0
  6 15  2  0
 15 16  1  0
 16 17  2  0
 17 18  1  0
 17  4  1  0
 14  9  1  0
M  END
