CVD-0003692|dock_bobby27042020.30|mol2|11|dock3
     RDKit          3D

 26 28  0  0  0  0  0  0  0  0999 V2000
    7.9667   -0.4048   26.8867 C   0  0  0  0  0  0  0  0  0  0  0  0
    8.6077   -0.0120   25.5601 C   0  0  0  0  0  0  0  0  0  0  0  0
    7.8242    1.1938   25.0601 C   0  0  0  0  0  0  0  0  0  0  0  0
    9.9543    0.4382   25.8084 O   0  0  0  0  0  0  0  0  0  0  0  0
    8.6311   -1.1603   24.5069 C   0  0  0  0  0  0  0  0  0  0  0  0
    7.2892   -1.8692   24.5602 C   0  0  0  0  0  0  0  0  0  0  0  0
    7.1413   -2.8907   23.4467 C   0  0  0  0  0  0  0  0  0  0  0  0
    7.9140   -4.0492   23.6368 F   0  0  0  0  0  0  0  0  0  0  0  0
    7.5238   -2.2836   22.1082 C   0  0  0  0  0  0  0  0  0  0  0  0
    6.4936   -1.3618   21.7758 N   0  0  0  0  0  0  0  0  0  0  0  0
    6.4784   -0.6181   20.5988 C   0  0  0  0  0  0  0  0  0  0  0  0
    5.4138    0.2267   20.2985 C   0  0  0  0  0  0  0  0  0  0  0  0
    5.4209    0.9574   19.1191 C   0  0  0  0  0  0  0  0  0  0  0  0
    4.3744    1.7837   18.8302 O   0  0  0  0  0  0  0  0  0  0  0  0
    6.4813    0.8559   18.2311 C   0  0  0  0  0  0  0  0  0  0  0  0
    7.5405    0.0135   18.5335 C   0  0  0  0  0  0  0  0  0  0  0  0
    8.5888   -0.0935   17.6667 O   0  0  0  0  0  0  0  0  0  0  0  0
    7.5429   -0.7213   19.7100 C   0  0  0  0  0  0  0  0  0  0  0  0
    8.7876   -1.6509   22.1458 O   0  0  0  0  0  0  0  0  0  0  0  0
    8.8791   -0.5919   23.1188 C   0  0  0  0  0  0  0  0  0  0  0  0
   10.2534    0.0331   22.9425 C   0  0  0  0  0  0  0  0  0  0  0  0
   11.4838   -0.7974   23.3186 C   0  0  0  0  0  0  0  0  0  0  0  0
   11.6815   -1.9555   22.4753 C   0  0  0  0  0  0  0  0  0  0  0  0
   13.1276   -1.8466   21.9004 C   0  0  0  0  0  0  0  0  0  0  0  0
   13.6265   -0.5535   22.4582 N   0  0  0  0  0  0  0  0  0  0  0  0
   12.6473    0.1012   23.2917 C   0  0  0  0  0  0  0  0  0  0  0  0
  1  2  1  0
  2  3  1  0
  2  4  1  0
  2  5  1  0
  5  6  1  0
  6  7  1  0
  7  8  1  0
  7  9  1  0
  9 10  1  0
 10 11  1  0
 11 12  2  0
 12 13  1  0
 13 14  1  0
 13 15  2  0
 15 16  1  0
 16 17  1  0
 16 18  2  0
  9 19  1  0
 19 20  1  0
 20 21  1  0
 21 22  1  0
 22 23  1  0
 23 24  1  0
 24 25  1  0
 25 26  1  0
 20  5  1  0
 26 22  1  0
 18 11  1  0
M  END
