CVD-0000257|dock_bobby27042020.56|mol2|34|dock1
     RDKit          3D

 24 25  0  0  0  0  0  0  0  0999 V2000
   13.9930   -2.4390   20.5283 C   0  0  0  0  0  0  0  0  0  0  0  0
   12.6689   -1.9303   20.8154 O   0  0  0  0  0  0  0  0  0  0  0  0
   12.5450   -1.2367   21.9440 C   0  0  0  0  0  0  0  0  0  0  0  0
   13.4595   -1.0347   22.6999 O   0  0  0  0  0  0  0  0  0  0  0  0
   11.1369   -0.7276   22.1516 C   0  0  0  0  0  0  0  0  0  0  0  0
   11.0688    0.2355   23.3517 C   0  0  0  0  0  0  0  0  0  0  0  0
   11.4652    1.6639   23.0624 C   0  0  0  0  0  0  0  0  0  0  0  0
   10.4989    2.6428   22.8882 C   0  0  0  0  0  0  0  0  0  0  0  0
   10.8574    3.9544   22.6253 C   0  0  0  0  0  0  0  0  0  0  0  0
   12.1875    4.3033   22.5342 C   0  0  0  0  0  0  0  0  0  0  0  0
   13.1586    3.3408   22.7071 C   0  0  0  0  0  0  0  0  0  0  0  0
   12.7994    2.0293   22.9703 C   0  0  0  0  0  0  0  0  0  0  0  0
   10.1862   -1.9431   22.3063 C   0  0  0  0  0  0  0  0  0  0  0  0
   10.3750   -2.6984   23.6125 C   0  0  0  0  0  0  0  0  0  0  0  0
    8.8085   -1.4628   22.2353 N   0  0  0  0  0  0  0  0  0  0  0  0
    8.1801   -1.2214   21.0812 C   0  0  0  0  0  0  0  0  0  0  0  0
    8.7133   -1.3614   19.9838 O   0  0  0  0  0  0  0  0  0  0  0  0
    6.7298   -0.7522   21.2046 C   0  0  0  0  0  0  0  0  0  0  0  0
    6.6323    0.4469   22.1380 C   0  0  0  0  0  0  0  0  0  0  0  0
    6.2291   -0.4160   19.8608 N   0  0  0  0  0  0  0  0  0  0  0  0
    6.4257    0.7612   19.1820 C   0  0  0  0  0  0  0  0  0  0  0  0
    5.7724    0.6304   18.0068 C   0  0  0  0  0  0  0  0  0  0  0  0
    5.1629   -0.5937   17.9290 N   0  0  0  0  0  0  0  0  0  0  0  0
    5.4557   -1.1895   19.0635 C   0  0  0  0  0  0  0  0  0  0  0  0
  1  2  1  0
  2  3  1  0
  3  4  2  0
  3  5  1  0
  5  6  1  0
  6  7  1  0
  7  8  2  0
  8  9  1  0
  9 10  2  0
 10 11  1  0
 11 12  2  0
  5 13  1  0
 13 14  1  0
 13 15  1  0
 15 16  1  0
 16 17  2  0
 16 18  1  0
 18 19  1  0
 18 20  1  0
 20 21  1  0
 21 22  2  0
 22 23  1  0
 23 24  2  0
 12  7  1  0
 24 20  1  0
M  END
