CVD-0002772|dock_bobby27042020.4|mol2|29|dock3
     RDKit          3D

 22 23  0  0  0  0  0  0  0  0999 V2000
   13.4990    5.6478   21.9953 C   0  0  0  0  0  0  0  0  0  0  0  0
   12.7448    4.4171   21.8430 N   0  0  0  0  0  0  0  0  0  0  0  0
   12.9419    3.3812   22.6558 C   0  0  0  0  0  0  0  0  0  0  0  0
   13.7980    3.4323   23.5339 O   0  0  0  0  0  0  0  0  0  0  0  0
   12.1361    2.1218   22.4946 C   0  0  0  0  0  0  0  0  0  0  0  0
   12.8845    0.9470   22.5553 C   0  0  0  0  0  0  0  0  0  0  0  0
   12.2861   -0.2805   22.3348 C   0  0  0  0  0  0  0  0  0  0  0  0
   10.9431   -0.3426   22.0089 C   0  0  0  0  0  0  0  0  0  0  0  0
   10.1755    0.8194   21.9424 C   0  0  0  0  0  0  0  0  0  0  0  0
    8.7613    0.6055   21.4779 C   0  0  0  0  0  0  0  0  0  0  0  0
    7.8475    1.1963   22.0455 O   0  0  0  0  0  0  0  0  0  0  0  0
    8.5072   -0.2405   20.4700 N   0  0  0  0  0  0  0  0  0  0  0  0
    7.1574   -0.4774   19.9702 C   0  0  0  0  0  0  0  0  0  0  0  0
    6.5753    0.5855   19.1858 C   0  0  0  0  0  0  0  0  0  0  0  0
    7.0635   -0.6586   18.5156 C   0  0  0  0  0  0  0  0  0  0  0  0
    8.2228   -0.5566   17.7275 F   0  0  0  0  0  0  0  0  0  0  0  0
   10.7432    2.0545   22.3064 C   0  0  0  0  0  0  0  0  0  0  0  0
    9.6519    3.5754   22.5894 Br  0  0  0  0  0  0  0  0  0  0  0  0
   13.2341   -1.7656   22.4715 S   0  0  0  0  0  0  0  0  0  0  0  0
   13.6353   -2.2488   20.9989 N   0  0  0  0  0  0  0  0  0  0  0  0
   12.3780   -2.7699   23.0281 O   0  0  0  0  0  0  0  0  0  0  0  0
   14.4490   -1.4362   23.1547 O   0  0  0  0  0  0  0  0  0  0  0  0
  1  2  1  0
  2  3  1  0
  3  4  2  0
  3  5  1  0
  5  6  2  0
  6  7  1  0
  7  8  2  0
  8  9  1  0
  9 10  1  0
 10 11  2  0
 10 12  1  0
 13 12  1  0
 13 14  1  0
 14 15  1  0
 15 16  1  0
  9 17  2  0
 17 18  1  0
  7 19  1  0
 19 20  1  0
 19 21  2  0
 19 22  2  0
 17  5  1  0
 15 13  1  0
M  END
