CVD-0000605|dock_bobby27042020.69|mol2|40|dock2
     RDKit          3D

 15 16  0  0  0  0  0  0  0  0999 V2000
    8.9283    0.3847   22.7646 O   0  0  0  0  0  0  0  0  0  0  0  0
    9.2280   -0.1581   21.7064 C   0  0  0  0  0  0  0  0  0  0  0  0
   10.4168   -0.7889   21.4913 N   0  0  0  0  0  0  0  0  0  0  0  0
   11.5343   -0.9783   22.3452 C   0  0  0  0  0  0  0  0  0  0  0  0
   11.7770   -0.2323   23.4977 C   0  0  0  0  0  0  0  0  0  0  0  0
   12.8970   -0.4886   24.2718 C   0  0  0  0  0  0  0  0  0  0  0  0
   13.7838   -1.4803   23.9155 C   0  0  0  0  0  0  0  0  0  0  0  0
   13.5542   -2.2232   22.7792 C   0  0  0  0  0  0  0  0  0  0  0  0
   12.4382   -1.9762   21.9979 C   0  0  0  0  0  0  0  0  0  0  0  0
    8.2103   -0.1124   20.5971 C   0  0  0  0  0  0  0  0  0  0  0  0
    8.0607   -1.1065   19.6292 C   0  0  0  0  0  0  0  0  0  0  0  0
    7.0996   -0.9931   18.6381 C   0  0  0  0  0  0  0  0  0  0  0  0
    6.2718    0.1063   18.5898 C   0  0  0  0  0  0  0  0  0  0  0  0
    6.4041    1.0977   19.5359 C   0  0  0  0  0  0  0  0  0  0  0  0
    7.3626    0.9904   20.5292 C   0  0  0  0  0  0  0  0  0  0  0  0
  1  2  2  0
  2  3  1  0
  3  4  1  0
  4  5  2  0
  5  6  1  0
  6  7  2  0
  7  8  1  0
  8  9  2  0
  2 10  1  0
 10 11  2  0
 11 12  1  0
 12 13  2  0
 13 14  1  0
 14 15  2  0
  9  4  1  0
 15 10  1  0
M  END
