CVD-0000384|dock_bobby27042020.56|mol2|15|dock1
     RDKit          3D

 23 25  0  0  0  0  0  0  0  0999 V2000
    9.2384    0.3619   26.5295 C   0  0  0  0  0  0  0  0  0  0  0  0
    9.8921   -0.4936   25.5561 N   0  0  0  0  0  0  0  0  0  0  0  0
   11.1769   -0.3677   25.2540 C   0  0  0  0  0  0  0  0  0  0  0  0
   11.9086    0.4740   25.7684 O   0  0  0  0  0  0  0  0  0  0  0  0
   11.6910   -1.3460   24.2164 C   0  0  0  0  0  0  0  0  0  0  0  0
   13.1049   -1.9010   24.5334 C   0  0  0  0  0  0  0  0  0  0  0  0
   13.8721   -1.9128   23.2165 C   0  0  0  0  0  0  0  0  0  0  0  0
   12.8240   -1.6671   22.1323 C   0  0  0  0  0  0  0  0  0  0  0  0
   11.8251   -0.7216   22.8155 C   0  0  0  0  0  0  0  0  0  0  0  0
   10.5346   -0.5310   22.0690 C   0  0  0  0  0  0  0  0  0  0  0  0
    9.7500   -1.5812   21.4838 C   0  0  0  0  0  0  0  0  0  0  0  0
    8.6269   -1.1234   20.8718 C   0  0  0  0  0  0  0  0  0  0  0  0
    8.4770    0.5720   20.9783 S   0  0  0  0  0  0  0  0  0  0  0  0
    9.9568    0.6853   21.8693 C   0  0  0  0  0  0  0  0  0  0  0  0
   10.3699    2.0299   22.2723 C   0  0  0  0  0  0  0  0  0  0  0  0
   11.6721    2.2798   22.4265 N   0  0  0  0  0  0  0  0  0  0  0  0
   12.0169    3.5189   22.7951 C   0  0  0  0  0  0  0  0  0  0  0  0
   11.0664    4.5101   23.0082 C   0  0  0  0  0  0  0  0  0  0  0  0
   11.4144    5.7814   23.3829 N   0  0  0  0  0  0  0  0  0  0  0  0
   12.7441    6.1384   23.8283 C   0  0  0  0  0  0  0  0  0  0  0  0
    9.7338    4.1304   22.8173 C   0  0  0  0  0  0  0  0  0  0  0  0
    8.4359    5.2588   23.0496 Cl  0  0  0  0  0  0  0  0  0  0  0  0
    9.3812    2.9109   22.4545 N   0  0  0  0  0  0  0  0  0  0  0  0
  1  2  1  0
  2  3  1  0
  3  4  2  0
  5  3  1  0
  5  6  1  0
  6  7  1  0
  7  8  1  0
  8  9  1  0
  9 10  1  0
 10 11  1  0
 11 12  2  0
 12 13  1  0
 13 14  1  0
 14 15  1  0
 15 16  2  0
 16 17  1  0
 17 18  2  0
 18 19  1  0
 19 20  1  0
 18 21  1  0
 21 22  1  0
 21 23  2  0
  9  5  1  0
 14 10  2  0
 23 15  1  0
M  END
