CVD-0001121|dock_bobby27042020.25|mol2|5|dock3
     RDKit          3D

 25 27  0  0  0  0  0  0  0  0999 V2000
   12.1144    6.8220   25.4374 C   0  0  0  0  0  0  0  0  0  0  0  0
   12.9255    6.4871   24.2202 C   0  0  0  0  0  0  0  0  0  0  0  0
   13.5100    7.3496   23.5720 O   0  0  0  0  0  0  0  0  0  0  0  0
   12.9605    5.1989   23.8739 N   0  0  0  0  0  0  0  0  0  0  0  0
   13.6895    4.7192   22.7084 C   0  0  0  0  0  0  0  0  0  0  0  0
   12.7534    4.1669   21.6523 C   0  0  0  0  0  0  0  0  0  0  0  0
   11.8654    3.1233   22.1750 N   0  0  0  0  0  0  0  0  0  0  0  0
   10.5244    3.2613   22.3812 C   0  0  0  0  0  0  0  0  0  0  0  0
    9.9987    2.1224   22.9001 C   0  0  0  0  0  0  0  0  0  0  0  0
    8.5629    1.8804   23.2581 C   0  0  0  0  0  0  0  0  0  0  0  0
    7.5851    2.0945   22.1220 C   0  0  0  0  0  0  0  0  0  0  0  0
    6.9253    3.1262   22.0562 O   0  0  0  0  0  0  0  0  0  0  0  0
    7.5252    1.0612   21.2472 N   0  0  0  0  0  0  0  0  0  0  0  0
    6.7458    0.8662   20.0797 C   0  0  0  0  0  0  0  0  0  0  0  0
    6.8911   -0.3155   19.3645 C   0  0  0  0  0  0  0  0  0  0  0  0
    6.1376   -0.5221   18.2225 C   0  0  0  0  0  0  0  0  0  0  0  0
    5.2592    0.4597   17.8271 C   0  0  0  0  0  0  0  0  0  0  0  0
    5.0967    1.6040   18.4912 N   0  0  0  0  0  0  0  0  0  0  0  0
    5.8288    1.7950   19.5931 C   0  0  0  0  0  0  0  0  0  0  0  0
   11.0876    1.1989   23.0403 C   0  0  0  0  0  0  0  0  0  0  0  0
   11.1987   -0.1110   23.5029 C   0  0  0  0  0  0  0  0  0  0  0  0
   12.4350   -0.7354   23.5151 C   0  0  0  0  0  0  0  0  0  0  0  0
   13.5626   -0.0742   23.0734 C   0  0  0  0  0  0  0  0  0  0  0  0
   13.4853    1.2274   22.6041 C   0  0  0  0  0  0  0  0  0  0  0  0
   12.2443    1.8553   22.5876 C   0  0  0  0  0  0  0  0  0  0  0  0
  1  2  1  0
  2  3  2  0
  2  4  1  0
  4  5  1  0
  5  6  1  0
  6  7  1  0
  7  8  1  0
  8  9  2  0
  9 10  1  0
 10 11  1  0
 11 12  2  0
 11 13  1  0
 13 14  1  0
 14 15  2  0
 15 16  1  0
 16 17  2  0
 17 18  1  0
 18 19  2  0
  9 20  1  0
 20 21  2  0
 21 22  1  0
 22 23  2  0
 23 24  1  0
 24 25  2  0
 25  7  1  0
 19 14  1  0
 25 20  1  0
M  END
