CVD-0003997|dock_bobby27042020.72|mol2|9|dock1
     RDKit          3D

 21 21  0  0  0  0  0  0  0  0999 V2000
    4.5654    0.8976   19.5504 C   0  0  0  0  0  0  0  0  0  0  0  0
    5.6438    0.6529   18.1895 S   0  0  0  0  0  0  0  0  0  0  0  0
    5.7308    1.8742   17.4421 O   0  0  0  0  0  0  0  0  0  0  0  0
    5.2567   -0.5449   17.5013 O   0  0  0  0  0  0  0  0  0  0  0  0
    7.2097    0.3639   18.9144 C   0  0  0  0  0  0  0  0  0  0  0  0
    7.6821    1.1467   19.7062 O   0  0  0  0  0  0  0  0  0  0  0  0
    7.9356   -0.8929   18.5423 C   0  0  0  0  0  0  0  0  0  0  0  0
    8.7939   -1.4298   19.5759 N   0  0  0  0  0  0  0  0  0  0  0  0
    8.3911   -1.4982   20.8446 C   0  0  0  0  0  0  0  0  0  0  0  0
    7.2701   -1.1429   21.1990 O   0  0  0  0  0  0  0  0  0  0  0  0
    9.4022   -2.0485   21.8420 C   0  0  0  0  0  0  0  0  0  0  0  0
    8.6960   -2.4639   23.1411 C   0  0  0  0  0  0  0  0  0  0  0  0
    7.6995   -3.4486   22.8943 O   0  0  0  0  0  0  0  0  0  0  0  0
   10.4636   -0.9828   22.1416 C   0  0  0  0  0  0  0  0  0  0  0  0
   10.3601    0.1276   21.6496 O   0  0  0  0  0  0  0  0  0  0  0  0
   11.6161   -1.2923   23.0221 C   0  0  0  0  0  0  0  0  0  0  0  0
   12.5031   -2.2516   22.7182 C   0  0  0  0  0  0  0  0  0  0  0  0
   13.6865   -2.4756   23.5474 C   0  0  0  0  0  0  0  0  0  0  0  0
   14.0832   -1.5126   24.3585 C   0  0  0  0  0  0  0  0  0  0  0  0
   13.3068   -0.2511   24.4782 C   0  0  0  0  0  0  0  0  0  0  0  0
   11.8035   -0.4908   24.3129 C   0  0  0  0  0  0  0  0  0  0  0  0
  1  2  1  0
  2  3  2  0
  2  4  2  0
  2  5  1  0
  5  6  2  0
  5  7  1  0
  7  8  1  0
  8  9  1  0
  9 10  2  0
  9 11  1  0
 11 12  1  0
 12 13  1  0
 11 14  1  0
 14 15  2  0
 14 16  1  0
 16 17  2  0
 17 18  1  0
 18 19  2  0
 19 20  1  0
 20 21  1  0
 21 16  1  0
M  END
