CVD-0003566|dock_bobby27042020.73|mol2|23|dock1
     RDKit          3D

 29 32  0  0  0  0  0  0  0  0999 V2000
   13.2291    5.6670   22.0721 N   0  0  0  0  0  0  0  0  0  0  0  0
   13.5973    4.8986   23.4276 S   0  0  0  0  0  0  0  0  0  0  0  0
   15.0144    5.0067   23.6040 O   0  0  0  0  0  0  0  0  0  0  0  0
   12.7322    5.4057   24.4501 O   0  0  0  0  0  0  0  0  0  0  0  0
   13.2206    3.1846   23.2195 C   0  0  0  0  0  0  0  0  0  0  0  0
   14.1856    2.3194   22.7283 C   0  0  0  0  0  0  0  0  0  0  0  0
   13.8674    0.9850   22.5554 C   0  0  0  0  0  0  0  0  0  0  0  0
   12.6015    0.4994   22.8647 C   0  0  0  0  0  0  0  0  0  0  0  0
   12.2629   -0.9671   22.7192 C   0  0  0  0  0  0  0  0  0  0  0  0
   11.2288   -1.1726   21.5913 C   0  0  0  0  0  0  0  0  0  0  0  0
    9.7604   -0.8959   21.9241 C   0  0  0  0  0  0  0  0  0  0  0  0
    9.5009    0.4331   22.4939 N   0  0  0  0  0  0  0  0  0  0  0  0
    8.0553    0.6159   22.6451 C   0  0  0  0  0  0  0  0  0  0  0  0
    7.2810    0.6243   21.3377 C   0  0  0  0  0  0  0  0  0  0  0  0
    7.8582    0.6715   20.2558 O   0  0  0  0  0  0  0  0  0  0  0  0
    5.9567    0.5860   21.4575 N   0  0  0  0  0  0  0  0  0  0  0  0
    5.0948    0.5977   20.2954 C   0  0  0  0  0  0  0  0  0  0  0  0
    5.3101   -0.6186   19.4288 C   0  0  0  0  0  0  0  0  0  0  0  0
    5.1752   -0.7001   18.0740 C   0  0  0  0  0  0  0  0  0  0  0  0
    5.4538   -1.9688   17.6397 N   0  0  0  0  0  0  0  0  0  0  0  0
    5.7772   -2.7371   18.7196 C   0  0  0  0  0  0  0  0  0  0  0  0
    6.1144   -4.0379   18.7227 N   0  0  0  0  0  0  0  0  0  0  0  0
    6.3915   -4.5755   19.9186 C   0  0  0  0  0  0  0  0  0  0  0  0
    6.3467   -3.8750   21.1050 C   0  0  0  0  0  0  0  0  0  0  0  0
    5.9969   -2.5340   21.0840 C   0  0  0  0  0  0  0  0  0  0  0  0
    5.6995   -1.9276   19.8654 C   0  0  0  0  0  0  0  0  0  0  0  0
   10.2419    0.8689   23.6802 C   0  0  0  0  0  0  0  0  0  0  0  0
   11.6336    1.3803   23.3599 C   0  0  0  0  0  0  0  0  0  0  0  0
   11.9521    2.7218   23.5343 C   0  0  0  0  0  0  0  0  0  0  0  0
  1  2  1  0
  2  3  2  0
  2  4  2  0
  2  5  1  0
  5  6  2  0
  6  7  1  0
  7  8  2  0
  8  9  1  0
  9 10  1  0
 10 11  1  0
 11 12  1  0
 12 13  1  0
 13 14  1  0
 14 15  2  0
 14 16  1  0
 16 17  1  0
 17 18  1  0
 18 19  2  0
 19 20  1  0
 20 21  1  0
 21 22  2  0
 22 23  1  0
 23 24  2  0
 24 25  1  0
 25 26  2  0
 12 27  1  0
 27 28  1  0
 28 29  2  0
 29  5  1  0
 28  8  1  0
 26 18  1  0
 26 21  1  0
M  END
