CVD-0001722|dock_bobby27042020.94|mol2|23|dock2
     RDKit          3D

 25 27  0  0  0  0  0  0  0  0999 V2000
    6.3792   -6.7676   22.1163 Cl  0  0  0  0  0  0  0  0  0  0  0  0
    6.5604   -5.1194   22.6485 C   0  0  0  0  0  0  0  0  0  0  0  0
    5.8252   -4.6759   23.7241 C   0  0  0  0  0  0  0  0  0  0  0  0
    5.9786   -3.3637   24.1348 C   0  0  0  0  0  0  0  0  0  0  0  0
    6.8551   -2.5188   23.4745 C   0  0  0  0  0  0  0  0  0  0  0  0
    7.5985   -2.9712   22.3902 C   0  0  0  0  0  0  0  0  0  0  0  0
    7.4383   -4.2913   21.9799 C   0  0  0  0  0  0  0  0  0  0  0  0
    8.5057   -2.1003   21.6876 N   0  0  0  0  0  0  0  0  0  0  0  0
    9.9462   -2.2870   21.9384 C   0  0  0  0  0  0  0  0  0  0  0  0
   10.5050   -1.1687   22.8037 C   0  0  0  0  0  0  0  0  0  0  0  0
   11.5715   -1.6209   23.7071 N   0  0  0  0  0  0  0  0  0  0  0  0
   11.9028   -0.5650   24.6665 C   0  0  0  0  0  0  0  0  0  0  0  0
   13.0410   -0.9851   25.5694 C   0  0  0  0  0  0  0  0  0  0  0  0
   14.2388   -1.3445   24.7960 N   0  0  0  0  0  0  0  0  0  0  0  0
   13.9055   -2.3767   23.8008 C   0  0  0  0  0  0  0  0  0  0  0  0
   12.7609   -1.9434   22.9230 C   0  0  0  0  0  0  0  0  0  0  0  0
    8.2034   -1.1143   20.7448 C   0  0  0  0  0  0  0  0  0  0  0  0
    9.1294   -0.4421   20.3092 O   0  0  0  0  0  0  0  0  0  0  0  0
    6.9001   -0.9250   20.3556 N   0  0  0  0  0  0  0  0  0  0  0  0
    6.3455    0.0056   19.4389 C   0  0  0  0  0  0  0  0  0  0  0  0
    5.1247    0.6563   19.5983 C   0  0  0  0  0  0  0  0  0  0  0  0
    4.6937    1.5394   18.6233 C   0  0  0  0  0  0  0  0  0  0  0  0
    5.4893    1.7545   17.5220 C   0  0  0  0  0  0  0  0  0  0  0  0
    6.6645    1.1525   17.3434 N   0  0  0  0  0  0  0  0  0  0  0  0
    7.0696    0.3000   18.2889 C   0  0  0  0  0  0  0  0  0  0  0  0
  1  2  1  0
  2  3  2  0
  3  4  1  0
  4  5  2  0
  5  6  1  0
  6  7  2  0
  6  8  1  0
  8  9  1  0
  9 10  1  0
 10 11  1  0
 11 12  1  0
 12 13  1  0
 13 14  1  0
 14 15  1  0
 15 16  1  0
  8 17  1  0
 17 18  2  0
 17 19  1  0
 19 20  1  0
 20 21  2  0
 21 22  1  0
 22 23  2  0
 23 24  1  0
 24 25  2  0
  7  2  1  0
 16 11  1  0
 25 20  1  0
M  END
