CVD-0000607|dock_bobby27042020.26|mol2|41|dock1
     RDKit          3D

 25 27  0  0  0  0  0  0  0  0999 V2000
   13.1905    6.8164   23.7434 N   0  0  0  0  0  0  0  0  0  0  0  0
   13.6787    5.5853   22.8438 S   0  0  0  0  0  0  0  0  0  0  0  0
   14.8167    5.0098   23.4955 O   0  0  0  0  0  0  0  0  0  0  0  0
   13.8207    6.0702   21.5037 O   0  0  0  0  0  0  0  0  0  0  0  0
   12.4037    4.3617   22.8299 C   0  0  0  0  0  0  0  0  0  0  0  0
   11.0977    4.7281   23.1042 C   0  0  0  0  0  0  0  0  0  0  0  0
   10.1123    3.7566   23.0938 C   0  0  0  0  0  0  0  0  0  0  0  0
   10.4206    2.4350   22.8153 C   0  0  0  0  0  0  0  0  0  0  0  0
   11.7348    2.0814   22.5440 C   0  0  0  0  0  0  0  0  0  0  0  0
   12.1485    0.7613   22.2497 O   0  0  0  0  0  0  0  0  0  0  0  0
   12.2121   -0.4546   23.0598 C   0  0  0  0  0  0  0  0  0  0  0  0
   10.8021   -1.0299   23.2877 C   0  0  0  0  0  0  0  0  0  0  0  0
    9.9942   -1.1886   22.0172 C   0  0  0  0  0  0  0  0  0  0  0  0
   10.5315   -1.1347   20.9161 O   0  0  0  0  0  0  0  0  0  0  0  0
    8.6720   -1.3874   22.2385 N   0  0  0  0  0  0  0  0  0  0  0  0
    7.5899   -1.5788   21.3437 C   0  0  0  0  0  0  0  0  0  0  0  0
    7.6852   -1.0680   20.0556 C   0  0  0  0  0  0  0  0  0  0  0  0
    6.6380   -1.2456   19.1689 C   0  0  0  0  0  0  0  0  0  0  0  0
    5.5236   -1.9297   19.5950 C   0  0  0  0  0  0  0  0  0  0  0  0
    5.4012   -2.4319   20.8237 N   0  0  0  0  0  0  0  0  0  0  0  0
    6.4178   -2.2555   21.6736 C   0  0  0  0  0  0  0  0  0  0  0  0
   13.1888   -1.5214   22.5162 C   0  0  0  0  0  0  0  0  0  0  0  0
   13.8798   -1.5846   23.8661 C   0  0  0  0  0  0  0  0  0  0  0  0
   13.0607   -0.3824   24.3423 C   0  0  0  0  0  0  0  0  0  0  0  0
   12.7319    3.0443   22.5510 C   0  0  0  0  0  0  0  0  0  0  0  0
  1  2  1  0
  2  3  2  0
  2  4  2  0
  2  5  1  0
  5  6  2  0
  6  7  1  0
  7  8  2  0
  8  9  1  0
  9 10  1  0
 10 11  1  0
 11 12  1  0
 12 13  1  0
 13 14  2  0
 13 15  1  0
 15 16  1  0
 16 17  2  0
 17 18  1  0
 18 19  2  0
 19 20  1  0
 20 21  2  0
 11 22  1  0
 22 23  1  0
 23 24  1  0
  9 25  2  0
 25  5  1  0
 24 11  1  0
 21 16  1  0
M  END
