CVD-0002054|dock_bobby27042020.21|mol2|41|dock3
     RDKit          3D

 34 37  0  0  0  0  0  0  0  0999 V2000
    7.0461   -5.9860   21.9614 C   0  0  0  0  0  0  0  0  0  0  0  0
    6.4904   -5.2470   23.0980 N   0  0  0  0  0  0  0  0  0  0  0  0
    7.4381   -4.3402   23.7544 C   0  0  0  0  0  0  0  0  0  0  0  0
    7.8180   -3.1891   22.8604 C   0  0  0  0  0  0  0  0  0  0  0  0
    6.9466   -2.5145   21.9884 C   0  0  0  0  0  0  0  0  0  0  0  0
    7.6162   -1.5007   21.3245 C   0  0  0  0  0  0  0  0  0  0  0  0
    7.0321   -0.5653   20.3245 C   0  0  0  0  0  0  0  0  0  0  0  0
    7.7604   -0.1531   19.2054 C   0  0  0  0  0  0  0  0  0  0  0  0
    7.2233    0.7220   18.2761 C   0  0  0  0  0  0  0  0  0  0  0  0
    5.9521    1.2215   18.4389 C   0  0  0  0  0  0  0  0  0  0  0  0
    5.2024    0.8413   19.5356 C   0  0  0  0  0  0  0  0  0  0  0  0
    5.7491   -0.0384   20.4397 C   0  0  0  0  0  0  0  0  0  0  0  0
    4.9572   -0.3869   21.4796 F   0  0  0  0  0  0  0  0  0  0  0  0
    8.9577   -1.5578   21.8042 N   0  0  0  0  0  0  0  0  0  0  0  0
    9.0574   -2.5826   22.7372 C   0  0  0  0  0  0  0  0  0  0  0  0
   10.3592   -0.6635   21.4612 S   0  0  0  0  0  0  0  0  0  0  0  0
    9.9064    0.6717   21.2240 O   0  0  0  0  0  0  0  0  0  0  0  0
   11.0669   -1.3503   20.4254 O   0  0  0  0  0  0  0  0  0  0  0  0
   11.3553   -0.6197   22.9351 C   0  0  0  0  0  0  0  0  0  0  0  0
   12.6084   -1.2141   22.8795 C   0  0  0  0  0  0  0  0  0  0  0  0
   13.4590   -1.2558   23.9074 N   0  0  0  0  0  0  0  0  0  0  0  0
   13.0533   -0.6849   25.0404 C   0  0  0  0  0  0  0  0  0  0  0  0
   11.8285   -0.0664   25.1942 C   0  0  0  0  0  0  0  0  0  0  0  0
   10.9357   -0.0154   24.1267 C   0  0  0  0  0  0  0  0  0  0  0  0
    9.5975    0.6636   24.2909 C   0  0  0  0  0  0  0  0  0  0  0  0
    9.3899    1.7696   23.3774 N   0  0  0  0  0  0  0  0  0  0  0  0
   10.3341    2.7107   23.1004 C   0  0  0  0  0  0  0  0  0  0  0  0
    9.9885    4.0455   22.8898 C   0  0  0  0  0  0  0  0  0  0  0  0
   10.9962    4.9513   22.6122 C   0  0  0  0  0  0  0  0  0  0  0  0
   12.3157    4.5183   22.5498 C   0  0  0  0  0  0  0  0  0  0  0  0
   12.5600    3.1671   22.7748 C   0  0  0  0  0  0  0  0  0  0  0  0
   11.5977    2.2779   23.0444 N   0  0  0  0  0  0  0  0  0  0  0  0
   13.3912    5.4352   22.2626 C   0  0  0  0  0  0  0  0  0  0  0  0
   14.2304    6.1659   22.0047 N   0  0  0  0  0  0  0  0  0  0  0  0
  1  2  1  0
  2  3  1  0
  3  4  1  0
  4  5  1  0
  5  6  2  0
  6  7  1  0
  7  8  2  0
  8  9  1  0
  9 10  2  0
 10 11  1  0
 11 12  2  0
 12 13  1  0
  6 14  1  0
 14 15  1  0
 14 16  1  0
 16 17  2  0
 16 18  2  0
 16 19  1  0
 19 20  2  0
 20 21  1  0
 21 22  2  0
 22 23  1  0
 23 24  2  0
 24 25  1  0
 25 26  1  0
 26 27  1  0
 27 28  2  0
 28 29  1  0
 29 30  2  0
 30 31  1  0
 31 32  2  0
 30 33  1  0
 33 34  3  0
 15  4  2  0
 24 19  1  0
 32 27  1  0
 12  7  1  0
M  END
