CVD-0001076|dock_bobby27042020.39|mol2|24|dock3
     RDKit          3D

 21 23  0  0  0  0  0  0  0  0999 V2000
    2.6144    2.4122   20.5145 Cl  0  0  0  0  0  0  0  0  0  0  0  0
    4.1452    1.6250   20.2510 C   0  0  0  0  0  0  0  0  0  0  0  0
    4.7054    1.6355   18.9939 C   0  0  0  0  0  0  0  0  0  0  0  0
    5.9256    1.0153   18.7941 C   0  0  0  0  0  0  0  0  0  0  0  0
    6.6000    0.3844   19.8350 C   0  0  0  0  0  0  0  0  0  0  0  0
    5.9935    0.3776   21.0896 C   0  0  0  0  0  0  0  0  0  0  0  0
    4.7766    1.0010   21.3029 C   0  0  0  0  0  0  0  0  0  0  0  0
    7.9222   -0.2559   19.5375 C   0  0  0  0  0  0  0  0  0  0  0  0
    8.1174   -0.6141   18.3709 O   0  0  0  0  0  0  0  0  0  0  0  0
    8.9949   -0.4904   20.5268 C   0  0  0  0  0  0  0  0  0  0  0  0
    9.3106    0.3290   21.5281 C   0  0  0  0  0  0  0  0  0  0  0  0
   10.3689    0.1147   22.5193 C   0  0  0  0  0  0  0  0  0  0  0  0
   10.4763    0.9044   23.6615 C   0  0  0  0  0  0  0  0  0  0  0  0
   11.4083    0.7445   24.5720 N   0  0  0  0  0  0  0  0  0  0  0  0
   12.3065   -0.2647   24.3512 C   0  0  0  0  0  0  0  0  0  0  0  0
   13.3436   -0.5079   25.2806 C   0  0  0  0  0  0  0  0  0  0  0  0
   14.2363   -1.5147   25.0563 C   0  0  0  0  0  0  0  0  0  0  0  0
   14.1460   -2.3078   23.9296 C   0  0  0  0  0  0  0  0  0  0  0  0
   13.1615   -2.1089   23.0065 C   0  0  0  0  0  0  0  0  0  0  0  0
   12.2136   -1.0774   23.1964 C   0  0  0  0  0  0  0  0  0  0  0  0
   11.2228   -0.8715   22.2748 N   0  0  0  0  0  0  0  0  0  0  0  0
  1  2  1  0
  2  3  2  0
  3  4  1  0
  4  5  2  0
  5  6  1  0
  6  7  2  0
  5  8  1  0
  8  9  2  0
  8 10  1  0
 10 11  2  0
 11 12  1  0
 12 13  2  0
 13 14  1  0
 14 15  2  0
 15 16  1  0
 16 17  2  0
 17 18  1  0
 18 19  2  0
 19 20  1  0
 20 21  2  0
  7  2  1  0
 21 12  1  0
 20 15  1  0
M  END
