CVD-0003447|dock_bobby27042020.16|mol2|32|dock1
     RDKit          3D

 20 22  0  0  0  0  0  0  0  0999 V2000
    8.8764   -0.0110   17.3910 F   0  0  0  0  0  0  0  0  0  0  0  0
    7.7897    0.3266   18.1016 C   0  0  0  0  0  0  0  0  0  0  0  0
    6.8187    0.8618   17.4098 N   0  0  0  0  0  0  0  0  0  0  0  0
    5.7122    1.2238   18.0705 C   0  0  0  0  0  0  0  0  0  0  0  0
    5.5453    1.0077   19.4333 C   0  0  0  0  0  0  0  0  0  0  0  0
    4.5142    1.2568   20.3074 N   0  0  0  0  0  0  0  0  0  0  0  0
    4.8561    0.7969   21.5551 C   0  0  0  0  0  0  0  0  0  0  0  0
    6.0999    0.2633   21.5284 C   0  0  0  0  0  0  0  0  0  0  0  0
    6.5816    0.4094   20.1819 C   0  0  0  0  0  0  0  0  0  0  0  0
    7.7747    0.0922   19.4987 C   0  0  0  0  0  0  0  0  0  0  0  0
    8.9413   -0.4534   20.1352 N   0  0  0  0  0  0  0  0  0  0  0  0
    9.4372   -0.0869   21.3638 C   0  0  0  0  0  0  0  0  0  0  0  0
    8.9396    0.7684   22.0877 O   0  0  0  0  0  0  0  0  0  0  0  0
   10.5759   -0.7989   21.6608 N   0  0  0  0  0  0  0  0  0  0  0  0
   11.4306   -0.7541   22.7914 C   0  0  0  0  0  0  0  0  0  0  0  0
   12.7442   -1.1783   22.6245 C   0  0  0  0  0  0  0  0  0  0  0  0
   13.6315   -1.1602   23.6872 C   0  0  0  0  0  0  0  0  0  0  0  0
   13.2215   -0.7204   24.9261 C   0  0  0  0  0  0  0  0  0  0  0  0
   11.9227   -0.2978   25.1046 C   0  0  0  0  0  0  0  0  0  0  0  0
   11.0257   -0.3113   24.0490 C   0  0  0  0  0  0  0  0  0  0  0  0
  1  2  1  0
  2  3  2  0
  3  4  1  0
  4  5  2  0
  5  6  1  0
  6  7  1  0
  7  8  2  0
  8  9  1  0
  9 10  2  0
 10 11  1  0
 11 12  1  0
 12 13  2  0
 12 14  1  0
 14 15  1  0
 15 16  2  0
 16 17  1  0
 17 18  2  0
 18 19  1  0
 19 20  2  0
 10  2  1  0
 20 15  1  0
  9  5  1  0
M  END
