CVD-0003643|dock_bobby27042020.73|mol2|12|dock3
     RDKit          3D

 31 34  0  0  0  0  0  0  0  0999 V2000
   15.4352    5.3699   23.3304 O   0  0  0  0  0  0  0  0  0  0  0  0
   14.3605    5.7461   22.8667 N   0  0  0  0  0  0  0  0  0  0  0  0
   14.1475    6.8787   22.4684 O   0  0  0  0  0  0  0  0  0  0  0  0
   13.2658    4.7698   22.7881 C   0  0  0  0  0  0  0  0  0  0  0  0
   13.5522    3.4425   22.5275 C   0  0  0  0  0  0  0  0  0  0  0  0
   12.5242    2.5268   22.4120 C   0  0  0  0  0  0  0  0  0  0  0  0
   11.2002    2.9356   22.5592 C   0  0  0  0  0  0  0  0  0  0  0  0
   10.9143    4.2732   22.9114 C   0  0  0  0  0  0  0  0  0  0  0  0
   11.9602    5.1901   22.9792 C   0  0  0  0  0  0  0  0  0  0  0  0
    9.5777    4.7632   23.2253 N   0  0  0  0  0  0  0  0  0  0  0  0
    8.8090    3.9918   23.7957 O   0  0  0  0  0  0  0  0  0  0  0  0
    9.2314    5.8798   22.8805 O   0  0  0  0  0  0  0  0  0  0  0  0
   10.1966    1.9419   22.3108 N   0  0  0  0  0  0  0  0  0  0  0  0
    8.9698    2.3932   21.8497 N   0  0  0  0  0  0  0  0  0  0  0  0
    8.2477    1.2888   21.6368 C   0  0  0  0  0  0  0  0  0  0  0  0
    8.9851    0.1399   21.9580 C   0  0  0  0  0  0  0  0  0  0  0  0
   10.2245    0.5676   22.3926 C   0  0  0  0  0  0  0  0  0  0  0  0
   11.3255   -0.3129   22.8428 C   0  0  0  0  0  0  0  0  0  0  0  0
   11.7276   -1.3553   22.0141 C   0  0  0  0  0  0  0  0  0  0  0  0
   12.7627   -2.2003   22.3726 C   0  0  0  0  0  0  0  0  0  0  0  0
   13.4027   -2.0040   23.5753 C   0  0  0  0  0  0  0  0  0  0  0  0
   14.7168   -3.0533   24.0276 Cl  0  0  0  0  0  0  0  0  0  0  0  0
   13.0200   -0.9923   24.4271 C   0  0  0  0  0  0  0  0  0  0  0  0
   11.9762   -0.1595   24.0643 C   0  0  0  0  0  0  0  0  0  0  0  0
    6.8697    1.3872   21.1311 C   0  0  0  0  0  0  0  0  0  0  0  0
    6.1753    0.2486   20.7383 C   0  0  0  0  0  0  0  0  0  0  0  0
    4.8791    0.3364   20.2622 C   0  0  0  0  0  0  0  0  0  0  0  0
    4.2762    1.5722   20.1795 C   0  0  0  0  0  0  0  0  0  0  0  0
    2.6452    1.6886   19.5809 Cl  0  0  0  0  0  0  0  0  0  0  0  0
    4.9393    2.7178   20.5614 C   0  0  0  0  0  0  0  0  0  0  0  0
    6.2351    2.6207   21.0364 C   0  0  0  0  0  0  0  0  0  0  0  0
  1  2  1  0
  2  3  2  0
  2  4  1  0
  4  5  2  0
  5  6  1  0
  6  7  2  0
  7  8  1  0
  8  9  2  0
  8 10  1  0
 10 11  1  0
 10 12  2  0
  7 13  1  0
 13 14  1  0
 14 15  2  0
 15 16  1  0
 16 17  2  0
 17 18  1  0
 18 19  2  0
 19 20  1  0
 20 21  2  0
 21 22  1  0
 21 23  1  0
 23 24  2  0
 15 25  1  0
 25 26  2  0
 26 27  1  0
 27 28  2  0
 28 29  1  0
 28 30  1  0
 30 31  2  0
  9  4  1  0
 17 13  1  0
 24 18  1  0
 31 25  1  0
M  CHG  4   1  -1   2   1  10   1  11  -1
M  END
