CVD-0000358|dock_bobby27042020.70|mol2|25|dock3
     RDKit          3D

 29 31  0  0  0  0  0  0  0  0999 V2000
   10.4974   -2.3585   23.3759 C   0  0  0  0  0  0  0  0  0  0  0  0
    9.9476   -1.9898   22.0048 C   0  0  0  0  0  0  0  0  0  0  0  0
    8.6021   -1.2739   22.0763 C   0  0  0  0  0  0  0  0  0  0  0  0
    7.8008   -1.3910   20.7968 C   0  0  0  0  0  0  0  0  0  0  0  0
    7.8973   -0.3936   19.8421 C   0  0  0  0  0  0  0  0  0  0  0  0
    8.6925    0.6644   20.0844 F   0  0  0  0  0  0  0  0  0  0  0  0
    7.2087   -0.4492   18.6562 C   0  0  0  0  0  0  0  0  0  0  0  0
    7.3401    0.5575   17.7623 F   0  0  0  0  0  0  0  0  0  0  0  0
    6.3922   -1.5115   18.3676 C   0  0  0  0  0  0  0  0  0  0  0  0
    6.2723   -2.5219   19.3033 C   0  0  0  0  0  0  0  0  0  0  0  0
    6.9504   -2.4805   20.5266 C   0  0  0  0  0  0  0  0  0  0  0  0
    6.7624   -3.5962   21.5381 C   0  0  0  0  0  0  0  0  0  0  0  0
    5.6148   -3.3667   22.4829 C   0  0  0  0  0  0  0  0  0  0  0  0
    5.4713   -4.5219   23.3675 N   0  0  0  0  0  0  0  0  0  0  0  0
    5.3959   -5.7926   22.6496 C   0  0  0  0  0  0  0  0  0  0  0  0
    6.5446   -5.9088   21.6923 C   0  0  0  0  0  0  0  0  0  0  0  0
    6.6055   -4.8034   20.8066 O   0  0  0  0  0  0  0  0  0  0  0  0
    5.3933   -4.4803   24.7253 C   0  0  0  0  0  0  0  0  0  0  0  0
    5.4834   -3.1597   25.4334 C   0  0  0  0  0  0  0  0  0  0  0  0
    5.2634   -5.5139   25.3718 O   0  0  0  0  0  0  0  0  0  0  0  0
   10.9378   -1.2234   21.2262 N   0  0  0  0  0  0  0  0  0  0  0  0
   11.7187   -0.1932   21.6705 C   0  0  0  0  0  0  0  0  0  0  0  0
   13.0136   -0.3727   22.1616 C   0  0  0  0  0  0  0  0  0  0  0  0
   13.7210    0.7389   22.5834 C   0  0  0  0  0  0  0  0  0  0  0  0
   13.1394    1.9990   22.5143 C   0  0  0  0  0  0  0  0  0  0  0  0
   11.8447    2.0785   22.0129 C   0  0  0  0  0  0  0  0  0  0  0  0
   11.1476    1.0141   21.6010 N   0  0  0  0  0  0  0  0  0  0  0  0
   13.8499    3.1775   22.9455 C   0  0  0  0  0  0  0  0  0  0  0  0
   14.3840    4.1282   23.2859 N   0  0  0  0  0  0  0  0  0  0  0  0
  2  1  1  0
  2  3  1  0
  3  4  1  0
  4  5  2  0
  5  6  1  0
  5  7  1  0
  7  8  1  0
  7  9  2  0
  9 10  1  0
 10 11  2  0
 12 11  1  0
 12 13  1  0
 13 14  1  0
 14 15  1  0
 15 16  1  0
 16 17  1  0
 14 18  1  0
 18 19  1  0
 18 20  2  0
  2 21  1  0
 21 22  1  0
 22 23  2  0
 23 24  1  0
 24 25  2  0
 25 26  1  0
 26 27  2  0
 25 28  1  0
 28 29  3  0
 11  4  1  0
 17 12  1  0
 27 22  1  0
M  END
