CVD-0000998|dock_bobby27042020.11|mol2|11|dock1
     RDKit          3D

 35 39  0  0  0  0  0  0  0  0999 V2000
    6.5049   -6.0064   27.9515 C   0  0  0  0  0  0  0  0  0  0  0  0
    5.7775   -6.3698   26.6777 C   0  0  0  0  0  0  0  0  0  0  0  0
    4.4339   -5.6765   26.5436 C   0  0  0  0  0  0  0  0  0  0  0  0
    3.6581   -6.0962   25.3017 C   0  0  0  0  0  0  0  0  0  0  0  0
    4.4257   -5.9108   24.0152 C   0  0  0  0  0  0  0  0  0  0  0  0
    4.5620   -4.6574   23.4397 C   0  0  0  0  0  0  0  0  0  0  0  0
    5.2679   -4.4868   22.2621 C   0  0  0  0  0  0  0  0  0  0  0  0
    5.8596   -5.5647   21.6230 C   0  0  0  0  0  0  0  0  0  0  0  0
    6.6325   -5.3783   20.3398 C   0  0  0  0  0  0  0  0  0  0  0  0
    6.7403   -3.9965   19.9150 N   0  0  0  0  0  0  0  0  0  0  0  0
    7.7204   -3.1495   20.3340 C   0  0  0  0  0  0  0  0  0  0  0  0
    8.4134   -3.3689   21.5226 C   0  0  0  0  0  0  0  0  0  0  0  0
    9.3976   -2.4672   21.8846 C   0  0  0  0  0  0  0  0  0  0  0  0
    9.6859   -1.3655   21.0848 C   0  0  0  0  0  0  0  0  0  0  0  0
    8.9305   -1.2445   19.9243 C   0  0  0  0  0  0  0  0  0  0  0  0
    7.9777   -2.1034   19.5444 N   0  0  0  0  0  0  0  0  0  0  0  0
   10.7395   -0.3827   21.4574 C   0  0  0  0  0  0  0  0  0  0  0  0
   12.0933   -0.7279   21.4381 C   0  0  0  0  0  0  0  0  0  0  0  0
   13.0897    0.1743   21.7788 C   0  0  0  0  0  0  0  0  0  0  0  0
   12.7330    1.4660   22.1575 C   0  0  0  0  0  0  0  0  0  0  0  0
   13.4866    2.5682   22.5476 N   0  0  0  0  0  0  0  0  0  0  0  0
   12.5992    3.4912   22.7793 C   0  0  0  0  0  0  0  0  0  0  0  0
   11.2920    3.1164   22.5808 O   0  0  0  0  0  0  0  0  0  0  0  0
   11.4021    1.8010   22.1777 C   0  0  0  0  0  0  0  0  0  0  0  0
   10.3965    0.9175   21.8381 C   0  0  0  0  0  0  0  0  0  0  0  0
   12.8522    4.8706   23.2244 C   0  0  0  0  0  0  0  0  0  0  0  0
   13.7830    5.6675   22.5699 C   0  0  0  0  0  0  0  0  0  0  0  0
   14.0213    6.9643   22.9877 C   0  0  0  0  0  0  0  0  0  0  0  0
   13.3306    7.4844   24.0691 C   0  0  0  0  0  0  0  0  0  0  0  0
   13.5982    8.7758   24.4501 O   0  0  0  0  0  0  0  0  0  0  0  0
   13.3370    9.1996   25.7867 C   0  0  0  0  0  0  0  0  0  0  0  0
   12.3978    6.6999   24.7326 C   0  0  0  0  0  0  0  0  0  0  0  0
   12.1651    5.4034   24.3082 C   0  0  0  0  0  0  0  0  0  0  0  0
    5.7260   -6.8179   22.1994 C   0  0  0  0  0  0  0  0  0  0  0  0
    5.0200   -6.9880   23.3770 C   0  0  0  0  0  0  0  0  0  0  0  0
  1  2  1  0
  2  3  1  0
  3  4  1  0
  4  5  1  0
  5  6  2  0
  6  7  1  0
  7  8  2  0
  8  9  1  0
  9 10  1  0
 10 11  1  0
 11 12  2  0
 12 13  1  0
 13 14  2  0
 14 15  1  0
 15 16  2  0
 14 17  1  0
 17 18  2  0
 18 19  1  0
 19 20  2  0
 20 21  1  0
 21 22  2  0
 22 23  1  0
 23 24  1  0
 24 25  2  0
 22 26  1  0
 26 27  2  0
 27 28  1  0
 28 29  2  0
 29 30  1  0
 30 31  1  0
 29 32  1  0
 32 33  2  0
  8 34  1  0
 34 35  2  0
 35  5  1  0
 16 11  1  0
 25 17  1  0
 33 26  1  0
 24 20  1  0
M  END
