CVD-0000560|dock_bobby27042020.26|mol2|48|dock3
     RDKit          3D

 23 25  0  0  0  0  0  0  0  0999 V2000
    9.6183    0.6687   23.0721 O   0  0  0  0  0  0  0  0  0  0  0  0
   10.0369   -0.0523   22.1724 C   0  0  0  0  0  0  0  0  0  0  0  0
   11.3841   -0.7436   22.2540 C   0  0  0  0  0  0  0  0  0  0  0  0
   12.4418   -0.1275   23.2047 C   0  0  0  0  0  0  0  0  0  0  0  0
   13.7643   -0.7695   22.7930 C   0  0  0  0  0  0  0  0  0  0  0  0
   13.7817   -2.2466   23.1320 C   0  0  0  0  0  0  0  0  0  0  0  0
   13.5139   -2.4797   24.6111 C   0  0  0  0  0  0  0  0  0  0  0  0
   12.2042   -1.8342   25.0336 C   0  0  0  0  0  0  0  0  0  0  0  0
   12.1731   -0.3514   24.6861 C   0  0  0  0  0  0  0  0  0  0  0  0
   12.6073    1.3151   22.9884 C   0  0  0  0  0  0  0  0  0  0  0  0
   12.8260    2.4802   22.8240 C   0  0  0  0  0  0  0  0  0  0  0  0
   13.0618    3.8837   22.7149 C   0  0  0  0  0  0  0  0  0  0  0  0
   12.8937    4.8709   23.6385 C   0  0  0  0  0  0  0  0  0  0  0  0
   13.2644    6.0276   23.0204 N   0  0  0  0  0  0  0  0  0  0  0  0
   13.6361    5.7137   21.7740 C   0  0  0  0  0  0  0  0  0  0  0  0
   13.5328    4.4156   21.5311 N   0  0  0  0  0  0  0  0  0  0  0  0
    9.3755   -0.3205   21.0202 N   0  0  0  0  0  0  0  0  0  0  0  0
    8.1126    0.1073   20.5394 C   0  0  0  0  0  0  0  0  0  0  0  0
    7.7530   -0.2015   19.2338 C   0  0  0  0  0  0  0  0  0  0  0  0
    6.5244    0.2074   18.7462 C   0  0  0  0  0  0  0  0  0  0  0  0
    5.6883    0.9146   19.5783 C   0  0  0  0  0  0  0  0  0  0  0  0
    6.0034    1.2268   20.8353 N   0  0  0  0  0  0  0  0  0  0  0  0
    7.1924    0.8277   21.2979 C   0  0  0  0  0  0  0  0  0  0  0  0
  1  2  2  0
  2  3  1  0
  3  4  1  0
  4  5  1  0
  5  6  1  0
  6  7  1  0
  7  8  1  0
  8  9  1  0
  4 10  1  0
 10 11  3  0
 11 12  1  0
 12 13  2  0
 13 14  1  0
 14 15  1  0
 15 16  2  0
  2 17  1  0
 17 18  1  0
 18 19  2  0
 19 20  1  0
 20 21  2  0
 21 22  1  0
 22 23  2  0
  9  4  1  0
 16 12  1  0
 23 18  1  0
M  END
