CVD-0003547|dock_bobby27042020.45|mol2|3|dock1
     RDKit          3D

 25 27  0  0  0  0  0  0  0  0999 V2000
   13.3972    5.3959   23.7649 N   0  0  0  0  0  0  0  0  0  0  0  0
   12.5509    4.9268   22.4894 S   0  0  0  0  0  0  0  0  0  0  0  0
   13.2297    5.4168   21.3274 O   0  0  0  0  0  0  0  0  0  0  0  0
   11.1925    5.3207   22.7146 O   0  0  0  0  0  0  0  0  0  0  0  0
   12.5830    3.1616   22.4145 C   0  0  0  0  0  0  0  0  0  0  0  0
   13.7899    2.4879   22.4867 C   0  0  0  0  0  0  0  0  0  0  0  0
   13.7978    1.1050   22.4286 C   0  0  0  0  0  0  0  0  0  0  0  0
   12.6128    0.3862   22.2989 C   0  0  0  0  0  0  0  0  0  0  0  0
   12.6563   -1.1233   22.2570 C   0  0  0  0  0  0  0  0  0  0  0  0
   11.9850   -1.7178   23.5127 C   0  0  0  0  0  0  0  0  0  0  0  0
   10.4548   -1.7859   23.5221 C   0  0  0  0  0  0  0  0  0  0  0  0
    9.7955   -0.4869   23.3330 N   0  0  0  0  0  0  0  0  0  0  0  0
    8.3634   -0.6206   23.6087 C   0  0  0  0  0  0  0  0  0  0  0  0
    7.5917   -1.3763   22.5404 C   0  0  0  0  0  0  0  0  0  0  0  0
    7.0282   -0.7722   21.6341 O   0  0  0  0  0  0  0  0  0  0  0  0
    7.6021   -2.7198   22.7172 N   0  0  0  0  0  0  0  0  0  0  0  0
    7.0099   -3.7659   21.9671 C   0  0  0  0  0  0  0  0  0  0  0  0
    7.1422   -5.0738   22.4152 C   0  0  0  0  0  0  0  0  0  0  0  0
    6.5694   -6.1062   21.6936 C   0  0  0  0  0  0  0  0  0  0  0  0
    5.8800   -5.8017   20.5430 C   0  0  0  0  0  0  0  0  0  0  0  0
    5.7354   -4.5576   20.0866 N   0  0  0  0  0  0  0  0  0  0  0  0
    6.2921   -3.5666   20.7901 C   0  0  0  0  0  0  0  0  0  0  0  0
   10.0845    0.3140   22.1424 C   0  0  0  0  0  0  0  0  0  0  0  0
   11.3921    1.0741   22.2263 C   0  0  0  0  0  0  0  0  0  0  0  0
   11.3923    2.4638   22.2852 C   0  0  0  0  0  0  0  0  0  0  0  0
  1  2  1  0
  2  3  2  0
  2  4  2  0
  2  5  1  0
  5  6  2  0
  6  7  1  0
  7  8  2  0
  8  9  1  0
  9 10  1  0
 10 11  1  0
 11 12  1  0
 12 13  1  0
 13 14  1  0
 14 15  2  0
 14 16  1  0
 16 17  1  0
 17 18  2  0
 18 19  1  0
 19 20  2  0
 20 21  1  0
 21 22  2  0
 12 23  1  0
 23 24  1  0
 24 25  2  0
 25  5  1  0
 24  8  1  0
 22 17  1  0
M  END
