CVD-0001681|dock_bobby27042020.80|mol2|22|dock1
     RDKit          3D

 19 20  0  0  0  0  0  0  0  0999 V2000
   13.3328    2.7501   22.5077 C   0  0  0  0  0  0  0  0  0  0  0  0
   13.3601    1.2755   22.7873 C   0  0  0  0  0  0  0  0  0  0  0  0
   14.4201    0.6602   22.7694 O   0  0  0  0  0  0  0  0  0  0  0  0
   12.2050    0.6210   23.0769 N   0  0  0  0  0  0  0  0  0  0  0  0
   10.8772    1.2459   23.1330 C   0  0  0  0  0  0  0  0  0  0  0  0
    9.8978    0.5361   22.2082 C   0  0  0  0  0  0  0  0  0  0  0  0
    9.8434   -0.9558   22.5088 C   0  0  0  0  0  0  0  0  0  0  0  0
   11.2546   -1.5467   22.4555 C   0  0  0  0  0  0  0  0  0  0  0  0
   12.2178   -0.8079   23.3716 C   0  0  0  0  0  0  0  0  0  0  0  0
    8.7827   -1.8394   21.3777 S   0  0  0  0  0  0  0  0  0  0  0  0
    8.5593   -3.1439   21.9401 O   0  0  0  0  0  0  0  0  0  0  0  0
    9.3611   -1.7542   20.0640 O   0  0  0  0  0  0  0  0  0  0  0  0
    7.2285   -0.9666   21.3397 C   0  0  0  0  0  0  0  0  0  0  0  0
    6.4986   -0.9202   22.5221 C   0  0  0  0  0  0  0  0  0  0  0  0
    5.2746   -0.2716   22.5501 C   0  0  0  0  0  0  0  0  0  0  0  0
    4.7724    0.3387   21.4224 C   0  0  0  0  0  0  0  0  0  0  0  0
    5.4937    0.3175   20.2429 C   0  0  0  0  0  0  0  0  0  0  0  0
    6.7188   -0.3253   20.2022 C   0  0  0  0  0  0  0  0  0  0  0  0
    7.5807   -0.2957   18.6982 Cl  0  0  0  0  0  0  0  0  0  0  0  0
  1  2  1  0
  2  3  2  0
  2  4  1  0
  4  5  1  0
  5  6  1  0
  6  7  1  0
  7  8  1  0
  8  9  1  0
  7 10  1  0
 10 11  2  0
 10 12  2  0
 10 13  1  0
 13 14  2  0
 14 15  1  0
 15 16  2  0
 16 17  1  0
 17 18  2  0
 18 19  1  0
  9  4  1  0
 18 13  1  0
M  END
