CVD-0002858|dock_bobby27042020.32|mol2|44|dock3
     RDKit          3D

 21 23  0  0  0  0  0  0  0  0999 V2000
    5.8870    0.5725   18.7285 C   0  0  0  0  0  0  0  0  0  0  0  0
    6.9087    1.0241   19.7184 C   0  0  0  0  0  0  0  0  0  0  0  0
    8.1563    0.6981   19.6629 N   0  0  0  0  0  0  0  0  0  0  0  0
    8.9055    1.2392   20.7065 N   0  0  0  0  0  0  0  0  0  0  0  0
    8.1927    1.9481   21.5149 C   0  0  0  0  0  0  0  0  0  0  0  0
    8.7186    2.6586   22.7266 C   0  0  0  0  0  0  0  0  0  0  0  0
   10.2034    2.9537   22.6878 C   0  0  0  0  0  0  0  0  0  0  0  0
   10.5419    4.2291   22.5788 N   0  0  0  0  0  0  0  0  0  0  0  0
   11.8417    4.5545   22.5366 C   0  0  0  0  0  0  0  0  0  0  0  0
   12.8566    3.6523   22.5973 C   0  0  0  0  0  0  0  0  0  0  0  0
   12.5455    2.2774   22.7124 C   0  0  0  0  0  0  0  0  0  0  0  0
   13.5256    1.2590   22.7820 C   0  0  0  0  0  0  0  0  0  0  0  0
   13.1673   -0.0506   22.8924 C   0  0  0  0  0  0  0  0  0  0  0  0
   11.8277   -0.4057   22.9398 C   0  0  0  0  0  0  0  0  0  0  0  0
   10.8412    0.5341   22.8748 C   0  0  0  0  0  0  0  0  0  0  0  0
   11.1724    1.9068   22.7599 C   0  0  0  0  0  0  0  0  0  0  0  0
   11.3885   -2.1120   23.0766 S   0  0  0  0  0  0  0  0  0  0  0  0
   10.4211   -2.4863   21.8572 N   0  0  0  0  0  0  0  0  0  0  0  0
   12.5887   -2.8767   22.9150 O   0  0  0  0  0  0  0  0  0  0  0  0
   10.6291   -2.2629   24.2814 O   0  0  0  0  0  0  0  0  0  0  0  0
    6.5133    2.0304   21.0732 S   0  0  0  0  0  0  0  0  0  0  0  0
  1  2  1  0
  2  3  2  0
  3  4  1  0
  4  5  2  0
  5  6  1  0
  6  7  1  0
  7  8  2  0
  8  9  1  0
  9 10  2  0
 10 11  1  0
 11 12  2  0
 12 13  1  0
 13 14  2  0
 14 15  1  0
 15 16  2  0
 14 17  1  0
 17 18  1  0
 17 19  2  0
 17 20  2  0
  5 21  1  0
 21  2  1  0
 16  7  1  0
 16 11  1  0
M  END
