CVD-0000533|dock_bobby27042020.26|mol2|52|dock3
     RDKit          3D

 25 28  0  0  0  0  0  0  0  0999 V2000
    5.8052    1.7525   16.9764 C   0  0  0  0  0  0  0  0  0  0  0  0
    5.6712    0.3492   17.1926 O   0  0  0  0  0  0  0  0  0  0  0  0
    6.2523   -0.2405   18.2875 C   0  0  0  0  0  0  0  0  0  0  0  0
    7.2504    0.3859   19.0186 C   0  0  0  0  0  0  0  0  0  0  0  0
    7.8142   -0.2580   20.1061 C   0  0  0  0  0  0  0  0  0  0  0  0
    7.3973   -1.5281   20.4820 C   0  0  0  0  0  0  0  0  0  0  0  0
    6.3760   -2.1318   19.7593 C   0  0  0  0  0  0  0  0  0  0  0  0
    5.8179   -1.4992   18.6630 C   0  0  0  0  0  0  0  0  0  0  0  0
    8.0304   -2.1479   21.6100 N   0  0  0  0  0  0  0  0  0  0  0  0
    9.4020   -1.9820   21.6737 N   0  0  0  0  0  0  0  0  0  0  0  0
    9.8426   -2.8055   22.5965 C   0  0  0  0  0  0  0  0  0  0  0  0
   11.2459   -2.6040   23.0780 C   0  0  0  0  0  0  0  0  0  0  0  0
    8.7782   -3.5441   23.1751 C   0  0  0  0  0  0  0  0  0  0  0  0
    7.6485   -3.0961   22.5211 C   0  0  0  0  0  0  0  0  0  0  0  0
    6.3420   -3.5741   22.5994 N   0  0  0  0  0  0  0  0  0  0  0  0
    6.0794   -4.8976   22.7358 C   0  0  0  0  0  0  0  0  0  0  0  0
    5.0058   -5.3582   23.1088 O   0  0  0  0  0  0  0  0  0  0  0  0
    7.2007   -5.8126   22.3437 C   0  0  0  0  0  0  0  0  0  0  0  0
    8.3733   -6.1571   23.7257 S   0  0  0  0  0  0  0  0  0  0  0  0
    8.7534   -4.4701   24.3680 C   0  0  0  0  0  0  0  0  0  0  0  0
    7.6610   -4.0557   25.3596 C   0  0  0  0  0  0  0  0  0  0  0  0
    7.6572   -4.9409   26.5931 C   0  0  0  0  0  0  0  0  0  0  0  0
    9.0119   -4.9513   27.2717 C   0  0  0  0  0  0  0  0  0  0  0  0
   10.1016   -5.3811   26.3039 C   0  0  0  0  0  0  0  0  0  0  0  0
   10.1152   -4.5138   25.0571 C   0  0  0  0  0  0  0  0  0  0  0  0
  1  2  1  0
  2  3  1  0
  3  4  2  0
  4  5  1  0
  5  6  2  0
  6  7  1  0
  7  8  2  0
  6  9  1  0
  9 10  1  0
 10 11  2  0
 11 12  1  0
 11 13  1  0
 13 14  2  0
 14 15  1  0
 15 16  1  0
 16 17  2  0
 16 18  1  0
 18 19  1  0
 19 20  1  0
 20 21  1  0
 21 22  1  0
 22 23  1  0
 23 24  1  0
 24 25  1  0
  8  3  1  0
 14  9  1  0
 25 20  1  0
 20 13  1  0
M  END
