CVD-0002090|dock_bobby27042020.50|mol2|20|dock3
     RDKit          3D

 19 20  0  0  0  0  0  0  0  0999 V2000
   13.5415   -1.8113   21.1367 C   0  0  0  0  0  0  0  0  0  0  0  0
   13.0466   -1.8162   22.8620 S   0  0  0  0  0  0  0  0  0  0  0  0
   11.2986   -1.3532   22.7159 C   0  0  0  0  0  0  0  0  0  0  0  0
   10.3872   -2.6139   22.7399 C   0  0  0  0  0  0  0  0  0  0  0  0
    9.4215   -2.4239   23.8601 N   0  0  0  0  0  0  0  0  0  0  0  0
    9.6178   -1.2958   24.3930 C   0  0  0  0  0  0  0  0  0  0  0  0
    8.7603   -0.8139   25.5240 C   0  0  0  0  0  0  0  0  0  0  0  0
    8.1703   -1.9395   26.2996 C   0  0  0  0  0  0  0  0  0  0  0  0
    7.1258   -2.4780   26.0837 O   0  0  0  0  0  0  0  0  0  0  0  0
   10.7605   -0.4511   23.8484 C   0  0  0  0  0  0  0  0  0  0  0  0
   10.3793    0.8649   23.3437 N   0  0  0  0  0  0  0  0  0  0  0  0
   11.4943    1.7382   22.9583 C   0  0  0  0  0  0  0  0  0  0  0  0
   10.9809    3.0708   22.4429 C   0  0  0  0  0  0  0  0  0  0  0  0
   12.0511    4.1348   22.4080 C   0  0  0  0  0  0  0  0  0  0  0  0
   12.0711    5.1524   23.3493 C   0  0  0  0  0  0  0  0  0  0  0  0
   13.0546    6.1270   23.3196 C   0  0  0  0  0  0  0  0  0  0  0  0
   14.0315    6.0954   22.3479 C   0  0  0  0  0  0  0  0  0  0  0  0
   14.0245    5.0888   21.4066 C   0  0  0  0  0  0  0  0  0  0  0  0
   13.0406    4.1146   21.4371 C   0  0  0  0  0  0  0  0  0  0  0  0
  1  2  1  0
  2  3  1  0
  3  4  1  0
  4  5  1  0
  5  6  2  0
  6  7  1  0
  7  8  1  0
  8  9  2  0
  6 10  1  0
 10 11  1  0
 11 12  1  0
 12 13  1  0
 13 14  1  0
 14 15  2  0
 15 16  1  0
 16 17  2  0
 17 18  1  0
 18 19  2  0
 10  3  1  0
 19 14  1  0
M  END
