CVD-0003081|dock_bobby27042020.89|mol2|10|dock1
     RDKit          3D

 24 26  0  0  0  0  0  0  0  0999 V2000
    8.5097   -0.3169   18.7508 C   0  0  0  0  0  0  0  0  0  0  0  0
    7.7795   -1.5162   19.2986 C   0  0  0  0  0  0  0  0  0  0  0  0
    6.5065   -1.7973   18.8116 C   0  0  0  0  0  0  0  0  0  0  0  0
    5.8164   -2.8881   19.2906 C   0  0  0  0  0  0  0  0  0  0  0  0
    6.3075   -3.7093   20.2141 N   0  0  0  0  0  0  0  0  0  0  0  0
    7.5297   -3.4500   20.6891 C   0  0  0  0  0  0  0  0  0  0  0  0
    8.3178   -2.3752   20.2763 C   0  0  0  0  0  0  0  0  0  0  0  0
    9.6198   -2.0977   20.7793 N   0  0  0  0  0  0  0  0  0  0  0  0
   10.1410   -2.2824   22.0174 C   0  0  0  0  0  0  0  0  0  0  0  0
    9.5509   -2.7490   22.9859 O   0  0  0  0  0  0  0  0  0  0  0  0
   11.5914   -1.8560   22.1273 C   0  0  0  0  0  0  0  0  0  0  0  0
   11.7590   -0.3700   22.3289 C   0  0  0  0  0  0  0  0  0  0  0  0
   12.9044    0.1584   22.8954 C   0  0  0  0  0  0  0  0  0  0  0  0
   12.9977    1.5290   23.0509 C   0  0  0  0  0  0  0  0  0  0  0  0
   11.9527    2.3531   22.6467 C   0  0  0  0  0  0  0  0  0  0  0  0
   10.8399    1.7266   22.1036 C   0  0  0  0  0  0  0  0  0  0  0  0
   10.7397    0.4027   21.9350 N   0  0  0  0  0  0  0  0  0  0  0  0
   12.0319    3.7323   22.7891 N   0  0  0  0  0  0  0  0  0  0  0  0
   12.5385    4.5750   21.6999 C   0  0  0  0  0  0  0  0  0  0  0  0
   14.0522    4.8659   21.8138 C   0  0  0  0  0  0  0  0  0  0  0  0
   14.3331    5.8823   22.9427 C   0  0  0  0  0  0  0  0  0  0  0  0
   13.8649    5.3276   24.1719 O   0  0  0  0  0  0  0  0  0  0  0  0
   12.4828    5.5486   24.4554 C   0  0  0  0  0  0  0  0  0  0  0  0
   11.6130    4.3314   24.0662 C   0  0  0  0  0  0  0  0  0  0  0  0
  1  2  1  0
  2  3  2  0
  3  4  1  0
  4  5  2  0
  5  6  1  0
  6  7  2  0
  7  8  1  0
  8  9  1  0
  9 10  2  0
  9 11  1  0
 11 12  1  0
 12 13  2  0
 13 14  1  0
 14 15  2  0
 15 16  1  0
 16 17  2  0
 15 18  1  0
 18 19  1  0
 19 20  1  0
 20 21  1  0
 21 22  1  0
 22 23  1  0
 23 24  1  0
  7  2  1  0
 17 12  1  0
 24 18  1  0
M  END
