CVD-0003274|dock_bobby27042020.2|mol2|32|dock1
     RDKit          3D

 32 36  0  0  0  0  0  0  0  0999 V2000
    5.8316   -0.0492   17.4605 O   0  0  0  0  0  0  0  0  0  0  0  0
    6.2407   -0.4111   18.7827 C   0  0  0  0  0  0  0  0  0  0  0  0
    7.7324   -0.6367   18.8011 C   0  0  0  0  0  0  0  0  0  0  0  0
    8.2061   -1.0109   20.2012 C   0  0  0  0  0  0  0  0  0  0  0  0
    7.8037    0.0532   21.1875 C   0  0  0  0  0  0  0  0  0  0  0  0
    8.2415   -0.3341   22.6026 C   0  0  0  0  0  0  0  0  0  0  0  0
    9.7346   -0.4366   22.7567 C   0  0  0  0  0  0  0  0  0  0  0  0
   10.4385   -1.5954   23.0537 C   0  0  0  0  0  0  0  0  0  0  0  0
    9.8374   -2.8267   23.2431 N   0  0  0  0  0  0  0  0  0  0  0  0
    9.6097   -3.3863   24.4997 C   0  0  0  0  0  0  0  0  0  0  0  0
    9.9409   -2.7970   25.5253 O   0  0  0  0  0  0  0  0  0  0  0  0
    8.9917   -4.6383   24.5179 N   0  0  0  0  0  0  0  0  0  0  0  0
    8.6583   -5.4010   25.6350 C   0  0  0  0  0  0  0  0  0  0  0  0
    9.4361   -5.8357   26.6613 C   0  0  0  0  0  0  0  0  0  0  0  0
    8.6743   -6.5602   27.5434 N   0  0  0  0  0  0  0  0  0  0  0  0
    7.4568   -6.5495   27.0358 C   0  0  0  0  0  0  0  0  0  0  0  0
    7.4109   -5.8583   25.8832 N   0  0  0  0  0  0  0  0  0  0  0  0
   12.1536   -1.4010   23.1754 S   0  0  0  0  0  0  0  0  0  0  0  0
   11.9989    0.2849   22.8321 C   0  0  0  0  0  0  0  0  0  0  0  0
   12.8284    1.4231   22.6894 C   0  0  0  0  0  0  0  0  0  0  0  0
   11.9851    2.4701   22.4057 C   0  0  0  0  0  0  0  0  0  0  0  0
   12.2704    3.9180   22.1506 C   0  0  0  0  0  0  0  0  0  0  0  0
   13.6934    4.3430   22.4669 C   0  0  0  0  0  0  0  0  0  0  0  0
   13.9001    5.8127   22.3316 C   0  0  0  0  0  0  0  0  0  0  0  0
   14.3853    6.4255   21.2613 N   0  0  0  0  0  0  0  0  0  0  0  0
   14.4027    7.7621   21.5806 C   0  0  0  0  0  0  0  0  0  0  0  0
   13.9317    7.9433   22.8342 C   0  0  0  0  0  0  0  0  0  0  0  0
   13.6162    6.6988   23.3017 N   0  0  0  0  0  0  0  0  0  0  0  0
   10.6953    1.9963   22.3749 N   0  0  0  0  0  0  0  0  0  0  0  0
   10.6703    0.6485   22.6348 C   0  0  0  0  0  0  0  0  0  0  0  0
    6.3120    0.2788   21.1691 C   0  0  0  0  0  0  0  0  0  0  0  0
    5.8383    0.6531   19.7691 C   0  0  0  0  0  0  0  0  0  0  0  0
  1  2  1  0
  2  3  1  0
  3  4  1  0
  4  5  1  0
  5  6  1  0
  6  7  1  0
  7  8  2  0
  8  9  1  0
  9 10  1  0
 10 11  2  0
 10 12  1  0
 12 13  1  0
 13 14  2  0
 14 15  1  0
 15 16  2  0
 16 17  1  0
  8 18  1  0
 18 19  1  0
 19 20  1  0
 20 21  2  0
 21 22  1  0
 22 23  1  0
 23 24  1  0
 24 25  2  0
 25 26  1  0
 26 27  2  0
 27 28  1  0
 21 29  1  0
 29 30  1  0
  5 31  1  0
 31 32  1  0
 32  2  1  0
 30  7  1  0
 17 13  1  0
 30 19  2  0
 28 24  1  0
M  END
