CVD-0001457|dock_bobby27042020.52|mol2|33|dock2
     RDKit          3D

 29 32  0  0  0  0  0  0  0  0999 V2000
   12.8925    7.9912   27.8135 C   0  0  0  0  0  0  0  0  0  0  0  0
   12.6171    8.2201   26.5568 C   0  0  0  0  0  0  0  0  0  0  0  0
   12.1830    7.1466   25.6343 C   0  0  0  0  0  0  0  0  0  0  0  0
   11.3575    6.2828   25.9632 O   0  0  0  0  0  0  0  0  0  0  0  0
   12.7449    7.1746   24.4198 N   0  0  0  0  0  0  0  0  0  0  0  0
   12.4322    6.1902   23.3836 C   0  0  0  0  0  0  0  0  0  0  0  0
   12.5088    4.7033   23.7210 C   0  0  0  0  0  0  0  0  0  0  0  0
   13.5338    4.5165   22.6679 N   0  0  0  0  0  0  0  0  0  0  0  0
   13.2776    3.4840   21.6531 C   0  0  0  0  0  0  0  0  0  0  0  0
   13.0563    2.1180   22.2582 C   0  0  0  0  0  0  0  0  0  0  0  0
   14.1342    1.3025   22.5918 C   0  0  0  0  0  0  0  0  0  0  0  0
   13.9410    0.0451   23.1448 C   0  0  0  0  0  0  0  0  0  0  0  0
   12.6632   -0.4392   23.3817 C   0  0  0  0  0  0  0  0  0  0  0  0
   11.5542    0.3429   23.0615 C   0  0  0  0  0  0  0  0  0  0  0  0
   10.1323    0.1758   23.1619 C   0  0  0  0  0  0  0  0  0  0  0  0
    9.4151   -1.0270   23.7012 C   0  0  0  0  0  0  0  0  0  0  0  0
    9.3379   -2.1667   22.7049 C   0  0  0  0  0  0  0  0  0  0  0  0
    8.7115   -1.7552   21.4567 N   0  0  0  0  0  0  0  0  0  0  0  0
    7.4070   -1.5028   21.3605 C   0  0  0  0  0  0  0  0  0  0  0  0
    6.6347   -1.5971   22.3133 O   0  0  0  0  0  0  0  0  0  0  0  0
    6.9135   -1.0943   20.0284 C   0  0  0  0  0  0  0  0  0  0  0  0
    5.9504   -1.6286   19.1474 C   0  0  0  0  0  0  0  0  0  0  0  0
    5.9153   -0.7904   18.0086 C   0  0  0  0  0  0  0  0  0  0  0  0
    6.8233    0.2058   18.2039 C   0  0  0  0  0  0  0  0  0  0  0  0
    7.4250    0.0249   19.4185 N   0  0  0  0  0  0  0  0  0  0  0  0
    9.5762    1.3211   22.6721 C   0  0  0  0  0  0  0  0  0  0  0  0
   10.5516    2.1935   22.2722 N   0  0  0  0  0  0  0  0  0  0  0  0
   11.7753    1.6146   22.5020 C   0  0  0  0  0  0  0  0  0  0  0  0
   13.4939    5.9559   22.3190 C   0  0  0  0  0  0  0  0  0  0  0  0
  1  2  2  0
  2  3  1  0
  3  4  2  0
  3  5  1  0
  5  6  1  0
  6  7  1  0
  7  8  1  0
  8  9  1  0
  9 10  1  0
 10 11  2  0
 11 12  1  0
 12 13  2  0
 13 14  1  0
 14 15  1  0
 15 16  1  0
 16 17  1  0
 17 18  1  0
 18 19  1  0
 19 20  2  0
 19 21  1  0
 21 22  2  0
 22 23  1  0
 23 24  2  0
 24 25  1  0
 15 26  2  0
 26 27  1  0
 27 28  1  0
  8 29  1  0
 29  6  1  0
 28 10  1  0
 28 14  2  0
 25 21  1  0
M  END
