CVD-0003810|dock_bobby27042020.86|mol2|37|dock1
     RDKit          3D

 27 30  0  0  0  0  0  0  0  0999 V2000
   13.3137    5.0492   21.2376 N   0  0  0  0  0  0  0  0  0  0  0  0
   13.2462    4.6175   22.7778 S   0  0  0  0  0  0  0  0  0  0  0  0
   12.3721    5.5399   23.4382 O   0  0  0  0  0  0  0  0  0  0  0  0
   14.5953    4.4901   23.2413 O   0  0  0  0  0  0  0  0  0  0  0  0
   12.5003    3.0187   22.8790 C   0  0  0  0  0  0  0  0  0  0  0  0
   11.1221    2.9019   22.9103 C   0  0  0  0  0  0  0  0  0  0  0  0
   10.5433    1.6483   22.9971 C   0  0  0  0  0  0  0  0  0  0  0  0
   11.3236    0.4972   23.0509 C   0  0  0  0  0  0  0  0  0  0  0  0
   12.7075    0.6397   23.0171 C   0  0  0  0  0  0  0  0  0  0  0  0
   13.2967    1.8889   22.9350 C   0  0  0  0  0  0  0  0  0  0  0  0
   10.7371   -0.7582   23.1360 N   0  0  0  0  0  0  0  0  0  0  0  0
   10.4463   -1.5818   21.9586 C   0  0  0  0  0  0  0  0  0  0  0  0
    9.0692   -2.1803   22.0143 C   0  0  0  0  0  0  0  0  0  0  0  0
    8.8758   -2.9974   23.2965 C   0  0  0  0  0  0  0  0  0  0  0  0
    9.1800   -2.1164   24.4819 C   0  0  0  0  0  0  0  0  0  0  0  0
   10.5548   -1.4865   24.4131 C   0  0  0  0  0  0  0  0  0  0  0  0
    7.5272   -3.5944   23.3640 N   0  0  0  0  0  0  0  0  0  0  0  0
    7.3426   -4.9853   23.8195 C   0  0  0  0  0  0  0  0  0  0  0  0
    5.8335   -5.3607   23.8527 C   0  0  0  0  0  0  0  0  0  0  0  0
    5.5911   -6.2796   22.6996 C   0  0  0  0  0  0  0  0  0  0  0  0
    6.8759   -6.6039   22.0950 C   0  0  0  0  0  0  0  0  0  0  0  0
    7.9914   -5.9487   22.8002 C   0  0  0  0  0  0  0  0  0  0  0  0
    8.0299   -5.0686   25.1716 C   0  0  0  0  0  0  0  0  0  0  0  0
    7.4968   -4.8414   26.4168 C   0  0  0  0  0  0  0  0  0  0  0  0
    8.4616   -5.0172   27.4381 C   0  0  0  0  0  0  0  0  0  0  0  0
    9.6736   -5.3620   26.9727 C   0  0  0  0  0  0  0  0  0  0  0  0
    9.6867   -5.4859   25.2711 S   0  0  0  0  0  0  0  0  0  0  0  0
  1  2  1  0
  2  3  2  0
  2  4  2  0
  2  5  1  0
  5  6  2  0
  6  7  1  0
  7  8  2  0
  8  9  1  0
  9 10  2  0
  8 11  1  0
 11 12  1  0
 12 13  1  0
 13 14  1  0
 14 15  1  0
 15 16  1  0
 14 17  1  0
 17 18  1  0
 18 19  1  0
 19 20  1  0
 20 21  1  0
 21 22  1  0
 18 23  1  0
 23 24  2  0
 24 25  1  0
 25 26  2  0
 26 27  1  0
 10  5  1  0
 16 11  1  0
 22 18  1  0
 27 23  1  0
M  END
