CVD-0000312|dock_bobby27042020.56|mol2|26|dock1
     RDKit          3D

 24 26  0  0  0  0  0  0  0  0999 V2000
    5.5601    0.9306   17.3272 O   0  0  0  0  0  0  0  0  0  0  0  0
    6.2449    0.4334   18.4801 C   0  0  0  0  0  0  0  0  0  0  0  0
    7.6115   -0.1672   18.1739 C   0  0  0  0  0  0  0  0  0  0  0  0
    8.2549   -0.8073   19.3883 C   0  0  0  0  0  0  0  0  0  0  0  0
    7.3923   -1.8345   19.9844 N   0  0  0  0  0  0  0  0  0  0  0  0
    8.0583   -2.4780   21.1278 C   0  0  0  0  0  0  0  0  0  0  0  0
    7.3113   -3.6168   21.8359 C   0  0  0  0  0  0  0  0  0  0  0  0
    6.7399   -4.6466   20.8648 C   0  0  0  0  0  0  0  0  0  0  0  0
    6.0302   -5.7914   21.5682 C   0  0  0  0  0  0  0  0  0  0  0  0
    6.9501   -6.4169   22.6057 C   0  0  0  0  0  0  0  0  0  0  0  0
    7.4874   -5.3509   23.5329 C   0  0  0  0  0  0  0  0  0  0  0  0
    8.2182   -4.3510   22.7505 N   0  0  0  0  0  0  0  0  0  0  0  0
    8.7525   -3.3834   23.7184 C   0  0  0  0  0  0  0  0  0  0  0  0
   10.0379   -2.7107   23.2644 C   0  0  0  0  0  0  0  0  0  0  0  0
   10.7400   -3.2065   22.3894 O   0  0  0  0  0  0  0  0  0  0  0  0
   10.2974   -1.5561   23.9248 N   0  0  0  0  0  0  0  0  0  0  0  0
   11.3743   -0.6425   23.8136 C   0  0  0  0  0  0  0  0  0  0  0  0
   12.2714   -0.6270   22.7504 C   0  0  0  0  0  0  0  0  0  0  0  0
   13.2906    0.3096   22.7390 C   0  0  0  0  0  0  0  0  0  0  0  0
   13.3857    1.2001   23.7835 C   0  0  0  0  0  0  0  0  0  0  0  0
   12.5414    1.2095   24.8149 N   0  0  0  0  0  0  0  0  0  0  0  0
   11.5611    0.3016   24.8167 C   0  0  0  0  0  0  0  0  0  0  0  0
    6.1212   -1.2256   20.3853 C   0  0  0  0  0  0  0  0  0  0  0  0
    5.4036   -0.6218   19.1896 C   0  0  0  0  0  0  0  0  0  0  0  0
  1  2  1  0
  2  3  1  0
  3  4  1  0
  4  5  1  0
  5  6  1  0
  7  6  1  0
  7  8  1  0
  8  9  1  0
  9 10  1  0
 10 11  1  0
 11 12  1  0
 12 13  1  0
 13 14  1  0
 14 15  2  0
 14 16  1  0
 16 17  1  0
 17 18  2  0
 18 19  1  0
 19 20  2  0
 20 21  1  0
 21 22  2  0
  5 23  1  0
 23 24  1  0
 24  2  1  0
 12  7  1  0
 22 17  1  0
M  END
