CVD-0002519|dock_bobby27042020.34|mol2|9|dock3
     RDKit          3D

 29 32  0  0  0  0  0  0  0  0999 V2000
    8.6211   -0.0162   24.5418 O   0  0  0  0  0  0  0  0  0  0  0  0
    9.8268   -0.6531   24.1142 C   0  0  0  0  0  0  0  0  0  0  0  0
   10.8062    0.3867   23.5730 C   0  0  0  0  0  0  0  0  0  0  0  0
   10.3142    0.9164   22.2145 C   0  0  0  0  0  0  0  0  0  0  0  0
    9.9539   -0.2485   21.2347 C   0  0  0  0  0  0  0  0  0  0  0  0
    9.0256   -1.1785   21.8588 N   0  0  0  0  0  0  0  0  0  0  0  0
    7.6537   -0.6452   21.8738 C   0  0  0  0  0  0  0  0  0  0  0  0
    6.9756   -0.7997   20.5338 C   0  0  0  0  0  0  0  0  0  0  0  0
    6.7597    0.3004   19.7184 C   0  0  0  0  0  0  0  0  0  0  0  0
    6.1406    0.1584   18.4878 C   0  0  0  0  0  0  0  0  0  0  0  0
    5.7312   -1.0858   18.0583 C   0  0  0  0  0  0  0  0  0  0  0  0
    5.9413   -2.1879   18.8591 C   0  0  0  0  0  0  0  0  0  0  0  0
    6.5603   -2.0455   20.0897 C   0  0  0  0  0  0  0  0  0  0  0  0
    9.5800   -1.7463   23.0858 C   0  0  0  0  0  0  0  0  0  0  0  0
    8.7311   -2.8913   23.6484 C   0  0  0  0  0  0  0  0  0  0  0  0
    9.4830   -3.7485   24.6390 C   0  0  0  0  0  0  0  0  0  0  0  0
   10.6841   -3.5882   24.8161 O   0  0  0  0  0  0  0  0  0  0  0  0
    8.8008   -4.6915   25.3240 N   0  0  0  0  0  0  0  0  0  0  0  0
    9.4327   -5.5675   26.3131 C   0  0  0  0  0  0  0  0  0  0  0  0
    8.6968   -5.4889   27.6377 C   0  0  0  0  0  0  0  0  0  0  0  0
    7.2896   -5.8588   27.4591 N   0  0  0  0  0  0  0  0  0  0  0  0
    6.5828   -5.8228   28.7439 C   0  0  0  0  0  0  0  0  0  0  0  0
    6.9507   -6.9344   29.6835 C   0  0  0  0  0  0  0  0  0  0  0  0
    6.8040   -6.9330   31.0544 C   0  0  0  0  0  0  0  0  0  0  0  0
    7.2526   -8.1500   31.6224 C   0  0  0  0  0  0  0  0  0  0  0  0
    7.7139   -9.0253   30.7142 C   0  0  0  0  0  0  0  0  0  0  0  0
    7.6200   -8.4015   29.1292 S   0  0  0  0  0  0  0  0  0  0  0  0
    6.6715   -4.9374   26.5093 C   0  0  0  0  0  0  0  0  0  0  0  0
    7.3756   -4.9973   25.1659 C   0  0  0  0  0  0  0  0  0  0  0  0
  1  2  1  0
  2  3  1  0
  3  4  1  0
  4  5  1  0
  5  6  1  0
  6  7  1  0
  7  8  1  0
  8  9  2  0
  9 10  1  0
 10 11  2  0
 11 12  1  0
 12 13  2  0
  6 14  1  0
 14 15  1  0
 15 16  1  0
 16 17  2  0
 16 18  1  0
 18 19  1  0
 19 20  1  0
 20 21  1  0
 21 22  1  0
 22 23  1  0
 23 24  2  0
 24 25  1  0
 25 26  2  0
 26 27  1  0
 21 28  1  0
 28 29  1  0
 14  2  1  0
 29 18  1  0
 13  8  1  0
 27 23  1  0
M  END
