CVD-0002551|dock_bobby27042020.19|mol2|25|dock2
     RDKit          3D

 32 33  0  0  0  0  0  0  0  0999 V2000
   12.7962   -1.0785   23.5003 C   0  0  0  0  0  0  0  0  0  0  0  0
   11.4147   -0.7867   24.0081 C   0  0  0  0  0  0  0  0  0  0  0  0
   11.2239   -0.5077   25.1876 O   0  0  0  0  0  0  0  0  0  0  0  0
   10.4424   -0.8709   23.0777 N   0  0  0  0  0  0  0  0  0  0  0  0
    9.0204   -0.6570   23.2703 C   0  0  0  0  0  0  0  0  0  0  0  0
    8.2075   -1.7152   22.4966 C   0  0  0  0  0  0  0  0  0  0  0  0
    7.5998   -1.3159   21.1730 C   0  0  0  0  0  0  0  0  0  0  0  0
    8.3676   -1.3064   20.0186 C   0  0  0  0  0  0  0  0  0  0  0  0
    7.8249   -0.9422   18.7992 C   0  0  0  0  0  0  0  0  0  0  0  0
    6.4909   -0.5770   18.7193 C   0  0  0  0  0  0  0  0  0  0  0  0
    5.9481   -0.2189   17.5199 O   0  0  0  0  0  0  0  0  0  0  0  0
    5.7114   -0.5774   19.8646 C   0  0  0  0  0  0  0  0  0  0  0  0
    6.2681   -0.9422   21.0776 C   0  0  0  0  0  0  0  0  0  0  0  0
    8.6353   -0.6205   24.7605 C   0  0  0  0  0  0  0  0  0  0  0  0
    8.2514    0.4085   25.3014 O   0  0  0  0  0  0  0  0  0  0  0  0
    8.7314   -1.7728   25.4267 N   0  0  0  0  0  0  0  0  0  0  0  0
    8.4446   -1.8556   26.8527 C   0  0  0  0  0  0  0  0  0  0  0  0
    9.1156   -0.8043   27.6265 C   0  0  0  0  0  0  0  0  0  0  0  0
    9.7023    0.0070   28.2621 C   0  0  0  0  0  0  0  0  0  0  0  0
   10.5674    1.2838   29.1919 Br  0  0  0  0  0  0  0  0  0  0  0  0
    8.6347    0.9179   22.5885 S   0  0  0  0  0  0  0  0  0  0  0  0
    9.2399    0.9132   21.2966 O   0  0  0  0  0  0  0  0  0  0  0  0
    7.2204    1.0374   22.7322 O   0  0  0  0  0  0  0  0  0  0  0  0
    9.3543    1.9795   23.5085 N   0  0  0  0  0  0  0  0  0  0  0  0
    8.7835    3.2982   23.8080 C   0  0  0  0  0  0  0  0  0  0  0  0
    9.1942    4.3114   22.7547 C   0  0  0  0  0  0  0  0  0  0  0  0
   10.6630    4.6546   22.8160 C   0  0  0  0  0  0  0  0  0  0  0  0
   11.6170    3.7834   22.3128 C   0  0  0  0  0  0  0  0  0  0  0  0
   12.9648    4.0963   22.3717 C   0  0  0  0  0  0  0  0  0  0  0  0
   13.3755    5.2848   22.9358 C   0  0  0  0  0  0  0  0  0  0  0  0
   12.4382    6.1597   23.4413 C   0  0  0  0  0  0  0  0  0  0  0  0
   11.0905    5.8458   23.3818 C   0  0  0  0  0  0  0  0  0  0  0  0
  1  2  1  0
  2  3  2  0
  2  4  1  0
  4  5  1  0
  5  6  1  0
  6  7  1  0
  7  8  2  0
  8  9  1  0
  9 10  2  0
 10 11  1  0
 10 12  1  0
 12 13  2  0
  5 14  1  0
 14 15  2  0
 14 16  1  0
 16 17  1  0
 17 18  1  0
 18 19  3  0
 19 20  1  0
  5 21  1  0
 21 22  2  0
 21 23  2  0
 21 24  1  0
 24 25  1  0
 25 26  1  0
 26 27  1  0
 27 28  2  0
 28 29  1  0
 29 30  2  0
 30 31  1  0
 31 32  2  0
 13  7  1  0
 32 27  1  0
M  END
