CVD-0001956|dock_bobby27042020.93|mol2|26|dock1
     RDKit          3D

 24 26  0  0  0  0  0  0  0  0999 V2000
   14.1000    6.4946   22.0143 C   0  0  0  0  0  0  0  0  0  0  0  0
   13.8600    5.0926   22.3664 N   0  0  0  0  0  0  0  0  0  0  0  0
   12.4719    4.6518   22.1910 C   0  0  0  0  0  0  0  0  0  0  0  0
   12.2950    3.2120   22.5400 C   0  0  0  0  0  0  0  0  0  0  0  0
   13.2045    2.2040   22.7271 C   0  0  0  0  0  0  0  0  0  0  0  0
   12.4924    1.0290   23.0461 C   0  0  0  0  0  0  0  0  0  0  0  0
   11.1449    1.3549   23.0395 C   0  0  0  0  0  0  0  0  0  0  0  0
   11.0483    2.6821   22.7344 N   0  0  0  0  0  0  0  0  0  0  0  0
    9.6521    0.4880   23.3188 S   0  0  0  0  0  0  0  0  0  0  0  0
    9.9203   -0.6178   24.1978 O   0  0  0  0  0  0  0  0  0  0  0  0
    8.6806    1.4603   23.7395 O   0  0  0  0  0  0  0  0  0  0  0  0
    9.1308   -0.1258   21.7500 C   0  0  0  0  0  0  0  0  0  0  0  0
    8.3707    0.6667   20.9072 C   0  0  0  0  0  0  0  0  0  0  0  0
    7.9784    0.1440   19.6870 C   0  0  0  0  0  0  0  0  0  0  0  0
    8.3581   -1.1390   19.3631 C   0  0  0  0  0  0  0  0  0  0  0  0
    9.0885   -1.9140   20.1662 N   0  0  0  0  0  0  0  0  0  0  0  0
    9.4637   -1.4037   21.3427 C   0  0  0  0  0  0  0  0  0  0  0  0
   13.1334   -0.2937   23.3301 C   0  0  0  0  0  0  0  0  0  0  0  0
   13.7303   -0.5393   24.5699 C   0  0  0  0  0  0  0  0  0  0  0  0
   14.3383   -1.7508   24.8529 C   0  0  0  0  0  0  0  0  0  0  0  0
   14.3798   -2.7492   23.9077 C   0  0  0  0  0  0  0  0  0  0  0  0
   13.8009   -2.5445   22.6699 C   0  0  0  0  0  0  0  0  0  0  0  0
   13.1887   -1.3404   22.4132 C   0  0  0  0  0  0  0  0  0  0  0  0
   12.6190   -1.2217   21.1922 F   0  0  0  0  0  0  0  0  0  0  0  0
  1  2  1  0
  2  3  1  0
  3  4  1  0
  4  5  2  0
  5  6  1  0
  6  7  2  0
  7  8  1  0
  7  9  1  0
  9 10  2  0
  9 11  2  0
  9 12  1  0
 12 13  2  0
 13 14  1  0
 14 15  2  0
 15 16  1  0
 16 17  2  0
  6 18  1  0
 18 19  2  0
 19 20  1  0
 20 21  2  0
 21 22  1  0
 22 23  2  0
 23 24  1  0
  8  4  1  0
 17 12  1  0
 23 18  1  0
M  END
