CVD-0002024|dock_bobby27042020.7|mol2|37|dock2
     RDKit          3D

 34 38  0  0  0  0  0  0  0  0999 V2000
    5.9587   -0.8181   18.9360 C   0  0  0  0  0  0  0  0  0  0  0  0
    6.9104   -1.4735   19.8315 N   0  0  0  0  0  0  0  0  0  0  0  0
    6.2029   -2.1754   20.9066 C   0  0  0  0  0  0  0  0  0  0  0  0
    7.1931   -2.8877   21.8092 C   0  0  0  0  0  0  0  0  0  0  0  0
    8.1503   -1.9331   22.3725 N   0  0  0  0  0  0  0  0  0  0  0  0
    8.8326   -1.1710   21.3220 C   0  0  0  0  0  0  0  0  0  0  0  0
    7.8182   -0.4921   20.4198 C   0  0  0  0  0  0  0  0  0  0  0  0
    8.3730   -1.8164   23.6971 C   0  0  0  0  0  0  0  0  0  0  0  0
    7.7909   -2.5162   24.5163 O   0  0  0  0  0  0  0  0  0  0  0  0
    9.3882   -0.7795   24.1437 C   0  0  0  0  0  0  0  0  0  0  0  0
   10.7810   -1.0550   23.6621 C   0  0  0  0  0  0  0  0  0  0  0  0
   11.3490   -2.2740   23.4336 C   0  0  0  0  0  0  0  0  0  0  0  0
   12.6399   -2.1299   22.9989 N   0  0  0  0  0  0  0  0  0  0  0  0
   12.9323   -0.7989   22.9380 C   0  0  0  0  0  0  0  0  0  0  0  0
   14.0926   -0.2361   22.5597 N   0  0  0  0  0  0  0  0  0  0  0  0
   14.1279    1.1028   22.5867 C   0  0  0  0  0  0  0  0  0  0  0  0
   13.0691    1.9182   22.9709 C   0  0  0  0  0  0  0  0  0  0  0  0
   11.8815    1.3006   23.3562 C   0  0  0  0  0  0  0  0  0  0  0  0
   11.7920   -0.0886   23.3464 C   0  0  0  0  0  0  0  0  0  0  0  0
   13.2544    3.4084   22.9518 C   0  0  0  0  0  0  0  0  0  0  0  0
   14.3716    3.8755   23.1519 O   0  0  0  0  0  0  0  0  0  0  0  0
   12.2045    4.2018   22.7185 N   0  0  0  0  0  0  0  0  0  0  0  0
   12.3330    5.6517   22.6891 C   0  0  0  0  0  0  0  0  0  0  0  0
   12.5465    6.2464   24.0678 C   0  0  0  0  0  0  0  0  0  0  0  0
   11.3989    6.0215   25.0099 C   0  0  0  0  0  0  0  0  0  0  0  0
   10.1100    5.7289   24.6736 C   0  0  0  0  0  0  0  0  0  0  0  0
    9.3425    5.5906   25.7973 N   0  0  0  0  0  0  0  0  0  0  0  0
   10.1323    5.7950   26.9016 C   0  0  0  0  0  0  0  0  0  0  0  0
    9.8285    5.7628   28.2581 C   0  0  0  0  0  0  0  0  0  0  0  0
   10.8318    6.0160   29.1767 C   0  0  0  0  0  0  0  0  0  0  0  0
   12.0923    6.2914   28.7164 C   0  0  0  0  0  0  0  0  0  0  0  0
   13.0696    6.5409   29.6292 F   0  0  0  0  0  0  0  0  0  0  0  0
   12.4319    6.3313   27.3849 C   0  0  0  0  0  0  0  0  0  0  0  0
   11.4346    6.0743   26.4448 C   0  0  0  0  0  0  0  0  0  0  0  0
  1  2  1  0
  2  3  1  0
  3  4  1  0
  4  5  1  0
  5  6  1  0
  6  7  1  0
  5  8  1  0
  8  9  2  0
  8 10  1  0
 10 11  1  0
 11 12  2  0
 12 13  1  0
 13 14  1  0
 14 15  2  0
 15 16  1  0
 16 17  2  0
 17 18  1  0
 18 19  2  0
 17 20  1  0
 20 21  2  0
 20 22  1  0
 22 23  1  0
 23 24  1  0
 24 25  1  0
 25 26  2  0
 26 27  1  0
 27 28  1  0
 28 29  2  0
 29 30  1  0
 30 31  2  0
 31 32  1  0
 31 33  1  0
 33 34  2  0
  7  2  1  0
 19 11  1  0
 34 25  1  0
 19 14  1  0
 34 28  1  0
M  END
