CVD-0000391|dock_bobby27042020.41|mol2|35|dock1
     RDKit          3D

 26 28  0  0  0  0  0  0  0  0999 V2000
    7.1317    6.7933   21.7293 C   0  0  0  0  0  0  0  0  0  0  0  0
    6.9853    5.3540   21.7474 N   0  0  0  0  0  0  0  0  0  0  0  0
    8.0151    4.4953   22.0292 C   0  0  0  0  0  0  0  0  0  0  0  0
    7.9755    3.1422   21.7190 C   0  0  0  0  0  0  0  0  0  0  0  0
    8.9783    2.3002   21.9908 N   0  0  0  0  0  0  0  0  0  0  0  0
   10.0481    2.8301   22.5902 C   0  0  0  0  0  0  0  0  0  0  0  0
   10.2008    4.1096   22.9374 N   0  0  0  0  0  0  0  0  0  0  0  0
    9.1797    4.9240   22.6506 C   0  0  0  0  0  0  0  0  0  0  0  0
   11.1212    1.8736   22.8706 C   0  0  0  0  0  0  0  0  0  0  0  0
   12.7110    2.4749   22.5730 S   0  0  0  0  0  0  0  0  0  0  0  0
   13.3833    0.9833   23.0590 C   0  0  0  0  0  0  0  0  0  0  0  0
   12.4669    0.0788   23.4271 C   0  0  0  0  0  0  0  0  0  0  0  0
   12.9579   -1.4921   23.9471 Cl  0  0  0  0  0  0  0  0  0  0  0  0
   11.1352    0.5887   23.3238 C   0  0  0  0  0  0  0  0  0  0  0  0
    9.8662   -0.1939   23.6818 C   0  0  0  0  0  0  0  0  0  0  0  0
    9.8456   -0.7067   25.1461 C   0  0  0  0  0  0  0  0  0  0  0  0
    9.2966   -2.1277   25.1008 C   0  0  0  0  0  0  0  0  0  0  0  0
    8.7305   -2.3010   23.6923 C   0  0  0  0  0  0  0  0  0  0  0  0
    9.6786   -1.4595   22.8255 C   0  0  0  0  0  0  0  0  0  0  0  0
    9.1896   -1.2189   21.4031 C   0  0  0  0  0  0  0  0  0  0  0  0
    9.9020   -1.6325   20.4921 O   0  0  0  0  0  0  0  0  0  0  0  0
    8.0208   -0.5830   21.0650 N   0  0  0  0  0  0  0  0  0  0  0  0
    7.3740   -0.2541   19.8885 C   0  0  0  0  0  0  0  0  0  0  0  0
    7.8181   -0.5220   18.7923 O   0  0  0  0  0  0  0  0  0  0  0  0
    6.2155    0.3877   20.0488 O   0  0  0  0  0  0  0  0  0  0  0  0
    5.4614    0.6309   18.8378 C   0  0  0  0  0  0  0  0  0  0  0  0
  1  2  1  0
  2  3  1  0
  3  4  2  0
  4  5  1  0
  5  6  2  0
  6  7  1  0
  7  8  2  0
  6  9  1  0
  9 10  1  0
 10 11  1  0
 11 12  2  0
 12 13  1  0
 12 14  1  0
 15 14  1  0
 15 16  1  0
 16 17  1  0
 17 18  1  0
 18 19  1  0
 19 20  1  0
 20 21  2  0
 20 22  1  0
 22 23  1  0
 23 24  2  0
 23 25  1  0
 25 26  1  0
  8  3  1  0
 14  9  2  0
 19 15  1  0
M  END
