CVD-0000493|dock_bobby27042020.98|mol2|22|dock1
     RDKit          3D

 19 20  0  0  0  0  0  0  0  0999 V2000
    9.4117   -0.8126   25.0115 N   0  0  0  0  0  0  0  0  0  0  0  0
    8.6729   -0.4582   23.7781 C   0  0  0  0  0  0  0  0  0  0  0  0
    9.3447   -0.8645   22.4672 C   0  0  0  0  0  0  0  0  0  0  0  0
    8.5886   -0.1774   21.3198 C   0  0  0  0  0  0  0  0  0  0  0  0
    7.2070   -0.7520   21.0042 C   0  0  0  0  0  0  0  0  0  0  0  0
    6.5262   -0.0499   19.8542 C   0  0  0  0  0  0  0  0  0  0  0  0
    6.9831   -0.1554   18.5547 C   0  0  0  0  0  0  0  0  0  0  0  0
    6.4096    0.4520   17.5132 N   0  0  0  0  0  0  0  0  0  0  0  0
    5.3325    1.2042   17.7551 C   0  0  0  0  0  0  0  0  0  0  0  0
    4.7784    1.3935   19.0078 C   0  0  0  0  0  0  0  0  0  0  0  0
    3.5598    2.2409   19.2811 C   0  0  0  0  0  0  0  0  0  0  0  0
    3.1374    2.9610   18.1360 O   0  0  0  0  0  0  0  0  0  0  0  0
    5.4054    0.7424   20.0623 C   0  0  0  0  0  0  0  0  0  0  0  0
   10.8431   -0.5909   22.4471 C   0  0  0  0  0  0  0  0  0  0  0  0
   11.7949   -1.5999   22.3213 C   0  0  0  0  0  0  0  0  0  0  0  0
   13.1483   -1.3057   22.2931 C   0  0  0  0  0  0  0  0  0  0  0  0
   13.5819   -0.0035   22.4058 C   0  0  0  0  0  0  0  0  0  0  0  0
   12.6580    1.0071   22.5496 C   0  0  0  0  0  0  0  0  0  0  0  0
   11.3052    0.7133   22.5717 C   0  0  0  0  0  0  0  0  0  0  0  0
  1  2  1  0
  3  2  1  0
  3  4  1  0
  4  5  1  0
  5  6  1  0
  6  7  2  0
  7  8  1  0
  8  9  2  0
  9 10  1  0
 10 11  1  0
 11 12  1  0
 10 13  2  0
  3 14  1  0
 14 15  2  0
 15 16  1  0
 16 17  2  0
 17 18  1  0
 18 19  2  0
 13  6  1  0
 19 14  1  0
M  END
