CVD-0000040|dock_bobby27042020.71|mol2|36|dock2
     RDKit          3D

 25 27  0  0  0  0  0  0  0  0999 V2000
    8.7184    4.6395   21.9382 F   0  0  0  0  0  0  0  0  0  0  0  0
    8.1289    5.7953   22.3219 C   0  0  0  0  0  0  0  0  0  0  0  0
    6.8927    6.0640   21.7837 C   0  0  0  0  0  0  0  0  0  0  0  0
    6.2401    7.2255   22.1575 C   0  0  0  0  0  0  0  0  0  0  0  0
    6.8301    8.0997   23.0533 C   0  0  0  0  0  0  0  0  0  0  0  0
    8.0726    7.7951   23.5567 C   0  0  0  0  0  0  0  0  0  0  0  0
    8.6140    8.6897   24.4153 F   0  0  0  0  0  0  0  0  0  0  0  0
    8.7780    6.6384   23.2241 C   0  0  0  0  0  0  0  0  0  0  0  0
   10.1298    6.3248   23.7920 C   0  0  0  0  0  0  0  0  0  0  0  0
   10.4199    6.5612   25.1333 C   0  0  0  0  0  0  0  0  0  0  0  0
   11.6680    6.2733   25.6603 C   0  0  0  0  0  0  0  0  0  0  0  0
   12.6616    5.7394   24.8580 C   0  0  0  0  0  0  0  0  0  0  0  0
   12.3832    5.4986   23.5235 C   0  0  0  0  0  0  0  0  0  0  0  0
   11.1367    5.7864   22.9894 C   0  0  0  0  0  0  0  0  0  0  0  0
   13.6275    4.8250   22.4715 S   0  0  0  0  0  0  0  0  0  0  0  0
   13.7064    5.6457   21.2941 O   0  0  0  0  0  0  0  0  0  0  0  0
   14.8149    4.6281   23.2574 O   0  0  0  0  0  0  0  0  0  0  0  0
   13.0043    3.2588   22.0118 C   0  0  0  0  0  0  0  0  0  0  0  0
   13.1378    2.1996   22.7911 C   0  0  0  0  0  0  0  0  0  0  0  0
   12.6538    0.8417   22.5148 C   0  0  0  0  0  0  0  0  0  0  0  0
   13.4570   -0.2791   22.6944 C   0  0  0  0  0  0  0  0  0  0  0  0
   12.9536   -1.5384   22.4197 C   0  0  0  0  0  0  0  0  0  0  0  0
   11.6561   -1.6428   21.9714 C   0  0  0  0  0  0  0  0  0  0  0  0
   10.8579   -0.5896   21.7879 N   0  0  0  0  0  0  0  0  0  0  0  0
   11.3615    0.6185   22.0584 C   0  0  0  0  0  0  0  0  0  0  0  0
  1  2  1  0
  2  3  2  0
  3  4  1  0
  4  5  2  0
  5  6  1  0
  6  7  1  0
  6  8  2  0
  8  9  1  0
  9 10  2  0
 10 11  1  0
 11 12  2  0
 12 13  1  0
 13 14  2  0
 13 15  1  0
 15 16  2  0
 15 17  2  0
 15 18  1  0
 18 19  2  0
 19 20  1  0
 20 21  2  0
 21 22  1  0
 22 23  2  0
 23 24  1  0
 24 25  2  0
  8  2  1  0
 14  9  1  0
 25 20  1  0
M  END
