CVD-0003925|dock_bobby27042020.29|mol2|20|dock3
     RDKit          3D

 30 33  0  0  0  0  0  0  0  0999 V2000
    7.2405   -1.4217   27.1671 C   0  0  0  0  0  0  0  0  0  0  0  0
    7.2499   -2.9153   26.9692 C   0  0  0  0  0  0  0  0  0  0  0  0
    7.1685   -3.7510   28.0791 C   0  0  0  0  0  0  0  0  0  0  0  0
    7.1723   -5.1180   27.9056 C   0  0  0  0  0  0  0  0  0  0  0  0
    7.2498   -5.7031   26.7125 N   0  0  0  0  0  0  0  0  0  0  0  0
    7.3263   -4.9104   25.6389 C   0  0  0  0  0  0  0  0  0  0  0  0
    7.3323   -3.5190   25.7027 C   0  0  0  0  0  0  0  0  0  0  0  0
    7.4147   -2.7275   24.5787 N   0  0  0  0  0  0  0  0  0  0  0  0
    8.1061   -3.1503   23.3767 C   0  0  0  0  0  0  0  0  0  0  0  0
    8.3464   -2.0272   22.3968 C   0  0  0  0  0  0  0  0  0  0  0  0
    7.5278   -1.8982   21.2797 C   0  0  0  0  0  0  0  0  0  0  0  0
    7.7571   -0.8703   20.3896 C   0  0  0  0  0  0  0  0  0  0  0  0
    8.7330    0.0245   20.5335 N   0  0  0  0  0  0  0  0  0  0  0  0
    9.5264   -0.0930   21.6025 C   0  0  0  0  0  0  0  0  0  0  0  0
    9.3802   -1.0915   22.5613 C   0  0  0  0  0  0  0  0  0  0  0  0
   10.2358   -1.1675   23.6612 N   0  0  0  0  0  0  0  0  0  0  0  0
   11.6830   -1.0107   23.6760 C   0  0  0  0  0  0  0  0  0  0  0  0
   12.1286   -1.3469   25.0968 C   0  0  0  0  0  0  0  0  0  0  0  0
   13.6402   -1.3874   25.1984 C   0  0  0  0  0  0  0  0  0  0  0  0
   14.2369   -2.3732   24.2056 C   0  0  0  0  0  0  0  0  0  0  0  0
   13.7899   -2.0535   22.7883 C   0  0  0  0  0  0  0  0  0  0  0  0
   12.2713   -1.9993   22.6792 C   0  0  0  0  0  0  0  0  0  0  0  0
   12.0938    0.3944   23.4687 C   0  0  0  0  0  0  0  0  0  0  0  0
   12.3378    1.5411   23.2439 C   0  0  0  0  0  0  0  0  0  0  0  0
   12.6260    2.9392   23.0617 C   0  0  0  0  0  0  0  0  0  0  0  0
   11.6746    3.8997   23.3901 C   0  0  0  0  0  0  0  0  0  0  0  0
   11.9959    5.2320   23.1980 C   0  0  0  0  0  0  0  0  0  0  0  0
   13.2330    5.5682   22.6933 C   0  0  0  0  0  0  0  0  0  0  0  0
   14.1129    4.5523   22.3958 C   0  0  0  0  0  0  0  0  0  0  0  0
   13.8390    3.2519   22.5676 N   0  0  0  0  0  0  0  0  0  0  0  0
  1  2  1  0
  2  3  2  0
  3  4  1  0
  4  5  2  0
  5  6  1  0
  6  7  2  0
  7  8  1  0
  8  9  1  0
  9 10  1  0
 10 11  2  0
 11 12  1  0
 12 13  2  0
 13 14  1  0
 14 15  2  0
 15 16  1  0
 16 17  1  0
 17 18  1  0
 18 19  1  0
 19 20  1  0
 20 21  1  0
 21 22  1  0
 17 23  1  0
 23 24  3  0
 24 25  1  0
 25 26  2  0
 26 27  1  0
 27 28  2  0
 28 29  1  0
 29 30  2  0
  7  2  1  0
 15 10  1  0
 22 17  1  0
 30 25  1  0
M  END
