CVD-0000751|dock_bobby27042020.12|mol2|5|dock1
     RDKit          3D

 20 22  0  0  0  0  0  0  0  0999 V2000
    9.4150   -1.7249   23.9041 O   0  0  0  0  0  0  0  0  0  0  0  0
    9.5957   -1.9438   22.7102 C   0  0  0  0  0  0  0  0  0  0  0  0
    8.5492   -2.6476   21.8722 C   0  0  0  0  0  0  0  0  0  0  0  0
    7.7329   -1.7035   21.0427 C   0  0  0  0  0  0  0  0  0  0  0  0
    6.4633   -1.2464   21.2448 C   0  0  0  0  0  0  0  0  0  0  0  0
    6.1532   -0.3668   20.1608 C   0  0  0  0  0  0  0  0  0  0  0  0
    5.0654    0.4189   19.7523 C   0  0  0  0  0  0  0  0  0  0  0  0
    5.1612    1.1635   18.5873 C   0  0  0  0  0  0  0  0  0  0  0  0
    6.3295    1.1129   17.8549 C   0  0  0  0  0  0  0  0  0  0  0  0
    7.4006    0.3807   18.1959 N   0  0  0  0  0  0  0  0  0  0  0  0
    7.2928   -0.3357   19.3277 C   0  0  0  0  0  0  0  0  0  0  0  0
    8.2363   -1.1545   19.8846 N   0  0  0  0  0  0  0  0  0  0  0  0
   10.7272   -1.5668   22.0453 N   0  0  0  0  0  0  0  0  0  0  0  0
   11.8270   -0.9119   22.5239 C   0  0  0  0  0  0  0  0  0  0  0  0
   12.8180   -1.4694   23.1206 N   0  0  0  0  0  0  0  0  0  0  0  0
   13.6628   -0.4268   23.4104 C   0  0  0  0  0  0  0  0  0  0  0  0
   13.1388    0.7235   22.9714 C   0  0  0  0  0  0  0  0  0  0  0  0
   11.9325    0.4336   22.3848 O   0  0  0  0  0  0  0  0  0  0  0  0
   13.5441    2.0835   22.9865 C   0  0  0  0  0  0  0  0  0  0  0  0
   13.8492    3.1864   22.9781 N   0  0  0  0  0  0  0  0  0  0  0  0
  1  2  2  0
  2  3  1  0
  3  4  1  0
  4  5  2  0
  5  6  1  0
  6  7  2  0
  7  8  1  0
  8  9  2  0
  9 10  1  0
 10 11  2  0
 11 12  1  0
  2 13  1  0
 13 14  1  0
 14 15  2  0
 15 16  1  0
 16 17  2  0
 17 18  1  0
 17 19  1  0
 19 20  3  0
 12  4  1  0
 18 14  1  0
 11  6  1  0
M  END
