CVD-0000467|dock_bobby27042020.70|mol2|8|dock3
     RDKit          3D

 18 19  0  0  0  0  0  0  0  0999 V2000
    6.3969    0.6502   19.0807 C   0  0  0  0  0  0  0  0  0  0  0  0
    7.5606   -0.2700   18.8835 C   0  0  0  0  0  0  0  0  0  0  0  0
    8.3257   -0.4287   20.1093 N   0  0  0  0  0  0  0  0  0  0  0  0
    8.2179   -1.5200   20.9428 C   0  0  0  0  0  0  0  0  0  0  0  0
    7.0157   -2.2198   21.0464 C   0  0  0  0  0  0  0  0  0  0  0  0
    6.9204   -3.3197   21.8798 C   0  0  0  0  0  0  0  0  0  0  0  0
    7.9982   -3.7578   22.6291 C   0  0  0  0  0  0  0  0  0  0  0  0
    7.8826   -4.9590   23.5355 C   0  0  0  0  0  0  0  0  0  0  0  0
    9.1860   -3.0538   22.5244 C   0  0  0  0  0  0  0  0  0  0  0  0
    9.3235   -1.9414   21.7007 C   0  0  0  0  0  0  0  0  0  0  0  0
   10.6544   -1.2242   21.6550 C   0  0  0  0  0  0  0  0  0  0  0  0
   11.6099   -1.6942   22.6692 N   0  0  0  0  0  0  0  0  0  0  0  0
   12.9906   -1.4248   22.2501 C   0  0  0  0  0  0  0  0  0  0  0  0
   13.9966   -1.9495   23.2555 C   0  0  0  0  0  0  0  0  0  0  0  0
   13.7739   -1.3924   24.6563 C   0  0  0  0  0  0  0  0  0  0  0  0
   14.6274   -1.9670   25.6497 O   0  0  0  0  0  0  0  0  0  0  0  0
   12.3088   -1.5941   25.0269 C   0  0  0  0  0  0  0  0  0  0  0  0
   11.3643   -1.0558   23.9650 C   0  0  0  0  0  0  0  0  0  0  0  0
  1  2  1  0
  2  3  1  0
  3  4  1  0
  4  5  2  0
  5  6  1  0
  6  7  2  0
  7  8  1  0
  7  9  1  0
  9 10  2  0
 10 11  1  0
 11 12  1  0
 12 13  1  0
 13 14  1  0
 14 15  1  0
 15 16  1  0
 15 17  1  0
 17 18  1  0
 10  4  1  0
 18 12  1  0
M  END
