CVD-0000083|dock_bobby27042020.99|mol2|41|dock2
     RDKit          3D

 16 17  0  0  0  0  0  0  0  0999 V2000
    8.5973   -0.1854   22.7031 O   0  0  0  0  0  0  0  0  0  0  0  0
    9.1599   -0.6313   21.7076 C   0  0  0  0  0  0  0  0  0  0  0  0
   10.3838   -1.1988   21.7826 N   0  0  0  0  0  0  0  0  0  0  0  0
   11.1603   -1.2487   23.0219 C   0  0  0  0  0  0  0  0  0  0  0  0
   11.6851    0.1495   23.4073 C   0  0  0  0  0  0  0  0  0  0  0  0
   12.5609    0.1190   24.6585 C   0  0  0  0  0  0  0  0  0  0  0  0
   13.7012   -0.8805   24.5131 C   0  0  0  0  0  0  0  0  0  0  0  0
   13.1760   -2.2657   24.1641 C   0  0  0  0  0  0  0  0  0  0  0  0
   12.3353   -2.2328   22.8919 C   0  0  0  0  0  0  0  0  0  0  0  0
    8.6590   -0.6233   20.4286 N   0  0  0  0  0  0  0  0  0  0  0  0
    7.4308   -0.1315   19.9205 C   0  0  0  0  0  0  0  0  0  0  0  0
    7.3905    0.3554   18.6203 C   0  0  0  0  0  0  0  0  0  0  0  0
    6.2007    0.8397   18.1062 C   0  0  0  0  0  0  0  0  0  0  0  0
    5.0828    0.8239   18.9073 C   0  0  0  0  0  0  0  0  0  0  0  0
    5.0885    0.3638   20.1584 N   0  0  0  0  0  0  0  0  0  0  0  0
    6.2422   -0.1021   20.6466 C   0  0  0  0  0  0  0  0  0  0  0  0
  1  2  2  0
  2  3  1  0
  3  4  1  0
  4  5  1  0
  5  6  1  0
  6  7  1  0
  7  8  1  0
  8  9  1  0
  2 10  1  0
 10 11  1  0
 11 12  2  0
 12 13  1  0
 13 14  2  0
 14 15  1  0
 15 16  2  0
  9  4  1  0
 16 11  1  0
M  END
