CVD-0002791|dock_bobby27042020.33|mol2|6|dock2
     RDKit          3D

 23 25  0  0  0  0  0  0  0  0999 V2000
    9.0240    1.7355   21.3565 O   0  0  0  0  0  0  0  0  0  0  0  0
    9.4446    0.5854   21.3774 C   0  0  0  0  0  0  0  0  0  0  0  0
    8.5469   -0.5129   20.8369 C   0  0  0  0  0  0  0  0  0  0  0  0
    7.2958    0.0264   20.1813 C   0  0  0  0  0  0  0  0  0  0  0  0
    6.1381    0.2228   20.9182 C   0  0  0  0  0  0  0  0  0  0  0  0
    4.9931    0.7198   20.3186 C   0  0  0  0  0  0  0  0  0  0  0  0
    4.9929    1.0271   18.9749 C   0  0  0  0  0  0  0  0  0  0  0  0
    6.1378    0.8378   18.2312 C   0  0  0  0  0  0  0  0  0  0  0  0
    7.2827    0.3408   18.8312 C   0  0  0  0  0  0  0  0  0  0  0  0
   10.7257    0.3260   21.8856 N   0  0  0  0  0  0  0  0  0  0  0  0
   11.1745   -1.0781   21.8757 C   0  0  0  0  0  0  0  0  0  0  0  0
   12.3245   -1.3354   22.8195 C   0  0  0  0  0  0  0  0  0  0  0  0
   12.1959   -1.1383   24.1842 C   0  0  0  0  0  0  0  0  0  0  0  0
   13.2704   -1.3877   25.0198 C   0  0  0  0  0  0  0  0  0  0  0  0
   14.4469   -1.8301   24.4590 C   0  0  0  0  0  0  0  0  0  0  0  0
   14.6010   -2.0304   23.1492 N   0  0  0  0  0  0  0  0  0  0  0  0
   13.5496   -1.7831   22.3621 C   0  0  0  0  0  0  0  0  0  0  0  0
   11.6361    1.2860   22.4348 C   0  0  0  0  0  0  0  0  0  0  0  0
   12.8284    1.0225   22.5287 O   0  0  0  0  0  0  0  0  0  0  0  0
   11.2015    2.4937   22.8532 N   0  0  0  0  0  0  0  0  0  0  0  0
   12.1215    3.4514   23.4671 C   0  0  0  0  0  0  0  0  0  0  0  0
   12.7292    4.1570   22.1122 C   0  0  0  0  0  0  0  0  0  0  0  0
   12.3331    4.9767   23.2866 C   0  0  0  0  0  0  0  0  0  0  0  0
  1  2  2  0
  2  3  1  0
  3  4  1  0
  4  5  2  0
  5  6  1  0
  6  7  2  0
  7  8  1  0
  8  9  2  0
  2 10  1  0
 10 11  1  0
 11 12  1  0
 12 13  2  0
 13 14  1  0
 14 15  2  0
 15 16  1  0
 16 17  2  0
 10 18  1  0
 18 19  2  0
 18 20  1  0
 20 21  1  0
 21 22  1  0
 22 23  1  0
  9  4  1  0
 17 12  1  0
 23 21  1  0
M  END
