CVD-0001414|dock_bobby27042020.95|mol2|23|dock3
     RDKit          3D

 42 47  0  0  0  0  0  0  0  0999 V2000
    6.3620   -8.8420   33.0057 C   0  0  0  0  0  0  0  0  0  0  0  0
    6.5573   -8.2401   31.6995 N   0  0  0  0  0  0  0  0  0  0  0  0
    5.5215   -7.9620   30.9104 C   0  0  0  0  0  0  0  0  0  0  0  0
    4.3712   -8.2071   31.2705 O   0  0  0  0  0  0  0  0  0  0  0  0
    5.7385   -7.3420   29.5627 C   0  0  0  0  0  0  0  0  0  0  0  0
    5.0180   -7.7896   28.4116 C   0  0  0  0  0  0  0  0  0  0  0  0
    5.2094   -7.2366   27.2007 C   0  0  0  0  0  0  0  0  0  0  0  0
    6.1224   -6.2064   27.0414 N   0  0  0  0  0  0  0  0  0  0  0  0
    6.5472   -5.4420   25.9742 C   0  0  0  0  0  0  0  0  0  0  0  0
    7.4549   -4.5810   26.3732 N   0  0  0  0  0  0  0  0  0  0  0  0
    7.6451   -4.7636   27.7407 N   0  0  0  0  0  0  0  0  0  0  0  0
    6.8456   -5.7378   28.1319 C   0  0  0  0  0  0  0  0  0  0  0  0
    6.6456   -6.3173   29.4050 C   0  0  0  0  0  0  0  0  0  0  0  0
    6.0937   -5.5600   24.6400 N   0  0  0  0  0  0  0  0  0  0  0  0
    5.1664   -6.5294   24.3425 N   0  0  0  0  0  0  0  0  0  0  0  0
    4.9808   -6.4485   23.0343 C   0  0  0  0  0  0  0  0  0  0  0  0
    5.7400   -5.4435   22.4545 C   0  0  0  0  0  0  0  0  0  0  0  0
    6.4511   -4.8525   23.4942 C   0  0  0  0  0  0  0  0  0  0  0  0
    7.3779   -3.7132   23.2979 C   0  0  0  0  0  0  0  0  0  0  0  0
    8.7443   -3.7989   23.5416 C   0  0  0  0  0  0  0  0  0  0  0  0
    9.5941   -2.7432   23.2395 C   0  0  0  0  0  0  0  0  0  0  0  0
   11.0906   -2.6788   23.4124 C   0  0  0  0  0  0  0  0  0  0  0  0
   11.4714   -1.2157   23.1195 C   0  0  0  0  0  0  0  0  0  0  0  0
   11.8590   -0.4278   24.3759 C   0  0  0  0  0  0  0  0  0  0  0  0
   12.6065   -1.0798   22.0979 C   0  0  0  0  0  0  0  0  0  0  0  0
   10.1768   -0.5873   22.5721 C   0  0  0  0  0  0  0  0  0  0  0  0
   10.1222    0.5517   22.1541 O   0  0  0  0  0  0  0  0  0  0  0  0
    9.0875   -1.5680   22.6811 C   0  0  0  0  0  0  0  0  0  0  0  0
    7.6991   -1.4737   22.4305 C   0  0  0  0  0  0  0  0  0  0  0  0
    6.8635   -2.5454   22.7414 C   0  0  0  0  0  0  0  0  0  0  0  0
    7.0954   -0.2358   22.0114 N   0  0  0  0  0  0  0  0  0  0  0  0
    6.9561   -0.0397   20.5467 C   0  0  0  0  0  0  0  0  0  0  0  0
    8.2224   -0.3051   19.7211 C   0  0  0  0  0  0  0  0  0  0  0  0
    7.8452   -0.1263   18.2584 C   0  0  0  0  0  0  0  0  0  0  0  0
    6.1620   -0.7314   18.1065 S   0  0  0  0  0  0  0  0  0  0  0  0
    5.3927    0.2606   17.4051 O   0  0  0  0  0  0  0  0  0  0  0  0
    6.1999   -2.0702   17.5832 O   0  0  0  0  0  0  0  0  0  0  0  0
    5.7832   -0.7092   19.8625 C   0  0  0  0  0  0  0  0  0  0  0  0
    6.6298    0.6700   22.9369 C   0  0  0  0  0  0  0  0  0  0  0  0
    6.1053    1.7179   22.5802 O   0  0  0  0  0  0  0  0  0  0  0  0
    6.7646    0.3929   24.4230 C   0  0  0  0  0  0  0  0  0  0  0  0
    8.4224    0.6782   24.9682 Cl  0  0  0  0  0  0  0  0  0  0  0  0
  1  2  1  0
  2  3  1  0
  3  4  2  0
  3  5  1  0
  5  6  1  0
  6  7  2  0
  7  8  1  0
  8  9  1  0
  9 10  2  0
 10 11  1  0
 11 12  2  0
 12 13  1  0
  9 14  1  0
 14 15  1  0
 15 16  2  0
 16 17  1  0
 17 18  2  0
 18 19  1  0
 19 20  2  0
 20 21  1  0
 21 22  1  0
 22 23  1  0
 23 24  1  0
 23 25  1  0
 23 26  1  0
 26 27  2  0
 26 28  1  0
 28 29  1  0
 29 30  2  0
 29 31  1  0
 32 31  1  0
 32 33  1  0
 33 34  1  0
 34 35  1  0
 35 36  2  0
 35 37  2  0
 35 38  1  0
 31 39  1  0
 39 40  2  0
 39 41  1  0
 41 42  1  0
 13  5  2  0
 18 14  1  0
 30 19  1  0
 38 32  1  0
 12  8  1  0
 28 21  2  0
M  END
