CVD-0002578|dock_bobby27042020.91|mol2|3|dock3
     RDKit          3D

 37 40  0  0  0  0  0  0  0  0999 V2000
    9.6835   -5.6075   27.1742 C   0  0  0  0  0  0  0  0  0  0  0  0
    9.5480   -5.2123   25.7697 N   0  0  0  0  0  0  0  0  0  0  0  0
    8.4720   -4.2494   25.5110 C   0  0  0  0  0  0  0  0  0  0  0  0
    8.7533   -3.4148   24.2892 C   0  0  0  0  0  0  0  0  0  0  0  0
    7.7841   -2.9358   23.3910 C   0  0  0  0  0  0  0  0  0  0  0  0
    8.3847   -2.2149   22.3733 C   0  0  0  0  0  0  0  0  0  0  0  0
    7.6964   -1.5539   21.2313 C   0  0  0  0  0  0  0  0  0  0  0  0
    8.3339   -1.3860   19.9988 C   0  0  0  0  0  0  0  0  0  0  0  0
    7.6976   -0.7664   18.9363 C   0  0  0  0  0  0  0  0  0  0  0  0
    6.4047   -0.3136   19.0629 C   0  0  0  0  0  0  0  0  0  0  0  0
    5.7370   -0.4736   20.2621 C   0  0  0  0  0  0  0  0  0  0  0  0
    6.3913   -1.0778   21.3094 C   0  0  0  0  0  0  0  0  0  0  0  0
    5.6921   -1.1895   22.4621 F   0  0  0  0  0  0  0  0  0  0  0  0
    9.7799   -2.2450   22.6614 N   0  0  0  0  0  0  0  0  0  0  0  0
    9.9836   -2.9816   23.8216 C   0  0  0  0  0  0  0  0  0  0  0  0
   11.1351   -1.5792   21.8867 S   0  0  0  0  0  0  0  0  0  0  0  0
   10.8021   -0.2071   21.6606 O   0  0  0  0  0  0  0  0  0  0  0  0
   11.4724   -2.4120   20.7748 O   0  0  0  0  0  0  0  0  0  0  0  0
   12.4449   -1.5979   23.0912 C   0  0  0  0  0  0  0  0  0  0  0  0
   13.2695   -2.7085   23.1999 C   0  0  0  0  0  0  0  0  0  0  0  0
   14.2647   -2.8027   24.0868 N   0  0  0  0  0  0  0  0  0  0  0  0
   14.4592   -1.7658   24.9042 C   0  0  0  0  0  0  0  0  0  0  0  0
   13.7058   -0.6076   24.8830 C   0  0  0  0  0  0  0  0  0  0  0  0
   12.6803   -0.5195   23.9520 C   0  0  0  0  0  0  0  0  0  0  0  0
   11.8855    0.6358   23.8747 O   0  0  0  0  0  0  0  0  0  0  0  0
   12.3604    1.6769   23.1453 C   0  0  0  0  0  0  0  0  0  0  0  0
   13.4656    1.6988   22.6296 O   0  0  0  0  0  0  0  0  0  0  0  0
   11.3851    2.8061   23.0397 C   0  0  0  0  0  0  0  0  0  0  0  0
   10.0206    2.5611   23.1451 C   0  0  0  0  0  0  0  0  0  0  0  0
    9.1028    3.5919   23.0495 C   0  0  0  0  0  0  0  0  0  0  0  0
    9.5518    4.8860   22.8444 C   0  0  0  0  0  0  0  0  0  0  0  0
   10.9070    5.1523   22.7385 C   0  0  0  0  0  0  0  0  0  0  0  0
   11.8156    4.1133   22.8357 C   0  0  0  0  0  0  0  0  0  0  0  0
    8.3868    6.2097   22.7272 S   0  0  0  0  0  0  0  0  0  0  0  0
    8.8142    7.3547   23.7612 N   0  0  0  0  0  0  0  0  0  0  0  0
    8.4999    6.7636   21.4113 O   0  0  0  0  0  0  0  0  0  0  0  0
    7.1185    5.7024   23.1574 O   0  0  0  0  0  0  0  0  0  0  0  0
  1  2  1  0
  2  3  1  0
  3  4  1  0
  4  5  1  0
  5  6  2  0
  6  7  1  0
  7  8  2  0
  8  9  1  0
  9 10  2  0
 10 11  1  0
 11 12  2  0
 12 13  1  0
  6 14  1  0
 14 15  1  0
 14 16  1  0
 16 17  2  0
 16 18  2  0
 16 19  1  0
 19 20  2  0
 20 21  1  0
 21 22  2  0
 22 23  1  0
 23 24  2  0
 24 25  1  0
 25 26  1  0
 26 27  2  0
 26 28  1  0
 28 29  2  0
 29 30  1  0
 30 31  2  0
 31 32  1  0
 32 33  2  0
 31 34  1  0
 34 35  1  0
 34 36  2  0
 34 37  2  0
 15  4  2  0
 24 19  1  0
 33 28  1  0
 12  7  1  0
M  END
