CVD-0002369|dock_bobby27042020.20|mol2|21|dock1
     RDKit          3D

 38 42  0  0  0  0  0  0  0  0999 V2000
   10.0764    3.0500   25.1362 C   0  0  0  0  0  0  0  0  0  0  0  0
   11.2044    3.7670   24.5531 N   0  0  0  0  0  0  0  0  0  0  0  0
   11.1659    5.2232   24.6033 C   0  0  0  0  0  0  0  0  0  0  0  0
   12.5752    5.7869   24.6372 C   0  0  0  0  0  0  0  0  0  0  0  0
   13.3558    5.3090   23.4302 C   0  0  0  0  0  0  0  0  0  0  0  0
   13.2891    3.8065   23.3028 C   0  0  0  0  0  0  0  0  0  0  0  0
   14.2849    3.1026   22.6358 C   0  0  0  0  0  0  0  0  0  0  0  0
   14.2230    1.7317   22.4904 C   0  0  0  0  0  0  0  0  0  0  0  0
   13.1425    1.0514   23.0232 C   0  0  0  0  0  0  0  0  0  0  0  0
   12.1300    1.7189   23.6949 C   0  0  0  0  0  0  0  0  0  0  0  0
   12.1898    3.1050   23.8437 C   0  0  0  0  0  0  0  0  0  0  0  0
   13.0394   -0.7071   22.8204 S   0  0  0  0  0  0  0  0  0  0  0  0
   13.2718   -0.9556   21.2263 N   0  0  0  0  0  0  0  0  0  0  0  0
   14.2219   -1.2201   23.4766 O   0  0  0  0  0  0  0  0  0  0  0  0
   11.6270   -1.1549   23.5410 C   0  0  0  0  0  0  0  0  0  0  0  0
   10.5904   -1.3761   22.7547 N   0  0  0  0  0  0  0  0  0  0  0  0
   10.6161   -1.2516   21.3135 C   0  0  0  0  0  0  0  0  0  0  0  0
    9.2288   -1.2746   20.7274 C   0  0  0  0  0  0  0  0  0  0  0  0
    8.4495   -0.1417   20.4375 C   0  0  0  0  0  0  0  0  0  0  0  0
    7.2316   -0.5181   19.8971 C   0  0  0  0  0  0  0  0  0  0  0  0
    6.1399    0.3949   19.4596 C   0  0  0  0  0  0  0  0  0  0  0  0
    4.9465    0.4978   20.1799 C   0  0  0  0  0  0  0  0  0  0  0  0
    3.9271    1.3419   19.7726 C   0  0  0  0  0  0  0  0  0  0  0  0
    4.0592    2.0982   18.6312 C   0  0  0  0  0  0  0  0  0  0  0  0
    5.2220    2.0198   17.8889 C   0  0  0  0  0  0  0  0  0  0  0  0
    6.2273    1.1856   18.3176 C   0  0  0  0  0  0  0  0  0  0  0  0
    7.3469    1.1697   17.5587 F   0  0  0  0  0  0  0  0  0  0  0  0
    7.2609   -1.9429   19.8587 N   0  0  0  0  0  0  0  0  0  0  0  0
    8.4803   -2.3810   20.3599 C   0  0  0  0  0  0  0  0  0  0  0  0
    6.1462   -3.1167   19.3480 S   0  0  0  0  0  0  0  0  0  0  0  0
    6.7475   -3.7170   18.1978 O   0  0  0  0  0  0  0  0  0  0  0  0
    4.8766   -2.4730   19.2096 O   0  0  0  0  0  0  0  0  0  0  0  0
    6.0742   -4.3499   20.6013 C   0  0  0  0  0  0  0  0  0  0  0  0
    6.0040   -3.9886   21.9359 C   0  0  0  0  0  0  0  0  0  0  0  0
    5.9440   -4.9911   22.8884 C   0  0  0  0  0  0  0  0  0  0  0  0
    5.9550   -6.3029   22.4711 C   0  0  0  0  0  0  0  0  0  0  0  0
    6.0204   -6.6654   21.1892 N   0  0  0  0  0  0  0  0  0  0  0  0
    6.0780   -5.6928   20.2748 C   0  0  0  0  0  0  0  0  0  0  0  0
  1  2  1  0
  2  3  1  0
  3  4  1  0
  4  5  1  0
  5  6  1  0
  6  7  2  0
  7  8  1  0
  8  9  2  0
  9 10  1  0
 10 11  2  0
  9 12  1  0
 12 13  1  0
 12 14  2  0
 12 15  2  0
 15 16  1  0
 16 17  1  0
 17 18  1  0
 18 19  1  0
 19 20  2  0
 20 21  1  0
 21 22  2  0
 22 23  1  0
 23 24  2  0
 24 25  1  0
 25 26  2  0
 26 27  1  0
 20 28  1  0
 28 29  1  0
 28 30  1  0
 30 31  2  0
 30 32  2  0
 30 33  1  0
 33 34  2  0
 34 35  1  0
 35 36  2  0
 36 37  1  0
 37 38  2  0
 11  2  1  0
 29 18  2  0
 38 33  1  0
 11  6  1  0
 26 21  1  0
M  END
