CVD-0001988|dock_bobby27042020.36|mol2|19|dock1
     RDKit          3D

 20 22  0  0  0  0  0  0  0  0999 V2000
   14.2259   -2.4522   23.3852 C   0  0  0  0  0  0  0  0  0  0  0  0
   13.1822   -2.4436   22.2710 C   0  0  0  0  0  0  0  0  0  0  0  0
   13.8577   -2.4610   20.9133 C   0  0  0  0  0  0  0  0  0  0  0  0
   14.5203   -3.5660   20.6837 O   0  0  0  0  0  0  0  0  0  0  0  0
   13.7864   -1.5433   20.1260 O   0  0  0  0  0  0  0  0  0  0  0  0
   12.2803   -1.2186   22.3347 C   0  0  0  0  0  0  0  0  0  0  0  0
   10.9092   -1.3462   22.1429 C   0  0  0  0  0  0  0  0  0  0  0  0
   10.0635   -0.2518   22.1917 C   0  0  0  0  0  0  0  0  0  0  0  0
   10.6005    1.0090   22.4385 C   0  0  0  0  0  0  0  0  0  0  0  0
   11.9885    1.1372   22.6313 C   0  0  0  0  0  0  0  0  0  0  0  0
   12.8313    0.0325   22.5807 C   0  0  0  0  0  0  0  0  0  0  0  0
   12.2887    2.4681   22.8580 N   0  0  0  0  0  0  0  0  0  0  0  0
   11.1204    3.2071   22.8160 C   0  0  0  0  0  0  0  0  0  0  0  0
   10.9269    4.5743   22.9856 C   0  0  0  0  0  0  0  0  0  0  0  0
    9.6443    5.1162   22.9003 C   0  0  0  0  0  0  0  0  0  0  0  0
    9.4474    6.5972   23.0892 C   0  0  0  0  0  0  0  0  0  0  0  0
    8.5844    4.2507   22.6457 C   0  0  0  0  0  0  0  0  0  0  0  0
    6.9790    4.8951   22.5369 Cl  0  0  0  0  0  0  0  0  0  0  0  0
    8.7620    2.8911   22.4752 C   0  0  0  0  0  0  0  0  0  0  0  0
   10.0387    2.3441   22.5576 C   0  0  0  0  0  0  0  0  0  0  0  0
  2  1  1  0
  2  3  1  0
  3  4  1  0
  3  5  2  0
  2  6  1  0
  6  7  2  0
  7  8  1  0
  8  9  2  0
  9 10  1  0
 10 11  2  0
 10 12  1  0
 12 13  1  0
 13 14  2  0
 14 15  1  0
 15 16  1  0
 15 17  2  0
 17 18  1  0
 17 19  1  0
 19 20  2  0
 11  6  1  0
 20 13  1  0
 20  9  1  0
M  END
