CVD-0003228|dock_bobby27042020.60|mol2|26|dock1
     RDKit          3D

 30 33  0  0  0  0  0  0  0  0999 V2000
    7.5404   -3.9236   26.5690 C   0  0  0  0  0  0  0  0  0  0  0  0
    8.6174   -4.0488   25.5950 N   0  0  0  0  0  0  0  0  0  0  0  0
    9.1417   -5.4017   25.4325 C   0  0  0  0  0  0  0  0  0  0  0  0
    9.5307   -6.0525   26.7389 C   0  0  0  0  0  0  0  0  0  0  0  0
    9.9568   -7.3917   26.5459 O   0  0  0  0  0  0  0  0  0  0  0  0
    9.1924   -2.9305   25.0029 C   0  0  0  0  0  0  0  0  0  0  0  0
    9.6457   -2.9695   23.6896 C   0  0  0  0  0  0  0  0  0  0  0  0
   10.2098   -1.8550   23.0953 C   0  0  0  0  0  0  0  0  0  0  0  0
   10.3413   -0.6591   23.7877 C   0  0  0  0  0  0  0  0  0  0  0  0
    9.9093   -0.6264   25.1057 C   0  0  0  0  0  0  0  0  0  0  0  0
    9.3341   -1.7356   25.7002 C   0  0  0  0  0  0  0  0  0  0  0  0
   10.9185    0.4922   23.1429 N   0  0  0  0  0  0  0  0  0  0  0  0
   12.3632    0.6949   23.2537 C   0  0  0  0  0  0  0  0  0  0  0  0
   13.1352   -0.5841   23.4610 C   0  0  0  0  0  0  0  0  0  0  0  0
   13.8267   -0.9287   24.6485 C   0  0  0  0  0  0  0  0  0  0  0  0
   14.4482   -2.1402   24.6103 C   0  0  0  0  0  0  0  0  0  0  0  0
   14.1839   -2.8716   23.1005 S   0  0  0  0  0  0  0  0  0  0  0  0
   13.2494   -1.5710   22.5295 C   0  0  0  0  0  0  0  0  0  0  0  0
   10.2669    1.4516   22.4171 C   0  0  0  0  0  0  0  0  0  0  0  0
   10.8942    2.3908   21.9453 O   0  0  0  0  0  0  0  0  0  0  0  0
    8.7613    1.3705   22.1479 C   0  0  0  0  0  0  0  0  0  0  0  0
    8.3723    0.5023   21.0484 N   0  0  0  0  0  0  0  0  0  0  0  0
    9.1285   -0.5961   20.7842 N   0  0  0  0  0  0  0  0  0  0  0  0
    8.5809   -1.2752   19.8192 N   0  0  0  0  0  0  0  0  0  0  0  0
    7.4475   -0.6055   19.4195 C   0  0  0  0  0  0  0  0  0  0  0  0
    6.5076   -0.9025   18.4338 C   0  0  0  0  0  0  0  0  0  0  0  0
    5.4493   -0.0310   18.2362 C   0  0  0  0  0  0  0  0  0  0  0  0
    5.3249    1.1158   18.9938 C   0  0  0  0  0  0  0  0  0  0  0  0
    6.2505    1.4287   19.9769 C   0  0  0  0  0  0  0  0  0  0  0  0
    7.3078    0.5495   20.1913 C   0  0  0  0  0  0  0  0  0  0  0  0
  1  2  1  0
  2  3  1  0
  3  4  1  0
  4  5  1  0
  2  6  1  0
  6  7  2  0
  7  8  1  0
  8  9  2  0
  9 10  1  0
 10 11  2  0
  9 12  1  0
 12 13  1  0
 13 14  1  0
 14 15  1  0
 15 16  2  0
 16 17  1  0
 17 18  1  0
 12 19  1  0
 19 20  2  0
 19 21  1  0
 21 22  1  0
 22 23  1  0
 23 24  2  0
 24 25  1  0
 25 26  2  0
 26 27  1  0
 27 28  2  0
 28 29  1  0
 29 30  2  0
 11  6  1  0
 18 14  2  0
 30 22  1  0
 30 25  1  0
M  END
