CVD-0002066|dock_bobby27042020.50|mol2|24|dock3
     RDKit          3D

 34 37  0  0  0  0  0  0  0  0999 V2000
    7.5056   -4.7040   28.3002 C   0  0  0  0  0  0  0  0  0  0  0  0
    6.5188   -5.5662   27.5772 C   0  0  0  0  0  0  0  0  0  0  0  0
    6.6597   -5.4430   26.1354 N   0  0  0  0  0  0  0  0  0  0  0  0
    5.7118   -5.8739   25.2310 C   0  0  0  0  0  0  0  0  0  0  0  0
    4.8415   -6.9084   25.5782 C   0  0  0  0  0  0  0  0  0  0  0  0
    3.9252   -7.3880   24.6627 C   0  0  0  0  0  0  0  0  0  0  0  0
    3.8586   -6.8455   23.3877 C   0  0  0  0  0  0  0  0  0  0  0  0
    4.6981   -5.7959   23.0275 C   0  0  0  0  0  0  0  0  0  0  0  0
    5.6097   -5.2859   23.9528 C   0  0  0  0  0  0  0  0  0  0  0  0
    6.3962   -4.2087   23.6026 N   0  0  0  0  0  0  0  0  0  0  0  0
    6.8401   -3.9182   22.2526 C   0  0  0  0  0  0  0  0  0  0  0  0
    7.6723   -2.6677   22.1421 C   0  0  0  0  0  0  0  0  0  0  0  0
    9.0505   -2.5830   22.4098 C   0  0  0  0  0  0  0  0  0  0  0  0
    9.4893   -1.2879   22.2115 C   0  0  0  0  0  0  0  0  0  0  0  0
   10.8787   -0.8058   22.4000 C   0  0  0  0  0  0  0  0  0  0  0  0
   11.9044   -1.6505   21.9717 C   0  0  0  0  0  0  0  0  0  0  0  0
   13.2306   -1.2611   22.0560 C   0  0  0  0  0  0  0  0  0  0  0  0
   13.5633   -0.0287   22.5724 C   0  0  0  0  0  0  0  0  0  0  0  0
   12.5720    0.8148   23.0410 C   0  0  0  0  0  0  0  0  0  0  0  0
   11.2635    0.3982   22.9737 C   0  0  0  0  0  0  0  0  0  0  0  0
   10.3362    1.2160   23.5174 F   0  0  0  0  0  0  0  0  0  0  0  0
    8.3519   -0.5496   21.7845 N   0  0  0  0  0  0  0  0  0  0  0  0
    7.2556   -1.4027   21.7533 C   0  0  0  0  0  0  0  0  0  0  0  0
    8.1525    1.0714   21.3253 S   0  0  0  0  0  0  0  0  0  0  0  0
    9.4460    1.4948   20.8867 O   0  0  0  0  0  0  0  0  0  0  0  0
    7.5233    1.7604   22.4086 O   0  0  0  0  0  0  0  0  0  0  0  0
    7.0966    1.0590   19.9172 C   0  0  0  0  0  0  0  0  0  0  0  0
    5.9805    1.8768   19.8711 C   0  0  0  0  0  0  0  0  0  0  0  0
    5.1754    1.8315   18.7460 C   0  0  0  0  0  0  0  0  0  0  0  0
    5.5158    0.9769   17.7220 C   0  0  0  0  0  0  0  0  0  0  0  0
    6.5868    0.1826   17.7534 N   0  0  0  0  0  0  0  0  0  0  0  0
    7.3596    0.2309   18.8424 C   0  0  0  0  0  0  0  0  0  0  0  0
    2.9163   -7.3664   22.4284 C   0  0  0  0  0  0  0  0  0  0  0  0
    2.1767   -7.7533   21.6486 N   0  0  0  0  0  0  0  0  0  0  0  0
  1  2  1  0
  2  3  1  0
  3  4  1  0
  4  5  2  0
  5  6  1  0
  6  7  2  0
  7  8  1  0
  8  9  2  0
  9 10  1  0
 10 11  1  0
 11 12  1  0
 12 13  1  0
 13 14  2  0
 14 15  1  0
 15 16  2  0
 16 17  1  0
 17 18  2  0
 18 19  1  0
 19 20  2  0
 20 21  1  0
 14 22  1  0
 22 23  1  0
 22 24  1  0
 24 25  2  0
 24 26  2  0
 24 27  1  0
 27 28  2  0
 28 29  1  0
 29 30  2  0
 30 31  1  0
 31 32  2  0
  7 33  1  0
 33 34  3  0
  9  4  1  0
 23 12  2  0
 32 27  1  0
 20 15  1  0
M  END
