CVD-0000248|dock_bobby27042020.99|mol2|16|dock2
     RDKit          3D

 25 27  0  0  0  0  0  0  0  0999 V2000
    5.8801   -2.6579   19.1141 C   0  0  0  0  0  0  0  0  0  0  0  0
    6.6442   -1.4348   18.6255 C   0  0  0  0  0  0  0  0  0  0  0  0
    7.9526   -1.3759   19.2574 N   0  0  0  0  0  0  0  0  0  0  0  0
    8.0760   -1.4384   20.6013 C   0  0  0  0  0  0  0  0  0  0  0  0
    7.1044   -1.4742   21.3518 O   0  0  0  0  0  0  0  0  0  0  0  0
    9.3471   -1.4587   21.0589 N   0  0  0  0  0  0  0  0  0  0  0  0
    9.6592   -1.4385   22.4860 C   0  0  0  0  0  0  0  0  0  0  0  0
    9.4919   -2.8589   23.0425 C   0  0  0  0  0  0  0  0  0  0  0  0
    9.4095   -2.9200   24.5364 C   0  0  0  0  0  0  0  0  0  0  0  0
    9.0361   -1.9072   25.3008 N   0  0  0  0  0  0  0  0  0  0  0  0
    9.0947   -2.3874   26.5876 C   0  0  0  0  0  0  0  0  0  0  0  0
    9.5020   -3.6751   26.5944 C   0  0  0  0  0  0  0  0  0  0  0  0
    9.7132   -4.0138   25.2796 N   0  0  0  0  0  0  0  0  0  0  0  0
   10.1471   -5.3243   24.7975 C   0  0  0  0  0  0  0  0  0  0  0  0
   11.0550   -0.9080   22.7502 C   0  0  0  0  0  0  0  0  0  0  0  0
   11.2710    0.0839   23.6967 C   0  0  0  0  0  0  0  0  0  0  0  0
   12.5459    0.5698   23.9344 C   0  0  0  0  0  0  0  0  0  0  0  0
   13.6198    0.0708   23.2290 C   0  0  0  0  0  0  0  0  0  0  0  0
   13.4200   -0.9139   22.2854 C   0  0  0  0  0  0  0  0  0  0  0  0
   12.1455   -1.4005   22.0469 C   0  0  0  0  0  0  0  0  0  0  0  0
    5.8833   -0.1794   18.9496 C   0  0  0  0  0  0  0  0  0  0  0  0
    5.3043    0.1423   20.0675 N   0  0  0  0  0  0  0  0  0  0  0  0
    4.7586    1.3809   19.8214 C   0  0  0  0  0  0  0  0  0  0  0  0
    5.0337    1.7556   18.5534 C   0  0  0  0  0  0  0  0  0  0  0  0
    5.7627    0.7569   17.9676 O   0  0  0  0  0  0  0  0  0  0  0  0
  1  2  1  0
  2  3  1  0
  3  4  1  0
  4  5  2  0
  4  6  1  0
  6  7  1  0
  7  8  1  0
  8  9  1  0
  9 10  2  0
 10 11  1  0
 11 12  2  0
 12 13  1  0
 13 14  1  0
  7 15  1  0
 15 16  2  0
 16 17  1  0
 17 18  2  0
 18 19  1  0
 19 20  2  0
  2 21  1  0
 21 22  2  0
 22 23  1  0
 23 24  2  0
 24 25  1  0
 13  9  1  0
 20 15  1  0
 25 21  1  0
M  END
