CVD-0001701|dock_bobby27042020.94|mol2|26|dock2
     RDKit          3D

 23 24  0  0  0  0  0  0  0  0999 V2000
    7.4129    3.1916   24.1922 C   0  0  0  0  0  0  0  0  0  0  0  0
    8.6877    2.5022   24.1133 N   0  0  0  0  0  0  0  0  0  0  0  0
    9.3224    2.3277   22.9583 C   0  0  0  0  0  0  0  0  0  0  0  0
    8.8566    2.7444   21.8982 O   0  0  0  0  0  0  0  0  0  0  0  0
   10.6025    1.6181   23.0201 C   0  0  0  0  0  0  0  0  0  0  0  0
   11.6814    2.3878   22.7721 C   0  0  0  0  0  0  0  0  0  0  0  0
   11.6694    3.7988   22.2411 C   0  0  0  0  0  0  0  0  0  0  0  0
   13.0653    1.7864   22.8065 C   0  0  0  0  0  0  0  0  0  0  0  0
   13.0655    0.6387   23.8368 C   0  0  0  0  0  0  0  0  0  0  0  0
   11.8948   -0.3447   23.7696 C   0  0  0  0  0  0  0  0  0  0  0  0
   11.9438   -1.3648   22.6236 C   0  0  0  0  0  0  0  0  0  0  0  0
   13.2038   -2.2298   22.7042 C   0  0  0  0  0  0  0  0  0  0  0  0
   13.4588   -2.6557   24.0369 O   0  0  0  0  0  0  0  0  0  0  0  0
   10.7132   -2.2682   22.6435 C   0  0  0  0  0  0  0  0  0  0  0  0
    9.4786   -1.4817   22.6325 N   0  0  0  0  0  0  0  0  0  0  0  0
    9.2758   -0.8214   21.3357 C   0  0  0  0  0  0  0  0  0  0  0  0
    7.8337   -0.8945   20.8473 C   0  0  0  0  0  0  0  0  0  0  0  0
    7.6030   -0.5550   19.1235 S   0  0  0  0  0  0  0  0  0  0  0  0
    8.3407   -1.6868   18.2639 N   0  0  0  0  0  0  0  0  0  0  0  0
    6.1964   -0.6608   18.8599 O   0  0  0  0  0  0  0  0  0  0  0  0
    8.2623    0.6896   18.8481 O   0  0  0  0  0  0  0  0  0  0  0  0
    9.5179   -0.5462   23.7620 C   0  0  0  0  0  0  0  0  0  0  0  0
   10.6281    0.4110   23.6446 N   0  0  0  0  0  0  0  0  0  0  0  0
  1  2  1  0
  2  3  1  0
  3  4  2  0
  3  5  1  0
  5  6  2  0
  6  7  1  0
  6  8  1  0
  8  9  1  0
  9 10  1  0
 10 11  1  0
 11 12  1  0
 12 13  1  0
 11 14  1  0
 14 15  1  0
 15 16  1  0
 16 17  1  0
 17 18  1  0
 18 19  1  0
 18 20  2  0
 18 21  2  0
 15 22  1  0
 22 23  1  0
 23  5  1  0
 23 10  1  0
M  END
