CVD-0003752|dock_bobby27042020.15|mol2|34|dock3
     RDKit          3D

 22 24  0  0  0  0  0  0  0  0999 V2000
    8.9413    6.9676   23.8346 Cl  0  0  0  0  0  0  0  0  0  0  0  0
    9.1731    5.3027   23.2856 C   0  0  0  0  0  0  0  0  0  0  0  0
   10.6416    5.0347   23.0161 C   0  0  0  0  0  0  0  0  0  0  0  0
   11.4661    5.9288   23.1598 O   0  0  0  0  0  0  0  0  0  0  0  0
   11.0096    3.7923   22.6239 N   0  0  0  0  0  0  0  0  0  0  0  0
   12.3753    3.3435   22.3351 C   0  0  0  0  0  0  0  0  0  0  0  0
   12.6516    2.0195   22.9988 C   0  0  0  0  0  0  0  0  0  0  0  0
   11.6686    1.0076   22.5780 N   0  0  0  0  0  0  0  0  0  0  0  0
   10.3414    1.4830   22.9715 C   0  0  0  0  0  0  0  0  0  0  0  0
   10.0060    2.7853   22.2846 C   0  0  0  0  0  0  0  0  0  0  0  0
   11.9641   -0.3231   23.1949 C   0  0  0  0  0  0  0  0  0  0  0  0
   13.0108   -1.0767   22.3594 C   0  0  0  0  0  0  0  0  0  0  0  0
   13.3940   -2.4208   22.9484 C   0  0  0  0  0  0  0  0  0  0  0  0
   13.9195   -2.2817   24.3595 C   0  0  0  0  0  0  0  0  0  0  0  0
   12.9387   -1.5185   25.2263 C   0  0  0  0  0  0  0  0  0  0  0  0
   12.5709   -0.1924   24.5995 C   0  0  0  0  0  0  0  0  0  0  0  0
   10.6926   -1.1648   23.3138 C   0  0  0  0  0  0  0  0  0  0  0  0
    9.9876   -1.3067   24.5066 C   0  0  0  0  0  0  0  0  0  0  0  0
    8.8369   -2.0755   24.5662 C   0  0  0  0  0  0  0  0  0  0  0  0
    8.3693   -2.7173   23.4402 C   0  0  0  0  0  0  0  0  0  0  0  0
    9.0535   -2.5903   22.2514 C   0  0  0  0  0  0  0  0  0  0  0  0
   10.2033   -1.8212   22.1902 C   0  0  0  0  0  0  0  0  0  0  0  0
  1  2  1  0
  2  3  1  0
  3  4  2  0
  3  5  1  0
  5  6  1  0
  6  7  1  0
  7  8  1  0
  8  9  1  0
  9 10  1  0
  8 11  1  0
 11 12  1  0
 12 13  1  0
 13 14  1  0
 14 15  1  0
 15 16  1  0
 11 17  1  0
 17 18  2  0
 18 19  1  0
 19 20  2  0
 20 21  1  0
 21 22  2  0
 10  5  1  0
 16 11  1  0
 22 17  1  0
M  END
