CVD-0002346|dock_bobby27042020.91|mol2|39|dock1
     RDKit          3D

 12 12  0  0  0  0  0  0  0  0999 V2000
   12.9597   -0.0946   22.2981 C   0  0  0  0  0  0  0  0  0  0  0  0
   12.6287   -1.5578   22.1156 C   0  0  0  0  0  0  0  0  0  0  0  0
   11.1614   -1.8408   22.2992 C   0  0  0  0  0  0  0  0  0  0  0  0
   10.3463   -1.2642   21.2275 N   0  0  0  0  0  0  0  0  0  0  0  0
    8.9054   -1.5941   21.3816 C   0  0  0  0  0  0  0  0  0  0  0  0
    8.1026   -1.3184   20.1833 N   0  0  0  0  0  0  0  0  0  0  0  0
    6.6616   -1.6107   20.3409 C   0  0  0  0  0  0  0  0  0  0  0  0
    5.9804   -2.0049   19.0388 C   0  0  0  0  0  0  0  0  0  0  0  0
    5.3608   -0.8398   18.2451 C   0  0  0  0  0  0  0  0  0  0  0  0
    6.1737    0.3339   18.3519 O   0  0  0  0  0  0  0  0  0  0  0  0
    7.5772    0.1400   18.2123 C   0  0  0  0  0  0  0  0  0  0  0  0
    8.2825   -0.0088   19.5387 C   0  0  0  0  0  0  0  0  0  0  0  0
  1  2  1  0
  2  3  1  0
  3  4  1  0
  4  5  1  0
  5  6  1  0
  6  7  1  0
  7  8  1  0
  8  9  1  0
  9 10  1  0
 10 11  1  0
 11 12  1  0
 12  6  1  0
M  END
