CVD-0003210|dock_bobby27042020.17|mol2|12|dock3
     RDKit          3D

 34 38  0  0  0  0  0  0  0  0999 V2000
    5.5772   -3.3731   20.8932 O   0  0  0  0  0  0  0  0  0  0  0  0
    6.3656   -2.4362   20.9028 C   0  0  0  0  0  0  0  0  0  0  0  0
    6.2765   -1.4194   19.7646 C   0  0  0  0  0  0  0  0  0  0  0  0
    5.3446   -0.3510   20.0700 N   0  0  0  0  0  0  0  0  0  0  0  0
    4.6481   -0.3588   21.2367 N   0  0  0  0  0  0  0  0  0  0  0  0
    3.8482    0.6691   21.2598 N   0  0  0  0  0  0  0  0  0  0  0  0
    3.9929    1.3509   20.0721 C   0  0  0  0  0  0  0  0  0  0  0  0
    3.3729    2.4983   19.5796 C   0  0  0  0  0  0  0  0  0  0  0  0
    3.7247    2.9578   18.3198 C   0  0  0  0  0  0  0  0  0  0  0  0
    4.6703    2.2991   17.5584 C   0  0  0  0  0  0  0  0  0  0  0  0
    5.2995    1.1584   18.0318 C   0  0  0  0  0  0  0  0  0  0  0  0
    4.9495    0.6986   19.2956 C   0  0  0  0  0  0  0  0  0  0  0  0
    7.3259   -2.2619   21.8644 N   0  0  0  0  0  0  0  0  0  0  0  0
    7.3902   -3.2578   22.9363 C   0  0  0  0  0  0  0  0  0  0  0  0
    6.6351   -4.5285   22.6364 C   0  0  0  0  0  0  0  0  0  0  0  0
    5.5531   -5.0272   23.4027 C   0  0  0  0  0  0  0  0  0  0  0  0
    5.0289   -6.1987   22.9467 C   0  0  0  0  0  0  0  0  0  0  0  0
    5.8705   -6.7008   21.5598 S   0  0  0  0  0  0  0  0  0  0  0  0
    6.9139   -5.3587   21.5935 C   0  0  0  0  0  0  0  0  0  0  0  0
    8.2477   -1.1544   21.9295 C   0  0  0  0  0  0  0  0  0  0  0  0
    7.7712    0.1409   22.1007 C   0  0  0  0  0  0  0  0  0  0  0  0
    8.6293    1.2253   22.1556 C   0  0  0  0  0  0  0  0  0  0  0  0
   10.0048    1.0498   22.0348 C   0  0  0  0  0  0  0  0  0  0  0  0
   10.9558    2.1027   22.0675 N   0  0  0  0  0  0  0  0  0  0  0  0
   10.7983    3.4365   22.2977 C   0  0  0  0  0  0  0  0  0  0  0  0
    9.7150    3.9625   22.5298 O   0  0  0  0  0  0  0  0  0  0  0  0
   12.0077    4.3337   22.2702 C   0  0  0  0  0  0  0  0  0  0  0  0
   13.0004    4.2812   21.2907 C   0  0  0  0  0  0  0  0  0  0  0  0
   14.0852    5.1415   21.3330 C   0  0  0  0  0  0  0  0  0  0  0  0
   14.2042    6.0670   22.3458 C   0  0  0  0  0  0  0  0  0  0  0  0
   13.2351    6.1340   23.3215 C   0  0  0  0  0  0  0  0  0  0  0  0
   12.1482    5.2770   23.2849 C   0  0  0  0  0  0  0  0  0  0  0  0
   10.4835   -0.2434   21.8718 C   0  0  0  0  0  0  0  0  0  0  0  0
    9.6242   -1.3264   21.8299 C   0  0  0  0  0  0  0  0  0  0  0  0
  1  2  2  0
  2  3  1  0
  3  4  1  0
  4  5  1  0
  5  6  2  0
  6  7  1  0
  7  8  2  0
  8  9  1  0
  9 10  2  0
 10 11  1  0
 11 12  2  0
  2 13  1  0
 13 14  1  0
 14 15  1  0
 15 16  1  0
 16 17  2  0
 17 18  1  0
 18 19  1  0
 13 20  1  0
 20 21  2  0
 21 22  1  0
 22 23  2  0
 23 24  1  0
 24 25  1  0
 25 26  2  0
 25 27  1  0
 27 28  2  0
 28 29  1  0
 29 30  2  0
 30 31  1  0
 31 32  2  0
 23 33  1  0
 33 34  2  0
 12  4  1  0
 19 15  2  0
 34 20  1  0
 12  7  1  0
 32 27  1  0
M  END
