CVD-0002143|dock_bobby27042020.92|mol2|32|dock1
     RDKit          3D

 17 17  0  0  0  0  0  0  0  0999 V2000
    4.6833    1.7010   18.3998 N   0  0  0  0  0  0  0  0  0  0  0  0
    5.4292    0.8316   17.8864 C   0  0  0  0  0  0  0  0  0  0  0  0
    6.2498    1.0740   16.8879 N   0  0  0  0  0  0  0  0  0  0  0  0
    5.4282   -0.5734   18.3816 C   0  0  0  0  0  0  0  0  0  0  0  0
    6.2980   -0.7592   19.6132 C   0  0  0  0  0  0  0  0  0  0  0  0
    7.9363   -0.1111   19.4142 S   0  0  0  0  0  0  0  0  0  0  0  0
    8.3711   -0.4236   18.0861 O   0  0  0  0  0  0  0  0  0  0  0  0
    7.9214    1.2574   19.8356 O   0  0  0  0  0  0  0  0  0  0  0  0
    8.9112   -0.8987   20.4197 N   0  0  0  0  0  0  0  0  0  0  0  0
    8.6995   -0.9036   21.8723 C   0  0  0  0  0  0  0  0  0  0  0  0
    9.7666   -1.7312   22.5659 C   0  0  0  0  0  0  0  0  0  0  0  0
   11.1115   -1.0461   22.5919 C   0  0  0  0  0  0  0  0  0  0  0  0
   11.3502    0.0169   23.4492 C   0  0  0  0  0  0  0  0  0  0  0  0
   12.5850    0.6436   23.4757 C   0  0  0  0  0  0  0  0  0  0  0  0
   13.5973    0.2139   22.6450 C   0  0  0  0  0  0  0  0  0  0  0  0
   13.3744   -0.8426   21.7885 C   0  0  0  0  0  0  0  0  0  0  0  0
   12.1393   -1.4687   21.7629 C   0  0  0  0  0  0  0  0  0  0  0  0
  1  2  1  0
  2  3  2  0
  2  4  1  0
  4  5  1  0
  5  6  1  0
  6  7  2  0
  6  8  2  0
  6  9  1  0
  9 10  1  0
 10 11  1  0
 11 12  1  0
 12 13  2  0
 13 14  1  0
 14 15  2  0
 15 16  1  0
 16 17  2  0
 17 12  1  0
M  END
