CVD-0001855|dock_bobby27042020.79|mol2|37|dock3
     RDKit          3D

 17 18  0  0  0  0  0  0  0  0999 V2000
    7.9697    2.3088   22.5828 C   0  0  0  0  0  0  0  0  0  0  0  0
    9.2583    1.7011   22.3315 N   0  0  0  0  0  0  0  0  0  0  0  0
   10.4119    2.3680   22.4737 C   0  0  0  0  0  0  0  0  0  0  0  0
   10.3515    3.7129   22.5269 N   0  0  0  0  0  0  0  0  0  0  0  0
   11.5008    4.3837   22.6683 C   0  0  0  0  0  0  0  0  0  0  0  0
   12.7482    3.7758   22.7618 C   0  0  0  0  0  0  0  0  0  0  0  0
   12.8116    2.3877   22.7061 C   0  0  0  0  0  0  0  0  0  0  0  0
   11.6367    1.6690   22.5624 C   0  0  0  0  0  0  0  0  0  0  0  0
   11.5900    0.2761   22.4882 O   0  0  0  0  0  0  0  0  0  0  0  0
   12.5425   -0.5463   23.0933 C   0  0  0  0  0  0  0  0  0  0  0  0
   13.0239   -1.6314   22.3812 C   0  0  0  0  0  0  0  0  0  0  0  0
   13.9644   -2.4674   22.9596 C   0  0  0  0  0  0  0  0  0  0  0  0
   14.4200   -2.2250   24.2375 C   0  0  0  0  0  0  0  0  0  0  0  0
   13.9372   -1.1457   24.9455 C   0  0  0  0  0  0  0  0  0  0  0  0
   12.9965   -0.3015   24.3794 C   0  0  0  0  0  0  0  0  0  0  0  0
   13.9490    4.5602   22.9126 C   0  0  0  0  0  0  0  0  0  0  0  0
   14.9068    5.1649   23.0599 N   0  0  0  0  0  0  0  0  0  0  0  0
  1  2  1  0
  2  3  1  0
  3  4  2  0
  4  5  1  0
  5  6  2  0
  6  7  1  0
  7  8  2  0
  8  9  1  0
  9 10  1  0
 10 11  2  0
 11 12  1  0
 12 13  2  0
 13 14  1  0
 14 15  2  0
  6 16  1  0
 16 17  3  0
  8  3  1  0
 15 10  1  0
M  END
