CVD-0003355|dock_bobby27042020.31|mol2|13|dock1
     RDKit          3D

 36 39  0  0  0  0  0  0  0  0999 V2000
   14.2553   -1.8682   20.2517 C   0  0  0  0  0  0  0  0  0  0  0  0
   13.9232   -1.9577   21.7084 C   0  0  0  0  0  0  0  0  0  0  0  0
   12.5004   -1.7733   21.9408 N   0  0  0  0  0  0  0  0  0  0  0  0
   12.0160   -0.8926   22.8319 C   0  0  0  0  0  0  0  0  0  0  0  0
   12.8195    0.1359   23.1662 N   0  0  0  0  0  0  0  0  0  0  0  0
   12.3517    1.0342   24.0399 C   0  0  0  0  0  0  0  0  0  0  0  0
   11.1021    0.9896   24.6296 C   0  0  0  0  0  0  0  0  0  0  0  0
   10.6453    2.0445   25.6077 C   0  0  0  0  0  0  0  0  0  0  0  0
   10.2924   -0.0771   24.2808 C   0  0  0  0  0  0  0  0  0  0  0  0
   10.7170   -1.0534   23.3825 C   0  0  0  0  0  0  0  0  0  0  0  0
    9.8013   -2.2170   23.0433 C   0  0  0  0  0  0  0  0  0  0  0  0
   10.1069   -3.4992   23.8191 C   0  0  0  0  0  0  0  0  0  0  0  0
    8.9638   -4.5008   23.7727 C   0  0  0  0  0  0  0  0  0  0  0  0
    9.2623   -5.6405   24.1106 O   0  0  0  0  0  0  0  0  0  0  0  0
    7.7271   -4.1324   23.3648 N   0  0  0  0  0  0  0  0  0  0  0  0
    7.3678   -2.7768   22.8851 C   0  0  0  0  0  0  0  0  0  0  0  0
    8.3834   -1.7347   23.3416 C   0  0  0  0  0  0  0  0  0  0  0  0
    8.1617   -0.4806   22.7022 O   0  0  0  0  0  0  0  0  0  0  0  0
    8.4392   -0.5650   21.2950 C   0  0  0  0  0  0  0  0  0  0  0  0
    8.2592   -1.9687   20.7454 C   0  0  0  0  0  0  0  0  0  0  0  0
    7.1546   -2.6424   21.4289 N   0  0  0  0  0  0  0  0  0  0  0  0
    6.1265   -3.1674   20.7274 C   0  0  0  0  0  0  0  0  0  0  0  0
    5.2533   -3.8118   21.2951 O   0  0  0  0  0  0  0  0  0  0  0  0
    6.0461   -2.9626   19.2266 C   0  0  0  0  0  0  0  0  0  0  0  0
    5.8791   -1.2478   18.8281 Cl  0  0  0  0  0  0  0  0  0  0  0  0
    9.7883   -0.1175   21.0596 N   0  0  0  0  0  0  0  0  0  0  0  0
   10.2025    1.3309   21.6817 S   0  0  0  0  0  0  0  0  0  0  0  0
    9.2031    2.3336   21.3589 O   0  0  0  0  0  0  0  0  0  0  0  0
   11.5379    1.7102   21.2556 O   0  0  0  0  0  0  0  0  0  0  0  0
    6.7927   -5.2207   23.3553 C   0  0  0  0  0  0  0  0  0  0  0  0
    6.6843   -6.0162   22.2253 C   0  0  0  0  0  0  0  0  0  0  0  0
    5.7973   -7.0083   22.1053 N   0  0  0  0  0  0  0  0  0  0  0  0
    5.0362   -7.2750   23.1650 C   0  0  0  0  0  0  0  0  0  0  0  0
    5.1069   -6.5700   24.3481 C   0  0  0  0  0  0  0  0  0  0  0  0
    5.9981   -5.5073   24.4674 C   0  0  0  0  0  0  0  0  0  0  0  0
    6.0495   -4.7313   25.7587 C   0  0  0  0  0  0  0  0  0  0  0  0
  1  2  1  0
  2  3  1  0
  3  4  1  0
  4  5  2  0
  5  6  1  0
  6  7  2  0
  7  8  1  0
  7  9  1  0
  9 10  2  0
 10 11  1  0
 11 12  1  0
 12 13  1  0
 13 14  2  0
 13 15  1  0
 15 16  1  0
 16 17  1  0
 17 18  1  0
 18 19  1  0
 19 20  1  0
 20 21  1  0
 21 22  1  0
 22 23  2  0
 22 24  1  0
 24 25  1  0
 19 26  1  0
 26 27  1  0
 27 28  2  0
 27 29  2  0
 15 30  1  0
 30 31  2  0
 31 32  1  0
 32 33  2  0
 33 34  1  0
 34 35  2  0
 35 36  1  0
 10  4  1  0
 17 11  1  0
 35 30  1  0
 21 16  1  0
M  END
