CVD-0001694|dock_bobby27042020.94|mol2|27|dock3
     RDKit          3D

 31 33  0  0  0  0  0  0  0  0999 V2000
   13.4193   -2.5537   23.7366 O   0  0  0  0  0  0  0  0  0  0  0  0
   12.5222   -1.5253   23.4557 C   0  0  0  0  0  0  0  0  0  0  0  0
   11.4143   -2.0232   22.6106 N   0  0  0  0  0  0  0  0  0  0  0  0
   10.8183   -1.1680   21.8635 C   0  0  0  0  0  0  0  0  0  0  0  0
    9.5992   -1.6966   20.7291 S   0  0  0  0  0  0  0  0  0  0  0  0
    8.2236   -2.0767   21.8324 C   0  0  0  0  0  0  0  0  0  0  0  0
    6.9092   -1.6083   21.2448 C   0  0  0  0  0  0  0  0  0  0  0  0
    5.9515   -2.3705   21.1707 O   0  0  0  0  0  0  0  0  0  0  0  0
    6.9368   -0.2982   20.8453 N   0  0  0  0  0  0  0  0  0  0  0  0
    5.8955    0.4721   20.2722 C   0  0  0  0  0  0  0  0  0  0  0  0
    4.8670    0.9902   20.9165 C   0  0  0  0  0  0  0  0  0  0  0  0
    3.8134    1.8477   20.2288 C   0  0  0  0  0  0  0  0  0  0  0  0
    4.0420    1.9534   18.7795 N   0  0  0  0  0  0  0  0  0  0  0  0
    5.0201    1.4393   18.1843 C   0  0  0  0  0  0  0  0  0  0  0  0
    6.1271    0.6216   18.8003 C   0  0  0  0  0  0  0  0  0  0  0  0
    6.1820   -0.7369   18.1833 C   0  0  0  0  0  0  0  0  0  0  0  0
    7.4769   -1.1419   18.0351 F   0  0  0  0  0  0  0  0  0  0  0  0
    5.6436   -0.7123   16.9293 F   0  0  0  0  0  0  0  0  0  0  0  0
   11.0342    0.2329   21.8547 N   0  0  0  0  0  0  0  0  0  0  0  0
   12.1496    0.6661   22.3128 C   0  0  0  0  0  0  0  0  0  0  0  0
   13.2088   -0.3245   22.7665 C   0  0  0  0  0  0  0  0  0  0  0  0
   13.9481   -0.7762   21.5790 C   0  0  0  0  0  0  0  0  0  0  0  0
   14.4811   -1.1202   20.6331 N   0  0  0  0  0  0  0  0  0  0  0  0
   12.2935    2.0796   22.3239 C   0  0  0  0  0  0  0  0  0  0  0  0
   13.5400    2.5718   22.2685 C   0  0  0  0  0  0  0  0  0  0  0  0
   13.7357    4.0876   22.1797 C   0  0  0  0  0  0  0  0  0  0  0  0
   12.6769    4.7304   23.0799 C   0  0  0  0  0  0  0  0  0  0  0  0
   11.3145    4.2159   22.7836 C   0  0  0  0  0  0  0  0  0  0  0  0
   11.1337    2.9675   22.3948 C   0  0  0  0  0  0  0  0  0  0  0  0
    9.8028    2.5496   22.0780 C   0  0  0  0  0  0  0  0  0  0  0  0
    8.7450    2.2256   21.7854 N   0  0  0  0  0  0  0  0  0  0  0  0
  1  2  1  0
  2  3  1  0
  3  4  2  0
  4  5  1  0
  5  6  1  0
  6  7  1  0
  7  8  2  0
  7  9  1  0
  9 10  1  0
 10 11  2  0
 11 12  1  0
 12 13  1  0
 13 14  2  0
 14 15  1  0
 15 16  1  0
 16 17  1  0
 16 18  1  0
  4 19  1  0
 19 20  2  0
 20 21  1  0
 21 22  1  0
 22 23  3  0
 20 24  1  0
 24 25  2  0
 25 26  1  0
 26 27  1  0
 27 28  1  0
 28 29  2  0
 29 30  1  0
 30 31  3  0
 21  2  1  0
 29 24  1  0
 15 10  1  0
M  END
