CVD-0000791|dock_bobby27042020.40|mol2|25|dock3
     RDKit          3D

 29 32  0  0  0  0  0  0  0  0999 V2000
    4.5040   -6.0469   22.5383 C   0  0  0  0  0  0  0  0  0  0  0  0
    5.7426   -6.3231   21.7263 C   0  0  0  0  0  0  0  0  0  0  0  0
    6.7571   -5.1968   21.7672 C   0  0  0  0  0  0  0  0  0  0  0  0
    6.7625   -4.2165   20.7819 C   0  0  0  0  0  0  0  0  0  0  0  0
    7.6768   -3.1750   20.8114 C   0  0  0  0  0  0  0  0  0  0  0  0
    7.7282   -2.1817   19.8665 O   0  0  0  0  0  0  0  0  0  0  0  0
    6.5597   -1.3947   19.5256 C   0  0  0  0  0  0  0  0  0  0  0  0
    6.0311   -0.6221   20.7515 C   0  0  0  0  0  0  0  0  0  0  0  0
    4.8426    0.2737   20.4080 C   0  0  0  0  0  0  0  0  0  0  0  0
    5.1730    1.2171   19.2585 C   0  0  0  0  0  0  0  0  0  0  0  0
    5.6639    0.4477   18.0405 C   0  0  0  0  0  0  0  0  0  0  0  0
    6.8749   -0.4139   18.3833 C   0  0  0  0  0  0  0  0  0  0  0  0
    8.6140   -3.1072   21.8470 C   0  0  0  0  0  0  0  0  0  0  0  0
    9.6232   -2.1981   22.1412 N   0  0  0  0  0  0  0  0  0  0  0  0
   10.0195   -1.0063   21.3856 C   0  0  0  0  0  0  0  0  0  0  0  0
   11.3765   -0.4804   21.7879 C   0  0  0  0  0  0  0  0  0  0  0  0
   12.5047   -1.2787   21.6803 C   0  0  0  0  0  0  0  0  0  0  0  0
   13.7495   -0.7986   22.0521 C   0  0  0  0  0  0  0  0  0  0  0  0
   13.8798    0.4852   22.5366 C   0  0  0  0  0  0  0  0  0  0  0  0
   12.7655    1.2887   22.6495 C   0  0  0  0  0  0  0  0  0  0  0  0
   11.5210    0.8084   22.2776 C   0  0  0  0  0  0  0  0  0  0  0  0
   10.2544   -2.6267   23.2718 C   0  0  0  0  0  0  0  0  0  0  0  0
    9.6971   -3.7702   23.7441 C   0  0  0  0  0  0  0  0  0  0  0  0
   10.1109   -4.5429   24.9703 C   0  0  0  0  0  0  0  0  0  0  0  0
    9.0319   -4.7414   25.9452 N   0  0  0  0  0  0  0  0  0  0  0  0
    9.4654   -5.5703   27.0637 C   0  0  0  0  0  0  0  0  0  0  0  0
    8.5492   -3.4579   26.4414 C   0  0  0  0  0  0  0  0  0  0  0  0
    8.6284   -4.0973   22.8437 C   0  0  0  0  0  0  0  0  0  0  0  0
    7.6910   -5.1268   22.7921 C   0  0  0  0  0  0  0  0  0  0  0  0
  1  2  1  0
  2  3  1  0
  3  4  2  0
  4  5  1  0
  5  6  1  0
  6  7  1  0
  7  8  1  0
  8  9  1  0
  9 10  1  0
 10 11  1  0
 11 12  1  0
  5 13  2  0
 13 14  1  0
 14 15  1  0
 15 16  1  0
 16 17  2  0
 17 18  1  0
 18 19  2  0
 19 20  1  0
 20 21  2  0
 14 22  1  0
 22 23  2  0
 23 24  1  0
 24 25  1  0
 25 26  1  0
 25 27  1  0
 23 28  1  0
 28 29  2  0
 29  3  1  0
 12  7  1  0
 28 13  1  0
 21 16  1  0
M  END
