CVD-0003535|dock_bobby27042020.59|mol2|29|dock3
     RDKit          3D

 20 22  0  0  0  0  0  0  0  0999 V2000
    8.4672    3.9907   24.3185 F   0  0  0  0  0  0  0  0  0  0  0  0
    8.9401    4.9229   23.4561 C   0  0  0  0  0  0  0  0  0  0  0  0
    8.0838    5.0252   22.4108 F   0  0  0  0  0  0  0  0  0  0  0  0
   10.3616    4.6627   23.0279 C   0  0  0  0  0  0  0  0  0  0  0  0
   11.2631    5.7252   22.9797 C   0  0  0  0  0  0  0  0  0  0  0  0
   12.5778    5.5328   22.5922 C   0  0  0  0  0  0  0  0  0  0  0  0
   13.0093    4.2713   22.2464 C   0  0  0  0  0  0  0  0  0  0  0  0
   12.1260    3.2061   22.2897 C   0  0  0  0  0  0  0  0  0  0  0  0
   10.8002    3.3816   22.6788 C   0  0  0  0  0  0  0  0  0  0  0  0
    9.8570    2.2044   22.7151 C   0  0  0  0  0  0  0  0  0  0  0  0
   10.3764    1.0276   22.0339 N   0  0  0  0  0  0  0  0  0  0  0  0
   11.3280    0.2416   22.5500 C   0  0  0  0  0  0  0  0  0  0  0  0
   11.9019    0.4370   23.7234 N   0  0  0  0  0  0  0  0  0  0  0  0
   12.8119   -0.6109   23.8354 C   0  0  0  0  0  0  0  0  0  0  0  0
   13.7036   -0.9279   24.8594 C   0  0  0  0  0  0  0  0  0  0  0  0
   14.5122   -2.0458   24.7179 C   0  0  0  0  0  0  0  0  0  0  0  0
   14.4445   -2.8383   23.5884 C   0  0  0  0  0  0  0  0  0  0  0  0
   13.5642   -2.5377   22.5613 C   0  0  0  0  0  0  0  0  0  0  0  0
   12.7535   -1.4177   22.7020 C   0  0  0  0  0  0  0  0  0  0  0  0
   11.7915   -0.8471   21.8919 N   0  0  0  0  0  0  0  0  0  0  0  0
  1  2  1  0
  2  3  1  0
  2  4  1  0
  4  5  2  0
  5  6  1  0
  6  7  2  0
  7  8  1  0
  8  9  2  0
  9 10  1  0
 10 11  1  0
 11 12  1  0
 12 13  2  0
 13 14  1  0
 14 15  2  0
 15 16  1  0
 16 17  2  0
 17 18  1  0
 18 19  2  0
 19 20  1  0
  9  4  1  0
 20 12  1  0
 19 14  1  0
M  END
