CVD-0000298|dock_bobby27042020.56|mol2|28|dock1
     RDKit          3D

 23 24  0  0  0  0  0  0  0  0999 V2000
   12.5428    5.2286   23.8805 C   0  0  0  0  0  0  0  0  0  0  0  0
   13.3704    4.4348   22.8821 C   0  0  0  0  0  0  0  0  0  0  0  0
   13.5048    5.2270   21.5921 C   0  0  0  0  0  0  0  0  0  0  0  0
   14.7127    4.2707   23.3828 O   0  0  0  0  0  0  0  0  0  0  0  0
   12.7381    3.1031   22.5727 C   0  0  0  0  0  0  0  0  0  0  0  0
   11.6164    2.8090   23.3992 O   0  0  0  0  0  0  0  0  0  0  0  0
   10.8467    1.6450   23.0986 C   0  0  0  0  0  0  0  0  0  0  0  0
   11.6378    0.3927   23.3816 C   0  0  0  0  0  0  0  0  0  0  0  0
   12.5683    0.4497   24.4160 C   0  0  0  0  0  0  0  0  0  0  0  0
   13.3113   -0.6567   24.7781 C   0  0  0  0  0  0  0  0  0  0  0  0
   13.1383   -1.8403   24.1004 C   0  0  0  0  0  0  0  0  0  0  0  0
   12.2411   -1.9256   23.0489 C   0  0  0  0  0  0  0  0  0  0  0  0
   11.4839   -0.8128   22.6695 C   0  0  0  0  0  0  0  0  0  0  0  0
   10.5668   -0.8508   21.5822 N   0  0  0  0  0  0  0  0  0  0  0  0
    9.3158   -0.2841   21.4756 C   0  0  0  0  0  0  0  0  0  0  0  0
    8.7717    0.3779   22.3535 O   0  0  0  0  0  0  0  0  0  0  0  0
    8.7503   -0.5496   20.2492 N   0  0  0  0  0  0  0  0  0  0  0  0
    7.4962   -0.1662   19.7100 C   0  0  0  0  0  0  0  0  0  0  0  0
    6.3465    0.0489   20.4644 C   0  0  0  0  0  0  0  0  0  0  0  0
    5.1765    0.4215   19.8252 C   0  0  0  0  0  0  0  0  0  0  0  0
    5.1844    0.5689   18.4575 C   0  0  0  0  0  0  0  0  0  0  0  0
    6.2686    0.3701   17.7084 N   0  0  0  0  0  0  0  0  0  0  0  0
    7.3926    0.0108   18.3349 C   0  0  0  0  0  0  0  0  0  0  0  0
  1  2  1  0
  2  3  1  0
  2  4  1  0
  2  5  1  0
  5  6  1  0
  6  7  1  0
  7  8  1  0
  8  9  2  0
  9 10  1  0
 10 11  2  0
 11 12  1  0
 12 13  2  0
 13 14  1  0
 14 15  1  0
 15 16  2  0
 15 17  1  0
 17 18  1  0
 18 19  2  0
 19 20  1  0
 20 21  2  0
 21 22  1  0
 22 23  2  0
 13  8  1  0
 23 18  1  0
M  END
