CVD-0003854|dock_bobby27042020.58|mol2|25|dock2
     RDKit          3D

 30 33  0  0  0  0  0  0  0  0999 V2000
    6.3363   -7.1656   31.7645 C   0  0  0  0  0  0  0  0  0  0  0  0
    6.2780   -6.5848   30.3726 C   0  0  0  0  0  0  0  0  0  0  0  0
    6.7064   -7.3132   29.2743 C   0  0  0  0  0  0  0  0  0  0  0  0
    6.6505   -6.7842   27.9971 C   0  0  0  0  0  0  0  0  0  0  0  0
    6.1606   -5.5050   27.7760 C   0  0  0  0  0  0  0  0  0  0  0  0
    5.7311   -4.7741   28.8744 C   0  0  0  0  0  0  0  0  0  0  0  0
    5.7889   -5.3073   30.1499 C   0  0  0  0  0  0  0  0  0  0  0  0
    6.1019   -4.9216   26.3779 C   0  0  0  0  0  0  0  0  0  0  0  0
    5.1781   -5.7266   25.4655 C   0  0  0  0  0  0  0  0  0  0  0  0
    5.2113   -5.1479   24.0400 C   0  0  0  0  0  0  0  0  0  0  0  0
    6.6762   -4.9606   23.5248 C   0  0  0  0  0  0  0  0  0  0  0  0
    7.4626   -4.1901   24.4757 N   0  0  0  0  0  0  0  0  0  0  0  0
    8.7865   -3.7656   24.0001 C   0  0  0  0  0  0  0  0  0  0  0  0
    8.8613   -2.4052   23.3148 C   0  0  0  0  0  0  0  0  0  0  0  0
    8.7746   -1.2567   24.3261 C   0  0  0  0  0  0  0  0  0  0  0  0
    8.8467    0.0760   23.6360 C   0  0  0  0  0  0  0  0  0  0  0  0
   10.0559    0.2082   22.8179 N   0  0  0  0  0  0  0  0  0  0  0  0
   10.2078   -0.8819   21.8265 C   0  0  0  0  0  0  0  0  0  0  0  0
   10.1170   -2.2359   22.4973 C   0  0  0  0  0  0  0  0  0  0  0  0
   10.8532    1.3446   22.8302 C   0  0  0  0  0  0  0  0  0  0  0  0
   12.2404    1.2457   22.8786 C   0  0  0  0  0  0  0  0  0  0  0  0
   13.0384    2.3760   22.8871 C   0  0  0  0  0  0  0  0  0  0  0  0
   12.4515    3.6284   22.8541 C   0  0  0  0  0  0  0  0  0  0  0  0
   11.0743    3.7515   22.8078 C   0  0  0  0  0  0  0  0  0  0  0  0
   10.2857    2.6147   22.7951 C   0  0  0  0  0  0  0  0  0  0  0  0
   13.4650    5.0760   22.8608 S   0  0  0  0  0  0  0  0  0  0  0  0
   13.6712    5.5580   21.3482 N   0  0  0  0  0  0  0  0  0  0  0  0
   12.7353    6.1058   23.5377 O   0  0  0  0  0  0  0  0  0  0  0  0
   14.7511    4.6952   23.3628 O   0  0  0  0  0  0  0  0  0  0  0  0
    7.5004   -4.8351   25.7864 C   0  0  0  0  0  0  0  0  0  0  0  0
  1  2  1  0
  2  3  2  0
  3  4  1  0
  4  5  2  0
  5  6  1  0
  6  7  2  0
  5  8  1  0
  8  9  1  0
  9 10  1  0
 10 11  1  0
 11 12  1  0
 12 13  1  0
 13 14  1  0
 14 15  1  0
 15 16  1  0
 16 17  1  0
 17 18  1  0
 18 19  1  0
 17 20  1  0
 20 21  2  0
 21 22  1  0
 22 23  2  0
 23 24  1  0
 24 25  2  0
 23 26  1  0
 26 27  1  0
 26 28  2  0
 26 29  2  0
 12 30  1  0
  7  2  1  0
 30  8  1  0
 19 14  1  0
 25 20  1  0
M  END
