CVD-0001542|dock_bobby27042020.9|mol2|23|dock3
     RDKit          3D

 11 11  0  0  0  0  0  0  0  0999 V2000
   13.7667   -1.9117   20.6494 N   0  0  0  0  0  0  0  0  0  0  0  0
   13.7335   -1.4582   21.8964 C   0  0  0  0  0  0  0  0  0  0  0  0
   14.7549   -1.3672   22.5866 O   0  0  0  0  0  0  0  0  0  0  0  0
   12.4014   -1.0261   22.4737 C   0  0  0  0  0  0  0  0  0  0  0  0
   11.3269   -1.5512   21.8574 N   0  0  0  0  0  0  0  0  0  0  0  0
   10.1451   -1.3333   22.4082 C   0  0  0  0  0  0  0  0  0  0  0  0
    8.6530   -2.1295   21.5325 Br  0  0  0  0  0  0  0  0  0  0  0  0
    9.9681   -0.5846   23.5442 C   0  0  0  0  0  0  0  0  0  0  0  0
   11.0195   -0.0026   24.1233 N   0  0  0  0  0  0  0  0  0  0  0  0
   12.2632   -0.1480   23.5717 C   0  0  0  0  0  0  0  0  0  0  0  0
   13.2322    0.5312   24.0768 O   0  0  0  0  0  0  0  0  0  0  0  0
  1  2  1  0
  2  3  2  0
  2  4  1  0
  4  5  2  0
  5  6  1  0
  6  7  1  0
  6  8  2  0
  8  9  1  0
  9 10  2  0
 10 11  1  0
 10  4  1  0
M  END
