CVD-0000993|dock_bobby27042020.11|mol2|12|dock2
     RDKit          3D

 20 22  0  0  0  0  0  0  0  0999 V2000
   13.9181    6.5736   22.2814 Br  0  0  0  0  0  0  0  0  0  0  0  0
   12.9218    5.0342   22.6562 C   0  0  0  0  0  0  0  0  0  0  0  0
   12.5780    4.5675   23.8717 C   0  0  0  0  0  0  0  0  0  0  0  0
   11.8323    3.3940   23.7890 C   0  0  0  0  0  0  0  0  0  0  0  0
   11.6125    2.9727   22.4967 C   0  0  0  0  0  0  0  0  0  0  0  0
   12.3484    4.0590   21.3664 S   0  0  0  0  0  0  0  0  0  0  0  0
   10.8898    1.8121   22.0267 C   0  0  0  0  0  0  0  0  0  0  0  0
   10.2517    1.7620   20.8884 N   0  0  0  0  0  0  0  0  0  0  0  0
    9.6412    0.5272   20.6802 N   0  0  0  0  0  0  0  0  0  0  0  0
    9.8466   -0.3006   21.6729 C   0  0  0  0  0  0  0  0  0  0  0  0
    9.3431   -1.5887   21.7015 N   0  0  0  0  0  0  0  0  0  0  0  0
    8.0061   -1.9371   21.7170 C   0  0  0  0  0  0  0  0  0  0  0  0
    7.1019   -1.1067   21.7031 O   0  0  0  0  0  0  0  0  0  0  0  0
    7.6310   -3.3924   21.7527 C   0  0  0  0  0  0  0  0  0  0  0  0
    8.2781   -4.2172   22.6673 C   0  0  0  0  0  0  0  0  0  0  0  0
    7.9768   -5.5662   22.7486 C   0  0  0  0  0  0  0  0  0  0  0  0
    7.0245   -6.1144   21.9182 C   0  0  0  0  0  0  0  0  0  0  0  0
    6.3733   -5.3133   21.0061 C   0  0  0  0  0  0  0  0  0  0  0  0
    6.6698   -3.9629   20.9195 C   0  0  0  0  0  0  0  0  0  0  0  0
   10.8076    0.3537   22.9576 S   0  0  0  0  0  0  0  0  0  0  0  0
  1  2  1  0
  2  3  2  0
  3  4  1  0
  4  5  2  0
  5  6  1  0
  5  7  1  0
  7  8  2  0
  8  9  1  0
  9 10  2  0
 10 11  1  0
 11 12  1  0
 12 13  2  0
 12 14  1  0
 14 15  2  0
 15 16  1  0
 16 17  2  0
 17 18  1  0
 18 19  2  0
 10 20  1  0
  6  2  1  0
 20  7  1  0
 19 14  1  0
M  END
