CVD-0002444|dock_bobby27042020.63|mol2|19|dock2
     RDKit          3D

 32 35  0  0  0  0  0  0  0  0999 V2000
    5.0216   -6.4037   26.8258 Cl  0  0  0  0  0  0  0  0  0  0  0  0
    3.9094   -7.0255   25.5995 C   0  0  0  0  0  0  0  0  0  0  0  0
    4.6670   -7.4948   24.3726 C   0  0  0  0  0  0  0  0  0  0  0  0
    4.6151   -8.6616   24.0044 O   0  0  0  0  0  0  0  0  0  0  0  0
    5.3928   -6.5750   23.7021 N   0  0  0  0  0  0  0  0  0  0  0  0
    5.5040   -5.1604   24.0475 C   0  0  0  0  0  0  0  0  0  0  0  0
    5.3340   -4.3097   22.8056 C   0  0  0  0  0  0  0  0  0  0  0  0
    6.3651   -4.6903   21.7505 C   0  0  0  0  0  0  0  0  0  0  0  0
    6.2613   -6.1840   21.4507 C   0  0  0  0  0  0  0  0  0  0  0  0
    6.3970   -6.9992   22.7324 C   0  0  0  0  0  0  0  0  0  0  0  0
    6.1775   -3.8705   20.4896 C   0  0  0  0  0  0  0  0  0  0  0  0
    5.8250   -4.3853   19.4322 O   0  0  0  0  0  0  0  0  0  0  0  0
    6.4380   -2.5515   20.6628 N   0  0  0  0  0  0  0  0  0  0  0  0
    6.3806   -1.4768   19.7406 C   0  0  0  0  0  0  0  0  0  0  0  0
    5.5142   -1.3976   18.6502 C   0  0  0  0  0  0  0  0  0  0  0  0
    5.5623   -0.2869   17.8225 C   0  0  0  0  0  0  0  0  0  0  0  0
    6.4528    0.7381   18.0613 C   0  0  0  0  0  0  0  0  0  0  0  0
    7.3185    0.6744   19.1387 C   0  0  0  0  0  0  0  0  0  0  0  0
    7.2820   -0.4305   19.9782 C   0  0  0  0  0  0  0  0  0  0  0  0
    8.0907   -0.6098   21.0738 O   0  0  0  0  0  0  0  0  0  0  0  0
    9.2568    0.2005   21.2675 C   0  0  0  0  0  0  0  0  0  0  0  0
   10.1927   -0.3483   22.3542 C   0  0  0  0  0  0  0  0  0  0  0  0
   10.6893   -1.7758   21.9870 C   0  0  0  0  0  0  0  0  0  0  0  0
    9.9722   -2.7280   22.8876 C   0  0  0  0  0  0  0  0  0  0  0  0
    9.2207   -1.9543   23.8665 C   0  0  0  0  0  0  0  0  0  0  0  0
    9.4071   -0.5054   23.6755 C   0  0  0  0  0  0  0  0  0  0  0  0
   11.2947    0.6667   22.4914 C   0  0  0  0  0  0  0  0  0  0  0  0
   12.3024    0.5231   23.4318 C   0  0  0  0  0  0  0  0  0  0  0  0
   13.2859    1.4949   23.4990 C   0  0  0  0  0  0  0  0  0  0  0  0
   13.2406    2.5698   22.6381 C   0  0  0  0  0  0  0  0  0  0  0  0
   12.2041    2.6313   21.7349 C   0  0  0  0  0  0  0  0  0  0  0  0
   11.2404    1.7048   21.6491 N   0  0  0  0  0  0  0  0  0  0  0  0
  1  2  1  0
  2  3  1  0
  3  4  2  0
  3  5  1  0
  5  6  1  0
  6  7  1  0
  7  8  1  0
  8  9  1  0
  9 10  1  0
  8 11  1  0
 11 12  2  0
 11 13  1  0
 13 14  1  0
 14 15  2  0
 15 16  1  0
 16 17  2  0
 17 18  1  0
 18 19  2  0
 19 20  1  0
 20 21  1  0
 21 22  1  0
 22 23  1  0
 23 24  1  0
 24 25  1  0
 25 26  1  0
 22 27  1  0
 27 28  2  0
 28 29  1  0
 29 30  2  0
 30 31  1  0
 31 32  2  0
 10  5  1  0
 19 14  1  0
 26 22  1  0
 32 27  1  0
M  END
