CVD-0000182|dock_bobby27042020.42|mol2|26|dock1
     RDKit          3D

 19 20  0  0  0  0  0  0  0  0999 V2000
    7.3937    0.9255   17.7487 C   0  0  0  0  0  0  0  0  0  0  0  0
    6.0269    0.4371   17.6065 N   0  0  0  0  0  0  0  0  0  0  0  0
    5.1007    1.5202   17.9206 C   0  0  0  0  0  0  0  0  0  0  0  0
    5.8027   -0.7216   18.4758 C   0  0  0  0  0  0  0  0  0  0  0  0
    6.4048   -0.5516   19.8346 C   0  0  0  0  0  0  0  0  0  0  0  0
    7.6123   -0.9591   20.1897 C   0  0  0  0  0  0  0  0  0  0  0  0
    8.2358   -0.8028   21.5263 C   0  0  0  0  0  0  0  0  0  0  0  0
    7.5466   -0.5687   22.5293 O   0  0  0  0  0  0  0  0  0  0  0  0
    9.5649   -0.9207   21.6265 N   0  0  0  0  0  0  0  0  0  0  0  0
   10.2174   -0.7762   22.9099 C   0  0  0  0  0  0  0  0  0  0  0  0
   11.5543   -0.0881   22.7817 C   0  0  0  0  0  0  0  0  0  0  0  0
   12.7822   -0.6800   22.7525 C   0  0  0  0  0  0  0  0  0  0  0  0
   13.7616    0.2671   22.6264 N   0  0  0  0  0  0  0  0  0  0  0  0
   13.1762    1.5086   22.5709 C   0  0  0  0  0  0  0  0  0  0  0  0
   13.7359    2.7755   22.4464 C   0  0  0  0  0  0  0  0  0  0  0  0
   12.8904    3.8727   22.4166 C   0  0  0  0  0  0  0  0  0  0  0  0
   11.5227    3.7113   22.5085 C   0  0  0  0  0  0  0  0  0  0  0  0
   10.9628    2.4496   22.6327 C   0  0  0  0  0  0  0  0  0  0  0  0
   11.7838    1.3235   22.6660 C   0  0  0  0  0  0  0  0  0  0  0  0
  1  2  1  0
  2  3  1  0
  2  4  1  0
  4  5  1  0
  5  6  2  0
  6  7  1  0
  7  8  2  0
  7  9  1  0
  9 10  1  0
 10 11  1  0
 11 12  2  0
 12 13  1  0
 13 14  1  0
 14 15  2  0
 15 16  1  0
 16 17  2  0
 17 18  1  0
 18 19  2  0
 19 11  1  0
 19 14  1  0
M  END
