CVD-0002111|dock_bobby27042020.50|mol2|14|dock1
     RDKit          3D

 29 30  0  0  0  0  0  0  0  0999 V2000
   13.3830    1.4820   22.6777 C   0  0  0  0  0  0  0  0  0  0  0  0
   12.0636    2.0568   23.1373 C   0  0  0  0  0  0  0  0  0  0  0  0
   10.9758    1.1275   22.9717 O   0  0  0  0  0  0  0  0  0  0  0  0
   10.7899   -0.0427   23.8064 C   0  0  0  0  0  0  0  0  0  0  0  0
   11.5408   -1.2784   23.3133 C   0  0  0  0  0  0  0  0  0  0  0  0
   10.9874   -1.7203   21.9470 C   0  0  0  0  0  0  0  0  0  0  0  0
    9.4278   -1.8381   21.9644 C   0  0  0  0  0  0  0  0  0  0  0  0
    8.8234   -0.6108   22.4591 N   0  0  0  0  0  0  0  0  0  0  0  0
    7.3621   -0.6082   22.3018 C   0  0  0  0  0  0  0  0  0  0  0  0
    6.9136   -0.6505   20.8604 C   0  0  0  0  0  0  0  0  0  0  0  0
    6.2064   -1.7374   20.3705 C   0  0  0  0  0  0  0  0  0  0  0  0
    5.7978   -1.7779   19.0478 C   0  0  0  0  0  0  0  0  0  0  0  0
    6.0929   -0.7320   18.2000 C   0  0  0  0  0  0  0  0  0  0  0  0
    6.7967    0.3540   18.6744 C   0  0  0  0  0  0  0  0  0  0  0  0
    7.2051    0.3942   19.9970 C   0  0  0  0  0  0  0  0  0  0  0  0
    9.2890   -0.2898   23.8064 C   0  0  0  0  0  0  0  0  0  0  0  0
    8.9170   -1.3273   24.8558 C   0  0  0  0  0  0  0  0  0  0  0  0
   11.7336    3.3460   22.3735 C   0  0  0  0  0  0  0  0  0  0  0  0
   12.7374    4.3649   22.6370 N   0  0  0  0  0  0  0  0  0  0  0  0
   13.1863    5.1793   21.6757 C   0  0  0  0  0  0  0  0  0  0  0  0
   14.2043    6.1978   22.0973 C   0  0  0  0  0  0  0  0  0  0  0  0
   12.7789    5.1084   20.5204 O   0  0  0  0  0  0  0  0  0  0  0  0
   10.3571    3.8853   22.7521 C   0  0  0  0  0  0  0  0  0  0  0  0
   10.2540    4.8573   23.4956 O   0  0  0  0  0  0  0  0  0  0  0  0
    9.2995    3.2590   22.2362 N   0  0  0  0  0  0  0  0  0  0  0  0
    7.9392    3.6818   22.5423 C   0  0  0  0  0  0  0  0  0  0  0  0
    7.5912    4.9648   21.9204 C   0  0  0  0  0  0  0  0  0  0  0  0
    7.2614    6.0033   21.4523 C   0  0  0  0  0  0  0  0  0  0  0  0
    6.7133    7.5826   20.7823 Br  0  0  0  0  0  0  0  0  0  0  0  0
  2  1  1  0
  2  3  1  0
  3  4  1  0
  4  5  1  0
  5  6  1  0
  6  7  1  0
  7  8  1  0
  8  9  1  0
  9 10  1  0
 10 11  2  0
 11 12  1  0
 12 13  2  0
 13 14  1  0
 14 15  2  0
  8 16  1  0
 16 17  1  0
  2 18  1  0
 18 19  1  0
 19 20  1  0
 20 21  1  0
 20 22  2  0
 18 23  1  0
 23 24  2  0
 23 25  1  0
 25 26  1  0
 26 27  1  0
 27 28  3  0
 28 29  1  0
 16  4  1  0
 15 10  1  0
M  END
