CVD-0002542|dock_bobby27042020.5|mol2|20|dock3
     RDKit          3D

 23 26  0  0  0  0  0  0  0  0999 V2000
    9.4326   -2.1799   22.2495 C   0  0  0  0  0  0  0  0  0  0  0  0
    9.9683   -0.7956   22.0333 S   0  0  0  0  0  0  0  0  0  0  0  0
   10.5040    0.5886   21.8170 C   0  0  0  0  0  0  0  0  0  0  0  0
   11.1838   -1.1397   22.8421 N   0  0  0  0  0  0  0  0  0  0  0  0
   12.3953   -1.7128   22.1686 C   0  0  0  0  0  0  0  0  0  0  0  0
   13.6108   -2.0569   22.9774 C   0  0  0  0  0  0  0  0  0  0  0  0
   13.6147   -1.8278   24.4598 N   0  0  0  0  0  0  0  0  0  0  0  0
   12.4032   -1.2546   25.1334 C   0  0  0  0  0  0  0  0  0  0  0  0
   11.1877   -0.9106   24.3245 C   0  0  0  0  0  0  0  0  0  0  0  0
   14.8302   -2.1718   25.2686 C   0  0  0  0  0  0  0  0  0  0  0  0
   14.8341   -1.9427   26.7510 O   0  0  0  0  0  0  0  0  0  0  0  0
    8.7528   -0.4515   21.2244 C   0  0  0  0  0  0  0  0  0  0  0  0
    8.7467   -0.6861   19.7429 C   0  0  0  0  0  0  0  0  0  0  0  0
    7.5313   -0.3420   18.9340 N   0  0  0  0  0  0  0  0  0  0  0  0
    6.3218    0.2366   19.6067 C   0  0  0  0  0  0  0  0  0  0  0  0
    5.1064    0.5807   18.7978 C   0  0  0  0  0  0  0  0  0  0  0  0
    3.8970    1.1593   19.4704 N   0  0  0  0  0  0  0  0  0  0  0  0
    3.9031    1.3939   20.9520 C   0  0  0  0  0  0  0  0  0  0  0  0
    5.1185    1.0498   21.7609 C   0  0  0  0  0  0  0  0  0  0  0  0
    6.3279    0.4712   21.0882 C   0  0  0  0  0  0  0  0  0  0  0  0
    7.5434    0.1271   21.8971 C   0  0  0  0  0  0  0  0  0  0  0  0
    8.9140   -0.3452   22.2820 S   0  0  0  0  0  0  0  0  0  0  0  0
    9.6088   -0.8147   21.0383 C   0  0  0  0  0  0  0  0  0  0  0  0
  1  2  2  0
  2  3  2  0
  2  4  1  0
  4  5  1  0
  5  6  1  0
  6  7  1  0
  7  8  1  0
  8  9  1  0
  7 10  1  0
 10 11  2  0
  2 12  1  0
 12 13  1  0
 13 14  1  0
 14 15  1  0
 15 16  2  0
 16 17  1  0
 17 18  2  0
 18 19  1  0
 19 20  2  0
 20 21  1  0
 21 22  1  0
 22 23  1  0
  9  4  1  0
 21 12  2  0
 23 13  2  0
 20 15  1  0
M  END
