CVD-0003821|dock_bobby27042020.29|mol2|35|dock3
     RDKit          3D

 33 37  0  0  0  0  0  0  0  0999 V2000
   13.4823    5.7374   22.3932 N   0  0  0  0  0  0  0  0  0  0  0  0
   12.4242    5.2903   23.5084 S   0  0  0  0  0  0  0  0  0  0  0  0
   13.1296    5.2065   24.7520 O   0  0  0  0  0  0  0  0  0  0  0  0
   11.3029    6.1755   23.4074 O   0  0  0  0  0  0  0  0  0  0  0  0
   11.8506    3.6652   23.1166 C   0  0  0  0  0  0  0  0  0  0  0  0
   12.7593    2.6644   22.8247 C   0  0  0  0  0  0  0  0  0  0  0  0
   12.3038    1.3937   22.5208 C   0  0  0  0  0  0  0  0  0  0  0  0
   10.9437    1.0997   22.4864 C   0  0  0  0  0  0  0  0  0  0  0  0
   10.0508    2.1277   22.7754 C   0  0  0  0  0  0  0  0  0  0  0  0
   10.4937    3.3990   23.0945 C   0  0  0  0  0  0  0  0  0  0  0  0
   10.4919   -0.1782   22.1737 N   0  0  0  0  0  0  0  0  0  0  0  0
   11.1554   -1.3737   22.6700 C   0  0  0  0  0  0  0  0  0  0  0  0
   10.1274   -2.3728   23.1751 C   0  0  0  0  0  0  0  0  0  0  0  0
    9.0598   -2.6727   22.1701 C   0  0  0  0  0  0  0  0  0  0  0  0
    8.4308   -1.3780   21.6799 C   0  0  0  0  0  0  0  0  0  0  0  0
    9.4897   -0.4194   21.1427 C   0  0  0  0  0  0  0  0  0  0  0  0
    8.0283   -3.5827   22.7134 N   0  0  0  0  0  0  0  0  0  0  0  0
    7.4324   -4.4454   21.6902 C   0  0  0  0  0  0  0  0  0  0  0  0
    6.5463   -5.5004   22.3137 C   0  0  0  0  0  0  0  0  0  0  0  0
    5.4561   -4.8850   23.1650 C   0  0  0  0  0  0  0  0  0  0  0  0
    6.1060   -3.9476   24.1753 C   0  0  0  0  0  0  0  0  0  0  0  0
    6.9887   -2.9208   23.4915 C   0  0  0  0  0  0  0  0  0  0  0  0
    4.4085   -6.1231   23.9945 S   0  0  0  0  0  0  0  0  0  0  0  0
    2.7528   -5.5066   23.8074 C   0  0  0  0  0  0  0  0  0  0  0  0
    2.3063   -4.4609   24.5885 C   0  0  0  0  0  0  0  0  0  0  0  0
    1.0216   -3.9637   24.4498 C   0  0  0  0  0  0  0  0  0  0  0  0
    0.1618   -4.4936   23.5340 C   0  0  0  0  0  0  0  0  0  0  0  0
    0.5603   -5.5662   22.6994 C   0  0  0  0  0  0  0  0  0  0  0  0
   -0.3061   -6.1389   21.7375 C   0  0  0  0  0  0  0  0  0  0  0  0
    0.1099   -7.1704   20.9491 C   0  0  0  0  0  0  0  0  0  0  0  0
    1.3852   -7.6807   21.0701 C   0  0  0  0  0  0  0  0  0  0  0  0
    2.2574   -7.1644   21.9816 C   0  0  0  0  0  0  0  0  0  0  0  0
    1.8802   -6.0909   22.8294 C   0  0  0  0  0  0  0  0  0  0  0  0
  1  2  1  0
  2  3  2  0
  2  4  2  0
  2  5  1  0
  5  6  2  0
  6  7  1  0
  7  8  2  0
  8  9  1  0
  9 10  2  0
  8 11  1  0
 11 12  1  0
 12 13  1  0
 13 14  1  0
 14 15  1  0
 15 16  1  0
 14 17  1  0
 17 18  1  0
 18 19  1  0
 19 20  1  0
 20 21  1  0
 21 22  1  0
 20 23  1  0
 23 24  1  0
 24 25  2  0
 25 26  1  0
 26 27  2  0
 27 28  1  0
 28 29  2  0
 29 30  1  0
 30 31  2  0
 31 32  1  0
 32 33  2  0
 10  5  1  0
 16 11  1  0
 22 17  1  0
 33 24  1  0
 33 28  1  0
M  END
