CVD-0000333|dock_bobby27042020.27|mol2|29|dock1
     RDKit          3D

 32 35  0  0  0  0  0  0  0  0999 V2000
    7.4647   -3.4123   24.8551 C   0  0  0  0  0  0  0  0  0  0  0  0
    8.2427   -4.3282   23.9827 C   0  0  0  0  0  0  0  0  0  0  0  0
    8.9664   -3.5212   23.0478 O   0  0  0  0  0  0  0  0  0  0  0  0
    8.2843   -2.7207   22.1634 C   0  0  0  0  0  0  0  0  0  0  0  0
    7.0259   -3.0030   21.6599 C   0  0  0  0  0  0  0  0  0  0  0  0
    6.3913   -2.2245   20.7765 N   0  0  0  0  0  0  0  0  0  0  0  0
    7.0000   -1.1095   20.3403 C   0  0  0  0  0  0  0  0  0  0  0  0
    8.2570   -0.7506   20.8121 C   0  0  0  0  0  0  0  0  0  0  0  0
    8.9223   -1.5439   21.7461 C   0  0  0  0  0  0  0  0  0  0  0  0
   10.2588   -1.0658   22.2136 C   0  0  0  0  0  0  0  0  0  0  0  0
   11.2953   -1.9400   22.5431 C   0  0  0  0  0  0  0  0  0  0  0  0
   12.5070   -1.4342   22.9651 C   0  0  0  0  0  0  0  0  0  0  0  0
   13.7904   -2.5416   23.3636 Cl  0  0  0  0  0  0  0  0  0  0  0  0
   12.7341   -0.0786   23.0816 C   0  0  0  0  0  0  0  0  0  0  0  0
   11.7108    0.8119   22.7661 C   0  0  0  0  0  0  0  0  0  0  0  0
   10.4890    0.3042   22.3376 C   0  0  0  0  0  0  0  0  0  0  0  0
   11.8608    2.3040   22.8655 C   0  0  0  0  0  0  0  0  0  0  0  0
   10.8779    2.9823   23.1494 O   0  0  0  0  0  0  0  0  0  0  0  0
   13.0921    2.8809   22.6372 N   0  0  0  0  0  0  0  0  0  0  0  0
   13.3817    4.2212   22.6913 C   0  0  0  0  0  0  0  0  0  0  0  0
   13.2970    5.1880   23.6742 C   0  0  0  0  0  0  0  0  0  0  0  0
   13.7590    6.3778   23.0639 C   0  0  0  0  0  0  0  0  0  0  0  0
   14.0800    6.0786   21.8124 C   0  0  0  0  0  0  0  0  0  0  0  0
   13.8621    4.7541   21.5387 O   0  0  0  0  0  0  0  0  0  0  0  0
    6.2733   -0.2741   19.3409 C   0  0  0  0  0  0  0  0  0  0  0  0
    6.7559   -0.2901   18.0344 C   0  0  0  0  0  0  0  0  0  0  0  0
    6.2222    0.4052   17.0258 N   0  0  0  0  0  0  0  0  0  0  0  0
    5.1939    1.1363   17.3318 C   0  0  0  0  0  0  0  0  0  0  0  0
    4.6781    1.8423   16.3008 F   0  0  0  0  0  0  0  0  0  0  0  0
    4.5964    1.2583   18.5645 C   0  0  0  0  0  0  0  0  0  0  0  0
    5.1471    0.5214   19.6106 C   0  0  0  0  0  0  0  0  0  0  0  0
    4.4883    0.6195   20.9622 C   0  0  0  0  0  0  0  0  0  0  0  0
  1  2  1  0
  2  3  1  0
  3  4  1  0
  4  5  2  0
  5  6  1  0
  6  7  2  0
  7  8  1  0
  8  9  2  0
  9 10  1  0
 10 11  2  0
 11 12  1  0
 12 13  1  0
 12 14  2  0
 14 15  1  0
 15 16  2  0
 15 17  1  0
 17 18  2  0
 17 19  1  0
 19 20  1  0
 20 21  2  0
 21 22  1  0
 22 23  2  0
 23 24  1  0
  7 25  1  0
 25 26  2  0
 26 27  1  0
 27 28  2  0
 28 29  1  0
 28 30  1  0
 30 31  2  0
 31 32  1  0
  9  4  1  0
 16 10  1  0
 24 20  1  0
 31 25  1  0
M  END
