CVD-0001441|dock_bobby27042020.95|mol2|19|dock2
     RDKit          3D

 21 22  0  0  0  0  0  0  0  0999 V2000
    5.5911    2.2868   16.9142 O   0  0  0  0  0  0  0  0  0  0  0  0
    5.6475    1.4015   17.9528 B   0  0  0  0  0  0  0  0  0  0  0  0
    5.7203    0.0861   17.5922 O   0  0  0  0  0  0  0  0  0  0  0  0
    5.0066    1.7856   19.3287 C   0  0  0  0  0  0  0  0  0  0  0  0
    4.9425    0.6053   20.2721 C   0  0  0  0  0  0  0  0  0  0  0  0
    3.8928    0.2526   20.7948 O   0  0  0  0  0  0  0  0  0  0  0  0
    6.1068   -0.0324   20.5095 N   0  0  0  0  0  0  0  0  0  0  0  0
    7.4060    0.3292   19.9489 C   0  0  0  0  0  0  0  0  0  0  0  0
    8.4595    0.3210   21.0374 C   0  0  0  0  0  0  0  0  0  0  0  0
    8.5234   -1.0443   21.7108 C   0  0  0  0  0  0  0  0  0  0  0  0
    7.1398   -1.4185   22.2378 C   0  0  0  0  0  0  0  0  0  0  0  0
    6.1051   -1.3578   21.1193 C   0  0  0  0  0  0  0  0  0  0  0  0
    9.5467   -1.0499   22.8260 C   0  0  0  0  0  0  0  0  0  0  0  0
    9.2243   -0.7559   23.9734 O   0  0  0  0  0  0  0  0  0  0  0  0
   10.7908   -1.4009   22.4162 N   0  0  0  0  0  0  0  0  0  0  0  0
   12.0090   -1.5275   23.1296 C   0  0  0  0  0  0  0  0  0  0  0  0
   12.9904   -2.4622   22.8078 C   0  0  0  0  0  0  0  0  0  0  0  0
   14.1579   -2.5289   23.5503 C   0  0  0  0  0  0  0  0  0  0  0  0
   14.3625   -1.6752   24.6119 C   0  0  0  0  0  0  0  0  0  0  0  0
   13.3979   -0.7478   24.9378 C   0  0  0  0  0  0  0  0  0  0  0  0
   12.2268   -0.6713   24.2032 C   0  0  0  0  0  0  0  0  0  0  0  0
  1  2  1  0
  2  3  1  0
  2  4  1  0
  4  5  1  0
  5  6  2  0
  5  7  1  0
  7  8  1  0
  8  9  1  0
  9 10  1  0
 10 11  1  0
 11 12  1  0
 10 13  1  0
 13 14  2  0
 13 15  1  0
 15 16  1  0
 16 17  2  0
 17 18  1  0
 18 19  2  0
 19 20  1  0
 20 21  2  0
 12  7  1  0
 21 16  1  0
M  END
