CVD-0001460|dock_bobby27042020.9|mol2|36|dock1
     RDKit          3D

 30 33  0  0  0  0  0  0  0  0999 V2000
    4.0529   -7.3499   25.5324 C   0  0  0  0  0  0  0  0  0  0  0  0
    4.0698   -7.3235   26.8386 C   0  0  0  0  0  0  0  0  0  0  0  0
    5.3536   -7.4167   27.5895 C   0  0  0  0  0  0  0  0  0  0  0  0
    5.6405   -8.4468   28.1971 O   0  0  0  0  0  0  0  0  0  0  0  0
    6.1909   -6.3549   27.5903 N   0  0  0  0  0  0  0  0  0  0  0  0
    7.4466   -6.3344   28.3438 C   0  0  0  0  0  0  0  0  0  0  0  0
    8.6078   -5.9902   27.4295 C   0  0  0  0  0  0  0  0  0  0  0  0
    8.3808   -4.6919   26.7879 N   0  0  0  0  0  0  0  0  0  0  0  0
    9.5215   -4.3353   25.9316 C   0  0  0  0  0  0  0  0  0  0  0  0
    9.6518   -2.8470   25.7062 C   0  0  0  0  0  0  0  0  0  0  0  0
    9.1207   -1.9383   26.6175 C   0  0  0  0  0  0  0  0  0  0  0  0
    9.2324   -0.5702   26.4175 C   0  0  0  0  0  0  0  0  0  0  0  0
    9.8782   -0.0652   25.2989 C   0  0  0  0  0  0  0  0  0  0  0  0
   10.4238   -0.9387   24.3591 C   0  0  0  0  0  0  0  0  0  0  0  0
   11.1374   -0.7826   23.1236 C   0  0  0  0  0  0  0  0  0  0  0  0
   11.5107    0.5164   22.4714 C   0  0  0  0  0  0  0  0  0  0  0  0
   10.3538    1.1647   21.7375 C   0  0  0  0  0  0  0  0  0  0  0  0
    9.6425    0.2126   20.8965 N   0  0  0  0  0  0  0  0  0  0  0  0
    8.3123    0.1760   20.8206 C   0  0  0  0  0  0  0  0  0  0  0  0
    7.5824    0.8660   21.5273 O   0  0  0  0  0  0  0  0  0  0  0  0
    7.7144   -0.7821   19.7943 C   0  0  0  0  0  0  0  0  0  0  0  0
    7.5506   -0.1162   18.4358 C   0  0  0  0  0  0  0  0  0  0  0  0
    6.1120   -0.0423   18.1859 C   0  0  0  0  0  0  0  0  0  0  0  0
    5.4278   -0.5392   19.3163 C   0  0  0  0  0  0  0  0  0  0  0  0
    6.3746   -1.2274   20.1884 N   0  0  0  0  0  0  0  0  0  0  0  0
   11.4018   -2.0422   22.6717 C   0  0  0  0  0  0  0  0  0  0  0  0
   10.9034   -2.9761   23.5390 N   0  0  0  0  0  0  0  0  0  0  0  0
   10.2982   -2.3218   24.5836 C   0  0  0  0  0  0  0  0  0  0  0  0
    7.1517   -4.7572   26.0016 C   0  0  0  0  0  0  0  0  0  0  0  0
    5.9641   -5.0886   26.8868 C   0  0  0  0  0  0  0  0  0  0  0  0
  1  2  2  0
  2  3  1  0
  3  4  2  0
  3  5  1  0
  5  6  1  0
  6  7  1  0
  7  8  1  0
  8  9  1  0
  9 10  1  0
 10 11  2  0
 11 12  1  0
 12 13  2  0
 13 14  1  0
 14 15  1  0
 15 16  1  0
 16 17  1  0
 17 18  1  0
 18 19  1  0
 19 20  2  0
 21 19  1  0
 21 22  1  0
 22 23  1  0
 23 24  1  0
 24 25  1  0
 15 26  2  0
 26 27  1  0
 27 28  1  0
  8 29  1  0
 29 30  1  0
 30  5  1  0
 28 10  1  0
 28 14  2  0
 25 21  1  0
M  END
