CVD-0001055|dock_bobby27042020.39|mol2|27|dock3
     RDKit          3D

 20 23  0  0  0  0  0  0  0  0999 V2000
   13.5249   -2.9967   25.3935 Br  0  0  0  0  0  0  0  0  0  0  0  0
   12.6275   -2.4028   23.8284 C   0  0  0  0  0  0  0  0  0  0  0  0
   13.3080   -2.4220   22.6255 C   0  0  0  0  0  0  0  0  0  0  0  0
   12.6654   -1.9920   21.4786 C   0  0  0  0  0  0  0  0  0  0  0  0
   11.3548   -1.5557   21.5825 C   0  0  0  0  0  0  0  0  0  0  0  0
   10.5104   -1.0848   20.5973 O   0  0  0  0  0  0  0  0  0  0  0  0
    9.3544   -0.8073   21.2842 C   0  0  0  0  0  0  0  0  0  0  0  0
    9.3921   -1.0507   22.5608 N   0  0  0  0  0  0  0  0  0  0  0  0
   10.6776   -1.5366   22.7803 C   0  0  0  0  0  0  0  0  0  0  0  0
   11.3197   -1.9689   23.9401 C   0  0  0  0  0  0  0  0  0  0  0  0
    8.2061   -0.2726   20.5306 C   0  0  0  0  0  0  0  0  0  0  0  0
    8.1392   -0.4120   19.1508 C   0  0  0  0  0  0  0  0  0  0  0  0
    7.1415    0.0440   18.4295 N   0  0  0  0  0  0  0  0  0  0  0  0
    6.1393    0.6816   19.1100 C   0  0  0  0  0  0  0  0  0  0  0  0
    5.0270    1.2033   18.4106 C   0  0  0  0  0  0  0  0  0  0  0  0
    4.0305    1.8379   19.0927 C   0  0  0  0  0  0  0  0  0  0  0  0
    4.0872    1.9819   20.4648 C   0  0  0  0  0  0  0  0  0  0  0  0
    5.1413    1.4942   21.1802 C   0  0  0  0  0  0  0  0  0  0  0  0
    6.1975    0.8290   20.5164 C   0  0  0  0  0  0  0  0  0  0  0  0
    7.2589    0.3366   21.2264 N   0  0  0  0  0  0  0  0  0  0  0  0
  1  2  1  0
  2  3  2  0
  3  4  1  0
  4  5  2  0
  5  6  1  0
  6  7  1  0
  7  8  2  0
  8  9  1  0
  9 10  2  0
  7 11  1  0
 11 12  2  0
 12 13  1  0
 13 14  2  0
 14 15  1  0
 15 16  2  0
 16 17  1  0
 17 18  2  0
 18 19  1  0
 19 20  2  0
 10  2  1  0
 20 11  1  0
  9  5  1  0
 19 14  1  0
M  END
