CVD-0002422|dock_bobby27042020.77|mol2|23|dock3
     RDKit          3D

 19 21  0  0  0  0  0  0  0  0999 V2000
    6.7497   -1.0903   20.8065 C   0  0  0  0  0  0  0  0  0  0  0  0
    8.1548   -0.7636   21.0590 N   0  0  0  0  0  0  0  0  0  0  0  0
    8.2726    0.5018   21.7936 C   0  0  0  0  0  0  0  0  0  0  0  0
    9.7210    0.8886   22.0197 C   0  0  0  0  0  0  0  0  0  0  0  0
   10.5130   -0.1935   22.7433 C   0  0  0  0  0  0  0  0  0  0  0  0
   10.2920   -1.5169   22.0191 C   0  0  0  0  0  0  0  0  0  0  0  0
    8.8181   -1.8271   21.8180 C   0  0  0  0  0  0  0  0  0  0  0  0
   11.9290    0.0942   22.8582 O   0  0  0  0  0  0  0  0  0  0  0  0
   12.7590   -0.7736   23.4976 C   0  0  0  0  0  0  0  0  0  0  0  0
   12.9256   -0.5502   24.8629 C   0  0  0  0  0  0  0  0  0  0  0  0
   13.7656   -1.4142   25.5433 C   0  0  0  0  0  0  0  0  0  0  0  0
   14.3895   -2.4358   24.8611 C   0  0  0  0  0  0  0  0  0  0  0  0
   14.1496   -2.5585   23.5112 C   0  0  0  0  0  0  0  0  0  0  0  0
   13.3439   -1.7427   22.8178 N   0  0  0  0  0  0  0  0  0  0  0  0
    6.0571   -0.1178   19.8856 C   0  0  0  0  0  0  0  0  0  0  0  0
    6.5283    0.2592   18.6039 C   0  0  0  0  0  0  0  0  0  0  0  0
    5.7401    1.1596   17.9533 C   0  0  0  0  0  0  0  0  0  0  0  0
    4.4017    1.5534   18.9217 S   0  0  0  0  0  0  0  0  0  0  0  0
    4.8948    0.5263   20.1838 C   0  0  0  0  0  0  0  0  0  0  0  0
  1  2  1  0
  2  3  1  0
  3  4  1  0
  4  5  1  0
  5  6  1  0
  6  7  1  0
  5  8  1  0
  8  9  1  0
  9 10  2  0
 10 11  1  0
 11 12  2  0
 12 13  1  0
 13 14  2  0
  1 15  1  0
 15 16  1  0
 16 17  2  0
 17 18  1  0
 18 19  1  0
  7  2  1  0
 14  9  1  0
 19 15  2  0
M  END
