CVD-0001570|dock_bobby27042020.9|mol2|19|dock3
     RDKit          3D

 13 14  0  0  0  0  0  0  0  0999 V2000
   13.8124    3.7514   22.7765 O   0  0  0  0  0  0  0  0  0  0  0  0
   12.8502    2.7856   22.7230 C   0  0  0  0  0  0  0  0  0  0  0  0
   11.5250    3.1439   22.5191 C   0  0  0  0  0  0  0  0  0  0  0  0
   10.5381    2.1747   22.4625 C   0  0  0  0  0  0  0  0  0  0  0  0
   10.8942    0.8388   22.6128 C   0  0  0  0  0  0  0  0  0  0  0  0
   10.1370   -0.3070   22.6003 N   0  0  0  0  0  0  0  0  0  0  0  0
   10.9600   -1.3833   22.7928 C   0  0  0  0  0  0  0  0  0  0  0  0
   12.2528   -0.9726   22.9331 C   0  0  0  0  0  0  0  0  0  0  0  0
   13.4762   -1.8465   23.1632 C   0  0  0  0  0  0  0  0  0  0  0  0
   14.1887   -1.6229   24.4509 C   0  0  0  0  0  0  0  0  0  0  0  0
   14.0239   -0.7069   25.1998 O   0  0  0  0  0  0  0  0  0  0  0  0
   12.2328    0.4577   22.8202 C   0  0  0  0  0  0  0  0  0  0  0  0
   13.2073    1.4525   22.8732 C   0  0  0  0  0  0  0  0  0  0  0  0
  1  2  1  0
  2  3  2  0
  3  4  1  0
  4  5  2  0
  5  6  1  0
  6  7  1  0
  7  8  2  0
  8  9  1  0
  9 10  1  0
 10 11  2  0
  8 12  1  0
 12 13  2  0
 13  2  1  0
 12  5  1  0
M  END
