CVD-0003907|dock_bobby27042020.86|mol2|23|dock1
     RDKit          3D

 26 29  0  0  0  0  0  0  0  0999 V2000
    6.2592   -6.4886   25.7728 O   0  0  0  0  0  0  0  0  0  0  0  0
    6.9246   -5.5662   24.9057 C   0  0  0  0  0  0  0  0  0  0  0  0
    6.1811   -5.3855   23.5964 C   0  0  0  0  0  0  0  0  0  0  0  0
    6.8569   -4.3719   22.6693 C   0  0  0  0  0  0  0  0  0  0  0  0
    7.0106   -3.0392   23.3951 C   0  0  0  0  0  0  0  0  0  0  0  0
    7.8132   -3.2003   24.6765 C   0  0  0  0  0  0  0  0  0  0  0  0
    7.1180   -4.2199   25.5859 C   0  0  0  0  0  0  0  0  0  0  0  0
    7.6242   -1.9952   22.5022 N   0  0  0  0  0  0  0  0  0  0  0  0
    6.6620   -1.4397   21.5449 C   0  0  0  0  0  0  0  0  0  0  0  0
    5.4991   -1.8247   21.5256 O   0  0  0  0  0  0  0  0  0  0  0  0
    6.9757   -0.4904   20.6415 N   0  0  0  0  0  0  0  0  0  0  0  0
    5.9622    0.0293   19.7233 C   0  0  0  0  0  0  0  0  0  0  0  0
    6.6124    0.6643   18.4770 C   0  0  0  0  0  0  0  0  0  0  0  0
    5.5826    1.2812   17.5325 C   0  0  0  0  0  0  0  0  0  0  0  0
    4.6894    2.2776   18.2601 C   0  0  0  0  0  0  0  0  0  0  0  0
    4.0251    1.6374   19.4707 C   0  0  0  0  0  0  0  0  0  0  0  0
    5.0623    1.0589   20.4277 C   0  0  0  0  0  0  0  0  0  0  0  0
    8.9564   -1.6904   22.6714 C   0  0  0  0  0  0  0  0  0  0  0  0
    9.4819   -0.5806   23.3305 C   0  0  0  0  0  0  0  0  0  0  0  0
   10.8964   -0.5578   23.3941 C   0  0  0  0  0  0  0  0  0  0  0  0
   11.7020    0.5779   23.9564 C   0  0  0  0  0  0  0  0  0  0  0  0
   13.0762    0.6231   23.3252 C   0  0  0  0  0  0  0  0  0  0  0  0
   13.6963   -0.6575   23.1595 C   0  0  0  0  0  0  0  0  0  0  0  0
   12.9086   -1.7336   22.4402 C   0  0  0  0  0  0  0  0  0  0  0  0
   11.4541   -1.6335   22.7935 C   0  0  0  0  0  0  0  0  0  0  0  0
   10.2678   -2.7097   22.1300 S   0  0  0  0  0  0  0  0  0  0  0  0
  1  2  1  0
  2  3  1  0
  3  4  1  0
  4  5  1  0
  5  6  1  0
  6  7  1  0
  5  8  1  0
  8  9  1  0
  9 10  2  0
  9 11  1  0
 11 12  1  0
 12 13  1  0
 13 14  1  0
 14 15  1  0
 15 16  1  0
 16 17  1  0
  8 18  1  0
 18 19  2  0
 19 20  1  0
 20 21  1  0
 21 22  1  0
 22 23  1  0
 23 24  1  0
 24 25  1  0
 25 26  1  0
  7  2  1  0
 17 12  1  0
 26 18  1  0
 25 20  2  0
M  END
