CVD-0003706|dock_bobby27042020.30|mol2|9|dock1
     RDKit          3D

 40 45  0  0  0  0  0  0  0  0999 V2000
    6.4125   -6.6346   28.6637 C   0  0  0  0  0  0  0  0  0  0  0  0
    7.6440   -5.8895   28.2399 C   0  0  0  0  0  0  0  0  0  0  0  0
    7.8405   -4.7187   28.5506 O   0  0  0  0  0  0  0  0  0  0  0  0
    8.5274   -6.6129   27.4635 N   0  0  0  0  0  0  0  0  0  0  0  0
    9.9423   -6.0477   26.8457 S   0  0  0  0  0  0  0  0  0  0  0  0
   10.5101   -5.2046   27.8530 O   0  0  0  0  0  0  0  0  0  0  0  0
   10.6909   -7.1704   26.3688 O   0  0  0  0  0  0  0  0  0  0  0  0
    9.5255   -5.0316   25.4690 C   0  0  0  0  0  0  0  0  0  0  0  0
    8.2035   -4.6835   25.2540 C   0  0  0  0  0  0  0  0  0  0  0  0
    7.8740   -3.8976   24.1644 C   0  0  0  0  0  0  0  0  0  0  0  0
    8.8413   -3.4451   23.2716 C   0  0  0  0  0  0  0  0  0  0  0  0
   10.1694   -3.7749   23.5366 C   0  0  0  0  0  0  0  0  0  0  0  0
   10.5124   -4.5754   24.6119 C   0  0  0  0  0  0  0  0  0  0  0  0
    8.4177   -2.6353   22.1031 C   0  0  0  0  0  0  0  0  0  0  0  0
    7.5001   -3.1073   21.2378 C   0  0  0  0  0  0  0  0  0  0  0  0
    7.0322   -2.4558   20.1413 N   0  0  0  0  0  0  0  0  0  0  0  0
    7.4925   -1.2382   19.8533 C   0  0  0  0  0  0  0  0  0  0  0  0
    6.9509   -0.6492   18.7228 N   0  0  0  0  0  0  0  0  0  0  0  0
    7.4353    0.6111   18.1563 C   0  0  0  0  0  0  0  0  0  0  0  0
    6.2795    1.4426   17.6558 C   0  0  0  0  0  0  0  0  0  0  0  0
    5.4680    0.7161   16.7528 O   0  0  0  0  0  0  0  0  0  0  0  0
    4.9135   -0.4203   17.4051 C   0  0  0  0  0  0  0  0  0  0  0  0
    6.0227   -1.3549   17.8480 C   0  0  0  0  0  0  0  0  0  0  0  0
    8.4990   -0.6259   20.7079 C   0  0  0  0  0  0  0  0  0  0  0  0
    9.1401    0.5386   20.6685 N   0  0  0  0  0  0  0  0  0  0  0  0
    9.9956    0.5581   21.7481 C   0  0  0  0  0  0  0  0  0  0  0  0
   10.8590    1.7489   21.9670 C   0  0  0  0  0  0  0  0  0  0  0  0
   10.7879    2.1283   23.3369 O   0  0  0  0  0  0  0  0  0  0  0  0
   11.2469    3.3662   23.6422 C   0  0  0  0  0  0  0  0  0  0  0  0
   10.8189    3.8792   24.8669 C   0  0  0  0  0  0  0  0  0  0  0  0
   11.2532    5.1198   25.2186 C   0  0  0  0  0  0  0  0  0  0  0  0
   12.1074    5.8389   24.3522 C   0  0  0  0  0  0  0  0  0  0  0  0
   12.6079    7.1321   24.6338 C   0  0  0  0  0  0  0  0  0  0  0  0
   13.4288    7.7636   23.7473 C   0  0  0  0  0  0  0  0  0  0  0  0
   13.7872    7.1567   22.5613 C   0  0  0  0  0  0  0  0  0  0  0  0
   13.3298    5.9112   22.2462 C   0  0  0  0  0  0  0  0  0  0  0  0
   12.4758    5.2177   23.1354 C   0  0  0  0  0  0  0  0  0  0  0  0
   12.0320    3.9671   22.7915 N   0  0  0  0  0  0  0  0  0  0  0  0
    9.8854   -0.5939   22.4592 C   0  0  0  0  0  0  0  0  0  0  0  0
    8.9283   -1.3622   21.8163 N   0  0  0  0  0  0  0  0  0  0  0  0
  1  2  1  0
  2  3  2  0
  2  4  1  0
  4  5  1  0
  5  6  2  0
  5  7  2  0
  5  8  1  0
  8  9  2  0
  9 10  1  0
 10 11  2  0
 11 12  1  0
 12 13  2  0
 11 14  1  0
 14 15  2  0
 15 16  1  0
 16 17  2  0
 17 18  1  0
 18 19  1  0
 19 20  1  0
 20 21  1  0
 21 22  1  0
 22 23  1  0
 17 24  1  0
 24 25  2  0
 25 26  1  0
 26 27  1  0
 27 28  1  0
 28 29  1  0
 29 30  2  0
 30 31  1  0
 31 32  2  0
 32 33  1  0
 33 34  2  0
 34 35  1  0
 35 36  2  0
 36 37  1  0
 37 38  2  0
 26 39  2  0
 39 40  1  0
 13  8  1  0
 40 14  1  0
 23 18  1  0
 40 24  1  0
 38 29  1  0
 37 32  1  0
M  END
