CVD-0003742|dock_bobby27042020.58|mol2|41|dock1
     RDKit          3D

 23 26  0  0  0  0  0  0  0  0999 V2000
   14.1574   -1.1441   24.2945 C   0  0  0  0  0  0  0  0  0  0  0  0
   12.6916   -1.2845   23.9789 C   0  0  0  0  0  0  0  0  0  0  0  0
   11.7503   -1.0018   24.9672 C   0  0  0  0  0  0  0  0  0  0  0  0
   10.3901   -1.1228   24.6923 C   0  0  0  0  0  0  0  0  0  0  0  0
    9.2641   -0.9074   25.4842 N   0  0  0  0  0  0  0  0  0  0  0  0
    8.2516   -1.1787   24.6936 C   0  0  0  0  0  0  0  0  0  0  0  0
    8.6183   -1.5588   23.4312 N   0  0  0  0  0  0  0  0  0  0  0  0
   10.0068   -1.5281   23.4150 C   0  0  0  0  0  0  0  0  0  0  0  0
   10.9187   -1.8162   22.4086 C   0  0  0  0  0  0  0  0  0  0  0  0
   12.2760   -1.6924   22.6976 C   0  0  0  0  0  0  0  0  0  0  0  0
   13.2907   -1.9939   21.6264 C   0  0  0  0  0  0  0  0  0  0  0  0
    7.7472   -1.9418   22.2734 C   0  0  0  0  0  0  0  0  0  0  0  0
    8.3056   -1.3322   20.9780 C   0  0  0  0  0  0  0  0  0  0  0  0
    8.3925    0.1816   21.0163 C   0  0  0  0  0  0  0  0  0  0  0  0
    7.0466    0.8104   21.2984 C   0  0  0  0  0  0  0  0  0  0  0  0
    6.4316    0.2254   22.5535 C   0  0  0  0  0  0  0  0  0  0  0  0
    6.3754   -1.2841   22.4832 C   0  0  0  0  0  0  0  0  0  0  0  0
    7.6480   -3.4599   22.1439 C   0  0  0  0  0  0  0  0  0  0  0  0
    6.8254   -4.0268   21.1796 C   0  0  0  0  0  0  0  0  0  0  0  0
    6.7347   -5.4029   21.0670 C   0  0  0  0  0  0  0  0  0  0  0  0
    7.4746   -6.1785   21.9298 C   0  0  0  0  0  0  0  0  0  0  0  0
    8.2732   -5.6661   22.8672 N   0  0  0  0  0  0  0  0  0  0  0  0
    8.3451   -4.3343   22.9566 C   0  0  0  0  0  0  0  0  0  0  0  0
  1  2  1  0
  2  3  2  0
  3  4  1  0
  4  5  1  0
  5  6  2  0
  6  7  1  0
  7  8  1  0
  8  9  1  0
  9 10  2  0
 10 11  1  0
  7 12  1  0
 12 13  1  0
 13 14  1  0
 14 15  1  0
 15 16  1  0
 16 17  1  0
 12 18  1  0
 18 19  2  0
 19 20  1  0
 20 21  2  0
 21 22  1  0
 22 23  2  0
 10  2  1  0
 17 12  1  0
 23 18  1  0
  8  4  2  0
M  END
