CVD-0003812|dock_bobby27042020.58|mol2|31|dock2
     RDKit          3D

 24 26  0  0  0  0  0  0  0  0999 V2000
   13.0001    5.2889   21.6632 N   0  0  0  0  0  0  0  0  0  0  0  0
   13.2666    4.3276   22.9156 S   0  0  0  0  0  0  0  0  0  0  0  0
   12.7165    4.9733   24.0694 O   0  0  0  0  0  0  0  0  0  0  0  0
   14.6599    3.9967   22.9064 O   0  0  0  0  0  0  0  0  0  0  0  0
   12.3661    2.8268   22.6710 C   0  0  0  0  0  0  0  0  0  0  0  0
   10.9843    2.8544   22.6094 C   0  0  0  0  0  0  0  0  0  0  0  0
   10.2843    1.6768   22.4151 C   0  0  0  0  0  0  0  0  0  0  0  0
   10.9462    0.4608   22.2736 C   0  0  0  0  0  0  0  0  0  0  0  0
   12.3364    0.4587   22.3352 C   0  0  0  0  0  0  0  0  0  0  0  0
   13.0460    1.6298   22.5338 C   0  0  0  0  0  0  0  0  0  0  0  0
   10.2394   -0.7178   22.0765 N   0  0  0  0  0  0  0  0  0  0  0  0
    9.1554   -0.8412   21.0973 C   0  0  0  0  0  0  0  0  0  0  0  0
    7.9564   -1.5444   21.6677 C   0  0  0  0  0  0  0  0  0  0  0  0
    8.3373   -2.9237   22.2169 C   0  0  0  0  0  0  0  0  0  0  0  0
    9.4496   -2.7544   23.2207 C   0  0  0  0  0  0  0  0  0  0  0  0
   10.6465   -2.0179   22.6582 C   0  0  0  0  0  0  0  0  0  0  0  0
    7.1689   -3.6278   22.7782 N   0  0  0  0  0  0  0  0  0  0  0  0
    7.2735   -5.0831   22.7996 C   0  0  0  0  0  0  0  0  0  0  0  0
    5.9886   -5.7211   23.2235 C   0  0  0  0  0  0  0  0  0  0  0  0
    5.5329   -5.9263   24.5060 C   0  0  0  0  0  0  0  0  0  0  0  0
    4.2890   -6.5504   24.5661 C   0  0  0  0  0  0  0  0  0  0  0  0
    3.8008   -6.8184   23.3402 C   0  0  0  0  0  0  0  0  0  0  0  0
    2.1723   -7.6443   22.9294 Br  0  0  0  0  0  0  0  0  0  0  0  0
    4.8446   -6.3173   22.0744 S   0  0  0  0  0  0  0  0  0  0  0  0
  1  2  1  0
  2  3  2  0
  2  4  2  0
  2  5  1  0
  5  6  2  0
  6  7  1  0
  7  8  2  0
  8  9  1  0
  9 10  2  0
  8 11  1  0
 11 12  1  0
 12 13  1  0
 13 14  1  0
 14 15  1  0
 15 16  1  0
 14 17  1  0
 17 18  1  0
 18 19  1  0
 19 20  2  0
 20 21  1  0
 21 22  2  0
 22 23  1  0
 22 24  1  0
 10  5  1  0
 16 11  1  0
 24 19  1  0
M  END
