CVD-0000741|dock_bobby27042020.55|mol2|6|dock3
     RDKit          3D

 16 17  0  0  0  0  0  0  0  0999 V2000
   14.0091   -0.4436   23.1868 C   0  0  0  0  0  0  0  0  0  0  0  0
   12.6235   -0.5641   22.7498 N   0  0  0  0  0  0  0  0  0  0  0  0
   11.8813   -1.6775   22.6846 C   0  0  0  0  0  0  0  0  0  0  0  0
   10.6161   -1.3086   22.2432 C   0  0  0  0  0  0  0  0  0  0  0  0
    9.4332   -2.2040   21.9968 C   0  0  0  0  0  0  0  0  0  0  0  0
    8.2357   -1.4101   21.5191 C   0  0  0  0  0  0  0  0  0  0  0  0
    7.3078   -1.1641   22.2824 O   0  0  0  0  0  0  0  0  0  0  0  0
    8.3167   -1.0162   20.2251 N   0  0  0  0  0  0  0  0  0  0  0  0
    7.4249   -0.2606   19.4245 C   0  0  0  0  0  0  0  0  0  0  0  0
    6.1960    0.2154   19.8699 C   0  0  0  0  0  0  0  0  0  0  0  0
    5.3994    0.9454   19.0046 C   0  0  0  0  0  0  0  0  0  0  0  0
    5.8490    1.1788   17.7254 C   0  0  0  0  0  0  0  0  0  0  0  0
    7.0209    0.7355   17.2706 N   0  0  0  0  0  0  0  0  0  0  0  0
    7.7824    0.0321   18.1134 C   0  0  0  0  0  0  0  0  0  0  0  0
   10.7273    0.0915   22.0791 C   0  0  0  0  0  0  0  0  0  0  0  0
   11.9307    0.5435   22.3908 N   0  0  0  0  0  0  0  0  0  0  0  0
  1  2  1  0
  2  3  1  0
  3  4  2  0
  4  5  1  0
  5  6  1  0
  6  7  2  0
  6  8  1  0
  8  9  1  0
  9 10  2  0
 10 11  1  0
 11 12  2  0
 12 13  1  0
 13 14  2  0
  4 15  1  0
 15 16  2  0
 16  2  1  0
 14  9  1  0
M  END
