CVD-0003542|dock_bobby27042020.1|mol2|39|dock2
     RDKit          3D

 29 32  0  0  0  0  0  0  0  0999 V2000
    7.4537   -3.1370   25.6279 F   0  0  0  0  0  0  0  0  0  0  0  0
    8.1659   -4.2786   25.7655 C   0  0  0  0  0  0  0  0  0  0  0  0
    8.6225   -4.5776   27.0276 C   0  0  0  0  0  0  0  0  0  0  0  0
    9.3500   -5.7393   27.2203 C   0  0  0  0  0  0  0  0  0  0  0  0
    9.6101   -6.5874   26.1581 C   0  0  0  0  0  0  0  0  0  0  0  0
    9.1358   -6.2519   24.9125 C   0  0  0  0  0  0  0  0  0  0  0  0
    9.3979   -7.1017   23.8931 F   0  0  0  0  0  0  0  0  0  0  0  0
    8.4049   -5.0911   24.6527 C   0  0  0  0  0  0  0  0  0  0  0  0
    7.8243   -4.7131   22.9951 S   0  0  0  0  0  0  0  0  0  0  0  0
    8.1932   -5.7527   22.0853 O   0  0  0  0  0  0  0  0  0  0  0  0
    6.4594   -4.2934   23.0740 O   0  0  0  0  0  0  0  0  0  0  0  0
    8.6959   -3.3987   22.5825 N   0  0  0  0  0  0  0  0  0  0  0  0
    7.9670   -2.2695   21.9874 C   0  0  0  0  0  0  0  0  0  0  0  0
    8.9285   -1.4191   21.2186 C   0  0  0  0  0  0  0  0  0  0  0  0
   10.0272   -0.9911   22.0688 N   0  0  0  0  0  0  0  0  0  0  0  0
   10.7237   -2.0899   22.7451 C   0  0  0  0  0  0  0  0  0  0  0  0
    9.7499   -2.9442   23.5017 C   0  0  0  0  0  0  0  0  0  0  0  0
   10.3519    0.3148   22.1545 C   0  0  0  0  0  0  0  0  0  0  0  0
    9.7093    1.1834   21.5783 O   0  0  0  0  0  0  0  0  0  0  0  0
   11.5533    0.6756   23.0100 C   0  0  0  0  0  0  0  0  0  0  0  0
   11.9826    2.1059   22.8743 C   0  0  0  0  0  0  0  0  0  0  0  0
   13.2435    2.5689   22.6373 C   0  0  0  0  0  0  0  0  0  0  0  0
   13.2508    3.9372   22.5770 N   0  0  0  0  0  0  0  0  0  0  0  0
   11.9789    4.3876   22.7767 C   0  0  0  0  0  0  0  0  0  0  0  0
   11.5596    5.6641   22.7938 N   0  0  0  0  0  0  0  0  0  0  0  0
   10.2511    5.8552   23.0110 C   0  0  0  0  0  0  0  0  0  0  0  0
    9.3480    4.8329   23.2106 C   0  0  0  0  0  0  0  0  0  0  0  0
    9.7976    3.5221   23.1897 C   0  0  0  0  0  0  0  0  0  0  0  0
   11.1497    3.2695   22.9676 C   0  0  0  0  0  0  0  0  0  0  0  0
  1  2  1  0
  2  3  2  0
  3  4  1  0
  4  5  2  0
  5  6  1  0
  6  7  1  0
  6  8  2  0
  8  9  1  0
  9 10  2  0
  9 11  2  0
  9 12  1  0
 12 13  1  0
 13 14  1  0
 14 15  1  0
 15 16  1  0
 16 17  1  0
 15 18  1  0
 18 19  2  0
 18 20  1  0
 20 21  1  0
 21 22  2  0
 22 23  1  0
 23 24  1  0
 24 25  2  0
 25 26  1  0
 26 27  2  0
 27 28  1  0
 28 29  2  0
  8  2  1  0
 17 12  1  0
 29 21  1  0
 29 24  1  0
M  END
