CVD-0001532|dock_bobby27042020.52|mol2|21|dock1
     RDKit          3D

 19 20  0  0  0  0  0  0  0  0999 V2000
   13.6564   -0.9044   23.5334 C   0  0  0  0  0  0  0  0  0  0  0  0
   13.2655   -1.7504   22.3623 C   0  0  0  0  0  0  0  0  0  0  0  0
   11.9935   -1.3118   21.7803 N   0  0  0  0  0  0  0  0  0  0  0  0
   10.8274   -1.8150   22.5090 C   0  0  0  0  0  0  0  0  0  0  0  0
    9.5593   -1.6910   21.7273 C   0  0  0  0  0  0  0  0  0  0  0  0
    8.3572   -2.3104   21.8955 C   0  0  0  0  0  0  0  0  0  0  0  0
    7.5755   -1.8365   20.9117 N   0  0  0  0  0  0  0  0  0  0  0  0
    6.1793   -2.1380   20.6312 C   0  0  0  0  0  0  0  0  0  0  0  0
    5.6833   -1.3827   19.3987 C   0  0  0  0  0  0  0  0  0  0  0  0
    5.3512   -2.0155   18.4042 O   0  0  0  0  0  0  0  0  0  0  0  0
    5.6155   -0.0314   19.4371 N   0  0  0  0  0  0  0  0  0  0  0  0
    5.1386    0.7722   18.3093 C   0  0  0  0  0  0  0  0  0  0  0  0
    4.0172    1.6938   18.7519 C   0  0  0  0  0  0  0  0  0  0  0  0
    4.4758    2.5659   19.8372 N   0  0  0  0  0  0  0  0  0  0  0  0
    3.4108    3.4833   20.2406 C   0  0  0  0  0  0  0  0  0  0  0  0
    4.8952    1.7407   20.9669 C   0  0  0  0  0  0  0  0  0  0  0  0
    6.0262    0.8120   20.5639 C   0  0  0  0  0  0  0  0  0  0  0  0
    8.2431   -0.9409   20.1654 N   0  0  0  0  0  0  0  0  0  0  0  0
    9.4596   -0.8610   20.6572 N   0  0  0  0  0  0  0  0  0  0  0  0
  1  2  1  0
  2  3  1  0
  3  4  1  0
  4  5  1  0
  5  6  2  0
  6  7  1  0
  7  8  1  0
  8  9  1  0
  9 10  2  0
  9 11  1  0
 11 12  1  0
 12 13  1  0
 13 14  1  0
 14 15  1  0
 14 16  1  0
 16 17  1  0
  7 18  1  0
 18 19  2  0
 19  5  1  0
 17 11  1  0
M  END
