CVD-0003225|dock_bobby27042020.2|mol2|39|dock2
     RDKit          3D

 30 33  0  0  0  0  0  0  0  0999 V2000
    5.1219    1.6019   18.0082 N   0  0  0  0  0  0  0  0  0  0  0  0
    5.7332    0.5051   18.5692 C   0  0  0  0  0  0  0  0  0  0  0  0
    5.4765   -0.7826   18.0940 C   0  0  0  0  0  0  0  0  0  0  0  0
    6.0948   -1.8816   18.6634 C   0  0  0  0  0  0  0  0  0  0  0  0
    6.9827   -1.7392   19.7183 C   0  0  0  0  0  0  0  0  0  0  0  0
    7.6560   -2.9428   20.3320 C   0  0  0  0  0  0  0  0  0  0  0  0
    7.1700   -3.2286   21.7508 C   0  0  0  0  0  0  0  0  0  0  0  0
    7.9437   -4.3503   22.4067 C   0  0  0  0  0  0  0  0  0  0  0  0
    7.5769   -5.5015   22.2050 O   0  0  0  0  0  0  0  0  0  0  0  0
    9.0522   -4.1061   23.2307 N   0  0  0  0  0  0  0  0  0  0  0  0
    9.5070   -5.1965   24.0923 C   0  0  0  0  0  0  0  0  0  0  0  0
    8.8462   -5.1726   25.4477 C   0  0  0  0  0  0  0  0  0  0  0  0
    7.5042   -4.7874   25.6873 C   0  0  0  0  0  0  0  0  0  0  0  0
    7.1212   -4.8516   26.9929 C   0  0  0  0  0  0  0  0  0  0  0  0
    8.4201   -5.3916   27.9443 S   0  0  0  0  0  0  0  0  0  0  0  0
    9.4619   -5.5326   26.6079 C   0  0  0  0  0  0  0  0  0  0  0  0
    9.7496   -2.8938   23.3239 C   0  0  0  0  0  0  0  0  0  0  0  0
    9.6619   -2.0155   22.4753 O   0  0  0  0  0  0  0  0  0  0  0  0
   10.6513   -2.6524   24.5343 C   0  0  0  0  0  0  0  0  0  0  0  0
   10.9712   -1.2473   24.6968 N   0  0  0  0  0  0  0  0  0  0  0  0
   10.2749   -0.4808   25.5765 N   0  0  0  0  0  0  0  0  0  0  0  0
   10.7107    0.7450   25.5082 N   0  0  0  0  0  0  0  0  0  0  0  0
   11.6898    0.7981   24.5414 C   0  0  0  0  0  0  0  0  0  0  0  0
   12.4646    1.8535   24.0626 C   0  0  0  0  0  0  0  0  0  0  0  0
   13.3864    1.6019   23.0581 C   0  0  0  0  0  0  0  0  0  0  0  0
   13.5423    0.3335   22.5341 C   0  0  0  0  0  0  0  0  0  0  0  0
   12.7833   -0.7290   22.9988 C   0  0  0  0  0  0  0  0  0  0  0  0
   11.8610   -0.4784   24.0077 C   0  0  0  0  0  0  0  0  0  0  0  0
    7.2402   -0.4618   20.1910 C   0  0  0  0  0  0  0  0  0  0  0  0
    6.6291    0.6460   19.6310 C   0  0  0  0  0  0  0  0  0  0  0  0
  1  2  1  0
  2  3  2  0
  3  4  1  0
  4  5  2  0
  5  6  1  0
  6  7  1  0
  7  8  1  0
  8  9  2  0
  8 10  1  0
 10 11  1  0
 11 12  1  0
 12 13  1  0
 13 14  2  0
 14 15  1  0
 15 16  1  0
 10 17  1  0
 17 18  2  0
 17 19  1  0
 19 20  1  0
 20 21  1  0
 21 22  2  0
 22 23  1  0
 23 24  2  0
 24 25  1  0
 25 26  2  0
 26 27  1  0
 27 28  2  0
  5 29  1  0
 29 30  2  0
 30  2  1  0
 16 12  2  0
 28 20  1  0
 28 23  1  0
M  END
