CVD-0002010|dock_bobby27042020.7|mol2|39|dock2
     RDKit          3D

 19 21  0  0  0  0  0  0  0  0999 V2000
    5.1892    0.6761   20.6574 C   0  0  0  0  0  0  0  0  0  0  0  0
    6.4190    0.8181   19.7632 C   0  0  0  0  0  0  0  0  0  0  0  0
    6.1728    0.1659   18.4154 C   0  0  0  0  0  0  0  0  0  0  0  0
    5.5015   -0.9562   18.4869 O   0  0  0  0  0  0  0  0  0  0  0  0
    6.5642    0.6438   17.3735 O   0  0  0  0  0  0  0  0  0  0  0  0
    7.6668    0.2282   20.3966 C   0  0  0  0  0  0  0  0  0  0  0  0
    7.8442   -1.1430   20.5294 C   0  0  0  0  0  0  0  0  0  0  0  0
    8.9984   -1.6265   21.1218 C   0  0  0  0  0  0  0  0  0  0  0  0
    9.9494   -0.7127   21.5668 C   0  0  0  0  0  0  0  0  0  0  0  0
    9.6783    0.6619   21.3862 C   0  0  0  0  0  0  0  0  0  0  0  0
    8.5645    1.1375   20.8147 N   0  0  0  0  0  0  0  0  0  0  0  0
   10.7148    1.4122   21.8788 N   0  0  0  0  0  0  0  0  0  0  0  0
   11.6633    0.5577   22.3806 C   0  0  0  0  0  0  0  0  0  0  0  0
   12.8225    0.9346   22.9470 N   0  0  0  0  0  0  0  0  0  0  0  0
   13.6146   -0.0576   23.3754 C   0  0  0  0  0  0  0  0  0  0  0  0
   13.2895   -1.3946   23.2573 C   0  0  0  0  0  0  0  0  0  0  0  0
   14.3875   -2.6114   23.8459 Cl  0  0  0  0  0  0  0  0  0  0  0  0
   12.0988   -1.7814   22.6755 C   0  0  0  0  0  0  0  0  0  0  0  0
   11.2447   -0.7833   22.2159 C   0  0  0  0  0  0  0  0  0  0  0  0
  2  1  1  0
  2  3  1  0
  3  4  1  0
  3  5  2  0
  2  6  1  0
  6  7  2  0
  7  8  1  0
  8  9  2  0
  9 10  1  0
 10 11  2  0
 10 12  1  0
 12 13  1  0
 13 14  2  0
 14 15  1  0
 15 16  2  0
 16 17  1  0
 16 18  1  0
 18 19  2  0
 11  6  1  0
 19 13  1  0
 19  9  1  0
M  END
