CVD-0003552|dock_bobby27042020.73|mol2|25|dock1
     RDKit          3D

 23 25  0  0  0  0  0  0  0  0999 V2000
   14.3576    5.8008   21.9523 C   0  0  0  0  0  0  0  0  0  0  0  0
   13.3309    4.7070   21.9217 C   0  0  0  0  0  0  0  0  0  0  0  0
   12.2087    4.8828   21.4577 O   0  0  0  0  0  0  0  0  0  0  0  0
   13.7035    3.5368   22.4438 N   0  0  0  0  0  0  0  0  0  0  0  0
   12.8146    2.3852   22.5034 C   0  0  0  0  0  0  0  0  0  0  0  0
   13.4906    1.1811   23.1281 C   0  0  0  0  0  0  0  0  0  0  0  0
   12.5573    0.0233   23.3293 C   0  0  0  0  0  0  0  0  0  0  0  0
   12.4803   -1.1152   22.5903 C   0  0  0  0  0  0  0  0  0  0  0  0
   11.5044   -1.9364   23.0823 N   0  0  0  0  0  0  0  0  0  0  0  0
   10.9098   -1.3392   24.1748 C   0  0  0  0  0  0  0  0  0  0  0  0
    9.8691   -1.7388   25.0403 C   0  0  0  0  0  0  0  0  0  0  0  0
    9.5061   -0.8758   26.0780 C   0  0  0  0  0  0  0  0  0  0  0  0
   10.1514    0.3385   26.2446 C   0  0  0  0  0  0  0  0  0  0  0  0
   11.1680    0.7330   25.3964 C   0  0  0  0  0  0  0  0  0  0  0  0
   11.5606   -0.0982   24.3527 C   0  0  0  0  0  0  0  0  0  0  0  0
    9.1840   -2.9727   24.8973 N   0  0  0  0  0  0  0  0  0  0  0  0
    7.7505   -3.0700   24.5620 C   0  0  0  0  0  0  0  0  0  0  0  0
    7.4896   -4.5710   24.3978 C   0  0  0  0  0  0  0  0  0  0  0  0
    8.8607   -5.1086   24.0476 C   0  0  0  0  0  0  0  0  0  0  0  0
    9.7833   -4.2711   24.9875 C   0  0  0  0  0  0  0  0  0  0  0  0
    9.7718   -4.7836   26.4273 C   0  0  0  0  0  0  0  0  0  0  0  0
   10.3259   -5.9660   26.6419 N   0  0  0  0  0  0  0  0  0  0  0  0
    9.2635   -4.1050   27.3224 O   0  0  0  0  0  0  0  0  0  0  0  0
  1  2  1  0
  2  3  2  0
  2  4  1  0
  4  5  1  0
  5  6  1  0
  6  7  1  0
  7  8  2  0
  8  9  1  0
  9 10  1  0
 10 11  2  0
 11 12  1  0
 12 13  2  0
 13 14  1  0
 14 15  2  0
 11 16  1  0
 16 17  1  0
 17 18  1  0
 18 19  1  0
 19 20  1  0
 20 21  1  0
 21 22  1  0
 21 23  2  0
 15  7  1  0
 20 16  1  0
 15 10  1  0
M  END
