CVD-0002251|dock_bobby27042020.92|mol2|14|dock1
     RDKit          3D

 43 48  0  0  0  0  0  0  0  0999 V2000
   10.4284    4.8818   24.0476 F   0  0  0  0  0  0  0  0  0  0  0  0
   11.6352    5.0309   23.4597 C   0  0  0  0  0  0  0  0  0  0  0  0
   12.1936    6.2866   23.5019 C   0  0  0  0  0  0  0  0  0  0  0  0
   13.3887    6.5054   22.8408 C   0  0  0  0  0  0  0  0  0  0  0  0
   13.9931    5.4767   22.1532 C   0  0  0  0  0  0  0  0  0  0  0  0
   13.4286    4.2122   22.1460 C   0  0  0  0  0  0  0  0  0  0  0  0
   12.2437    3.9502   22.8360 C   0  0  0  0  0  0  0  0  0  0  0  0
   11.7519    2.5516   22.8188 C   0  0  0  0  0  0  0  0  0  0  0  0
   12.5299    1.4204   22.9759 C   0  0  0  0  0  0  0  0  0  0  0  0
   11.7242    0.2703   22.8957 C   0  0  0  0  0  0  0  0  0  0  0  0
   12.2179   -1.1474   23.0164 C   0  0  0  0  0  0  0  0  0  0  0  0
   11.2866   -2.0364   23.6846 N   0  0  0  0  0  0  0  0  0  0  0  0
   10.4884   -1.6740   24.7495 C   0  0  0  0  0  0  0  0  0  0  0  0
   10.9272   -0.6886   25.6332 C   0  0  0  0  0  0  0  0  0  0  0  0
   10.1434   -0.3467   26.7198 C   0  0  0  0  0  0  0  0  0  0  0  0
    8.9336   -0.9787   26.9266 C   0  0  0  0  0  0  0  0  0  0  0  0
    8.4681   -1.9677   26.0607 C   0  0  0  0  0  0  0  0  0  0  0  0
    7.1416   -2.6466   26.2914 C   0  0  0  0  0  0  0  0  0  0  0  0
    6.4986   -2.9679   24.9840 C   0  0  0  0  0  0  0  0  0  0  0  0
    7.3771   -3.8298   24.1555 N   0  0  0  0  0  0  0  0  0  0  0  0
    8.7918   -3.4347   24.0167 C   0  0  0  0  0  0  0  0  0  0  0  0
    9.2547   -2.3177   24.9615 C   0  0  0  0  0  0  0  0  0  0  0  0
    6.9386   -4.9723   23.5791 C   0  0  0  0  0  0  0  0  0  0  0  0
    5.7807   -5.3509   23.7048 O   0  0  0  0  0  0  0  0  0  0  0  0
    7.9248   -5.7933   22.7683 C   0  0  0  0  0  0  0  0  0  0  0  0
    7.1046   -7.0009   21.7697 Cl  0  0  0  0  0  0  0  0  0  0  0  0
    7.2630   -3.9179   27.1201 C   0  0  0  0  0  0  0  0  0  0  0  0
    8.4741   -4.5886   27.2180 C   0  0  0  0  0  0  0  0  0  0  0  0
    8.5832   -5.7465   27.9697 C   0  0  0  0  0  0  0  0  0  0  0  0
    7.4833   -6.2483   28.6319 C   0  0  0  0  0  0  0  0  0  0  0  0
    6.2738   -5.5932   28.5427 C   0  0  0  0  0  0  0  0  0  0  0  0
    6.1637   -4.4352   27.7912 C   0  0  0  0  0  0  0  0  0  0  0  0
   10.4196    0.7012   22.7029 C   0  0  0  0  0  0  0  0  0  0  0  0
   10.4167    2.0899   22.6590 N   0  0  0  0  0  0  0  0  0  0  0  0
    8.9441    2.9090   22.4620 S   0  0  0  0  0  0  0  0  0  0  0  0
    8.1119    2.1174   21.6107 O   0  0  0  0  0  0  0  0  0  0  0  0
    9.3060    4.2300   22.0513 O   0  0  0  0  0  0  0  0  0  0  0  0
    8.2302    3.0327   24.0660 C   0  0  0  0  0  0  0  0  0  0  0  0
    7.7787    4.2530   24.5388 C   0  0  0  0  0  0  0  0  0  0  0  0
    7.2278    4.3060   25.8075 C   0  0  0  0  0  0  0  0  0  0  0  0
    7.1524    3.1467   26.5460 C   0  0  0  0  0  0  0  0  0  0  0  0
    7.5847    1.9649   26.1039 N   0  0  0  0  0  0  0  0  0  0  0  0
    8.1155    1.9206   24.8785 C   0  0  0  0  0  0  0  0  0  0  0  0
  1  2  1  0
  2  3  2  0
  3  4  1  0
  4  5  2  0
  5  6  1  0
  6  7  2  0
  7  8  1  0
  8  9  2  0
  9 10  1  0
 10 11  1  0
 11 12  1  0
 12 13  1  0
 13 14  2  0
 14 15  1  0
 15 16  2  0
 16 17  1  0
 17 18  1  0
 18 19  1  0
 19 20  1  0
 20 21  1  0
 21 22  1  0
 20 23  1  0
 23 24  2  0
 23 25  1  0
 25 26  1  0
 18 27  1  0
 27 28  2  0
 28 29  1  0
 29 30  2  0
 30 31  1  0
 31 32  2  0
 10 33  2  0
 33 34  1  0
 34 35  1  0
 35 36  2  0
 35 37  2  0
 35 38  1  0
 38 39  2  0
 39 40  1  0
 40 41  2  0
 41 42  1  0
 42 43  2  0
  7  2  1  0
 34  8  1  0
 43 38  1  0
 22 13  1  0
 32 27  1  0
 22 17  2  0
M  END
