CVD-0000887|dock_bobby27042020.83|mol2|5|dock2
     RDKit          3D

 28 31  0  0  0  0  0  0  0  0999 V2000
    2.7180    4.0800   20.9281 N   0  0  0  0  0  0  0  0  0  0  0  0
    2.2397    2.5809   20.5870 S   0  0  0  0  0  0  0  0  0  0  0  0
    1.7579    2.0043   21.8072 O   0  0  0  0  0  0  0  0  0  0  0  0
    1.3453    2.6675   19.4707 O   0  0  0  0  0  0  0  0  0  0  0  0
    3.6409    1.5998   20.0610 C   0  0  0  0  0  0  0  0  0  0  0  0
    4.2567    2.1745   18.7895 C   0  0  0  0  0  0  0  0  0  0  0  0
    5.3251    1.2325   18.2758 C   0  0  0  0  0  0  0  0  0  0  0  0
    6.2648    0.7401   19.3487 C   0  0  0  0  0  0  0  0  0  0  0  0
    7.4448    0.0963   18.9834 C   0  0  0  0  0  0  0  0  0  0  0  0
    8.2913   -0.4461   19.9335 C   0  0  0  0  0  0  0  0  0  0  0  0
    7.9797   -0.3592   21.2820 C   0  0  0  0  0  0  0  0  0  0  0  0
    6.8031    0.2832   21.6390 C   0  0  0  0  0  0  0  0  0  0  0  0
    5.9393    0.8349   20.6971 C   0  0  0  0  0  0  0  0  0  0  0  0
    4.6996    1.5627   21.1424 C   0  0  0  0  0  0  0  0  0  0  0  0
    8.9160   -0.9282   22.3408 C   0  0  0  0  0  0  0  0  0  0  0  0
    9.0012   -2.4101   22.1816 C   0  0  0  0  0  0  0  0  0  0  0  0
    9.8803   -3.0088   23.2161 N   0  0  0  0  0  0  0  0  0  0  0  0
   11.2005   -2.3861   23.4348 C   0  0  0  0  0  0  0  0  0  0  0  0
   11.3868   -1.0075   22.7949 C   0  0  0  0  0  0  0  0  0  0  0  0
   12.6526   -0.4319   22.7527 C   0  0  0  0  0  0  0  0  0  0  0  0
   12.8535    0.8114   22.1818 C   0  0  0  0  0  0  0  0  0  0  0  0
   11.7842    1.4931   21.6453 C   0  0  0  0  0  0  0  0  0  0  0  0
   10.5226    0.9263   21.6839 C   0  0  0  0  0  0  0  0  0  0  0  0
   10.2967   -0.3275   22.2552 C   0  0  0  0  0  0  0  0  0  0  0  0
    9.5383   -4.1191   23.9099 C   0  0  0  0  0  0  0  0  0  0  0  0
    8.4794   -4.7009   23.7095 O   0  0  0  0  0  0  0  0  0  0  0  0
   10.5094   -4.6445   24.9515 C   0  0  0  0  0  0  0  0  0  0  0  0
    9.9770   -6.2021   25.5987 Cl  0  0  0  0  0  0  0  0  0  0  0  0
  1  2  1  0
  2  3  2  0
  2  4  2  0
  2  5  1  0
  5  6  1  0
  6  7  1  0
  7  8  1  0
  8  9  2  0
  9 10  1  0
 10 11  2  0
 11 12  1  0
 12 13  2  0
 13 14  1  0
 11 15  1  0
 15 16  1  0
 16 17  1  0
 17 18  1  0
 18 19  1  0
 19 20  2  0
 20 21  1  0
 21 22  2  0
 22 23  1  0
 23 24  2  0
 17 25  1  0
 25 26  2  0
 25 27  1  0
 27 28  1  0
 14  5  1  0
 24 15  1  0
 13  8  1  0
 24 19  1  0
M  END
