CVD-0003016|dock_bobby27042020.89|mol2|20|dock1
     RDKit          3D

 22 24  0  0  0  0  0  0  0  0999 V2000
   13.5083    5.0898   22.7616 C   0  0  0  0  0  0  0  0  0  0  0  0
   13.5199    3.7379   23.2147 O   0  0  0  0  0  0  0  0  0  0  0  0
   12.5346    2.8979   22.7737 C   0  0  0  0  0  0  0  0  0  0  0  0
   11.2417    3.2727   22.4307 C   0  0  0  0  0  0  0  0  0  0  0  0
   10.3415    2.3160   21.9979 C   0  0  0  0  0  0  0  0  0  0  0  0
   10.7068    0.9807   21.9001 C   0  0  0  0  0  0  0  0  0  0  0  0
   11.9988    0.6088   22.2420 C   0  0  0  0  0  0  0  0  0  0  0  0
   12.9127    1.5547   22.6771 C   0  0  0  0  0  0  0  0  0  0  0  0
   14.1712    1.1634   23.0064 O   0  0  0  0  0  0  0  0  0  0  0  0
    9.7206   -0.0556   21.4242 C   0  0  0  0  0  0  0  0  0  0  0  0
    9.0030   -0.7580   22.5515 C   0  0  0  0  0  0  0  0  0  0  0  0
    7.9444   -1.6867   22.0386 C   0  0  0  0  0  0  0  0  0  0  0  0
    7.5682   -2.6481   22.6813 O   0  0  0  0  0  0  0  0  0  0  0  0
    7.3563   -1.3457   20.7592 C   0  0  0  0  0  0  0  0  0  0  0  0
    6.3130   -2.1079   20.1747 C   0  0  0  0  0  0  0  0  0  0  0  0
    5.8330   -3.2619   20.7142 O   0  0  0  0  0  0  0  0  0  0  0  0
    5.7314   -1.7006   18.9833 C   0  0  0  0  0  0  0  0  0  0  0  0
    6.1621   -0.5448   18.3498 C   0  0  0  0  0  0  0  0  0  0  0  0
    5.5742   -0.1534   17.1825 O   0  0  0  0  0  0  0  0  0  0  0  0
    7.1793    0.2205   18.8968 C   0  0  0  0  0  0  0  0  0  0  0  0
    7.7623   -0.1823   20.0852 C   0  0  0  0  0  0  0  0  0  0  0  0
    8.7691    0.6087   20.5667 O   0  0  0  0  0  0  0  0  0  0  0  0
  1  2  1  0
  2  3  1  0
  3  4  2  0
  4  5  1  0
  5  6  2  0
  6  7  1  0
  7  8  2  0
  8  9  1  0
  6 10  1  0
 10 11  1  0
 11 12  1  0
 12 13  2  0
 12 14  1  0
 14 15  2  0
 15 16  1  0
 15 17  1  0
 17 18  2  0
 18 19  1  0
 18 20  1  0
 20 21  2  0
 21 22  1  0
  8  3  1  0
 22 10  1  0
 21 14  1  0
M  END
