CVD-0001157|dock_bobby27042020.96|mol2|15|dock3
     RDKit          3D

 21 21  0  0  0  0  0  0  0  0999 V2000
    6.2685   -0.6373   20.8214 C   0  0  0  0  0  0  0  0  0  0  0  0
    7.3911    0.1215   20.1896 C   0  0  0  0  0  0  0  0  0  0  0  0
    7.1632    0.3712   18.7318 C   0  0  0  0  0  0  0  0  0  0  0  0
    8.5979   -0.7044   20.3425 O   0  0  0  0  0  0  0  0  0  0  0  0
    9.1680   -0.8039   21.5615 C   0  0  0  0  0  0  0  0  0  0  0  0
    8.7255   -0.3213   22.5823 O   0  0  0  0  0  0  0  0  0  0  0  0
   10.2969   -1.5200   21.4916 N   0  0  0  0  0  0  0  0  0  0  0  0
   11.1106   -1.7863   22.6708 C   0  0  0  0  0  0  0  0  0  0  0  0
   12.3642   -0.9413   22.7234 C   0  0  0  0  0  0  0  0  0  0  0  0
   13.2694   -1.3791   23.8513 C   0  0  0  0  0  0  0  0  0  0  0  0
   11.9217    0.4406   22.9458 O   0  0  0  0  0  0  0  0  0  0  0  0
   12.8453    1.4223   22.8823 C   0  0  0  0  0  0  0  0  0  0  0  0
   14.0426    1.2343   22.8585 O   0  0  0  0  0  0  0  0  0  0  0  0
   12.1835    2.6082   22.8469 N   0  0  0  0  0  0  0  0  0  0  0  0
   12.6852    3.9315   22.7739 C   0  0  0  0  0  0  0  0  0  0  0  0
   13.9067    4.2541   22.1874 C   0  0  0  0  0  0  0  0  0  0  0  0
   14.3424    5.5670   22.1468 C   0  0  0  0  0  0  0  0  0  0  0  0
   13.5583    6.5584   22.6922 C   0  0  0  0  0  0  0  0  0  0  0  0
   14.1082    8.2099   22.6403 Cl  0  0  0  0  0  0  0  0  0  0  0  0
   12.3473    6.2671   23.2779 C   0  0  0  0  0  0  0  0  0  0  0  0
   11.9150    4.9537   23.3165 C   0  0  0  0  0  0  0  0  0  0  0  0
  1  2  1  0
  2  3  1  0
  2  4  1  0
  4  5  1  0
  5  6  2  0
  5  7  1  0
  7  8  1  0
  8  9  1  0
  9 10  1  0
  9 11  1  0
 11 12  1  0
 12 13  2  0
 12 14  1  0
 14 15  1  0
 15 16  2  0
 16 17  1  0
 17 18  2  0
 18 19  1  0
 18 20  1  0
 20 21  2  0
 21 15  1  0
M  END
