CVD-0003756|dock_bobby27042020.58|mol2|39|dock1
     RDKit          3D

 24 26  0  0  0  0  0  0  0  0999 V2000
    7.5423    0.1128   19.0823 O   0  0  0  0  0  0  0  0  0  0  0  0
    8.2869    0.1204   20.1567 C   0  0  0  0  0  0  0  0  0  0  0  0
    8.9710    1.0715   20.4867 O   0  0  0  0  0  0  0  0  0  0  0  0
    8.2561   -1.1170   20.9727 C   0  0  0  0  0  0  0  0  0  0  0  0
    7.0653   -1.8050   21.1032 N   0  0  0  0  0  0  0  0  0  0  0  0
    7.3648   -2.8399   21.8752 C   0  0  0  0  0  0  0  0  0  0  0  0
    6.2406   -4.0362   22.3627 Cl  0  0  0  0  0  0  0  0  0  0  0  0
    8.6529   -2.8435   22.2322 N   0  0  0  0  0  0  0  0  0  0  0  0
    9.2536   -1.7523   21.6706 C   0  0  0  0  0  0  0  0  0  0  0  0
   10.7065   -1.4567   21.8737 C   0  0  0  0  0  0  0  0  0  0  0  0
   11.0814   -1.2361   23.3373 C   0  0  0  0  0  0  0  0  0  0  0  0
   12.3868   -0.4645   23.5822 C   0  0  0  0  0  0  0  0  0  0  0  0
   13.4308   -1.1718   22.7218 C   0  0  0  0  0  0  0  0  0  0  0  0
   13.7212   -2.5622   23.2507 C   0  0  0  0  0  0  0  0  0  0  0  0
   14.1678   -2.5211   24.7041 C   0  0  0  0  0  0  0  0  0  0  0  0
   13.1396   -1.8084   25.5676 C   0  0  0  0  0  0  0  0  0  0  0  0
   12.8327   -0.4138   25.0367 C   0  0  0  0  0  0  0  0  0  0  0  0
   12.3171    0.9137   23.0830 C   0  0  0  0  0  0  0  0  0  0  0  0
   12.2000    2.0210   22.6646 C   0  0  0  0  0  0  0  0  0  0  0  0
   11.9869    3.3611   22.1559 C   0  0  0  0  0  0  0  0  0  0  0  0
   13.3006    4.0215   21.9851 C   0  0  0  0  0  0  0  0  0  0  0  0
   13.3874    5.0837   22.9298 C   0  0  0  0  0  0  0  0  0  0  0  0
   12.1945    5.1665   23.6477 C   0  0  0  0  0  0  0  0  0  0  0  0
   11.2951    4.1606   23.1922 C   0  0  0  0  0  0  0  0  0  0  0  0
  1  2  1  0
  2  3  2  0
  2  4  1  0
  4  5  1  0
  5  6  2  0
  6  7  1  0
  6  8  1  0
  8  9  1  0
  9 10  1  0
 10 11  1  0
 11 12  1  0
 12 13  1  0
 13 14  1  0
 14 15  1  0
 15 16  1  0
 16 17  1  0
 12 18  1  0
 18 19  3  0
 19 20  1  0
 20 21  1  0
 21 22  1  0
 22 23  1  0
 23 24  1  0
  9  4  2  0
 17 12  1  0
 24 20  1  0
M  END
