CVD-0001886|dock_bobby27042020.22|mol2|26|dock2
     RDKit          3D

 32 34  0  0  0  0  0  0  0  0999 V2000
   14.2438   -2.5139   25.5030 C   0  0  0  0  0  0  0  0  0  0  0  0
   13.0638   -1.8049   25.1439 O   0  0  0  0  0  0  0  0  0  0  0  0
   12.9715   -1.5405   23.7570 C   0  0  0  0  0  0  0  0  0  0  0  0
   13.5538   -0.1532   23.5792 C   0  0  0  0  0  0  0  0  0  0  0  0
   11.5402   -1.6223   23.2817 C   0  0  0  0  0  0  0  0  0  0  0  0
   10.4847   -1.4343   24.1614 C   0  0  0  0  0  0  0  0  0  0  0  0
    9.1723   -1.5060   23.7293 C   0  0  0  0  0  0  0  0  0  0  0  0
    8.8790   -1.7742   22.3971 C   0  0  0  0  0  0  0  0  0  0  0  0
    9.9346   -1.9576   21.5128 C   0  0  0  0  0  0  0  0  0  0  0  0
   11.2445   -1.8823   21.9519 C   0  0  0  0  0  0  0  0  0  0  0  0
    7.5328   -1.8613   21.9106 N   0  0  0  0  0  0  0  0  0  0  0  0
    6.6425   -0.6709   21.8618 C   0  0  0  0  0  0  0  0  0  0  0  0
    7.3285    0.4927   22.6031 C   0  0  0  0  0  0  0  0  0  0  0  0
    6.8432    0.9398   23.6381 O   0  0  0  0  0  0  0  0  0  0  0  0
    8.4619    0.9203   21.9939 N   0  0  0  0  0  0  0  0  0  0  0  0
    9.3751    1.9468   22.3406 C   0  0  0  0  0  0  0  0  0  0  0  0
   10.7307    1.7109   22.1419 C   0  0  0  0  0  0  0  0  0  0  0  0
   11.6738    2.6716   22.4596 C   0  0  0  0  0  0  0  0  0  0  0  0
   11.2568    3.8759   22.9794 C   0  0  0  0  0  0  0  0  0  0  0  0
   12.4390    5.0896   23.3816 Cl  0  0  0  0  0  0  0  0  0  0  0  0
    9.9212    4.1376   23.1871 C   0  0  0  0  0  0  0  0  0  0  0  0
    8.9804    3.1740   22.8681 C   0  0  0  0  0  0  0  0  0  0  0  0
    6.2373   -0.2061   20.4706 C   0  0  0  0  0  0  0  0  0  0  0  0
    5.1638    0.6477   20.2704 C   0  0  0  0  0  0  0  0  0  0  0  0
    4.8334    1.0469   18.9870 C   0  0  0  0  0  0  0  0  0  0  0  0
    5.5917    0.5773   17.9382 C   0  0  0  0  0  0  0  0  0  0  0  0
    6.6309   -0.2440   18.0971 N   0  0  0  0  0  0  0  0  0  0  0  0
    6.9320   -0.6163   19.3447 C   0  0  0  0  0  0  0  0  0  0  0  0
    6.9127   -3.0527   21.5595 C   0  0  0  0  0  0  0  0  0  0  0  0
    5.7206   -3.0467   21.2542 O   0  0  0  0  0  0  0  0  0  0  0  0
    7.6006   -4.3818   21.5239 C   0  0  0  0  0  0  0  0  0  0  0  0
    7.0546   -5.5123   21.1513 C   0  0  0  0  0  0  0  0  0  0  0  0
  1  2  1  0
  2  3  1  0
  3  4  1  0
  3  5  1  0
  5  6  2  0
  6  7  1  0
  7  8  2  0
  8  9  1  0
  9 10  2  0
  8 11  1  0
 11 12  1  0
 12 13  1  0
 13 14  2  0
 13 15  1  0
 15 16  1  0
 16 17  2  0
 17 18  1  0
 18 19  2  0
 19 20  1  0
 19 21  1  0
 21 22  2  0
 12 23  1  0
 23 24  2  0
 24 25  1  0
 25 26  2  0
 26 27  1  0
 27 28  2  0
 11 29  1  0
 29 30  2  0
 29 31  1  0
 31 32  2  0
 10  5  1  0
 22 16  1  0
 28 23  1  0
M  END
