CVD-0001968|dock_bobby27042020.22|mol2|11|dock1
     RDKit          3D

 21 23  0  0  0  0  0  0  0  0999 V2000
   13.8527    6.0151   21.9884 C   0  0  0  0  0  0  0  0  0  0  0  0
   12.9185    4.8930   21.8663 N   0  0  0  0  0  0  0  0  0  0  0  0
   13.0155    3.9022   22.9436 C   0  0  0  0  0  0  0  0  0  0  0  0
   12.1554    2.6964   22.6703 C   0  0  0  0  0  0  0  0  0  0  0  0
   10.8068    2.7183   22.2787 C   0  0  0  0  0  0  0  0  0  0  0  0
   10.3658    1.4178   22.1266 C   0  0  0  0  0  0  0  0  0  0  0  0
    8.9962    1.0124   21.7255 C   0  0  0  0  0  0  0  0  0  0  0  0
    7.9605    1.8647   22.1136 C   0  0  0  0  0  0  0  0  0  0  0  0
    6.6382    1.5512   21.8487 C   0  0  0  0  0  0  0  0  0  0  0  0
    6.3184    0.3868   21.1878 C   0  0  0  0  0  0  0  0  0  0  0  0
    7.3231   -0.4585   20.7533 C   0  0  0  0  0  0  0  0  0  0  0  0
    8.6320   -0.1155   20.9985 C   0  0  0  0  0  0  0  0  0  0  0  0
    9.5696   -0.9331   20.4713 F   0  0  0  0  0  0  0  0  0  0  0  0
   11.4273    0.5779   22.4317 N   0  0  0  0  0  0  0  0  0  0  0  0
   11.5235   -0.8774   22.4908 C   0  0  0  0  0  0  0  0  0  0  0  0
   12.5810   -1.3737   23.4447 C   0  0  0  0  0  0  0  0  0  0  0  0
   12.6355   -1.0627   24.8256 C   0  0  0  0  0  0  0  0  0  0  0  0
   13.6863   -1.6190   25.4902 C   0  0  0  0  0  0  0  0  0  0  0  0
   14.6242   -2.5366   24.4120 S   0  0  0  0  0  0  0  0  0  0  0  0
   13.6216   -2.1763   23.0870 C   0  0  0  0  0  0  0  0  0  0  0  0
   12.4986    1.3562   22.7621 C   0  0  0  0  0  0  0  0  0  0  0  0
  1  2  1  0
  2  3  1  0
  3  4  1  0
  4  5  1  0
  5  6  2  0
  6  7  1  0
  7  8  2  0
  8  9  1  0
  9 10  2  0
 10 11  1  0
 11 12  2  0
 12 13  1  0
  6 14  1  0
 14 15  1  0
 15 16  1  0
 16 17  1  0
 17 18  2  0
 18 19  1  0
 19 20  1  0
 14 21  1  0
 21  4  2  0
 12  7  1  0
 20 16  2  0
M  END
