CVD-0001133|dock_bobby27042020.96|mol2|19|dock1
     RDKit          3D

 22 23  0  0  0  0  0  0  0  0999 V2000
    6.2916   -1.3952   19.0601 N   0  0  0  0  0  0  0  0  0  0  0  0
    7.4661   -1.2079   19.4634 C   0  0  0  0  0  0  0  0  0  0  0  0
    8.5072   -1.1912   18.6600 N   0  0  0  0  0  0  0  0  0  0  0  0
    7.7818   -1.0011   20.9069 C   0  0  0  0  0  0  0  0  0  0  0  0
    9.1976   -0.5099   21.1841 C   0  0  0  0  0  0  0  0  0  0  0  0
    9.6234   -0.5519   22.6462 C   0  0  0  0  0  0  0  0  0  0  0  0
   10.9201    0.1044   22.9140 N   0  0  0  0  0  0  0  0  0  0  0  0
   10.9690    1.5095   22.8907 C   0  0  0  0  0  0  0  0  0  0  0  0
    9.9212    2.1364   22.8199 O   0  0  0  0  0  0  0  0  0  0  0  0
   12.1809    2.1647   22.9414 N   0  0  0  0  0  0  0  0  0  0  0  0
   12.4738    3.5544   22.9253 C   0  0  0  0  0  0  0  0  0  0  0  0
   11.5598    4.5821   23.1497 C   0  0  0  0  0  0  0  0  0  0  0  0
   11.9905    5.8970   23.1057 C   0  0  0  0  0  0  0  0  0  0  0  0
   13.3144    6.1554   22.8378 C   0  0  0  0  0  0  0  0  0  0  0  0
   14.2125    5.1966   22.6160 N   0  0  0  0  0  0  0  0  0  0  0  0
   13.7864    3.9313   22.6623 C   0  0  0  0  0  0  0  0  0  0  0  0
   12.0477   -0.7598   23.1855 C   0  0  0  0  0  0  0  0  0  0  0  0
   12.7487   -0.6510   24.3820 C   0  0  0  0  0  0  0  0  0  0  0  0
   13.8540   -1.4440   24.6410 C   0  0  0  0  0  0  0  0  0  0  0  0
   14.2770   -2.3721   23.7178 C   0  0  0  0  0  0  0  0  0  0  0  0
   13.5802   -2.5166   22.5401 C   0  0  0  0  0  0  0  0  0  0  0  0
   12.4690   -1.7321   22.2794 C   0  0  0  0  0  0  0  0  0  0  0  0
  1  2  1  0
  2  3  2  0
  2  4  1  0
  4  5  1  0
  5  6  1  0
  6  7  1  0
  7  8  1  0
  8  9  2  0
  8 10  1  0
 10 11  1  0
 11 12  2  0
 12 13  1  0
 13 14  2  0
 14 15  1  0
 15 16  2  0
  7 17  1  0
 17 18  2  0
 18 19  1  0
 19 20  2  0
 20 21  1  0
 21 22  2  0
 16 11  1  0
 22 17  1  0
M  END
