CVD-0000515|dock_bobby27042020.84|mol2|7|dock3
     RDKit          3D

 19 20  0  0  0  0  0  0  0  0999 V2000
    5.8483   -2.1933   18.7161 O   0  0  0  0  0  0  0  0  0  0  0  0
    6.2815   -1.0727   17.9646 C   0  0  0  0  0  0  0  0  0  0  0  0
    5.9727    0.2317   18.6601 C   0  0  0  0  0  0  0  0  0  0  0  0
    4.9842    1.0476   18.1204 C   0  0  0  0  0  0  0  0  0  0  0  0
    4.6824    2.2408   18.7386 C   0  0  0  0  0  0  0  0  0  0  0  0
    5.2924    2.6653   19.8420 N   0  0  0  0  0  0  0  0  0  0  0  0
    6.2431    1.8861   20.3672 C   0  0  0  0  0  0  0  0  0  0  0  0
    6.6306    0.6599   19.8277 C   0  0  0  0  0  0  0  0  0  0  0  0
    7.6416   -0.1712   20.3859 N   0  0  0  0  0  0  0  0  0  0  0  0
    8.6917    0.1356   21.1878 C   0  0  0  0  0  0  0  0  0  0  0  0
    8.9831    1.2522   21.6065 O   0  0  0  0  0  0  0  0  0  0  0  0
    9.5526   -1.0614   21.5748 C   0  0  0  0  0  0  0  0  0  0  0  0
    8.8828   -1.8015   22.5803 O   0  0  0  0  0  0  0  0  0  0  0  0
   10.9395   -0.6335   22.0758 C   0  0  0  0  0  0  0  0  0  0  0  0
   10.9590   -0.1583   23.5286 C   0  0  0  0  0  0  0  0  0  0  0  0
   12.3642    0.2646   23.9564 C   0  0  0  0  0  0  0  0  0  0  0  0
   13.3638   -0.8560   23.7467 C   0  0  0  0  0  0  0  0  0  0  0  0
   13.3511   -1.3510   22.3149 C   0  0  0  0  0  0  0  0  0  0  0  0
   11.9499   -1.7659   21.8780 C   0  0  0  0  0  0  0  0  0  0  0  0
  1  2  1  0
  2  3  1  0
  3  4  2  0
  4  5  1  0
  5  6  2  0
  6  7  1  0
  7  8  2  0
  8  9  1  0
  9 10  1  0
 10 11  2  0
 10 12  1  0
 12 13  1  0
 12 14  1  0
 14 15  1  0
 15 16  1  0
 16 17  1  0
 17 18  1  0
 18 19  1  0
  8  3  1  0
 19 14  1  0
M  END
