CVD-0001070|dock_bobby27042020.25|mol2|13|dock3
     RDKit          3D

 20 22  0  0  0  0  0  0  0  0999 V2000
    5.8885   -3.4733   20.4695 O   0  0  0  0  0  0  0  0  0  0  0  0
    6.5437   -2.4257   20.4919 C   0  0  0  0  0  0  0  0  0  0  0  0
    7.6665   -2.2709   21.4321 C   0  0  0  0  0  0  0  0  0  0  0  0
    8.6680   -1.4347   21.1780 C   0  0  0  0  0  0  0  0  0  0  0  0
    9.8316   -1.1999   22.0360 C   0  0  0  0  0  0  0  0  0  0  0  0
   10.3794    0.0718   22.1773 C   0  0  0  0  0  0  0  0  0  0  0  0
   11.4200    0.3361   22.9323 N   0  0  0  0  0  0  0  0  0  0  0  0
   11.9684   -0.7248   23.6015 C   0  0  0  0  0  0  0  0  0  0  0  0
   13.0919   -0.5320   24.4376 C   0  0  0  0  0  0  0  0  0  0  0  0
   13.6354   -1.5917   25.1026 C   0  0  0  0  0  0  0  0  0  0  0  0
   13.1053   -2.8603   24.9743 C   0  0  0  0  0  0  0  0  0  0  0  0
   12.0219   -3.0925   24.1786 C   0  0  0  0  0  0  0  0  0  0  0  0
   11.4247   -2.0251   23.4697 C   0  0  0  0  0  0  0  0  0  0  0  0
   10.3373   -2.2507   22.6694 N   0  0  0  0  0  0  0  0  0  0  0  0
    6.1780   -1.3233   19.5518 C   0  0  0  0  0  0  0  0  0  0  0  0
    6.0924   -0.0159   20.0146 C   0  0  0  0  0  0  0  0  0  0  0  0
    5.7536    1.0038   19.1429 C   0  0  0  0  0  0  0  0  0  0  0  0
    5.5085    0.6869   17.8267 C   0  0  0  0  0  0  0  0  0  0  0  0
    5.5817   -0.5562   17.3500 N   0  0  0  0  0  0  0  0  0  0  0  0
    5.9103   -1.5297   18.2049 C   0  0  0  0  0  0  0  0  0  0  0  0
  1  2  2  0
  2  3  1  0
  3  4  2  0
  4  5  1  0
  5  6  2  0
  6  7  1  0
  7  8  2  0
  8  9  1  0
  9 10  2  0
 10 11  1  0
 11 12  2  0
 12 13  1  0
 13 14  2  0
  2 15  1  0
 15 16  2  0
 16 17  1  0
 17 18  2  0
 18 19  1  0
 19 20  2  0
 14  5  1  0
 20 15  1  0
 13  8  1  0
M  END
