CVD-0002097|dock_bobby27042020.78|mol2|38|dock1
     RDKit          3D

 21 23  0  0  0  0  0  0  0  0999 V2000
   13.1365    6.3093   23.1478 N   0  0  0  0  0  0  0  0  0  0  0  0
   12.5845    5.1013   23.8012 C   0  0  0  0  0  0  0  0  0  0  0  0
   11.8866    4.1054   22.8795 C   0  0  0  0  0  0  0  0  0  0  0  0
   12.0363    2.8067   23.4596 O   0  0  0  0  0  0  0  0  0  0  0  0
   11.3905    1.8038   22.6613 C   0  0  0  0  0  0  0  0  0  0  0  0
    9.8974    1.9852   22.7072 C   0  0  0  0  0  0  0  0  0  0  0  0
    9.4712    3.4278   22.6300 C   0  0  0  0  0  0  0  0  0  0  0  0
    8.1163    3.7712   22.4959 C   0  0  0  0  0  0  0  0  0  0  0  0
    7.1230    2.8299   22.4856 O   0  0  0  0  0  0  0  0  0  0  0  0
    7.7346    5.1058   22.3742 C   0  0  0  0  0  0  0  0  0  0  0  0
    6.4155    5.4122   22.2707 O   0  0  0  0  0  0  0  0  0  0  0  0
    8.6925    6.1077   22.3846 C   0  0  0  0  0  0  0  0  0  0  0  0
   10.0258    5.7667   22.5169 C   0  0  0  0  0  0  0  0  0  0  0  0
   10.4282    4.4340   22.6401 C   0  0  0  0  0  0  0  0  0  0  0  0
   11.8392    0.4532   23.1942 C   0  0  0  0  0  0  0  0  0  0  0  0
   11.1863   -0.7362   22.4751 C   0  0  0  0  0  0  0  0  0  0  0  0
   11.6687   -2.0792   23.0324 C   0  0  0  0  0  0  0  0  0  0  0  0
   13.1890   -2.1807   23.0057 C   0  0  0  0  0  0  0  0  0  0  0  0
   13.8162   -1.0215   23.7645 C   0  0  0  0  0  0  0  0  0  0  0  0
   13.3683    0.3281   23.1933 C   0  0  0  0  0  0  0  0  0  0  0  0
   13.8857    0.5082   21.8741 O   0  0  0  0  0  0  0  0  0  0  0  0
  1  2  1  0
  2  3  1  0
  3  4  1  0
  4  5  1  0
  5  6  1  0
  6  7  1  0
  7  8  2  0
  8  9  1  0
  8 10  1  0
 10 11  1  0
 10 12  2  0
 12 13  1  0
 13 14  2  0
  5 15  1  0
 15 16  1  0
 16 17  1  0
 17 18  1  0
 18 19  1  0
 19 20  1  0
 20 21  1  0
 14  3  1  0
 20 15  1  0
 14  7  1  0
M  END
