CVD-0002550|dock_bobby27042020.34|mol2|4|dock2
     RDKit          3D

 32 33  0  0  0  0  0  0  0  0999 V2000
   12.2833    4.3481   23.0979 C   0  0  0  0  0  0  0  0  0  0  0  0
   11.0848    3.4476   23.1635 C   0  0  0  0  0  0  0  0  0  0  0  0
    9.9976    3.8497   23.5661 O   0  0  0  0  0  0  0  0  0  0  0  0
   11.2842    2.1828   22.7729 N   0  0  0  0  0  0  0  0  0  0  0  0
   10.2281    1.1807   22.7914 C   0  0  0  0  0  0  0  0  0  0  0  0
   10.7598   -0.2122   22.3965 C   0  0  0  0  0  0  0  0  0  0  0  0
   11.8800   -0.7033   23.2971 C   0  0  0  0  0  0  0  0  0  0  0  0
   12.0911   -0.1765   24.5643 C   0  0  0  0  0  0  0  0  0  0  0  0
   13.1171   -0.6361   25.3708 C   0  0  0  0  0  0  0  0  0  0  0  0
   13.9561   -1.6403   24.9157 C   0  0  0  0  0  0  0  0  0  0  0  0
   14.9696   -2.0981   25.7061 O   0  0  0  0  0  0  0  0  0  0  0  0
   13.7604   -2.1771   23.6535 C   0  0  0  0  0  0  0  0  0  0  0  0
   12.7305   -1.7083   22.8574 C   0  0  0  0  0  0  0  0  0  0  0  0
    9.4577   -1.4424   22.3423 S   0  0  0  0  0  0  0  0  0  0  0  0
   10.0728   -2.7289   22.4999 O   0  0  0  0  0  0  0  0  0  0  0  0
    8.6369   -1.2073   21.1892 O   0  0  0  0  0  0  0  0  0  0  0  0
    8.5437   -1.1845   23.6466 N   0  0  0  0  0  0  0  0  0  0  0  0
    8.6021   -2.1162   24.7792 C   0  0  0  0  0  0  0  0  0  0  0  0
    7.3917   -3.0326   24.7811 C   0  0  0  0  0  0  0  0  0  0  0  0
    7.2916   -3.8705   23.5294 C   0  0  0  0  0  0  0  0  0  0  0  0
    7.7537   -5.1775   23.5114 C   0  0  0  0  0  0  0  0  0  0  0  0
    7.6594   -5.9477   22.3643 C   0  0  0  0  0  0  0  0  0  0  0  0
    7.1003   -5.4201   21.2204 C   0  0  0  0  0  0  0  0  0  0  0  0
    6.6355   -4.1227   21.2244 C   0  0  0  0  0  0  0  0  0  0  0  0
    6.7304   -3.3533   22.3719 C   0  0  0  0  0  0  0  0  0  0  0  0
    9.1173    1.5772   21.8252 C   0  0  0  0  0  0  0  0  0  0  0  0
    9.3333    1.6542   20.6186 O   0  0  0  0  0  0  0  0  0  0  0  0
    7.9255    1.8280   22.3665 N   0  0  0  0  0  0  0  0  0  0  0  0
    6.7805    2.2051   21.5483 C   0  0  0  0  0  0  0  0  0  0  0  0
    6.5138    1.2442   20.4715 C   0  0  0  0  0  0  0  0  0  0  0  0
    6.3570    0.4623   19.5936 C   0  0  0  0  0  0  0  0  0  0  0  0
    6.0638   -0.7405   18.2858 Br  0  0  0  0  0  0  0  0  0  0  0  0
  1  2  1  0
  2  3  2  0
  2  4  1  0
  4  5  1  0
  5  6  1  0
  6  7  1  0
  7  8  2  0
  8  9  1  0
  9 10  2  0
 10 11  1  0
 10 12  1  0
 12 13  2  0
  6 14  1  0
 14 15  2  0
 14 16  2  0
 14 17  1  0
 17 18  1  0
 18 19  1  0
 19 20  1  0
 20 21  2  0
 21 22  1  0
 22 23  2  0
 23 24  1  0
 24 25  2  0
  5 26  1  0
 26 27  2  0
 26 28  1  0
 28 29  1  0
 29 30  1  0
 30 31  3  0
 31 32  1  0
 13  7  1  0
 25 20  1  0
M  END
