CVD-0002247|dock_bobby27042020.49|mol2|27|dock2
     RDKit          3D

 43 48  0  0  0  0  0  0  0  0999 V2000
    6.1982   -4.0316   23.4453 F   0  0  0  0  0  0  0  0  0  0  0  0
    6.1169   -4.6181   22.2291 C   0  0  0  0  0  0  0  0  0  0  0  0
    5.5631   -5.8763   22.2040 C   0  0  0  0  0  0  0  0  0  0  0  0
    5.4698   -6.5394   20.9953 C   0  0  0  0  0  0  0  0  0  0  0  0
    5.9230   -5.9312   19.8477 C   0  0  0  0  0  0  0  0  0  0  0  0
    6.4653   -4.6577   19.8927 C   0  0  0  0  0  0  0  0  0  0  0  0
    6.5824   -3.9570   21.0963 C   0  0  0  0  0  0  0  0  0  0  0  0
    7.1607   -2.5858   21.1400 C   0  0  0  0  0  0  0  0  0  0  0  0
    8.0210   -2.0876   22.1036 C   0  0  0  0  0  0  0  0  0  0  0  0
    8.3525   -0.7513   21.8219 C   0  0  0  0  0  0  0  0  0  0  0  0
    9.2675    0.1129   22.6492 C   0  0  0  0  0  0  0  0  0  0  0  0
    9.8250    1.2009   21.8435 N   0  0  0  0  0  0  0  0  0  0  0  0
   10.6023    2.2058   22.5895 C   0  0  0  0  0  0  0  0  0  0  0  0
    9.6803    3.2575   23.2160 C   0  0  0  0  0  0  0  0  0  0  0  0
   10.4799    4.2089   24.0878 C   0  0  0  0  0  0  0  0  0  0  0  0
    9.6389    5.3670   24.6082 C   0  0  0  0  0  0  0  0  0  0  0  0
    9.4283    5.5354   25.9697 C   0  0  0  0  0  0  0  0  0  0  0  0
    8.6620    6.5876   26.4425 C   0  0  0  0  0  0  0  0  0  0  0  0
    8.0966    7.4835   25.5605 C   0  0  0  0  0  0  0  0  0  0  0  0
    8.2968    7.3279   24.2056 C   0  0  0  0  0  0  0  0  0  0  0  0
    9.0630    6.2761   23.7318 C   0  0  0  0  0  0  0  0  0  0  0  0
   11.6600    4.7894   23.3368 C   0  0  0  0  0  0  0  0  0  0  0  0
   12.2699    5.9621   23.7834 C   0  0  0  0  0  0  0  0  0  0  0  0
   13.3656    6.5034   23.1335 C   0  0  0  0  0  0  0  0  0  0  0  0
   13.8738    5.8779   22.0186 C   0  0  0  0  0  0  0  0  0  0  0  0
   13.2832    4.7141   21.5598 C   0  0  0  0  0  0  0  0  0  0  0  0
   12.1802    4.1549   22.2009 C   0  0  0  0  0  0  0  0  0  0  0  0
   11.5210    2.9299   21.6154 C   0  0  0  0  0  0  0  0  0  0  0  0
   11.3462    1.3899   23.6777 C   0  0  0  0  0  0  0  0  0  0  0  0
   10.8505    1.3101   24.7785 O   0  0  0  0  0  0  0  0  0  0  0  0
   12.6547    0.6689   23.3713 C   0  0  0  0  0  0  0  0  0  0  0  0
   14.0073    1.7903   23.1701 Cl  0  0  0  0  0  0  0  0  0  0  0  0
    7.6910   -0.4118   20.6529 C   0  0  0  0  0  0  0  0  0  0  0  0
    6.9632   -1.5137   20.2212 N   0  0  0  0  0  0  0  0  0  0  0  0
    6.0641   -1.3585   18.7899 S   0  0  0  0  0  0  0  0  0  0  0  0
    5.0793   -2.3927   18.8618 O   0  0  0  0  0  0  0  0  0  0  0  0
    6.9888   -1.3571   17.6987 O   0  0  0  0  0  0  0  0  0  0  0  0
    5.2115    0.1788   18.8718 C   0  0  0  0  0  0  0  0  0  0  0  0
    4.3089    0.4254   19.8920 C   0  0  0  0  0  0  0  0  0  0  0  0
    3.6568    1.6461   19.9151 C   0  0  0  0  0  0  0  0  0  0  0  0
    3.9306    2.5623   18.9247 C   0  0  0  0  0  0  0  0  0  0  0  0
    4.7961    2.3375   17.9351 N   0  0  0  0  0  0  0  0  0  0  0  0
    5.4219    1.1571   17.9185 C   0  0  0  0  0  0  0  0  0  0  0  0
  1  2  1  0
  2  3  2  0
  3  4  1  0
  4  5  2  0
  5  6  1  0
  6  7  2  0
  7  8  1  0
  8  9  2  0
  9 10  1  0
 10 11  1  0
 11 12  1  0
 12 13  1  0
 13 14  1  0
 14 15  1  0
 15 16  1  0
 16 17  2  0
 17 18  1  0
 18 19  2  0
 19 20  1  0
 20 21  2  0
 15 22  1  0
 22 23  2  0
 23 24  1  0
 24 25  2  0
 25 26  1  0
 26 27  2  0
 27 28  1  0
 13 29  1  0
 29 30  2  0
 29 31  1  0
 31 32  1  0
 10 33  2  0
 33 34  1  0
 34 35  1  0
 35 36  2  0
 35 37  2  0
 35 38  1  0
 38 39  2  0
 39 40  1  0
 40 41  2  0
 41 42  1  0
 42 43  2  0
  7  2  1  0
 34  8  1  0
 43 38  1  0
 28 13  1  0
 21 16  1  0
 27 22  1  0
M  END
