CVD-0000771|dock_bobby27042020.26|mol2|17|dock1
     RDKit          3D

 21 23  0  0  0  0  0  0  0  0999 V2000
   13.9469    5.5873   22.0149 C   0  0  0  0  0  0  0  0  0  0  0  0
   12.7843    4.7166   21.5630 C   0  0  0  0  0  0  0  0  0  0  0  0
   12.8327    3.3113   22.1080 C   0  0  0  0  0  0  0  0  0  0  0  0
   13.6498    2.7790   23.0481 C   0  0  0  0  0  0  0  0  0  0  0  0
   13.4682    1.4543   23.3533 N   0  0  0  0  0  0  0  0  0  0  0  0
   12.4967    0.9600   22.6381 C   0  0  0  0  0  0  0  0  0  0  0  0
   11.7463    2.0920   21.5442 S   0  0  0  0  0  0  0  0  0  0  0  0
   12.0333   -0.4887   22.7259 C   0  0  0  0  0  0  0  0  0  0  0  0
   11.9344   -1.2152   21.4200 C   0  0  0  0  0  0  0  0  0  0  0  0
   13.0531   -1.5299   22.3651 C   0  0  0  0  0  0  0  0  0  0  0  0
   11.0888   -0.7379   23.8900 C   0  0  0  0  0  0  0  0  0  0  0  0
   10.1078   -1.8812   23.5533 C   0  0  0  0  0  0  0  0  0  0  0  0
    9.1318   -1.3848   22.5597 N   0  0  0  0  0  0  0  0  0  0  0  0
    8.5373   -2.4328   21.7283 C   0  0  0  0  0  0  0  0  0  0  0  0
    7.8878   -1.9269   20.4560 C   0  0  0  0  0  0  0  0  0  0  0  0
    8.7419   -0.9773   19.7443 N   0  0  0  0  0  0  0  0  0  0  0  0
    8.0640   -0.3920   18.5847 C   0  0  0  0  0  0  0  0  0  0  0  0
    8.8546   -0.0621   22.4508 C   0  0  0  0  0  0  0  0  0  0  0  0
    9.3864    0.8939   23.2189 C   0  0  0  0  0  0  0  0  0  0  0  0
    9.0986    2.2191   23.0485 F   0  0  0  0  0  0  0  0  0  0  0  0
   10.3436    0.5254   24.3259 C   0  0  0  0  0  0  0  0  0  0  0  0
  1  2  1  0
  2  3  1  0
  3  4  2  0
  4  5  1  0
  5  6  2  0
  6  7  1  0
  6  8  1  0
  8  9  1  0
  9 10  1  0
  8 11  1  0
 11 12  1  0
 12 13  1  0
 13 14  1  0
 14 15  1  0
 15 16  1  0
 16 17  1  0
 13 18  1  0
 18 19  2  0
 19 20  1  0
 19 21  1  0
  7  3  1  0
 10  8  1  0
 21 11  1  0
M  END
