CVD-0001230|dock_bobby27042020.53|mol2|22|dock3
     RDKit          3D

 23 24  0  0  0  0  0  0  0  0999 V2000
    8.0090   -1.2226   18.3397 C   0  0  0  0  0  0  0  0  0  0  0  0
    7.5420   -0.1429   19.2820 C   0  0  0  0  0  0  0  0  0  0  0  0
    6.5469    0.7291   18.8507 C   0  0  0  0  0  0  0  0  0  0  0  0
    6.1023    1.7273   19.6882 C   0  0  0  0  0  0  0  0  0  0  0  0
    6.5805    1.9119   20.9153 N   0  0  0  0  0  0  0  0  0  0  0  0
    7.5375    1.0812   21.3405 C   0  0  0  0  0  0  0  0  0  0  0  0
    8.0624    0.0371   20.5782 C   0  0  0  0  0  0  0  0  0  0  0  0
    9.0818   -0.8482   21.0281 N   0  0  0  0  0  0  0  0  0  0  0  0
    9.3589   -1.3083   22.2731 C   0  0  0  0  0  0  0  0  0  0  0  0
    8.7465   -1.0297   23.2983 O   0  0  0  0  0  0  0  0  0  0  0  0
   10.5434   -2.2426   22.3142 C   0  0  0  0  0  0  0  0  0  0  0  0
   11.8634   -1.4986   22.2791 C   0  0  0  0  0  0  0  0  0  0  0  0
   11.9637   -0.5371   23.3649 N   0  0  0  0  0  0  0  0  0  0  0  0
   12.0905    0.8261   23.1771 C   0  0  0  0  0  0  0  0  0  0  0  0
   13.3302    1.4067   22.9308 C   0  0  0  0  0  0  0  0  0  0  0  0
   13.4434    2.7732   22.7454 C   0  0  0  0  0  0  0  0  0  0  0  0
   12.3107    3.5678   22.8036 C   0  0  0  0  0  0  0  0  0  0  0  0
   11.0692    3.0057   23.0485 C   0  0  0  0  0  0  0  0  0  0  0  0
   10.9645    1.6387   23.2333 C   0  0  0  0  0  0  0  0  0  0  0  0
   12.4523    5.3143   22.5735 S   0  0  0  0  0  0  0  0  0  0  0  0
   13.4486    5.5856   21.3500 N   0  0  0  0  0  0  0  0  0  0  0  0
   13.0690    5.8518   23.7490 O   0  0  0  0  0  0  0  0  0  0  0  0
   11.1625    5.8005   22.1851 O   0  0  0  0  0  0  0  0  0  0  0  0
  1  2  1  0
  2  3  2  0
  3  4  1  0
  4  5  2  0
  5  6  1  0
  6  7  2  0
  7  8  1  0
  8  9  1  0
  9 10  2  0
  9 11  1  0
 11 12  1  0
 12 13  1  0
 13 14  1  0
 14 15  2  0
 15 16  1  0
 16 17  2  0
 17 18  1  0
 18 19  2  0
 17 20  1  0
 20 21  1  0
 20 22  2  0
 20 23  2  0
  7  2  1  0
 19 14  1  0
M  END
