CVD-0000924|dock_bobby27042020.54|mol2|21|dock2
     RDKit          3D

 42 45  0  0  0  0  0  0  0  0999 V2000
   13.9718    6.3269   21.9055 C   0  0  0  0  0  0  0  0  0  0  0  0
   13.2946    5.0120   22.2175 C   0  0  0  0  0  0  0  0  0  0  0  0
   13.9476    4.3570   23.2307 N   0  0  0  0  0  0  0  0  0  0  0  0
   11.9155    5.2431   22.5950 N   0  0  0  0  0  0  0  0  0  0  0  0
   11.2538    4.1637   23.3350 C   0  0  0  0  0  0  0  0  0  0  0  0
    9.8025    4.5653   23.6331 C   0  0  0  0  0  0  0  0  0  0  0  0
    8.9146    4.6003   22.4072 C   0  0  0  0  0  0  0  0  0  0  0  0
    8.6819    5.7899   21.8750 N   0  0  0  0  0  0  0  0  0  0  0  0
    8.4424    3.5597   21.9404 O   0  0  0  0  0  0  0  0  0  0  0  0
   11.3222    2.8721   22.5241 C   0  0  0  0  0  0  0  0  0  0  0  0
   11.3907    2.9157   21.2989 O   0  0  0  0  0  0  0  0  0  0  0  0
   11.2937    1.7261   23.2110 N   0  0  0  0  0  0  0  0  0  0  0  0
   11.3434    0.4198   22.5651 C   0  0  0  0  0  0  0  0  0  0  0  0
   10.1321    0.1635   21.6615 C   0  0  0  0  0  0  0  0  0  0  0  0
    8.8794   -0.2559   22.3949 C   0  0  0  0  0  0  0  0  0  0  0  0
    9.1956   -1.5912   23.0352 C   0  0  0  0  0  0  0  0  0  0  0  0
   10.3152   -1.5468   24.0850 C   0  0  0  0  0  0  0  0  0  0  0  0
   11.4863   -0.6870   23.5995 N   0  0  0  0  0  0  0  0  0  0  0  0
   12.7795   -0.7570   23.9879 C   0  0  0  0  0  0  0  0  0  0  0  0
   13.6085    0.0261   23.5420 O   0  0  0  0  0  0  0  0  0  0  0  0
   13.1807   -1.8313   24.9804 C   0  0  0  0  0  0  0  0  0  0  0  0
   14.8808   -1.6799   25.4430 Cl  0  0  0  0  0  0  0  0  0  0  0  0
    7.9858   -2.1888   23.6916 C   0  0  0  0  0  0  0  0  0  0  0  0
    7.6982   -3.4504   23.6230 N   0  0  0  0  0  0  0  0  0  0  0  0
    6.5227   -3.7364   24.3134 C   0  0  0  0  0  0  0  0  0  0  0  0
    5.9017   -4.9769   24.4641 C   0  0  0  0  0  0  0  0  0  0  0  0
    4.7223   -5.1039   25.1896 C   0  0  0  0  0  0  0  0  0  0  0  0
    4.0638   -6.4605   25.3372 C   0  0  0  0  0  0  0  0  0  0  0  0
    4.1326   -7.0279   26.7404 C   0  0  0  0  0  0  0  0  0  0  0  0
    3.0597   -7.7203   27.2795 C   0  0  0  0  0  0  0  0  0  0  0  0
    3.1233   -8.2426   28.5605 C   0  0  0  0  0  0  0  0  0  0  0  0
    4.2658   -8.0802   29.3259 C   0  0  0  0  0  0  0  0  0  0  0  0
    5.3392   -7.3881   28.7898 C   0  0  0  0  0  0  0  0  0  0  0  0
    5.2794   -6.8657   27.5069 C   0  0  0  0  0  0  0  0  0  0  0  0
    6.8109   -7.1736   29.7442 S   0  0  0  0  0  0  0  0  0  0  0  0
    7.9014   -6.4332   28.8356 N   0  0  0  0  0  0  0  0  0  0  0  0
    7.3222   -8.4781   30.0409 O   0  0  0  0  0  0  0  0  0  0  0  0
    6.4934   -6.2922   30.8275 O   0  0  0  0  0  0  0  0  0  0  0  0
    4.1563   -3.9785   25.7689 C   0  0  0  0  0  0  0  0  0  0  0  0
    4.7470   -2.7355   25.6376 C   0  0  0  0  0  0  0  0  0  0  0  0
    5.9277   -2.6193   24.9107 C   0  0  0  0  0  0  0  0  0  0  0  0
    6.8682   -1.1914   24.5937 S   0  0  0  0  0  0  0  0  0  0  0  0
  1  2  1  0
  2  3  1  0
  2  4  1  0
  4  5  1  0
  5  6  1  0
  6  7  1  0
  7  8  1  0
  7  9  2  0
  5 10  1  0
 10 11  2  0
 10 12  1  0
 12 13  1  0
 13 14  1  0
 14 15  1  0
 15 16  1  0
 16 17  1  0
 17 18  1  0
 18 19  1  0
 19 20  2  0
 19 21  1  0
 21 22  1  0
 16 23  1  0
 23 24  2  0
 24 25  1  0
 25 26  2  0
 26 27  1  0
 27 28  1  0
 28 29  1  0
 29 30  2  0
 30 31  1  0
 31 32  2  0
 32 33  1  0
 33 34  2  0
 33 35  1  0
 35 36  1  0
 35 37  2  0
 35 38  2  0
 27 39  2  0
 39 40  1  0
 40 41  2  0
 41 42  1  0
 18 13  1  0
 42 23  1  0
 41 25  1  0
 34 29  1  0
M  END
