CVD-0002470|dock_bobby27042020.91|mol2|20|dock2
     RDKit          3D

 21 23  0  0  0  0  0  0  0  0999 V2000
    4.1353    2.4293   18.5145 C   0  0  0  0  0  0  0  0  0  0  0  0
    5.3183    1.6416   19.0227 C   0  0  0  0  0  0  0  0  0  0  0  0
    5.9070    1.9421   20.2403 C   0  0  0  0  0  0  0  0  0  0  0  0
    6.9940    1.2284   20.7130 C   0  0  0  0  0  0  0  0  0  0  0  0
    7.5148    0.1897   19.9594 C   0  0  0  0  0  0  0  0  0  0  0  0
    8.5942   -0.5461   20.4035 O   0  0  0  0  0  0  0  0  0  0  0  0
    8.6594   -1.0828   21.7079 C   0  0  0  0  0  0  0  0  0  0  0  0
    7.3308   -1.4819   22.0548 O   0  0  0  0  0  0  0  0  0  0  0  0
    7.2346   -1.9378   23.4022 C   0  0  0  0  0  0  0  0  0  0  0  0
    8.0635   -3.1982   23.6052 C   0  0  0  0  0  0  0  0  0  0  0  0
    9.5035   -2.9178   23.1856 C   0  0  0  0  0  0  0  0  0  0  0  0
   10.0774   -1.9975   24.1088 O   0  0  0  0  0  0  0  0  0  0  0  0
    9.5853   -2.2974   21.7886 C   0  0  0  0  0  0  0  0  0  0  0  0
   10.9260   -1.8953   21.5245 O   0  0  0  0  0  0  0  0  0  0  0  0
    7.4748   -4.3840   22.8796 C   0  0  0  0  0  0  0  0  0  0  0  0
    6.7670   -4.3026   21.6456 C   0  0  0  0  0  0  0  0  0  0  0  0
    6.3215   -5.5039   21.1817 C   0  0  0  0  0  0  0  0  0  0  0  0
    6.7670   -6.7422   22.2559 S   0  0  0  0  0  0  0  0  0  0  0  0
    7.5427   -5.6710   23.3241 C   0  0  0  0  0  0  0  0  0  0  0  0
    6.9395   -0.1256   18.7408 C   0  0  0  0  0  0  0  0  0  0  0  0
    5.8531    0.5989   18.2838 C   0  0  0  0  0  0  0  0  0  0  0  0
  1  2  1  0
  2  3  2  0
  3  4  1  0
  4  5  2  0
  5  6  1  0
  6  7  1  0
  7  8  1  0
  8  9  1  0
  9 10  1  0
 10 11  1  0
 11 12  1  0
 11 13  1  0
 13 14  1  0
 10 15  1  0
 15 16  1  0
 16 17  2  0
 17 18  1  0
 18 19  1  0
  5 20  1  0
 20 21  2  0
 21  2  1  0
 13  7  1  0
 19 15  2  0
M  END
