CVD-0001090|dock_bobby27042020.39|mol2|22|dock2
     RDKit          3D

 22 23  0  0  0  0  0  0  0  0999 V2000
   10.1844   -4.2051   24.9648 C   0  0  0  0  0  0  0  0  0  0  0  0
    9.1106   -4.9948   24.3072 C   0  0  0  0  0  0  0  0  0  0  0  0
    8.4277   -4.1455   23.3771 O   0  0  0  0  0  0  0  0  0  0  0  0
    7.6766   -4.6814   22.3608 C   0  0  0  0  0  0  0  0  0  0  0  0
    7.1145   -5.9542   22.4288 C   0  0  0  0  0  0  0  0  0  0  0  0
    6.3620   -6.4630   21.3844 C   0  0  0  0  0  0  0  0  0  0  0  0
    6.1512   -5.7129   20.2514 C   0  0  0  0  0  0  0  0  0  0  0  0
    6.6939   -4.4452   20.1581 C   0  0  0  0  0  0  0  0  0  0  0  0
    7.4645   -3.8930   21.1960 C   0  0  0  0  0  0  0  0  0  0  0  0
    7.9865   -2.5309   20.9746 C   0  0  0  0  0  0  0  0  0  0  0  0
    9.1914   -1.9900   21.1689 C   0  0  0  0  0  0  0  0  0  0  0  0
    9.4572   -0.5712   20.8625 C   0  0  0  0  0  0  0  0  0  0  0  0
    8.7538    0.0046   20.0248 O   0  0  0  0  0  0  0  0  0  0  0  0
   10.5213    0.2345   21.5228 C   0  0  0  0  0  0  0  0  0  0  0  0
   10.2230    1.5594   21.8517 C   0  0  0  0  0  0  0  0  0  0  0  0
   11.0991    2.3812   22.5435 C   0  0  0  0  0  0  0  0  0  0  0  0
   10.7243    3.8039   22.8801 C   0  0  0  0  0  0  0  0  0  0  0  0
   12.3231    1.8600   22.9252 C   0  0  0  0  0  0  0  0  0  0  0  0
   12.6639    0.5688   22.5757 C   0  0  0  0  0  0  0  0  0  0  0  0
   14.3560   -0.0974   23.1102 Br  0  0  0  0  0  0  0  0  0  0  0  0
   11.8137   -0.2565   21.8424 C   0  0  0  0  0  0  0  0  0  0  0  0
   12.2991   -1.4780   21.4745 O   0  0  0  0  0  0  0  0  0  0  0  0
  1  2  1  0
  2  3  1  0
  3  4  1  0
  4  5  2  0
  5  6  1  0
  6  7  2  0
  7  8  1  0
  8  9  2  0
  9 10  1  0
 10 11  2  0
 11 12  1  0
 12 13  2  0
 12 14  1  0
 14 15  2  0
 15 16  1  0
 16 17  1  0
 16 18  2  0
 18 19  1  0
 19 20  1  0
 19 21  2  0
 21 22  1  0
  9  4  1  0
 21 14  1  0
M  END
