CVD-0000746|dock_bobby27042020.83|mol2|26|dock3
     RDKit          3D

 16 17  0  0  0  0  0  0  0  0999 V2000
   14.0456   -1.9438   25.3622 C   0  0  0  0  0  0  0  0  0  0  0  0
   13.0348   -1.2404   24.5170 C   0  0  0  0  0  0  0  0  0  0  0  0
   12.4529   -0.0422   24.4971 C   0  0  0  0  0  0  0  0  0  0  0  0
   11.5698    0.0506   23.4523 N   0  0  0  0  0  0  0  0  0  0  0  0
   11.6437   -1.0901   22.8687 C   0  0  0  0  0  0  0  0  0  0  0  0
   10.8921   -1.5733   21.6611 C   0  0  0  0  0  0  0  0  0  0  0  0
    9.6083   -0.7898   21.4868 C   0  0  0  0  0  0  0  0  0  0  0  0
    9.1288   -0.1643   22.4266 O   0  0  0  0  0  0  0  0  0  0  0  0
    9.0919   -0.8498   20.2355 N   0  0  0  0  0  0  0  0  0  0  0  0
    7.9336   -0.2555   19.6770 C   0  0  0  0  0  0  0  0  0  0  0  0
    6.8446    0.1763   20.4274 C   0  0  0  0  0  0  0  0  0  0  0  0
    5.7606    0.7450   19.7810 C   0  0  0  0  0  0  0  0  0  0  0  0
    5.7932    0.8664   18.4109 C   0  0  0  0  0  0  0  0  0  0  0  0
    6.8219    0.4619   17.6659 N   0  0  0  0  0  0  0  0  0  0  0  0
    7.8633   -0.0856   18.2990 C   0  0  0  0  0  0  0  0  0  0  0  0
   12.5197   -1.9532   23.4571 O   0  0  0  0  0  0  0  0  0  0  0  0
  1  2  1  0
  2  3  2  0
  3  4  1  0
  4  5  2  0
  5  6  1  0
  6  7  1  0
  7  8  2  0
  7  9  1  0
  9 10  1  0
 10 11  2  0
 11 12  1  0
 12 13  2  0
 13 14  1  0
 14 15  2  0
  5 16  1  0
 16  2  1  0
 15 10  1  0
M  END
