CVD-0003619|dock_bobby27042020.16|mol2|6|dock3
     RDKit          3D

 18 19  0  0  0  0  0  0  0  0999 V2000
    9.1790    1.3083   22.4377 C   0  0  0  0  0  0  0  0  0  0  0  0
    9.5521   -0.1353   22.7719 C   0  0  0  0  0  0  0  0  0  0  0  0
   11.0638   -0.3990   22.5609 C   0  0  0  0  0  0  0  0  0  0  0  0
   11.4695   -1.8646   22.7168 C   0  0  0  0  0  0  0  0  0  0  0  0
   12.9678   -2.0548   22.4822 C   0  0  0  0  0  0  0  0  0  0  0  0
   13.7856   -1.1722   23.4049 C   0  0  0  0  0  0  0  0  0  0  0  0
   13.3899    0.2843   23.2755 C   0  0  0  0  0  0  0  0  0  0  0  0
   11.8938    0.4804   23.4990 C   0  0  0  0  0  0  0  0  0  0  0  0
    8.7132   -1.0793   21.9218 C   0  0  0  0  0  0  0  0  0  0  0  0
    8.4543   -0.7971   20.7561 O   0  0  0  0  0  0  0  0  0  0  0  0
    8.3199   -2.2054   22.5697 N   0  0  0  0  0  0  0  0  0  0  0  0
    7.5459   -3.3108   22.1177 C   0  0  0  0  0  0  0  0  0  0  0  0
    6.5809   -3.2333   21.1130 C   0  0  0  0  0  0  0  0  0  0  0  0
    5.8570   -4.2732   20.6870 N   0  0  0  0  0  0  0  0  0  0  0  0
    6.0720   -5.4527   21.2620 C   0  0  0  0  0  0  0  0  0  0  0  0
    6.9974   -5.6429   22.2636 C   0  0  0  0  0  0  0  0  0  0  0  0
    7.7579   -4.5685   22.7153 C   0  0  0  0  0  0  0  0  0  0  0  0
    8.7650   -4.8124   23.8099 C   0  0  0  0  0  0  0  0  0  0  0  0
  1  2  1  0
  2  3  1  0
  3  4  1  0
  4  5  1  0
  5  6  1  0
  6  7  1  0
  7  8  1  0
  2  9  1  0
  9 10  2  0
  9 11  1  0
 11 12  1  0
 12 13  2  0
 13 14  1  0
 14 15  2  0
 15 16  1  0
 16 17  2  0
 17 18  1  0
  8  3  1  0
 17 12  1  0
M  END
