CVD-0001990|dock_bobby27042020.7|mol2|42|dock1
     RDKit          3D

 20 22  0  0  0  0  0  0  0  0999 V2000
   13.1901   -2.2525   21.6421 C   0  0  0  0  0  0  0  0  0  0  0  0
   13.7538   -1.1644   22.5524 C   0  0  0  0  0  0  0  0  0  0  0  0
   13.9407   -1.7045   23.9573 C   0  0  0  0  0  0  0  0  0  0  0  0
   14.6835   -2.7815   24.0031 O   0  0  0  0  0  0  0  0  0  0  0  0
   13.4473   -1.1875   24.9354 O   0  0  0  0  0  0  0  0  0  0  0  0
   12.8364    0.0490   22.6234 C   0  0  0  0  0  0  0  0  0  0  0  0
   11.4593   -0.1042   22.5182 C   0  0  0  0  0  0  0  0  0  0  0  0
   10.6003    0.9791   22.5805 C   0  0  0  0  0  0  0  0  0  0  0  0
   11.1233    2.2593   22.7521 C   0  0  0  0  0  0  0  0  0  0  0  0
   12.5192    2.4085   22.8623 C   0  0  0  0  0  0  0  0  0  0  0  0
   13.3767    1.3158   22.7986 C   0  0  0  0  0  0  0  0  0  0  0  0
   12.8196    3.7469   23.0312 N   0  0  0  0  0  0  0  0  0  0  0  0
   11.6473    4.4794   23.0330 C   0  0  0  0  0  0  0  0  0  0  0  0
   11.4643    5.8500   23.1760 C   0  0  0  0  0  0  0  0  0  0  0  0
   10.1769    6.3527   23.1435 C   0  0  0  0  0  0  0  0  0  0  0  0
    9.1047    5.4932   22.9688 C   0  0  0  0  0  0  0  0  0  0  0  0
    7.5161    6.1864   22.9395 Cl  0  0  0  0  0  0  0  0  0  0  0  0
    9.2504    4.1147   22.8183 C   0  0  0  0  0  0  0  0  0  0  0  0
    8.0700    3.1943   22.6150 C   0  0  0  0  0  0  0  0  0  0  0  0
   10.5562    3.6054   22.8578 C   0  0  0  0  0  0  0  0  0  0  0  0
  2  1  1  0
  2  3  1  0
  3  4  1  0
  3  5  2  0
  2  6  1  0
  6  7  2  0
  7  8  1  0
  8  9  2  0
  9 10  1  0
 10 11  2  0
 10 12  1  0
 12 13  1  0
 13 14  2  0
 14 15  1  0
 15 16  2  0
 16 17  1  0
 16 18  1  0
 18 19  1  0
 18 20  2  0
 11  6  1  0
 20 13  1  0
 20  9  1  0
M  END
