CVD-0001189|dock_bobby27042020.39|mol2|6|dock2
     RDKit          3D

 23 25  0  0  0  0  0  0  0  0999 V2000
    9.7896    4.0855   22.5949 F   0  0  0  0  0  0  0  0  0  0  0  0
   10.9560    3.3896   22.5193 C   0  0  0  0  0  0  0  0  0  0  0  0
   12.0804    4.0536   22.1041 C   0  0  0  0  0  0  0  0  0  0  0  0
   13.2738    3.3578   22.0227 C   0  0  0  0  0  0  0  0  0  0  0  0
   13.2926    2.0101   22.3641 C   0  0  0  0  0  0  0  0  0  0  0  0
   14.3175    1.0958   22.3753 N   0  0  0  0  0  0  0  0  0  0  0  0
   13.8282   -0.1122   22.7916 C   0  0  0  0  0  0  0  0  0  0  0  0
   12.4940   -0.0173   23.0578 C   0  0  0  0  0  0  0  0  0  0  0  0
   11.5797   -1.1068   23.5363 C   0  0  0  0  0  0  0  0  0  0  0  0
   11.4185   -2.2292   22.5305 C   0  0  0  0  0  0  0  0  0  0  0  0
   10.4557   -1.8930   21.4915 N   0  0  0  0  0  0  0  0  0  0  0  0
    9.1545   -1.6814   21.7714 C   0  0  0  0  0  0  0  0  0  0  0  0
    8.7069   -1.7591   22.9125 O   0  0  0  0  0  0  0  0  0  0  0  0
    8.3789   -1.3785   20.7117 N   0  0  0  0  0  0  0  0  0  0  0  0
    6.9511   -1.1223   20.8525 C   0  0  0  0  0  0  0  0  0  0  0  0
    6.4970    0.0925   20.0655 C   0  0  0  0  0  0  0  0  0  0  0  0
    5.3350    0.8151   20.7774 C   0  0  0  0  0  0  0  0  0  0  0  0
    4.8067    2.0018   19.9736 C   0  0  0  0  0  0  0  0  0  0  0  0
    4.4181    1.5857   18.5608 C   0  0  0  0  0  0  0  0  0  0  0  0
    5.5779    0.9015   17.8513 C   0  0  0  0  0  0  0  0  0  0  0  0
    6.0735   -0.3054   18.6413 C   0  0  0  0  0  0  0  0  0  0  0  0
   12.1277    1.3438   22.7887 C   0  0  0  0  0  0  0  0  0  0  0  0
   10.9337    2.0593   22.8652 C   0  0  0  0  0  0  0  0  0  0  0  0
  1  2  1  0
  2  3  2  0
  3  4  1  0
  4  5  2  0
  5  6  1  0
  6  7  1  0
  7  8  2  0
  8  9  1  0
  9 10  1  0
 10 11  1  0
 11 12  1  0
 12 13  2  0
 12 14  1  0
 14 15  1  0
 15 16  1  0
 16 17  1  0
 17 18  1  0
 18 19  1  0
 19 20  1  0
 20 21  1  0
  8 22  1  0
 22 23  2  0
 23  2  1  0
 22  5  1  0
 21 16  1  0
M  END
