CVD-0001926|dock_bobby27042020.50|mol2|46|dock1
     RDKit          3D

 22 24  0  0  0  0  0  0  0  0999 V2000
   13.9933   -2.4887   25.8406 C   0  0  0  0  0  0  0  0  0  0  0  0
   14.5499   -1.8751   24.6328 N   0  0  0  0  0  0  0  0  0  0  0  0
   13.5382   -1.2059   23.7809 C   0  0  0  0  0  0  0  0  0  0  0  0
   12.5346   -0.3989   24.5883 C   0  0  0  0  0  0  0  0  0  0  0  0
   11.4748    0.2690   23.7224 C   0  0  0  0  0  0  0  0  0  0  0  0
   10.7352   -0.7349   22.8409 C   0  0  0  0  0  0  0  0  0  0  0  0
   11.7366   -1.5424   22.0270 C   0  0  0  0  0  0  0  0  0  0  0  0
   12.7784   -2.2061   22.9191 C   0  0  0  0  0  0  0  0  0  0  0  0
    9.6744   -0.0459   21.9858 C   0  0  0  0  0  0  0  0  0  0  0  0
    8.9040   -0.8752   20.9237 C   0  0  0  0  0  0  0  0  0  0  0  0
    7.9607    0.0697   20.1965 C   0  0  0  0  0  0  0  0  0  0  0  0
    7.5629   -0.1228   18.8673 C   0  0  0  0  0  0  0  0  0  0  0  0
    8.2770   -0.9426   18.0325 O   0  0  0  0  0  0  0  0  0  0  0  0
    6.5268    0.6256   18.3145 C   0  0  0  0  0  0  0  0  0  0  0  0
    6.2171    0.4618   17.0018 O   0  0  0  0  0  0  0  0  0  0  0  0
    5.8678    1.5816   19.0766 C   0  0  0  0  0  0  0  0  0  0  0  0
    6.2527    1.7799   20.3889 C   0  0  0  0  0  0  0  0  0  0  0  0
    7.2900    1.0355   20.9528 C   0  0  0  0  0  0  0  0  0  0  0  0
    7.8210    1.4182   22.3110 C   0  0  0  0  0  0  0  0  0  0  0  0
    8.5649    2.7436   22.3711 C   0  0  0  0  0  0  0  0  0  0  0  0
    9.3731    2.9026   23.6011 N   0  0  0  0  0  0  0  0  0  0  0  0
    8.6631    0.4375   22.8953 O   0  0  0  0  0  0  0  0  0  0  0  0
  1  2  1  0
  2  3  1  0
  3  4  1  0
  4  5  1  0
  5  6  1  0
  6  7  1  0
  7  8  1  0
  6  9  1  0
  9 10  1  0
 10 11  1  0
 11 12  2  0
 12 13  1  0
 12 14  1  0
 14 15  1  0
 14 16  2  0
 16 17  1  0
 17 18  2  0
 18 19  1  0
 19 20  1  0
 20 21  1  0
 19 22  1  0
  8  3  1  0
 22  9  1  0
 18 11  1  0
M  END
