CVD-0001139|dock_bobby27042020.96|mol2|18|dock1
     RDKit          3D

 28 31  0  0  0  0  0  0  0  0999 V2000
   13.0636    6.1671   23.3584 C   0  0  0  0  0  0  0  0  0  0  0  0
   13.5325    5.6255   22.0343 C   0  0  0  0  0  0  0  0  0  0  0  0
   14.9543    5.6811   22.0309 O   0  0  0  0  0  0  0  0  0  0  0  0
   13.0299    4.3073   21.8184 N   0  0  0  0  0  0  0  0  0  0  0  0
   13.4436    3.1604   22.6233 C   0  0  0  0  0  0  0  0  0  0  0  0
   12.3304    2.1948   22.9120 C   0  0  0  0  0  0  0  0  0  0  0  0
   12.5320    0.9138   23.3472 C   0  0  0  0  0  0  0  0  0  0  0  0
   13.5079   -0.2000   23.6069 C   0  0  0  0  0  0  0  0  0  0  0  0
   13.2012   -1.5145   23.3082 C   0  0  0  0  0  0  0  0  0  0  0  0
   12.0761   -2.1339   22.7326 C   0  0  0  0  0  0  0  0  0  0  0  0
   10.6756   -1.3549   22.0754 P   0  0  0  0  0  0  0  0  0  0  0  0
    9.1012   -0.7543   21.6950 C   0  0  0  0  0  0  0  0  0  0  0  0
    8.2053    0.3184   21.8020 C   0  0  0  0  0  0  0  0  0  0  0  0
    6.8201    0.1047   21.2537 C   0  0  0  0  0  0  0  0  0  0  0  0
    6.6762    0.3967   19.7628 C   0  0  0  0  0  0  0  0  0  0  0  0
    5.2207    0.5856   19.3099 C   0  0  0  0  0  0  0  0  0  0  0  0
    4.5505    1.7834   20.0046 C   0  0  0  0  0  0  0  0  0  0  0  0
    3.5574    2.4069   19.1116 N   0  0  0  0  0  0  0  0  0  0  0  0
    2.4323    2.3225   19.7263 C   0  0  0  0  0  0  0  0  0  0  0  0
    2.6368    1.7321   21.1060 C   0  0  0  0  0  0  0  0  0  0  0  0
    3.8672    1.3836   21.2478 N   0  0  0  0  0  0  0  0  0  0  0  0
    5.2139    0.7120   17.8028 C   0  0  0  0  0  0  0  0  0  0  0  0
    5.8447    1.7765   17.3751 O   0  0  0  0  0  0  0  0  0  0  0  0
    4.6860   -0.0836   17.0586 O   0  0  0  0  0  0  0  0  0  0  0  0
    8.5553    1.5149   22.3510 C   0  0  0  0  0  0  0  0  0  0  0  0
    9.9644    1.6367   22.8645 C   0  0  0  0  0  0  0  0  0  0  0  0
   10.9750    2.5271   22.5859 C   0  0  0  0  0  0  0  0  0  0  0  0
   10.4317    0.3916   24.0656 Cu  0  0  0  0  0  3  0  0  0  0  0  0
  1  2  1  0
  2  3  1  0
  2  4  1  0
  4  5  1  0
  5  6  1  0
  6  7  2  0
  7  8  1  0
  8  9  2  0
  9 10  1  0
 10 11  2  0
 11 12  2  0
 12 13  1  0
 13 14  1  0
 14 15  1  0
 15 16  1  0
 16 17  1  0
 17 18  1  0
 18 19  2  0
 19 20  1  0
 20 21  2  0
 16 22  1  0
 22 23  1  0
 22 24  2  0
 13 25  2  0
 25 26  1  0
 26 27  2  0
 26 28  1  0
 27  6  1  0
 28  7  1  0
 28 11  1  0
 21 17  1  0
M  END
