CVD-0000511|dock_bobby27042020.41|mol2|17|dock3
     RDKit          3D

 30 32  0  0  0  0  0  0  0  0999 V2000
    6.0427   -1.6422   18.7815 C   0  0  0  0  0  0  0  0  0  0  0  0
    5.8977   -0.1953   19.1787 C   0  0  0  0  0  0  0  0  0  0  0  0
    4.8723    0.5456   18.5988 C   0  0  0  0  0  0  0  0  0  0  0  0
    4.7177    1.8737   18.9260 C   0  0  0  0  0  0  0  0  0  0  0  0
    5.5087    2.5034   19.7890 N   0  0  0  0  0  0  0  0  0  0  0  0
    6.4869    1.7977   20.3650 C   0  0  0  0  0  0  0  0  0  0  0  0
    6.7473    0.4520   20.0983 C   0  0  0  0  0  0  0  0  0  0  0  0
    7.8003   -0.3062   20.6882 N   0  0  0  0  0  0  0  0  0  0  0  0
    8.9966    0.1196   21.2192 C   0  0  0  0  0  0  0  0  0  0  0  0
    9.3280    1.2968   21.2465 O   0  0  0  0  0  0  0  0  0  0  0  0
    9.8516   -0.8273   21.7341 N   0  0  0  0  0  0  0  0  0  0  0  0
    9.7975   -2.2583   21.4166 C   0  0  0  0  0  0  0  0  0  0  0  0
    8.9351   -3.0579   22.3776 C   0  0  0  0  0  0  0  0  0  0  0  0
    9.7063   -3.5568   23.5898 C   0  0  0  0  0  0  0  0  0  0  0  0
    8.9603   -4.9466   24.3991 S   0  0  0  0  0  0  0  0  0  0  0  0
    7.7726   -4.4865   25.0536 O   0  0  0  0  0  0  0  0  0  0  0  0
    8.8590   -6.0080   23.4433 O   0  0  0  0  0  0  0  0  0  0  0  0
    9.9641   -5.4436   25.5513 N   0  0  0  0  0  0  0  0  0  0  0  0
    9.8637   -4.8954   26.9001 C   0  0  0  0  0  0  0  0  0  0  0  0
    8.6042   -5.3145   27.5812 C   0  0  0  0  0  0  0  0  0  0  0  0
    7.4490   -4.6418   27.8467 C   0  0  0  0  0  0  0  0  0  0  0  0
    6.6189   -5.5411   28.5074 C   0  0  0  0  0  0  0  0  0  0  0  0
    7.2105   -6.7196   28.6549 N   0  0  0  0  0  0  0  0  0  0  0  0
    8.4346   -6.5549   28.0753 N   0  0  0  0  0  0  0  0  0  0  0  0
   10.9128   -0.4548   22.6902 C   0  0  0  0  0  0  0  0  0  0  0  0
   10.3453    0.3901   23.8070 C   0  0  0  0  0  0  0  0  0  0  0  0
   11.4458    0.8588   24.7532 C   0  0  0  0  0  0  0  0  0  0  0  0
   12.5298    1.5980   24.0130 C   0  0  0  0  0  0  0  0  0  0  0  0
   13.0873    0.7667   22.8818 C   0  0  0  0  0  0  0  0  0  0  0  0
   11.9925    0.2920   21.9359 C   0  0  0  0  0  0  0  0  0  0  0  0
  1  2  1  0
  2  3  2  0
  3  4  1  0
  4  5  2  0
  5  6  1  0
  6  7  2  0
  7  8  1  0
  8  9  1  0
  9 10  2  0
  9 11  1  0
 11 12  1  0
 12 13  1  0
 13 14  1  0
 14 15  1  0
 15 16  2  0
 15 17  2  0
 15 18  1  0
 18 19  1  0
 19 20  1  0
 20 21  2  0
 21 22  1  0
 22 23  2  0
 23 24  1  0
 11 25  1  0
 25 26  1  0
 26 27  1  0
 27 28  1  0
 28 29  1  0
 29 30  1  0
  7  2  1  0
 24 20  1  0
 30 25  1  0
M  END
