CVD-0001194|dock_bobby27042020.67|mol2|48|dock2
     RDKit          3D

 30 33  0  0  0  0  0  0  0  0999 V2000
    6.0384   -7.1904   28.9273 C   0  0  0  0  0  0  0  0  0  0  0  0
    6.7485   -6.0416   28.2733 C   0  0  0  0  0  0  0  0  0  0  0  0
    6.4740   -4.8748   28.5354 O   0  0  0  0  0  0  0  0  0  0  0  0
    7.6844   -6.3626   27.3779 N   0  0  0  0  0  0  0  0  0  0  0  0
    8.4476   -5.3612   26.6470 C   0  0  0  0  0  0  0  0  0  0  0  0
    7.5882   -4.6148   25.6463 C   0  0  0  0  0  0  0  0  0  0  0  0
    8.3885   -3.7566   24.7109 C   0  0  0  0  0  0  0  0  0  0  0  0
    8.6326   -3.9794   23.3879 C   0  0  0  0  0  0  0  0  0  0  0  0
    9.4031   -2.9750   22.8692 N   0  0  0  0  0  0  0  0  0  0  0  0
    9.6755   -2.0697   23.8655 C   0  0  0  0  0  0  0  0  0  0  0  0
   10.4142   -0.8811   23.8543 C   0  0  0  0  0  0  0  0  0  0  0  0
   10.5212   -0.1535   25.0300 C   0  0  0  0  0  0  0  0  0  0  0  0
    9.9056   -0.6185   26.1668 C   0  0  0  0  0  0  0  0  0  0  0  0
   10.0266    0.1126   27.3077 F   0  0  0  0  0  0  0  0  0  0  0  0
    9.1740   -1.7815   26.2156 C   0  0  0  0  0  0  0  0  0  0  0  0
    9.0518   -2.5280   25.0431 C   0  0  0  0  0  0  0  0  0  0  0  0
   11.2064   -0.2709   22.3921 S   0  0  0  0  0  0  0  0  0  0  0  0
   11.3854    1.1399   22.5514 O   0  0  0  0  0  0  0  0  0  0  0  0
   12.3389   -1.1054   22.1295 O   0  0  0  0  0  0  0  0  0  0  0  0
   10.1683   -0.4774   21.1496 N   0  0  0  0  0  0  0  0  0  0  0  0
    8.9147    0.2008   21.0355 C   0  0  0  0  0  0  0  0  0  0  0  0
    8.5300    1.0969   22.0287 C   0  0  0  0  0  0  0  0  0  0  0  0
    7.3200    1.7657   21.9397 C   0  0  0  0  0  0  0  0  0  0  0  0
    6.4814    1.5428   20.8530 C   0  0  0  0  0  0  0  0  0  0  0  0
    5.1396    2.1302   20.5249 C   0  0  0  0  0  0  0  0  0  0  0  0
    4.8426    1.4822   19.2658 N   0  0  0  0  0  0  0  0  0  0  0  0
    5.7873    0.6215   18.8447 C   0  0  0  0  0  0  0  0  0  0  0  0
    5.7377   -0.0267   17.8042 O   0  0  0  0  0  0  0  0  0  0  0  0
    6.8593    0.6532   19.8635 C   0  0  0  0  0  0  0  0  0  0  0  0
    8.0753   -0.0235   19.9457 C   0  0  0  0  0  0  0  0  0  0  0  0
  1  2  1  0
  2  3  2  0
  2  4  1  0
  4  5  1  0
  5  6  1  0
  6  7  1  0
  7  8  2  0
  8  9  1  0
  9 10  1  0
 10 11  2  0
 11 12  1  0
 12 13  2  0
 13 14  1  0
 13 15  1  0
 15 16  2  0
 11 17  1  0
 17 18  2  0
 17 19  2  0
 17 20  1  0
 20 21  1  0
 21 22  2  0
 22 23  1  0
 23 24  2  0
 24 25  1  0
 25 26  1  0
 26 27  1  0
 27 28  2  0
 27 29  1  0
 29 30  2  0
 16  7  1  0
 30 21  1  0
 16 10  1  0
 29 24  1  0
M  END
