CVD-0000285|dock_bobby27042020.42|mol2|11|dock2
     RDKit          3D

 22 23  0  0  0  0  0  0  0  0999 V2000
    8.4371   -0.4928   27.0564 C   0  0  0  0  0  0  0  0  0  0  0  0
    8.7017   -1.0329   25.6574 C   0  0  0  0  0  0  0  0  0  0  0  0
    9.8124   -0.3022   25.0679 N   0  0  0  0  0  0  0  0  0  0  0  0
    9.6352    0.4993   24.0101 C   0  0  0  0  0  0  0  0  0  0  0  0
    8.5305    0.6019   23.4849 O   0  0  0  0  0  0  0  0  0  0  0  0
   10.8110    1.2732   23.4740 C   0  0  0  0  0  0  0  0  0  0  0  0
   10.5177    2.5705   23.0408 C   0  0  0  0  0  0  0  0  0  0  0  0
   11.4996    3.3975   22.5251 C   0  0  0  0  0  0  0  0  0  0  0  0
   12.7977    2.9558   22.4288 C   0  0  0  0  0  0  0  0  0  0  0  0
   13.1250    1.6799   22.8478 C   0  0  0  0  0  0  0  0  0  0  0  0
   12.1482    0.8338   23.3658 C   0  0  0  0  0  0  0  0  0  0  0  0
   12.4227   -0.4435   23.7950 O   0  0  0  0  0  0  0  0  0  0  0  0
   13.4760   -1.1963   23.2002 C   0  0  0  0  0  0  0  0  0  0  0  0
   13.2282   -1.3878   21.7280 C   0  0  0  0  0  0  0  0  0  0  0  0
   12.0189   -1.7670   21.3457 N   0  0  0  0  0  0  0  0  0  0  0  0
   14.1515   -1.1788   20.9359 O   0  0  0  0  0  0  0  0  0  0  0  0
    8.9742   -2.5164   25.6519 C   0  0  0  0  0  0  0  0  0  0  0  0
    9.5300   -3.3032   24.6352 C   0  0  0  0  0  0  0  0  0  0  0  0
    9.6121   -4.5786   24.9783 N   0  0  0  0  0  0  0  0  0  0  0  0
    9.1118   -4.6203   26.2356 N   0  0  0  0  0  0  0  0  0  0  0  0
    9.0163   -5.8921   26.9418 C   0  0  0  0  0  0  0  0  0  0  0  0
    8.7138   -3.4148   26.6600 C   0  0  0  0  0  0  0  0  0  0  0  0
  1  2  1  0
  2  3  1  0
  3  4  1  0
  4  5  2  0
  4  6  1  0
  6  7  2  0
  7  8  1  0
  8  9  2  0
  9 10  1  0
 10 11  2  0
 11 12  1  0
 12 13  1  0
 13 14  1  0
 14 15  1  0
 14 16  2  0
  2 17  1  0
 17 18  1  0
 18 19  2  0
 19 20  1  0
 20 21  1  0
 20 22  1  0
 11  6  1  0
 22 17  2  0
M  END
