CVD-0001349|dock_bobby27042020.38|mol2|26|dock2
     RDKit          3D

 24 26  0  0  0  0  0  0  0  0999 V2000
    8.0944   -0.5288   19.4237 N   0  0  0  0  0  0  0  0  0  0  0  0
    7.9223   -0.2048   20.8466 C   0  0  0  0  0  0  0  0  0  0  0  0
    8.6819    0.9657   21.3821 C   0  0  0  0  0  0  0  0  0  0  0  0
    8.1849    2.2061   21.5776 C   0  0  0  0  0  0  0  0  0  0  0  0
    9.2215    3.0258   22.1060 C   0  0  0  0  0  0  0  0  0  0  0  0
    9.2118    4.3520   22.5610 C   0  0  0  0  0  0  0  0  0  0  0  0
   10.3983    4.9724   22.9153 C   0  0  0  0  0  0  0  0  0  0  0  0
   11.5866    4.2743   22.7685 C   0  0  0  0  0  0  0  0  0  0  0  0
   11.6138    2.9575   22.3308 C   0  0  0  0  0  0  0  0  0  0  0  0
   10.4141    2.2834   22.1021 C   0  0  0  0  0  0  0  0  0  0  0  0
   10.0341    0.9363   21.7968 N   0  0  0  0  0  0  0  0  0  0  0  0
   10.8413   -0.2819   21.8439 C   0  0  0  0  0  0  0  0  0  0  0  0
   10.4489   -1.2650   21.2377 O   0  0  0  0  0  0  0  0  0  0  0  0
   12.0036   -0.4274   22.5429 N   0  0  0  0  0  0  0  0  0  0  0  0
   12.4397    0.4148   23.6612 C   0  0  0  0  0  0  0  0  0  0  0  0
   12.7831   -0.4326   24.8696 C   0  0  0  0  0  0  0  0  0  0  0  0
   13.7873   -1.5347   24.5393 C   0  0  0  0  0  0  0  0  0  0  0  0
   14.0424   -2.4017   25.6478 O   0  0  0  0  0  0  0  0  0  0  0  0
   13.3205   -2.3099   23.3139 C   0  0  0  0  0  0  0  0  0  0  0  0
   13.0068   -1.4069   22.1414 C   0  0  0  0  0  0  0  0  0  0  0  0
    7.7059    5.2784   22.6844 S   0  0  0  0  0  0  0  0  0  0  0  0
    7.5599    6.1849   21.3729 N   0  0  0  0  0  0  0  0  0  0  0  0
    6.6256    4.3384   22.6736 O   0  0  0  0  0  0  0  0  0  0  0  0
    7.8421    6.1650   23.8008 O   0  0  0  0  0  0  0  0  0  0  0  0
  1  2  1  0
  2  3  1  0
  3  4  2  0
  4  5  1  0
  5  6  2  0
  6  7  1  0
  7  8  2  0
  8  9  1  0
  9 10  2  0
 10 11  1  0
 11 12  1  0
 12 13  2  0
 12 14  1  0
 14 15  1  0
 15 16  1  0
 16 17  1  0
 17 18  1  0
 17 19  1  0
 19 20  1  0
  6 21  1  0
 21 22  1  0
 21 23  2  0
 21 24  2  0
 11  3  1  0
 20 14  1  0
 10  5  1  0
M  END
