CVD-0003115|dock_bobby27042020.46|mol2|19|dock2
     RDKit          3D

 17 18  0  0  0  0  0  0  0  0999 V2000
   11.6377    0.1124   21.5345 C   0  0  0  0  0  0  0  0  0  0  0  0
   10.2911   -0.4774   21.9228 C   0  0  0  0  0  0  0  0  0  0  0  0
    9.3202   -0.1724   20.8749 N   0  0  0  0  0  0  0  0  0  0  0  0
    8.6618   -0.1493   19.6924 C   0  0  0  0  0  0  0  0  0  0  0  0
    9.0862   -0.8235   18.7614 O   0  0  0  0  0  0  0  0  0  0  0  0
    7.5112    0.6087   19.4559 N   0  0  0  0  0  0  0  0  0  0  0  0
    6.6159    0.6998   18.2987 C   0  0  0  0  0  0  0  0  0  0  0  0
    5.2910    1.3641   18.6188 C   0  0  0  0  0  0  0  0  0  0  0  0
    4.4819    0.6638   19.7142 C   0  0  0  0  0  0  0  0  0  0  0  0
    4.8908    1.0860   21.1127 C   0  0  0  0  0  0  0  0  0  0  0  0
    6.3230    0.7618   21.4703 C   0  0  0  0  0  0  0  0  0  0  0  0
    7.2633    1.4138   20.5719 O   0  0  0  0  0  0  0  0  0  0  0  0
   10.3461   -1.9959   22.1388 C   0  0  0  0  0  0  0  0  0  0  0  0
    8.9459   -2.6196   22.3029 C   0  0  0  0  0  0  0  0  0  0  0  0
    9.1052   -3.4822   23.5517 C   0  0  0  0  0  0  0  0  0  0  0  0
   10.0755   -2.8479   24.3370 O   0  0  0  0  0  0  0  0  0  0  0  0
   11.0628   -2.3818   23.4373 C   0  0  0  0  0  0  0  0  0  0  0  0
  2  1  1  0
  2  3  1  0
  3  4  1  0
  4  5  2  0
  4  6  1  0
  6  7  1  0
  7  8  1  0
  8  9  1  0
  9 10  1  0
 10 11  1  0
 11 12  1  0
  2 13  1  0
 13 14  1  0
 14 15  1  0
 15 16  1  0
 16 17  1  0
 12  6  1  0
 17 13  1  0
M  END
