CVD-0002953|dock_bobby27042020.32|mol2|30|dock3
     RDKit          3D

 26 28  0  0  0  0  0  0  0  0999 V2000
    9.9943   -5.6317   25.0535 N   0  0  0  0  0  0  0  0  0  0  0  0
    9.6446   -4.3226   24.2009 S   0  0  0  0  0  0  0  0  0  0  0  0
   10.8361   -3.9403   23.5042 O   0  0  0  0  0  0  0  0  0  0  0  0
    9.0353   -3.3848   25.0955 O   0  0  0  0  0  0  0  0  0  0  0  0
    8.4370   -4.7526   22.9843 C   0  0  0  0  0  0  0  0  0  0  0  0
    7.9725   -6.0554   22.9077 C   0  0  0  0  0  0  0  0  0  0  0  0
    7.0298   -6.3807   21.9467 C   0  0  0  0  0  0  0  0  0  0  0  0
    6.5572   -5.4169   21.0716 C   0  0  0  0  0  0  0  0  0  0  0  0
    7.0294   -4.1148   21.1541 C   0  0  0  0  0  0  0  0  0  0  0  0
    7.9749   -3.7773   22.1139 C   0  0  0  0  0  0  0  0  0  0  0  0
    6.5456   -3.1166   20.2530 N   0  0  0  0  0  0  0  0  0  0  0  0
    6.9357   -1.8316   20.1148 C   0  0  0  0  0  0  0  0  0  0  0  0
    6.1556   -1.3244   19.1184 C   0  0  0  0  0  0  0  0  0  0  0  0
    6.1341    0.0494   18.5237 C   0  0  0  0  0  0  0  0  0  0  0  0
    5.4082    1.0363   19.3284 N   0  0  0  0  0  0  0  0  0  0  0  0
    5.9405    1.0761   20.6935 C   0  0  0  0  0  0  0  0  0  0  0  0
    5.2131    2.1280   21.5104 C   0  0  0  0  0  0  0  0  0  0  0  0
    3.7751    1.8519   21.5358 N   0  0  0  0  0  0  0  0  0  0  0  0
    3.2228    1.7463   20.1817 C   0  0  0  0  0  0  0  0  0  0  0  0
    3.9861    0.7072   19.3806 C   0  0  0  0  0  0  0  0  0  0  0  0
    3.0701    1.7434   22.6833 C   0  0  0  0  0  0  0  0  0  0  0  0
    3.6088    1.8801   23.7743 O   0  0  0  0  0  0  0  0  0  0  0  0
    1.5881    1.4376   22.5809 C   0  0  0  0  0  0  0  0  0  0  0  0
    0.8447    1.3244   24.1814 Cl  0  0  0  0  0  0  0  0  0  0  0  0
    5.3258   -2.3097   18.6859 N   0  0  0  0  0  0  0  0  0  0  0  0
    5.5567   -3.4054   19.3742 N   0  0  0  0  0  0  0  0  0  0  0  0
  1  2  1  0
  2  3  2  0
  2  4  2  0
  2  5  1  0
  5  6  2  0
  6  7  1  0
  7  8  2  0
  8  9  1  0
  9 10  2  0
  9 11  1  0
 11 12  1  0
 12 13  2  0
 13 14  1  0
 14 15  1  0
 15 16  1  0
 16 17  1  0
 17 18  1  0
 18 19  1  0
 19 20  1  0
 18 21  1  0
 21 22  2  0
 21 23  1  0
 23 24  1  0
 13 25  1  0
 25 26  2  0
 10  5  1  0
 26 11  1  0
 20 15  1  0
M  END
