CVD-0000973|dock_bobby27042020.39|mol2|40|dock3
     RDKit          3D

 27 30  0  0  0  0  0  0  0  0999 V2000
    2.8572    2.9312   18.9130 C   0  0  0  0  0  0  0  0  0  0  0  0
    3.7556    1.7780   18.9119 N   0  0  0  0  0  0  0  0  0  0  0  0
    3.9226    1.2683   20.2726 C   0  0  0  0  0  0  0  0  0  0  0  0
    4.7473   -0.0066   20.2751 C   0  0  0  0  0  0  0  0  0  0  0  0
    6.0467    0.2191   19.6254 N   0  0  0  0  0  0  0  0  0  0  0  0
    5.9619    0.8777   18.3141 C   0  0  0  0  0  0  0  0  0  0  0  0
    5.0829    2.1143   18.3944 C   0  0  0  0  0  0  0  0  0  0  0  0
    7.2507   -0.3596   20.1020 C   0  0  0  0  0  0  0  0  0  0  0  0
    8.3077    0.4889   20.4340 C   0  0  0  0  0  0  0  0  0  0  0  0
    9.4698   -0.0092   20.9930 C   0  0  0  0  0  0  0  0  0  0  0  0
    9.6269   -1.3604   21.2459 C   0  0  0  0  0  0  0  0  0  0  0  0
    8.6095   -2.2222   20.8759 C   0  0  0  0  0  0  0  0  0  0  0  0
    7.4561   -1.7472   20.2642 C   0  0  0  0  0  0  0  0  0  0  0  0
    6.3443   -3.0236   19.7249 S   0  0  0  0  0  0  0  0  0  0  0  0
    5.7901   -2.6545   18.2691 N   0  0  0  0  0  0  0  0  0  0  0  0
    5.2358   -3.0833   20.6294 O   0  0  0  0  0  0  0  0  0  0  0  0
    7.1299   -4.2089   19.5537 O   0  0  0  0  0  0  0  0  0  0  0  0
   10.8928   -1.8888   21.9065 C   0  0  0  0  0  0  0  0  0  0  0  0
   12.0505   -1.8751   21.0233 N   0  0  0  0  0  0  0  0  0  0  0  0
   13.0801   -1.1293   21.4674 C   0  0  0  0  0  0  0  0  0  0  0  0
   14.1469   -0.9527   20.8888 O   0  0  0  0  0  0  0  0  0  0  0  0
   12.6691   -0.5898   22.7822 C   0  0  0  0  0  0  0  0  0  0  0  0
   13.3503    0.2168   23.6929 C   0  0  0  0  0  0  0  0  0  0  0  0
   12.7248    0.5752   24.8780 C   0  0  0  0  0  0  0  0  0  0  0  0
   11.4441    0.1395   25.1538 C   0  0  0  0  0  0  0  0  0  0  0  0
   10.7692   -0.6624   24.2464 C   0  0  0  0  0  0  0  0  0  0  0  0
   11.3848   -1.0301   23.0526 C   0  0  0  0  0  0  0  0  0  0  0  0
  1  2  1  0
  2  3  1  0
  3  4  1  0
  4  5  1  0
  5  6  1  0
  6  7  1  0
  5  8  1  0
  8  9  2  0
  9 10  1  0
 10 11  2  0
 11 12  1  0
 12 13  2  0
 13 14  1  0
 14 15  1  0
 14 16  2  0
 14 17  2  0
 11 18  1  0
 18 19  1  0
 19 20  1  0
 20 21  2  0
 20 22  1  0
 22 23  2  0
 23 24  1  0
 24 25  2  0
 25 26  1  0
 26 27  2  0
  7  2  1  0
 13  8  1  0
 27 18  1  0
 27 22  1  0
M  END
