CVD-0000454|dock_bobby27042020.13|mol2|2|dock1
     RDKit          3D

 34 37  0  0  0  0  0  0  0  0999 V2000
   14.2660   -3.0181   23.5383 C   0  0  0  0  0  0  0  0  0  0  0  0
   13.6906   -1.8678   22.7387 C   0  0  0  0  0  0  0  0  0  0  0  0
   12.9852   -2.4392   21.5714 N   0  0  0  0  0  0  0  0  0  0  0  0
   12.9031   -0.9901   23.6962 C   0  0  0  0  0  0  0  0  0  0  0  0
   12.9252   -1.2188   24.8849 O   0  0  0  0  0  0  0  0  0  0  0  0
   12.1319    0.1256   23.1214 C   0  0  0  0  0  0  0  0  0  0  0  0
   12.9465    1.4016   23.1504 C   0  0  0  0  0  0  0  0  0  0  0  0
   12.1203    2.5731   22.8953 N   0  0  0  0  0  0  0  0  0  0  0  0
   12.8815    3.7158   22.4050 C   0  0  0  0  0  0  0  0  0  0  0  0
   10.7267    2.5602   22.9560 C   0  0  0  0  0  0  0  0  0  0  0  0
   10.0088    3.6795   22.5300 C   0  0  0  0  0  0  0  0  0  0  0  0
    8.6266    3.6788   22.5646 C   0  0  0  0  0  0  0  0  0  0  0  0
    7.9698    2.5657   23.0223 C   0  0  0  0  0  0  0  0  0  0  0  0
    6.6180    2.5994   23.0635 F   0  0  0  0  0  0  0  0  0  0  0  0
    8.6313    1.4253   23.4582 C   0  0  0  0  0  0  0  0  0  0  0  0
   10.0374    1.4236   23.4240 C   0  0  0  0  0  0  0  0  0  0  0  0
   10.8133    0.2234   23.8853 C   0  0  0  0  0  0  0  0  0  0  0  0
    7.8721    0.2510   24.0014 C   0  0  0  0  0  0  0  0  0  0  0  0
    7.9389    0.0067   25.3730 C   0  0  0  0  0  0  0  0  0  0  0  0
    7.2446   -1.0491   25.9055 C   0  0  0  0  0  0  0  0  0  0  0  0
    7.3221   -1.2673   27.2461 F   0  0  0  0  0  0  0  0  0  0  0  0
    6.4803   -1.8867   25.1441 C   0  0  0  0  0  0  0  0  0  0  0  0
    6.4186   -1.6560   23.7817 C   0  0  0  0  0  0  0  0  0  0  0  0
    7.1081   -0.6001   23.1810 C   0  0  0  0  0  0  0  0  0  0  0  0
    7.0416   -0.3695   21.6825 C   0  0  0  0  0  0  0  0  0  0  0  0
    5.6574   -0.3235   21.0957 C   0  0  0  0  0  0  0  0  0  0  0  0
    5.7451   -0.1059   19.6527 N   0  0  0  0  0  0  0  0  0  0  0  0
    6.6372   -1.0480   18.9800 C   0  0  0  0  0  0  0  0  0  0  0  0
    7.9707   -1.0693   19.6660 C   0  0  0  0  0  0  0  0  0  0  0  0
    7.8466   -1.3536   21.0494 O   0  0  0  0  0  0  0  0  0  0  0  0
    5.1498    0.9197   18.9951 C   0  0  0  0  0  0  0  0  0  0  0  0
    5.2625    1.0427   17.7818 O   0  0  0  0  0  0  0  0  0  0  0  0
    4.3324    1.9334   19.7764 C   0  0  0  0  0  0  0  0  0  0  0  0
    3.5598    3.1355   18.7346 Cl  0  0  0  0  0  0  0  0  0  0  0  0
  2  1  1  0
  2  3  1  0
  2  4  1  0
  4  5  2  0
  6  4  1  0
  6  7  1  0
  7  8  1  0
  8  9  1  0
  8 10  1  0
 10 11  2  0
 11 12  1  0
 12 13  2  0
 13 14  1  0
 13 15  1  0
 15 16  2  0
 16 17  1  0
 15 18  1  0
 18 19  2  0
 19 20  1  0
 20 21  1  0
 20 22  2  0
 22 23  1  0
 23 24  2  0
 25 24  1  0
 25 26  1  0
 26 27  1  0
 27 28  1  0
 28 29  1  0
 29 30  1  0
 27 31  1  0
 31 32  2  0
 31 33  1  0
 33 34  1  0
 17  6  1  0
 24 18  1  0
 30 25  1  0
 16 10  1  0
M  END
