CVD-0003104|dock_bobby27042020.46|mol2|21|dock1
     RDKit          3D

 18 19  0  0  0  0  0  0  0  0999 V2000
    8.4854   -1.0818   20.8089 C   0  0  0  0  0  0  0  0  0  0  0  0
    9.2998   -1.7286   21.8851 C   0  0  0  0  0  0  0  0  0  0  0  0
   10.7113   -1.7565   21.5398 N   0  0  0  0  0  0  0  0  0  0  0  0
   11.6873   -1.7272   22.4627 C   0  0  0  0  0  0  0  0  0  0  0  0
   12.3798   -2.8694   22.6444 N   0  0  0  0  0  0  0  0  0  0  0  0
   13.3580   -2.8716   23.5568 C   0  0  0  0  0  0  0  0  0  0  0  0
   13.6970   -1.7629   24.3230 C   0  0  0  0  0  0  0  0  0  0  0  0
   12.9765   -0.5905   24.1264 C   0  0  0  0  0  0  0  0  0  0  0  0
   11.9514   -0.5474   23.1887 C   0  0  0  0  0  0  0  0  0  0  0  0
   11.1860    0.7421   22.9911 C   0  0  0  0  0  0  0  0  0  0  0  0
   12.0817    1.9277   22.7884 C   0  0  0  0  0  0  0  0  0  0  0  0
   13.3677    1.9081   22.8882 N   0  0  0  0  0  0  0  0  0  0  0  0
   13.9448    3.1532   22.6437 N   0  0  0  0  0  0  0  0  0  0  0  0
   13.0739    4.0658   22.3708 C   0  0  0  0  0  0  0  0  0  0  0  0
   13.4246    5.4833   22.0617 C   0  0  0  0  0  0  0  0  0  0  0  0
   11.4391    3.4894   22.3750 S   0  0  0  0  0  0  0  0  0  0  0  0
   14.7622   -1.8212   25.2934 C   0  0  0  0  0  0  0  0  0  0  0  0
   15.6230   -1.8872   26.0414 N   0  0  0  0  0  0  0  0  0  0  0  0
  1  2  1  0
  2  3  1  0
  3  4  1  0
  4  5  2  0
  5  6  1  0
  6  7  2  0
  7  8  1  0
  8  9  2  0
  9 10  1  0
 10 11  1  0
 11 12  2  0
 12 13  1  0
 13 14  2  0
 14 15  1  0
 14 16  1  0
  7 17  1  0
 17 18  3  0
  9  4  1  0
 16 11  1  0
M  END
