CVD-0003909|dock_bobby27042020.58|mol2|17|dock2
     RDKit          3D

 26 29  0  0  0  0  0  0  0  0999 V2000
   13.8222   -1.9182   24.4104 O   0  0  0  0  0  0  0  0  0  0  0  0
   13.8211   -0.7907   23.5305 C   0  0  0  0  0  0  0  0  0  0  0  0
   13.4172   -1.1664   22.1035 C   0  0  0  0  0  0  0  0  0  0  0  0
   11.9334   -1.5273   21.9862 C   0  0  0  0  0  0  0  0  0  0  0  0
   11.0899   -0.3656   22.4920 C   0  0  0  0  0  0  0  0  0  0  0  0
   11.4396    0.0022   23.9310 C   0  0  0  0  0  0  0  0  0  0  0  0
   12.9278    0.3325   24.0428 C   0  0  0  0  0  0  0  0  0  0  0  0
    9.6281   -0.6510   22.3471 N   0  0  0  0  0  0  0  0  0  0  0  0
    8.8005    0.0657   21.3945 C   0  0  0  0  0  0  0  0  0  0  0  0
    9.3678    0.9137   20.7194 O   0  0  0  0  0  0  0  0  0  0  0  0
    7.4587   -0.2106   21.2756 N   0  0  0  0  0  0  0  0  0  0  0  0
    6.4758    0.3584   20.4234 C   0  0  0  0  0  0  0  0  0  0  0  0
    5.1981    0.5118   20.9507 C   0  0  0  0  0  0  0  0  0  0  0  0
    4.1782    1.0577   20.1902 C   0  0  0  0  0  0  0  0  0  0  0  0
    4.4168    1.4581   18.8947 C   0  0  0  0  0  0  0  0  0  0  0  0
    5.6770    1.3127   18.3587 C   0  0  0  0  0  0  0  0  0  0  0  0
    6.7053    0.7678   19.1102 C   0  0  0  0  0  0  0  0  0  0  0  0
    9.0411   -1.6010   23.1202 C   0  0  0  0  0  0  0  0  0  0  0  0
    8.5561   -1.5089   24.4162 C   0  0  0  0  0  0  0  0  0  0  0  0
    7.9402   -2.7086   24.8467 C   0  0  0  0  0  0  0  0  0  0  0  0
    7.4065   -2.9346   26.2320 C   0  0  0  0  0  0  0  0  0  0  0  0
    7.4034   -4.4094   26.5695 C   0  0  0  0  0  0  0  0  0  0  0  0
    6.9602   -5.2599   25.5055 C   0  0  0  0  0  0  0  0  0  0  0  0
    7.6393   -5.1130   24.1591 C   0  0  0  0  0  0  0  0  0  0  0  0
    7.9646   -3.6727   23.8953 C   0  0  0  0  0  0  0  0  0  0  0  0
    8.7403   -3.1683   22.4248 S   0  0  0  0  0  0  0  0  0  0  0  0
  1  2  1  0
  2  3  1  0
  3  4  1  0
  4  5  1  0
  5  6  1  0
  6  7  1  0
  5  8  1  0
  8  9  1  0
  9 10  2  0
  9 11  1  0
 11 12  1  0
 12 13  2  0
 13 14  1  0
 14 15  2  0
 15 16  1  0
 16 17  2  0
  8 18  1  0
 18 19  2  0
 19 20  1  0
 20 21  1  0
 21 22  1  0
 22 23  1  0
 23 24  1  0
 24 25  1  0
 25 26  1  0
  7  2  1  0
 17 12  1  0
 26 18  1  0
 25 20  2  0
M  END
