CVD-0002077|dock_bobby27042020.36|mol2|5|dock2
     RDKit          3D

 31 34  0  0  0  0  0  0  0  0999 V2000
    7.3581    3.4175   23.0263 F   0  0  0  0  0  0  0  0  0  0  0  0
    8.6593    3.8025   22.9282 C   0  0  0  0  0  0  0  0  0  0  0  0
    8.9353    5.1444   22.8604 C   0  0  0  0  0  0  0  0  0  0  0  0
   10.2538    5.5570   22.7602 C   0  0  0  0  0  0  0  0  0  0  0  0
   11.2574    4.5954   22.7315 C   0  0  0  0  0  0  0  0  0  0  0  0
   12.6255    4.6988   22.6397 N   0  0  0  0  0  0  0  0  0  0  0  0
   13.2087    3.4550   22.6486 C   0  0  0  0  0  0  0  0  0  0  0  0
   12.2276    2.5259   22.7464 C   0  0  0  0  0  0  0  0  0  0  0  0
   12.3133    1.1922   22.7907 N   0  0  0  0  0  0  0  0  0  0  0  0
   13.5366    0.4044   22.7414 C   0  0  0  0  0  0  0  0  0  0  0  0
   13.5374   -0.7143   23.7642 C   0  0  0  0  0  0  0  0  0  0  0  0
   12.9833   -2.0211   23.2115 C   0  0  0  0  0  0  0  0  0  0  0  0
   11.5304   -1.9423   22.8092 C   0  0  0  0  0  0  0  0  0  0  0  0
   11.1667   -1.6427   21.5058 C   0  0  0  0  0  0  0  0  0  0  0  0
    9.8315   -1.5753   21.1453 C   0  0  0  0  0  0  0  0  0  0  0  0
    8.8463   -1.8093   22.0895 C   0  0  0  0  0  0  0  0  0  0  0  0
    9.1857   -2.1132   23.3982 C   0  0  0  0  0  0  0  0  0  0  0  0
    8.1178   -2.3669   24.4350 C   0  0  0  0  0  0  0  0  0  0  0  0
    7.9339   -3.7940   24.7376 N   0  0  0  0  0  0  0  0  0  0  0  0
    7.4681   -4.5143   23.5490 C   0  0  0  0  0  0  0  0  0  0  0  0
    7.3194   -5.9930   23.8556 C   0  0  0  0  0  0  0  0  0  0  0  0
    6.3865   -6.1937   24.9667 N   0  0  0  0  0  0  0  0  0  0  0  0
    6.7931   -5.4368   26.1548 C   0  0  0  0  0  0  0  0  0  0  0  0
    6.9598   -3.9675   25.8122 C   0  0  0  0  0  0  0  0  0  0  0  0
    5.3080   -7.0083   24.8820 C   0  0  0  0  0  0  0  0  0  0  0  0
    5.0580   -7.6332   23.8589 O   0  0  0  0  0  0  0  0  0  0  0  0
    4.3960   -7.1313   26.0879 C   0  0  0  0  0  0  0  0  0  0  0  0
    3.0737   -8.2618   25.7707 Cl  0  0  0  0  0  0  0  0  0  0  0  0
   10.5296   -2.1756   23.7439 C   0  0  0  0  0  0  0  0  0  0  0  0
   10.9471    3.2303   22.8025 C   0  0  0  0  0  0  0  0  0  0  0  0
    9.6203    2.8195   22.9031 C   0  0  0  0  0  0  0  0  0  0  0  0
  1  2  1  0
  2  3  2  0
  3  4  1  0
  4  5  2  0
  5  6  1  0
  6  7  1  0
  7  8  2  0
  8  9  1  0
  9 10  1  0
 10 11  1  0
 11 12  1  0
 12 13  1  0
 13 14  2  0
 14 15  1  0
 15 16  2  0
 16 17  1  0
 17 18  1  0
 18 19  1  0
 19 20  1  0
 20 21  1  0
 21 22  1  0
 22 23  1  0
 23 24  1  0
 22 25  1  0
 25 26  2  0
 25 27  1  0
 27 28  1  0
 17 29  2  0
  8 30  1  0
 30 31  2  0
 31  2  1  0
 30  5  1  0
 29 13  1  0
 24 19  1  0
M  END
