CVD-0000972|dock_bobby27042020.82|mol2|32|dock1
     RDKit          3D

 30 33  0  0  0  0  0  0  0  0999 V2000
   13.9281    6.8250   23.0850 C   0  0  0  0  0  0  0  0  0  0  0  0
   13.2242    5.6235   23.6837 C   0  0  0  0  0  0  0  0  0  0  0  0
   13.3689    4.3781   22.8694 C   0  0  0  0  0  0  0  0  0  0  0  0
   12.8289    4.5755   21.4623 C   0  0  0  0  0  0  0  0  0  0  0  0
   12.7357    3.2376   23.5695 N   0  0  0  0  0  0  0  0  0  0  0  0
   13.3266    1.9607   23.2066 C   0  0  0  0  0  0  0  0  0  0  0  0
   12.8148    0.8555   24.1092 C   0  0  0  0  0  0  0  0  0  0  0  0
   11.3430    0.8045   24.0969 N   0  0  0  0  0  0  0  0  0  0  0  0
   10.7134    2.1076   24.2990 C   0  0  0  0  0  0  0  0  0  0  0  0
   11.2921    3.1494   23.3906 C   0  0  0  0  0  0  0  0  0  0  0  0
   10.6174   -0.4107   24.1831 C   0  0  0  0  0  0  0  0  0  0  0  0
   10.0919   -0.7829   25.4206 C   0  0  0  0  0  0  0  0  0  0  0  0
    9.4580   -2.0003   25.5873 C   0  0  0  0  0  0  0  0  0  0  0  0
    9.3224   -2.8935   24.5379 C   0  0  0  0  0  0  0  0  0  0  0  0
    9.7943   -2.5180   23.2922 C   0  0  0  0  0  0  0  0  0  0  0  0
   10.3866   -1.2773   23.0929 C   0  0  0  0  0  0  0  0  0  0  0  0
   10.7782   -0.9251   21.3963 S   0  0  0  0  0  0  0  0  0  0  0  0
   12.1917   -1.5849   21.0374 N   0  0  0  0  0  0  0  0  0  0  0  0
   10.9735    0.4909   21.3051 O   0  0  0  0  0  0  0  0  0  0  0  0
    9.7780   -1.5156   20.5590 O   0  0  0  0  0  0  0  0  0  0  0  0
    8.6684   -4.2554   24.7346 C   0  0  0  0  0  0  0  0  0  0  0  0
    9.6283   -5.3491   24.7936 N   0  0  0  0  0  0  0  0  0  0  0  0
    9.5998   -6.0526   25.9415 C   0  0  0  0  0  0  0  0  0  0  0  0
   10.3230   -7.0013   26.2263 O   0  0  0  0  0  0  0  0  0  0  0  0
    8.5246   -5.4616   26.7682 C   0  0  0  0  0  0  0  0  0  0  0  0
    8.0459   -5.8100   28.0304 C   0  0  0  0  0  0  0  0  0  0  0  0
    7.0014   -5.0824   28.5815 C   0  0  0  0  0  0  0  0  0  0  0  0
    6.4420   -4.0265   27.8901 C   0  0  0  0  0  0  0  0  0  0  0  0
    6.9201   -3.6823   26.6353 C   0  0  0  0  0  0  0  0  0  0  0  0
    7.9684   -4.4039   26.0693 C   0  0  0  0  0  0  0  0  0  0  0  0
  1  2  1  0
  2  3  1  0
  3  4  1  0
  3  5  1  0
  5  6  1  0
  6  7  1  0
  7  8  1  0
  8  9  1  0
  9 10  1  0
  8 11  1  0
 11 12  2  0
 12 13  1  0
 13 14  2  0
 14 15  1  0
 15 16  2  0
 16 17  1  0
 17 18  1  0
 17 19  2  0
 17 20  2  0
 14 21  1  0
 21 22  1  0
 22 23  1  0
 23 24  2  0
 23 25  1  0
 25 26  2  0
 26 27  1  0
 27 28  2  0
 28 29  1  0
 29 30  2  0
 10  5  1  0
 16 11  1  0
 30 21  1  0
 30 25  1  0
M  END
