CVD-0001287|dock_bobby27042020.67|mol2|34|dock2
     RDKit          3D

 19 19  0  0  0  0  0  0  0  0999 V2000
    5.8585    1.5530   17.2561 Cl  0  0  0  0  0  0  0  0  0  0  0  0
    5.5857    0.0846   18.2031 C   0  0  0  0  0  0  0  0  0  0  0  0
    6.2006    0.1463   19.5764 C   0  0  0  0  0  0  0  0  0  0  0  0
    5.5555   -0.0163   20.5901 O   0  0  0  0  0  0  0  0  0  0  0  0
    7.6866    0.4265   19.6136 C   0  0  0  0  0  0  0  0  0  0  0  0
    8.5118   -0.6355   20.1475 N   0  0  0  0  0  0  0  0  0  0  0  0
    8.4496   -0.9824   21.4303 C   0  0  0  0  0  0  0  0  0  0  0  0
    7.7003   -0.4330   22.2319 O   0  0  0  0  0  0  0  0  0  0  0  0
    9.3548   -2.1188   21.8567 C   0  0  0  0  0  0  0  0  0  0  0  0
   10.6632   -1.5887   22.4041 C   0  0  0  0  0  0  0  0  0  0  0  0
   10.7969   -1.3400   23.5982 O   0  0  0  0  0  0  0  0  0  0  0  0
   11.6356   -1.4022   21.5158 N   0  0  0  0  0  0  0  0  0  0  0  0
   12.9434   -0.8854   21.8908 C   0  0  0  0  0  0  0  0  0  0  0  0
   13.3822   -1.3153   23.2698 C   0  0  0  0  0  0  0  0  0  0  0  0
   13.8547   -2.5988   23.4953 C   0  0  0  0  0  0  0  0  0  0  0  0
   14.2543   -2.9946   24.7610 C   0  0  0  0  0  0  0  0  0  0  0  0
   14.1849   -2.1111   25.8165 C   0  0  0  0  0  0  0  0  0  0  0  0
   13.7158   -0.8323   25.6065 C   0  0  0  0  0  0  0  0  0  0  0  0
   13.3164   -0.4372   24.3405 C   0  0  0  0  0  0  0  0  0  0  0  0
  1  2  1  0
  2  3  1  0
  3  4  2  0
  3  5  1  0
  5  6  1  0
  6  7  1  0
  7  8  2  0
  7  9  1  0
  9 10  1  0
 10 11  2  0
 10 12  1  0
 12 13  1  0
 13 14  1  0
 14 15  2  0
 15 16  1  0
 16 17  2  0
 17 18  1  0
 18 19  2  0
 19 14  1  0
M  END
