CVD-0001827|dock_bobby27042020.80|mol2|1|dock2
     RDKit          3D

 26 29  0  0  0  0  0  0  0  0999 V2000
    8.6497    1.6588   20.6442 O   0  0  0  0  0  0  0  0  0  0  0  0
    8.3159    0.3529   21.1223 S   0  0  0  0  0  0  0  0  0  0  0  0
    7.7816    0.1974   22.4397 O   0  0  0  0  0  0  0  0  0  0  0  0
    9.6641   -0.5227   21.0615 N   0  0  0  0  0  0  0  0  0  0  0  0
   10.4911   -0.7073   22.2670 C   0  0  0  0  0  0  0  0  0  0  0  0
   11.4086   -1.8816   22.1011 C   0  0  0  0  0  0  0  0  0  0  0  0
   12.2216   -2.2552   23.3148 C   0  0  0  0  0  0  0  0  0  0  0  0
   13.4330   -1.3977   23.5843 C   0  0  0  0  0  0  0  0  0  0  0  0
   13.2780    0.0840   23.7837 C   0  0  0  0  0  0  0  0  0  0  0  0
   11.9000    0.6552   23.8872 C   0  0  0  0  0  0  0  0  0  0  0  0
   11.1019    0.6088   22.6189 C   0  0  0  0  0  0  0  0  0  0  0  0
    7.1743   -0.3560   19.9933 C   0  0  0  0  0  0  0  0  0  0  0  0
    6.7302    0.3567   18.8562 C   0  0  0  0  0  0  0  0  0  0  0  0
    5.8530   -0.3833   18.1249 C   0  0  0  0  0  0  0  0  0  0  0  0
    5.5613   -1.9267   18.7962 S   0  0  0  0  0  0  0  0  0  0  0  0
    6.6355   -1.6110   20.1073 C   0  0  0  0  0  0  0  0  0  0  0  0
    6.8063   -2.6622   21.0911 C   0  0  0  0  0  0  0  0  0  0  0  0
    6.1311   -3.7682   21.1451 N   0  0  0  0  0  0  0  0  0  0  0  0
    6.6836   -4.3760   22.2335 C   0  0  0  0  0  0  0  0  0  0  0  0
    7.6329   -3.7202   22.8342 N   0  0  0  0  0  0  0  0  0  0  0  0
    7.7316   -2.5370   22.0591 O   0  0  0  0  0  0  0  0  0  0  0  0
    6.1889   -5.7258   22.6825 C   0  0  0  0  0  0  0  0  0  0  0  0
    5.5128   -5.6498   24.0437 C   0  0  0  0  0  0  0  0  0  0  0  0
    4.1042   -5.9724   23.8209 C   0  0  0  0  0  0  0  0  0  0  0  0
    3.8928   -6.1543   22.4370 C   0  0  0  0  0  0  0  0  0  0  0  0
    5.1827   -6.2649   21.7629 N   0  0  0  0  0  0  0  0  0  0  0  0
  1  2  2  0
  2  3  2  0
  2  4  1  0
  4  5  1  0
  5  6  1  0
  6  7  1  0
  7  8  1  0
  8  9  1  0
  9 10  1  0
 10 11  1  0
  2 12  1  0
 12 13  1  0
 13 14  2  0
 14 15  1  0
 15 16  1  0
 16 17  1  0
 17 18  2  0
 18 19  1  0
 19 20  2  0
 20 21  1  0
 19 22  1  0
 22 23  1  0
 23 24  1  0
 24 25  1  0
 25 26  1  0
 11  5  1  0
 16 12  2  0
 21 17  1  0
 26 22  1  0
M  END
