CVD-0002582|dock_bobby27042020.19|mol2|20|dock2
     RDKit          3D

 37 40  0  0  0  0  0  0  0  0999 V2000
    5.5089   -7.3792   32.4149 C   0  0  0  0  0  0  0  0  0  0  0  0
    6.0195   -6.5831   31.2959 N   0  0  0  0  0  0  0  0  0  0  0  0
    6.3280   -7.3589   30.0898 C   0  0  0  0  0  0  0  0  0  0  0  0
    6.7977   -6.4753   28.9641 C   0  0  0  0  0  0  0  0  0  0  0  0
    6.1323   -5.3255   28.5024 C   0  0  0  0  0  0  0  0  0  0  0  0
    6.8388   -4.7608   27.4577 C   0  0  0  0  0  0  0  0  0  0  0  0
    6.4498   -3.5424   26.7079 C   0  0  0  0  0  0  0  0  0  0  0  0
    7.4459   -2.5887   26.4910 C   0  0  0  0  0  0  0  0  0  0  0  0
    7.1896   -1.4453   25.7530 C   0  0  0  0  0  0  0  0  0  0  0  0
    5.9385   -1.2250   25.2217 C   0  0  0  0  0  0  0  0  0  0  0  0
    4.9202   -2.1325   25.4520 C   0  0  0  0  0  0  0  0  0  0  0  0
    5.1877   -3.2476   26.2105 C   0  0  0  0  0  0  0  0  0  0  0  0
    4.1462   -4.0640   26.4801 F   0  0  0  0  0  0  0  0  0  0  0  0
    7.9921   -5.5730   27.2802 N   0  0  0  0  0  0  0  0  0  0  0  0
    7.9479   -6.6131   28.2004 C   0  0  0  0  0  0  0  0  0  0  0  0
    9.3121   -5.4611   26.2202 S   0  0  0  0  0  0  0  0  0  0  0  0
    9.5321   -6.7965   25.7589 O   0  0  0  0  0  0  0  0  0  0  0  0
   10.3657   -4.7765   26.9024 O   0  0  0  0  0  0  0  0  0  0  0  0
    8.7620   -4.5119   24.8438 C   0  0  0  0  0  0  0  0  0  0  0  0
    7.5802   -4.8499   24.2053 C   0  0  0  0  0  0  0  0  0  0  0  0
    7.1597   -4.0964   23.1228 C   0  0  0  0  0  0  0  0  0  0  0  0
    7.9121   -3.0217   22.6793 C   0  0  0  0  0  0  0  0  0  0  0  0
    9.0949   -2.7001   23.3223 C   0  0  0  0  0  0  0  0  0  0  0  0
    9.8350   -1.5981   22.8403 O   0  0  0  0  0  0  0  0  0  0  0  0
   11.1889   -1.5010   22.9457 C   0  0  0  0  0  0  0  0  0  0  0  0
   11.9678   -2.4332   23.0617 O   0  0  0  0  0  0  0  0  0  0  0  0
   11.6552   -0.0802   22.8949 C   0  0  0  0  0  0  0  0  0  0  0  0
   10.7533    0.9796   22.8692 C   0  0  0  0  0  0  0  0  0  0  0  0
   11.1984    2.2890   22.8216 C   0  0  0  0  0  0  0  0  0  0  0  0
   12.5589    2.5473   22.7979 C   0  0  0  0  0  0  0  0  0  0  0  0
   13.4730    1.5072   22.8250 C   0  0  0  0  0  0  0  0  0  0  0  0
   13.0165    0.2022   22.8724 C   0  0  0  0  0  0  0  0  0  0  0  0
   13.1331    4.2178   22.7434 S   0  0  0  0  0  0  0  0  0  0  0  0
   12.7304    4.8467   21.3273 N   0  0  0  0  0  0  0  0  0  0  0  0
   14.5637    4.1804   22.7987 O   0  0  0  0  0  0  0  0  0  0  0  0
   12.4209    4.9479   23.7488 O   0  0  0  0  0  0  0  0  0  0  0  0
    9.5275   -3.4386   24.4140 C   0  0  0  0  0  0  0  0  0  0  0  0
  1  2  1  0
  2  3  1  0
  3  4  1  0
  4  5  1  0
  5  6  2  0
  6  7  1  0
  7  8  2  0
  8  9  1  0
  9 10  2  0
 10 11  1  0
 11 12  2  0
 12 13  1  0
  6 14  1  0
 14 15  1  0
 14 16  1  0
 16 17  2  0
 16 18  2  0
 16 19  1  0
 19 20  2  0
 20 21  1  0
 21 22  2  0
 22 23  1  0
 23 24  1  0
 24 25  1  0
 25 26  2  0
 25 27  1  0
 27 28  2  0
 28 29  1  0
 29 30  2  0
 30 31  1  0
 31 32  2  0
 30 33  1  0
 33 34  1  0
 33 35  2  0
 33 36  2  0
 23 37  2  0
 15  4  2  0
 37 19  1  0
 12  7  1  0
 32 27  1  0
M  END
