CVD-0002208|dock_bobby27042020.35|mol2|16|dock1
     RDKit          3D

 22 24  0  0  0  0  0  0  0  0999 V2000
   10.1172    5.5800   23.1207 C   0  0  0  0  0  0  0  0  0  0  0  0
   11.1909    4.6140   22.7283 C   0  0  0  0  0  0  0  0  0  0  0  0
   10.6566    3.2757   22.5358 N   0  0  0  0  0  0  0  0  0  0  0  0
   11.3561    2.1234   22.8192 C   0  0  0  0  0  0  0  0  0  0  0  0
   12.7476    2.0938   22.7141 C   0  0  0  0  0  0  0  0  0  0  0  0
   13.4466    0.9339   22.9964 C   0  0  0  0  0  0  0  0  0  0  0  0
   12.7717   -0.2145   23.3888 C   0  0  0  0  0  0  0  0  0  0  0  0
   11.3854   -0.1904   23.4974 C   0  0  0  0  0  0  0  0  0  0  0  0
   10.6654    0.9661   23.2188 C   0  0  0  0  0  0  0  0  0  0  0  0
    9.1533    0.9283   23.3540 C   0  0  0  0  0  0  0  0  0  0  0  0
    8.4128    0.8567   22.0339 C   0  0  0  0  0  0  0  0  0  0  0  0
    8.7945   -0.0478   21.0516 C   0  0  0  0  0  0  0  0  0  0  0  0
    8.1198   -0.1201   19.8432 C   0  0  0  0  0  0  0  0  0  0  0  0
    7.0411    0.7241   19.6022 C   0  0  0  0  0  0  0  0  0  0  0  0
    6.1524    0.8514   18.3995 C   0  0  0  0  0  0  0  0  0  0  0  0
    5.2462    1.8973   18.8217 N   0  0  0  0  0  0  0  0  0  0  0  0
    5.4901    2.3844   20.0521 C   0  0  0  0  0  0  0  0  0  0  0  0
    4.8411    3.2674   20.6036 O   0  0  0  0  0  0  0  0  0  0  0  0
    6.6510    1.6295   20.5724 C   0  0  0  0  0  0  0  0  0  0  0  0
    7.3329    1.6980   21.7860 C   0  0  0  0  0  0  0  0  0  0  0  0
   13.4976   -1.4255   23.6829 C   0  0  0  0  0  0  0  0  0  0  0  0
   14.0476   -2.4023   23.9026 N   0  0  0  0  0  0  0  0  0  0  0  0
  1  2  1  0
  2  3  1  0
  3  4  1  0
  4  5  2  0
  5  6  1  0
  6  7  2  0
  7  8  1  0
  8  9  2  0
  9 10  1  0
 10 11  1  0
 11 12  2  0
 12 13  1  0
 13 14  2  0
 14 15  1  0
 15 16  1  0
 16 17  1  0
 17 18  2  0
 17 19  1  0
 19 20  2  0
  7 21  1  0
 21 22  3  0
  9  4  1  0
 20 11  1  0
 19 14  1  0
M  END
