CVD-0002901|dock_bobby27042020.18|mol2|19|dock2
     RDKit          3D

 19 21  0  0  0  0  0  0  0  0999 V2000
    8.5343    0.0441   22.6973 O   0  0  0  0  0  0  0  0  0  0  0  0
    9.1390   -0.5305   21.7972 C   0  0  0  0  0  0  0  0  0  0  0  0
   10.4106   -1.3046   22.0732 C   0  0  0  0  0  0  0  0  0  0  0  0
   11.3461   -0.6419   23.0395 C   0  0  0  0  0  0  0  0  0  0  0  0
   11.4937    0.6964   23.2580 C   0  0  0  0  0  0  0  0  0  0  0  0
   12.4448    0.9258   24.2165 N   0  0  0  0  0  0  0  0  0  0  0  0
   12.9342   -0.2751   24.6391 C   0  0  0  0  0  0  0  0  0  0  0  0
   13.8805   -0.4879   25.5692 N   0  0  0  0  0  0  0  0  0  0  0  0
   14.1945   -1.7676   25.8132 C   0  0  0  0  0  0  0  0  0  0  0  0
   13.6081   -2.8382   25.1726 C   0  0  0  0  0  0  0  0  0  0  0  0
   12.6337   -2.6008   24.2159 C   0  0  0  0  0  0  0  0  0  0  0  0
   12.2709   -1.2873   23.9251 C   0  0  0  0  0  0  0  0  0  0  0  0
    8.7361   -0.5064   20.5249 N   0  0  0  0  0  0  0  0  0  0  0  0
    7.5365    0.2075   20.0872 C   0  0  0  0  0  0  0  0  0  0  0  0
    7.3894    0.2152   18.5736 C   0  0  0  0  0  0  0  0  0  0  0  0
    6.0740    0.8801   18.1735 C   0  0  0  0  0  0  0  0  0  0  0  0
    4.9452    0.1776   18.7957 N   0  0  0  0  0  0  0  0  0  0  0  0
    5.0415    0.2136   20.2613 C   0  0  0  0  0  0  0  0  0  0  0  0
    6.3295   -0.4559   20.7241 C   0  0  0  0  0  0  0  0  0  0  0  0
  1  2  2  0
  2  3  1  0
  3  4  1  0
  4  5  2  0
  5  6  1  0
  6  7  1  0
  7  8  2  0
  8  9  1  0
  9 10  2  0
 10 11  1  0
 11 12  2  0
  2 13  1  0
 13 14  1  0
 14 15  1  0
 15 16  1  0
 16 17  1  0
 17 18  1  0
 18 19  1  0
 12  4  1  0
 19 14  1  0
 12  7  1  0
M  END
