CVD-0000614|dock_bobby27042020.26|mol2|40|dock1
     RDKit          3D

 20 22  0  0  0  0  0  0  0  0999 V2000
    9.0499    0.4991   22.9446 O   0  0  0  0  0  0  0  0  0  0  0  0
    9.3510   -0.1362   21.9390 C   0  0  0  0  0  0  0  0  0  0  0  0
    8.3319   -0.3016   20.8327 C   0  0  0  0  0  0  0  0  0  0  0  0
    7.3010   -1.4104   21.0931 C   0  0  0  0  0  0  0  0  0  0  0  0
    6.9894   -1.7712   22.5426 C   0  0  0  0  0  0  0  0  0  0  0  0
    7.7934   -2.7178   21.7048 C   0  0  0  0  0  0  0  0  0  0  0  0
    6.2124   -1.4672   20.1255 O   0  0  0  0  0  0  0  0  0  0  0  0
    5.4941   -0.3487   19.6597 C   0  0  0  0  0  0  0  0  0  0  0  0
    5.5542   -0.0164   18.3177 C   0  0  0  0  0  0  0  0  0  0  0  0
    4.8469    1.0820   17.8583 C   0  0  0  0  0  0  0  0  0  0  0  0
    4.0906    1.8371   18.7291 C   0  0  0  0  0  0  0  0  0  0  0  0
    4.0368    1.5011   20.0651 C   0  0  0  0  0  0  0  0  0  0  0  0
    4.7393    0.4064   20.5408 C   0  0  0  0  0  0  0  0  0  0  0  0
   10.5844   -0.6942   21.8092 N   0  0  0  0  0  0  0  0  0  0  0  0
   11.7579   -0.7516   22.6098 C   0  0  0  0  0  0  0  0  0  0  0  0
   12.7093   -1.7039   22.2640 C   0  0  0  0  0  0  0  0  0  0  0  0
   13.8799   -1.8146   22.9930 C   0  0  0  0  0  0  0  0  0  0  0  0
   14.0744   -0.9656   24.0562 C   0  0  0  0  0  0  0  0  0  0  0  0
   13.1849   -0.0428   24.4191 N   0  0  0  0  0  0  0  0  0  0  0  0
   12.0538    0.0511   23.7127 C   0  0  0  0  0  0  0  0  0  0  0  0
  1  2  2  0
  2  3  1  0
  3  4  1  0
  4  5  1  0
  5  6  1  0
  4  7  1  0
  7  8  1  0
  8  9  2  0
  9 10  1  0
 10 11  2  0
 11 12  1  0
 12 13  2  0
  2 14  1  0
 14 15  1  0
 15 16  2  0
 16 17  1  0
 17 18  2  0
 18 19  1  0
 19 20  2  0
  6  4  1  0
 13  8  1  0
 20 15  1  0
M  END
