CVD-0003774|dock_bobby27042020.1|mol2|4|dock2
     RDKit          3D

 25 27  0  0  0  0  0  0  0  0999 V2000
   12.5704   -2.3575   22.8297 C   0  0  0  0  0  0  0  0  0  0  0  0
   11.8883   -1.1193   23.1703 N   0  0  0  0  0  0  0  0  0  0  0  0
   10.5447   -1.2288   23.7406 C   0  0  0  0  0  0  0  0  0  0  0  0
    9.4261   -1.3177   22.7109 C   0  0  0  0  0  0  0  0  0  0  0  0
    8.0448   -1.3220   23.3752 C   0  0  0  0  0  0  0  0  0  0  0  0
    6.9525   -1.4130   22.3476 C   0  0  0  0  0  0  0  0  0  0  0  0
    7.0374   -0.3362   21.3564 N   0  0  0  0  0  0  0  0  0  0  0  0
    8.3564   -0.2677   20.6856 C   0  0  0  0  0  0  0  0  0  0  0  0
    9.4748   -0.1968   21.7035 C   0  0  0  0  0  0  0  0  0  0  0  0
    5.9329    0.3969   20.9439 C   0  0  0  0  0  0  0  0  0  0  0  0
    5.1012    1.0183   21.8706 C   0  0  0  0  0  0  0  0  0  0  0  0
    3.9987    1.7496   21.4655 C   0  0  0  0  0  0  0  0  0  0  0  0
    3.7171    1.8724   20.1165 C   0  0  0  0  0  0  0  0  0  0  0  0
    4.5293    1.2631   19.1769 C   0  0  0  0  0  0  0  0  0  0  0  0
    5.6266    0.5305   19.5930 C   0  0  0  0  0  0  0  0  0  0  0  0
    2.3088    2.8025   19.5924 S   0  0  0  0  0  0  0  0  0  0  0  0
    2.5494    4.3408   19.9652 N   0  0  0  0  0  0  0  0  0  0  0  0
    2.2476    2.7175   18.1641 O   0  0  0  0  0  0  0  0  0  0  0  0
    1.1879    2.3508   20.3608 O   0  0  0  0  0  0  0  0  0  0  0  0
   12.5132    0.0594   23.0311 C   0  0  0  0  0  0  0  0  0  0  0  0
   13.7839    0.2495   22.5832 C   0  0  0  0  0  0  0  0  0  0  0  0
   14.1533    1.5924   22.5495 C   0  0  0  0  0  0  0  0  0  0  0  0
   13.1643    2.4028   22.9702 C   0  0  0  0  0  0  0  0  0  0  0  0
   13.2130    4.2698   23.0925 Br  0  0  0  0  0  0  0  0  0  0  0  0
   11.7418    1.5591   23.4245 S   0  0  0  0  0  0  0  0  0  0  0  0
  1  2  1  0
  2  3  1  0
  3  4  1  0
  4  5  1  0
  5  6  1  0
  6  7  1  0
  7  8  1  0
  8  9  1  0
  7 10  1  0
 10 11  2  0
 11 12  1  0
 12 13  2  0
 13 14  1  0
 14 15  2  0
 13 16  1  0
 16 17  1  0
 16 18  2  0
 16 19  2  0
  2 20  1  0
 20 21  2  0
 21 22  1  0
 22 23  2  0
 23 24  1  0
 23 25  1  0
  9  4  1  0
 15 10  1  0
 25 20  1  0
M  END
