CVD-0002605|dock_bobby27042020.76|mol2|34|dock2
     RDKit          3D

 45 51  0  0  0  0  0  0  0  0999 V2000
   13.4047    6.9951   23.7474 C   0  0  0  0  0  0  0  0  0  0  0  0
   13.1561    5.7369   22.9517 C   0  0  0  0  0  0  0  0  0  0  0  0
   12.9881    5.7863   21.5766 C   0  0  0  0  0  0  0  0  0  0  0  0
   12.7574    4.6300   20.8504 C   0  0  0  0  0  0  0  0  0  0  0  0
   12.6908    3.4073   21.4960 C   0  0  0  0  0  0  0  0  0  0  0  0
   12.8527    3.3317   22.8698 C   0  0  0  0  0  0  0  0  0  0  0  0
   12.7851    2.0039   23.5854 C   0  0  0  0  0  0  0  0  0  0  0  0
   12.0286    0.9883   22.8400 N   0  0  0  0  0  0  0  0  0  0  0  0
   10.6019    1.3094   22.8574 C   0  0  0  0  0  0  0  0  0  0  0  0
    9.8198    0.3445   21.9840 C   0  0  0  0  0  0  0  0  0  0  0  0
   10.0607   -1.0432   22.4058 N   0  0  0  0  0  0  0  0  0  0  0  0
   11.4801   -1.3904   22.5634 C   0  0  0  0  0  0  0  0  0  0  0  0
   12.1928   -0.3497   23.4104 C   0  0  0  0  0  0  0  0  0  0  0  0
    9.0599   -2.0041   22.4237 C   0  0  0  0  0  0  0  0  0  0  0  0
    8.3572   -2.3198   21.2666 C   0  0  0  0  0  0  0  0  0  0  0  0
    7.3434   -3.2583   21.3039 C   0  0  0  0  0  0  0  0  0  0  0  0
    6.4977   -3.5589   19.8201 Cl  0  0  0  0  0  0  0  0  0  0  0  0
    6.9883   -3.9422   22.4687 C   0  0  0  0  0  0  0  0  0  0  0  0
    7.7459   -3.6356   23.6023 C   0  0  0  0  0  0  0  0  0  0  0  0
    7.4838   -4.4781   25.0955 Cl  0  0  0  0  0  0  0  0  0  0  0  0
    8.7385   -2.6737   23.5989 C   0  0  0  0  0  0  0  0  0  0  0  0
    5.8733   -4.9378   22.4895 C   0  0  0  0  0  0  0  0  0  0  0  0
    4.6843   -4.6855   23.0852 C   0  0  0  0  0  0  0  0  0  0  0  0
    3.6306   -5.6502   23.0851 C   0  0  0  0  0  0  0  0  0  0  0  0
    2.3777   -5.4907   23.6691 C   0  0  0  0  0  0  0  0  0  0  0  0
    1.4374   -6.4396   23.6234 N   0  0  0  0  0  0  0  0  0  0  0  0
    1.7545   -7.5721   22.9780 C   0  0  0  0  0  0  0  0  0  0  0  0
    2.9204   -7.8441   22.3805 N   0  0  0  0  0  0  0  0  0  0  0  0
    3.8460   -6.8763   22.4466 C   0  0  0  0  0  0  0  0  0  0  0  0
    5.0657   -7.1112   21.8556 N   0  0  0  0  0  0  0  0  0  0  0  0
    6.0980   -6.2284   21.8416 C   0  0  0  0  0  0  0  0  0  0  0  0
    7.1561   -6.5521   21.3040 O   0  0  0  0  0  0  0  0  0  0  0  0
    0.7228   -8.6318   22.9162 C   0  0  0  0  0  0  0  0  0  0  0  0
    0.7112   -9.5137   24.1624 C   0  0  0  0  0  0  0  0  0  0  0  0
   -0.3304  -10.6069   23.9986 C   0  0  0  0  0  0  0  0  0  0  0  0
   -1.6590  -10.0345   23.8057 N   0  0  0  0  0  0  0  0  0  0  0  0
   -2.6723  -11.0898   23.7423 C   0  0  0  0  0  0  0  0  0  0  0  0
   -2.4487  -12.0921   22.6381 C   0  0  0  0  0  0  0  0  0  0  0  0
   -2.9824  -11.9878   21.3300 C   0  0  0  0  0  0  0  0  0  0  0  0
   -2.6535  -13.0170   20.5006 C   0  0  0  0  0  0  0  0  0  0  0  0
   -1.6771  -14.1312   21.3308 S   0  0  0  0  0  0  0  0  0  0  0  0
   -1.7126  -13.2300   22.7721 C   0  0  0  0  0  0  0  0  0  0  0  0
   -1.6563   -9.2423   22.5709 C   0  0  0  0  0  0  0  0  0  0  0  0
   -0.6741   -8.0849   22.6617 C   0  0  0  0  0  0  0  0  0  0  0  0
   13.0845    4.5026   23.5798 C   0  0  0  0  0  0  0  0  0  0  0  0
  1  2  1  0
  2  3  2  0
  3  4  1  0
  4  5  2  0
  5  6  1  0
  6  7  1  0
  7  8  1  0
  8  9  1  0
  9 10  1  0
 10 11  1  0
 11 12  1  0
 12 13  1  0
 11 14  1  0
 14 15  2  0
 15 16  1  0
 16 17  1  0
 16 18  2  0
 18 19  1  0
 19 20  1  0
 19 21  2  0
 18 22  1  0
 22 23  2  0
 23 24  1  0
 24 25  2  0
 25 26  1  0
 26 27  2  0
 27 28  1  0
 28 29  2  0
 29 30  1  0
 30 31  1  0
 31 32  2  0
 27 33  1  0
 33 34  1  0
 34 35  1  0
 35 36  1  0
 36 37  1  0
 37 38  1  0
 38 39  1  0
 39 40  2  0
 40 41  1  0
 41 42  1  0
 36 43  1  0
 43 44  1  0
  6 45  2  0
 45  2  1  0
 13  8  1  0
 21 14  1  0
 31 22  1  0
 44 33  1  0
 29 24  1  0
 42 38  2  0
M  END
