CVD-0003350|dock_bobby27042020.2|mol2|21|dock1
     RDKit          3D

 32 34  0  0  0  0  0  0  0  0999 V2000
   10.4978   -5.5932   26.1450 C   0  0  0  0  0  0  0  0  0  0  0  0
    9.2522   -5.9075   25.3675 C   0  0  0  0  0  0  0  0  0  0  0  0
    8.5440   -6.8151   25.7925 O   0  0  0  0  0  0  0  0  0  0  0  0
    8.9052   -5.1644   24.1869 N   0  0  0  0  0  0  0  0  0  0  0  0
    9.7175   -4.0696   23.6854 C   0  0  0  0  0  0  0  0  0  0  0  0
   10.8759   -4.0028   24.0652 O   0  0  0  0  0  0  0  0  0  0  0  0
    9.3021   -3.0952   22.8244 N   0  0  0  0  0  0  0  0  0  0  0  0
   10.2736   -2.3213   22.0692 C   0  0  0  0  0  0  0  0  0  0  0  0
   10.0344   -0.8551   22.2485 C   0  0  0  0  0  0  0  0  0  0  0  0
    8.6478   -0.5462   21.8716 N   0  0  0  0  0  0  0  0  0  0  0  0
    7.6804   -1.2786   22.7024 C   0  0  0  0  0  0  0  0  0  0  0  0
    7.9067   -2.7518   22.5330 C   0  0  0  0  0  0  0  0  0  0  0  0
    8.3109    0.9986   21.4723 S   0  0  0  0  0  0  0  0  0  0  0  0
    8.0746    1.7028   22.6942 O   0  0  0  0  0  0  0  0  0  0  0  0
    9.3729    1.4265   20.6156 O   0  0  0  0  0  0  0  0  0  0  0  0
    6.8119    0.9947   20.5097 C   0  0  0  0  0  0  0  0  0  0  0  0
    5.7107    1.6090   21.0944 C   0  0  0  0  0  0  0  0  0  0  0  0
    4.4886    1.6641   20.4342 C   0  0  0  0  0  0  0  0  0  0  0  0
    4.3901    1.0943   19.1725 C   0  0  0  0  0  0  0  0  0  0  0  0
    5.4890    0.4893   18.5925 C   0  0  0  0  0  0  0  0  0  0  0  0
    6.7268    0.4185   19.2294 C   0  0  0  0  0  0  0  0  0  0  0  0
    7.8647   -0.2597   18.5120 C   0  0  0  0  0  0  0  0  0  0  0  0
    3.3043    2.3216   21.0658 C   0  0  0  0  0  0  0  0  0  0  0  0
    2.0329    2.4766   20.2931 C   0  0  0  0  0  0  0  0  0  0  0  0
    3.3709    2.7174   22.2173 O   0  0  0  0  0  0  0  0  0  0  0  0
    7.6376   -5.4698   23.5418 C   0  0  0  0  0  0  0  0  0  0  0  0
    7.5993   -5.7849   22.2200 C   0  0  0  0  0  0  0  0  0  0  0  0
    6.4613   -6.0769   21.5485 N   0  0  0  0  0  0  0  0  0  0  0  0
    5.1623   -6.0506   22.2389 C   0  0  0  0  0  0  0  0  0  0  0  0
    5.2427   -5.7452   23.6667 C   0  0  0  0  0  0  0  0  0  0  0  0
    6.3893   -5.4468   24.3031 C   0  0  0  0  0  0  0  0  0  0  0  0
    6.2805   -5.0424   25.7482 C   0  0  0  0  0  0  0  0  0  0  0  0
  1  2  1  0
  2  3  2  0
  2  4  1  0
  4  5  1  0
  5  6  2  0
  5  7  1  0
  7  8  1  0
  8  9  1  0
  9 10  1  0
 10 11  1  0
 11 12  1  0
 10 13  1  0
 13 14  2  0
 13 15  2  0
 13 16  1  0
 16 17  2  0
 17 18  1  0
 18 19  2  0
 19 20  1  0
 20 21  2  0
 21 22  1  0
 18 23  1  0
 23 24  1  0
 23 25  2  0
  4 26  1  0
 26 27  2  0
 27 28  1  0
 28 29  1  0
 29 30  1  0
 30 31  2  0
 31 32  1  0
 12  7  1  0
 21 16  1  0
 31 26  1  0
M  END
