CVD-0003237|dock_bobby27042020.31|mol2|30|dock1
     RDKit          3D

 28 30  0  0  0  0  0  0  0  0999 V2000
    6.5795   -1.2316   18.3337 C   0  0  0  0  0  0  0  0  0  0  0  0
    7.7384   -0.3253   18.6086 C   0  0  0  0  0  0  0  0  0  0  0  0
    8.6269   -0.8819   19.6223 N   0  0  0  0  0  0  0  0  0  0  0  0
    8.3615   -0.8246   20.9273 C   0  0  0  0  0  0  0  0  0  0  0  0
    7.3327   -0.3297   21.3801 O   0  0  0  0  0  0  0  0  0  0  0  0
    9.4081   -1.4243   21.8621 C   0  0  0  0  0  0  0  0  0  0  0  0
   10.7816   -0.7715   21.6712 C   0  0  0  0  0  0  0  0  0  0  0  0
   11.8748   -1.1291   22.6721 C   0  0  0  0  0  0  0  0  0  0  0  0
   13.2729   -0.8293   22.2370 C   0  0  0  0  0  0  0  0  0  0  0  0
   13.8539    0.0480   23.1067 C   0  0  0  0  0  0  0  0  0  0  0  0
   12.9559    0.4024   24.1197 N   0  0  0  0  0  0  0  0  0  0  0  0
   11.7546   -0.2657   23.9569 C   0  0  0  0  0  0  0  0  0  0  0  0
   10.7743   -0.1894   24.6928 O   0  0  0  0  0  0  0  0  0  0  0  0
    9.0064   -1.2968   23.2635 N   0  0  0  0  0  0  0  0  0  0  0  0
    7.9970   -2.2560   23.7222 C   0  0  0  0  0  0  0  0  0  0  0  0
    7.8638   -2.2275   25.2331 C   0  0  0  0  0  0  0  0  0  0  0  0
    6.7989   -3.2420   25.6813 C   0  0  0  0  0  0  0  0  0  0  0  0
    7.4738   -4.1157   26.7368 C   0  0  0  0  0  0  0  0  0  0  0  0
    7.1455   -5.6222   26.5904 C   0  0  0  0  0  0  0  0  0  0  0  0
    5.7074   -6.0675   26.3922 C   0  0  0  0  0  0  0  0  0  0  0  0
    5.0866   -6.0886   27.7759 C   0  0  0  0  0  0  0  0  0  0  0  0
    6.3684   -6.6951   28.9090 S   0  0  0  0  0  0  0  0  0  0  0  0
    7.7148   -6.4673   27.7170 C   0  0  0  0  0  0  0  0  0  0  0  0
    8.7803   -3.7445   26.8251 C   0  0  0  0  0  0  0  0  0  0  0  0
    9.1727   -2.6203   26.0008 C   0  0  0  0  0  0  0  0  0  0  0  0
    9.8696   -4.7631   26.5472 C   0  0  0  0  0  0  0  0  0  0  0  0
    9.9305   -5.2413   25.3157 N   0  0  0  0  0  0  0  0  0  0  0  0
   10.6448   -5.1362   27.4305 O   0  0  0  0  0  0  0  0  0  0  0  0
  1  2  1  0
  2  3  1  0
  3  4  1  0
  4  5  2  0
  4  6  1  0
  6  7  1  0
  7  8  1  0
  8  9  1  0
  9 10  2  0
 10 11  1  0
 11 12  1  0
 12 13  2  0
  6 14  1  0
 14 15  1  0
 15 16  1  0
 16 17  1  0
 17 18  1  0
 18 19  1  0
 19 20  1  0
 20 21  1  0
 21 22  1  0
 22 23  1  0
 18 24  1  0
 24 25  1  0
 24 26  1  0
 26 27  1  0
 26 28  2  0
 12  8  1  0
 25 16  1  0
 23 19  1  0
M  END
