CVD-0000332|dock_bobby27042020.42|mol2|4|dock2
     RDKit          3D

 33 36  0  0  0  0  0  0  0  0999 V2000
    9.3882   -4.8244   25.7827 C   0  0  0  0  0  0  0  0  0  0  0  0
    8.5434   -4.2465   24.7050 C   0  0  0  0  0  0  0  0  0  0  0  0
    9.2948   -3.2268   24.0357 O   0  0  0  0  0  0  0  0  0  0  0  0
    8.7359   -2.5157   23.0013 C   0  0  0  0  0  0  0  0  0  0  0  0
    7.4363   -2.6824   22.5543 C   0  0  0  0  0  0  0  0  0  0  0  0
    6.8941   -1.9650   21.5643 N   0  0  0  0  0  0  0  0  0  0  0  0
    7.6503   -1.0268   20.9714 C   0  0  0  0  0  0  0  0  0  0  0  0
    8.9695   -0.8074   21.3485 C   0  0  0  0  0  0  0  0  0  0  0  0
    9.5472   -1.5623   22.3685 C   0  0  0  0  0  0  0  0  0  0  0  0
   10.9783   -1.2817   22.6950 C   0  0  0  0  0  0  0  0  0  0  0  0
   11.8673   -2.2877   23.0764 C   0  0  0  0  0  0  0  0  0  0  0  0
   13.1762   -1.9671   23.3681 C   0  0  0  0  0  0  0  0  0  0  0  0
   14.2710   -3.2327   23.8502 Cl  0  0  0  0  0  0  0  0  0  0  0  0
   13.6420   -0.6720   23.2879 C   0  0  0  0  0  0  0  0  0  0  0  0
   12.7778    0.3463   22.9030 C   0  0  0  0  0  0  0  0  0  0  0  0
   11.4529    0.0279   22.6101 C   0  0  0  0  0  0  0  0  0  0  0  0
   13.3278    1.7430   22.8249 C   0  0  0  0  0  0  0  0  0  0  0  0
   14.5258    1.8965   22.6064 O   0  0  0  0  0  0  0  0  0  0  0  0
   12.4846    2.8199   22.9984 N   0  0  0  0  0  0  0  0  0  0  0  0
   12.8411    4.1442   22.9514 C   0  0  0  0  0  0  0  0  0  0  0  0
   13.5587    4.9197   22.0617 C   0  0  0  0  0  0  0  0  0  0  0  0
   13.5539    6.2208   22.6171 C   0  0  0  0  0  0  0  0  0  0  0  0
   12.8697    6.1614   23.7517 C   0  0  0  0  0  0  0  0  0  0  0  0
   12.4101    4.8946   23.9976 O   0  0  0  0  0  0  0  0  0  0  0  0
    7.0049   -0.2266   19.8811 C   0  0  0  0  0  0  0  0  0  0  0  0
    5.9948    0.7003   20.1905 C   0  0  0  0  0  0  0  0  0  0  0  0
    5.5163    0.9149   21.6026 C   0  0  0  0  0  0  0  0  0  0  0  0
    5.4098    1.4369   19.1646 C   0  0  0  0  0  0  0  0  0  0  0  0
    5.8687    1.1856   17.8942 C   0  0  0  0  0  0  0  0  0  0  0  0
    5.3281    1.8748   16.8646 F   0  0  0  0  0  0  0  0  0  0  0  0
    6.8000    0.3293   17.5400 N   0  0  0  0  0  0  0  0  0  0  0  0
    7.3481   -0.3418   18.5371 C   0  0  0  0  0  0  0  0  0  0  0  0
    8.6022   -1.4404   18.0558 Cl  0  0  0  0  0  0  0  0  0  0  0  0
  1  2  1  0
  2  3  1  0
  3  4  1  0
  4  5  2  0
  5  6  1  0
  6  7  2  0
  7  8  1  0
  8  9  2  0
  9 10  1  0
 10 11  2  0
 11 12  1  0
 12 13  1  0
 12 14  2  0
 14 15  1  0
 15 16  2  0
 15 17  1  0
 17 18  2  0
 17 19  1  0
 19 20  1  0
 20 21  2  0
 21 22  1  0
 22 23  2  0
 23 24  1  0
  7 25  1  0
 25 26  2  0
 26 27  1  0
 26 28  1  0
 28 29  2  0
 29 30  1  0
 29 31  1  0
 31 32  2  0
 32 33  1  0
  9  4  1  0
 16 10  1  0
 24 20  1  0
 32 25  1  0
M  END
