CVD-0000829|dock_bobby27042020.69|mol2|7|dock3
     RDKit          3D

 27 29  0  0  0  0  0  0  0  0999 V2000
    5.0640    1.5117   18.5967 C   0  0  0  0  0  0  0  0  0  0  0  0
    5.4435    0.1051   18.2376 C   0  0  0  0  0  0  0  0  0  0  0  0
    5.8605   -0.1902   17.1220 O   0  0  0  0  0  0  0  0  0  0  0  0
    5.2852   -0.8090   19.1969 N   0  0  0  0  0  0  0  0  0  0  0  0
    5.5927   -2.2180   18.9968 C   0  0  0  0  0  0  0  0  0  0  0  0
    6.2674   -2.8271   20.2096 C   0  0  0  0  0  0  0  0  0  0  0  0
    7.6346   -2.2637   20.4649 C   0  0  0  0  0  0  0  0  0  0  0  0
    8.2758   -1.2899   19.7560 C   0  0  0  0  0  0  0  0  0  0  0  0
    9.5108   -1.0417   20.2912 N   0  0  0  0  0  0  0  0  0  0  0  0
    9.6896   -1.8665   21.3743 C   0  0  0  0  0  0  0  0  0  0  0  0
   10.7813   -1.9824   22.2396 C   0  0  0  0  0  0  0  0  0  0  0  0
   12.0176   -1.1316   22.0661 C   0  0  0  0  0  0  0  0  0  0  0  0
   11.9677    0.1218   22.8326 N   0  0  0  0  0  0  0  0  0  0  0  0
   10.9756    1.0351   22.2578 C   0  0  0  0  0  0  0  0  0  0  0  0
   10.8987    2.3102   23.0770 C   0  0  0  0  0  0  0  0  0  0  0  0
   12.2100    2.9598   23.1363 N   0  0  0  0  0  0  0  0  0  0  0  0
   13.2385    2.0510   23.6520 C   0  0  0  0  0  0  0  0  0  0  0  0
   13.2741    0.7749   22.8308 C   0  0  0  0  0  0  0  0  0  0  0  0
   12.4056    4.2455   22.7807 C   0  0  0  0  0  0  0  0  0  0  0  0
   11.4889    4.9576   22.3906 O   0  0  0  0  0  0  0  0  0  0  0  0
   13.8262    4.7643   22.8852 C   0  0  0  0  0  0  0  0  0  0  0  0
   13.9203    6.4611   22.3961 Cl  0  0  0  0  0  0  0  0  0  0  0  0
   10.6976   -2.9144   23.2691 C   0  0  0  0  0  0  0  0  0  0  0  0
    9.5617   -3.6888   23.4144 C   0  0  0  0  0  0  0  0  0  0  0  0
    9.4893   -4.8451   24.7146 Cl  0  0  0  0  0  0  0  0  0  0  0  0
    8.4821   -3.5734   22.5597 C   0  0  0  0  0  0  0  0  0  0  0  0
    8.5314   -2.6510   21.5161 C   0  0  0  0  0  0  0  0  0  0  0  0
  1  2  1  0
  2  3  2  0
  2  4  1  0
  4  5  1  0
  5  6  1  0
  6  7  1  0
  7  8  2  0
  8  9  1  0
  9 10  1  0
 10 11  2  0
 11 12  1  0
 12 13  1  0
 13 14  1  0
 14 15  1  0
 15 16  1  0
 16 17  1  0
 17 18  1  0
 16 19  1  0
 19 20  2  0
 19 21  1  0
 21 22  1  0
 11 23  1  0
 23 24  2  0
 24 25  1  0
 24 26  1  0
 26 27  2  0
 27  7  1  0
 27 10  1  0
 18 13  1  0
M  END
