CVD-0003730|dock_bobby27042020.58|mol2|43|dock1
     RDKit          3D

 29 31  0  0  0  0  0  0  0  0999 V2000
    6.1884    0.9693   17.1029 O   0  0  0  0  0  0  0  0  0  0  0  0
    5.3305    0.2568   17.9997 C   0  0  0  0  0  0  0  0  0  0  0  0
    5.2069    0.9477   19.3591 C   0  0  0  0  0  0  0  0  0  0  0  0
    6.4942    0.8607   20.1844 C   0  0  0  0  0  0  0  0  0  0  0  0
    6.8827   -0.6004   20.3609 C   0  0  0  0  0  0  0  0  0  0  0  0
    7.0580   -1.3046   19.0188 C   0  0  0  0  0  0  0  0  0  0  0  0
    5.7780   -1.1871   18.1915 C   0  0  0  0  0  0  0  0  0  0  0  0
    8.0921   -0.7371   21.1970 N   0  0  0  0  0  0  0  0  0  0  0  0
    9.3708   -0.6374   20.4798 C   0  0  0  0  0  0  0  0  0  0  0  0
   10.5620   -0.3959   21.3773 C   0  0  0  0  0  0  0  0  0  0  0  0
   11.4634   -1.4239   21.6405 C   0  0  0  0  0  0  0  0  0  0  0  0
   12.5598   -1.2235   22.4631 C   0  0  0  0  0  0  0  0  0  0  0  0
   12.7773    0.0093   23.0406 C   0  0  0  0  0  0  0  0  0  0  0  0
   11.8983    1.0514   22.7993 C   0  0  0  0  0  0  0  0  0  0  0  0
   10.7913    0.8564   21.9714 C   0  0  0  0  0  0  0  0  0  0  0  0
    9.8840    1.9474   21.7288 C   0  0  0  0  0  0  0  0  0  0  0  0
    9.1557    2.7988   21.5060 N   0  0  0  0  0  0  0  0  0  0  0  0
    8.0807   -1.7552   22.2644 C   0  0  0  0  0  0  0  0  0  0  0  0
    7.7767   -3.1555   21.7373 C   0  0  0  0  0  0  0  0  0  0  0  0
    7.8394   -4.1515   22.8822 C   0  0  0  0  0  0  0  0  0  0  0  0
    6.8723   -3.8114   23.9208 N   0  0  0  0  0  0  0  0  0  0  0  0
    6.8703   -4.8131   24.9645 C   0  0  0  0  0  0  0  0  0  0  0  0
    8.1242   -4.8426   25.6740 O   0  0  0  0  0  0  0  0  0  0  0  0
    8.2881   -5.6812   26.6929 C   0  0  0  0  0  0  0  0  0  0  0  0
    7.5022   -6.5227   27.0758 O   0  0  0  0  0  0  0  0  0  0  0  0
    9.5660   -5.4744   27.3581 C   0  0  0  0  0  0  0  0  0  0  0  0
   10.5857   -5.2422   27.9003 C   0  0  0  0  0  0  0  0  0  0  0  0
    7.2113   -2.4928   24.4673 C   0  0  0  0  0  0  0  0  0  0  0  0
    7.1244   -1.4150   23.3979 C   0  0  0  0  0  0  0  0  0  0  0  0
  1  2  1  0
  2  3  1  0
  3  4  1  0
  4  5  1  0
  5  6  1  0
  6  7  1  0
  5  8  1  0
  8  9  1  0
  9 10  1  0
 10 11  2  0
 11 12  1  0
 12 13  2  0
 13 14  1  0
 14 15  2  0
 15 16  1  0
 16 17  3  0
  8 18  1  0
 18 19  1  0
 19 20  1  0
 20 21  1  0
 21 22  1  0
 22 23  1  0
 23 24  1  0
 24 25  2  0
 24 26  1  0
 26 27  3  0
 21 28  1  0
 28 29  1  0
  7  2  1  0
 15 10  1  0
 29 18  1  0
M  END
