CVD-0003466|dock_bobby27042020.45|mol2|16|dock1
     RDKit          3D

 26 28  0  0  0  0  0  0  0  0999 V2000
    1.4811   -5.8639   24.9007 C   0  0  0  0  0  0  0  0  0  0  0  0
    2.8671   -6.0802   24.4888 N   0  0  0  0  0  0  0  0  0  0  0  0
    2.9757   -6.4424   23.0756 C   0  0  0  0  0  0  0  0  0  0  0  0
    4.4121   -6.6898   22.7035 C   0  0  0  0  0  0  0  0  0  0  0  0
    5.2285   -5.5000   22.9616 N   0  0  0  0  0  0  0  0  0  0  0  0
    6.6210   -5.7174   22.5477 C   0  0  0  0  0  0  0  0  0  0  0  0
    7.3586   -4.4200   22.2633 C   0  0  0  0  0  0  0  0  0  0  0  0
    6.6670   -3.5926   21.2074 C   0  0  0  0  0  0  0  0  0  0  0  0
    5.6206   -3.9789   20.6976 O   0  0  0  0  0  0  0  0  0  0  0  0
    7.3194   -2.4390   20.9193 N   0  0  0  0  0  0  0  0  0  0  0  0
    7.0025   -1.4015   19.9984 C   0  0  0  0  0  0  0  0  0  0  0  0
    6.0950   -1.5632   18.9480 C   0  0  0  0  0  0  0  0  0  0  0  0
    5.8369   -0.5071   18.0920 C   0  0  0  0  0  0  0  0  0  0  0  0
    6.4859    0.6838   18.2999 C   0  0  0  0  0  0  0  0  0  0  0  0
    7.3588    0.8733   19.2931 N   0  0  0  0  0  0  0  0  0  0  0  0
    7.6207   -0.1411   20.1312 C   0  0  0  0  0  0  0  0  0  0  0  0
    8.6170    0.1626   21.2262 C   0  0  0  0  0  0  0  0  0  0  0  0
    9.8243   -0.6418   21.1099 N   0  0  0  0  0  0  0  0  0  0  0  0
   10.6453   -0.8367   22.1609 C   0  0  0  0  0  0  0  0  0  0  0  0
   10.4206   -0.3496   23.2659 O   0  0  0  0  0  0  0  0  0  0  0  0
   11.7312   -1.6031   21.9187 N   0  0  0  0  0  0  0  0  0  0  0  0
   12.7694   -1.8466   22.9203 C   0  0  0  0  0  0  0  0  0  0  0  0
   13.5987   -0.4314   22.8068 C   0  0  0  0  0  0  0  0  0  0  0  0
   13.2812   -1.0251   24.1316 C   0  0  0  0  0  0  0  0  0  0  0  0
    5.1198   -5.1378   24.3747 C   0  0  0  0  0  0  0  0  0  0  0  0
    3.6834   -4.8903   24.7469 C   0  0  0  0  0  0  0  0  0  0  0  0
  1  2  1  0
  2  3  1  0
  3  4  1  0
  4  5  1  0
  5  6  1  0
  6  7  1  0
  7  8  1  0
  8  9  2  0
  8 10  1  0
 10 11  1  0
 11 12  2  0
 12 13  1  0
 13 14  2  0
 14 15  1  0
 15 16  2  0
 16 17  1  0
 17 18  1  0
 18 19  1  0
 19 20  2  0
 19 21  1  0
 21 22  1  0
 22 23  1  0
 23 24  1  0
  5 25  1  0
 25 26  1  0
 26  2  1  0
 16 11  1  0
 24 22  1  0
M  END
