CVD-0000586|dock_bobby27042020.55|mol2|29|dock3
     RDKit          3D

 18 19  0  0  0  0  0  0  0  0999 V2000
    8.8937   -2.2578   19.9477 O   0  0  0  0  0  0  0  0  0  0  0  0
    8.0947   -1.1657   19.8234 C   0  0  0  0  0  0  0  0  0  0  0  0
    7.1850   -1.1747   18.7723 C   0  0  0  0  0  0  0  0  0  0  0  0
    6.3369   -0.1057   18.5582 C   0  0  0  0  0  0  0  0  0  0  0  0
    6.3986    0.9694   19.4133 C   0  0  0  0  0  0  0  0  0  0  0  0
    5.3351    2.3240   19.1554 Cl  0  0  0  0  0  0  0  0  0  0  0  0
    7.2815    1.0011   20.4726 C   0  0  0  0  0  0  0  0  0  0  0  0
    8.1653   -0.0611   20.6992 C   0  0  0  0  0  0  0  0  0  0  0  0
    9.1327    0.0149   21.8563 C   0  0  0  0  0  0  0  0  0  0  0  0
    8.7524    0.5445   22.8950 O   0  0  0  0  0  0  0  0  0  0  0  0
   10.3837   -0.5107   21.7126 N   0  0  0  0  0  0  0  0  0  0  0  0
   11.4626   -0.5713   22.6402 C   0  0  0  0  0  0  0  0  0  0  0  0
   11.5115    0.0912   23.8681 C   0  0  0  0  0  0  0  0  0  0  0  0
   12.5298    0.0062   24.7311 N   0  0  0  0  0  0  0  0  0  0  0  0
   13.5779   -0.7407   24.3943 C   0  0  0  0  0  0  0  0  0  0  0  0
   13.6562   -1.4336   23.2075 C   0  0  0  0  0  0  0  0  0  0  0  0
   12.5892   -1.3469   22.3325 C   0  0  0  0  0  0  0  0  0  0  0  0
   12.7278   -2.2453   20.8546 Cl  0  0  0  0  0  0  0  0  0  0  0  0
  1  2  1  0
  2  3  2  0
  3  4  1  0
  4  5  2  0
  5  6  1  0
  5  7  1  0
  7  8  2  0
  8  9  1  0
  9 10  2  0
  9 11  1  0
 11 12  1  0
 12 13  2  0
 13 14  1  0
 14 15  2  0
 15 16  1  0
 16 17  2  0
 17 18  1  0
  8  2  1  0
 17 12  1  0
M  END
