CVD-0002724|dock_bobby27042020.90|mol2|22|dock2
     RDKit          3D

 26 28  0  0  0  0  0  0  0  0999 V2000
   10.0499    6.4409   23.0678 O   0  0  0  0  0  0  0  0  0  0  0  0
   10.3581    5.1146   22.9815 C   0  0  0  0  0  0  0  0  0  0  0  0
   11.6361    4.6753   23.2874 C   0  0  0  0  0  0  0  0  0  0  0  0
   11.9419    3.3290   23.1973 C   0  0  0  0  0  0  0  0  0  0  0  0
   10.9890    2.4026   22.8033 C   0  0  0  0  0  0  0  0  0  0  0  0
   11.3292    0.9349   22.7108 C   0  0  0  0  0  0  0  0  0  0  0  0
   11.2800    0.2184   24.0647 C   0  0  0  0  0  0  0  0  0  0  0  0
    9.8885   -0.2838   24.4027 C   0  0  0  0  0  0  0  0  0  0  0  0
    9.4552   -1.2791   23.4176 N   0  0  0  0  0  0  0  0  0  0  0  0
    8.0855   -1.7270   23.7074 C   0  0  0  0  0  0  0  0  0  0  0  0
    7.5735   -2.7569   22.7290 C   0  0  0  0  0  0  0  0  0  0  0  0
    6.9153   -2.3700   21.5723 C   0  0  0  0  0  0  0  0  0  0  0  0
    6.4432   -3.3152   20.6770 C   0  0  0  0  0  0  0  0  0  0  0  0
    6.6229   -4.6650   20.9280 C   0  0  0  0  0  0  0  0  0  0  0  0
    7.2767   -5.0439   22.0798 C   0  0  0  0  0  0  0  0  0  0  0  0
    7.5101   -6.7377   22.4102 Cl  0  0  0  0  0  0  0  0  0  0  0  0
    7.7515   -4.1114   22.9793 C   0  0  0  0  0  0  0  0  0  0  0  0
   10.3892   -2.4019   23.4318 C   0  0  0  0  0  0  0  0  0  0  0  0
   11.7926   -1.9383   23.0858 C   0  0  0  0  0  0  0  0  0  0  0  0
   12.2293   -0.8959   24.0200 N   0  0  0  0  0  0  0  0  0  0  0  0
   13.3847   -0.9216   24.7301 C   0  0  0  0  0  0  0  0  0  0  0  0
   13.6874    0.0153   25.4584 O   0  0  0  0  0  0  0  0  0  0  0  0
   14.3140   -2.1156   24.6192 C   0  0  0  0  0  0  0  0  0  0  0  0
   13.6117   -3.5520   25.3746 Cl  0  0  0  0  0  0  0  0  0  0  0  0
    9.7145    2.8565   22.5016 C   0  0  0  0  0  0  0  0  0  0  0  0
    9.3949    4.1999   22.5874 C   0  0  0  0  0  0  0  0  0  0  0  0
  1  2  1  0
  2  3  2  0
  3  4  1  0
  4  5  2  0
  5  6  1  0
  7  6  1  0
  7  8  1  0
  8  9  1  0
  9 10  1  0
 10 11  1  0
 11 12  2  0
 12 13  1  0
 13 14  2  0
 14 15  1  0
 15 16  1  0
 15 17  2  0
  9 18  1  0
 18 19  1  0
 19 20  1  0
 20 21  1  0
 21 22  2  0
 21 23  1  0
 23 24  1  0
  5 25  1  0
 25 26  2  0
 26  2  1  0
 20  7  1  0
 17 11  1  0
M  END
