CVD-0000027|dock_bobby27042020.71|mol2|38|dock1
     RDKit          3D

 36 39  0  0  0  0  0  0  0  0999 V2000
   13.8948    5.7298   21.8009 C   0  0  0  0  0  0  0  0  0  0  0  0
   12.7642    5.2283   22.6983 C   0  0  0  0  0  0  0  0  0  0  0  0
   12.9045    5.8518   24.0864 C   0  0  0  0  0  0  0  0  0  0  0  0
   12.7752    3.7218   22.7836 C   0  0  0  0  0  0  0  0  0  0  0  0
   13.9090    2.9864   22.4944 C   0  0  0  0  0  0  0  0  0  0  0  0
   13.7827    1.6184   22.6081 C   0  0  0  0  0  0  0  0  0  0  0  0
   12.6484    1.0075   22.9725 N   0  0  0  0  0  0  0  0  0  0  0  0
   11.6004    1.7993   23.2315 C   0  0  0  0  0  0  0  0  0  0  0  0
   11.6237    3.1393   23.1494 N   0  0  0  0  0  0  0  0  0  0  0  0
   10.4248    1.2347   23.6053 N   0  0  0  0  0  0  0  0  0  0  0  0
   10.5144    0.0063   24.4074 C   0  0  0  0  0  0  0  0  0  0  0  0
    9.8466   -1.1738   23.7436 C   0  0  0  0  0  0  0  0  0  0  0  0
   10.0085   -1.4312   22.3919 C   0  0  0  0  0  0  0  0  0  0  0  0
    9.3683   -2.5285   21.8423 C   0  0  0  0  0  0  0  0  0  0  0  0
    8.5868   -3.3375   22.6481 C   0  0  0  0  0  0  0  0  0  0  0  0
    8.4770   -3.0078   23.9950 C   0  0  0  0  0  0  0  0  0  0  0  0
    9.0937   -1.9435   24.5447 N   0  0  0  0  0  0  0  0  0  0  0  0
    7.6761   -3.8131   24.8865 C   0  0  0  0  0  0  0  0  0  0  0  0
    6.9825   -4.4455   25.5978 C   0  0  0  0  0  0  0  0  0  0  0  0
    9.1295    1.6591   23.2823 C   0  0  0  0  0  0  0  0  0  0  0  0
    8.1579    1.1372   23.8170 O   0  0  0  0  0  0  0  0  0  0  0  0
    8.9587    2.6642   22.3700 N   0  0  0  0  0  0  0  0  0  0  0  0
    7.6762    3.1710   21.9776 C   0  0  0  0  0  0  0  0  0  0  0  0
    7.4253    4.5274   22.2127 C   0  0  0  0  0  0  0  0  0  0  0  0
    8.4918    5.4355   22.7481 C   0  0  0  0  0  0  0  0  0  0  0  0
    6.2244    5.0574   21.9814 N   0  0  0  0  0  0  0  0  0  0  0  0
    5.2466    4.2599   21.5390 C   0  0  0  0  0  0  0  0  0  0  0  0
    5.4327    2.9308   21.2232 C   0  0  0  0  0  0  0  0  0  0  0  0
    6.6923    2.3613   21.3795 C   0  0  0  0  0  0  0  0  0  0  0  0
    6.9124    0.9375   20.9044 C   0  0  0  0  0  0  0  0  0  0  0  0
    6.0604    0.4814   19.7900 N   0  0  0  0  0  0  0  0  0  0  0  0
    6.2337    1.3304   18.6082 C   0  0  0  0  0  0  0  0  0  0  0  0
    5.3562    0.8422   17.5029 C   0  0  0  0  0  0  0  0  0  0  0  0
    5.6588   -0.5022   17.1477 O   0  0  0  0  0  0  0  0  0  0  0  0
    5.5036   -1.3399   18.2810 C   0  0  0  0  0  0  0  0  0  0  0  0
    6.3688   -0.9001   19.4238 C   0  0  0  0  0  0  0  0  0  0  0  0
  1  2  1  0
  2  3  1  0
  2  4  1  0
  4  5  2  0
  5  6  1  0
  6  7  2  0
  7  8  1  0
  8  9  2  0
  8 10  1  0
 10 11  1  0
 11 12  1  0
 12 13  2  0
 13 14  1  0
 14 15  2  0
 15 16  1  0
 16 17  2  0
 16 18  1  0
 18 19  3  0
 10 20  1  0
 20 21  2  0
 20 22  1  0
 22 23  1  0
 23 24  2  0
 24 25  1  0
 24 26  1  0
 26 27  2  0
 27 28  1  0
 28 29  2  0
 29 30  1  0
 30 31  1  0
 31 32  1  0
 32 33  1  0
 33 34  1  0
 34 35  1  0
 35 36  1  0
  9  4  1  0
 17 12  1  0
 29 23  1  0
 36 31  1  0
M  END
