CVD-0000055|dock_bobby27042020.71|mol2|33|dock1
     RDKit          3D

 36 39  0  0  0  0  0  0  0  0999 V2000
    4.6778   -6.0211   22.6959 C   0  0  0  0  0  0  0  0  0  0  0  0
    5.8398   -5.2881   22.2224 N   0  0  0  0  0  0  0  0  0  0  0  0
    6.6809   -5.9647   21.2496 C   0  0  0  0  0  0  0  0  0  0  0  0
    6.0529   -3.9901   22.5494 C   0  0  0  0  0  0  0  0  0  0  0  0
    5.8431   -3.5197   23.8379 C   0  0  0  0  0  0  0  0  0  0  0  0
    6.1017   -2.1777   24.0203 C   0  0  0  0  0  0  0  0  0  0  0  0
    6.5255   -1.3599   23.0492 N   0  0  0  0  0  0  0  0  0  0  0  0
    6.6995   -1.9063   21.8399 C   0  0  0  0  0  0  0  0  0  0  0  0
    6.4762   -3.2000   21.5597 N   0  0  0  0  0  0  0  0  0  0  0  0
    7.1298   -1.1184   20.8206 N   0  0  0  0  0  0  0  0  0  0  0  0
    6.4578   -1.2937   19.5259 C   0  0  0  0  0  0  0  0  0  0  0  0
    5.6996   -0.0426   19.1632 C   0  0  0  0  0  0  0  0  0  0  0  0
    6.0062    0.5529   18.0080 N   0  0  0  0  0  0  0  0  0  0  0  0
    5.3012    1.6584   17.7330 C   0  0  0  0  0  0  0  0  0  0  0  0
    4.3170    2.1895   18.5465 C   0  0  0  0  0  0  0  0  0  0  0  0
    4.0981    1.4697   19.7186 C   0  0  0  0  0  0  0  0  0  0  0  0
    4.7792    0.3544   20.0405 N   0  0  0  0  0  0  0  0  0  0  0  0
    3.1002    1.9021   20.6684 C   0  0  0  0  0  0  0  0  0  0  0  0
    2.2520    2.2294   21.4170 C   0  0  0  0  0  0  0  0  0  0  0  0
    8.1717   -0.1790   20.8980 C   0  0  0  0  0  0  0  0  0  0  0  0
    8.4134    0.5533   19.9465 O   0  0  0  0  0  0  0  0  0  0  0  0
    8.9131   -0.0555   22.0496 N   0  0  0  0  0  0  0  0  0  0  0  0
    9.9756    0.8953   22.2161 C   0  0  0  0  0  0  0  0  0  0  0  0
    9.6234    2.2493   22.2444 C   0  0  0  0  0  0  0  0  0  0  0  0
    8.1905    2.6827   22.1567 C   0  0  0  0  0  0  0  0  0  0  0  0
   10.5497    3.2029   22.3401 N   0  0  0  0  0  0  0  0  0  0  0  0
   11.8366    2.8459   22.4095 C   0  0  0  0  0  0  0  0  0  0  0  0
   12.2641    1.5354   22.4324 C   0  0  0  0  0  0  0  0  0  0  0  0
   11.3218    0.5133   22.3615 C   0  0  0  0  0  0  0  0  0  0  0  0
   11.7704   -0.9282   22.4713 C   0  0  0  0  0  0  0  0  0  0  0  0
   12.8465   -1.1410   23.4499 N   0  0  0  0  0  0  0  0  0  0  0  0
   13.1433   -2.5671   23.6097 C   0  0  0  0  0  0  0  0  0  0  0  0
   14.2404   -2.7457   24.6070 C   0  0  0  0  0  0  0  0  0  0  0  0
   13.8880   -2.2076   25.8764 O   0  0  0  0  0  0  0  0  0  0  0  0
   13.5898   -0.8281   25.7419 C   0  0  0  0  0  0  0  0  0  0  0  0
   12.4871   -0.5882   24.7548 C   0  0  0  0  0  0  0  0  0  0  0  0
  1  2  1  0
  2  3  1  0
  2  4  1  0
  4  5  2  0
  5  6  1  0
  6  7  2  0
  7  8  1  0
  8  9  2  0
  8 10  1  0
 10 11  1  0
 11 12  1  0
 12 13  2  0
 13 14  1  0
 14 15  2  0
 15 16  1  0
 16 17  2  0
 16 18  1  0
 18 19  3  0
 10 20  1  0
 20 21  2  0
 20 22  1  0
 22 23  1  0
 23 24  2  0
 24 25  1  0
 24 26  1  0
 26 27  2  0
 27 28  1  0
 28 29  2  0
 29 30  1  0
 30 31  1  0
 31 32  1  0
 32 33  1  0
 33 34  1  0
 34 35  1  0
 35 36  1  0
  9  4  1  0
 17 12  1  0
 29 23  1  0
 36 31  1  0
M  END
