CVD-0001235|dock_bobby27042020.81|mol2|40|dock3
     RDKit          3D

 26 28  0  0  0  0  0  0  0  0999 V2000
    8.6265   -2.9138   22.9482 C   0  0  0  0  0  0  0  0  0  0  0  0
    9.1764   -1.5849   22.6592 N   0  0  0  0  0  0  0  0  0  0  0  0
    9.4727   -1.2349   21.2686 C   0  0  0  0  0  0  0  0  0  0  0  0
    8.7367    0.0103   20.8046 C   0  0  0  0  0  0  0  0  0  0  0  0
    9.2975    1.1007   20.8147 O   0  0  0  0  0  0  0  0  0  0  0  0
    7.4619   -0.2368   20.4148 N   0  0  0  0  0  0  0  0  0  0  0  0
    6.4604    0.6504   19.9306 C   0  0  0  0  0  0  0  0  0  0  0  0
    6.2619    1.9449   20.4113 C   0  0  0  0  0  0  0  0  0  0  0  0
    5.3197    2.7768   19.9563 N   0  0  0  0  0  0  0  0  0  0  0  0
    4.5248    2.3379   18.9845 C   0  0  0  0  0  0  0  0  0  0  0  0
    4.6323    1.0795   18.4362 C   0  0  0  0  0  0  0  0  0  0  0  0
    5.6096    0.2044   18.9006 C   0  0  0  0  0  0  0  0  0  0  0  0
    5.6990   -1.1673   18.2825 C   0  0  0  0  0  0  0  0  0  0  0  0
    9.7032   -0.6567   23.8920 S   0  0  0  0  0  0  0  0  0  0  0  0
    8.8471    0.4875   23.9446 O   0  0  0  0  0  0  0  0  0  0  0  0
    9.8221   -1.5117   25.0320 O   0  0  0  0  0  0  0  0  0  0  0  0
   11.3338   -0.1000   23.4568 C   0  0  0  0  0  0  0  0  0  0  0  0
   12.3563   -1.0037   23.5496 C   0  0  0  0  0  0  0  0  0  0  0  0
   13.6485   -0.6298   23.2203 C   0  0  0  0  0  0  0  0  0  0  0  0
   13.9256    0.6369   22.7990 C   0  0  0  0  0  0  0  0  0  0  0  0
   12.8960    1.6023   22.6874 C   0  0  0  0  0  0  0  0  0  0  0  0
   13.1105    2.9320   22.2574 C   0  0  0  0  0  0  0  0  0  0  0  0
   12.0577    3.7940   22.1800 C   0  0  0  0  0  0  0  0  0  0  0  0
   10.8020    3.3443   22.5254 C   0  0  0  0  0  0  0  0  0  0  0  0
   10.5298    2.1178   22.9347 N   0  0  0  0  0  0  0  0  0  0  0  0
   11.5689    1.2360   23.0206 C   0  0  0  0  0  0  0  0  0  0  0  0
  1  2  1  0
  2  3  1  0
  3  4  1  0
  4  5  2  0
  4  6  1  0
  6  7  1  0
  7  8  2  0
  8  9  1  0
  9 10  2  0
 10 11  1  0
 11 12  2  0
 12 13  1  0
  2 14  1  0
 14 15  2  0
 14 16  2  0
 14 17  1  0
 17 18  2  0
 18 19  1  0
 19 20  2  0
 20 21  1  0
 21 22  2  0
 22 23  1  0
 23 24  2  0
 24 25  1  0
 25 26  2  0
 12  7  1  0
 26 17  1  0
 26 21  1  0
M  END
