CVD-0000446|dock_bobby27042020.41|mol2|27|dock1
     RDKit          3D

 29 33  0  0  0  0  0  0  0  0999 V2000
   13.4264    0.4688   22.6683 C   0  0  0  0  0  0  0  0  0  0  0  0
   12.1346    0.9756   23.1495 N   0  0  0  0  0  0  0  0  0  0  0  0
   11.8759    2.3536   22.9373 C   0  0  0  0  0  0  0  0  0  0  0  0
   12.8508    3.2551   22.4962 C   0  0  0  0  0  0  0  0  0  0  0  0
   12.5164    4.5720   22.2368 C   0  0  0  0  0  0  0  0  0  0  0  0
   11.2324    5.0401   22.4325 C   0  0  0  0  0  0  0  0  0  0  0  0
   10.2402    4.1940   22.9227 C   0  0  0  0  0  0  0  0  0  0  0  0
    8.8820    4.8105   23.1173 C   0  0  0  0  0  0  0  0  0  0  0  0
    8.3130    5.5033   22.1397 N   0  0  0  0  0  0  0  0  0  0  0  0
    8.3021    4.6646   24.1992 O   0  0  0  0  0  0  0  0  0  0  0  0
   10.5834    2.8520   23.1933 C   0  0  0  0  0  0  0  0  0  0  0  0
    9.6437    2.0097   23.7241 N   0  0  0  0  0  0  0  0  0  0  0  0
    9.9303    0.7533   23.9759 C   0  0  0  0  0  0  0  0  0  0  0  0
    8.8368    0.0341   24.5251 C   0  0  0  0  0  0  0  0  0  0  0  0
    8.9769   -1.2760   24.8259 C   0  0  0  0  0  0  0  0  0  0  0  0
    7.9083   -1.9466   25.3462 O   0  0  0  0  0  0  0  0  0  0  0  0
    8.0617   -3.2807   25.6480 C   0  0  0  0  0  0  0  0  0  0  0  0
    6.9840   -3.9771   26.1751 C   0  0  0  0  0  0  0  0  0  0  0  0
    7.1355   -5.3193   26.4792 C   0  0  0  0  0  0  0  0  0  0  0  0
    8.3414   -5.9536   26.2606 C   0  0  0  0  0  0  0  0  0  0  0  0
    9.4238   -5.2654   25.7343 C   0  0  0  0  0  0  0  0  0  0  0  0
    9.2876   -3.9120   25.4226 C   0  0  0  0  0  0  0  0  0  0  0  0
   10.3728   -3.2195   24.8949 N   0  0  0  0  0  0  0  0  0  0  0  0
   10.2299   -1.9558   24.6052 C   0  0  0  0  0  0  0  0  0  0  0  0
   11.3581   -1.2278   24.0622 C   0  0  0  0  0  0  0  0  0  0  0  0
   12.5916   -2.0312   23.9470 C   0  0  0  0  0  0  0  0  0  0  0  0
   13.6506   -1.6711   24.6622 N   0  0  0  0  0  0  0  0  0  0  0  0
   12.6176   -3.0225   23.2075 O   0  0  0  0  0  0  0  0  0  0  0  0
   11.1974    0.1315   23.7230 C   0  0  0  0  0  0  0  0  0  0  0  0
  1  2  1  0
  2  3  1  0
  3  4  2  0
  4  5  1  0
  5  6  2  0
  6  7  1  0
  7  8  1  0
  8  9  1  0
  8 10  2  0
  7 11  2  0
 11 12  1  0
 12 13  2  0
 13 14  1  0
 14 15  2  0
 15 16  1  0
 16 17  1  0
 17 18  2  0
 18 19  1  0
 19 20  2  0
 20 21  1  0
 21 22  2  0
 22 23  1  0
 23 24  2  0
 24 25  1  0
 25 26  1  0
 26 27  1  0
 26 28  2  0
 25 29  2  0
 29  2  1  0
 11  3  1  0
 29 13  1  0
 24 15  1  0
 22 17  1  0
M  END
