CVD-0001792|dock_bobby27042020.94|mol2|13|dock3
     RDKit          3D

 32 35  0  0  0  0  0  0  0  0999 V2000
    8.8277   -6.2820   26.8489 C   0  0  0  0  0  0  0  0  0  0  0  0
    9.0801   -4.8029   26.8757 C   0  0  0  0  0  0  0  0  0  0  0  0
   10.0920   -4.3539   27.4030 O   0  0  0  0  0  0  0  0  0  0  0  0
    8.1504   -3.9879   26.3123 N   0  0  0  0  0  0  0  0  0  0  0  0
    8.1922   -2.5331   26.2958 C   0  0  0  0  0  0  0  0  0  0  0  0
    8.9925   -1.9100   25.1657 C   0  0  0  0  0  0  0  0  0  0  0  0
    8.4834   -2.2456   23.8061 N   0  0  0  0  0  0  0  0  0  0  0  0
    9.5648   -2.2894   22.8109 C   0  0  0  0  0  0  0  0  0  0  0  0
   10.4142   -1.0404   22.8140 C   0  0  0  0  0  0  0  0  0  0  0  0
   11.8046   -1.1376   22.8441 C   0  0  0  0  0  0  0  0  0  0  0  0
   12.6062   -0.0347   22.8450 C   0  0  0  0  0  0  0  0  0  0  0  0
   12.0524    1.2664   22.8143 C   0  0  0  0  0  0  0  0  0  0  0  0
   12.8804    2.3574   22.8163 N   0  0  0  0  0  0  0  0  0  0  0  0
   12.3105    3.5396   22.7885 C   0  0  0  0  0  0  0  0  0  0  0  0
   10.9559    3.7875   22.7537 C   0  0  0  0  0  0  0  0  0  0  0  0
   10.1160    2.7155   22.7509 C   0  0  0  0  0  0  0  0  0  0  0  0
   10.6441    1.4016   22.7819 C   0  0  0  0  0  0  0  0  0  0  0  0
    9.8589    0.2300   22.7823 C   0  0  0  0  0  0  0  0  0  0  0  0
    8.5192    0.3611   22.7508 F   0  0  0  0  0  0  0  0  0  0  0  0
   13.4325    4.9363   22.7862 S   0  0  0  0  0  0  0  0  0  0  0  0
   13.7709    5.2653   21.2564 N   0  0  0  0  0  0  0  0  0  0  0  0
   14.6497    4.5163   23.4134 O   0  0  0  0  0  0  0  0  0  0  0  0
   12.7259    6.0617   23.3203 O   0  0  0  0  0  0  0  0  0  0  0  0
    7.6318   -3.3932   23.3663 C   0  0  0  0  0  0  0  0  0  0  0  0
    6.5885   -3.7738   24.4035 C   0  0  0  0  0  0  0  0  0  0  0  0
    7.0478   -4.6087   25.5829 C   0  0  0  0  0  0  0  0  0  0  0  0
    5.5007   -4.5648   23.7036 C   0  0  0  0  0  0  0  0  0  0  0  0
    4.1755   -4.1611   23.7658 C   0  0  0  0  0  0  0  0  0  0  0  0
    3.1952   -4.8973   23.1235 C   0  0  0  0  0  0  0  0  0  0  0  0
    3.5704   -6.0263   22.4316 C   0  0  0  0  0  0  0  0  0  0  0  0
    4.8339   -6.4449   22.3510 N   0  0  0  0  0  0  0  0  0  0  0  0
    5.7617   -5.7172   22.9800 C   0  0  0  0  0  0  0  0  0  0  0  0
  1  2  1  0
  2  3  2  0
  2  4  1  0
  4  5  1  0
  5  6  1  0
  6  7  1  0
  7  8  1  0
  8  9  1  0
  9 10  2  0
 10 11  1  0
 11 12  2  0
 12 13  1  0
 13 14  2  0
 14 15  1  0
 15 16  2  0
 16 17  1  0
 17 18  2  0
 18 19  1  0
 14 20  1  0
 20 21  1  0
 20 22  2  0
 20 23  2  0
  7 24  1  0
 24 25  1  0
 25 26  1  0
 25 27  1  0
 27 28  2  0
 28 29  1  0
 29 30  2  0
 30 31  1  0
 31 32  2  0
 26  4  1  0
 32 27  1  0
 18  9  1  0
 17 12  1  0
M  END
