CVD-0000716|dock_bobby27042020.12|mol2|10|dock3
     RDKit          3D

 19 20  0  0  0  0  0  0  0  0999 V2000
   13.1840   -1.9322   20.9364 N   0  0  0  0  0  0  0  0  0  0  0  0
   12.8405   -1.1747   22.0316 C   0  0  0  0  0  0  0  0  0  0  0  0
   13.7048   -1.0361   23.1128 C   0  0  0  0  0  0  0  0  0  0  0  0
   13.4003   -0.3068   24.1907 N   0  0  0  0  0  0  0  0  0  0  0  0
   12.2142    0.3089   24.2188 C   0  0  0  0  0  0  0  0  0  0  0  0
   11.2781    0.2402   23.2040 C   0  0  0  0  0  0  0  0  0  0  0  0
    9.9525    0.9623   23.2907 C   0  0  0  0  0  0  0  0  0  0  0  0
    9.1521    0.8551   22.0079 C   0  0  0  0  0  0  0  0  0  0  0  0
    9.2799    1.6860   21.1151 O   0  0  0  0  0  0  0  0  0  0  0  0
    8.3294   -0.2212   21.9722 N   0  0  0  0  0  0  0  0  0  0  0  0
    7.4343   -0.6853   20.9763 C   0  0  0  0  0  0  0  0  0  0  0  0
    6.9049   -1.9747   20.9483 C   0  0  0  0  0  0  0  0  0  0  0  0
    6.0603   -2.4093   20.0075 N   0  0  0  0  0  0  0  0  0  0  0  0
    5.7069   -1.5577   19.0422 C   0  0  0  0  0  0  0  0  0  0  0  0
    6.1748   -0.2503   18.9738 C   0  0  0  0  0  0  0  0  0  0  0  0
    7.0530    0.1856   19.9613 C   0  0  0  0  0  0  0  0  0  0  0  0
    5.7646    0.6340   17.9110 C   0  0  0  0  0  0  0  0  0  0  0  0
    5.4083    1.3252   17.0744 N   0  0  0  0  0  0  0  0  0  0  0  0
   11.6117   -0.5201   22.0923 C   0  0  0  0  0  0  0  0  0  0  0  0
  1  2  1  0
  2  3  2  0
  3  4  1  0
  4  5  2  0
  5  6  1  0
  6  7  1  0
  7  8  1  0
  8  9  2  0
  8 10  1  0
 10 11  1  0
 11 12  2  0
 12 13  1  0
 13 14  2  0
 14 15  1  0
 15 16  2  0
 15 17  1  0
 17 18  3  0
  6 19  2  0
 19  2  1  0
 16 11  1  0
M  END
