CVD-0002997|dock_bobby27042020.3|mol2|32|dock3
     RDKit          3D

 30 32  0  0  0  0  0  0  0  0999 V2000
    9.3584    4.8210   25.1048 Cl  0  0  0  0  0  0  0  0  0  0  0  0
   10.4947    6.0653   24.5683 C   0  0  0  0  0  0  0  0  0  0  0  0
   11.9067    5.5147   24.5153 C   0  0  0  0  0  0  0  0  0  0  0  0
   12.7691    5.9116   25.2888 O   0  0  0  0  0  0  0  0  0  0  0  0
   12.1760    4.5785   23.5803 N   0  0  0  0  0  0  0  0  0  0  0  0
   13.4985    3.9690   23.4248 C   0  0  0  0  0  0  0  0  0  0  0  0
   13.3950    2.4562   23.4818 C   0  0  0  0  0  0  0  0  0  0  0  0
   12.4875    1.9701   22.4383 N   0  0  0  0  0  0  0  0  0  0  0  0
   12.4144    0.5019   22.4635 C   0  0  0  0  0  0  0  0  0  0  0  0
   13.7684   -0.1748   22.2882 C   0  0  0  0  0  0  0  0  0  0  0  0
   13.7156   -1.8318   21.6602 S   0  0  0  0  0  0  0  0  0  0  0  0
   13.8784   -2.7487   22.7480 O   0  0  0  0  0  0  0  0  0  0  0  0
   14.5601   -1.9210   20.5071 O   0  0  0  0  0  0  0  0  0  0  0  0
   12.1572   -1.9602   21.1389 N   0  0  0  0  0  0  0  0  0  0  0  0
   11.0477   -2.3158   21.8591 C   0  0  0  0  0  0  0  0  0  0  0  0
    9.7611   -2.4141   21.3966 C   0  0  0  0  0  0  0  0  0  0  0  0
    8.8789   -2.8100   22.4357 C   0  0  0  0  0  0  0  0  0  0  0  0
    7.5554   -2.9616   22.1578 N   0  0  0  0  0  0  0  0  0  0  0  0
    6.8146   -2.7791   20.9638 C   0  0  0  0  0  0  0  0  0  0  0  0
    6.2336   -3.8915   20.3644 C   0  0  0  0  0  0  0  0  0  0  0  0
    5.5415   -3.8485   19.2226 N   0  0  0  0  0  0  0  0  0  0  0  0
    5.4082   -2.6627   18.6245 C   0  0  0  0  0  0  0  0  0  0  0  0
    5.9219   -1.4795   19.1456 C   0  0  0  0  0  0  0  0  0  0  0  0
    6.6185   -1.5451   20.3498 C   0  0  0  0  0  0  0  0  0  0  0  0
    5.7494   -0.2128   18.4812 C   0  0  0  0  0  0  0  0  0  0  0  0
    5.5732    0.8073   17.9196 C   0  0  0  0  0  0  0  0  0  0  0  0
    9.5011   -2.9846   23.6281 C   0  0  0  0  0  0  0  0  0  0  0  0
   11.1885   -2.6996   23.5409 S   0  0  0  0  0  0  0  0  0  0  0  0
   11.1643    2.5517   22.6486 C   0  0  0  0  0  0  0  0  0  0  0  0
   11.2269    4.0671   22.5866 C   0  0  0  0  0  0  0  0  0  0  0  0
  1  2  1  0
  2  3  1  0
  3  4  2  0
  3  5  1  0
  5  6  1  0
  6  7  1  0
  7  8  1  0
  8  9  1  0
  9 10  1  0
 10 11  1  0
 11 12  2  0
 11 13  2  0
 11 14  1  0
 14 15  1  0
 15 16  2  0
 16 17  1  0
 17 18  1  0
 18 19  1  0
 19 20  2  0
 20 21  1  0
 21 22  2  0
 22 23  1  0
 23 24  2  0
 23 25  1  0
 25 26  3  0
 17 27  2  0
 27 28  1  0
  8 29  1  0
 29 30  1  0
 30  5  1  0
 28 15  1  0
 24 19  1  0
M  END
