CVD-0002101|dock_bobby27042020.21|mol2|32|dock3
     RDKit          3D

 24 26  0  0  0  0  0  0  0  0999 V2000
   13.9160    4.0458   21.6222 N   0  0  0  0  0  0  0  0  0  0  0  0
   12.7209    4.8530   21.9534 C   0  0  0  0  0  0  0  0  0  0  0  0
   11.6460    4.0459   22.6683 C   0  0  0  0  0  0  0  0  0  0  0  0
   11.7071    2.7102   22.1607 O   0  0  0  0  0  0  0  0  0  0  0  0
   10.7130    1.8755   22.7731 C   0  0  0  0  0  0  0  0  0  0  0  0
    9.3372    2.3049   22.3412 C   0  0  0  0  0  0  0  0  0  0  0  0
    9.1680    3.8013   22.2975 C   0  0  0  0  0  0  0  0  0  0  0  0
    7.9076    4.3825   22.0855 C   0  0  0  0  0  0  0  0  0  0  0  0
    6.7727    3.6288   21.9540 O   0  0  0  0  0  0  0  0  0  0  0  0
    7.7592    5.7693   22.0999 C   0  0  0  0  0  0  0  0  0  0  0  0
    6.5198    6.3037   21.9471 O   0  0  0  0  0  0  0  0  0  0  0  0
    8.8554    6.5897   22.3241 C   0  0  0  0  0  0  0  0  0  0  0  0
   10.0949    6.0150   22.5327 C   0  0  0  0  0  0  0  0  0  0  0  0
   10.2589    4.6290   22.5210 C   0  0  0  0  0  0  0  0  0  0  0  0
   11.0356    0.4352   22.3777 C   0  0  0  0  0  0  0  0  0  0  0  0
   10.1137   -0.5744   23.0599 C   0  0  0  0  0  0  0  0  0  0  0  0
   10.1488   -0.4839   24.4827 O   0  0  0  0  0  0  0  0  0  0  0  0
   10.4403   -2.0096   22.7048 C   0  0  0  0  0  0  0  0  0  0  0  0
   10.2820   -2.2174   21.3007 O   0  0  0  0  0  0  0  0  0  0  0  0
   11.8636   -2.3072   23.1446 C   0  0  0  0  0  0  0  0  0  0  0  0
   12.9371   -1.3926   22.5115 C   0  0  0  0  0  0  0  0  0  0  0  0
   14.2008   -1.6118   23.1400 O   0  0  0  0  0  0  0  0  0  0  0  0
   12.4836    0.0792   22.6911 C   0  0  0  0  0  0  0  0  0  0  0  0
   12.7476    0.5114   24.0241 O   0  0  0  0  0  0  0  0  0  0  0  0
  1  2  1  0
  2  3  1  0
  3  4  1  0
  4  5  1  0
  5  6  1  0
  6  7  1  0
  7  8  2  0
  8  9  1  0
  8 10  1  0
 10 11  1  0
 10 12  2  0
 12 13  1  0
 13 14  2  0
  5 15  1  0
 15 16  1  0
 16 17  1  0
 16 18  1  0
 18 19  1  0
 18 20  1  0
 20 21  1  0
 21 22  1  0
 21 23  1  0
 23 24  1  0
 14  3  1  0
 23 15  1  0
 14  7  1  0
M  END
