CVD-0002565|dock_bobby27042020.91|mol2|5|dock3
     RDKit          3D

 34 38  0  0  0  0  0  0  0  0999 V2000
   11.4020    1.8406   21.6100 O   0  0  0  0  0  0  0  0  0  0  0  0
   11.4842    1.8467   22.8336 C   0  0  0  0  0  0  0  0  0  0  0  0
   11.9863    2.8946   23.5715 N   0  0  0  0  0  0  0  0  0  0  0  0
   12.5045    4.1505   23.1652 C   0  0  0  0  0  0  0  0  0  0  0  0
   12.6015    5.1648   24.1094 C   0  0  0  0  0  0  0  0  0  0  0  0
   13.1033    6.4007   23.7414 C   0  0  0  0  0  0  0  0  0  0  0  0
   13.4954    6.5896   22.4369 C   0  0  0  0  0  0  0  0  0  0  0  0
   13.4157    5.6381   21.5069 N   0  0  0  0  0  0  0  0  0  0  0  0
   12.9297    4.4476   21.8716 C   0  0  0  0  0  0  0  0  0  0  0  0
   11.0871    0.8090   23.6464 N   0  0  0  0  0  0  0  0  0  0  0  0
   10.5197   -0.4530   23.3341 C   0  0  0  0  0  0  0  0  0  0  0  0
   10.4038   -0.9428   22.0370 C   0  0  0  0  0  0  0  0  0  0  0  0
    9.8409   -2.1867   21.8213 C   0  0  0  0  0  0  0  0  0  0  0  0
    9.3909   -2.9507   22.8827 C   0  0  0  0  0  0  0  0  0  0  0  0
    9.4906   -2.4765   24.1858 C   0  0  0  0  0  0  0  0  0  0  0  0
   10.0616   -1.2230   24.3995 C   0  0  0  0  0  0  0  0  0  0  0  0
    9.0335   -3.2334   25.2563 N   0  0  0  0  0  0  0  0  0  0  0  0
    7.5898   -3.4628   25.4151 C   0  0  0  0  0  0  0  0  0  0  0  0
    7.2624   -3.8455   26.8540 C   0  0  0  0  0  0  0  0  0  0  0  0
    8.0846   -4.9487   27.3266 N   0  0  0  0  0  0  0  0  0  0  0  0
    9.5224   -4.7289   27.1100 C   0  0  0  0  0  0  0  0  0  0  0  0
    9.7892   -4.4482   25.6549 C   0  0  0  0  0  0  0  0  0  0  0  0
    7.6945   -6.0759   27.9579 C   0  0  0  0  0  0  0  0  0  0  0  0
    8.5010   -6.9313   28.3005 O   0  0  0  0  0  0  0  0  0  0  0  0
    6.2125   -6.2656   28.2285 C   0  0  0  0  0  0  0  0  0  0  0  0
    5.4393   -6.7374   27.0336 C   0  0  0  0  0  0  0  0  0  0  0  0
    5.8398   -6.7127   25.7299 C   0  0  0  0  0  0  0  0  0  0  0  0
    4.8653   -7.2282   24.9170 N   0  0  0  0  0  0  0  0  0  0  0  0
    3.8052   -7.5994   25.6910 C   0  0  0  0  0  0  0  0  0  0  0  0
    2.6490   -8.1475   25.2810 N   0  0  0  0  0  0  0  0  0  0  0  0
    1.7532   -8.4266   26.2379 C   0  0  0  0  0  0  0  0  0  0  0  0
    1.9605   -8.1835   27.5788 C   0  0  0  0  0  0  0  0  0  0  0  0
    3.1589   -7.6175   27.9845 C   0  0  0  0  0  0  0  0  0  0  0  0
    4.1239   -7.3083   27.0282 C   0  0  0  0  0  0  0  0  0  0  0  0
  1  2  2  0
  2  3  1  0
  3  4  1  0
  4  5  2  0
  5  6  1  0
  6  7  2  0
  7  8  1  0
  8  9  2  0
  2 10  1  0
 10 11  1  0
 11 12  2  0
 12 13  1  0
 13 14  2  0
 14 15  1  0
 15 16  2  0
 15 17  1  0
 17 18  1  0
 18 19  1  0
 19 20  1  0
 20 21  1  0
 21 22  1  0
 20 23  1  0
 23 24  2  0
 23 25  1  0
 25 26  1  0
 26 27  2  0
 27 28  1  0
 28 29  1  0
 29 30  2  0
 30 31  1  0
 31 32  2  0
 32 33  1  0
 33 34  2  0
  9  4  1  0
 16 11  1  0
 22 17  1  0
 34 26  1  0
 34 29  1  0
M  END
