CVD-0001132|dock_bobby27042020.10|mol2|37|dock1
     RDKit          3D

 22 23  0  0  0  0  0  0  0  0999 V2000
    8.1860   -0.4194   18.8203 N   0  0  0  0  0  0  0  0  0  0  0  0
    7.8461    0.2058   19.9466 C   0  0  0  0  0  0  0  0  0  0  0  0
    6.8167    1.0476   19.8943 N   0  0  0  0  0  0  0  0  0  0  0  0
    8.4874    0.0211   21.0976 N   0  0  0  0  0  0  0  0  0  0  0  0
    9.6317   -0.8540   21.3617 C   0  0  0  0  0  0  0  0  0  0  0  0
   10.0226   -0.7678   22.8228 C   0  0  0  0  0  0  0  0  0  0  0  0
   11.2931   -0.0424   23.0139 N   0  0  0  0  0  0  0  0  0  0  0  0
   11.3494    1.3191   22.6793 C   0  0  0  0  0  0  0  0  0  0  0  0
   10.3361    1.8538   22.2502 O   0  0  0  0  0  0  0  0  0  0  0  0
   12.5226    2.0231   22.8469 N   0  0  0  0  0  0  0  0  0  0  0  0
   12.8204    3.3888   22.5946 C   0  0  0  0  0  0  0  0  0  0  0  0
   14.1536    3.7348   22.4119 C   0  0  0  0  0  0  0  0  0  0  0  0
   14.4991    5.0514   22.1640 C   0  0  0  0  0  0  0  0  0  0  0  0
   13.4996    5.9934   22.1048 C   0  0  0  0  0  0  0  0  0  0  0  0
   12.2115    5.6979   22.2746 N   0  0  0  0  0  0  0  0  0  0  0  0
   11.8876    4.4230   22.5127 C   0  0  0  0  0  0  0  0  0  0  0  0
   12.3950   -0.7930   23.5655 C   0  0  0  0  0  0  0  0  0  0  0  0
   12.9968   -1.8228   22.8478 C   0  0  0  0  0  0  0  0  0  0  0  0
   14.0504   -2.5410   23.3884 C   0  0  0  0  0  0  0  0  0  0  0  0
   14.5282   -2.2394   24.6437 C   0  0  0  0  0  0  0  0  0  0  0  0
   13.9482   -1.2188   25.3631 C   0  0  0  0  0  0  0  0  0  0  0  0
   12.8878   -0.5024   24.8338 C   0  0  0  0  0  0  0  0  0  0  0  0
  1  2  1  0
  2  3  1  0
  2  4  2  3
  4  5  1  0
  5  6  1  0
  6  7  1  0
  7  8  1  0
  8  9  2  0
  8 10  1  0
 10 11  1  0
 11 12  2  0
 12 13  1  0
 13 14  2  0
 14 15  1  0
 15 16  2  0
  7 17  1  0
 17 18  2  0
 18 19  1  0
 19 20  2  0
 20 21  1  0
 21 22  2  0
 16 11  1  0
 22 17  1  0
M  END
