CVD-0000825|dock_bobby27042020.54|mol2|36|dock2
     RDKit          3D

 27 29  0  0  0  0  0  0  0  0999 V2000
    1.7984    3.3269   19.0835 C   0  0  0  0  0  0  0  0  0  0  0  0
    3.0614    2.8803   19.7595 C   0  0  0  0  0  0  0  0  0  0  0  0
    3.3086    3.1651   20.9271 O   0  0  0  0  0  0  0  0  0  0  0  0
    3.8925    2.1413   19.0221 N   0  0  0  0  0  0  0  0  0  0  0  0
    5.1485    1.6186   19.5410 C   0  0  0  0  0  0  0  0  0  0  0  0
    5.4793    0.2595   18.9574 C   0  0  0  0  0  0  0  0  0  0  0  0
    6.7079   -0.3549   19.5616 C   0  0  0  0  0  0  0  0  0  0  0  0
    7.9109   -0.5694   18.9549 C   0  0  0  0  0  0  0  0  0  0  0  0
    8.7901   -1.1513   19.8275 N   0  0  0  0  0  0  0  0  0  0  0  0
    8.1568   -1.3245   21.0334 C   0  0  0  0  0  0  0  0  0  0  0  0
    8.6415   -1.8740   22.2235 C   0  0  0  0  0  0  0  0  0  0  0  0
   10.0554   -2.3948   22.3334 C   0  0  0  0  0  0  0  0  0  0  0  0
   10.9611   -1.4646   23.0232 N   0  0  0  0  0  0  0  0  0  0  0  0
   10.5863   -0.0768   22.7364 C   0  0  0  0  0  0  0  0  0  0  0  0
   11.4983    0.8786   23.4833 C   0  0  0  0  0  0  0  0  0  0  0  0
   12.8962    0.6454   23.1142 N   0  0  0  0  0  0  0  0  0  0  0  0
   13.2855   -0.7511   23.3334 C   0  0  0  0  0  0  0  0  0  0  0  0
   12.3409   -1.6835   22.5970 C   0  0  0  0  0  0  0  0  0  0  0  0
   13.7053    1.6234   22.6598 C   0  0  0  0  0  0  0  0  0  0  0  0
   14.8698    1.4095   22.3475 O   0  0  0  0  0  0  0  0  0  0  0  0
   13.0969    3.0084   22.5599 C   0  0  0  0  0  0  0  0  0  0  0  0
   14.3023    4.1896   22.0315 Cl  0  0  0  0  0  0  0  0  0  0  0  0
    7.7751   -1.9307   23.3094 C   0  0  0  0  0  0  0  0  0  0  0  0
    6.4940   -1.4490   23.1715 C   0  0  0  0  0  0  0  0  0  0  0  0
    5.6682   -1.5165   24.2505 F   0  0  0  0  0  0  0  0  0  0  0  0
    5.9951   -0.9035   22.0114 C   0  0  0  0  0  0  0  0  0  0  0  0
    6.8437   -0.8359   20.9070 C   0  0  0  0  0  0  0  0  0  0  0  0
  1  2  1  0
  2  3  2  0
  2  4  1  0
  4  5  1  0
  5  6  1  0
  6  7  1  0
  7  8  2  0
  8  9  1  0
  9 10  1  0
 10 11  2  0
 11 12  1  0
 12 13  1  0
 13 14  1  0
 14 15  1  0
 15 16  1  0
 16 17  1  0
 17 18  1  0
 16 19  1  0
 19 20  2  0
 19 21  1  0
 21 22  1  0
 11 23  1  0
 23 24  2  0
 24 25  1  0
 24 26  1  0
 26 27  2  0
 27  7  1  0
 27 10  1  0
 18 13  1  0
M  END
