CVD-0003938|dock_bobby27042020.43|mol2|35|dock2
     RDKit          3D

 28 31  0  0  0  0  0  0  0  0999 V2000
    8.4306   -1.7024   17.9582 C   0  0  0  0  0  0  0  0  0  0  0  0
    7.5946   -0.5520   18.4370 C   0  0  0  0  0  0  0  0  0  0  0  0
    8.0812    0.5487   18.6767 O   0  0  0  0  0  0  0  0  0  0  0  0
    6.2886   -0.7905   18.5711 N   0  0  0  0  0  0  0  0  0  0  0  0
    5.3454    0.2284   19.0089 C   0  0  0  0  0  0  0  0  0  0  0  0
    5.4167    0.4591   20.5052 C   0  0  0  0  0  0  0  0  0  0  0  0
    6.6874   -0.0527   21.1177 C   0  0  0  0  0  0  0  0  0  0  0  0
    7.0372   -1.3500   21.3350 C   0  0  0  0  0  0  0  0  0  0  0  0
    8.2733   -1.4151   21.9151 N   0  0  0  0  0  0  0  0  0  0  0  0
    8.7603   -0.1409   22.0978 C   0  0  0  0  0  0  0  0  0  0  0  0
    9.9750    0.3364   22.6627 C   0  0  0  0  0  0  0  0  0  0  0  0
   10.1772    1.7215   22.6659 C   0  0  0  0  0  0  0  0  0  0  0  0
    9.2014    2.5432   22.1553 C   0  0  0  0  0  0  0  0  0  0  0  0
    9.4314    3.8838   22.1789 F   0  0  0  0  0  0  0  0  0  0  0  0
    8.0138    2.1128   21.6248 C   0  0  0  0  0  0  0  0  0  0  0  0
    7.7839    0.7424   21.5910 C   0  0  0  0  0  0  0  0  0  0  0  0
   11.0025   -0.6279   23.2416 C   0  0  0  0  0  0  0  0  0  0  0  0
   12.1287    0.1516   23.9434 C   0  0  0  0  0  0  0  0  0  0  0  0
   13.3239   -0.7057   24.3422 C   0  0  0  0  0  0  0  0  0  0  0  0
   13.8419   -1.4859   23.1679 C   0  0  0  0  0  0  0  0  0  0  0  0
   12.7696   -2.3639   22.5662 C   0  0  0  0  0  0  0  0  0  0  0  0
   11.5582   -1.5439   22.1351 C   0  0  0  0  0  0  0  0  0  0  0  0
   10.2308   -1.4602   24.2961 C   0  0  0  0  0  0  0  0  0  0  0  0
   10.0920   -2.8407   24.1812 C   0  0  0  0  0  0  0  0  0  0  0  0
    9.4137   -3.5619   25.1478 C   0  0  0  0  0  0  0  0  0  0  0  0
    8.8774   -2.8822   26.2156 C   0  0  0  0  0  0  0  0  0  0  0  0
    8.9746   -1.5605   26.3533 N   0  0  0  0  0  0  0  0  0  0  0  0
    9.6249   -0.8852   25.4006 C   0  0  0  0  0  0  0  0  0  0  0  0
  1  2  1  0
  2  3  2  0
  2  4  1  0
  4  5  1  0
  5  6  1  0
  6  7  1  0
  7  8  2  0
  8  9  1  0
  9 10  1  0
 10 11  2  0
 11 12  1  0
 12 13  2  0
 13 14  1  0
 13 15  1  0
 15 16  2  0
 11 17  1  0
 17 18  1  0
 18 19  1  0
 19 20  1  0
 20 21  1  0
 21 22  1  0
 17 23  1  0
 23 24  2  0
 24 25  1  0
 25 26  2  0
 26 27  1  0
 27 28  2  0
 16  7  1  0
 22 17  1  0
 28 23  1  0
 16 10  1  0
M  END
