CVD-0001112|dock_bobby27042020.53|mol2|40|dock2
     RDKit          3D

 26 28  0  0  0  0  0  0  0  0999 V2000
    8.0919    5.5401   22.5577 Cl  0  0  0  0  0  0  0  0  0  0  0  0
    9.7902    6.0359   22.5690 C   0  0  0  0  0  0  0  0  0  0  0  0
   10.7406    4.9170   22.9415 C   0  0  0  0  0  0  0  0  0  0  0  0
   11.7085    5.1773   23.6493 O   0  0  0  0  0  0  0  0  0  0  0  0
   10.5347    3.6295   22.5085 N   0  0  0  0  0  0  0  0  0  0  0  0
   11.2446    2.4551   22.7146 C   0  0  0  0  0  0  0  0  0  0  0  0
   10.5883    1.3350   22.5856 N   0  0  0  0  0  0  0  0  0  0  0  0
   11.4265    0.2536   22.8207 C   0  0  0  0  0  0  0  0  0  0  0  0
   11.0777   -1.1139   22.7730 C   0  0  0  0  0  0  0  0  0  0  0  0
   12.0091   -2.1099   23.0312 C   0  0  0  0  0  0  0  0  0  0  0  0
   13.3134   -1.7534   23.3404 C   0  0  0  0  0  0  0  0  0  0  0  0
   13.6931   -0.4216   23.3950 C   0  0  0  0  0  0  0  0  0  0  0  0
   12.7491    0.5680   23.1356 C   0  0  0  0  0  0  0  0  0  0  0  0
   12.9429    2.2954   23.1340 S   0  0  0  0  0  0  0  0  0  0  0  0
    9.4158   -1.5888   22.3846 S   0  0  0  0  0  0  0  0  0  0  0  0
    8.5403   -0.7925   23.1891 O   0  0  0  0  0  0  0  0  0  0  0  0
    9.3450   -3.0159   22.4632 O   0  0  0  0  0  0  0  0  0  0  0  0
    9.1352   -1.1892   20.8498 N   0  0  0  0  0  0  0  0  0  0  0  0
    8.1487   -0.1503   20.5302 C   0  0  0  0  0  0  0  0  0  0  0  0
    6.7897   -0.7686   20.2554 C   0  0  0  0  0  0  0  0  0  0  0  0
    5.8055    0.2184   19.6756 C   0  0  0  0  0  0  0  0  0  0  0  0
    5.9609    0.7007   18.3851 C   0  0  0  0  0  0  0  0  0  0  0  0
    5.0565    1.6036   17.8515 C   0  0  0  0  0  0  0  0  0  0  0  0
    3.9843    2.0351   18.6022 C   0  0  0  0  0  0  0  0  0  0  0  0
    3.8167    1.5629   19.8861 C   0  0  0  0  0  0  0  0  0  0  0  0
    4.7216    0.6599   20.4188 C   0  0  0  0  0  0  0  0  0  0  0  0
  1  2  1  0
  2  3  1  0
  3  4  2  0
  3  5  1  0
  5  6  1  0
  6  7  2  0
  7  8  1  0
  8  9  2  0
  9 10  1  0
 10 11  2  0
 11 12  1  0
 12 13  2  0
 13 14  1  0
  9 15  1  0
 15 16  2  0
 15 17  2  0
 15 18  1  0
 18 19  1  0
 19 20  1  0
 20 21  1  0
 21 22  2  0
 22 23  1  0
 23 24  2  0
 24 25  1  0
 25 26  2  0
 14  6  1  0
 26 21  1  0
 13  8  1  0
M  END
