CVD-0000672|dock_bobby27042020.83|mol2|37|dock2
     RDKit          3D

 27 29  0  0  0  0  0  0  0  0999 V2000
    5.0651    1.8440   17.5546 C   0  0  0  0  0  0  0  0  0  0  0  0
    6.1160    0.8798   17.5710 O   0  0  0  0  0  0  0  0  0  0  0  0
    6.4287    0.2181   18.7321 C   0  0  0  0  0  0  0  0  0  0  0  0
    5.5105    0.0582   19.7594 C   0  0  0  0  0  0  0  0  0  0  0  0
    5.8796   -0.6163   20.9099 C   0  0  0  0  0  0  0  0  0  0  0  0
    7.1562   -1.1394   21.0679 C   0  0  0  0  0  0  0  0  0  0  0  0
    8.0587   -0.9735   20.0257 C   0  0  0  0  0  0  0  0  0  0  0  0
    7.7038   -0.3015   18.8699 C   0  0  0  0  0  0  0  0  0  0  0  0
    7.5486   -1.8679   22.3480 C   0  0  0  0  0  0  0  0  0  0  0  0
    7.6394   -3.3961   22.2060 C   0  0  0  0  0  0  0  0  0  0  0  0
    6.3483   -4.0137   21.8863 N   0  0  0  0  0  0  0  0  0  0  0  0
    6.2947   -5.3181   20.9556 S   0  0  0  0  0  0  0  0  0  0  0  0
    5.2095   -6.4657   21.7118 C   0  0  0  0  0  0  0  0  0  0  0  0
    7.6081   -5.8847   20.9523 O   0  0  0  0  0  0  0  0  0  0  0  0
    5.7198   -4.9192   19.7081 O   0  0  0  0  0  0  0  0  0  0  0  0
    8.8377   -1.3087   22.9557 C   0  0  0  0  0  0  0  0  0  0  0  0
    9.5739   -2.1422   23.4457 O   0  0  0  0  0  0  0  0  0  0  0  0
    9.1575    0.0308   22.9716 N   0  0  0  0  0  0  0  0  0  0  0  0
    8.1389    1.0846   23.0422 C   0  0  0  0  0  0  0  0  0  0  0  0
    8.3475    2.0600   21.9114 C   0  0  0  0  0  0  0  0  0  0  0  0
    9.6289    2.6816   22.0193 O   0  0  0  0  0  0  0  0  0  0  0  0
   10.6631    1.8289   22.3308 C   0  0  0  0  0  0  0  0  0  0  0  0
   11.9395    2.3565   22.2037 C   0  0  0  0  0  0  0  0  0  0  0  0
   13.0048    1.5434   22.5207 C   0  0  0  0  0  0  0  0  0  0  0  0
   12.8712    0.2873   22.9391 N   0  0  0  0  0  0  0  0  0  0  0  0
   11.6373   -0.2164   23.0598 C   0  0  0  0  0  0  0  0  0  0  0  0
   10.4821    0.5062   22.7698 C   0  0  0  0  0  0  0  0  0  0  0  0
  1  2  1  0
  2  3  1  0
  3  4  2  0
  4  5  1  0
  5  6  2  0
  6  7  1  0
  7  8  2  0
  6  9  1  0
  9 10  1  0
 10 11  1  0
 11 12  1  0
 12 13  1  0
 12 14  2  0
 12 15  2  0
  9 16  1  0
 16 17  2  0
 16 18  1  0
 18 19  1  0
 19 20  1  0
 20 21  1  0
 21 22  1  0
 22 23  2  0
 23 24  1  0
 24 25  2  0
 25 26  1  0
 26 27  2  0
  8  3  1  0
 27 18  1  0
 27 22  1  0
M  END
