CVD-0001513|dock_bobby27042020.23|mol2|36|dock2
     RDKit          3D

 28 31  0  0  0  0  0  0  0  0999 V2000
    5.9605    0.1589   19.6370 C   0  0  0  0  0  0  0  0  0  0  0  0
    6.1209    1.0424   20.8463 C   0  0  0  0  0  0  0  0  0  0  0  0
    7.4031    1.3982   21.2578 C   0  0  0  0  0  0  0  0  0  0  0  0
    7.6404    2.2013   22.3705 C   0  0  0  0  0  0  0  0  0  0  0  0
    6.5335    2.6682   23.0688 C   0  0  0  0  0  0  0  0  0  0  0  0
    5.2515    2.3341   22.6730 C   0  0  0  0  0  0  0  0  0  0  0  0
    5.0219    1.5154   21.5703 C   0  0  0  0  0  0  0  0  0  0  0  0
    3.6143    1.1435   21.1672 C   0  0  0  0  0  0  0  0  0  0  0  0
    2.6956    2.4398   20.3613 S   0  0  0  0  0  0  0  0  0  0  0  0
    3.5005    2.8599   19.0422 N   0  0  0  0  0  0  0  0  0  0  0  0
    2.6850    3.5886   21.2216 O   0  0  0  0  0  0  0  0  0  0  0  0
    1.4412    1.8883   19.9350 O   0  0  0  0  0  0  0  0  0  0  0  0
    8.9251    2.5351   22.7815 N   0  0  0  0  0  0  0  0  0  0  0  0
    9.7803    1.4223   23.2342 C   0  0  0  0  0  0  0  0  0  0  0  0
   11.0616    1.4759   22.3761 C   0  0  0  0  0  0  0  0  0  0  0  0
   11.9991    0.3436   22.7759 C   0  0  0  0  0  0  0  0  0  0  0  0
   12.0926   -0.8062   22.0042 C   0  0  0  0  0  0  0  0  0  0  0  0
   12.9430   -1.8364   22.3695 C   0  0  0  0  0  0  0  0  0  0  0  0
   13.7093   -1.7302   23.5103 C   0  0  0  0  0  0  0  0  0  0  0  0
   13.6258   -0.5943   24.2869 C   0  0  0  0  0  0  0  0  0  0  0  0
   12.7757    0.4365   23.9224 C   0  0  0  0  0  0  0  0  0  0  0  0
   11.7286    2.8242   22.5216 C   0  0  0  0  0  0  0  0  0  0  0  0
   13.1177    2.9536   22.5172 C   0  0  0  0  0  0  0  0  0  0  0  0
   13.7246    4.1856   22.6959 C   0  0  0  0  0  0  0  0  0  0  0  0
   12.9495    5.3086   22.8820 C   0  0  0  0  0  0  0  0  0  0  0  0
   11.5697    5.1948   22.8886 C   0  0  0  0  0  0  0  0  0  0  0  0
   10.9453    3.9618   22.7101 C   0  0  0  0  0  0  0  0  0  0  0  0
    9.4420    3.9049   22.7567 C   0  0  0  0  0  0  0  0  0  0  0  0
  1  2  1  0
  2  3  2  0
  3  4  1  0
  4  5  2  0
  5  6  1  0
  6  7  2  0
  7  8  1  0
  8  9  1  0
  9 10  1  0
  9 11  2  0
  9 12  2  0
  4 13  1  0
 13 14  1  0
 14 15  1  0
 15 16  1  0
 16 17  2  0
 17 18  1  0
 18 19  2  0
 19 20  1  0
 20 21  2  0
 15 22  1  0
 22 23  2  0
 23 24  1  0
 24 25  2  0
 25 26  1  0
 26 27  2  0
 27 28  1  0
  7  2  1  0
 28 13  1  0
 21 16  1  0
 27 22  1  0
M  END
