CVD-0000658|dock_bobby27042020.83|mol2|39|dock1
     RDKit          3D

 11 11  0  0  0  0  0  0  0  0999 V2000
    2.3563    2.3486   20.6841 C   0  0  0  0  0  0  0  0  0  0  0  0
    3.6202    1.5411   20.6388 C   0  0  0  0  0  0  0  0  0  0  0  0
    3.9575    0.8404   21.5871 O   0  0  0  0  0  0  0  0  0  0  0  0
    4.3241    1.6822   19.4860 N   0  0  0  0  0  0  0  0  0  0  0  0
    5.5515    1.1167   19.0610 C   0  0  0  0  0  0  0  0  0  0  0  0
    5.9600    1.3092   17.7462 C   0  0  0  0  0  0  0  0  0  0  0  0
    7.0961    0.8230   17.2385 N   0  0  0  0  0  0  0  0  0  0  0  0
    7.8883    0.1086   18.0420 C   0  0  0  0  0  0  0  0  0  0  0  0
    7.5770   -0.1452   19.3735 C   0  0  0  0  0  0  0  0  0  0  0  0
    8.4201   -0.8860   20.1682 N   0  0  0  0  0  0  0  0  0  0  0  0
    6.3873    0.3698   19.8864 C   0  0  0  0  0  0  0  0  0  0  0  0
  1  2  1  0
  2  3  2  0
  2  4  1  0
  4  5  1  0
  5  6  2  0
  6  7  1  0
  7  8  2  0
  8  9  1  0
  9 10  1  0
  9 11  2  0
 11  5  1  0
M  END
