CVD-0001999|dock_bobby27042020.79|mol2|13|dock3
     RDKit          3D

 19 21  0  0  0  0  0  0  0  0999 V2000
   14.1095   -2.7507   23.2538 N   0  0  0  0  0  0  0  0  0  0  0  0
   13.1933   -2.3510   22.1742 C   0  0  0  0  0  0  0  0  0  0  0  0
   13.9434   -2.4106   20.8484 C   0  0  0  0  0  0  0  0  0  0  0  0
   14.4680   -3.5868   20.6169 O   0  0  0  0  0  0  0  0  0  0  0  0
   14.0329   -1.4608   20.1020 O   0  0  0  0  0  0  0  0  0  0  0  0
   12.6250   -0.9574   22.3758 C   0  0  0  0  0  0  0  0  0  0  0  0
   11.2528   -0.7463   22.4389 C   0  0  0  0  0  0  0  0  0  0  0  0
   10.7250    0.5195   22.6250 C   0  0  0  0  0  0  0  0  0  0  0  0
   11.5907    1.6033   22.7524 C   0  0  0  0  0  0  0  0  0  0  0  0
   12.9797    1.3840   22.6889 C   0  0  0  0  0  0  0  0  0  0  0  0
   13.5041    0.1099   22.5017 C   0  0  0  0  0  0  0  0  0  0  0  0
   13.6312    2.5941   22.8390 N   0  0  0  0  0  0  0  0  0  0  0  0
   12.6896    3.5944   22.9985 C   0  0  0  0  0  0  0  0  0  0  0  0
   12.8638    4.9618   23.1814 C   0  0  0  0  0  0  0  0  0  0  0  0
   11.7485    5.7705   23.3189 C   0  0  0  0  0  0  0  0  0  0  0  0
   10.4868    5.2135   23.2729 C   0  0  0  0  0  0  0  0  0  0  0  0
    9.0990    6.2508   23.4481 Cl  0  0  0  0  0  0  0  0  0  0  0  0
   10.2882    3.8588   23.0922 C   0  0  0  0  0  0  0  0  0  0  0  0
   11.3998    3.0306   22.9522 C   0  0  0  0  0  0  0  0  0  0  0  0
  2  1  1  0
  2  3  1  0
  3  4  1  0
  3  5  2  0
  2  6  1  0
  6  7  2  0
  7  8  1  0
  8  9  2  0
  9 10  1  0
 10 11  2  0
 10 12  1  0
 12 13  1  0
 13 14  2  0
 14 15  1  0
 15 16  2  0
 16 17  1  0
 16 18  1  0
 18 19  2  0
 11  6  1  0
 19 13  1  0
 19  9  1  0
M  END
