CVD-0002533|dock_bobby27042020.34|mol2|7|dock2
     RDKit          3D

 28 30  0  0  0  0  0  0  0  0999 V2000
    9.7894    2.3259   23.0203 O   0  0  0  0  0  0  0  0  0  0  0  0
   10.8185    1.6973   23.2439 C   0  0  0  0  0  0  0  0  0  0  0  0
   10.7657    0.2467   23.6693 C   0  0  0  0  0  0  0  0  0  0  0  0
   11.1776   -0.7268   22.5609 C   0  0  0  0  0  0  0  0  0  0  0  0
   10.2978   -0.4498   21.3583 C   0  0  0  0  0  0  0  0  0  0  0  0
    8.8445   -0.8379   21.6062 C   0  0  0  0  0  0  0  0  0  0  0  0
    8.6972   -2.3079   22.0227 C   0  0  0  0  0  0  0  0  0  0  0  0
    9.5635   -2.5435   23.2656 C   0  0  0  0  0  0  0  0  0  0  0  0
   11.0175   -2.1675   23.0246 C   0  0  0  0  0  0  0  0  0  0  0  0
    7.0303   -2.8301   22.1834 S   0  0  0  0  0  0  0  0  0  0  0  0
    6.4766   -2.1712   23.3314 O   0  0  0  0  0  0  0  0  0  0  0  0
    6.3954   -2.6425   20.9105 O   0  0  0  0  0  0  0  0  0  0  0  0
    7.0164   -4.4134   22.4926 N   0  0  0  0  0  0  0  0  0  0  0  0
    6.4910   -5.3498   21.4918 C   0  0  0  0  0  0  0  0  0  0  0  0
    5.8259   -6.5364   22.1658 C   0  0  0  0  0  0  0  0  0  0  0  0
    4.8018   -6.1245   23.1957 C   0  0  0  0  0  0  0  0  0  0  0  0
    3.5021   -5.8199   22.8217 C   0  0  0  0  0  0  0  0  0  0  0  0
    2.5614   -5.4448   23.7664 C   0  0  0  0  0  0  0  0  0  0  0  0
    2.9092   -5.3708   25.0980 C   0  0  0  0  0  0  0  0  0  0  0  0
    4.1973   -5.6721   25.4841 C   0  0  0  0  0  0  0  0  0  0  0  0
    5.1373   -6.0470   24.5387 C   0  0  0  0  0  0  0  0  0  0  0  0
   12.0787    2.1870   23.1511 N   0  0  0  0  0  0  0  0  0  0  0  0
   12.5611    3.4715   22.7964 C   0  0  0  0  0  0  0  0  0  0  0  0
   13.7935    3.5755   22.1645 C   0  0  0  0  0  0  0  0  0  0  0  0
   14.2792    4.8221   21.8113 C   0  0  0  0  0  0  0  0  0  0  0  0
   13.5184    5.9309   22.1002 C   0  0  0  0  0  0  0  0  0  0  0  0
   12.3325    5.8646   22.7053 N   0  0  0  0  0  0  0  0  0  0  0  0
   11.8712    4.6563   23.0427 C   0  0  0  0  0  0  0  0  0  0  0  0
  1  2  2  0
  2  3  1  0
  3  4  1  0
  4  5  1  0
  5  6  1  0
  6  7  1  0
  7  8  1  0
  8  9  1  0
  7 10  1  0
 10 11  2  0
 10 12  2  0
 10 13  1  0
 13 14  1  0
 14 15  1  0
 15 16  1  0
 16 17  2  0
 17 18  1  0
 18 19  2  0
 19 20  1  0
 20 21  2  0
  2 22  1  0
 22 23  1  0
 23 24  2  0
 24 25  1  0
 25 26  2  0
 26 27  1  0
 27 28  2  0
  9  4  1  0
 21 16  1  0
 28 23  1  0
M  END
