CVD-0003512|dock_bobby27042020.87|mol2|38|dock3
     RDKit          3D

 25 27  0  0  0  0  0  0  0  0999 V2000
   13.8797    6.4499   22.1954 N   0  0  0  0  0  0  0  0  0  0  0  0
   13.5849    5.0818   22.9735 S   0  0  0  0  0  0  0  0  0  0  0  0
   14.8012    4.3205   22.9945 O   0  0  0  0  0  0  0  0  0  0  0  0
   12.9591    5.4150   24.2211 O   0  0  0  0  0  0  0  0  0  0  0  0
   12.3937    4.1449   22.0207 C   0  0  0  0  0  0  0  0  0  0  0  0
   12.3408    2.7253   22.4498 C   0  0  0  0  0  0  0  0  0  0  0  0
   13.4017    1.9415   22.5150 N   0  0  0  0  0  0  0  0  0  0  0  0
   12.9077    0.7165   22.9517 C   0  0  0  0  0  0  0  0  0  0  0  0
   13.5573   -0.4897   23.2064 C   0  0  0  0  0  0  0  0  0  0  0  0
   12.8022   -1.5677   23.6433 C   0  0  0  0  0  0  0  0  0  0  0  0
   11.4301   -1.4603   23.8259 C   0  0  0  0  0  0  0  0  0  0  0  0
   10.7484   -0.2696   23.5734 C   0  0  0  0  0  0  0  0  0  0  0  0
    9.2526   -0.1063   23.7487 C   0  0  0  0  0  0  0  0  0  0  0  0
    8.3930   -0.4785   22.6122 N   0  0  0  0  0  0  0  0  0  0  0  0
    8.7894    0.2564   21.4073 C   0  0  0  0  0  0  0  0  0  0  0  0
    7.9277   -0.1610   20.2302 C   0  0  0  0  0  0  0  0  0  0  0  0
    6.5122    0.0743   20.5236 N   0  0  0  0  0  0  0  0  0  0  0  0
    6.0986   -0.5999   21.7582 C   0  0  0  0  0  0  0  0  0  0  0  0
    6.9939   -0.1841   22.9112 C   0  0  0  0  0  0  0  0  0  0  0  0
    5.7098    0.8022   19.7200 C   0  0  0  0  0  0  0  0  0  0  0  0
    6.1182    1.3098   18.6831 O   0  0  0  0  0  0  0  0  0  0  0  0
    4.2672    0.9577   20.1605 C   0  0  0  0  0  0  0  0  0  0  0  0
    3.3539    1.9397   19.0076 Cl  0  0  0  0  0  0  0  0  0  0  0  0
   11.5265    0.8068   23.1376 C   0  0  0  0  0  0  0  0  0  0  0  0
   11.1944    2.1021   22.8075 N   0  0  0  0  0  0  0  0  0  0  0  0
  1  2  1  0
  2  3  2  0
  2  4  2  0
  2  5  1  0
  5  6  1  0
  6  7  2  0
  7  8  1  0
  8  9  2  0
  9 10  1  0
 10 11  2  0
 11 12  1  0
 12 13  1  0
 13 14  1  0
 14 15  1  0
 15 16  1  0
 16 17  1  0
 17 18  1  0
 18 19  1  0
 17 20  1  0
 20 21  2  0
 20 22  1  0
 22 23  1  0
 12 24  2  0
 24 25  1  0
 25  6  1  0
 24  8  1  0
 19 14  1  0
M  END
