CVD-0002099|dock_bobby27042020.78|mol2|37|dock1
     RDKit          3D

 20 22  0  0  0  0  0  0  0  0999 V2000
   11.5770   -1.9631   21.5552 N   0  0  0  0  0  0  0  0  0  0  0  0
   10.7874   -0.9222   22.2500 C   0  0  0  0  0  0  0  0  0  0  0  0
    9.4164   -1.4175   22.6882 C   0  0  0  0  0  0  0  0  0  0  0  0
    8.5637   -1.3851   21.5406 O   0  0  0  0  0  0  0  0  0  0  0  0
    7.2443   -1.8509   21.8607 C   0  0  0  0  0  0  0  0  0  0  0  0
    7.2763   -3.3216   22.1768 C   0  0  0  0  0  0  0  0  0  0  0  0
    8.4605   -3.7229   23.0172 C   0  0  0  0  0  0  0  0  0  0  0  0
    8.5644   -5.0159   23.5541 C   0  0  0  0  0  0  0  0  0  0  0  0
    7.5825   -5.9541   23.3840 O   0  0  0  0  0  0  0  0  0  0  0  0
    9.6416   -5.3547   24.3731 C   0  0  0  0  0  0  0  0  0  0  0  0
    9.6879   -6.5946   24.9258 O   0  0  0  0  0  0  0  0  0  0  0  0
   10.6222   -4.4179   24.6663 C   0  0  0  0  0  0  0  0  0  0  0  0
   10.5174   -3.1457   24.1365 C   0  0  0  0  0  0  0  0  0  0  0  0
    9.4456   -2.7926   23.3157 C   0  0  0  0  0  0  0  0  0  0  0  0
    6.3516   -1.5200   20.6655 C   0  0  0  0  0  0  0  0  0  0  0  0
    6.9621   -1.8815   19.3114 C   0  0  0  0  0  0  0  0  0  0  0  0
    6.0128   -1.5378   18.1638 C   0  0  0  0  0  0  0  0  0  0  0  0
    5.6155   -0.0749   18.1980 C   0  0  0  0  0  0  0  0  0  0  0  0
    5.0195    0.3078   19.5372 C   0  0  0  0  0  0  0  0  0  0  0  0
    5.9576   -0.0413   20.6882 C   0  0  0  0  0  0  0  0  0  0  0  0
  1  2  1  0
  2  3  1  0
  3  4  1  0
  4  5  1  0
  5  6  1  0
  6  7  1  0
  7  8  2  0
  8  9  1  0
  8 10  1  0
 10 11  1  0
 10 12  2  0
 12 13  1  0
 13 14  2  0
  5 15  1  0
 15 16  1  0
 16 17  1  0
 17 18  1  0
 18 19  1  0
 19 20  1  0
 14  3  1  0
 20 15  1  0
 14  7  1  0
M  END
