CVD-0001770|dock_bobby27042020.8|mol2|28|dock2
     RDKit          3D

 24 25  0  0  0  0  0  0  0  0999 V2000
    6.8053   -2.8769   20.8992 O   0  0  0  0  0  0  0  0  0  0  0  0
    7.1666   -1.5161   21.1162 C   0  0  0  0  0  0  0  0  0  0  0  0
    8.6830   -1.4078   20.9606 C   0  0  0  0  0  0  0  0  0  0  0  0
    9.3391   -0.5238   21.9351 N   0  0  0  0  0  0  0  0  0  0  0  0
    9.7354   -1.1596   23.1975 C   0  0  0  0  0  0  0  0  0  0  0  0
   11.2224   -1.3888   23.3327 C   0  0  0  0  0  0  0  0  0  0  0  0
   11.9890   -1.6837   22.2157 C   0  0  0  0  0  0  0  0  0  0  0  0
   13.3534   -1.8936   22.3265 C   0  0  0  0  0  0  0  0  0  0  0  0
   13.9683   -1.8116   23.5571 C   0  0  0  0  0  0  0  0  0  0  0  0
   13.2180   -1.5220   24.6763 C   0  0  0  0  0  0  0  0  0  0  0  0
   11.8534   -1.3141   24.5647 C   0  0  0  0  0  0  0  0  0  0  0  0
    9.5266    0.7850   21.6517 C   0  0  0  0  0  0  0  0  0  0  0  0
    9.1733    1.2544   20.5772 O   0  0  0  0  0  0  0  0  0  0  0  0
   10.1850    1.6795   22.6905 C   0  0  0  0  0  0  0  0  0  0  0  0
   10.9146    2.7567   22.0574 N   0  0  0  0  0  0  0  0  0  0  0  0
   12.1437    3.0883   22.4617 C   0  0  0  0  0  0  0  0  0  0  0  0
   12.7168    2.4983   23.3885 O   0  0  0  0  0  0  0  0  0  0  0  0
   12.7710    4.2088   21.7248 C   0  0  0  0  0  0  0  0  0  0  0  0
   13.9176    4.7237   22.0822 C   0  0  0  0  0  0  0  0  0  0  0  0
    6.4264   -0.6351   20.1623 C   0  0  0  0  0  0  0  0  0  0  0  0
    5.6377    0.4735   20.4494 C   0  0  0  0  0  0  0  0  0  0  0  0
    5.1083    1.0468   19.2680 C   0  0  0  0  0  0  0  0  0  0  0  0
    5.4802    0.4059   18.1478 C   0  0  0  0  0  0  0  0  0  0  0  0
    6.4932   -0.9260   18.4815 S   0  0  0  0  0  0  0  0  0  0  0  0
  2  1  1  0
  2  3  1  0
  3  4  1  0
  4  5  1  0
  5  6  1  0
  6  7  2  0
  7  8  1  0
  8  9  2  0
  9 10  1  0
 10 11  2  0
  4 12  1  0
 12 13  2  0
 12 14  1  0
 14 15  1  0
 15 16  1  0
 16 17  2  0
 16 18  1  0
 18 19  2  0
  2 20  1  0
 20 21  2  0
 21 22  1  0
 22 23  2  0
 23 24  1  0
 11  6  1  0
 24 20  1  0
M  END
