CVD-0001518|dock_bobby27042020.52|mol2|23|dock3
     RDKit          3D

 35 38  0  0  0  0  0  0  0  0999 V2000
   13.8390    5.4194   21.7054 C   0  0  0  0  0  0  0  0  0  0  0  0
   13.2488    5.0535   23.0356 C   0  0  0  0  0  0  0  0  0  0  0  0
   13.8982    5.1205   24.0745 O   0  0  0  0  0  0  0  0  0  0  0  0
   11.9716    4.6670   23.0252 N   0  0  0  0  0  0  0  0  0  0  0  0
   11.2535    4.2973   24.2365 C   0  0  0  0  0  0  0  0  0  0  0  0
   10.1454    3.3022   23.9552 C   0  0  0  0  0  0  0  0  0  0  0  0
   10.6568    1.9740   23.4795 C   0  0  0  0  0  0  0  0  0  0  0  0
   11.7143    1.2672   23.9720 C   0  0  0  0  0  0  0  0  0  0  0  0
   11.8725    0.0991   23.2767 N   0  0  0  0  0  0  0  0  0  0  0  0
   10.9044    0.0270   22.3052 C   0  0  0  0  0  0  0  0  0  0  0  0
   10.6338   -0.9431   21.3465 C   0  0  0  0  0  0  0  0  0  0  0  0
    9.5723   -0.7478   20.4793 C   0  0  0  0  0  0  0  0  0  0  0  0
    8.7806    0.3902   20.5491 C   0  0  0  0  0  0  0  0  0  0  0  0
    7.6234    0.5835   19.5954 C   0  0  0  0  0  0  0  0  0  0  0  0
    7.1893   -0.7096   18.9328 C   0  0  0  0  0  0  0  0  0  0  0  0
    7.3977   -0.9135   17.7435 O   0  0  0  0  0  0  0  0  0  0  0  0
    6.5722   -1.6181   19.7151 N   0  0  0  0  0  0  0  0  0  0  0  0
    6.1172   -2.8798   19.1543 C   0  0  0  0  0  0  0  0  0  0  0  0
    6.6333   -4.0311   19.9588 C   0  0  0  0  0  0  0  0  0  0  0  0
    6.2287   -3.8556   21.3608 N   0  0  0  0  0  0  0  0  0  0  0  0
    6.7673   -2.6126   21.9327 C   0  0  0  0  0  0  0  0  0  0  0  0
    6.2579   -1.4473   21.1371 C   0  0  0  0  0  0  0  0  0  0  0  0
    6.1975   -5.1884   22.2992 S   0  0  0  0  0  0  0  0  0  0  0  0
    7.0502   -6.1510   21.6741 O   0  0  0  0  0  0  0  0  0  0  0  0
    4.8204   -5.4938   22.5333 O   0  0  0  0  0  0  0  0  0  0  0  0
    6.9358   -4.7538   23.8574 C   0  0  0  0  0  0  0  0  0  0  0  0
    8.3069   -4.9328   23.9869 C   0  0  0  0  0  0  0  0  0  0  0  0
    8.9644   -4.6231   25.1670 C   0  0  0  0  0  0  0  0  0  0  0  0
   10.4554   -4.8155   25.3010 C   0  0  0  0  0  0  0  0  0  0  0  0
    8.2086   -4.1267   26.2158 C   0  0  0  0  0  0  0  0  0  0  0  0
    6.8430   -3.9475   26.0909 C   0  0  0  0  0  0  0  0  0  0  0  0
    6.1626   -4.2523   24.9142 C   0  0  0  0  0  0  0  0  0  0  0  0
    4.6737   -4.0426   24.8323 C   0  0  0  0  0  0  0  0  0  0  0  0
    9.0607    1.3519   21.5128 C   0  0  0  0  0  0  0  0  0  0  0  0
   10.1205    1.1911   22.4031 C   0  0  0  0  0  0  0  0  0  0  0  0
  1  2  1  0
  2  3  2  0
  2  4  1  0
  4  5  1  0
  5  6  1  0
  6  7  1  0
  7  8  2  0
  8  9  1  0
  9 10  1  0
 10 11  2  0
 11 12  1  0
 12 13  2  0
 13 14  1  0
 14 15  1  0
 15 16  2  0
 15 17  1  0
 17 18  1  0
 18 19  1  0
 19 20  1  0
 20 21  1  0
 21 22  1  0
 20 23  1  0
 23 24  2  0
 23 25  2  0
 23 26  1  0
 26 27  2  0
 27 28  1  0
 28 29  1  0
 28 30  2  0
 30 31  1  0
 31 32  2  0
 32 33  1  0
 13 34  1  0
 34 35  2  0
 35  7  1  0
 35 10  1  0
 22 17  1  0
 32 26  1  0
M  END
