CVD-0003072|dock_bobby27042020.17|mol2|33|dock3
     RDKit          3D

 32 35  0  0  0  0  0  0  0  0999 V2000
    6.7210   -5.7959   28.5461 C   0  0  0  0  0  0  0  0  0  0  0  0
    7.5406   -5.1366   27.4858 C   0  0  0  0  0  0  0  0  0  0  0  0
    8.4786   -5.5574   26.6296 C   0  0  0  0  0  0  0  0  0  0  0  0
    8.8501   -4.4262   25.8957 C   0  0  0  0  0  0  0  0  0  0  0  0
    9.8648   -4.3277   24.8010 C   0  0  0  0  0  0  0  0  0  0  0  0
    9.3664   -3.6026   23.6452 N   0  0  0  0  0  0  0  0  0  0  0  0
   10.2086   -2.5087   23.1401 C   0  0  0  0  0  0  0  0  0  0  0  0
   10.0123   -1.2097   23.9028 C   0  0  0  0  0  0  0  0  0  0  0  0
   10.7326   -0.0374   23.2575 C   0  0  0  0  0  0  0  0  0  0  0  0
   10.0231    0.5073   22.0298 C   0  0  0  0  0  0  0  0  0  0  0  0
    9.0764    1.5837   22.3240 N   0  0  0  0  0  0  0  0  0  0  0  0
    7.6826    1.3738   21.9534 C   0  0  0  0  0  0  0  0  0  0  0  0
    6.7819    2.2514   22.8042 C   0  0  0  0  0  0  0  0  0  0  0  0
    7.1486    3.7086   22.6145 C   0  0  0  0  0  0  0  0  0  0  0  0
    8.6231    3.9301   22.8506 C   0  0  0  0  0  0  0  0  0  0  0  0
    9.1111    5.1795   23.2159 C   0  0  0  0  0  0  0  0  0  0  0  0
   10.4657    5.4095   23.3533 C   0  0  0  0  0  0  0  0  0  0  0  0
   11.3497    4.3694   23.1209 C   0  0  0  0  0  0  0  0  0  0  0  0
   10.8980    3.1103   22.7550 C   0  0  0  0  0  0  0  0  0  0  0  0
    9.5310    2.8760   22.6158 C   0  0  0  0  0  0  0  0  0  0  0  0
   13.0850    4.6387   23.3189 S   0  0  0  0  0  0  0  0  0  0  0  0
   13.6406    5.3571   22.0006 N   0  0  0  0  0  0  0  0  0  0  0  0
   13.2541    5.5569   24.4049 O   0  0  0  0  0  0  0  0  0  0  0  0
   13.7112    3.3529   23.3963 O   0  0  0  0  0  0  0  0  0  0  0  0
    8.1630   -3.9585   23.1108 C   0  0  0  0  0  0  0  0  0  0  0  0
    7.6124   -3.2022   22.3199 O   0  0  0  0  0  0  0  0  0  0  0  0
    7.5960   -5.1299   23.4558 N   0  0  0  0  0  0  0  0  0  0  0  0
    6.2697   -5.5134   22.9719 C   0  0  0  0  0  0  0  0  0  0  0  0
    6.6178   -7.0013   22.3647 C   0  0  0  0  0  0  0  0  0  0  0  0
    5.7575   -6.0523   21.6112 C   0  0  0  0  0  0  0  0  0  0  0  0
    8.1868   -3.3735   26.2716 N   0  0  0  0  0  0  0  0  0  0  0  0
    7.3287   -3.8187   27.3072 O   0  0  0  0  0  0  0  0  0  0  0  0
  1  2  1  0
  2  3  2  0
  3  4  1  0
  4  5  1  0
  5  6  1  0
  6  7  1  0
  7  8  1  0
  8  9  1  0
  9 10  1  0
 10 11  1  0
 11 12  1  0
 12 13  1  0
 13 14  1  0
 14 15  1  0
 15 16  2  0
 16 17  1  0
 17 18  2  0
 18 19  1  0
 19 20  2  0
 18 21  1  0
 21 22  1  0
 21 23  2  0
 21 24  2  0
  6 25  1  0
 25 26  2  0
 25 27  1  0
 27 28  1  0
 28 29  1  0
 29 30  1  0
  4 31  2  0
 31 32  1  0
 32  2  1  0
 20 11  1  0
 30 28  1  0
 20 15  1  0
M  END
