CVD-0001151|dock_bobby27042020.96|mol2|16|dock3
     RDKit          3D

 28 30  0  0  0  0  0  0  0  0999 V2000
    5.4485   -6.6689   22.9976 Cl  0  0  0  0  0  0  0  0  0  0  0  0
    6.5625   -5.4132   22.4412 C   0  0  0  0  0  0  0  0  0  0  0  0
    6.6547   -4.2767   23.4410 C   0  0  0  0  0  0  0  0  0  0  0  0
    6.1100   -4.3507   24.5353 O   0  0  0  0  0  0  0  0  0  0  0  0
    7.3534   -3.1816   23.0737 N   0  0  0  0  0  0  0  0  0  0  0  0
    8.0586   -2.9348   21.8254 C   0  0  0  0  0  0  0  0  0  0  0  0
    9.4739   -2.4188   22.0596 C   0  0  0  0  0  0  0  0  0  0  0  0
    9.4594   -1.2626   22.9681 N   0  0  0  0  0  0  0  0  0  0  0  0
    8.8231   -1.6356   24.2572 C   0  0  0  0  0  0  0  0  0  0  0  0
    7.3955   -2.0360   23.9948 C   0  0  0  0  0  0  0  0  0  0  0  0
   10.5605   -0.3699   22.9773 C   0  0  0  0  0  0  0  0  0  0  0  0
   10.3728    0.8916   22.5225 C   0  0  0  0  0  0  0  0  0  0  0  0
   11.1873    2.1149   22.4948 C   0  0  0  0  0  0  0  0  0  0  0  0
   12.5812    2.1047   22.5287 C   0  0  0  0  0  0  0  0  0  0  0  0
   13.3182    3.2756   22.5115 C   0  0  0  0  0  0  0  0  0  0  0  0
   12.6743    4.5068   22.4659 C   0  0  0  0  0  0  0  0  0  0  0  0
   11.2847    4.5379   22.4403 C   0  0  0  0  0  0  0  0  0  0  0  0
   10.5614    3.3586   22.4567 C   0  0  0  0  0  0  0  0  0  0  0  0
   13.4353    5.7316   22.4459 C   0  0  0  0  0  0  0  0  0  0  0  0
   14.0203    6.7119   22.4037 N   0  0  0  0  0  0  0  0  0  0  0  0
   11.8382   -0.8542   23.4710 N   0  0  0  0  0  0  0  0  0  0  0  0
   12.0986   -0.5590   24.7793 C   0  0  0  0  0  0  0  0  0  0  0  0
   13.2482   -0.8591   25.4228 C   0  0  0  0  0  0  0  0  0  0  0  0
   14.2986   -1.5136   24.6581 C   0  0  0  0  0  0  0  0  0  0  0  0
   15.4012   -1.7448   25.1385 O   0  0  0  0  0  0  0  0  0  0  0  0
   14.0494   -1.9378   23.1837 C   0  0  0  0  0  0  0  0  0  0  0  0
   12.6759   -1.5563   22.6410 C   0  0  0  0  0  0  0  0  0  0  0  0
   12.4170   -1.9404   21.5072 O   0  0  0  0  0  0  0  0  0  0  0  0
  1  2  1  0
  2  3  1  0
  3  4  2  0
  3  5  1  0
  5  6  1  0
  6  7  1  0
  7  8  1  0
  8  9  1  0
  9 10  1  0
  8 11  1  0
 11 12  2  0
 12 13  1  0
 13 14  2  0
 14 15  1  0
 15 16  2  0
 16 17  1  0
 17 18  2  0
 16 19  1  0
 19 20  3  0
 11 21  1  0
 21 22  1  0
 22 23  2  0
 23 24  1  0
 24 25  2  0
 24 26  1  0
 26 27  1  0
 27 28  2  0
 10  5  1  0
 18 13  1  0
 27 21  1  0
M  END
