CVD-0000304|dock_bobby27042020.70|mol2|33|dock1
     RDKit          3D

 26 29  0  0  0  0  0  0  0  0999 V2000
    8.5377    2.6596   21.7022 O   0  0  0  0  0  0  0  0  0  0  0  0
    9.4637    1.8852   21.9247 C   0  0  0  0  0  0  0  0  0  0  0  0
   10.7040    2.2318   22.3493 N   0  0  0  0  0  0  0  0  0  0  0  0
   11.2714    3.4967   22.6446 C   0  0  0  0  0  0  0  0  0  0  0  0
   12.6573    3.6062   22.6384 C   0  0  0  0  0  0  0  0  0  0  0  0
   13.2689    4.8162   22.9192 C   0  0  0  0  0  0  0  0  0  0  0  0
   12.5087    5.9275   23.2085 C   0  0  0  0  0  0  0  0  0  0  0  0
   11.1346    5.8314   23.2178 C   0  0  0  0  0  0  0  0  0  0  0  0
   10.5109    4.6264   22.9384 C   0  0  0  0  0  0  0  0  0  0  0  0
    9.2866    0.3942   21.7326 C   0  0  0  0  0  0  0  0  0  0  0  0
    9.1373   -0.3135   23.0736 C   0  0  0  0  0  0  0  0  0  0  0  0
    8.9217   -1.7992   22.8705 C   0  0  0  0  0  0  0  0  0  0  0  0
    7.7458   -2.0227   22.0337 N   0  0  0  0  0  0  0  0  0  0  0  0
    7.8660   -1.4072   20.7164 C   0  0  0  0  0  0  0  0  0  0  0  0
    8.0688    0.0973   20.8603 C   0  0  0  0  0  0  0  0  0  0  0  0
    6.7642   -2.9183   22.2770 C   0  0  0  0  0  0  0  0  0  0  0  0
    5.8187   -3.0402   21.5219 O   0  0  0  0  0  0  0  0  0  0  0  0
    6.8244   -3.8019   23.5251 C   0  0  0  0  0  0  0  0  0  0  0  0
    6.5370   -5.1694   23.3835 O   0  0  0  0  0  0  0  0  0  0  0  0
    7.8929   -4.7931   23.6136 C   0  0  0  0  0  0  0  0  0  0  0  0
    8.4740   -5.1788   24.9488 C   0  0  0  0  0  0  0  0  0  0  0  0
    7.7344   -5.8884   25.8824 C   0  0  0  0  0  0  0  0  0  0  0  0
    8.3028   -6.2266   27.0981 C   0  0  0  0  0  0  0  0  0  0  0  0
    9.6017   -5.8430   27.3444 C   0  0  0  0  0  0  0  0  0  0  0  0
   10.3408   -5.1607   26.4683 N   0  0  0  0  0  0  0  0  0  0  0  0
    9.7713   -4.8451   25.3012 C   0  0  0  0  0  0  0  0  0  0  0  0
  1  2  2  0
  2  3  1  0
  3  4  1  0
  4  5  2  0
  5  6  1  0
  6  7  2  0
  7  8  1  0
  8  9  2  0
  2 10  1  0
 10 11  1  0
 11 12  1  0
 12 13  1  0
 13 14  1  0
 14 15  1  0
 13 16  1  0
 16 17  2  0
 16 18  1  0
 18 19  1  0
 19 20  1  0
 20 21  1  0
 21 22  2  0
 22 23  1  0
 23 24  2  0
 24 25  1  0
 25 26  2  0
  9  4  1  0
 15 10  1  0
 20 18  1  0
 26 21  1  0
M  END
