CVD-0001066|dock_bobby27042020.82|mol2|17|dock1
     RDKit          3D

 21 23  0  0  0  0  0  0  0  0999 V2000
    2.9477    3.4809   18.0080 O   0  0  0  0  0  0  0  0  0  0  0  0
    3.5096    2.5617   18.8452 C   0  0  0  0  0  0  0  0  0  0  0  0
    2.9001    2.2668   20.0534 C   0  0  0  0  0  0  0  0  0  0  0  0
    3.4742    1.3269   20.8912 C   0  0  0  0  0  0  0  0  0  0  0  0
    4.6474    0.6880   20.5267 C   0  0  0  0  0  0  0  0  0  0  0  0
    5.2772    0.9904   19.3218 C   0  0  0  0  0  0  0  0  0  0  0  0
    4.6891    1.9292   18.4792 C   0  0  0  0  0  0  0  0  0  0  0  0
    6.5543    0.3605   18.8519 C   0  0  0  0  0  0  0  0  0  0  0  0
    6.6027   -0.0045   17.6721 O   0  0  0  0  0  0  0  0  0  0  0  0
    7.7486    0.1429   19.6947 C   0  0  0  0  0  0  0  0  0  0  0  0
    8.1258    0.9141   20.7122 C   0  0  0  0  0  0  0  0  0  0  0  0
    9.3087    0.6985   21.5486 C   0  0  0  0  0  0  0  0  0  0  0  0
    9.7171    1.6489   22.4800 C   0  0  0  0  0  0  0  0  0  0  0  0
   10.7681    1.5053   23.2531 N   0  0  0  0  0  0  0  0  0  0  0  0
   11.4751    0.3424   23.1049 C   0  0  0  0  0  0  0  0  0  0  0  0
   12.6216    0.1037   23.8969 C   0  0  0  0  0  0  0  0  0  0  0  0
   13.3235   -1.0562   23.7462 C   0  0  0  0  0  0  0  0  0  0  0  0
   12.9331   -2.0102   22.8274 C   0  0  0  0  0  0  0  0  0  0  0  0
   11.8335   -1.8219   22.0424 C   0  0  0  0  0  0  0  0  0  0  0  0
   11.0746   -0.6353   22.1629 C   0  0  0  0  0  0  0  0  0  0  0  0
    9.9700   -0.4394   21.3785 N   0  0  0  0  0  0  0  0  0  0  0  0
  1  2  1  0
  2  3  2  0
  3  4  1  0
  4  5  2  0
  5  6  1  0
  6  7  2  0
  6  8  1  0
  8  9  2  0
  8 10  1  0
 10 11  2  0
 11 12  1  0
 12 13  2  0
 13 14  1  0
 14 15  2  0
 15 16  1  0
 16 17  2  0
 17 18  1  0
 18 19  2  0
 19 20  1  0
 20 21  2  0
  7  2  1  0
 21 12  1  0
 20 15  1  0
M  END
