CVD-0001646|dock_bobby27042020.94|mol2|34|dock1
     RDKit          3D

 16 17  0  0  0  0  0  0  0  0999 V2000
   11.2290    5.2503   22.0871 F   0  0  0  0  0  0  0  0  0  0  0  0
   12.1041    4.2356   22.2730 C   0  0  0  0  0  0  0  0  0  0  0  0
   11.6203    2.9863   22.5508 C   0  0  0  0  0  0  0  0  0  0  0  0
   12.5284    1.9521   22.7472 C   0  0  0  0  0  0  0  0  0  0  0  0
   13.8761    2.2714   22.6497 C   0  0  0  0  0  0  0  0  0  0  0  0
   14.3491    3.4917   22.3614 N   0  0  0  0  0  0  0  0  0  0  0  0
   13.4641    4.4891   22.1761 C   0  0  0  0  0  0  0  0  0  0  0  0
   13.9756    5.8091   21.8777 C   0  0  0  0  0  0  0  0  0  0  0  0
   14.3404    6.8620   21.6266 N   0  0  0  0  0  0  0  0  0  0  0  0
   12.0937    0.6607   23.0285 N   0  0  0  0  0  0  0  0  0  0  0  0
   12.8215   -0.2187   23.9506 C   0  0  0  0  0  0  0  0  0  0  0  0
   13.8217   -1.1530   23.2327 C   0  0  0  0  0  0  0  0  0  0  0  0
   13.0795   -2.2851   22.4886 C   0  0  0  0  0  0  0  0  0  0  0  0
   12.2105   -1.6925   21.5234 O   0  0  0  0  0  0  0  0  0  0  0  0
   10.9247   -1.3089   22.0121 C   0  0  0  0  0  0  0  0  0  0  0  0
   10.8669    0.1958   22.3622 C   0  0  0  0  0  0  0  0  0  0  0  0
  1  2  1  0
  2  3  2  0
  3  4  1  0
  4  5  2  0
  5  6  1  0
  6  7  2  0
  7  8  1  0
  8  9  3  0
  4 10  1  0
 10 11  1  0
 11 12  1  0
 12 13  1  0
 13 14  1  0
 14 15  1  0
 15 16  1  0
  7  2  1  0
 16 10  1  0
M  END
