CVD-0000048|dock_bobby27042020.85|mol2|38|dock1
     RDKit          3D

 21 22  0  0  0  0  0  0  0  0999 V2000
    3.9529    1.3910   20.5662 C   0  0  0  0  0  0  0  0  0  0  0  0
    4.7679    1.0633   19.3425 C   0  0  0  0  0  0  0  0  0  0  0  0
    4.9564    2.0230   18.3525 C   0  0  0  0  0  0  0  0  0  0  0  0
    5.7019    1.7095   17.2358 C   0  0  0  0  0  0  0  0  0  0  0  0
    6.2655    0.5187   17.0394 N   0  0  0  0  0  0  0  0  0  0  0  0
    6.0909   -0.4129   17.9822 C   0  0  0  0  0  0  0  0  0  0  0  0
    5.3561   -0.1948   19.1447 C   0  0  0  0  0  0  0  0  0  0  0  0
    5.2041   -1.2303   20.1161 N   0  0  0  0  0  0  0  0  0  0  0  0
    5.8410   -2.7174   19.9864 S   0  0  0  0  0  0  0  0  0  0  0  0
    5.3266   -3.4892   21.0789 O   0  0  0  0  0  0  0  0  0  0  0  0
    5.6078   -3.1636   18.6446 O   0  0  0  0  0  0  0  0  0  0  0  0
    7.5780   -2.5722   20.2115 C   0  0  0  0  0  0  0  0  0  0  0  0
    8.1076   -1.4633   20.7572 C   0  0  0  0  0  0  0  0  0  0  0  0
    9.4639   -1.1927   20.9981 N   0  0  0  0  0  0  0  0  0  0  0  0
   10.0331   -0.4847   22.0110 C   0  0  0  0  0  0  0  0  0  0  0  0
    9.3851    0.0471   22.9101 O   0  0  0  0  0  0  0  0  0  0  0  0
   11.5038   -0.3663   22.0037 C   0  0  0  0  0  0  0  0  0  0  0  0
   12.4746   -1.2027   21.4950 C   0  0  0  0  0  0  0  0  0  0  0  0
   13.7718   -0.6816   21.7181 C   0  0  0  0  0  0  0  0  0  0  0  0
   13.7722    0.4952   22.3666 C   0  0  0  0  0  0  0  0  0  0  0  0
   12.1921    1.0241   22.7359 S   0  0  0  0  0  0  0  0  0  0  0  0
  1  2  1  0
  2  3  2  0
  3  4  1  0
  4  5  2  0
  5  6  1  0
  6  7  2  0
  7  8  1  0
  8  9  1  0
  9 10  2  0
  9 11  2  0
  9 12  1  0
 12 13  2  0
 13 14  1  0
 14 15  1  0
 15 16  2  0
 15 17  1  0
 17 18  2  0
 18 19  1  0
 19 20  2  0
 20 21  1  0
  7  2  1  0
 21 17  1  0
M  END
