CVD-0001164|dock_bobby27042020.96|mol2|14|dock1
     RDKit          3D

 39 43  0  0  0  0  0  0  0  0999 V2000
    4.8877   -6.1315   22.8475 C   0  0  0  0  0  0  0  0  0  0  0  0
    5.7720   -4.9139   22.7320 C   0  0  0  0  0  0  0  0  0  0  0  0
    5.3998   -3.7028   23.2913 C   0  0  0  0  0  0  0  0  0  0  0  0
    6.2030   -2.5810   23.1853 C   0  0  0  0  0  0  0  0  0  0  0  0
    7.4012   -2.6337   22.4832 C   0  0  0  0  0  0  0  0  0  0  0  0
    7.7872   -3.8506   21.9358 C   0  0  0  0  0  0  0  0  0  0  0  0
    6.9813   -4.9683   22.0593 C   0  0  0  0  0  0  0  0  0  0  0  0
    8.2449   -1.4876   22.3192 N   0  0  0  0  0  0  0  0  0  0  0  0
    9.5493   -1.4936   23.0318 C   0  0  0  0  0  0  0  0  0  0  0  0
    9.9484   -0.0813   23.5096 C   0  0  0  0  0  0  0  0  0  0  0  0
    9.3752    0.4856   24.4363 O   0  0  0  0  0  0  0  0  0  0  0  0
   10.9583    0.4735   22.8329 N   0  0  0  0  0  0  0  0  0  0  0  0
   11.4805    1.8080   23.1275 C   0  0  0  0  0  0  0  0  0  0  0  0
   10.5693    2.9052   22.5399 C   0  0  0  0  0  0  0  0  0  0  0  0
   11.1259    4.3093   22.7683 C   0  0  0  0  0  0  0  0  0  0  0  0
   12.5510    4.4329   22.2447 C   0  0  0  0  0  0  0  0  0  0  0  0
   13.4533    3.3680   22.8517 C   0  0  0  0  0  0  0  0  0  0  0  0
   12.9109    1.9677   22.5850 C   0  0  0  0  0  0  0  0  0  0  0  0
    9.6269   -2.5457   24.1339 C   0  0  0  0  0  0  0  0  0  0  0  0
   10.5043   -3.6222   24.0741 C   0  0  0  0  0  0  0  0  0  0  0  0
   10.5486   -4.5677   25.0834 C   0  0  0  0  0  0  0  0  0  0  0  0
    9.7104   -4.4491   26.1799 C   0  0  0  0  0  0  0  0  0  0  0  0
    9.7504   -5.3787   27.1779 O   0  0  0  0  0  0  0  0  0  0  0  0
    8.8314   -3.3814   26.2574 C   0  0  0  0  0  0  0  0  0  0  0  0
    8.7955   -2.4437   25.2409 C   0  0  0  0  0  0  0  0  0  0  0  0
    7.9575   -0.3830   21.5482 C   0  0  0  0  0  0  0  0  0  0  0  0
    8.7385    0.5447   21.4550 O   0  0  0  0  0  0  0  0  0  0  0  0
    6.6543   -0.2513   20.7404 C   0  0  0  0  0  0  0  0  0  0  0  0
    6.0521    1.0691   20.7181 N   0  0  0  0  0  0  0  0  0  0  0  0
    5.7168    1.6338   19.3924 C   0  0  0  0  0  0  0  0  0  0  0  0
    4.4291    2.2037   20.0211 C   0  0  0  0  0  0  0  0  0  0  0  0
    4.7979    1.3785   21.2310 C   0  0  0  0  0  0  0  0  0  0  0  0
    4.2560    1.0121   22.2663 O   0  0  0  0  0  0  0  0  0  0  0  0
    5.5449    0.1416   18.3968 S   0  0  0  0  0  0  0  0  0  0  0  0
    5.8594    0.3292   17.0155 O   0  0  0  0  0  0  0  0  0  0  0  0
    4.3039   -0.4751   18.7532 O   0  0  0  0  0  0  0  0  0  0  0  0
    6.8987   -0.7334   19.2760 C   0  0  0  0  0  0  0  0  0  0  0  0
    6.7022   -2.2496   19.2241 C   0  0  0  0  0  0  0  0  0  0  0  0
    8.2163   -0.2369   18.6834 C   0  0  0  0  0  0  0  0  0  0  0  0
  1  2  1  0
  2  3  2  0
  3  4  1  0
  4  5  2  0
  5  6  1  0
  6  7  2  0
  5  8  1  0
  8  9  1  0
  9 10  1  0
 10 11  2  0
 10 12  1  0
 12 13  1  0
 13 14  1  0
 14 15  1  0
 15 16  1  0
 16 17  1  0
 17 18  1  0
  9 19  1  0
 19 20  2  0
 20 21  1  0
 21 22  2  0
 22 23  1  0
 22 24  1  0
 24 25  2  0
  8 26  1  0
 26 27  2  0
 28 26  1  0
 28 29  1  0
 29 30  1  0
 30 31  1  0
 31 32  1  0
 32 33  2  0
 30 34  1  0
 34 35  2  0
 34 36  2  0
 34 37  1  0
 37 38  1  0
 37 39  1  0
  7  2  1  0
 18 13  1  0
 25 19  1  0
 37 28  1  0
 32 29  1  0
M  END
