CVD-0002105|dock_bobby27042020.78|mol2|35|dock1
     RDKit          3D

 22 24  0  0  0  0  0  0  0  0999 V2000
    9.3132   -2.6290   23.3332 C   0  0  0  0  0  0  0  0  0  0  0  0
   10.7418   -2.6990   22.8581 C   0  0  0  0  0  0  0  0  0  0  0  0
   11.5825   -1.5759   23.3068 N   0  0  0  0  0  0  0  0  0  0  0  0
   12.9782   -1.8353   22.9886 C   0  0  0  0  0  0  0  0  0  0  0  0
   13.8886   -0.6692   23.4966 C   0  0  0  0  0  0  0  0  0  0  0  0
   13.3952    0.6992   22.9945 C   0  0  0  0  0  0  0  0  0  0  0  0
   11.9024    0.8535   23.2801 C   0  0  0  0  0  0  0  0  0  0  0  0
   11.1219   -0.3225   22.7134 C   0  0  0  0  0  0  0  0  0  0  0  0
   11.3598    2.1642   22.7113 C   0  0  0  0  0  0  0  0  0  0  0  0
    9.8613    2.2644   22.8011 C   0  0  0  0  0  0  0  0  0  0  0  0
    9.3518    3.6778   22.6916 C   0  0  0  0  0  0  0  0  0  0  0  0
    7.9781    3.9473   22.5844 C   0  0  0  0  0  0  0  0  0  0  0  0
    7.0440    2.9483   22.5290 O   0  0  0  0  0  0  0  0  0  0  0  0
    7.5270    5.2574   22.4248 C   0  0  0  0  0  0  0  0  0  0  0  0
    6.1973    5.4844   22.2653 O   0  0  0  0  0  0  0  0  0  0  0  0
    8.4307    6.3089   22.3702 C   0  0  0  0  0  0  0  0  0  0  0  0
    9.7824    6.0409   22.4760 C   0  0  0  0  0  0  0  0  0  0  0  0
   10.2488    4.7351   22.6360 C   0  0  0  0  0  0  0  0  0  0  0  0
   11.7281    4.4964   22.8368 C   0  0  0  0  0  0  0  0  0  0  0  0
   12.4021    5.5573   23.6954 C   0  0  0  0  0  0  0  0  0  0  0  0
   11.5826    5.9535   24.8623 N   0  0  0  0  0  0  0  0  0  0  0  0
   11.9732    3.2290   23.4528 O   0  0  0  0  0  0  0  0  0  0  0  0
  1  2  1  0
  2  3  1  0
  3  4  1  0
  4  5  1  0
  5  6  1  0
  6  7  1  0
  7  8  1  0
  7  9  1  0
  9 10  1  0
 10 11  1  0
 11 12  2  0
 12 13  1  0
 12 14  1  0
 14 15  1  0
 14 16  2  0
 16 17  1  0
 17 18  2  0
 18 19  1  0
 19 20  1  0
 20 21  1  0
 19 22  1  0
  8  3  1  0
 22  9  1  0
 18 11  1  0
M  END
