CVD-0002228|dock_bobby27042020.49|mol2|30|dock3
     RDKit          3D

 16 17  0  0  0  0  0  0  0  0999 V2000
   14.1501    6.4355   22.1229 C   0  0  0  0  0  0  0  0  0  0  0  0
   13.7178    5.0879   22.6218 C   0  0  0  0  0  0  0  0  0  0  0  0
   14.5053    4.3485   23.2023 O   0  0  0  0  0  0  0  0  0  0  0  0
   12.4109    4.8065   22.3802 N   0  0  0  0  0  0  0  0  0  0  0  0
   11.6117    3.6778   22.6904 C   0  0  0  0  0  0  0  0  0  0  0  0
   10.2478    3.7668   22.9447 C   0  0  0  0  0  0  0  0  0  0  0  0
    9.5307    2.6223   23.2374 C   0  0  0  0  0  0  0  0  0  0  0  0
   10.1550    1.3887   23.2788 C   0  0  0  0  0  0  0  0  0  0  0  0
   11.5203    1.2797   23.0321 C   0  0  0  0  0  0  0  0  0  0  0  0
   12.2411    2.4374   22.7376 C   0  0  0  0  0  0  0  0  0  0  0  0
   12.2032    0.0114   23.0723 N   0  0  0  0  0  0  0  0  0  0  0  0
   13.5268   -0.1246   23.6852 C   0  0  0  0  0  0  0  0  0  0  0  0
   13.8541   -1.5916   23.5514 C   0  0  0  0  0  0  0  0  0  0  0  0
   12.7864   -2.2085   22.6836 C   0  0  0  0  0  0  0  0  0  0  0  0
   11.7552   -1.1408   22.4722 C   0  0  0  0  0  0  0  0  0  0  0  0
   10.6894   -1.2188   21.8759 O   0  0  0  0  0  0  0  0  0  0  0  0
  1  2  1  0
  2  3  2  0
  2  4  1  0
  4  5  1  0
  5  6  2  0
  6  7  1  0
  7  8  2  0
  8  9  1  0
  9 10  2  0
  9 11  1  0
 11 12  1  0
 12 13  1  0
 13 14  1  0
 14 15  1  0
 15 16  2  0
 10  5  1  0
 15 11  1  0
M  END
