CVD-0000392|dock_bobby27042020.27|mol2|20|dock2
     RDKit          3D

 26 28  0  0  0  0  0  0  0  0999 V2000
   14.0731    6.1079   21.7883 C   0  0  0  0  0  0  0  0  0  0  0  0
   12.8666    5.5228   22.3317 N   0  0  0  0  0  0  0  0  0  0  0  0
   12.6854    4.1730   22.4828 C   0  0  0  0  0  0  0  0  0  0  0  0
   13.7407    3.2812   22.6233 C   0  0  0  0  0  0  0  0  0  0  0  0
   13.5697    1.9629   22.7696 N   0  0  0  0  0  0  0  0  0  0  0  0
   12.3061    1.5294   22.7752 C   0  0  0  0  0  0  0  0  0  0  0  0
   11.2134    2.2874   22.6517 N   0  0  0  0  0  0  0  0  0  0  0  0
   11.4214    3.6002   22.5064 C   0  0  0  0  0  0  0  0  0  0  0  0
   12.1604    0.0814   22.9423 C   0  0  0  0  0  0  0  0  0  0  0  0
   13.5477   -0.8464   22.5063 S   0  0  0  0  0  0  0  0  0  0  0  0
   12.7410   -2.2842   22.9490 C   0  0  0  0  0  0  0  0  0  0  0  0
   11.4924   -2.0865   23.3923 C   0  0  0  0  0  0  0  0  0  0  0  0
   10.5386   -3.4348   23.8970 Cl  0  0  0  0  0  0  0  0  0  0  0  0
   11.1350   -0.7004   23.3795 C   0  0  0  0  0  0  0  0  0  0  0  0
    9.7836   -0.1057   23.7910 C   0  0  0  0  0  0  0  0  0  0  0  0
    9.3078   -0.5594   25.1965 C   0  0  0  0  0  0  0  0  0  0  0  0
    7.8168   -0.8516   25.0770 C   0  0  0  0  0  0  0  0  0  0  0  0
    7.3972   -0.2807   23.7232 C   0  0  0  0  0  0  0  0  0  0  0  0
    8.6368   -0.5074   22.8456 C   0  0  0  0  0  0  0  0  0  0  0  0
    8.6075    0.2189   21.5129 C   0  0  0  0  0  0  0  0  0  0  0  0
    9.4190    1.0945   21.2224 O   0  0  0  0  0  0  0  0  0  0  0  0
    7.6107   -0.1800   20.6742 N   0  0  0  0  0  0  0  0  0  0  0  0
    7.3190    0.2806   19.4084 C   0  0  0  0  0  0  0  0  0  0  0  0
    7.9702    1.1711   18.8431 O   0  0  0  0  0  0  0  0  0  0  0  0
    6.1561   -0.3779   18.7713 C   0  0  0  0  0  0  0  0  0  0  0  0
    5.4281    0.2169   17.8637 C   0  0  0  0  0  0  0  0  0  0  0  0
  1  2  1  0
  2  3  1  0
  3  4  2  0
  4  5  1  0
  5  6  2  0
  6  7  1  0
  7  8  2  0
  6  9  1  0
  9 10  1  0
 10 11  1  0
 11 12  2  0
 12 13  1  0
 12 14  1  0
 15 14  1  0
 15 16  1  0
 16 17  1  0
 17 18  1  0
 18 19  1  0
 19 20  1  0
 20 21  2  0
 20 22  1  0
 22 23  1  0
 23 24  2  0
 23 25  1  0
 25 26  2  0
  8  3  1  0
 14  9  2  0
 19 15  1  0
M  END
