CVD-0001951|dock_bobby27042020.65|mol2|22|dock3
     RDKit          3D

 18 19  0  0  0  0  0  0  0  0999 V2000
   14.1544    5.9661   21.7779 C   0  0  0  0  0  0  0  0  0  0  0  0
   13.5272    4.8676   22.6047 C   0  0  0  0  0  0  0  0  0  0  0  0
   12.7073    3.9273   21.7487 C   0  0  0  0  0  0  0  0  0  0  0  0
   12.3205    2.7070   22.4697 N   0  0  0  0  0  0  0  0  0  0  0  0
   13.2458    1.8137   22.9236 C   0  0  0  0  0  0  0  0  0  0  0  0
   12.6071    0.7875   23.6031 C   0  0  0  0  0  0  0  0  0  0  0  0
   13.2219   -0.4129   24.2736 C   0  0  0  0  0  0  0  0  0  0  0  0
   14.1080   -1.1475   23.3644 N   0  0  0  0  0  0  0  0  0  0  0  0
   13.4217   -1.8084   22.2512 C   0  0  0  0  0  0  0  0  0  0  0  0
   11.2367    1.0965   23.5632 C   0  0  0  0  0  0  0  0  0  0  0  0
   11.0626    2.2742   22.8615 C   0  0  0  0  0  0  0  0  0  0  0  0
    9.7622    2.9408   22.6012 C   0  0  0  0  0  0  0  0  0  0  0  0
    9.6834    4.2880   22.9597 C   0  0  0  0  0  0  0  0  0  0  0  0
    8.5426    5.0315   22.7095 C   0  0  0  0  0  0  0  0  0  0  0  0
    7.4532    4.4498   22.1019 C   0  0  0  0  0  0  0  0  0  0  0  0
    7.4837    3.1076   21.7697 C   0  0  0  0  0  0  0  0  0  0  0  0
    8.6146    2.3778   22.0519 C   0  0  0  0  0  0  0  0  0  0  0  0
    8.5457    1.0560   21.7803 F   0  0  0  0  0  0  0  0  0  0  0  0
  1  2  1  0
  2  3  1  0
  3  4  1  0
  4  5  1  0
  5  6  2  0
  6  7  1  0
  7  8  1  0
  8  9  1  0
  6 10  1  0
 10 11  2  0
 11 12  1  0
 12 13  2  0
 13 14  1  0
 14 15  2  0
 15 16  1  0
 16 17  2  0
 17 18  1  0
 11  4  1  0
 17 12  1  0
M  END
