CVD-0003641|dock_bobby27042020.1|mol2|24|dock3
     RDKit          3D

 33 36  0  0  0  0  0  0  0  0999 V2000
    8.3224   -5.7402   26.9136 O   0  0  0  0  0  0  0  0  0  0  0  0
    9.3568   -5.6957   26.2508 N   0  0  0  0  0  0  0  0  0  0  0  0
   10.1571   -6.6122   26.1700 O   0  0  0  0  0  0  0  0  0  0  0  0
    9.6471   -4.4614   25.5097 C   0  0  0  0  0  0  0  0  0  0  0  0
   10.8160   -4.3539   24.7749 C   0  0  0  0  0  0  0  0  0  0  0  0
   11.0865   -3.1902   24.0767 C   0  0  0  0  0  0  0  0  0  0  0  0
   10.1831   -2.1307   24.0731 C   0  0  0  0  0  0  0  0  0  0  0  0
    9.0244   -2.2510   24.8341 C   0  0  0  0  0  0  0  0  0  0  0  0
    8.7527   -3.4049   25.5471 C   0  0  0  0  0  0  0  0  0  0  0  0
   10.4100   -0.8861   23.3063 C   0  0  0  0  0  0  0  0  0  0  0  0
   11.2464    0.1471   23.6806 C   0  0  0  0  0  0  0  0  0  0  0  0
   11.1839    1.1085   22.6616 C   0  0  0  0  0  0  0  0  0  0  0  0
   10.3550    0.7182   21.6882 N   0  0  0  0  0  0  0  0  0  0  0  0
    9.8566   -0.5060   22.1028 N   0  0  0  0  0  0  0  0  0  0  0  0
    8.9027   -1.1153   21.2208 C   0  0  0  0  0  0  0  0  0  0  0  0
    8.9485   -2.5065   21.1751 C   0  0  0  0  0  0  0  0  0  0  0  0
    8.0083   -3.2110   20.4477 C   0  0  0  0  0  0  0  0  0  0  0  0
    7.0194   -2.5324   19.7597 C   0  0  0  0  0  0  0  0  0  0  0  0
    6.9894   -1.1482   19.7437 C   0  0  0  0  0  0  0  0  0  0  0  0
    7.9615   -0.4227   20.4262 C   0  0  0  0  0  0  0  0  0  0  0  0
    7.9463    1.0236   20.2581 N   0  0  0  0  0  0  0  0  0  0  0  0
    7.5698    1.5038   19.1922 O   0  0  0  0  0  0  0  0  0  0  0  0
    8.2476    1.7185   21.2137 O   0  0  0  0  0  0  0  0  0  0  0  0
    5.9903   -3.2877   19.0329 N   0  0  0  0  0  0  0  0  0  0  0  0
    5.8318   -4.4716   19.3236 O   0  0  0  0  0  0  0  0  0  0  0  0
    5.3468   -2.7015   18.1791 O   0  0  0  0  0  0  0  0  0  0  0  0
   11.8886    2.3965   22.5663 C   0  0  0  0  0  0  0  0  0  0  0  0
   12.3811    3.0213   23.7065 C   0  0  0  0  0  0  0  0  0  0  0  0
   13.0445    4.2325   23.6223 C   0  0  0  0  0  0  0  0  0  0  0  0
   13.2147    4.8201   22.3869 C   0  0  0  0  0  0  0  0  0  0  0  0
   14.1245    6.4829   22.2639 Br  0  0  0  0  0  0  0  0  0  0  0  0
   12.7374    4.2242   21.2392 C   0  0  0  0  0  0  0  0  0  0  0  0
   12.0753    3.0130   21.3342 C   0  0  0  0  0  0  0  0  0  0  0  0
  1  2  1  0
  2  3  2  0
  2  4  1  0
  4  5  2  0
  5  6  1  0
  6  7  2  0
  7  8  1  0
  8  9  2  0
  7 10  1  0
 10 11  2  0
 11 12  1  0
 12 13  2  0
 13 14  1  0
 14 15  1  0
 15 16  2  0
 16 17  1  0
 17 18  2  0
 18 19  1  0
 19 20  2  0
 20 21  1  0
 21 22  1  0
 21 23  2  0
 18 24  1  0
 24 25  1  0
 24 26  2  0
 12 27  1  0
 27 28  2  0
 28 29  1  0
 29 30  2  0
 30 31  1  0
 30 32  1  0
 32 33  2  0
  9  4  1  0
 14 10  1  0
 20 15  1  0
 33 27  1  0
M  CHG  6   1  -1   2   1  21   1  22  -1  24   1  25  -1
M  END
