CVD-0002129|dock_bobby27042020.50|mol2|11|dock1
     RDKit          3D

 30 32  0  0  0  0  0  0  0  0999 V2000
   13.3559   -0.9749   24.7672 C   0  0  0  0  0  0  0  0  0  0  0  0
   13.3230   -0.9141   23.2609 C   0  0  0  0  0  0  0  0  0  0  0  0
   12.1144   -0.3491   22.8004 O   0  0  0  0  0  0  0  0  0  0  0  0
   11.6812    0.9461   23.2651 C   0  0  0  0  0  0  0  0  0  0  0  0
   12.7028    2.0211   22.9740 C   0  0  0  0  0  0  0  0  0  0  0  0
   12.4358    3.2360   22.5141 C   0  0  0  0  0  0  0  0  0  0  0  0
   11.0251    3.6777   22.2527 C   0  0  0  0  0  0  0  0  0  0  0  0
   10.0018    2.7878   22.9278 C   0  0  0  0  0  0  0  0  0  0  0  0
   10.2927    1.3039   22.6845 C   0  0  0  0  0  0  0  0  0  0  0  0
    9.2444    0.4386   23.2137 N   0  0  0  0  0  0  0  0  0  0  0  0
    8.2299   -0.0480   22.4932 C   0  0  0  0  0  0  0  0  0  0  0  0
    8.0139    0.1806   21.1729 C   0  0  0  0  0  0  0  0  0  0  0  0
    6.6199   -0.6063   20.5971 S   0  0  0  0  0  0  0  0  0  0  0  0
    6.2920   -1.2699   22.1279 C   0  0  0  0  0  0  0  0  0  0  0  0
    7.2092   -0.9048   23.0595 C   0  0  0  0  0  0  0  0  0  0  0  0
    7.1066   -1.3899   24.4827 C   0  0  0  0  0  0  0  0  0  0  0  0
    7.9550   -2.5470   24.7759 N   0  0  0  0  0  0  0  0  0  0  0  0
    7.8600   -2.9182   26.1929 C   0  0  0  0  0  0  0  0  0  0  0  0
    8.7718   -4.0808   26.5327 C   0  0  0  0  0  0  0  0  0  0  0  0
    8.5078   -5.3077   25.6682 C   0  0  0  0  0  0  0  0  0  0  0  0
    9.4364   -6.3747   25.8795 O   0  0  0  0  0  0  0  0  0  0  0  0
    8.5115   -4.8757   24.2060 C   0  0  0  0  0  0  0  0  0  0  0  0
    7.5856   -3.6985   23.9483 C   0  0  0  0  0  0  0  0  0  0  0  0
   13.5158    4.2300   22.2406 C   0  0  0  0  0  0  0  0  0  0  0  0
   13.5484    4.9042   21.1152 O   0  0  0  0  0  0  0  0  0  0  0  0
   14.3736    4.4045   23.0863 O   0  0  0  0  0  0  0  0  0  0  0  0
   13.4567   -2.5201   22.5563 S   0  0  0  0  0  0  0  0  0  0  0  0
   13.6155   -2.3207   20.9665 N   0  0  0  0  0  0  0  0  0  0  0  0
   12.2024   -3.1614   22.8192 O   0  0  0  0  0  0  0  0  0  0  0  0
   14.6734   -3.0691   23.0775 O   0  0  0  0  0  0  0  0  0  0  0  0
  1  2  1  0
  2  3  1  0
  3  4  1  0
  4  5  1  0
  5  6  2  0
  6  7  1  0
  7  8  1  0
  8  9  1  0
  9 10  1  0
 10 11  1  0
 11 12  2  0
 12 13  1  0
 13 14  1  0
 14 15  2  0
 15 16  1  0
 16 17  1  0
 17 18  1  0
 18 19  1  0
 19 20  1  0
 20 21  1  0
 20 22  1  0
 22 23  1  0
  6 24  1  0
 24 25  1  0
 24 26  2  0
  2 27  1  0
 27 28  1  0
 27 29  2  0
 27 30  2  0
  9  4  1  0
 15 11  1  0
 23 17  1  0
M  END
