CVD-0003058|dock_bobby27042020.32|mol2|14|dock2
     RDKit          3D

 23 24  0  0  0  0  0  0  0  0999 V2000
   13.5605   -1.3299   21.6982 C   0  0  0  0  0  0  0  0  0  0  0  0
   13.5606   -1.3409   23.2054 C   0  0  0  0  0  0  0  0  0  0  0  0
   14.2496   -2.3570   23.8607 C   0  0  0  0  0  0  0  0  0  0  0  0
   14.2656   -2.3954   25.2369 C   0  0  0  0  0  0  0  0  0  0  0  0
   13.6452   -1.4963   25.9953 N   0  0  0  0  0  0  0  0  0  0  0  0
   12.9783   -0.5165   25.3773 C   0  0  0  0  0  0  0  0  0  0  0  0
   12.8958   -0.3796   23.9913 C   0  0  0  0  0  0  0  0  0  0  0  0
   12.1868    0.6634   23.3318 N   0  0  0  0  0  0  0  0  0  0  0  0
   11.0193    1.2772   23.6507 C   0  0  0  0  0  0  0  0  0  0  0  0
   10.3225    1.0244   24.6291 O   0  0  0  0  0  0  0  0  0  0  0  0
   10.6253    2.3641   22.6462 C   0  0  0  0  0  0  0  0  0  0  0  0
    9.2578    2.9421   23.0404 C   0  0  0  0  0  0  0  0  0  0  0  0
    8.8611    4.1226   22.2662 N   0  0  0  0  0  0  0  0  0  0  0  0
    9.1727    5.5906   22.8306 S   0  0  0  0  0  0  0  0  0  0  0  0
    7.8086    6.6136   22.4312 C   0  0  0  0  0  0  0  0  0  0  0  0
    9.2462    5.4848   24.2551 O   0  0  0  0  0  0  0  0  0  0  0  0
   10.3155    6.0780   22.1221 O   0  0  0  0  0  0  0  0  0  0  0  0
   11.7054    3.4340   22.5459 C   0  0  0  0  0  0  0  0  0  0  0  0
   12.2438    3.8312   21.3277 C   0  0  0  0  0  0  0  0  0  0  0  0
   13.2341    4.7978   21.2694 C   0  0  0  0  0  0  0  0  0  0  0  0
   13.6971    5.3872   22.4257 C   0  0  0  0  0  0  0  0  0  0  0  0
   13.1691    5.0099   23.6413 C   0  0  0  0  0  0  0  0  0  0  0  0
   12.1814    4.0410   23.7002 C   0  0  0  0  0  0  0  0  0  0  0  0
  1  2  1  0
  2  3  2  0
  3  4  1  0
  4  5  2  0
  5  6  1  0
  6  7  2  0
  7  8  1  0
  8  9  1  0
  9 10  2  0
  9 11  1  0
 11 12  1  0
 12 13  1  0
 13 14  1  0
 14 15  1  0
 14 16  2  0
 14 17  2  0
 11 18  1  0
 18 19  2  0
 19 20  1  0
 20 21  2  0
 21 22  1  0
 22 23  2  0
  7  2  1  0
 23 18  1  0
M  END
