CVD-0003027|dock_bobby27042020.17|mol2|40|dock2
     RDKit          3D

 28 31  0  0  0  0  0  0  0  0999 V2000
    3.5843    1.6858   19.3109 C   0  0  0  0  0  0  0  0  0  0  0  0
    4.9087    1.0328   19.6061 C   0  0  0  0  0  0  0  0  0  0  0  0
    5.1245    0.4248   20.8409 C   0  0  0  0  0  0  0  0  0  0  0  0
    6.3370   -0.1719   21.1398 C   0  0  0  0  0  0  0  0  0  0  0  0
    6.4539   -0.7562   22.3874 O   0  0  0  0  0  0  0  0  0  0  0  0
    7.6561   -1.3554   22.6790 C   0  0  0  0  0  0  0  0  0  0  0  0
    7.9766   -1.9986   23.9734 C   0  0  0  0  0  0  0  0  0  0  0  0
    7.2166   -2.1896   24.9137 O   0  0  0  0  0  0  0  0  0  0  0  0
    9.2508   -2.4308   23.8837 N   0  0  0  0  0  0  0  0  0  0  0  0
    9.9638   -3.1358   24.9506 C   0  0  0  0  0  0  0  0  0  0  0  0
    9.7013   -4.6314   24.9607 C   0  0  0  0  0  0  0  0  0  0  0  0
   10.1683   -5.2907   26.2348 C   0  0  0  0  0  0  0  0  0  0  0  0
   10.0513   -6.7023   26.1579 O   0  0  0  0  0  0  0  0  0  0  0  0
    9.8483   -2.1546   22.5826 C   0  0  0  0  0  0  0  0  0  0  0  0
    8.7238   -1.4319   21.8821 C   0  0  0  0  0  0  0  0  0  0  0  0
    8.6691   -0.8347   20.5480 C   0  0  0  0  0  0  0  0  0  0  0  0
    9.6152   -0.8820   19.7688 O   0  0  0  0  0  0  0  0  0  0  0  0
    7.3859   -0.1827   20.2079 C   0  0  0  0  0  0  0  0  0  0  0  0
    7.1752    0.4239   18.9715 C   0  0  0  0  0  0  0  0  0  0  0  0
    5.9570    1.0145   18.6923 C   0  0  0  0  0  0  0  0  0  0  0  0
    5.7349    1.7572   17.1422 Cl  0  0  0  0  0  0  0  0  0  0  0  0
   11.1307   -1.3440   22.6928 C   0  0  0  0  0  0  0  0  0  0  0  0
   12.1648   -1.5245   21.7851 C   0  0  0  0  0  0  0  0  0  0  0  0
   13.3357   -0.7935   21.8802 C   0  0  0  0  0  0  0  0  0  0  0  0
   13.4513    0.1159   22.8961 C   0  0  0  0  0  0  0  0  0  0  0  0
   14.5993    0.8388   22.9962 F   0  0  0  0  0  0  0  0  0  0  0  0
   12.4604    0.3282   23.8155 C   0  0  0  0  0  0  0  0  0  0  0  0
   11.2958   -0.4108   23.7065 C   0  0  0  0  0  0  0  0  0  0  0  0
  1  2  1  0
  2  3  2  0
  3  4  1  0
  4  5  1  0
  5  6  1  0
  6  7  1  0
  7  8  2  0
  7  9  1  0
  9 10  1  0
 10 11  1  0
 11 12  1  0
 12 13  1  0
  9 14  1  0
 14 15  1  0
 15 16  1  0
 16 17  2  0
 16 18  1  0
 18 19  1  0
 19 20  2  0
 20 21  1  0
 14 22  1  0
 22 23  2  0
 23 24  1  0
 24 25  2  0
 25 26  1  0
 25 27  1  0
 27 28  2  0
 20  2  1  0
 28 22  1  0
 18  4  2  0
 15  6  2  0
M  END
