CVD-0003555|dock_bobby27042020.30|mol2|31|dock3
     RDKit          3D

 19 21  0  0  0  0  0  0  0  0999 V2000
    9.4807   -1.1876   23.2823 O   0  0  0  0  0  0  0  0  0  0  0  0
    9.9160   -1.4111   22.1565 C   0  0  0  0  0  0  0  0  0  0  0  0
    9.1013   -1.2873   21.0284 N   0  0  0  0  0  0  0  0  0  0  0  0
    7.7472   -0.9119   21.0193 C   0  0  0  0  0  0  0  0  0  0  0  0
    6.7581   -1.1014   21.9272 C   0  0  0  0  0  0  0  0  0  0  0  0
    5.6030   -0.5382   21.4405 N   0  0  0  0  0  0  0  0  0  0  0  0
    5.8272    0.0214   20.2157 C   0  0  0  0  0  0  0  0  0  0  0  0
    4.9481    0.6621   19.4270 N   0  0  0  0  0  0  0  0  0  0  0  0
    5.4260    1.1223   18.2612 C   0  0  0  0  0  0  0  0  0  0  0  0
    6.7340    0.9739   17.8474 C   0  0  0  0  0  0  0  0  0  0  0  0
    7.6305    0.3109   18.6708 C   0  0  0  0  0  0  0  0  0  0  0  0
    7.1732   -0.1820   19.8899 C   0  0  0  0  0  0  0  0  0  0  0  0
   11.1990   -1.7953   21.8519 N   0  0  0  0  0  0  0  0  0  0  0  0
   12.3172   -2.0297   22.6906 C   0  0  0  0  0  0  0  0  0  0  0  0
   12.1036   -2.5373   23.9657 C   0  0  0  0  0  0  0  0  0  0  0  0
   13.1824   -2.7729   24.7995 C   0  0  0  0  0  0  0  0  0  0  0  0
   14.4465   -2.4942   24.3347 C   0  0  0  0  0  0  0  0  0  0  0  0
   14.6850   -2.0068   23.1171 N   0  0  0  0  0  0  0  0  0  0  0  0
   13.6369   -1.7823   22.3185 C   0  0  0  0  0  0  0  0  0  0  0  0
  1  2  2  0
  2  3  1  0
  3  4  1  0
  4  5  2  0
  5  6  1  0
  6  7  1  0
  7  8  2  0
  8  9  1  0
  9 10  2  0
 10 11  1  0
 11 12  2  0
  2 13  1  0
 13 14  1  0
 14 15  2  0
 15 16  1  0
 16 17  2  0
 17 18  1  0
 18 19  2  0
 12  4  1  0
 19 14  1  0
 12  7  1  0
M  END
