CVD-0000994|dock_bobby27042020.82|mol2|28|dock2
     RDKit          3D

 19 21  0  0  0  0  0  0  0  0999 V2000
    1.0763    2.4062   21.3595 Br  0  0  0  0  0  0  0  0  0  0  0  0
    2.6963    2.0734   20.4832 C   0  0  0  0  0  0  0  0  0  0  0  0
    3.0459    2.4752   19.2464 C   0  0  0  0  0  0  0  0  0  0  0  0
    4.3283    2.0535   18.9032 C   0  0  0  0  0  0  0  0  0  0  0  0
    4.9505    1.3261   19.8927 C   0  0  0  0  0  0  0  0  0  0  0  0
    3.9185    1.1659   21.2743 S   0  0  0  0  0  0  0  0  0  0  0  0
    6.2686    0.7319   19.8955 C   0  0  0  0  0  0  0  0  0  0  0  0
    7.0721    0.7371   18.8649 N   0  0  0  0  0  0  0  0  0  0  0  0
    8.2807    0.0980   19.1325 N   0  0  0  0  0  0  0  0  0  0  0  0
    8.3263   -0.3584   20.3567 C   0  0  0  0  0  0  0  0  0  0  0  0
    9.4373   -1.0257   20.8264 N   0  0  0  0  0  0  0  0  0  0  0  0
    9.7929   -1.1022   22.1374 C   0  0  0  0  0  0  0  0  0  0  0  0
    9.1443   -0.5741   23.0368 O   0  0  0  0  0  0  0  0  0  0  0  0
   11.0560   -1.8923   22.4045 C   0  0  0  0  0  0  0  0  0  0  0  0
   11.1909   -2.3343   23.8306 C   0  0  0  0  0  0  0  0  0  0  0  0
   12.4902   -1.9126   24.2930 C   0  0  0  0  0  0  0  0  0  0  0  0
   13.1219   -1.1624   23.3351 C   0  0  0  0  0  0  0  0  0  0  0  0
   12.2820   -1.0599   22.1292 C   0  0  0  0  0  0  0  0  0  0  0  0
    6.9064   -0.0555   21.3010 S   0  0  0  0  0  0  0  0  0  0  0  0
  1  2  1  0
  2  3  2  0
  3  4  1  0
  4  5  2  0
  5  6  1  0
  5  7  1  0
  7  8  2  0
  8  9  1  0
  9 10  2  0
 10 11  1  0
 11 12  1  0
 12 13  2  0
 12 14  1  0
 14 15  1  0
 15 16  1  0
 16 17  1  0
 17 18  1  0
 10 19  1  0
  6  2  1  0
 19  7  1  0
 18 14  1  0
M  END
