CVD-0001648|dock_bobby27042020.66|mol2|28|dock1
     RDKit          3D

 19 20  0  0  0  0  0  0  0  0999 V2000
   13.0379    5.6966   22.5344 F   0  0  0  0  0  0  0  0  0  0  0  0
   13.0831    4.4733   22.0189 C   0  0  0  0  0  0  0  0  0  0  0  0
   13.0512    4.6313   20.7006 F   0  0  0  0  0  0  0  0  0  0  0  0
   14.2930    4.0038   22.3012 F   0  0  0  0  0  0  0  0  0  0  0  0
   11.9724    3.5953   22.5209 C   0  0  0  0  0  0  0  0  0  0  0  0
   12.1991    2.2310   22.6552 C   0  0  0  0  0  0  0  0  0  0  0  0
   11.1805    1.4091   23.1288 C   0  0  0  0  0  0  0  0  0  0  0  0
    9.9709    2.0103   23.4491 C   0  0  0  0  0  0  0  0  0  0  0  0
    9.7167    3.3177   23.3136 N   0  0  0  0  0  0  0  0  0  0  0  0
   10.7122    4.0999   22.8596 C   0  0  0  0  0  0  0  0  0  0  0  0
   10.4249    5.5121   22.7317 C   0  0  0  0  0  0  0  0  0  0  0  0
   10.1653    6.6221   22.6588 N   0  0  0  0  0  0  0  0  0  0  0  0
   11.3776    0.0391   23.2726 N   0  0  0  0  0  0  0  0  0  0  0  0
   12.1320   -0.5214   24.3993 C   0  0  0  0  0  0  0  0  0  0  0  0
   13.6227   -0.7621   24.0694 C   0  0  0  0  0  0  0  0  0  0  0  0
   13.7899   -1.9871   23.1433 C   0  0  0  0  0  0  0  0  0  0  0  0
   13.0730   -1.7362   21.9345 O   0  0  0  0  0  0  0  0  0  0  0  0
   11.6862   -2.0756   21.9642 C   0  0  0  0  0  0  0  0  0  0  0  0
   10.7973   -0.8429   22.2475 C   0  0  0  0  0  0  0  0  0  0  0  0
  1  2  1  0
  2  3  1  0
  2  4  1  0
  2  5  1  0
  5  6  2  0
  6  7  1  0
  7  8  2  0
  8  9  1  0
  9 10  2  0
 10 11  1  0
 11 12  3  0
  7 13  1  0
 13 14  1  0
 14 15  1  0
 15 16  1  0
 16 17  1  0
 17 18  1  0
 18 19  1  0
 10  5  1  0
 19 13  1  0
M  END
