CVD-0002547|dock_bobby27042020.91|mol2|8|dock2
     RDKit          3D

 32 33  0  0  0  0  0  0  0  0999 V2000
    9.2601   -5.5631   27.4927 C   0  0  0  0  0  0  0  0  0  0  0  0
    9.6187   -6.1886   25.8968 S   0  0  0  0  0  0  0  0  0  0  0  0
    8.4212   -6.1281   25.1169 O   0  0  0  0  0  0  0  0  0  0  0  0
   10.2698   -7.4527   26.0514 O   0  0  0  0  0  0  0  0  0  0  0  0
   10.6757   -5.1964   25.2121 N   0  0  0  0  0  0  0  0  0  0  0  0
   10.2669   -4.3812   24.0620 C   0  0  0  0  0  0  0  0  0  0  0  0
    9.3493   -3.2551   24.5028 C   0  0  0  0  0  0  0  0  0  0  0  0
    8.9289   -2.3628   23.3600 C   0  0  0  0  0  0  0  0  0  0  0  0
    8.2023   -2.8696   22.2948 C   0  0  0  0  0  0  0  0  0  0  0  0
    7.8224   -2.0474   21.2488 C   0  0  0  0  0  0  0  0  0  0  0  0
    8.1682   -0.7073   21.2608 C   0  0  0  0  0  0  0  0  0  0  0  0
    8.8979   -0.1735   22.3175 C   0  0  0  0  0  0  0  0  0  0  0  0
    9.2726   -1.0163   23.3620 C   0  0  0  0  0  0  0  0  0  0  0  0
    9.2467    1.2869   22.2810 C   0  0  0  0  0  0  0  0  0  0  0  0
    8.4998    2.0684   21.6998 O   0  0  0  0  0  0  0  0  0  0  0  0
   10.3648    1.7205   22.8806 N   0  0  0  0  0  0  0  0  0  0  0  0
   10.7260    3.1284   22.8621 C   0  0  0  0  0  0  0  0  0  0  0  0
   12.0616    3.3359   23.5956 C   0  0  0  0  0  0  0  0  0  0  0  0
   12.5783    4.7536   23.5528 C   0  0  0  0  0  0  0  0  0  0  0  0
   12.2683    5.6531   24.5609 C   0  0  0  0  0  0  0  0  0  0  0  0
   12.7359    6.9548   24.5266 C   0  0  0  0  0  0  0  0  0  0  0  0
   13.5275    7.3760   23.4703 C   0  0  0  0  0  0  0  0  0  0  0  0
   13.9922    8.6582   23.4304 O   0  0  0  0  0  0  0  0  0  0  0  0
   13.8445    6.4884   22.4548 C   0  0  0  0  0  0  0  0  0  0  0  0
   13.3701    5.1895   22.5019 C   0  0  0  0  0  0  0  0  0  0  0  0
    9.6216    3.9693   23.4987 C   0  0  0  0  0  0  0  0  0  0  0  0
    9.2952    3.7763   24.6668 O   0  0  0  0  0  0  0  0  0  0  0  0
    9.0433    4.8946   22.7328 N   0  0  0  0  0  0  0  0  0  0  0  0
    7.9748    5.7448   23.2408 C   0  0  0  0  0  0  0  0  0  0  0  0
    7.2702    6.4658   22.1741 C   0  0  0  0  0  0  0  0  0  0  0  0
    6.6877    7.0909   21.3518 C   0  0  0  0  0  0  0  0  0  0  0  0
    5.7554    7.9998   20.1074 Br  0  0  0  0  0  0  0  0  0  0  0  0
  1  2  1  0
  2  3  2  0
  2  4  2  0
  2  5  1  0
  5  6  1  0
  6  7  1  0
  7  8  1  0
  8  9  2  0
  9 10  1  0
 10 11  2  0
 11 12  1  0
 12 13  2  0
 12 14  1  0
 14 15  2  0
 14 16  1  0
 16 17  1  0
 17 18  1  0
 18 19  1  0
 19 20  2  0
 20 21  1  0
 21 22  2  0
 22 23  1  0
 22 24  1  0
 24 25  2  0
 17 26  1  0
 26 27  2  0
 26 28  1  0
 28 29  1  0
 29 30  1  0
 30 31  3  0
 31 32  1  0
 13  8  1  0
 25 19  1  0
M  END
