CVD-0003014|dock_bobby27042020.32|mol2|21|dock2
     RDKit          3D

 43 47  0  0  0  0  0  0  0  0999 V2000
   13.4528   10.2746   25.4601 C   0  0  0  0  0  0  0  0  0  0  0  0
   13.8070    9.5735   24.2701 O   0  0  0  0  0  0  0  0  0  0  0  0
   13.5319    8.2355   24.1998 C   0  0  0  0  0  0  0  0  0  0  0  0
   13.1371    7.4311   25.2612 C   0  0  0  0  0  0  0  0  0  0  0  0
   12.8905    6.0867   25.0491 C   0  0  0  0  0  0  0  0  0  0  0  0
   13.0316    5.5224   23.7891 C   0  0  0  0  0  0  0  0  0  0  0  0
   13.4248    6.3278   22.7304 C   0  0  0  0  0  0  0  0  0  0  0  0
   13.6758    7.6763   22.9258 C   0  0  0  0  0  0  0  0  0  0  0  0
   14.0602    8.4421   21.8718 O   0  0  0  0  0  0  0  0  0  0  0  0
   12.7576    4.0569   23.5653 C   0  0  0  0  0  0  0  0  0  0  0  0
   13.8327    3.3649   22.7625 C   0  0  0  0  0  0  0  0  0  0  0  0
   13.4643    1.9453   22.4541 C   0  0  0  0  0  0  0  0  0  0  0  0
   14.3072    1.0968   22.2340 O   0  0  0  0  0  0  0  0  0  0  0  0
   12.0476    1.6522   22.3777 C   0  0  0  0  0  0  0  0  0  0  0  0
   11.5528    0.3645   22.0493 C   0  0  0  0  0  0  0  0  0  0  0  0
   12.3536   -0.7198   21.8593 O   0  0  0  0  0  0  0  0  0  0  0  0
   10.1889    0.1459   21.9179 C   0  0  0  0  0  0  0  0  0  0  0  0
    9.2927    1.1884   22.1071 C   0  0  0  0  0  0  0  0  0  0  0  0
    7.9310    1.0010   21.9753 O   0  0  0  0  0  0  0  0  0  0  0  0
    7.2946    1.0667   20.7187 C   0  0  0  0  0  0  0  0  0  0  0  0
    5.8988    0.8974   20.9078 O   0  0  0  0  0  0  0  0  0  0  0  0
    5.1757    1.0423   19.6750 C   0  0  0  0  0  0  0  0  0  0  0  0
    3.7101    1.0398   20.0340 C   0  0  0  0  0  0  0  0  0  0  0  0
    3.3465    2.2969   20.6181 O   0  0  0  0  0  0  0  0  0  0  0  0
    1.9707    2.5404   20.6876 C   0  0  0  0  0  0  0  0  0  0  0  0
    1.4252    2.8432   19.4088 O   0  0  0  0  0  0  0  0  0  0  0  0
    1.9847    4.0241   18.7972 C   0  0  0  0  0  0  0  0  0  0  0  0
    1.3752    4.1407   17.4192 C   0  0  0  0  0  0  0  0  0  0  0  0
    1.7188    5.2254   19.6831 C   0  0  0  0  0  0  0  0  0  0  0  0
    2.2958    6.3959   19.1125 O   0  0  0  0  0  0  0  0  0  0  0  0
    2.3144    4.9667   21.0620 C   0  0  0  0  0  0  0  0  0  0  0  0
    2.0306    6.0446   21.9518 O   0  0  0  0  0  0  0  0  0  0  0  0
    1.7659    3.6946   21.6438 C   0  0  0  0  0  0  0  0  0  0  0  0
    0.3664    3.8015   21.8866 O   0  0  0  0  0  0  0  0  0  0  0  0
    5.5787   -0.0848   18.7231 C   0  0  0  0  0  0  0  0  0  0  0  0
    4.9278    0.1561   17.4792 O   0  0  0  0  0  0  0  0  0  0  0  0
    7.0825   -0.0888   18.5042 C   0  0  0  0  0  0  0  0  0  0  0  0
    7.3979   -1.3114   17.8431 O   0  0  0  0  0  0  0  0  0  0  0  0
    7.8117   -0.0688   19.8410 C   0  0  0  0  0  0  0  0  0  0  0  0
    9.2021    0.1555   19.6265 O   0  0  0  0  0  0  0  0  0  0  0  0
    9.7467    2.4553   22.4282 C   0  0  0  0  0  0  0  0  0  0  0  0
   11.1054    2.6773   22.5601 C   0  0  0  0  0  0  0  0  0  0  0  0
   11.4862    3.9487   22.8913 O   0  0  0  0  0  0  0  0  0  0  0  0
  1  2  1  0
  2  3  1  0
  3  4  2  0
  4  5  1  0
  5  6  2  0
  6  7  1  0
  7  8  2  0
  8  9  1  0
 10  6  1  0
 10 11  1  0
 11 12  1  0
 12 13  2  0
 12 14  1  0
 14 15  2  0
 15 16  1  0
 15 17  1  0
 17 18  2  0
 18 19  1  0
 20 19  1  0
 20 21  1  0
 21 22  1  0
 22 23  1  0
 23 24  1  0
 25 24  1  0
 25 26  1  0
 26 27  1  0
 27 28  1  0
 27 29  1  0
 29 30  1  0
 29 31  1  0
 31 32  1  0
 31 33  1  0
 33 34  1  0
 22 35  1  0
 35 36  1  0
 35 37  1  0
 37 38  1  0
 37 39  1  0
 39 40  1  0
 18 41  1  0
 41 42  2  0
 42 43  1  0
  8  3  1  0
 43 10  1  0
 42 14  1  0
 39 20  1  0
 33 25  1  0
M  END
