CVD-0002467|dock_bobby27042020.34|mol2|17|dock3
     RDKit          3D

 17 18  0  0  0  0  0  0  0  0999 V2000
   13.8450    6.1927   22.4021 C   0  0  0  0  0  0  0  0  0  0  0  0
   13.0044    4.9423   22.4916 C   0  0  0  0  0  0  0  0  0  0  0  0
   13.5759    3.6867   22.3654 C   0  0  0  0  0  0  0  0  0  0  0  0
   12.8115    2.5362   22.4413 C   0  0  0  0  0  0  0  0  0  0  0  0
   11.4457    2.6274   22.6456 C   0  0  0  0  0  0  0  0  0  0  0  0
   10.7131    1.4676   22.7167 O   0  0  0  0  0  0  0  0  0  0  0  0
    9.3282    1.4417   22.3330 C   0  0  0  0  0  0  0  0  0  0  0  0
    8.9473    0.0969   21.8113 C   0  0  0  0  0  0  0  0  0  0  0  0
    9.3319   -1.0788   22.2722 C   0  0  0  0  0  0  0  0  0  0  0  0
   10.2444   -1.3438   23.4324 C   0  0  0  0  0  0  0  0  0  0  0  0
   11.6794   -1.3811   23.1000 C   0  0  0  0  0  0  0  0  0  0  0  0
   12.1992   -1.7999   21.8506 C   0  0  0  0  0  0  0  0  0  0  0  0
   13.5580   -1.7619   21.7636 C   0  0  0  0  0  0  0  0  0  0  0  0
   14.2105   -1.2069   23.2302 S   0  0  0  0  0  0  0  0  0  0  0  0
   12.6815   -1.0311   23.9530 C   0  0  0  0  0  0  0  0  0  0  0  0
   10.8551    3.8750   22.7771 C   0  0  0  0  0  0  0  0  0  0  0  0
   11.6362    5.0143   22.6970 C   0  0  0  0  0  0  0  0  0  0  0  0
  1  2  1  0
  2  3  2  0
  3  4  1  0
  4  5  2  0
  5  6  1  0
  6  7  1  0
  7  8  1  0
  8  9  2  0
  9 10  1  0
 10 11  1  0
 11 12  1  0
 12 13  2  0
 13 14  1  0
 14 15  1  0
  5 16  1  0
 16 17  2  0
 17  2  1  0
 15 11  2  0
M  END
