CVD-0002306|dock_bobby27042020.64|mol2|1|dock1
     RDKit          3D

 40 43  0  0  0  0  0  0  0  0999 V2000
    6.2869   -5.9872   26.4831 C   0  0  0  0  0  0  0  0  0  0  0  0
    6.6337   -5.1534   25.3280 N   0  0  0  0  0  0  0  0  0  0  0  0
    5.7951   -4.9378   24.2776 C   0  0  0  0  0  0  0  0  0  0  0  0
    6.1221   -4.2332   23.3413 O   0  0  0  0  0  0  0  0  0  0  0  0
    4.4174   -5.5737   24.2488 C   0  0  0  0  0  0  0  0  0  0  0  0
    4.4458   -6.9003   23.4999 C   0  0  0  0  0  0  0  0  0  0  0  0
    3.0599   -7.5091   23.4423 C   0  0  0  0  0  0  0  0  0  0  0  0
    2.1316   -6.5767   22.8083 N   0  0  0  0  0  0  0  0  0  0  0  0
    2.0303   -5.3086   23.5225 C   0  0  0  0  0  0  0  0  0  0  0  0
    3.3994   -4.6410   23.5964 C   0  0  0  0  0  0  0  0  0  0  0  0
    1.2322   -6.8893   21.8510 C   0  0  0  0  0  0  0  0  0  0  0  0
    0.5007   -6.0393   21.3592 O   0  0  0  0  0  0  0  0  0  0  0  0
    1.1549   -8.3384   21.4104 C   0  0  0  0  0  0  0  0  0  0  0  0
    2.5458   -8.7843   20.4136 Cl  0  0  0  0  0  0  0  0  0  0  0  0
    7.9772   -4.5427   25.3812 C   0  0  0  0  0  0  0  0  0  0  0  0
    8.9700   -5.6137   24.9583 C   0  0  0  0  0  0  0  0  0  0  0  0
    8.2741   -4.0356   26.7852 C   0  0  0  0  0  0  0  0  0  0  0  0
    8.0665   -3.4127   24.4737 N   0  0  0  0  0  0  0  0  0  0  0  0
    9.4056   -3.0193   24.0316 C   0  0  0  0  0  0  0  0  0  0  0  0
    9.3913   -1.6258   23.4606 C   0  0  0  0  0  0  0  0  0  0  0  0
   10.4136   -0.6723   23.6206 C   0  0  0  0  0  0  0  0  0  0  0  0
   10.0744    0.4950   22.9633 C   0  0  0  0  0  0  0  0  0  0  0  0
   10.8948    1.7286   22.8942 C   0  0  0  0  0  0  0  0  0  0  0  0
   10.2037    2.9405   22.9491 C   0  0  0  0  0  0  0  0  0  0  0  0
   10.8690    4.1487   22.8275 C   0  0  0  0  0  0  0  0  0  0  0  0
   12.2346    4.1768   22.6547 C   0  0  0  0  0  0  0  0  0  0  0  0
   12.9530    2.9949   22.6382 C   0  0  0  0  0  0  0  0  0  0  0  0
   12.2784    1.8065   22.7911 C   0  0  0  0  0  0  0  0  0  0  0  0
   13.0384    0.6916   22.8588 F   0  0  0  0  0  0  0  0  0  0  0  0
    8.7923    0.2653   22.3973 N   0  0  0  0  0  0  0  0  0  0  0  0
    8.3929   -1.0294   22.7033 C   0  0  0  0  0  0  0  0  0  0  0  0
    7.7725    1.2746   21.4956 S   0  0  0  0  0  0  0  0  0  0  0  0
    6.7932    1.7837   22.4050 O   0  0  0  0  0  0  0  0  0  0  0  0
    8.6208    2.1562   20.7551 O   0  0  0  0  0  0  0  0  0  0  0  0
    6.9671    0.1983   20.3605 C   0  0  0  0  0  0  0  0  0  0  0  0
    7.7082   -0.5975   19.5039 C   0  0  0  0  0  0  0  0  0  0  0  0
    7.0338   -1.4332   18.6307 C   0  0  0  0  0  0  0  0  0  0  0  0
    5.6573   -1.4399   18.6502 C   0  0  0  0  0  0  0  0  0  0  0  0
    4.9307   -0.6802   19.4712 N   0  0  0  0  0  0  0  0  0  0  0  0
    5.5879    0.1241   20.3117 C   0  0  0  0  0  0  0  0  0  0  0  0
  1  2  1  0
  2  3  1  0
  3  4  2  0
  3  5  1  0
  5  6  1  0
  6  7  1  0
  7  8  1  0
  8  9  1  0
  9 10  1  0
  8 11  1  0
 11 12  2  0
 11 13  1  0
 13 14  1  0
  2 15  1  0
 15 16  1  0
 15 17  1  0
 15 18  1  0
 18 19  1  0
 19 20  1  0
 20 21  1  0
 21 22  2  0
 22 23  1  0
 23 24  2  0
 24 25  1  0
 25 26  2  0
 26 27  1  0
 27 28  2  0
 28 29  1  0
 22 30  1  0
 30 31  1  0
 30 32  1  0
 32 33  2  0
 32 34  2  0
 32 35  1  0
 35 36  2  0
 36 37  1  0
 37 38  2  0
 38 39  1  0
 39 40  2  0
 10  5  1  0
 31 20  2  0
 40 35  1  0
 28 23  1  0
M  END
