CVD-0003247|dock_bobby27042020.88|mol2|32|dock1
     RDKit          3D

 27 30  0  0  0  0  0  0  0  0999 V2000
   13.0936    5.4259   22.7106 O   0  0  0  0  0  0  0  0  0  0  0  0
   12.0694    5.9677   23.1219 N   0  0  0  0  0  0  0  0  0  0  0  0
   12.1371    6.9809   23.7929 O   0  0  0  0  0  0  0  0  0  0  0  0
   10.7856    5.3483   22.7915 C   0  0  0  0  0  0  0  0  0  0  0  0
    9.7535    6.2238   22.5076 C   0  0  0  0  0  0  0  0  0  0  0  0
    8.4901    5.7808   22.1634 C   0  0  0  0  0  0  0  0  0  0  0  0
    8.2124    4.4541   22.0903 C   0  0  0  0  0  0  0  0  0  0  0  0
    9.2160    3.4999   22.3664 C   0  0  0  0  0  0  0  0  0  0  0  0
    8.9232    2.1212   22.2746 C   0  0  0  0  0  0  0  0  0  0  0  0
    9.8494    1.1502   22.5153 C   0  0  0  0  0  0  0  0  0  0  0  0
    9.5369   -0.3224   22.4262 C   0  0  0  0  0  0  0  0  0  0  0  0
   10.7257   -1.0708   21.9245 C   0  0  0  0  0  0  0  0  0  0  0  0
   11.8993   -0.8544   22.8062 N   0  0  0  0  0  0  0  0  0  0  0  0
   12.2128    0.5331   23.1989 C   0  0  0  0  0  0  0  0  0  0  0  0
   11.1312    1.5676   22.8646 C   0  0  0  0  0  0  0  0  0  0  0  0
   11.4696    2.8871   22.9682 C   0  0  0  0  0  0  0  0  0  0  0  0
   10.5311    3.9281   22.7248 C   0  0  0  0  0  0  0  0  0  0  0  0
   12.6671   -1.8483   23.2962 C   0  0  0  0  0  0  0  0  0  0  0  0
   12.4524   -3.0252   23.0349 O   0  0  0  0  0  0  0  0  0  0  0  0
   13.8174   -1.4317   24.1915 C   0  0  0  0  0  0  0  0  0  0  0  0
   14.8888   -2.7972   24.5298 Cl  0  0  0  0  0  0  0  0  0  0  0  0
    9.0820   -0.9127   23.7532 C   0  0  0  0  0  0  0  0  0  0  0  0
    8.4548   -2.1499   23.8017 C   0  0  0  0  0  0  0  0  0  0  0  0
    8.0434   -2.6879   25.0097 C   0  0  0  0  0  0  0  0  0  0  0  0
    8.2546   -1.9965   26.1833 C   0  0  0  0  0  0  0  0  0  0  0  0
    8.8773   -0.7672   26.1503 C   0  0  0  0  0  0  0  0  0  0  0  0
    9.2891   -0.2283   24.9428 C   0  0  0  0  0  0  0  0  0  0  0  0
  1  2  1  0
  2  3  2  0
  2  4  1  0
  4  5  2  0
  5  6  1  0
  6  7  2  0
  7  8  1  0
  8  9  2  0
  9 10  1  0
 10 11  1  0
 11 12  1  0
 12 13  1  0
 13 14  1  0
 14 15  1  0
 15 16  1  0
 16 17  2  0
 13 18  1  0
 18 19  2  0
 18 20  1  0
 20 21  1  0
 11 22  1  0
 22 23  2  0
 23 24  1  0
 24 25  2  0
 25 26  1  0
 26 27  2  0
 17  4  1  0
 27 22  1  0
 17  8  1  0
 15 10  2  0
M  CHG  2   1  -1   2   1
M  END
