CVD-0002231|dock_bobby27042020.6|mol2|33|dock1
     RDKit          3D

 15 15  0  0  0  0  0  0  0  0999 V2000
   13.4088   -2.0614   23.3556 C   0  0  0  0  0  0  0  0  0  0  0  0
   12.5657   -0.8913   23.2360 O   0  0  0  0  0  0  0  0  0  0  0  0
   13.1996    0.2621   23.0322 C   0  0  0  0  0  0  0  0  0  0  0  0
   14.4125    0.3668   22.9568 O   0  0  0  0  0  0  0  0  0  0  0  0
   12.2722    1.4284   22.9033 C   0  0  0  0  0  0  0  0  0  0  0  0
   10.8940    1.2599   22.9768 C   0  0  0  0  0  0  0  0  0  0  0  0
   10.0498    2.3507   22.8553 C   0  0  0  0  0  0  0  0  0  0  0  0
   10.5684    3.6198   22.6596 C   0  0  0  0  0  0  0  0  0  0  0  0
   11.9448    3.8010   22.5845 C   0  0  0  0  0  0  0  0  0  0  0  0
   12.5069    5.1003   22.3831 N   0  0  0  0  0  0  0  0  0  0  0  0
   14.1020    5.4152   22.2813 S   0  0  0  0  0  0  0  0  0  0  0  0
   14.2700    7.1531   22.1421 C   0  0  0  0  0  0  0  0  0  0  0  0
   14.5652    4.8270   21.0625 O   0  0  0  0  0  0  0  0  0  0  0  0
   14.7008    4.9965   23.5110 O   0  0  0  0  0  0  0  0  0  0  0  0
   12.7896    2.7035   22.7068 C   0  0  0  0  0  0  0  0  0  0  0  0
  1  2  1  0
  2  3  1  0
  3  4  2  0
  3  5  1  0
  5  6  2  0
  6  7  1  0
  7  8  2  0
  8  9  1  0
  9 10  1  0
 10 11  1  0
 11 12  1  0
 11 13  2  0
 11 14  2  0
  9 15  2  0
 15  5  1  0
M  END
