CVD-0003002|dock_bobby27042020.18|mol2|4|dock2
     RDKit          3D

 41 42  0  0  0  0  0  0  0  0999 V2000
   14.6704    5.8028   21.7623 C   0  0  0  0  0  0  0  0  0  0  0  0
   13.3056    5.6839   22.3396 C   0  0  0  0  0  0  0  0  0  0  0  0
   13.0945    4.3162   22.8031 O   0  0  0  0  0  0  0  0  0  0  0  0
   11.8999    3.9911   23.3231 C   0  0  0  0  0  0  0  0  0  0  0  0
   11.0168    4.7913   23.5266 O   0  0  0  0  0  0  0  0  0  0  0  0
   11.7823    2.5465   23.6113 C   0  0  0  0  0  0  0  0  0  0  0  0
   11.1037    1.6953   22.8584 C   0  0  0  0  0  0  0  0  0  0  0  0
   10.9512    0.2208   23.1050 C   0  0  0  0  0  0  0  0  0  0  0  0
   12.2757   -0.5059   22.8508 C   0  0  0  0  0  0  0  0  0  0  0  0
   12.5561   -1.7388   23.7209 C   0  0  0  0  0  0  0  0  0  0  0  0
   12.7393   -1.4404   25.2224 C   0  0  0  0  0  0  0  0  0  0  0  0
   13.8815   -2.3384   25.6795 C   0  0  0  0  0  0  0  0  0  0  0  0
   14.5382   -2.6929   24.4356 N   0  0  0  0  0  0  0  0  0  0  0  0
   13.8310   -2.4405   23.3314 C   0  0  0  0  0  0  0  0  0  0  0  0
   14.1858   -2.7037   22.1854 O   0  0  0  0  0  0  0  0  0  0  0  0
    9.8902   -0.3400   22.2711 N   0  0  0  0  0  0  0  0  0  0  0  0
    8.5947   -0.1624   22.5456 C   0  0  0  0  0  0  0  0  0  0  0  0
    8.2003    0.4835   23.5129 O   0  0  0  0  0  0  0  0  0  0  0  0
    7.5954   -0.8082   21.5901 C   0  0  0  0  0  0  0  0  0  0  0  0
    6.5888    0.2368   21.1068 C   0  0  0  0  0  0  0  0  0  0  0  0
    5.8106   -0.1474   19.8521 C   0  0  0  0  0  0  0  0  0  0  0  0
    6.7516   -0.2621   18.6655 C   0  0  0  0  0  0  0  0  0  0  0  0
    4.7330    0.8842   19.5667 C   0  0  0  0  0  0  0  0  0  0  0  0
    6.8967   -1.9091   22.2336 N   0  0  0  0  0  0  0  0  0  0  0  0
    7.5237   -3.0422   22.5640 C   0  0  0  0  0  0  0  0  0  0  0  0
    8.7150   -3.2201   22.3276 O   0  0  0  0  0  0  0  0  0  0  0  0
    6.6590   -4.0971   23.2530 C   0  0  0  0  0  0  0  0  0  0  0  0
    5.8798   -3.4550   24.3000 N   0  0  0  0  0  0  0  0  0  0  0  0
    6.3760   -3.3065   25.5398 C   0  0  0  0  0  0  0  0  0  0  0  0
    7.4750   -3.6801   25.8918 O   0  0  0  0  0  0  0  0  0  0  0  0
    5.4732   -2.6892   26.3295 O   0  0  0  0  0  0  0  0  0  0  0  0
    5.8080   -2.5127   27.7332 C   0  0  0  0  0  0  0  0  0  0  0  0
    7.0019   -1.6125   27.8728 C   0  0  0  0  0  0  0  0  0  0  0  0
    7.8234   -1.6940   28.9864 C   0  0  0  0  0  0  0  0  0  0  0  0
    8.9264   -0.8664   29.1133 C   0  0  0  0  0  0  0  0  0  0  0  0
    9.2199    0.0521   28.1284 C   0  0  0  0  0  0  0  0  0  0  0  0
    8.4107    0.1430   27.0162 C   0  0  0  0  0  0  0  0  0  0  0  0
    7.3079   -0.6850   26.8890 C   0  0  0  0  0  0  0  0  0  0  0  0
    5.7207   -4.8785   22.3092 C   0  0  0  0  0  0  0  0  0  0  0  0
    6.4640   -5.4484   21.1046 C   0  0  0  0  0  0  0  0  0  0  0  0
    4.9593   -5.9789   23.0424 C   0  0  0  0  0  0  0  0  0  0  0  0
  1  2  1  0
  2  3  1  0
  3  4  1  0
  4  5  2  0
  4  6  1  0
  6  7  2  0
  8  7  1  0
  8  9  1  0
 10  9  1  0
 10 11  1  0
 11 12  1  0
 12 13  1  0
 13 14  1  0
 14 15  2  0
  8 16  1  0
 16 17  1  0
 17 18  2  0
 17 19  1  0
 19 20  1  0
 20 21  1  0
 21 22  1  0
 21 23  1  0
 19 24  1  0
 24 25  1  0
 25 26  2  0
 25 27  1  0
 27 28  1  0
 28 29  1  0
 29 30  2  0
 29 31  1  0
 31 32  1  0
 32 33  1  0
 33 34  2  0
 34 35  1  0
 35 36  2  0
 36 37  1  0
 37 38  2  0
 27 39  1  0
 39 40  1  0
 39 41  1  0
 14 10  1  0
 38 33  1  0
M  END
