CVD-0002128|dock_bobby27042020.78|mol2|31|dock1
     RDKit          3D

 22 23  0  0  0  0  0  0  0  0999 V2000
    5.6579   -1.5207   18.6846 N   0  0  0  0  0  0  0  0  0  0  0  0
    5.8007    0.0267   19.0708 S   0  0  0  0  0  0  0  0  0  0  0  0
    4.4826    0.5166   19.3559 O   0  0  0  0  0  0  0  0  0  0  0  0
    6.5515    0.6605   18.0249 O   0  0  0  0  0  0  0  0  0  0  0  0
    6.7696    0.1631   20.5499 C   0  0  0  0  0  0  0  0  0  0  0  0
    8.1061   -0.5583   20.4815 C   0  0  0  0  0  0  0  0  0  0  0  0
    8.9084   -0.4254   21.7538 C   0  0  0  0  0  0  0  0  0  0  0  0
    8.4093    0.0299   22.7776 O   0  0  0  0  0  0  0  0  0  0  0  0
   10.1984   -0.8674   21.6287 N   0  0  0  0  0  0  0  0  0  0  0  0
   11.1877   -0.8827   22.6428 C   0  0  0  0  0  0  0  0  0  0  0  0
   11.9436   -1.9400   23.0431 C   0  0  0  0  0  0  0  0  0  0  0  0
   13.0167   -1.5303   24.2958 S   0  0  0  0  0  0  0  0  0  0  0  0
   12.4745    0.0804   24.3141 C   0  0  0  0  0  0  0  0  0  0  0  0
   11.5004    0.3166   23.3946 C   0  0  0  0  0  0  0  0  0  0  0  0
   10.8354    1.6591   23.1904 C   0  0  0  0  0  0  0  0  0  0  0  0
   11.6362    2.8810   23.3274 N   0  0  0  0  0  0  0  0  0  0  0  0
   10.8065    4.0744   23.1229 C   0  0  0  0  0  0  0  0  0  0  0  0
   11.6008    5.3516   23.3130 C   0  0  0  0  0  0  0  0  0  0  0  0
   12.8247    5.4236   22.4078 C   0  0  0  0  0  0  0  0  0  0  0  0
   13.6615    6.5566   22.6557 O   0  0  0  0  0  0  0  0  0  0  0  0
   13.6151    4.1291   22.5637 C   0  0  0  0  0  0  0  0  0  0  0  0
   12.7483    2.8956   22.3732 C   0  0  0  0  0  0  0  0  0  0  0  0
  1  2  1  0
  2  3  2  0
  2  4  2  0
  2  5  1  0
  5  6  1  0
  6  7  1  0
  7  8  2  0
  7  9  1  0
  9 10  1  0
 10 11  2  0
 11 12  1  0
 12 13  1  0
 13 14  2  0
 14 15  1  0
 15 16  1  0
 16 17  1  0
 17 18  1  0
 18 19  1  0
 19 20  1  0
 19 21  1  0
 21 22  1  0
 14 10  1  0
 22 16  1  0
M  END
