CVD-0000069|dock_bobby27042020.43|mol2|2|dock2
     RDKit          3D

 17 17  0  0  0  0  0  0  0  0999 V2000
    4.3726    1.3330   21.1639 C   0  0  0  0  0  0  0  0  0  0  0  0
    5.1732    1.1173   19.9052 C   0  0  0  0  0  0  0  0  0  0  0  0
    4.5528    1.3358   18.6788 C   0  0  0  0  0  0  0  0  0  0  0  0
    5.2579    1.1440   17.5119 C   0  0  0  0  0  0  0  0  0  0  0  0
    6.5283    0.7518   17.4876 N   0  0  0  0  0  0  0  0  0  0  0  0
    7.1348    0.5376   18.6593 C   0  0  0  0  0  0  0  0  0  0  0  0
    6.5185    0.7002   19.9005 C   0  0  0  0  0  0  0  0  0  0  0  0
    7.1615    0.4721   21.1493 N   0  0  0  0  0  0  0  0  0  0  0  0
    8.4382    0.7137   21.5368 C   0  0  0  0  0  0  0  0  0  0  0  0
    9.3234    1.2009   20.8418 O   0  0  0  0  0  0  0  0  0  0  0  0
    8.7127    0.3185   22.9673 C   0  0  0  0  0  0  0  0  0  0  0  0
   10.1869    0.4008   23.3369 C   0  0  0  0  0  0  0  0  0  0  0  0
   11.0167   -0.6973   22.6920 C   0  0  0  0  0  0  0  0  0  0  0  0
   12.4958   -0.7104   23.0651 C   0  0  0  0  0  0  0  0  0  0  0  0
   13.3132   -1.8125   22.3978 C   0  0  0  0  0  0  0  0  0  0  0  0
   13.6549   -1.4920   21.1083 N   0  0  0  0  0  0  0  0  0  0  0  0
   14.4600   -2.0472   23.1130 N   0  0  0  0  0  0  0  0  0  0  0  0
  1  2  1  0
  2  3  2  0
  3  4  1  0
  4  5  2  0
  5  6  1  0
  6  7  2  0
  7  8  1  0
  8  9  1  0
  9 10  2  0
  9 11  1  0
 11 12  1  0
 12 13  1  0
 13 14  1  0
 14 15  1  0
 15 16  1  0
 15 17  1  0
  7  2  1  0
M  END
