CVD-0002594|dock_bobby27042020.33|mol2|36|dock2
     RDKit          3D

 51 57  0  0  0  0  0  0  0  0999 V2000
    5.3985   -0.7138   36.8897 Cl  0  0  0  0  0  0  0  0  0  0  0  0
    6.5922   -1.7356   36.0782 C   0  0  0  0  0  0  0  0  0  0  0  0
    7.8670   -0.9758   35.7637 C   0  0  0  0  0  0  0  0  0  0  0  0
    8.9323   -1.2903   36.2792 O   0  0  0  0  0  0  0  0  0  0  0  0
    7.7745    0.0503   34.8911 N   0  0  0  0  0  0  0  0  0  0  0  0
    8.9556    0.8201   34.5367 C   0  0  0  0  0  0  0  0  0  0  0  0
    9.1106    0.8940   33.0502 C   0  0  0  0  0  0  0  0  0  0  0  0
    7.8793    1.4452   32.4669 N   0  0  0  0  0  0  0  0  0  0  0  0
    6.7094    0.6074   32.7697 C   0  0  0  0  0  0  0  0  0  0  0  0
    6.5397    0.5237   34.2578 C   0  0  0  0  0  0  0  0  0  0  0  0
    7.9904    2.1054   30.9917 S   0  0  0  0  0  0  0  0  0  0  0  0
    6.8226    2.9067   30.8001 O   0  0  0  0  0  0  0  0  0  0  0  0
    9.2802    2.7145   30.9008 O   0  0  0  0  0  0  0  0  0  0  0  0
    7.9391    0.8294   29.8092 C   0  0  0  0  0  0  0  0  0  0  0  0
    8.7899   -0.2467   29.7340 C   0  0  0  0  0  0  0  0  0  0  0  0
    8.4806   -1.0959   28.6719 C   0  0  0  0  0  0  0  0  0  0  0  0
    7.3972   -0.6894   27.9227 C   0  0  0  0  0  0  0  0  0  0  0  0
    6.8132   -1.3800   26.7248 C   0  0  0  0  0  0  0  0  0  0  0  0
    7.8131   -1.7531   25.7208 N   0  0  0  0  0  0  0  0  0  0  0  0
    7.1626   -2.1691   24.4848 C   0  0  0  0  0  0  0  0  0  0  0  0
    8.1900   -2.5945   23.4525 C   0  0  0  0  0  0  0  0  0  0  0  0
    9.1018   -1.4598   23.2108 N   0  0  0  0  0  0  0  0  0  0  0  0
    9.7716   -1.0256   24.4512 C   0  0  0  0  0  0  0  0  0  0  0  0
    8.7064   -0.6338   25.4527 C   0  0  0  0  0  0  0  0  0  0  0  0
   10.0047   -1.4892   21.8536 S   0  0  0  0  0  0  0  0  0  0  0  0
    9.1842   -0.9587   20.8096 O   0  0  0  0  0  0  0  0  0  0  0  0
   10.5323   -2.8138   21.7443 O   0  0  0  0  0  0  0  0  0  0  0  0
   11.3693   -0.3762   22.0961 C   0  0  0  0  0  0  0  0  0  0  0  0
   12.6244   -0.9211   22.1160 C   0  0  0  0  0  0  0  0  0  0  0  0
   13.7364   -0.1164   22.3026 C   0  0  0  0  0  0  0  0  0  0  0  0
   13.6093    1.2308   22.4664 C   0  0  0  0  0  0  0  0  0  0  0  0
   12.3323    1.8407   22.4474 C   0  0  0  0  0  0  0  0  0  0  0  0
   12.1589    3.2329   22.6100 C   0  0  0  0  0  0  0  0  0  0  0  0
   10.9213    3.8191   22.5815 C   0  0  0  0  0  0  0  0  0  0  0  0
   10.7820    5.3199   22.7382 C   0  0  0  0  0  0  0  0  0  0  0  0
   10.9997    5.8154   24.1395 C   0  0  0  0  0  0  0  0  0  0  0  0
   10.0815    6.3384   25.0219 C   0  0  0  0  0  0  0  0  0  0  0  0
   10.6253    6.7025   26.2511 C   0  0  0  0  0  0  0  0  0  0  0  0
   11.9495    6.4574   26.3021 C   0  0  0  0  0  0  0  0  0  0  0  0
   12.9998    6.7560   27.6247 Cl  0  0  0  0  0  0  0  0  0  0  0  0
   12.5714    5.7772   24.8573 S   0  0  0  0  0  0  0  0  0  0  0  0
    9.7830    3.0154   22.4030 C   0  0  0  0  0  0  0  0  0  0  0  0
    8.4001    3.6272   22.3924 C   0  0  0  0  0  0  0  0  0  0  0  0
    7.2864    2.6201   22.4190 C   0  0  0  0  0  0  0  0  0  0  0  0
    6.6128    2.2285   23.6016 C   0  0  0  0  0  0  0  0  0  0  0  0
    5.6277    1.3078   23.4080 C   0  0  0  0  0  0  0  0  0  0  0  0
    5.5244    0.9170   21.7580 S   0  0  0  0  0  0  0  0  0  0  0  0
    6.7835    1.9766   21.3297 C   0  0  0  0  0  0  0  0  0  0  0  0
    9.9107    1.6623   22.2425 C   0  0  0  0  0  0  0  0  0  0  0  0
   11.1784    1.0318   22.2586 C   0  0  0  0  0  0  0  0  0  0  0  0
    6.7588    0.7808   28.5693 S   0  0  0  0  0  0  0  0  0  0  0  0
  1  2  1  0
  2  3  1  0
  3  4  2  0
  3  5  1  0
  5  6  1  0
  6  7  1  0
  7  8  1  0
  8  9  1  0
  9 10  1  0
  8 11  1  0
 11 12  2  0
 11 13  2  0
 11 14  1  0
 14 15  2  0
 15 16  1  0
 16 17  2  0
 17 18  1  0
 18 19  1  0
 19 20  1  0
 20 21  1  0
 21 22  1  0
 22 23  1  0
 23 24  1  0
 22 25  1  0
 25 26  2  0
 25 27  2  0
 25 28  1  0
 28 29  2  0
 29 30  1  0
 30 31  2  0
 31 32  1  0
 32 33  2  0
 33 34  1  0
 34 35  1  0
 35 36  1  0
 36 37  2  0
 37 38  1  0
 38 39  2  0
 39 40  1  0
 39 41  1  0
 34 42  2  0
 42 43  1  0
 43 44  1  0
 44 45  1  0
 45 46  2  0
 46 47  1  0
 47 48  1  0
 42 49  1  0
 49 50  2  0
 17 51  1  0
 10  5  1  0
 51 14  1  0
 24 19  1  0
 50 28  1  0
 50 32  1  0
 41 36  1  0
 48 44  2  0
M  END
