CVD-0002112|dock_bobby27042020.35|mol2|34|dock2
     RDKit          3D

 32 34  0  0  0  0  0  0  0  0999 V2000
    6.5669   -1.5485   21.3453 C   0  0  0  0  0  0  0  0  0  0  0  0
    8.0131   -1.2378   21.0356 C   0  0  0  0  0  0  0  0  0  0  0  0
    8.1574    0.1987   20.8272 O   0  0  0  0  0  0  0  0  0  0  0  0
    7.1831    0.8397   20.1061 C   0  0  0  0  0  0  0  0  0  0  0  0
    6.8966    0.5507   18.7775 C   0  0  0  0  0  0  0  0  0  0  0  0
    5.9020    1.2510   18.1155 C   0  0  0  0  0  0  0  0  0  0  0  0
    5.1939    2.2341   18.7715 C   0  0  0  0  0  0  0  0  0  0  0  0
    5.4732    2.5191   20.0968 C   0  0  0  0  0  0  0  0  0  0  0  0
    6.4651    1.8269   20.7856 C   0  0  0  0  0  0  0  0  0  0  0  0
    6.7516    2.1296   22.2360 C   0  0  0  0  0  0  0  0  0  0  0  0
    7.4853    3.3712   22.4319 N   0  0  0  0  0  0  0  0  0  0  0  0
    8.8196    3.4308   22.5072 C   0  0  0  0  0  0  0  0  0  0  0  0
    9.6197    2.3842   22.4139 N   0  0  0  0  0  0  0  0  0  0  0  0
   10.8978    2.9203   22.5473 C   0  0  0  0  0  0  0  0  0  0  0  0
   12.1452    2.2977   22.5309 C   0  0  0  0  0  0  0  0  0  0  0  0
   13.2820    3.0765   22.6882 C   0  0  0  0  0  0  0  0  0  0  0  0
   13.1931    4.4446   22.8587 C   0  0  0  0  0  0  0  0  0  0  0  0
   11.9614    5.0795   22.8775 C   0  0  0  0  0  0  0  0  0  0  0  0
   10.8216    4.3000   22.7199 C   0  0  0  0  0  0  0  0  0  0  0  0
    9.4743    4.6018   22.6902 N   0  0  0  0  0  0  0  0  0  0  0  0
    8.9675   -1.5904   22.1822 C   0  0  0  0  0  0  0  0  0  0  0  0
   10.3376   -1.6898   21.7045 N   0  0  0  0  0  0  0  0  0  0  0  0
   11.3672   -1.8543   22.5421 C   0  0  0  0  0  0  0  0  0  0  0  0
   12.7222   -1.9642   21.9068 C   0  0  0  0  0  0  0  0  0  0  0  0
   11.2123   -1.9265   23.7572 O   0  0  0  0  0  0  0  0  0  0  0  0
    8.5509   -2.9053   22.8322 C   0  0  0  0  0  0  0  0  0  0  0  0
    9.0318   -3.9709   22.4560 O   0  0  0  0  0  0  0  0  0  0  0  0
    7.6516   -2.8207   23.8122 N   0  0  0  0  0  0  0  0  0  0  0  0
    7.1509   -4.0078   24.4923 C   0  0  0  0  0  0  0  0  0  0  0  0
    8.1424   -4.6021   25.3967 C   0  0  0  0  0  0  0  0  0  0  0  0
    8.9481   -5.0295   26.1546 C   0  0  0  0  0  0  0  0  0  0  0  0
   10.1553   -5.6340   27.3465 Br  0  0  0  0  0  0  0  0  0  0  0  0
  2  1  1  0
  2  3  1  0
  3  4  1  0
  4  5  2  0
  5  6  1  0
  6  7  2  0
  7  8  1  0
  8  9  2  0
  9 10  1  0
 10 11  1  0
 11 12  1  0
 12 13  2  0
 13 14  1  0
 14 15  2  0
 15 16  1  0
 16 17  2  0
 17 18  1  0
 18 19  2  0
 19 20  1  0
  2 21  1  0
 21 22  1  0
 22 23  1  0
 23 24  1  0
 23 25  2  0
 21 26  1  0
 26 27  2  0
 26 28  1  0
 28 29  1  0
 29 30  1  0
 30 31  3  0
 31 32  1  0
  9  4  1  0
 20 12  1  0
 19 14  1  0
M  END
