CVD-0001284|dock_bobby27042020.10|mol2|14|dock2
     RDKit          3D

 18 19  0  0  0  0  0  0  0  0999 V2000
    9.2101   -2.2492   20.5601 O   0  0  0  0  0  0  0  0  0  0  0  0
    8.7585   -1.9516   21.6608 C   0  0  0  0  0  0  0  0  0  0  0  0
    7.2766   -2.0839   21.9417 C   0  0  0  0  0  0  0  0  0  0  0  0
    6.4015   -2.3205   20.7235 C   0  0  0  0  0  0  0  0  0  0  0  0
    5.6914   -3.3157   20.6541 O   0  0  0  0  0  0  0  0  0  0  0  0
    6.4412   -1.4084   19.7297 N   0  0  0  0  0  0  0  0  0  0  0  0
    7.2995   -0.2189   19.7744 C   0  0  0  0  0  0  0  0  0  0  0  0
    6.5078    1.0042   19.3583 C   0  0  0  0  0  0  0  0  0  0  0  0
    5.9182    0.8432   18.0840 O   0  0  0  0  0  0  0  0  0  0  0  0
    5.0329   -0.2771   18.0896 C   0  0  0  0  0  0  0  0  0  0  0  0
    5.7657   -1.5540   18.4366 C   0  0  0  0  0  0  0  0  0  0  0  0
    9.4796   -1.5040   22.7176 N   0  0  0  0  0  0  0  0  0  0  0  0
   10.8672   -1.2593   22.8701 C   0  0  0  0  0  0  0  0  0  0  0  0
   11.8322   -1.7705   22.0054 C   0  0  0  0  0  0  0  0  0  0  0  0
   13.1725   -1.4906   22.2152 C   0  0  0  0  0  0  0  0  0  0  0  0
   13.5663   -0.7063   23.2771 C   0  0  0  0  0  0  0  0  0  0  0  0
   12.6193   -0.1962   24.1373 C   0  0  0  0  0  0  0  0  0  0  0  0
   11.2766   -0.4689   23.9381 C   0  0  0  0  0  0  0  0  0  0  0  0
  1  2  2  0
  2  3  1  0
  3  4  1  0
  4  5  2  0
  4  6  1  0
  6  7  1  0
  7  8  1  0
  8  9  1  0
  9 10  1  0
 10 11  1  0
  2 12  1  0
 12 13  1  0
 13 14  2  0
 14 15  1  0
 15 16  2  0
 16 17  1  0
 17 18  2  0
 11  6  1  0
 18 13  1  0
M  END
