CVD-0003301|dock_bobby27042020.2|mol2|28|dock3
     RDKit          3D

 16 17  0  0  0  0  0  0  0  0999 V2000
   11.2811    2.7995   22.7688 C   0  0  0  0  0  0  0  0  0  0  0  0
   10.9478    1.4275   22.3928 N   0  0  0  0  0  0  0  0  0  0  0  0
    9.8614    1.0475   21.6234 C   0  0  0  0  0  0  0  0  0  0  0  0
    8.9750    1.8972   21.1568 O   0  0  0  0  0  0  0  0  0  0  0  0
    9.9212   -0.3486   21.4697 C   0  0  0  0  0  0  0  0  0  0  0  0
    9.0878   -1.1484   20.8150 N   0  0  0  0  0  0  0  0  0  0  0  0
    7.9698   -0.6104   20.1591 O   0  0  0  0  0  0  0  0  0  0  0  0
    7.5880   -1.1397   18.9562 C   0  0  0  0  0  0  0  0  0  0  0  0
    8.5383   -1.7507   18.2618 N   0  0  0  0  0  0  0  0  0  0  0  0
    6.0257   -1.0282   18.3900 S   0  0  0  0  0  0  0  0  0  0  0  0
   11.1065   -0.8145   22.1764 C   0  0  0  0  0  0  0  0  0  0  0  0
   11.6870   -2.0640   22.3825 C   0  0  0  0  0  0  0  0  0  0  0  0
   12.8562   -2.1594   23.1198 C   0  0  0  0  0  0  0  0  0  0  0  0
   13.4510   -1.0322   23.6510 C   0  0  0  0  0  0  0  0  0  0  0  0
   12.8942    0.2237   23.4647 C   0  0  0  0  0  0  0  0  0  0  0  0
   11.7192    0.3195   22.7276 C   0  0  0  0  0  0  0  0  0  0  0  0
  1  2  1  0
  2  3  1  0
  3  4  1  0
  3  5  2  0
  5  6  1  0
  6  7  1  0
  7  8  1  0
  8  9  1  0
  8 10  2  0
  5 11  1  0
 11 12  2  0
 12 13  1  0
 13 14  2  0
 14 15  1  0
 15 16  2  0
 16  2  1  0
 16 11  1  0
M  END
