CVD-0003069|dock_bobby27042020.75|mol2|6|dock3
     RDKit          3D

 22 23  0  0  0  0  0  0  0  0999 V2000
   13.5232    5.5493   22.2880 C   0  0  0  0  0  0  0  0  0  0  0  0
   12.2392    5.0676   22.8874 C   0  0  0  0  0  0  0  0  0  0  0  0
   11.6962    3.9409   22.1472 N   0  0  0  0  0  0  0  0  0  0  0  0
   11.9847    2.6641   22.4497 C   0  0  0  0  0  0  0  0  0  0  0  0
   13.2909    2.3527   22.5678 N   0  0  0  0  0  0  0  0  0  0  0  0
   13.6098    1.0889   22.8686 C   0  0  0  0  0  0  0  0  0  0  0  0
   12.6695    0.0848   23.0655 C   0  0  0  0  0  0  0  0  0  0  0  0
   11.3255    0.4178   22.9420 C   0  0  0  0  0  0  0  0  0  0  0  0
   10.9526    1.7198   22.6294 C   0  0  0  0  0  0  0  0  0  0  0  0
    9.4835    2.0567   22.5053 C   0  0  0  0  0  0  0  0  0  0  0  0
    8.8094    1.3744   21.3315 C   0  0  0  0  0  0  0  0  0  0  0  0
    9.3543    0.4400   20.7538 O   0  0  0  0  0  0  0  0  0  0  0  0
    7.6025    1.9089   21.0210 N   0  0  0  0  0  0  0  0  0  0  0  0
    6.6765    1.5622   19.9976 C   0  0  0  0  0  0  0  0  0  0  0  0
    7.0308    0.9606   18.7895 C   0  0  0  0  0  0  0  0  0  0  0  0
    6.1589    0.6359   17.8299 N   0  0  0  0  0  0  0  0  0  0  0  0
    4.8743    0.9040   18.0455 C   0  0  0  0  0  0  0  0  0  0  0  0
    4.4136    1.4948   19.2005 C   0  0  0  0  0  0  0  0  0  0  0  0
    5.3114    1.8391   20.2065 C   0  0  0  0  0  0  0  0  0  0  0  0
    4.7744    2.4816   21.4596 C   0  0  0  0  0  0  0  0  0  0  0  0
   13.0698   -1.2625   23.3885 C   0  0  0  0  0  0  0  0  0  0  0  0
   13.4018   -2.3318   23.6146 N   0  0  0  0  0  0  0  0  0  0  0  0
  1  2  1  0
  2  3  1  0
  3  4  1  0
  4  5  2  0
  5  6  1  0
  6  7  2  0
  7  8  1  0
  8  9  2  0
  9 10  1  0
 10 11  1  0
 11 12  2  0
 11 13  1  0
 13 14  1  0
 14 15  2  0
 15 16  1  0
 16 17  2  0
 17 18  1  0
 18 19  2  0
 19 20  1  0
  7 21  1  0
 21 22  3  0
  9  4  1  0
 19 14  1  0
M  END
