CVD-0002040|dock_bobby27042020.21|mol2|43|dock1
     RDKit          3D

 26 28  0  0  0  0  0  0  0  0999 V2000
    2.0410    3.8947   17.7207 C   0  0  0  0  0  0  0  0  0  0  0  0
    2.4036    4.5885   19.0090 C   0  0  0  0  0  0  0  0  0  0  0  0
    1.6916    5.7313   19.3609 C   0  0  0  0  0  0  0  0  0  0  0  0
    1.9877    6.3887   20.5333 C   0  0  0  0  0  0  0  0  0  0  0  0
    2.9398    5.9855   21.3687 N   0  0  0  0  0  0  0  0  0  0  0  0
    3.6348    4.8926   21.0387 C   0  0  0  0  0  0  0  0  0  0  0  0
    3.4180    4.1430   19.8807 C   0  0  0  0  0  0  0  0  0  0  0  0
    4.1468    2.9711   19.5247 N   0  0  0  0  0  0  0  0  0  0  0  0
    4.9321    2.1558   20.2847 C   0  0  0  0  0  0  0  0  0  0  0  0
    5.1394    2.3294   21.4807 O   0  0  0  0  0  0  0  0  0  0  0  0
    5.5941    0.9636   19.6451 C   0  0  0  0  0  0  0  0  0  0  0  0
    5.0361    0.1901   18.6319 C   0  0  0  0  0  0  0  0  0  0  0  0
    5.6456   -0.8643   18.0839 N   0  0  0  0  0  0  0  0  0  0  0  0
    6.8596   -1.1978   18.5280 C   0  0  0  0  0  0  0  0  0  0  0  0
    7.5208   -0.5000   19.5349 C   0  0  0  0  0  0  0  0  0  0  0  0
    8.8095   -0.8302   20.0261 N   0  0  0  0  0  0  0  0  0  0  0  0
    9.4029   -0.5717   21.2408 C   0  0  0  0  0  0  0  0  0  0  0  0
    8.8619    0.0341   22.1598 O   0  0  0  0  0  0  0  0  0  0  0  0
   10.6808   -1.0807   21.2906 N   0  0  0  0  0  0  0  0  0  0  0  0
   11.6511   -1.0536   22.3246 C   0  0  0  0  0  0  0  0  0  0  0  0
   12.7023   -1.9601   22.2444 C   0  0  0  0  0  0  0  0  0  0  0  0
   13.6850   -1.9888   23.2193 C   0  0  0  0  0  0  0  0  0  0  0  0
   13.6326   -1.1167   24.2837 C   0  0  0  0  0  0  0  0  0  0  0  0
   12.5965   -0.2136   24.3748 C   0  0  0  0  0  0  0  0  0  0  0  0
   11.6074   -0.1752   23.4056 C   0  0  0  0  0  0  0  0  0  0  0  0
    6.8599    0.5917   20.0862 C   0  0  0  0  0  0  0  0  0  0  0  0
  1  2  1  0
  2  3  2  0
  3  4  1  0
  4  5  2  0
  5  6  1  0
  6  7  2  0
  7  8  1  0
  8  9  1  0
  9 10  2  0
  9 11  1  0
 11 12  2  0
 12 13  1  0
 13 14  2  0
 14 15  1  0
 15 16  1  0
 16 17  1  0
 17 18  2  0
 17 19  1  0
 19 20  1  0
 20 21  2  0
 21 22  1  0
 22 23  2  0
 23 24  1  0
 24 25  2  0
 15 26  2  0
  7  2  1  0
 26 11  1  0
 25 20  1  0
M  END
