CVD-0001479|dock_bobby27042020.38|mol2|5|dock3
     RDKit          3D

 20 21  0  0  0  0  0  0  0  0999 V2000
   14.5386   -2.3317   25.3217 C   0  0  0  0  0  0  0  0  0  0  0  0
   13.3574   -2.4104   24.3998 C   0  0  0  0  0  0  0  0  0  0  0  0
   12.3016   -2.9346   24.7405 O   0  0  0  0  0  0  0  0  0  0  0  0
   13.5162   -1.8621   23.1936 N   0  0  0  0  0  0  0  0  0  0  0  0
   12.4575   -1.8431   22.1945 C   0  0  0  0  0  0  0  0  0  0  0  0
   11.5104   -0.6823   22.4104 C   0  0  0  0  0  0  0  0  0  0  0  0
   10.3471   -0.7770   21.5266 N   0  0  0  0  0  0  0  0  0  0  0  0
    9.2579   -1.5637   22.1049 C   0  0  0  0  0  0  0  0  0  0  0  0
    8.0672   -1.7189   21.1888 C   0  0  0  0  0  0  0  0  0  0  0  0
    7.8696   -0.7919   20.1705 C   0  0  0  0  0  0  0  0  0  0  0  0
    6.7817   -0.9062   19.3122 C   0  0  0  0  0  0  0  0  0  0  0  0
    5.9061   -1.9676   19.5046 C   0  0  0  0  0  0  0  0  0  0  0  0
    6.0561   -2.8803   20.4698 N   0  0  0  0  0  0  0  0  0  0  0  0
    7.1156   -2.7545   21.2932 C   0  0  0  0  0  0  0  0  0  0  0  0
    7.2280   -3.6918   22.2501 N   0  0  0  0  0  0  0  0  0  0  0  0
    6.4688   -4.9377   22.2621 C   0  0  0  0  0  0  0  0  0  0  0  0
    7.6217   -5.9682   21.7033 C   0  0  0  0  0  0  0  0  0  0  0  0
    6.2268   -6.0369   21.1958 C   0  0  0  0  0  0  0  0  0  0  0  0
    6.5732    0.0519   18.2547 C   0  0  0  0  0  0  0  0  0  0  0  0
    6.3753    0.8092   17.4228 N   0  0  0  0  0  0  0  0  0  0  0  0
  1  2  1  0
  2  3  2  0
  2  4  1  0
  4  5  1  0
  5  6  1  0
  6  7  1  0
  7  8  1  0
  8  9  1  0
  9 10  2  0
 10 11  1  0
 11 12  2  0
 12 13  1  0
 13 14  2  0
 14 15  1  0
 15 16  1  0
 16 17  1  0
 17 18  1  0
 11 19  1  0
 19 20  3  0
 14  9  1  0
 18 16  1  0
M  END
