CVD-0001712|dock_bobby27042020.37|mol2|22|dock2
     RDKit          3D

 29 31  0  0  0  0  0  0  0  0999 V2000
    9.2856    3.4395   22.4308 N   0  0  0  0  0  0  0  0  0  0  0  0
   10.5522    2.7294   22.6962 C   0  0  0  0  0  0  0  0  0  0  0  0
   11.3716    3.5973   23.6499 C   0  0  0  0  0  0  0  0  0  0  0  0
   11.8080    4.9874   23.1603 C   0  0  0  0  0  0  0  0  0  0  0  0
   12.7460    4.9751   21.9367 C   0  0  0  0  0  0  0  0  0  0  0  0
   13.7806    6.0600   22.2060 C   0  0  0  0  0  0  0  0  0  0  0  0
   13.6757    6.2652   23.6381 N   0  0  0  0  0  0  0  0  0  0  0  0
   12.5821    5.7487   24.2044 C   0  0  0  0  0  0  0  0  0  0  0  0
   12.2830    5.8479   25.3916 O   0  0  0  0  0  0  0  0  0  0  0  0
   10.4451    1.3064   23.2184 C   0  0  0  0  0  0  0  0  0  0  0  0
   10.5608    1.0705   24.4086 O   0  0  0  0  0  0  0  0  0  0  0  0
   10.1836    0.1720   22.2075 C   0  0  0  0  0  0  0  0  0  0  0  0
    9.7847    0.4051   21.0674 O   0  0  0  0  0  0  0  0  0  0  0  0
   10.4241   -1.0524   22.6739 N   0  0  0  0  0  0  0  0  0  0  0  0
   10.2318   -2.2429   21.8590 C   0  0  0  0  0  0  0  0  0  0  0  0
    9.6250   -3.3962   22.6210 C   0  0  0  0  0  0  0  0  0  0  0  0
   10.2543   -3.9094   23.7426 C   0  0  0  0  0  0  0  0  0  0  0  0
    9.6886   -4.9601   24.4411 C   0  0  0  0  0  0  0  0  0  0  0  0
    8.4970   -5.5170   24.0104 C   0  0  0  0  0  0  0  0  0  0  0  0
    7.8504   -5.0378   22.8749 C   0  0  0  0  0  0  0  0  0  0  0  0
    8.4199   -3.9515   22.2084 C   0  0  0  0  0  0  0  0  0  0  0  0
    6.5756   -5.7299   22.4711 C   0  0  0  0  0  0  0  0  0  0  0  0
    6.6973   -6.5952   21.6209 O   0  0  0  0  0  0  0  0  0  0  0  0
    5.3479   -5.4454   22.9704 N   0  0  0  0  0  0  0  0  0  0  0  0
    4.1003   -6.1038   22.5764 C   0  0  0  0  0  0  0  0  0  0  0  0
    3.6682   -7.1325   23.5903 C   0  0  0  0  0  0  0  0  0  0  0  0
    3.3766   -6.4187   25.2298 S   0  0  0  0  0  0  0  0  0  0  0  0
    4.9385   -5.5327   25.3921 C   0  0  0  0  0  0  0  0  0  0  0  0
    5.2579   -4.6607   24.2062 C   0  0  0  0  0  0  0  0  0  0  0  0
  2  1  1  0
  2  3  1  0
  4  3  1  0
  4  5  1  0
  5  6  1  0
  6  7  1  0
  7  8  1  0
  8  9  2  0
  2 10  1  0
 10 11  2  0
 10 12  1  0
 12 13  2  0
 12 14  1  0
 14 15  1  0
 15 16  1  0
 16 17  2  0
 17 18  1  0
 18 19  2  0
 19 20  1  0
 20 21  2  0
 20 22  1  0
 22 23  2  0
 22 24  1  0
 24 25  1  0
 25 26  1  0
 26 27  1  0
 27 28  1  0
 28 29  1  0
  8  4  1  0
 21 16  1  0
 29 24  1  0
M  END
