CVD-0003287|dock_bobby27042020.17|mol2|1|dock1
     RDKit          3D

 24 26  0  0  0  0  0  0  0  0999 V2000
    2.1541    3.6268   18.8297 C   0  0  0  0  0  0  0  0  0  0  0  0
    3.4200    2.9946   19.3288 C   0  0  0  0  0  0  0  0  0  0  0  0
    3.7707    3.0816   20.5015 O   0  0  0  0  0  0  0  0  0  0  0  0
    4.1339    2.3180   18.4269 N   0  0  0  0  0  0  0  0  0  0  0  0
    5.3756    1.6349   18.7608 C   0  0  0  0  0  0  0  0  0  0  0  0
    5.1299    0.3852   19.5826 C   0  0  0  0  0  0  0  0  0  0  0  0
    6.3977   -0.2703   20.0463 C   0  0  0  0  0  0  0  0  0  0  0  0
    7.5165   -0.5251   19.3083 C   0  0  0  0  0  0  0  0  0  0  0  0
    8.4687   -1.1363   20.0780 N   0  0  0  0  0  0  0  0  0  0  0  0
    7.9704   -1.2884   21.3483 C   0  0  0  0  0  0  0  0  0  0  0  0
    8.5680   -1.8540   22.4781 C   0  0  0  0  0  0  0  0  0  0  0  0
    9.9664   -2.4228   22.4292 C   0  0  0  0  0  0  0  0  0  0  0  0
   10.9862   -1.4894   22.9291 N   0  0  0  0  0  0  0  0  0  0  0  0
   10.8486   -0.1751   22.2902 C   0  0  0  0  0  0  0  0  0  0  0  0
   11.8559    0.8212   22.8297 C   0  0  0  0  0  0  0  0  0  0  0  0
   13.2943    0.3377   22.6904 C   0  0  0  0  0  0  0  0  0  0  0  0
   14.2568    1.1997   23.3056 O   0  0  0  0  0  0  0  0  0  0  0  0
   13.3870   -1.0694   23.2702 C   0  0  0  0  0  0  0  0  0  0  0  0
   12.3376   -2.0037   22.6917 C   0  0  0  0  0  0  0  0  0  0  0  0
    7.8283   -1.8822   23.6551 C   0  0  0  0  0  0  0  0  0  0  0  0
    6.5566   -1.3576   23.6611 C   0  0  0  0  0  0  0  0  0  0  0  0
    5.8563   -1.3977   24.8266 F   0  0  0  0  0  0  0  0  0  0  0  0
    5.9485   -0.7952   22.5629 C   0  0  0  0  0  0  0  0  0  0  0  0
    6.6685   -0.7559   21.3694 C   0  0  0  0  0  0  0  0  0  0  0  0
  1  2  1  0
  2  3  2  0
  2  4  1  0
  4  5  1  0
  5  6  1  0
  6  7  1  0
  7  8  2  0
  8  9  1  0
  9 10  1  0
 10 11  2  0
 11 12  1  0
 12 13  1  0
 13 14  1  0
 14 15  1  0
 15 16  1  0
 16 17  1  0
 16 18  1  0
 18 19  1  0
 11 20  1  0
 20 21  2  0
 21 22  1  0
 21 23  1  0
 23 24  2  0
 24  7  1  0
 24 10  1  0
 19 13  1  0
M  END
