CVD-0003379|dock_bobby27042020.88|mol2|13|dock3
     RDKit          3D

 19 21  0  0  0  0  0  0  0  0999 V2000
   14.6064   -2.3223   25.5098 C   0  0  0  0  0  0  0  0  0  0  0  0
   13.9476   -1.4757   24.5167 N   0  0  0  0  0  0  0  0  0  0  0  0
   12.9721   -0.5923   25.1623 C   0  0  0  0  0  0  0  0  0  0  0  0
   12.3211    0.3127   24.1329 C   0  0  0  0  0  0  0  0  0  0  0  0
   11.6703   -0.4837   23.0902 N   0  0  0  0  0  0  0  0  0  0  0  0
   12.6077   -1.4217   22.4649 C   0  0  0  0  0  0  0  0  0  0  0  0
   13.2626   -2.2946   23.5201 C   0  0  0  0  0  0  0  0  0  0  0  0
   10.3743   -0.3269   22.7525 C   0  0  0  0  0  0  0  0  0  0  0  0
    9.6602    0.5075   23.2938 O   0  0  0  0  0  0  0  0  0  0  0  0
    9.8206   -1.2382   21.6719 C   0  0  0  0  0  0  0  0  0  0  0  0
    8.3644   -1.0192   21.3897 C   0  0  0  0  0  0  0  0  0  0  0  0
    7.2912   -1.3650   22.1592 C   0  0  0  0  0  0  0  0  0  0  0  0
    6.1082   -0.9985   21.5664 N   0  0  0  0  0  0  0  0  0  0  0  0
    6.3638   -0.3907   20.3708 C   0  0  0  0  0  0  0  0  0  0  0  0
    5.5107    0.1196   19.4693 N   0  0  0  0  0  0  0  0  0  0  0  0
    6.0892    0.6534   18.3848 C   0  0  0  0  0  0  0  0  0  0  0  0
    7.4619    0.6754   18.2107 C   0  0  0  0  0  0  0  0  0  0  0  0
    8.3196    0.1667   19.1085 N   0  0  0  0  0  0  0  0  0  0  0  0
    7.7727   -0.3760   20.2070 C   0  0  0  0  0  0  0  0  0  0  0  0
  1  2  1  0
  2  3  1  0
  3  4  1  0
  4  5  1  0
  5  6  1  0
  6  7  1  0
  5  8  1  0
  8  9  2  0
  8 10  1  0
 10 11  1  0
 11 12  2  0
 12 13  1  0
 13 14  1  0
 14 15  2  0
 15 16  1  0
 16 17  2  0
 17 18  1  0
 18 19  2  0
  7  2  1  0
 19 11  1  0
 19 14  1  0
M  END
