CVD-0000871|dock_bobby27042020.11|mol2|31|dock1
     RDKit          3D

 28 31  0  0  0  0  0  0  0  0999 V2000
    5.6810    0.4446   18.2931 Cl  0  0  0  0  0  0  0  0  0  0  0  0
    5.9653    0.0959   20.0033 C   0  0  0  0  0  0  0  0  0  0  0  0
    7.4492    0.0765   20.3181 C   0  0  0  0  0  0  0  0  0  0  0  0
    8.2530   -0.0346   19.4001 O   0  0  0  0  0  0  0  0  0  0  0  0
    7.8428    0.1705   21.6145 N   0  0  0  0  0  0  0  0  0  0  0  0
    6.9203    0.2280   22.7633 C   0  0  0  0  0  0  0  0  0  0  0  0
    7.5667    0.0837   24.1414 C   0  0  0  0  0  0  0  0  0  0  0  0
    6.8402    0.4093   25.2820 C   0  0  0  0  0  0  0  0  0  0  0  0
    7.3625    0.1869   26.5429 C   0  0  0  0  0  0  0  0  0  0  0  0
    8.6192   -0.3644   26.6667 C   0  0  0  0  0  0  0  0  0  0  0  0
    9.3386   -0.6867   25.5302 C   0  0  0  0  0  0  0  0  0  0  0  0
    8.8360   -0.4730   24.2465 C   0  0  0  0  0  0  0  0  0  0  0  0
    9.5894   -0.8509   22.9957 C   0  0  0  0  0  0  0  0  0  0  0  0
    9.2974    0.1238   21.9043 C   0  0  0  0  0  0  0  0  0  0  0  0
    9.8224    1.4653   22.2209 C   0  0  0  0  0  0  0  0  0  0  0  0
   10.3133    2.5193   22.4836 C   0  0  0  0  0  0  0  0  0  0  0  0
   10.9626    3.7617   22.7965 C   0  0  0  0  0  0  0  0  0  0  0  0
   10.2305    4.9170   23.0453 C   0  0  0  0  0  0  0  0  0  0  0  0
   10.8967    6.0931   23.3431 C   0  0  0  0  0  0  0  0  0  0  0  0
   12.2726    6.0805   23.3835 C   0  0  0  0  0  0  0  0  0  0  0  0
   13.0033    4.9893   23.1497 N   0  0  0  0  0  0  0  0  0  0  0  0
   12.3496    3.8596   22.8632 C   0  0  0  0  0  0  0  0  0  0  0  0
   11.0752   -1.0931   23.2737 C   0  0  0  0  0  0  0  0  0  0  0  0
   11.6646   -2.2972   22.9044 C   0  0  0  0  0  0  0  0  0  0  0  0
   13.0065   -2.5453   23.1391 C   0  0  0  0  0  0  0  0  0  0  0  0
   13.7881   -1.5928   23.7541 C   0  0  0  0  0  0  0  0  0  0  0  0
   13.2219   -0.3984   24.1413 C   0  0  0  0  0  0  0  0  0  0  0  0
   11.8778   -0.1542   23.9122 C   0  0  0  0  0  0  0  0  0  0  0  0
  1  2  1  0
  2  3  1  0
  3  4  2  0
  3  5  1  0
  5  6  1  0
  6  7  1  0
  7  8  2  0
  8  9  1  0
  9 10  2  0
 10 11  1  0
 11 12  2  0
 12 13  1  0
 13 14  1  0
 14 15  1  0
 15 16  3  0
 16 17  1  0
 17 18  2  0
 18 19  1  0
 19 20  2  0
 20 21  1  0
 21 22  2  0
 13 23  1  0
 23 24  2  0
 24 25  1  0
 25 26  2  0
 26 27  1  0
 27 28  2  0
 14  5  1  0
 22 17  1  0
 28 23  1  0
 12  7  1  0
M  END
