CVD-0002675|dock_bobby27042020.76|mol2|24|dock2
     RDKit          3D

 18 19  0  0  0  0  0  0  0  0999 V2000
   13.7805   -2.3246   22.8731 C   0  0  0  0  0  0  0  0  0  0  0  0
   12.6511   -1.3659   22.5518 C   0  0  0  0  0  0  0  0  0  0  0  0
   12.9356    0.0417   23.0131 C   0  0  0  0  0  0  0  0  0  0  0  0
   13.2012    0.0873   24.5006 C   0  0  0  0  0  0  0  0  0  0  0  0
   11.7305    0.8220   22.7086 O   0  0  0  0  0  0  0  0  0  0  0  0
   11.6410    2.1664   22.6777 C   0  0  0  0  0  0  0  0  0  0  0  0
   12.7710    2.8317   22.6996 N   0  0  0  0  0  0  0  0  0  0  0  0
   12.6359    4.1901   22.6656 C   0  0  0  0  0  0  0  0  0  0  0  0
   11.5461    4.9475   22.6167 N   0  0  0  0  0  0  0  0  0  0  0  0
   10.3964    4.1934   22.6057 N   0  0  0  0  0  0  0  0  0  0  0  0
    9.1402    4.6835   22.5691 C   0  0  0  0  0  0  0  0  0  0  0  0
    8.8161    6.3655   22.5259 Cl  0  0  0  0  0  0  0  0  0  0  0  0
    8.2285    3.6542   22.5733 C   0  0  0  0  0  0  0  0  0  0  0  0
    8.9648    2.4727   22.6150 C   0  0  0  0  0  0  0  0  0  0  0  0
   10.3558    2.8113   22.6342 C   0  0  0  0  0  0  0  0  0  0  0  0
   13.9543    4.8870   22.6886 C   0  0  0  0  0  0  0  0  0  0  0  0
   14.1047    5.8845   21.8268 N   0  0  0  0  0  0  0  0  0  0  0  0
   14.8355    4.5301   23.4787 O   0  0  0  0  0  0  0  0  0  0  0  0
  1  2  1  0
  2  3  1  0
  3  4  1  0
  3  5  1  0
  5  6  1  0
  6  7  2  0
  7  8  1  0
  8  9  2  0
  9 10  1  0
 10 11  1  0
 11 12  1  0
 11 13  2  0
 13 14  1  0
 14 15  2  0
  8 16  1  0
 16 17  1  0
 16 18  2  0
 15  6  1  0
 15 10  1  0
M  END
