CVD-0003700|dock_bobby27042020.15|mol2|42|dock1
     RDKit          3D

 26 29  0  0  0  0  0  0  0  0999 V2000
    7.7093    1.1474   20.5807 O   0  0  0  0  0  0  0  0  0  0  0  0
    7.3187   -0.1455   21.0454 C   0  0  0  0  0  0  0  0  0  0  0  0
    5.8324   -0.3248   20.8167 C   0  0  0  0  0  0  0  0  0  0  0  0
    5.5003   -0.2897   19.4597 F   0  0  0  0  0  0  0  0  0  0  0  0
    7.7224   -0.3598   22.5253 C   0  0  0  0  0  0  0  0  0  0  0  0
    7.4141    0.8504   23.3797 C   0  0  0  0  0  0  0  0  0  0  0  0
    8.2116    1.9965   22.9459 N   0  0  0  0  0  0  0  0  0  0  0  0
    9.6692    1.7838   23.0301 C   0  0  0  0  0  0  0  0  0  0  0  0
   10.2785    2.6827   21.9421 C   0  0  0  0  0  0  0  0  0  0  0  0
   11.0067    3.8783   22.5064 C   0  0  0  0  0  0  0  0  0  0  0  0
   10.4194    4.6736   23.4778 C   0  0  0  0  0  0  0  0  0  0  0  0
   11.0879    5.7721   23.9921 C   0  0  0  0  0  0  0  0  0  0  0  0
   12.3568    6.0914   23.5393 C   0  0  0  0  0  0  0  0  0  0  0  0
   12.9510    5.3024   22.5674 C   0  0  0  0  0  0  0  0  0  0  0  0
   14.2008    5.6069   22.1126 O   0  0  0  0  0  0  0  0  0  0  0  0
   12.2792    4.2025   22.0538 C   0  0  0  0  0  0  0  0  0  0  0  0
   10.1051    0.3325   22.9429 C   0  0  0  0  0  0  0  0  0  0  0  0
   11.4665    0.0297   23.1003 C   0  0  0  0  0  0  0  0  0  0  0  0
   12.4751    1.1199   23.3442 C   0  0  0  0  0  0  0  0  0  0  0  0
   13.8173    0.7154   22.7737 C   0  0  0  0  0  0  0  0  0  0  0  0
   14.2712   -0.5321   23.3877 N   0  0  0  0  0  0  0  0  0  0  0  0
   13.3520   -1.6687   23.1874 C   0  0  0  0  0  0  0  0  0  0  0  0
   11.9080   -1.2880   22.9406 C   0  0  0  0  0  0  0  0  0  0  0  0
   10.9918   -2.2842   22.6274 C   0  0  0  0  0  0  0  0  0  0  0  0
    9.6511   -1.9921   22.4714 C   0  0  0  0  0  0  0  0  0  0  0  0
    9.1937   -0.6844   22.6270 C   0  0  0  0  0  0  0  0  0  0  0  0
  1  2  1  0
  2  3  1  0
  3  4  1  0
  2  5  1  0
  5  6  1  0
  6  7  1  0
  7  8  1  0
  8  9  1  0
  9 10  1  0
 10 11  2  0
 11 12  1  0
 12 13  2  0
 13 14  1  0
 14 15  1  0
 14 16  2  0
  8 17  1  0
 17 18  2  0
 18 19  1  0
 19 20  1  0
 20 21  1  0
 21 22  1  0
 22 23  1  0
 23 24  2  0
 24 25  1  0
 25 26  2  0
 26  5  1  0
 16 10  1  0
 26 17  1  0
 23 18  1  0
M  END
