CVD-0003942|dock_bobby27042020.86|mol2|18|dock3
     RDKit          3D

 25 27  0  0  0  0  0  0  0  0999 V2000
   14.1530    6.4805   22.1614 C   0  0  0  0  0  0  0  0  0  0  0  0
   13.1909    5.4043   22.4038 N   0  0  0  0  0  0  0  0  0  0  0  0
   11.9320    5.5274   22.8676 C   0  0  0  0  0  0  0  0  0  0  0  0
   11.3118    4.3709   22.9997 N   0  0  0  0  0  0  0  0  0  0  0  0
   12.2524    3.4415   22.5982 C   0  0  0  0  0  0  0  0  0  0  0  0
   13.4118    4.0697   22.2352 C   0  0  0  0  0  0  0  0  0  0  0  0
   11.9365    2.0495   22.6088 C   0  0  0  0  0  0  0  0  0  0  0  0
   11.5991    0.9015   22.6343 C   0  0  0  0  0  0  0  0  0  0  0  0
   11.1854   -0.5074   22.7960 C   0  0  0  0  0  0  0  0  0  0  0  0
   11.5686   -0.8694   24.2287 C   0  0  0  0  0  0  0  0  0  0  0  0
   13.0744   -0.9071   24.3970 C   0  0  0  0  0  0  0  0  0  0  0  0
   13.7188   -1.8716   23.4132 C   0  0  0  0  0  0  0  0  0  0  0  0
   13.3341   -1.5262   21.9837 C   0  0  0  0  0  0  0  0  0  0  0  0
   11.8218   -1.4747   21.8079 C   0  0  0  0  0  0  0  0  0  0  0  0
    9.7233   -0.6705   22.7126 N   0  0  0  0  0  0  0  0  0  0  0  0
    8.9969   -0.1666   21.5281 C   0  0  0  0  0  0  0  0  0  0  0  0
    7.9042    0.8378   21.8879 C   0  0  0  0  0  0  0  0  0  0  0  0
    7.0965    1.2678   20.6799 C   0  0  0  0  0  0  0  0  0  0  0  0
    6.5741    0.1007   19.9619 N   0  0  0  0  0  0  0  0  0  0  0  0
    7.6223   -0.8066   19.5091 C   0  0  0  0  0  0  0  0  0  0  0  0
    8.4043   -1.3032   20.7051 C   0  0  0  0  0  0  0  0  0  0  0  0
    5.2824   -0.1067   19.6324 C   0  0  0  0  0  0  0  0  0  0  0  0
    4.9228   -1.1145   19.0370 O   0  0  0  0  0  0  0  0  0  0  0  0
    4.2905    0.9659   20.0386 C   0  0  0  0  0  0  0  0  0  0  0  0
    4.6376    2.4955   19.2219 Cl  0  0  0  0  0  0  0  0  0  0  0  0
  1  2  1  0
  2  3  1  0
  3  4  2  0
  4  5  1  0
  5  6  2  0
  5  7  1  0
  7  8  3  0
  8  9  1  0
  9 10  1  0
 10 11  1  0
 11 12  1  0
 12 13  1  0
 13 14  1  0
  9 15  1  0
 15 16  1  0
 16 17  1  0
 17 18  1  0
 18 19  1  0
 19 20  1  0
 20 21  1  0
 19 22  1  0
 22 23  2  0
 22 24  1  0
 24 25  1  0
  6  2  1  0
 14  9  1  0
 21 16  1  0
M  END
