CVD-0003956|dock_bobby27042020.86|mol2|16|dock3
     RDKit          3D

 18 19  0  0  0  0  0  0  0  0999 V2000
    8.4136   -0.3813   25.5992 C   0  0  0  0  0  0  0  0  0  0  0  0
    9.3249   -0.4855   24.4117 C   0  0  0  0  0  0  0  0  0  0  0  0
    9.4631   -1.5340   23.7895 O   0  0  0  0  0  0  0  0  0  0  0  0
    9.9898    0.6273   24.0824 N   0  0  0  0  0  0  0  0  0  0  0  0
   10.9172    0.6872   22.9702 C   0  0  0  0  0  0  0  0  0  0  0  0
   12.0003   -0.2899   23.0869 N   0  0  0  0  0  0  0  0  0  0  0  0
   12.4992   -0.6708   24.4122 C   0  0  0  0  0  0  0  0  0  0  0  0
   13.9235   -1.0912   24.2878 C   0  0  0  0  0  0  0  0  0  0  0  0
   14.0820   -2.1650   23.3731 O   0  0  0  0  0  0  0  0  0  0  0  0
   13.5976   -1.8050   22.0926 C   0  0  0  0  0  0  0  0  0  0  0  0
   12.1467   -1.3871   22.1393 C   0  0  0  0  0  0  0  0  0  0  0  0
   11.4790    2.0882   22.8304 C   0  0  0  0  0  0  0  0  0  0  0  0
   12.8447    2.2956   22.6986 C   0  0  0  0  0  0  0  0  0  0  0  0
   13.3552    3.5761   22.5680 C   0  0  0  0  0  0  0  0  0  0  0  0
   12.5042    4.6685   22.5668 C   0  0  0  0  0  0  0  0  0  0  0  0
   11.1494    4.4543   22.6968 C   0  0  0  0  0  0  0  0  0  0  0  0
   10.0675    5.8188   22.6963 Cl  0  0  0  0  0  0  0  0  0  0  0  0
   10.6281    3.1832   22.8277 C   0  0  0  0  0  0  0  0  0  0  0  0
  1  2  1  0
  2  3  2  0
  2  4  1  0
  4  5  1  0
  5  6  1  0
  6  7  1  0
  7  8  1  0
  8  9  1  0
  9 10  1  0
 10 11  1  0
  5 12  1  0
 12 13  2  0
 13 14  1  0
 14 15  2  0
 15 16  1  0
 16 17  1  0
 16 18  2  0
 11  6  1  0
 18 12  1  0
M  END
