CVD-0003601|dock_bobby27042020.73|mol2|18|dock2
     RDKit          3D

 26 28  0  0  0  0  0  0  0  0999 V2000
   14.0445    7.7929   23.2751 C   0  0  0  0  0  0  0  0  0  0  0  0
   13.4450    6.4122   23.1635 C   0  0  0  0  0  0  0  0  0  0  0  0
   12.6757    5.8787   24.1821 C   0  0  0  0  0  0  0  0  0  0  0  0
   12.1208    4.6148   24.0849 C   0  0  0  0  0  0  0  0  0  0  0  0
   12.3293    3.8239   22.9585 C   0  0  0  0  0  0  0  0  0  0  0  0
   13.1091    4.3597   21.9381 C   0  0  0  0  0  0  0  0  0  0  0  0
   13.6483    5.6296   22.0408 C   0  0  0  0  0  0  0  0  0  0  0  0
   11.7862    2.5478   22.8472 N   0  0  0  0  0  0  0  0  0  0  0  0
   12.5669    1.3918   22.3824 C   0  0  0  0  0  0  0  0  0  0  0  0
   12.1982    0.1486   23.1723 C   0  0  0  0  0  0  0  0  0  0  0  0
   10.7614   -0.1128   23.0916 N   0  0  0  0  0  0  0  0  0  0  0  0
   10.4404   -1.3851   23.7532 C   0  0  0  0  0  0  0  0  0  0  0  0
   10.5760   -2.5765   22.8260 C   0  0  0  0  0  0  0  0  0  0  0  0
    9.8287   -2.3804   21.5910 N   0  0  0  0  0  0  0  0  0  0  0  0
    8.4939   -2.5583   21.5170 C   0  0  0  0  0  0  0  0  0  0  0  0
    7.8137   -2.8973   22.4818 O   0  0  0  0  0  0  0  0  0  0  0  0
    7.9542   -2.3365   20.3021 N   0  0  0  0  0  0  0  0  0  0  0  0
    6.5262   -2.4875   20.0647 C   0  0  0  0  0  0  0  0  0  0  0  0
    5.8690   -1.2100   19.6064 C   0  0  0  0  0  0  0  0  0  0  0  0
    6.1286   -0.6711   18.3576 C   0  0  0  0  0  0  0  0  0  0  0  0
    5.4948    0.5060   17.9997 C   0  0  0  0  0  0  0  0  0  0  0  0
    4.6295    1.1087   18.8865 C   0  0  0  0  0  0  0  0  0  0  0  0
    4.4306    0.5050   20.1072 C   0  0  0  0  0  0  0  0  0  0  0  0
    5.0309   -0.6335   20.4788 N   0  0  0  0  0  0  0  0  0  0  0  0
   10.0659    1.0188   23.7068 C   0  0  0  0  0  0  0  0  0  0  0  0
   10.3401    2.3030   22.9426 C   0  0  0  0  0  0  0  0  0  0  0  0
  1  2  1  0
  2  3  2  0
  3  4  1  0
  4  5  2  0
  5  6  1  0
  6  7  2  0
  5  8  1  0
  8  9  1  0
  9 10  1  0
 10 11  1  0
 11 12  1  0
 12 13  1  0
 13 14  1  0
 14 15  1  0
 15 16  2  0
 15 17  1  0
 17 18  1  0
 18 19  1  0
 19 20  2  0
 20 21  1  0
 21 22  2  0
 22 23  1  0
 23 24  2  0
 11 25  1  0
 25 26  1  0
  7  2  1  0
 26  8  1  0
 24 19  1  0
M  END
