CVD-0001589|dock_bobby27042020.9|mol2|16|dock2
     RDKit          3D

 27 29  0  0  0  0  0  0  0  0999 V2000
    5.4232   -2.6821   22.1493 C   0  0  0  0  0  0  0  0  0  0  0  0
    5.5274   -1.3032   21.7082 N   0  0  0  0  0  0  0  0  0  0  0  0
    5.4865   -0.9628   20.4240 C   0  0  0  0  0  0  0  0  0  0  0  0
    5.3581   -1.7897   19.5264 O   0  0  0  0  0  0  0  0  0  0  0  0
    5.6080    0.5127   20.1306 C   0  0  0  0  0  0  0  0  0  0  0  0
    7.0416    1.0048   20.2140 C   0  0  0  0  0  0  0  0  0  0  0  0
    7.6740    0.7523   21.5510 C   0  0  0  0  0  0  0  0  0  0  0  0
    7.4748    1.5293   22.5986 N   0  0  0  0  0  0  0  0  0  0  0  0
    8.2828    1.0414   23.5890 N   0  0  0  0  0  0  0  0  0  0  0  0
    8.2277    1.6422   24.9169 C   0  0  0  0  0  0  0  0  0  0  0  0
    8.9825   -0.0328   23.1634 C   0  0  0  0  0  0  0  0  0  0  0  0
    9.6800   -1.0547   24.0031 C   0  0  0  0  0  0  0  0  0  0  0  0
   10.9778   -0.3593   25.1268 S   0  0  0  0  0  0  0  0  0  0  0  0
   12.2678   -0.7173   23.9151 C   0  0  0  0  0  0  0  0  0  0  0  0
   11.6926   -1.5558   22.7641 C   0  0  0  0  0  0  0  0  0  0  0  0
   10.3407   -1.9968   23.1235 N   0  0  0  0  0  0  0  0  0  0  0  0
    9.5209   -2.5726   22.0338 C   0  0  0  0  0  0  0  0  0  0  0  0
    9.1094   -1.4505   21.0827 C   0  0  0  0  0  0  0  0  0  0  0  0
    8.6219   -0.2579   21.8520 C   0  0  0  0  0  0  0  0  0  0  0  0
   12.9332    0.5428   23.4843 C   0  0  0  0  0  0  0  0  0  0  0  0
   14.1528    0.6567   23.5740 O   0  0  0  0  0  0  0  0  0  0  0  0
   12.1372    1.5101   23.0000 N   0  0  0  0  0  0  0  0  0  0  0  0
   12.6814    2.7102   22.5700 N   0  0  0  0  0  0  0  0  0  0  0  0
   11.8784    3.7305   22.2355 C   0  0  0  0  0  0  0  0  0  0  0  0
   10.6538    3.6695   22.2865 O   0  0  0  0  0  0  0  0  0  0  0  0
   12.6001    4.9843   21.7932 C   0  0  0  0  0  0  0  0  0  0  0  0
   13.7387    5.5859   23.0051 Cl  0  0  0  0  0  0  0  0  0  0  0  0
  1  2  1  0
  2  3  1  0
  3  4  2  0
  3  5  1  0
  5  6  1  0
  6  7  1  0
  7  8  2  0
  8  9  1  0
  9 10  1  0
  9 11  1  0
 11 12  1  0
 12 13  1  0
 13 14  1  0
 14 15  1  0
 15 16  1  0
 16 17  1  0
 17 18  1  0
 18 19  1  0
 14 20  1  0
 20 21  2  0
 20 22  1  0
 22 23  1  0
 23 24  1  0
 24 25  2  0
 24 26  1  0
 26 27  1  0
 19  7  1  0
 19 11  2  0
 16 12  1  0
M  END
