CVD-0000031|dock_bobby27042020.100|mol2|1|dock3
     RDKit          3D

 30 32  0  0  0  0  0  0  0  0999 V2000
    5.9121   -1.3185   18.8686 C   0  0  0  0  0  0  0  0  0  0  0  0
    6.4268    0.1129   18.7230 C   0  0  0  0  0  0  0  0  0  0  0  0
    5.4160    0.9361   17.9256 C   0  0  0  0  0  0  0  0  0  0  0  0
    6.6757    0.7335   20.0756 C   0  0  0  0  0  0  0  0  0  0  0  0
    5.7744    1.6104   20.6490 C   0  0  0  0  0  0  0  0  0  0  0  0
    6.1212    2.1030   21.8889 C   0  0  0  0  0  0  0  0  0  0  0  0
    7.2513    1.7731   22.5267 N   0  0  0  0  0  0  0  0  0  0  0  0
    8.0636    0.9155   21.8966 C   0  0  0  0  0  0  0  0  0  0  0  0
    7.8153    0.3822   20.6897 N   0  0  0  0  0  0  0  0  0  0  0  0
    9.2068    0.5869   22.5502 N   0  0  0  0  0  0  0  0  0  0  0  0
    9.3473   -0.8234   22.9439 C   0  0  0  0  0  0  0  0  0  0  0  0
   10.7355   -1.3581   22.6882 C   0  0  0  0  0  0  0  0  0  0  0  0
   11.2465   -1.4540   21.4044 C   0  0  0  0  0  0  0  0  0  0  0  0
   12.5182   -1.9494   21.2665 C   0  0  0  0  0  0  0  0  0  0  0  0
   13.0535   -2.0585   20.0207 F   0  0  0  0  0  0  0  0  0  0  0  0
   13.2652   -2.3376   22.3488 C   0  0  0  0  0  0  0  0  0  0  0  0
   12.6755   -2.2066   23.5983 C   0  0  0  0  0  0  0  0  0  0  0  0
   11.4291   -1.7247   23.7782 N   0  0  0  0  0  0  0  0  0  0  0  0
   13.3908   -2.5914   24.7921 C   0  0  0  0  0  0  0  0  0  0  0  0
   13.9859   -2.9483   25.7437 C   0  0  0  0  0  0  0  0  0  0  0  0
   10.2557    1.4359   22.9366 C   0  0  0  0  0  0  0  0  0  0  0  0
   11.1583    0.9737   23.6220 O   0  0  0  0  0  0  0  0  0  0  0  0
   10.2350    2.7540   22.5465 N   0  0  0  0  0  0  0  0  0  0  0  0
   11.1342    3.8207   22.8407 C   0  0  0  0  0  0  0  0  0  0  0  0
   12.5196    3.6693   22.9522 C   0  0  0  0  0  0  0  0  0  0  0  0
   13.3027    4.7706   23.2494 C   0  0  0  0  0  0  0  0  0  0  0  0
   12.6887    5.9863   23.4176 C   0  0  0  0  0  0  0  0  0  0  0  0
   11.3679    6.1552   23.3074 N   0  0  0  0  0  0  0  0  0  0  0  0
   10.5945    5.1052   23.0286 C   0  0  0  0  0  0  0  0  0  0  0  0
    9.1296    5.4229   22.9460 C   0  0  0  0  0  0  0  0  0  0  0  0
  1  2  1  0
  2  3  1  0
  2  4  1  0
  4  5  2  0
  5  6  1  0
  6  7  2  0
  7  8  1  0
  8  9  2  0
  8 10  1  0
 10 11  1  0
 11 12  1  0
 12 13  2  0
 13 14  1  0
 14 15  1  0
 14 16  2  0
 16 17  1  0
 17 18  2  0
 17 19  1  0
 19 20  3  0
 10 21  1  0
 21 22  2  0
 21 23  1  0
 23 24  1  0
 24 25  2  0
 25 26  1  0
 26 27  2  0
 27 28  1  0
 28 29  2  0
 29 30  1  0
  9  4  1  0
 18 12  1  0
 29 24  1  0
M  END
