CVD-0002598|dock_bobby27042020.76|mol2|35|dock1
     RDKit          3D

 29 32  0  0  0  0  0  0  0  0999 V2000
   12.0167    6.1762   24.3318 Cl  0  0  0  0  0  0  0  0  0  0  0  0
   12.6396    4.6038   23.8154 C   0  0  0  0  0  0  0  0  0  0  0  0
   11.8703    3.4690   24.4624 C   0  0  0  0  0  0  0  0  0  0  0  0
   10.9077    3.6791   25.1897 O   0  0  0  0  0  0  0  0  0  0  0  0
   12.3019    2.2214   24.1893 N   0  0  0  0  0  0  0  0  0  0  0  0
   11.6329    1.0700   24.7724 C   0  0  0  0  0  0  0  0  0  0  0  0
   11.2568    0.0850   23.7108 C   0  0  0  0  0  0  0  0  0  0  0  0
   12.4599   -0.2837   22.9513 N   0  0  0  0  0  0  0  0  0  0  0  0
   13.0750    0.8840   22.3029 C   0  0  0  0  0  0  0  0  0  0  0  0
   13.4589    1.8818   23.3550 C   0  0  0  0  0  0  0  0  0  0  0  0
   12.4203   -1.6831   22.1359 S   0  0  0  0  0  0  0  0  0  0  0  0
   13.3898   -2.5463   22.7340 O   0  0  0  0  0  0  0  0  0  0  0  0
   12.5298   -1.3629   20.7474 O   0  0  0  0  0  0  0  0  0  0  0  0
   10.8605   -2.4178   22.3734 C   0  0  0  0  0  0  0  0  0  0  0  0
   10.5434   -3.3719   23.3096 C   0  0  0  0  0  0  0  0  0  0  0  0
    9.2060   -3.7614   23.2400 C   0  0  0  0  0  0  0  0  0  0  0  0
    8.4847   -3.1194   22.2564 C   0  0  0  0  0  0  0  0  0  0  0  0
    7.0375   -3.2772   21.8885 C   0  0  0  0  0  0  0  0  0  0  0  0
    6.6157   -2.4500   20.6892 C   0  0  0  0  0  0  0  0  0  0  0  0
    6.3814   -3.0619   19.4857 C   0  0  0  0  0  0  0  0  0  0  0  0
    5.9980   -2.3408   18.3675 C   0  0  0  0  0  0  0  0  0  0  0  0
    5.8414   -0.9884   18.4299 C   0  0  0  0  0  0  0  0  0  0  0  0
    6.0693   -0.2955   19.6429 C   0  0  0  0  0  0  0  0  0  0  0  0
    5.9206    1.1076   19.7580 C   0  0  0  0  0  0  0  0  0  0  0  0
    6.1502    1.7379   20.9449 C   0  0  0  0  0  0  0  0  0  0  0  0
    6.5324    1.0232   22.0606 C   0  0  0  0  0  0  0  0  0  0  0  0
    6.6887   -0.3295   22.0004 C   0  0  0  0  0  0  0  0  0  0  0  0
    6.4639   -1.0400   20.7932 C   0  0  0  0  0  0  0  0  0  0  0  0
    9.5044   -2.0120   21.4091 S   0  0  0  0  0  0  0  0  0  0  0  0
  1  2  1  0
  2  3  1  0
  3  4  2  0
  3  5  1  0
  5  6  1  0
  6  7  1  0
  7  8  1  0
  8  9  1  0
  9 10  1  0
  8 11  1  0
 11 12  2  0
 11 13  2  0
 11 14  1  0
 14 15  2  0
 15 16  1  0
 16 17  2  0
 17 18  1  0
 18 19  1  0
 19 20  2  0
 20 21  1  0
 21 22  2  0
 22 23  1  0
 23 24  2  0
 24 25  1  0
 25 26  2  0
 26 27  1  0
 27 28  2  0
 17 29  1  0
 10  5  1  0
 29 14  1  0
 28 19  1  0
 28 23  1  0
M  END
