CVD-0003524|dock_bobby27042020.16|mol2|21|dock1
     RDKit          3D

 25 27  0  0  0  0  0  0  0  0999 V2000
   13.2874    4.9168   21.4161 N   0  0  0  0  0  0  0  0  0  0  0  0
   13.5182    4.3043   22.8772 S   0  0  0  0  0  0  0  0  0  0  0  0
   12.5594    4.9148   23.7485 O   0  0  0  0  0  0  0  0  0  0  0  0
   14.9117    4.4407   23.1781 O   0  0  0  0  0  0  0  0  0  0  0  0
   13.1566    2.5755   22.8233 C   0  0  0  0  0  0  0  0  0  0  0  0
   14.1496    1.6705   22.4885 C   0  0  0  0  0  0  0  0  0  0  0  0
   13.8422    0.3225   22.4487 C   0  0  0  0  0  0  0  0  0  0  0  0
   12.5607   -0.1391   22.7372 C   0  0  0  0  0  0  0  0  0  0  0  0
   12.2318   -1.6056   22.6564 C   0  0  0  0  0  0  0  0  0  0  0  0
   10.9337   -1.9403   23.3574 C   0  0  0  0  0  0  0  0  0  0  0  0
    9.8682   -1.0233   22.9482 N   0  0  0  0  0  0  0  0  0  0  0  0
    8.5881   -1.4620   23.5164 C   0  0  0  0  0  0  0  0  0  0  0  0
    7.4173   -1.3942   22.5452 C   0  0  0  0  0  0  0  0  0  0  0  0
    7.8518   -1.5148   21.0861 C   0  0  0  0  0  0  0  0  0  0  0  0
    6.6941   -1.3401   20.1240 C   0  0  0  0  0  0  0  0  0  0  0  0
    5.9761   -0.0909   20.3961 N   0  0  0  0  0  0  0  0  0  0  0  0
    5.4530   -0.0181   21.7555 C   0  0  0  0  0  0  0  0  0  0  0  0
    6.5984   -0.1243   22.7379 C   0  0  0  0  0  0  0  0  0  0  0  0
    5.7046    0.8739   19.4917 C   0  0  0  0  0  0  0  0  0  0  0  0
    5.1048    1.8946   19.8049 O   0  0  0  0  0  0  0  0  0  0  0  0
    6.1656    0.6430   18.0651 C   0  0  0  0  0  0  0  0  0  0  0  0
    5.6001    1.9515   17.0185 Cl  0  0  0  0  0  0  0  0  0  0  0  0
   10.1804    0.3195   23.4396 C   0  0  0  0  0  0  0  0  0  0  0  0
   11.5626    0.7792   23.0744 C   0  0  0  0  0  0  0  0  0  0  0  0
   11.8745    2.1347   23.1136 C   0  0  0  0  0  0  0  0  0  0  0  0
  1  2  1  0
  2  3  2  0
  2  4  2  0
  2  5  1  0
  5  6  2  0
  6  7  1  0
  7  8  2  0
  8  9  1  0
  9 10  1  0
 10 11  1  0
 11 12  1  0
 12 13  1  0
 13 14  1  0
 14 15  1  0
 15 16  1  0
 16 17  1  0
 17 18  1  0
 16 19  1  0
 19 20  2  0
 19 21  1  0
 21 22  1  0
 11 23  1  0
 23 24  1  0
 24 25  2  0
 25  5  1  0
 24  8  1  0
 18 13  1  0
M  END
