CVD-0000736|dock_bobby27042020.26|mol2|22|dock3
     RDKit          3D

 22 24  0  0  0  0  0  0  0  0999 V2000
    9.6353   -0.9942   21.0671 N   0  0  0  0  0  0  0  0  0  0  0  0
    9.4529   -1.7147   22.1620 C   0  0  0  0  0  0  0  0  0  0  0  0
   10.0019   -2.8060   22.3296 O   0  0  0  0  0  0  0  0  0  0  0  0
    8.5262   -1.1063   23.1977 C   0  0  0  0  0  0  0  0  0  0  0  0
    7.9901   -2.1750   24.1226 C   0  0  0  0  0  0  0  0  0  0  0  0
    8.2747   -1.6447   25.5075 C   0  0  0  0  0  0  0  0  0  0  0  0
    7.9546   -2.4328   26.7554 C   0  0  0  0  0  0  0  0  0  0  0  0
    8.4238   -3.8691   26.6983 C   0  0  0  0  0  0  0  0  0  0  0  0
    9.5879   -4.2078   26.0261 C   0  0  0  0  0  0  0  0  0  0  0  0
   10.0162   -5.5237   25.9708 C   0  0  0  0  0  0  0  0  0  0  0  0
    9.2846   -6.5161   26.5869 C   0  0  0  0  0  0  0  0  0  0  0  0
    8.1247   -6.1929   27.2576 C   0  0  0  0  0  0  0  0  0  0  0  0
    7.6967   -4.8769   27.3125 C   0  0  0  0  0  0  0  0  0  0  0  0
    8.8344   -0.4298   25.4638 C   0  0  0  0  0  0  0  0  0  0  0  0
    9.0842    0.0157   24.0430 C   0  0  0  0  0  0  0  0  0  0  0  0
   10.5568    0.2899   23.7781 C   0  0  0  0  0  0  0  0  0  0  0  0
   10.9492    1.3793   23.0129 C   0  0  0  0  0  0  0  0  0  0  0  0
   12.2898    1.6308   22.7742 C   0  0  0  0  0  0  0  0  0  0  0  0
   13.2597    0.7940   23.2999 C   0  0  0  0  0  0  0  0  0  0  0  0
   12.8635   -0.2848   24.0594 C   0  0  0  0  0  0  0  0  0  0  0  0
   14.0721   -1.3456   24.7277 Cl  0  0  0  0  0  0  0  0  0  0  0  0
   11.5307   -0.5458   24.3044 C   0  0  0  0  0  0  0  0  0  0  0  0
  1  2  1  0
  2  3  2  0
  4  2  1  0
  4  5  1  0
  5  6  1  0
  6  7  1  0
  7  8  1  0
  8  9  2  0
  9 10  1  0
 10 11  2  0
 11 12  1  0
 12 13  2  0
  6 14  2  0
 14 15  1  0
 15 16  1  0
 16 17  2  0
 17 18  1  0
 18 19  2  0
 19 20  1  0
 20 21  1  0
 20 22  2  0
 15  4  1  0
 22 16  1  0
 13  8  1  0
M  END
