CVD-0004053|dock_bobby27042020.57|mol2|37|dock2
     RDKit          3D

 23 26  0  0  0  0  0  0  0  0999 V2000
    6.0616   -1.5347   20.3812 C   0  0  0  0  0  0  0  0  0  0  0  0
    7.4271   -1.1394   20.8884 C   0  0  0  0  0  0  0  0  0  0  0  0
    8.3484   -2.1016   21.2765 C   0  0  0  0  0  0  0  0  0  0  0  0
    9.6078   -1.7644   21.7431 C   0  0  0  0  0  0  0  0  0  0  0  0
    9.9561   -0.4189   21.8172 C   0  0  0  0  0  0  0  0  0  0  0  0
   11.1134    0.2584   22.2351 N   0  0  0  0  0  0  0  0  0  0  0  0
   10.8428    1.6143   22.0525 C   0  0  0  0  0  0  0  0  0  0  0  0
    9.6207    1.8259   21.5959 N   0  0  0  0  0  0  0  0  0  0  0  0
    9.0531    0.5693   21.4342 C   0  0  0  0  0  0  0  0  0  0  0  0
    7.7930    0.1957   20.9725 C   0  0  0  0  0  0  0  0  0  0  0  0
   11.7239    2.7740   22.2947 C   0  0  0  0  0  0  0  0  0  0  0  0
   11.1474    4.0171   22.5341 C   0  0  0  0  0  0  0  0  0  0  0  0
   11.9260    5.1340   22.7797 C   0  0  0  0  0  0  0  0  0  0  0  0
   13.2861    4.9910   22.7781 C   0  0  0  0  0  0  0  0  0  0  0  0
   14.0573    6.0826   23.0311 F   0  0  0  0  0  0  0  0  0  0  0  0
   13.9021    3.7952   22.5313 C   0  0  0  0  0  0  0  0  0  0  0  0
   13.1128    2.6878   22.2760 C   0  0  0  0  0  0  0  0  0  0  0  0
   12.2830   -0.4073   22.7622 C   0  0  0  0  0  0  0  0  0  0  0  0
   12.8668   -0.0092   23.9568 C   0  0  0  0  0  0  0  0  0  0  0  0
   13.9760   -0.6901   24.4180 C   0  0  0  0  0  0  0  0  0  0  0  0
   14.5304   -1.7224   23.7822 N   0  0  0  0  0  0  0  0  0  0  0  0
   13.9598   -2.0981   22.6376 C   0  0  0  0  0  0  0  0  0  0  0  0
   12.8505   -1.4822   22.0926 C   0  0  0  0  0  0  0  0  0  0  0  0
  1  2  1  0
  2  3  2  0
  3  4  1  0
  4  5  2  0
  5  6  1  0
  6  7  1  0
  7  8  2  0
  8  9  1  0
  9 10  2  0
  7 11  1  0
 11 12  2  0
 12 13  1  0
 13 14  2  0
 14 15  1  0
 14 16  1  0
 16 17  2  0
  6 18  1  0
 18 19  2  0
 19 20  1  0
 20 21  2  0
 21 22  1  0
 22 23  2  0
 10  2  1  0
 17 11  1  0
 23 18  1  0
  9  5  1  0
M  END
