CVD-0002295|dock_bobby27042020.20|mol2|32|dock2
     RDKit          3D

 40 43  0  0  0  0  0  0  0  0999 V2000
    5.5384   -0.0890   19.0024 C   0  0  0  0  0  0  0  0  0  0  0  0
    5.9612   -0.0985   20.4053 N   0  0  0  0  0  0  0  0  0  0  0  0
    6.9283   -1.1490   20.7408 C   0  0  0  0  0  0  0  0  0  0  0  0
    7.1257   -1.2696   22.2290 C   0  0  0  0  0  0  0  0  0  0  0  0
    6.5662   -2.2733   23.0423 C   0  0  0  0  0  0  0  0  0  0  0  0
    6.9583   -2.0758   24.3517 C   0  0  0  0  0  0  0  0  0  0  0  0
    6.6080   -2.8811   25.5510 C   0  0  0  0  0  0  0  0  0  0  0  0
    5.8634   -2.2885   26.5593 C   0  0  0  0  0  0  0  0  0  0  0  0
    5.3902   -1.0418   26.3321 F   0  0  0  0  0  0  0  0  0  0  0  0
    5.5848   -2.8739   27.7678 C   0  0  0  0  0  0  0  0  0  0  0  0
    6.0779   -4.1422   28.0028 C   0  0  0  0  0  0  0  0  0  0  0  0
    6.7694   -4.8214   27.0147 C   0  0  0  0  0  0  0  0  0  0  0  0
    6.9829   -4.2348   25.7656 C   0  0  0  0  0  0  0  0  0  0  0  0
    7.5562   -5.0672   24.7318 N   0  0  0  0  0  0  0  0  0  0  0  0
    9.0397   -5.0058   24.6036 C   0  0  0  0  0  0  0  0  0  0  0  0
    9.5681   -3.7530   23.9146 C   0  0  0  0  0  0  0  0  0  0  0  0
    9.7550   -5.2918   25.9164 C   0  0  0  0  0  0  0  0  0  0  0  0
    6.7485   -5.7815   23.8729 C   0  0  0  0  0  0  0  0  0  0  0  0
    7.2185   -6.3562   22.9087 O   0  0  0  0  0  0  0  0  0  0  0  0
    5.2468   -5.9035   24.0534 C   0  0  0  0  0  0  0  0  0  0  0  0
    4.5507   -6.0914   22.7111 C   0  0  0  0  0  0  0  0  0  0  0  0
    3.0567   -6.2512   22.9038 C   0  0  0  0  0  0  0  0  0  0  0  0
    2.7860   -7.3803   23.7896 N   0  0  0  0  0  0  0  0  0  0  0  0
    3.3891   -7.2198   25.1083 C   0  0  0  0  0  0  0  0  0  0  0  0
    4.9011   -7.0706   24.9754 C   0  0  0  0  0  0  0  0  0  0  0  0
    1.8631   -8.3430   23.5789 C   0  0  0  0  0  0  0  0  0  0  0  0
    1.7108   -9.2684   24.3665 O   0  0  0  0  0  0  0  0  0  0  0  0
    1.0117   -8.2332   22.3283 C   0  0  0  0  0  0  0  0  0  0  0  0
    1.9226   -8.6109   20.8602 Cl  0  0  0  0  0  0  0  0  0  0  0  0
    7.7651   -0.9106   24.3578 N   0  0  0  0  0  0  0  0  0  0  0  0
    7.8625   -0.4322   23.0571 C   0  0  0  0  0  0  0  0  0  0  0  0
    8.5467   -0.1175   25.6361 S   0  0  0  0  0  0  0  0  0  0  0  0
    7.6037    0.8086   26.1790 O   0  0  0  0  0  0  0  0  0  0  0  0
    9.0835   -1.1539   26.4622 O   0  0  0  0  0  0  0  0  0  0  0  0
    9.8930    0.7718   24.9335 C   0  0  0  0  0  0  0  0  0  0  0  0
    9.7612    2.1158   24.6286 C   0  0  0  0  0  0  0  0  0  0  0  0
   10.8441    2.7758   24.0739 C   0  0  0  0  0  0  0  0  0  0  0  0
   12.0046    2.0708   23.8477 C   0  0  0  0  0  0  0  0  0  0  0  0
   12.1452    0.7759   24.1352 N   0  0  0  0  0  0  0  0  0  0  0  0
   11.0961    0.1448   24.6702 C   0  0  0  0  0  0  0  0  0  0  0  0
  1  2  1  0
  2  3  1  0
  3  4  1  0
  4  5  1  0
  5  6  2  0
  6  7  1  0
  7  8  2  0
  8  9  1  0
  8 10  1  0
 10 11  2  0
 11 12  1  0
 12 13  2  0
 13 14  1  0
 14 15  1  0
 15 16  1  0
 15 17  1  0
 14 18  1  0
 18 19  2  0
 18 20  1  0
 20 21  1  0
 21 22  1  0
 22 23  1  0
 23 24  1  0
 24 25  1  0
 23 26  1  0
 26 27  2  0
 26 28  1  0
 28 29  1  0
  6 30  1  0
 30 31  1  0
 30 32  1  0
 32 33  2  0
 32 34  2  0
 32 35  1  0
 35 36  2  0
 36 37  1  0
 37 38  2  0
 38 39  1  0
 39 40  2  0
 31  4  2  0
 40 35  1  0
 13  7  1  0
 25 20  1  0
M  END
