CVD-0002327|dock_bobby27042020.63|mol2|37|dock3
     RDKit          3D

 33 36  0  0  0  0  0  0  0  0999 V2000
    3.8695   -4.6774   22.9561 C   0  0  0  0  0  0  0  0  0  0  0  0
    5.1155   -4.1922   22.2752 C   0  0  0  0  0  0  0  0  0  0  0  0
    5.3584   -4.4835   21.1095 O   0  0  0  0  0  0  0  0  0  0  0  0
    5.9613   -3.4072   22.9866 N   0  0  0  0  0  0  0  0  0  0  0  0
    5.7916   -2.9928   24.3827 C   0  0  0  0  0  0  0  0  0  0  0  0
    7.0743   -3.1757   25.1516 C   0  0  0  0  0  0  0  0  0  0  0  0
    8.1758   -2.4341   24.5163 N   0  0  0  0  0  0  0  0  0  0  0  0
    8.3419   -2.9562   23.1590 C   0  0  0  0  0  0  0  0  0  0  0  0
    7.0915   -2.7439   22.3392 C   0  0  0  0  0  0  0  0  0  0  0  0
    9.4140   -2.5675   25.2822 C   0  0  0  0  0  0  0  0  0  0  0  0
   10.6601   -2.1531   24.4836 C   0  0  0  0  0  0  0  0  0  0  0  0
   11.4513   -2.9880   24.0906 O   0  0  0  0  0  0  0  0  0  0  0  0
   10.8536   -0.8401   24.2343 N   0  0  0  0  0  0  0  0  0  0  0  0
   12.0054   -0.4024   23.4630 C   0  0  0  0  0  0  0  0  0  0  0  0
   11.5787    0.4810   22.3330 C   0  0  0  0  0  0  0  0  0  0  0  0
   10.7975    1.6036   22.8712 N   0  0  0  0  0  0  0  0  0  0  0  0
    9.5938    1.1415   23.5782 C   0  0  0  0  0  0  0  0  0  0  0  0
   10.0049    0.2543   24.7157 C   0  0  0  0  0  0  0  0  0  0  0  0
   10.6860    2.9431   21.9486 S   0  0  0  0  0  0  0  0  0  0  0  0
    9.5100    3.6339   22.3782 O   0  0  0  0  0  0  0  0  0  0  0  0
   10.8021    2.5107   20.5906 O   0  0  0  0  0  0  0  0  0  0  0  0
   12.0783    3.9522   22.3216 C   0  0  0  0  0  0  0  0  0  0  0  0
   12.2587    4.4197   23.6134 C   0  0  0  0  0  0  0  0  0  0  0  0
   13.3543    5.2174   23.8988 C   0  0  0  0  0  0  0  0  0  0  0  0
   14.2604    5.5468   22.9051 C   0  0  0  0  0  0  0  0  0  0  0  0
   14.0414    5.0646   21.6436 C   0  0  0  0  0  0  0  0  0  0  0  0
   14.9292    5.3867   20.6644 F   0  0  0  0  0  0  0  0  0  0  0  0
   12.9715    4.2708   21.3098 C   0  0  0  0  0  0  0  0  0  0  0  0
    9.6166   -3.9608   25.8285 C   0  0  0  0  0  0  0  0  0  0  0  0
    9.2646   -4.4268   27.0898 C   0  0  0  0  0  0  0  0  0  0  0  0
    9.6124   -5.7910   27.2413 C   0  0  0  0  0  0  0  0  0  0  0  0
   10.1946   -6.3210   26.1522 C   0  0  0  0  0  0  0  0  0  0  0  0
   10.3474   -5.1836   24.8888 S   0  0  0  0  0  0  0  0  0  0  0  0
  1  2  1  0
  2  3  2  0
  2  4  1  0
  4  5  1  0
  5  6  1  0
  6  7  1  0
  7  8  1  0
  8  9  1  0
  7 10  1  0
 10 11  1  0
 11 12  2  0
 11 13  1  0
 13 14  1  0
 14 15  1  0
 15 16  1  0
 16 17  1  0
 17 18  1  0
 16 19  1  0
 19 20  2  0
 19 21  2  0
 19 22  1  0
 22 23  2  0
 23 24  1  0
 24 25  2  0
 25 26  1  0
 26 27  1  0
 26 28  2  0
 10 29  1  0
 29 30  2  0
 30 31  1  0
 31 32  2  0
 32 33  1  0
  9  4  1  0
 18 13  1  0
 28 22  1  0
 33 29  1  0
M  END
