CVD-0002107|dock_bobby27042020.7|mol2|21|dock1
     RDKit          3D

 19 21  0  0  0  0  0  0  0  0999 V2000
   12.9834    0.3753   22.8886 C   0  0  0  0  0  0  0  0  0  0  0  0
   12.0426    1.3847   23.2621 O   0  0  0  0  0  0  0  0  0  0  0  0
   12.4266    2.6694   23.0668 C   0  0  0  0  0  0  0  0  0  0  0  0
   11.4914    3.6464   23.4018 C   0  0  0  0  0  0  0  0  0  0  0  0
   11.8646    4.9651   23.2096 C   0  0  0  0  0  0  0  0  0  0  0  0
   13.1148    5.2527   22.7071 C   0  0  0  0  0  0  0  0  0  0  0  0
   13.9549    4.2030   22.4119 C   0  0  0  0  0  0  0  0  0  0  0  0
   13.6303    2.9144   22.5840 N   0  0  0  0  0  0  0  0  0  0  0  0
   12.4922   -0.9713   23.4227 C   0  0  0  0  0  0  0  0  0  0  0  0
   13.5525   -2.0830   23.1792 C   0  0  0  0  0  0  0  0  0  0  0  0
   14.1649   -2.3944   24.5060 C   0  0  0  0  0  0  0  0  0  0  0  0
   13.4266   -1.6707   25.5320 C   0  0  0  0  0  0  0  0  0  0  0  0
   12.3223   -0.8834   24.9561 C   0  0  0  0  0  0  0  0  0  0  0  0
   11.1748   -1.2223   22.7408 C   0  0  0  0  0  0  0  0  0  0  0  0
   10.4654   -2.3961   22.9394 C   0  0  0  0  0  0  0  0  0  0  0  0
    9.2582   -2.5570   22.2815 C   0  0  0  0  0  0  0  0  0  0  0  0
    8.7951   -1.5570   21.4544 C   0  0  0  0  0  0  0  0  0  0  0  0
    9.5644   -0.4243   21.3165 C   0  0  0  0  0  0  0  0  0  0  0  0
   10.7353   -0.2434   21.9416 N   0  0  0  0  0  0  0  0  0  0  0  0
  1  2  1  0
  2  3  1  0
  3  4  2  0
  4  5  1  0
  5  6  2  0
  6  7  1  0
  7  8  2  0
  1  9  1  0
  9 10  1  0
 10 11  1  0
 11 12  1  0
 12 13  1  0
  9 14  1  0
 14 15  2  0
 15 16  1  0
 16 17  2  0
 17 18  1  0
 18 19  2  0
  8  3  1  0
 13  9  1  0
 19 14  1  0
M  END
