CVD-0002118|dock_bobby27042020.50|mol2|13|dock1
     RDKit          3D

 13 14  0  0  0  0  0  0  0  0999 V2000
   13.1488   -2.3785   23.0286 O   0  0  0  0  0  0  0  0  0  0  0  0
   13.4681   -1.1646   23.7302 S   0  0  0  0  0  0  0  0  0  0  0  0
   14.4927   -1.2081   24.7383 O   0  0  0  0  0  0  0  0  0  0  0  0
   13.6939    0.2420   22.5596 C   0  0  0  0  0  0  0  0  0  0  0  0
   12.3621    0.8728   23.1527 C   0  0  0  0  0  0  0  0  0  0  0  0
   11.9834   -0.2006   24.2048 C   0  0  0  0  0  0  0  0  0  0  0  0
   12.5462    2.1646   23.7818 O   0  0  0  0  0  0  0  0  0  0  0  0
   12.8435    3.2437   23.0108 C   0  0  0  0  0  0  0  0  0  0  0  0
   12.9927    4.4521   23.6881 C   0  0  0  0  0  0  0  0  0  0  0  0
   13.2961    5.5654   22.9243 C   0  0  0  0  0  0  0  0  0  0  0  0
   13.4351    5.4375   21.5594 C   0  0  0  0  0  0  0  0  0  0  0  0
   13.2646    4.1908   21.0012 C   0  0  0  0  0  0  0  0  0  0  0  0
   12.9706    3.0897   21.7060 N   0  0  0  0  0  0  0  0  0  0  0  0
  1  2  2  0
  2  3  2  0
  2  4  1  0
  4  5  1  0
  5  6  1  0
  5  7  1  0
  7  8  1  0
  8  9  2  0
  9 10  1  0
 10 11  2  0
 11 12  1  0
 12 13  2  0
  6  2  1  0
 13  8  1  0
M  END
