CVD-0000109|dock_bobby27042020.14|mol2|11|dock3
     RDKit          3D

 18 20  0  0  0  0  0  0  0  0999 V2000
    5.3913    0.2398   17.7170 O   0  0  0  0  0  0  0  0  0  0  0  0
    6.3377    0.0735   18.6771 C   0  0  0  0  0  0  0  0  0  0  0  0
    7.2307   -0.9860   18.6178 C   0  0  0  0  0  0  0  0  0  0  0  0
    8.1985   -1.1413   19.5957 C   0  0  0  0  0  0  0  0  0  0  0  0
    8.2937   -0.2513   20.6653 C   0  0  0  0  0  0  0  0  0  0  0  0
    7.3785    0.8001   20.7180 C   0  0  0  0  0  0  0  0  0  0  0  0
    6.4178    0.9736   19.7367 C   0  0  0  0  0  0  0  0  0  0  0  0
    5.5469    2.0143   19.7964 O   0  0  0  0  0  0  0  0  0  0  0  0
    9.3026   -0.4277   21.6730 N   0  0  0  0  0  0  0  0  0  0  0  0
    9.8941    1.1041   22.6122 Se  0  0  0  0  0  2  0  0  0  0  0  0
   11.4959    0.0260   22.7274 C   0  0  0  0  0  0  0  0  0  0  0  0
   12.6996    0.4208   23.5465 C   0  0  0  0  0  0  0  0  0  0  0  0
   13.4851   -0.5247   24.0608 C   0  0  0  0  0  0  0  0  0  0  0  0
   13.1974   -1.8932   23.8669 C   0  0  0  0  0  0  0  0  0  0  0  0
   12.0024   -2.3005   23.4349 C   0  0  0  0  0  0  0  0  0  0  0  0
   10.9034   -1.3112   23.1591 C   0  0  0  0  0  0  0  0  0  0  0  0
    9.9229   -1.5983   22.0353 C   0  0  0  0  0  0  0  0  0  0  0  0
    9.7221   -2.6977   21.5567 O   0  0  0  0  0  0  0  0  0  0  0  0
  1  2  1  0
  2  3  2  0
  3  4  1  0
  4  5  2  0
  5  6  1  0
  6  7  2  0
  7  8  1  0
  5  9  1  0
  9 10  1  0
 10 11  1  0
 11 12  1  0
 12 13  2  0
 13 14  1  0
 14 15  2  0
 15 16  1  0
 16 17  1  0
 17 18  2  0
  7  2  1  0
 17  9  1  0
 16 11  1  0
M  END
