CVD-0002139|dock_bobby27042020.7|mol2|15|dock3
     RDKit          3D

 22 24  0  0  0  0  0  0  0  0999 V2000
   10.6894    0.7466   22.2053 N   0  0  0  0  0  0  0  0  0  0  0  0
   10.9157   -0.6090   22.7541 C   0  0  0  0  0  0  0  0  0  0  0  0
   10.1271   -1.6815   22.0157 C   0  0  0  0  0  0  0  0  0  0  0  0
    8.8595   -1.1172   21.6691 O   0  0  0  0  0  0  0  0  0  0  0  0
    8.0396   -2.0695   20.9755 C   0  0  0  0  0  0  0  0  0  0  0  0
    7.6364   -3.1814   21.9055 C   0  0  0  0  0  0  0  0  0  0  0  0
    8.7529   -3.6356   22.8090 C   0  0  0  0  0  0  0  0  0  0  0  0
    8.6126   -4.7728   23.6205 C   0  0  0  0  0  0  0  0  0  0  0  0
    7.4820   -5.5441   23.6015 O   0  0  0  0  0  0  0  0  0  0  0  0
    9.6766   -5.2126   24.4079 C   0  0  0  0  0  0  0  0  0  0  0  0
    9.5331   -6.3479   25.1395 O   0  0  0  0  0  0  0  0  0  0  0  0
   10.8853   -4.5313   24.3981 C   0  0  0  0  0  0  0  0  0  0  0  0
   11.0208   -3.4123   23.5985 C   0  0  0  0  0  0  0  0  0  0  0  0
    9.9649   -2.9605   22.8053 C   0  0  0  0  0  0  0  0  0  0  0  0
    6.8499   -1.3069   20.4161 C   0  0  0  0  0  0  0  0  0  0  0  0
    6.3885   -0.1850   21.3370 C   0  0  0  0  0  0  0  0  0  0  0  0
    5.1664    0.5358   20.7835 C   0  0  0  0  0  0  0  0  0  0  0  0
    5.4124    1.0401   19.3695 C   0  0  0  0  0  0  0  0  0  0  0  0
    5.8628   -0.0770   18.4360 C   0  0  0  0  0  0  0  0  0  0  0  0
    6.0586    0.3813   17.0975 O   0  0  0  0  0  0  0  0  0  0  0  0
    7.1102   -0.7893   18.9948 C   0  0  0  0  0  0  0  0  0  0  0  0
    8.2078    0.1182   19.0267 O   0  0  0  0  0  0  0  0  0  0  0  0
  1  2  1  0
  2  3  1  0
  3  4  1  0
  4  5  1  0
  5  6  1  0
  6  7  1  0
  7  8  2  0
  8  9  1  0
  8 10  1  0
 10 11  1  0
 10 12  2  0
 12 13  1  0
 13 14  2  0
  5 15  1  0
 15 16  1  0
 16 17  1  0
 17 18  1  0
 18 19  1  0
 19 20  1  0
 19 21  1  0
 21 22  1  0
 14  3  1  0
 21 15  1  0
 14  7  1  0
M  END
