CVD-0002223|dock_bobby27042020.21|mol2|9|dock1
     RDKit          3D

 17 18  0  0  0  0  0  0  0  0999 V2000
   13.7595   -2.8944   25.4528 C   0  0  0  0  0  0  0  0  0  0  0  0
   14.0646   -1.4823   25.0093 C   0  0  0  0  0  0  0  0  0  0  0  0
   12.8120   -0.6371   24.8429 C   0  0  0  0  0  0  0  0  0  0  0  0
   11.7281   -1.2305   23.9421 C   0  0  0  0  0  0  0  0  0  0  0  0
   10.5101   -0.3405   23.9712 C   0  0  0  0  0  0  0  0  0  0  0  0
    9.4122   -0.8958   23.0708 C   0  0  0  0  0  0  0  0  0  0  0  0
    9.9286   -1.0669   21.6668 C   0  0  0  0  0  0  0  0  0  0  0  0
   11.1466   -1.9569   21.6377 C   0  0  0  0  0  0  0  0  0  0  0  0
   12.2446   -1.4017   22.5381 C   0  0  0  0  0  0  0  0  0  0  0  0
    8.9010   -1.6297   20.8128 O   0  0  0  0  0  0  0  0  0  0  0  0
    7.8183   -0.8845   20.3945 C   0  0  0  0  0  0  0  0  0  0  0  0
    6.6903   -0.7398   21.1865 C   0  0  0  0  0  0  0  0  0  0  0  0
    5.6245    0.0161   20.7310 C   0  0  0  0  0  0  0  0  0  0  0  0
    5.6527    0.6350   19.4917 C   0  0  0  0  0  0  0  0  0  0  0  0
    4.4857    1.4603   19.0071 C   0  0  0  0  0  0  0  0  0  0  0  0
    6.7880    0.4767   18.7139 C   0  0  0  0  0  0  0  0  0  0  0  0
    7.8635   -0.2744   19.1529 C   0  0  0  0  0  0  0  0  0  0  0  0
  1  2  1  0
  2  3  1  0
  3  4  1  0
  4  5  1  0
  5  6  1  0
  6  7  1  0
  7  8  1  0
  8  9  1  0
  7 10  1  0
 10 11  1  0
 11 12  2  0
 12 13  1  0
 13 14  2  0
 14 15  1  0
 14 16  1  0
 16 17  2  0
  9  4  1  0
 17 11  1  0
M  END
