CVD-0000101|dock_bobby27042020.28|mol2|26|dock2
     RDKit          3D

 26 27  0  0  0  0  0  0  0  0999 V2000
    3.0208   -6.0526   22.7649 C   0  0  0  0  0  0  0  0  0  0  0  0
    4.4075   -6.6529   22.8181 C   0  0  0  0  0  0  0  0  0  0  0  0
    5.4200   -5.7660   23.5150 C   0  0  0  0  0  0  0  0  0  0  0  0
    5.7157   -4.4528   22.8529 C   0  0  0  0  0  0  0  0  0  0  0  0
    6.9090   -4.0912   22.4065 C   0  0  0  0  0  0  0  0  0  0  0  0
    7.1628   -2.8616   21.7938 N   0  0  0  0  0  0  0  0  0  0  0  0
    6.6357   -2.5731   20.5658 C   0  0  0  0  0  0  0  0  0  0  0  0
    5.9629   -3.3911   19.9503 O   0  0  0  0  0  0  0  0  0  0  0  0
    6.8691   -1.3446   20.0209 N   0  0  0  0  0  0  0  0  0  0  0  0
    7.6486   -0.3034   20.6953 C   0  0  0  0  0  0  0  0  0  0  0  0
    9.0137   -0.6712   20.9764 N   0  0  0  0  0  0  0  0  0  0  0  0
    9.5984   -0.3773   22.1374 C   0  0  0  0  0  0  0  0  0  0  0  0
    9.0187    0.2254   23.0370 O   0  0  0  0  0  0  0  0  0  0  0  0
   11.0339   -0.8348   22.2830 C   0  0  0  0  0  0  0  0  0  0  0  0
   11.8360    0.1807   23.0630 C   0  0  0  0  0  0  0  0  0  0  0  0
   13.2615   -0.3089   23.2963 C   0  0  0  0  0  0  0  0  0  0  0  0
   13.2772   -1.6512   23.9800 C   0  0  0  0  0  0  0  0  0  0  0  0
   12.4599   -2.6660   23.2160 C   0  0  0  0  0  0  0  0  0  0  0  0
   11.0366   -2.1810   22.9761 C   0  0  0  0  0  0  0  0  0  0  0  0
    6.3866   -0.9401   18.7106 C   0  0  0  0  0  0  0  0  0  0  0  0
    5.4290    0.2069   18.7830 C   0  0  0  0  0  0  0  0  0  0  0  0
    4.5840    0.5609   19.8399 C   0  0  0  0  0  0  0  0  0  0  0  0
    3.9300    1.6520   19.4254 C   0  0  0  0  0  0  0  0  0  0  0  0
    2.8949    2.5434   20.0292 C   0  0  0  0  0  0  0  0  0  0  0  0
    4.3344    1.9720   18.1812 O   0  0  0  0  0  0  0  0  0  0  0  0
    5.3074    1.0240   17.7795 N   0  0  0  0  0  0  0  0  0  0  0  0
  1  2  1  0
  2  3  1  0
  3  4  1  0
  4  5  2  0
  5  6  1  0
  6  7  1  0
  7  8  2  0
  7  9  1  0
  9 10  1  0
 10 11  1  0
 11 12  1  0
 12 13  2  0
 12 14  1  0
 14 15  1  0
 15 16  1  0
 16 17  1  0
 17 18  1  0
 18 19  1  0
  9 20  1  0
 20 21  1  0
 21 22  1  0
 22 23  2  0
 23 24  1  0
 23 25  1  0
 25 26  1  0
 19 14  1  0
 26 21  2  0
M  END
