CVD-0000999|dock_bobby27042020.96|mol2|40|dock3
     RDKit          3D

 21 23  0  0  0  0  0  0  0  0999 V2000
   14.5278   -3.2724   23.8646 F   0  0  0  0  0  0  0  0  0  0  0  0
   13.3932   -2.6671   23.4210 C   0  0  0  0  0  0  0  0  0  0  0  0
   12.3826   -2.4341   24.3117 C   0  0  0  0  0  0  0  0  0  0  0  0
   11.2322   -1.8181   23.8527 C   0  0  0  0  0  0  0  0  0  0  0  0
   11.0945   -1.4404   22.5207 C   0  0  0  0  0  0  0  0  0  0  0  0
   12.1541   -1.7004   21.6526 C   0  0  0  0  0  0  0  0  0  0  0  0
   13.3092   -2.3161   22.1022 C   0  0  0  0  0  0  0  0  0  0  0  0
    9.8144   -0.7758   22.0972 C   0  0  0  0  0  0  0  0  0  0  0  0
    9.1671   -0.1709   22.9472 O   0  0  0  0  0  0  0  0  0  0  0  0
    9.4143   -0.8680   20.7777 N   0  0  0  0  0  0  0  0  0  0  0  0
    8.2704   -0.3109   20.2348 C   0  0  0  0  0  0  0  0  0  0  0  0
    8.0508   -0.2377   18.9467 N   0  0  0  0  0  0  0  0  0  0  0  0
    6.8297    0.3651   18.6534 N   0  0  0  0  0  0  0  0  0  0  0  0
    6.1823    0.7199   19.7307 C   0  0  0  0  0  0  0  0  0  0  0  0
    7.0020    0.3518   21.2115 S   0  0  0  0  0  0  0  0  0  0  0  0
    4.8893    1.3668   19.7195 C   0  0  0  0  0  0  0  0  0  0  0  0
    4.3100    2.1320   18.7323 C   0  0  0  0  0  0  0  0  0  0  0  0
    3.0413    2.6006   19.0652 C   0  0  0  0  0  0  0  0  0  0  0  0
    2.6592    2.1966   20.2916 C   0  0  0  0  0  0  0  0  0  0  0  0
    1.0424    2.5827   21.1517 Br  0  0  0  0  0  0  0  0  0  0  0  0
    3.8334    1.2299   21.0854 S   0  0  0  0  0  0  0  0  0  0  0  0
  1  2  1  0
  2  3  2  0
  3  4  1  0
  4  5  2  0
  5  6  1  0
  6  7  2  0
  5  8  1  0
  8  9  2  0
  8 10  1  0
 10 11  1  0
 11 12  2  0
 12 13  1  0
 13 14  2  0
 14 15  1  0
 14 16  1  0
 16 17  2  0
 17 18  1  0
 18 19  2  0
 19 20  1  0
 19 21  1  0
  7  2  1  0
 15 11  1  0
 21 16  1  0
M  END
