CVD-0001346|dock_bobby27042020.81|mol2|23|dock1
     RDKit          3D

 27 29  0  0  0  0  0  0  0  0999 V2000
    9.2426   -0.3796   21.3651 C   0  0  0  0  0  0  0  0  0  0  0  0
   10.0264   -0.3459   22.5971 N   0  0  0  0  0  0  0  0  0  0  0  0
   10.1314   -1.6132   23.3742 C   0  0  0  0  0  0  0  0  0  0  0  0
   11.5898   -2.0273   23.6184 C   0  0  0  0  0  0  0  0  0  0  0  0
   12.5533   -1.4680   22.5836 C   0  0  0  0  0  0  0  0  0  0  0  0
   12.4159    0.0298   22.5716 C   0  0  0  0  0  0  0  0  0  0  0  0
   13.5006    0.8982   22.6117 C   0  0  0  0  0  0  0  0  0  0  0  0
   13.3177    2.2641   22.6993 C   0  0  0  0  0  0  0  0  0  0  0  0
   12.0290    2.7672   22.7476 C   0  0  0  0  0  0  0  0  0  0  0  0
   10.9224    1.9297   22.7097 C   0  0  0  0  0  0  0  0  0  0  0  0
   11.1236    0.5538   22.6211 C   0  0  0  0  0  0  0  0  0  0  0  0
   11.7770    4.5160   22.7885 S   0  0  0  0  0  0  0  0  0  0  0  0
   12.4663    5.1583   21.4941 N   0  0  0  0  0  0  0  0  0  0  0  0
   10.3682    4.7478   22.6772 O   0  0  0  0  0  0  0  0  0  0  0  0
   12.4729    5.0216   23.9336 O   0  0  0  0  0  0  0  0  0  0  0  0
    9.4074   -1.4651   24.7186 C   0  0  0  0  0  0  0  0  0  0  0  0
    9.1792   -0.3633   25.1829 O   0  0  0  0  0  0  0  0  0  0  0  0
    9.0402   -2.5797   25.3839 N   0  0  0  0  0  0  0  0  0  0  0  0
    9.3634   -3.9500   24.9906 C   0  0  0  0  0  0  0  0  0  0  0  0
    8.1035   -4.7862   24.9199 C   0  0  0  0  0  0  0  0  0  0  0  0
    7.3763   -4.7075   26.1850 N   0  0  0  0  0  0  0  0  0  0  0  0
    7.0532   -3.3371   26.5782 C   0  0  0  0  0  0  0  0  0  0  0  0
    8.3130   -2.5010   26.6489 C   0  0  0  0  0  0  0  0  0  0  0  0
    7.0094   -5.8214   26.8499 C   0  0  0  0  0  0  0  0  0  0  0  0
    7.2674   -6.9421   26.4293 O   0  0  0  0  0  0  0  0  0  0  0  0
    6.2526   -5.6150   28.1474 C   0  0  0  0  0  0  0  0  0  0  0  0
    5.8374   -7.1590   28.9029 Cl  0  0  0  0  0  0  0  0  0  0  0  0
  1  2  1  0
  2  3  1  0
  3  4  1  0
  4  5  1  0
  5  6  1  0
  6  7  2  0
  7  8  1  0
  8  9  2  0
  9 10  1  0
 10 11  2  0
  9 12  1  0
 12 13  1  0
 12 14  2  0
 12 15  2  0
  3 16  1  0
 16 17  2  0
 16 18  1  0
 18 19  1  0
 19 20  1  0
 20 21  1  0
 21 22  1  0
 22 23  1  0
 21 24  1  0
 24 25  2  0
 24 26  1  0
 26 27  1  0
 11  2  1  0
 23 18  1  0
 11  6  1  0
M  END
