CVD-0000838|dock_bobby27042020.11|mol2|36|dock3
     RDKit          3D

 22 24  0  0  0  0  0  0  0  0999 V2000
    5.0742    0.9834   19.0713 Cl  0  0  0  0  0  0  0  0  0  0  0  0
    5.8761   -0.3340   18.2057 C   0  0  0  0  0  0  0  0  0  0  0  0
    5.8083   -1.6186   19.0093 C   0  0  0  0  0  0  0  0  0  0  0  0
    5.1734   -2.5858   18.6079 O   0  0  0  0  0  0  0  0  0  0  0  0
    6.4820   -1.6507   20.1779 N   0  0  0  0  0  0  0  0  0  0  0  0
    6.5152   -2.8317   21.0434 C   0  0  0  0  0  0  0  0  0  0  0  0
    7.9486   -3.2256   21.3478 C   0  0  0  0  0  0  0  0  0  0  0  0
    8.6568   -2.1113   21.9844 N   0  0  0  0  0  0  0  0  0  0  0  0
   10.0343   -2.5008   22.3175 C   0  0  0  0  0  0  0  0  0  0  0  0
   10.7920   -1.4808   23.1418 C   0  0  0  0  0  0  0  0  0  0  0  0
   11.9594   -0.9155   22.6773 C   0  0  0  0  0  0  0  0  0  0  0  0
   12.6495    0.0074   23.4372 C   0  0  0  0  0  0  0  0  0  0  0  0
   14.1191    0.6881   22.7976 Cl  0  0  0  0  0  0  0  0  0  0  0  0
   12.2173    0.3999   24.6674 C   0  0  0  0  0  0  0  0  0  0  0  0
   11.0238   -0.1466   25.1918 C   0  0  0  0  0  0  0  0  0  0  0  0
   10.5294    0.2265   26.4645 C   0  0  0  0  0  0  0  0  0  0  0  0
    9.3747   -0.3129   26.9476 C   0  0  0  0  0  0  0  0  0  0  0  0
    8.6633   -1.2321   26.2058 C   0  0  0  0  0  0  0  0  0  0  0  0
    9.0996   -1.6222   24.9745 C   0  0  0  0  0  0  0  0  0  0  0  0
   10.2966   -1.0988   24.4197 C   0  0  0  0  0  0  0  0  0  0  0  0
    8.6542   -0.9653   21.0787 C   0  0  0  0  0  0  0  0  0  0  0  0
    7.2339   -0.5348   20.7603 C   0  0  0  0  0  0  0  0  0  0  0  0
  1  2  1  0
  2  3  1  0
  3  4  2  0
  3  5  1  0
  5  6  1  0
  6  7  1  0
  7  8  1  0
  8  9  1  0
  9 10  1  0
 10 11  2  0
 11 12  1  0
 12 13  1  0
 12 14  2  0
 14 15  1  0
 15 16  2  0
 16 17  1  0
 17 18  2  0
 18 19  1  0
 19 20  2  0
  8 21  1  0
 21 22  1  0
 22  5  1  0
 20 10  1  0
 20 15  1  0
M  END
