CVD-0000434|dock_bobby27042020.13|mol2|5|dock2
     RDKit          3D

 30 32  0  0  0  0  0  0  0  0999 V2000
   13.1862    5.2815   22.6178 C   0  0  0  0  0  0  0  0  0  0  0  0
   13.5037    3.8193   22.5837 C   0  0  0  0  0  0  0  0  0  0  0  0
   12.3216    3.0123   22.8363 N   0  0  0  0  0  0  0  0  0  0  0  0
   12.3535    1.6703   23.0633 C   0  0  0  0  0  0  0  0  0  0  0  0
   13.4973    0.9184   22.7980 C   0  0  0  0  0  0  0  0  0  0  0  0
   13.4550   -0.4394   23.0536 C   0  0  0  0  0  0  0  0  0  0  0  0
   12.2897   -0.9669   23.5532 C   0  0  0  0  0  0  0  0  0  0  0  0
   12.2273   -2.2934   23.8111 F   0  0  0  0  0  0  0  0  0  0  0  0
   11.1809   -0.1812   23.7993 C   0  0  0  0  0  0  0  0  0  0  0  0
    9.8894   -0.7347   24.3516 C   0  0  0  0  0  0  0  0  0  0  0  0
    8.9215   -1.3023   23.3299 C   0  0  0  0  0  0  0  0  0  0  0  0
    9.0857   -1.0069   21.9798 C   0  0  0  0  0  0  0  0  0  0  0  0
    8.2159   -1.5051   21.0127 C   0  0  0  0  0  0  0  0  0  0  0  0
    8.3839   -1.2071   19.6733 N   0  0  0  0  0  0  0  0  0  0  0  0
    7.3104   -0.7442   18.8148 C   0  0  0  0  0  0  0  0  0  0  0  0
    6.4121    0.2576   19.5139 C   0  0  0  0  0  0  0  0  0  0  0  0
    6.5679    0.4994   20.7062 O   0  0  0  0  0  0  0  0  0  0  0  0
    5.4818    0.8222   18.7069 N   0  0  0  0  0  0  0  0  0  0  0  0
    4.3803    1.6620   19.0042 C   0  0  0  0  0  0  0  0  0  0  0  0
    3.6314    1.5779   20.1737 C   0  0  0  0  0  0  0  0  0  0  0  0
    2.5714    2.4441   20.3747 C   0  0  0  0  0  0  0  0  0  0  0  0
    2.3265    3.3526   19.3749 C   0  0  0  0  0  0  0  0  0  0  0  0
    1.3002    4.2188   19.5287 F   0  0  0  0  0  0  0  0  0  0  0  0
    2.9857    3.4824   18.2628 N   0  0  0  0  0  0  0  0  0  0  0  0
    4.0062    2.6365   18.0872 C   0  0  0  0  0  0  0  0  0  0  0  0
    7.1599   -2.3178   21.4058 C   0  0  0  0  0  0  0  0  0  0  0  0
    6.9776   -2.6235   22.7414 C   0  0  0  0  0  0  0  0  0  0  0  0
    7.8539   -2.1155   23.6834 C   0  0  0  0  0  0  0  0  0  0  0  0
    7.5963   -2.5161   25.3500 Cl  0  0  0  0  0  0  0  0  0  0  0  0
   11.2269    1.1352   23.5513 N   0  0  0  0  0  0  0  0  0  0  0  0
  1  2  1  0
  2  3  1  0
  3  4  1  0
  4  5  2  0
  5  6  1  0
  6  7  2  0
  7  8  1  0
  7  9  1  0
  9 10  1  0
 10 11  1  0
 11 12  2  0
 12 13  1  0
 13 14  1  0
 14 15  1  0
 15 16  1  0
 16 17  2  0
 16 18  1  0
 18 19  1  0
 19 20  2  0
 20 21  1  0
 21 22  2  0
 22 23  1  0
 22 24  1  0
 24 25  2  0
 13 26  2  0
 26 27  1  0
 27 28  2  0
 28 29  1  0
  9 30  2  0
 30  4  1  0
 28 11  1  0
 25 19  1  0
M  END
