CVD-0003285|dock_bobby27042020.45|mol2|42|dock3
     RDKit          3D

 23 24  0  0  0  0  0  0  0  0999 V2000
    2.1300    4.1733   18.2272 C   0  0  0  0  0  0  0  0  0  0  0  0
    3.1233    3.4931   19.1228 C   0  0  0  0  0  0  0  0  0  0  0  0
    3.3266    3.8596   20.2761 O   0  0  0  0  0  0  0  0  0  0  0  0
    3.8051    2.4425   18.5642 N   0  0  0  0  0  0  0  0  0  0  0  0
    4.7709    1.7291   19.2777 C   0  0  0  0  0  0  0  0  0  0  0  0
    5.6381    0.8451   18.7283 C   0  0  0  0  0  0  0  0  0  0  0  0
    6.6493    0.0917   19.4432 C   0  0  0  0  0  0  0  0  0  0  0  0
    7.8145   -0.3250   18.8307 C   0  0  0  0  0  0  0  0  0  0  0  0
    8.5985   -1.0129   19.7155 N   0  0  0  0  0  0  0  0  0  0  0  0
    7.9581   -1.0594   20.9292 C   0  0  0  0  0  0  0  0  0  0  0  0
    8.3765   -1.6528   22.1232 C   0  0  0  0  0  0  0  0  0  0  0  0
    9.6980   -2.3811   22.2287 C   0  0  0  0  0  0  0  0  0  0  0  0
   10.8634   -1.4406   22.4771 C   0  0  0  0  0  0  0  0  0  0  0  0
   12.0773   -2.1964   22.8085 N   0  0  0  0  0  0  0  0  0  0  0  0
   13.5147   -1.5899   22.4390 S   0  0  0  0  0  0  0  0  0  0  0  0
   13.5913    0.0320   23.0948 C   0  0  0  0  0  0  0  0  0  0  0  0
   13.5756   -1.4955   21.0130 O   0  0  0  0  0  0  0  0  0  0  0  0
   14.4920   -2.3879   23.1129 O   0  0  0  0  0  0  0  0  0  0  0  0
    7.5366   -1.5627   23.2262 C   0  0  0  0  0  0  0  0  0  0  0  0
    6.3406   -0.8971   23.0979 C   0  0  0  0  0  0  0  0  0  0  0  0
    5.5344   -0.8202   24.1910 F   0  0  0  0  0  0  0  0  0  0  0  0
    5.9068   -0.3039   21.9349 C   0  0  0  0  0  0  0  0  0  0  0  0
    6.7300   -0.3803   20.8099 C   0  0  0  0  0  0  0  0  0  0  0  0
  1  2  1  0
  2  3  2  0
  2  4  1  0
  4  5  1  0
  5  6  2  0
  6  7  1  0
  7  8  2  0
  8  9  1  0
  9 10  1  0
 10 11  2  0
 11 12  1  0
 12 13  1  0
 13 14  1  0
 14 15  1  0
 15 16  1  0
 15 17  2  0
 15 18  2  0
 11 19  1  0
 19 20  2  0
 20 21  1  0
 20 22  1  0
 22 23  2  0
 23  7  1  0
 23 10  1  0
M  END
