CVD-0000302|dock_bobby27042020.99|mol2|8|dock2
     RDKit          3D

 26 28  0  0  0  0  0  0  0  0999 V2000
    6.7305   -2.5211   23.6169 Cl  0  0  0  0  0  0  0  0  0  0  0  0
    7.8118   -3.8327   23.0240 C   0  0  0  0  0  0  0  0  0  0  0  0
    7.4366   -5.2234   23.5601 C   0  0  0  0  0  0  0  0  0  0  0  0
    6.0396   -5.6956   23.2397 C   0  0  0  0  0  0  0  0  0  0  0  0
    4.9832   -5.4457   24.0999 C   0  0  0  0  0  0  0  0  0  0  0  0
    3.7133   -5.8939   23.7816 C   0  0  0  0  0  0  0  0  0  0  0  0
    3.5387   -6.5841   22.6039 C   0  0  0  0  0  0  0  0  0  0  0  0
    4.5351   -6.8418   21.7556 N   0  0  0  0  0  0  0  0  0  0  0  0
    5.7524   -6.3990   22.0849 C   0  0  0  0  0  0  0  0  0  0  0  0
    9.3038   -3.4553   23.0958 C   0  0  0  0  0  0  0  0  0  0  0  0
   10.0476   -4.2574   23.6271 O   0  0  0  0  0  0  0  0  0  0  0  0
    9.8177   -2.3046   22.6057 N   0  0  0  0  0  0  0  0  0  0  0  0
   11.2143   -1.8875   22.6986 C   0  0  0  0  0  0  0  0  0  0  0  0
   11.2937   -0.4388   23.1342 C   0  0  0  0  0  0  0  0  0  0  0  0
   10.5268    0.4541   22.1667 C   0  0  0  0  0  0  0  0  0  0  0  0
    9.0866   -0.0394   22.0488 C   0  0  0  0  0  0  0  0  0  0  0  0
    9.0547   -1.5107   21.6487 C   0  0  0  0  0  0  0  0  0  0  0  0
   10.5684    1.8991   22.6158 C   0  0  0  0  0  0  0  0  0  0  0  0
    9.5787    2.4294   23.1118 O   0  0  0  0  0  0  0  0  0  0  0  0
   11.7693    2.4945   22.4108 N   0  0  0  0  0  0  0  0  0  0  0  0
   12.2190    3.8105   22.6843 C   0  0  0  0  0  0  0  0  0  0  0  0
   11.4382    4.7672   23.3290 C   0  0  0  0  0  0  0  0  0  0  0  0
   11.9440    6.0354   23.5632 C   0  0  0  0  0  0  0  0  0  0  0  0
   13.2204    6.3651   23.1633 C   0  0  0  0  0  0  0  0  0  0  0  0
   13.9999    5.4259   22.5252 C   0  0  0  0  0  0  0  0  0  0  0  0
   13.5055    4.1552   22.2853 C   0  0  0  0  0  0  0  0  0  0  0  0
  1  2  1  0
  2  3  1  0
  3  4  1  0
  4  5  2  0
  5  6  1  0
  6  7  2  0
  7  8  1  0
  8  9  2  0
  2 10  1  0
 10 11  2  0
 10 12  1  0
 12 13  1  0
 13 14  1  0
 14 15  1  0
 15 16  1  0
 16 17  1  0
 15 18  1  0
 18 19  2  0
 18 20  1  0
 20 21  1  0
 21 22  2  0
 22 23  1  0
 23 24  2  0
 24 25  1  0
 25 26  2  0
  9  4  1  0
 17 12  1  0
 26 21  1  0
M  END
