CVD-0000574|dock_bobby27042020.26|mol2|46|dock3
     RDKit          3D

 24 26  0  0  0  0  0  0  0  0999 V2000
    7.9763   -1.4320   18.2086 C   0  0  0  0  0  0  0  0  0  0  0  0
    7.2088   -0.7779   19.3288 C   0  0  0  0  0  0  0  0  0  0  0  0
    5.8495   -0.5399   19.1497 C   0  0  0  0  0  0  0  0  0  0  0  0
    5.1208    0.0532   20.1559 C   0  0  0  0  0  0  0  0  0  0  0  0
    5.6535    0.4205   21.3175 N   0  0  0  0  0  0  0  0  0  0  0  0
    6.9583    0.1962   21.5017 C   0  0  0  0  0  0  0  0  0  0  0  0
    7.7923   -0.3973   20.5532 C   0  0  0  0  0  0  0  0  0  0  0  0
    9.1824   -0.6407   20.7411 N   0  0  0  0  0  0  0  0  0  0  0  0
   10.0118   -0.2374   21.7607 C   0  0  0  0  0  0  0  0  0  0  0  0
    9.6837    0.4350   22.7336 O   0  0  0  0  0  0  0  0  0  0  0  0
   11.2821   -0.6692   21.5864 N   0  0  0  0  0  0  0  0  0  0  0  0
   12.3843   -0.3974   22.4926 C   0  0  0  0  0  0  0  0  0  0  0  0
   13.7017   -0.9416   21.8854 C   0  0  0  0  0  0  0  0  0  0  0  0
   14.1340   -2.0531   22.7017 C   0  0  0  0  0  0  0  0  0  0  0  0
   13.2467   -2.2260   23.8433 C   0  0  0  0  0  0  0  0  0  0  0  0
   12.2322   -1.1379   23.8267 C   0  0  0  0  0  0  0  0  0  0  0  0
   12.4980    1.0649   22.6677 C   0  0  0  0  0  0  0  0  0  0  0  0
   12.6846    2.2431   22.7629 C   0  0  0  0  0  0  0  0  0  0  0  0
   12.8735    3.6577   22.7920 C   0  0  0  0  0  0  0  0  0  0  0  0
   13.7671    4.4324   22.1051 C   0  0  0  0  0  0  0  0  0  0  0  0
   13.5295    5.7189   22.4882 N   0  0  0  0  0  0  0  0  0  0  0  0
   14.2532    6.9073   22.0337 C   0  0  0  0  0  0  0  0  0  0  0  0
   12.5271    5.6707   23.3870 C   0  0  0  0  0  0  0  0  0  0  0  0
   12.0849    4.4478   23.6067 N   0  0  0  0  0  0  0  0  0  0  0  0
  1  2  1  0
  2  3  2  0
  3  4  1  0
  4  5  2  0
  5  6  1  0
  6  7  2  0
  7  8  1  0
  8  9  1  0
  9 10  2  0
  9 11  1  0
 11 12  1  0
 12 13  1  0
 13 14  1  0
 14 15  1  0
 15 16  1  0
 12 17  1  0
 17 18  3  0
 18 19  1  0
 19 20  2  0
 20 21  1  0
 21 22  1  0
 21 23  1  0
 23 24  2  0
  7  2  1  0
 16 12  1  0
 24 19  1  0
M  END
