CVD-0003134|dock_bobby27042020.3|mol2|10|dock3
     RDKit          3D

 18 20  0  0  0  0  0  0  0  0999 V2000
    6.9560   -2.2243   21.6755 C   0  0  0  0  0  0  0  0  0  0  0  0
    6.5873   -0.8910   21.0264 C   0  0  0  0  0  0  0  0  0  0  0  0
    5.9702   -0.9339   19.5929 C   0  0  0  0  0  0  0  0  0  0  0  0
    7.2550   -0.3588   18.9793 C   0  0  0  0  0  0  0  0  0  0  0  0
    7.7914   -0.0799   20.3973 C   0  0  0  0  0  0  0  0  0  0  0  0
    9.1420   -0.5225   20.7258 N   0  0  0  0  0  0  0  0  0  0  0  0
    9.7701   -0.0864   21.8340 C   0  0  0  0  0  0  0  0  0  0  0  0
    9.2317    0.6979   22.6057 O   0  0  0  0  0  0  0  0  0  0  0  0
   11.0310   -0.5321   22.0943 N   0  0  0  0  0  0  0  0  0  0  0  0
   11.6594   -1.6098   21.2550 C   0  0  0  0  0  0  0  0  0  0  0  0
   13.0441   -1.7469   21.8515 C   0  0  0  0  0  0  0  0  0  0  0  0
   13.2404   -0.8091   22.9763 C   0  0  0  0  0  0  0  0  0  0  0  0
   11.9270   -0.0424   23.1811 C   0  0  0  0  0  0  0  0  0  0  0  0
   13.6195   -1.4515   24.2369 C   0  0  0  0  0  0  0  0  0  0  0  0
   13.0444   -2.6154   24.6466 N   0  0  0  0  0  0  0  0  0  0  0  0
   13.6505   -2.8583   25.7987 C   0  0  0  0  0  0  0  0  0  0  0  0
   14.5307   -1.9105   26.0661 N   0  0  0  0  0  0  0  0  0  0  0  0
   14.5329   -0.9901   25.0729 N   0  0  0  0  0  0  0  0  0  0  0  0
  2  1  1  0
  2  3  1  0
  3  4  1  0
  4  5  1  0
  5  6  1  0
  6  7  1  0
  7  8  2  0
  7  9  1  0
  9 10  1  0
 10 11  1  0
 11 12  1  0
 12 13  1  0
 12 14  1  0
 14 15  1  0
 15 16  2  0
 16 17  1  0
 17 18  1  0
  5  2  1  0
 13  9  1  0
 18 14  2  0
M  END
