CVD-0000121|dock_bobby27042020.28|mol2|23|dock1
     RDKit          3D

 20 23  0  0  0  0  0  0  0  0999 V2000
    8.3363    1.6166   20.0812 O   0  0  0  0  0  0  0  0  0  0  0  0
    7.5141    0.9121   20.6347 C   0  0  0  0  0  0  0  0  0  0  0  0
    6.0119    1.0644   20.4450 C   0  0  0  0  0  0  0  0  0  0  0  0
    5.6659    1.6868   19.1189 C   0  0  0  0  0  0  0  0  0  0  0  0
    5.4532    0.9466   18.0314 C   0  0  0  0  0  0  0  0  0  0  0  0
    5.5237   -0.4598   18.0766 C   0  0  0  0  0  0  0  0  0  0  0  0
    5.5328   -1.1086   19.2391 C   0  0  0  0  0  0  0  0  0  0  0  0
    5.4488   -0.3568   20.5462 C   0  0  0  0  0  0  0  0  0  0  0  0
    6.3209   -1.0932   22.1114 Se  0  0  0  0  0  2  0  0  0  0  0  0
    7.8089   -0.1136   21.4924 N   0  0  0  0  0  0  0  0  0  0  0  0
    9.1119   -0.5121   21.9470 C   0  0  0  0  0  0  0  0  0  0  0  0
    9.3648   -1.8400   22.2889 C   0  0  0  0  0  0  0  0  0  0  0  0
   10.5873   -2.2512   22.7266 C   0  0  0  0  0  0  0  0  0  0  0  0
   11.6676   -1.3480   22.8429 C   0  0  0  0  0  0  0  0  0  0  0  0
   12.9575   -1.7309   23.2816 C   0  0  0  0  0  0  0  0  0  0  0  0
   13.9605   -0.8118   23.3712 C   0  0  0  0  0  0  0  0  0  0  0  0
   13.7396    0.5082   23.0368 C   0  0  0  0  0  0  0  0  0  0  0  0
   12.5131    0.9235   22.6103 C   0  0  0  0  0  0  0  0  0  0  0  0
   11.4402    0.0070   22.5014 C   0  0  0  0  0  0  0  0  0  0  0  0
   10.1531    0.3988   22.0668 C   0  0  0  0  0  0  0  0  0  0  0  0
  1  2  2  0
  2  3  1  0
  3  4  1  0
  4  5  2  0
  5  6  1  0
  6  7  2  0
  7  8  1  0
  8  9  1  0
  9 10  1  0
 10 11  1  0
 11 12  2  0
 12 13  1  0
 13 14  2  0
 14 15  1  0
 15 16  2  0
 16 17  1  0
 17 18  2  0
 18 19  1  0
 19 20  2  0
 10  2  1  0
 20 11  1  0
  8  3  1  0
 19 14  1  0
M  END
