CVD-0000086|dock_bobby27042020.42|mol2|41|dock3
     RDKit          3D

 50 53  0  0  0  0  0  0  0  0999 V2000
    5.6301   -6.9711   22.8623 C   0  0  0  0  0  0  0  0  0  0  0  0
    5.4877   -5.6589   23.6249 C   0  0  0  0  0  0  0  0  0  0  0  0
    5.2677   -5.9410   25.1062 C   0  0  0  0  0  0  0  0  0  0  0  0
    6.7374   -4.7834   23.4232 C   0  0  0  0  0  0  0  0  0  0  0  0
    7.5488   -4.7610   24.6302 N   0  0  0  0  0  0  0  0  0  0  0  0
    8.5151   -5.6864   24.7901 C   0  0  0  0  0  0  0  0  0  0  0  0
    8.7151   -6.5465   23.9412 O   0  0  0  0  0  0  0  0  0  0  0  0
    9.2840   -5.6633   25.9189 N   0  0  0  0  0  0  0  0  0  0  0  0
   10.4248   -6.5511   26.0718 C   0  0  0  0  0  0  0  0  0  0  0  0
    8.9929   -4.8097   27.0623 C   0  0  0  0  0  0  0  0  0  0  0  0
    7.7081   -5.1648   27.7411 C   0  0  0  0  0  0  0  0  0  0  0  0
    6.6157   -4.3703   27.7717 C   0  0  0  0  0  0  0  0  0  0  0  0
    5.3485   -5.1274   28.6426 S   0  0  0  0  0  0  0  0  0  0  0  0
    6.3844   -6.4875   28.9191 C   0  0  0  0  0  0  0  0  0  0  0  0
    7.5702   -6.3738   28.3973 N   0  0  0  0  0  0  0  0  0  0  0  0
    5.9294   -7.6953   29.6920 C   0  0  0  0  0  0  0  0  0  0  0  0
    4.7316   -7.3445   30.5631 C   0  0  0  0  0  0  0  0  0  0  0  0
    7.0664   -8.2330   30.5492 C   0  0  0  0  0  0  0  0  0  0  0  0
    6.3487   -3.3592   23.0402 C   0  0  0  0  0  0  0  0  0  0  0  0
    5.3121   -2.8569   23.4657 O   0  0  0  0  0  0  0  0  0  0  0  0
    7.1920   -2.7105   22.2323 N   0  0  0  0  0  0  0  0  0  0  0  0
    6.9528   -1.3525   21.7425 C   0  0  0  0  0  0  0  0  0  0  0  0
    7.0465   -0.3558   22.8993 C   0  0  0  0  0  0  0  0  0  0  0  0
    8.2383   -0.5217   23.8386 C   0  0  0  0  0  0  0  0  0  0  0  0
    7.7935   -0.1692   25.1493 O   0  0  0  0  0  0  0  0  0  0  0  0
    9.4595    0.3456   23.5033 C   0  0  0  0  0  0  0  0  0  0  0  0
   10.7347   -0.2203   24.1401 C   0  0  0  0  0  0  0  0  0  0  0  0
   11.8202   -0.5200   23.1351 C   0  0  0  0  0  0  0  0  0  0  0  0
   11.6904   -1.5747   22.2450 C   0  0  0  0  0  0  0  0  0  0  0  0
   12.6876   -1.8519   21.3249 C   0  0  0  0  0  0  0  0  0  0  0  0
   13.8271   -1.0777   21.2849 C   0  0  0  0  0  0  0  0  0  0  0  0
   13.9695   -0.0267   22.1653 C   0  0  0  0  0  0  0  0  0  0  0  0
   12.9719    0.2500   23.0852 C   0  0  0  0  0  0  0  0  0  0  0  0
    9.2731    1.7290   23.9269 N   0  0  0  0  0  0  0  0  0  0  0  0
    9.2508    2.7487   23.0525 C   0  0  0  0  0  0  0  0  0  0  0  0
    9.3785    2.6329   21.8520 O   0  0  0  0  0  0  0  0  0  0  0  0
    9.0670    3.9174   23.7006 O   0  0  0  0  0  0  0  0  0  0  0  0
    9.5780    5.1146   23.0767 C   0  0  0  0  0  0  0  0  0  0  0  0
   11.0678    5.0570   22.9615 C   0  0  0  0  0  0  0  0  0  0  0  0
   12.0083    5.9150   23.4280 C   0  0  0  0  0  0  0  0  0  0  0  0
   13.3182    5.6000   23.1654 N   0  0  0  0  0  0  0  0  0  0  0  0
   13.3676    4.4927   22.4930 C   0  0  0  0  0  0  0  0  0  0  0  0
   11.8440    3.7784   22.1443 S   0  0  0  0  0  0  0  0  0  0  0  0
    5.5726   -1.2983   21.0766 C   0  0  0  0  0  0  0  0  0  0  0  0
    5.3211   -0.0333   20.2924 C   0  0  0  0  0  0  0  0  0  0  0  0
    5.7451    0.0815   18.9774 C   0  0  0  0  0  0  0  0  0  0  0  0
    5.5116    1.2407   18.2567 C   0  0  0  0  0  0  0  0  0  0  0  0
    4.8505    2.2987   18.8426 C   0  0  0  0  0  0  0  0  0  0  0  0
    4.4225    2.1973   20.1488 C   0  0  0  0  0  0  0  0  0  0  0  0
    4.6561    1.0377   20.8690 C   0  0  0  0  0  0  0  0  0  0  0  0
  1  2  1  0
  2  3  1  0
  2  4  1  0
  4  5  1  0
  5  6  1  0
  6  7  2  0
  6  8  1  0
  8  9  1  0
  8 10  1  0
 10 11  1  0
 11 12  2  0
 12 13  1  0
 13 14  1  0
 14 15  2  0
 14 16  1  0
 16 17  1  0
 16 18  1  0
  4 19  1  0
 19 20  2  0
 19 21  1  0
 21 22  1  0
 22 23  1  0
 23 24  1  0
 24 25  1  0
 24 26  1  0
 26 27  1  0
 27 28  1  0
 28 29  2  0
 29 30  1  0
 30 31  2  0
 31 32  1  0
 32 33  2  0
 26 34  1  0
 34 35  1  0
 35 36  2  0
 35 37  1  0
 37 38  1  0
 38 39  1  0
 39 40  2  0
 40 41  1  0
 41 42  2  0
 42 43  1  0
 22 44  1  0
 44 45  1  0
 45 46  2  0
 46 47  1  0
 47 48  2  0
 48 49  1  0
 49 50  2  0
 15 11  1  0
 33 28  1  0
 43 39  1  0
 50 45  1  0
M  END
