CVD-0001506|dock_bobby27042020.37|mol2|52|dock2
     RDKit          3D

 18 19  0  0  0  0  0  0  0  0999 V2000
   13.5178   -1.5358   22.2267 C   0  0  0  0  0  0  0  0  0  0  0  0
   12.0735   -1.6897   22.5873 C   0  0  0  0  0  0  0  0  0  0  0  0
   11.2144   -0.9903   21.6463 N   0  0  0  0  0  0  0  0  0  0  0  0
   10.7189    0.2359   21.8816 C   0  0  0  0  0  0  0  0  0  0  0  0
   11.5772    1.1493   22.3776 N   0  0  0  0  0  0  0  0  0  0  0  0
   11.1119    2.3791   22.6205 C   0  0  0  0  0  0  0  0  0  0  0  0
    9.7958    2.7593   22.3897 C   0  0  0  0  0  0  0  0  0  0  0  0
    8.9222    1.8060   21.8794 C   0  0  0  0  0  0  0  0  0  0  0  0
    9.3631    0.5148   21.6109 C   0  0  0  0  0  0  0  0  0  0  0  0
    8.3751   -0.4859   21.0621 C   0  0  0  0  0  0  0  0  0  0  0  0
    8.2509   -0.4395   19.6125 N   0  0  0  0  0  0  0  0  0  0  0  0
    7.2235    0.1674   18.9990 C   0  0  0  0  0  0  0  0  0  0  0  0
    6.1091    0.8474   19.4406 C   0  0  0  0  0  0  0  0  0  0  0  0
    5.4386    1.2286   18.2883 C   0  0  0  0  0  0  0  0  0  0  0  0
    6.0515    0.8383   17.2245 N   0  0  0  0  0  0  0  0  0  0  0  0
    7.2120    0.1477   17.6599 O   0  0  0  0  0  0  0  0  0  0  0  0
    9.3442    4.1001   22.6692 C   0  0  0  0  0  0  0  0  0  0  0  0
    9.0105    5.1738   22.8706 N   0  0  0  0  0  0  0  0  0  0  0  0
  1  2  1  0
  2  3  1  0
  3  4  1  0
  4  5  2  0
  5  6  1  0
  6  7  2  0
  7  8  1  0
  8  9  2  0
  9 10  1  0
 10 11  1  0
 11 12  1  0
 12 13  2  0
 13 14  1  0
 14 15  2  0
 15 16  1  0
  7 17  1  0
 17 18  3  0
  9  4  1  0
 16 12  1  0
M  END
