CVD-0002970|dock_bobby27042020.89|mol2|27|dock2
     RDKit          3D

 33 35  0  0  0  0  0  0  0  0999 V2000
    6.7142    7.5586   20.9325 C   0  0  0  0  0  0  0  0  0  0  0  0
    7.1917    6.4909   21.8724 C   0  0  0  0  0  0  0  0  0  0  0  0
    7.8454    6.7551   22.8767 O   0  0  0  0  0  0  0  0  0  0  0  0
    6.8770    5.2338   21.5416 N   0  0  0  0  0  0  0  0  0  0  0  0
    7.2918    4.1023   22.3548 C   0  0  0  0  0  0  0  0  0  0  0  0
    6.2149    3.0038   22.3561 C   0  0  0  0  0  0  0  0  0  0  0  0
    6.0471    2.2691   21.0467 C   0  0  0  0  0  0  0  0  0  0  0  0
    5.0206    2.6085   20.1789 C   0  0  0  0  0  0  0  0  0  0  0  0
    4.8512    1.9490   18.9745 C   0  0  0  0  0  0  0  0  0  0  0  0
    5.7188    0.9292   18.6184 C   0  0  0  0  0  0  0  0  0  0  0  0
    5.5571    0.2733   17.4331 O   0  0  0  0  0  0  0  0  0  0  0  0
    6.7515    0.5797   19.4731 C   0  0  0  0  0  0  0  0  0  0  0  0
    6.9092    1.2489   20.6737 C   0  0  0  0  0  0  0  0  0  0  0  0
    8.6296    3.5511   21.8676 C   0  0  0  0  0  0  0  0  0  0  0  0
    8.7628    3.1878   20.7020 O   0  0  0  0  0  0  0  0  0  0  0  0
    9.6208    3.4954   22.7623 N   0  0  0  0  0  0  0  0  0  0  0  0
   10.9447    3.0026   22.4321 C   0  0  0  0  0  0  0  0  0  0  0  0
   11.3896    1.8903   23.2770 N   0  0  0  0  0  0  0  0  0  0  0  0
   12.7897    1.5339   22.9943 C   0  0  0  0  0  0  0  0  0  0  0  0
   13.2533    0.4231   23.9004 C   0  0  0  0  0  0  0  0  0  0  0  0
   12.3813   -0.7485   23.7713 N   0  0  0  0  0  0  0  0  0  0  0  0
   10.9714   -0.4222   23.9761 C   0  0  0  0  0  0  0  0  0  0  0  0
   10.5702    0.6994   23.0478 C   0  0  0  0  0  0  0  0  0  0  0  0
   12.7833   -2.0337   23.6306 C   0  0  0  0  0  0  0  0  0  0  0  0
   11.9746   -2.9470   23.5217 O   0  0  0  0  0  0  0  0  0  0  0  0
   14.2710   -2.3291   23.6174 C   0  0  0  0  0  0  0  0  0  0  0  0
   15.0300   -1.8731   25.1481 Cl  0  0  0  0  0  0  0  0  0  0  0  0
   11.9313    4.1524   22.4890 C   0  0  0  0  0  0  0  0  0  0  0  0
   12.8850    4.3183   21.4945 C   0  0  0  0  0  0  0  0  0  0  0  0
   13.7872    5.3677   21.5480 C   0  0  0  0  0  0  0  0  0  0  0  0
   13.7470    6.2625   22.5959 C   0  0  0  0  0  0  0  0  0  0  0  0
   12.8054    6.1089   23.5909 C   0  0  0  0  0  0  0  0  0  0  0  0
   11.9026    5.0600   23.5385 C   0  0  0  0  0  0  0  0  0  0  0  0
  1  2  1  0
  2  3  2  0
  2  4  1  0
  4  5  1  0
  5  6  1  0
  6  7  1  0
  7  8  2  0
  8  9  1  0
  9 10  2  0
 10 11  1  0
 10 12  1  0
 12 13  2  0
  5 14  1  0
 14 15  2  0
 14 16  1  0
 16 17  1  0
 17 18  1  0
 18 19  1  0
 19 20  1  0
 20 21  1  0
 21 22  1  0
 22 23  1  0
 21 24  1  0
 24 25  2  0
 24 26  1  0
 26 27  1  0
 17 28  1  0
 28 29  2  0
 29 30  1  0
 30 31  2  0
 31 32  1  0
 32 33  2  0
 13  7  1  0
 23 18  1  0
 33 28  1  0
M  END
