CVD-0000166|dock_bobby27042020.99|mol2|28|dock2
     RDKit          3D

 23 25  0  0  0  0  0  0  0  0999 V2000
   13.3651   -2.8163   25.4899 F   0  0  0  0  0  0  0  0  0  0  0  0
   14.1626   -1.7658   25.4141 C   0  0  0  0  0  0  0  0  0  0  0  0
   15.3371   -2.1185   25.9054 F   0  0  0  0  0  0  0  0  0  0  0  0
   13.6684   -0.8610   26.2392 F   0  0  0  0  0  0  0  0  0  0  0  0
   14.2521   -1.2827   24.1776 O   0  0  0  0  0  0  0  0  0  0  0  0
   13.1161   -0.8402   23.4636 C   0  0  0  0  0  0  0  0  0  0  0  0
   12.4800    0.3560   23.7579 C   0  0  0  0  0  0  0  0  0  0  0  0
   11.3704    0.7432   23.0276 C   0  0  0  0  0  0  0  0  0  0  0  0
   10.8786   -0.0502   21.9978 C   0  0  0  0  0  0  0  0  0  0  0  0
   11.5274   -1.2474   21.7143 C   0  0  0  0  0  0  0  0  0  0  0  0
   12.6374   -1.6402   22.4409 C   0  0  0  0  0  0  0  0  0  0  0  0
    9.6775    0.3879   21.2212 C   0  0  0  0  0  0  0  0  0  0  0  0
    9.2692    1.5369   21.1881 O   0  0  0  0  0  0  0  0  0  0  0  0
    9.0757   -0.6635   20.5385 O   0  0  0  0  0  0  0  0  0  0  0  0
    8.1153   -0.2329   19.6522 N   0  0  0  0  0  0  0  0  0  0  0  0
    8.3654   -0.2651   18.3316 N   0  0  0  0  0  0  0  0  0  0  0  0
    7.3030    0.1828   17.7243 N   0  0  0  0  0  0  0  0  0  0  0  0
    6.3556    0.5013   18.6728 C   0  0  0  0  0  0  0  0  0  0  0  0
    5.0627    1.0100   18.5563 C   0  0  0  0  0  0  0  0  0  0  0  0
    4.3272    1.2342   19.7102 C   0  0  0  0  0  0  0  0  0  0  0  0
    4.8541    0.9625   20.9579 C   0  0  0  0  0  0  0  0  0  0  0  0
    6.1371    0.4569   21.0956 C   0  0  0  0  0  0  0  0  0  0  0  0
    6.8736    0.2331   19.9389 C   0  0  0  0  0  0  0  0  0  0  0  0
  1  2  1  0
  2  3  1  0
  2  4  1  0
  2  5  1  0
  5  6  1  0
  6  7  2  0
  7  8  1  0
  8  9  2  0
  9 10  1  0
 10 11  2  0
  9 12  1  0
 12 13  2  0
 12 14  1  0
 14 15  1  0
 15 16  1  0
 16 17  2  0
 17 18  1  0
 18 19  2  0
 19 20  1  0
 20 21  2  0
 21 22  1  0
 22 23  2  0
 11  6  1  0
 23 15  1  0
 23 18  1  0
M  END
