CVD-0001634|dock_bobby27042020.66|mol2|30|dock3
     RDKit          3D

 23 25  0  0  0  0  0  0  0  0999 V2000
    8.6452    0.0045   19.6274 O   0  0  0  0  0  0  0  0  0  0  0  0
    7.9426   -0.5683   20.4537 C   0  0  0  0  0  0  0  0  0  0  0  0
    6.6124   -0.3281   20.6134 N   0  0  0  0  0  0  0  0  0  0  0  0
    5.7343    0.5373   19.9113 C   0  0  0  0  0  0  0  0  0  0  0  0
    5.9835    1.0328   18.6326 C   0  0  0  0  0  0  0  0  0  0  0  0
    5.0723    1.8799   18.0231 C   0  0  0  0  0  0  0  0  0  0  0  0
    3.9091    2.2389   18.6674 C   0  0  0  0  0  0  0  0  0  0  0  0
    3.6503    1.7506   19.9285 C   0  0  0  0  0  0  0  0  0  0  0  0
    4.5544    0.9053   20.5486 C   0  0  0  0  0  0  0  0  0  0  0  0
    8.6029   -1.5815   21.3503 C   0  0  0  0  0  0  0  0  0  0  0  0
    9.8959   -1.2548   21.7606 C   0  0  0  0  0  0  0  0  0  0  0  0
   10.5985   -2.0674   22.6441 C   0  0  0  0  0  0  0  0  0  0  0  0
    9.9535   -3.2066   23.0988 C   0  0  0  0  0  0  0  0  0  0  0  0
    8.7325   -3.5792   22.7009 N   0  0  0  0  0  0  0  0  0  0  0  0
    8.0854   -2.8053   21.8098 C   0  0  0  0  0  0  0  0  0  0  0  0
    6.8281   -3.3703   21.3683 C   0  0  0  0  0  0  0  0  0  0  0  0
    5.8451   -3.8032   20.9796 N   0  0  0  0  0  0  0  0  0  0  0  0
   11.8887   -1.7385   23.0460 N   0  0  0  0  0  0  0  0  0  0  0  0
   12.3526   -1.8308   24.4317 C   0  0  0  0  0  0  0  0  0  0  0  0
   13.2637   -0.6735   24.7604 C   0  0  0  0  0  0  0  0  0  0  0  0
   14.3294   -0.5707   23.8354 O   0  0  0  0  0  0  0  0  0  0  0  0
   13.8166   -0.3404   22.5282 C   0  0  0  0  0  0  0  0  0  0  0  0
   12.9675   -1.5184   22.0908 C   0  0  0  0  0  0  0  0  0  0  0  0
  1  2  2  0
  2  3  1  0
  3  4  1  0
  4  5  2  0
  5  6  1  0
  6  7  2  0
  7  8  1  0
  8  9  2  0
  2 10  1  0
 10 11  2  0
 11 12  1  0
 12 13  2  0
 13 14  1  0
 14 15  2  0
 15 16  1  0
 16 17  3  0
 12 18  1  0
 18 19  1  0
 19 20  1  0
 20 21  1  0
 21 22  1  0
 22 23  1  0
  9  4  1  0
 15 10  1  0
 23 18  1  0
M  END
