CVD-0001348|dock_bobby27042020.53|mol2|4|dock2
     RDKit          3D

 27 29  0  0  0  0  0  0  0  0999 V2000
   14.6713   -2.2913   25.0927 N   0  0  0  0  0  0  0  0  0  0  0  0
   14.2771   -2.2731   23.6776 C   0  0  0  0  0  0  0  0  0  0  0  0
   13.2546   -1.2659   23.2687 C   0  0  0  0  0  0  0  0  0  0  0  0
   11.9235   -1.4237   23.0100 C   0  0  0  0  0  0  0  0  0  0  0  0
   11.4089   -0.1358   22.6589 C   0  0  0  0  0  0  0  0  0  0  0  0
   10.1345    0.3224   22.2984 C   0  0  0  0  0  0  0  0  0  0  0  0
    9.9535    1.6651   22.0056 C   0  0  0  0  0  0  0  0  0  0  0  0
   11.0149    2.5552   22.0691 C   0  0  0  0  0  0  0  0  0  0  0  0
   12.2929    2.1240   22.4283 C   0  0  0  0  0  0  0  0  0  0  0  0
   13.3586    2.9862   22.4996 N   0  0  0  0  0  0  0  0  0  0  0  0
   13.4952    4.1786   21.6797 C   0  0  0  0  0  0  0  0  0  0  0  0
   13.5634    5.4360   22.5238 C   0  0  0  0  0  0  0  0  0  0  0  0
   12.3485    5.6117   23.4025 C   0  0  0  0  0  0  0  0  0  0  0  0
   12.4157    5.4506   24.6165 O   0  0  0  0  0  0  0  0  0  0  0  0
   11.2304    5.9512   22.7164 N   0  0  0  0  0  0  0  0  0  0  0  0
    9.9075    6.2025   23.1567 C   0  0  0  0  0  0  0  0  0  0  0  0
    8.7867    6.1154   22.3371 C   0  0  0  0  0  0  0  0  0  0  0  0
    7.5371    6.3822   22.8695 C   0  0  0  0  0  0  0  0  0  0  0  0
    7.4409    6.7267   24.1980 C   0  0  0  0  0  0  0  0  0  0  0  0
    8.4961    6.8181   25.0072 N   0  0  0  0  0  0  0  0  0  0  0  0
    9.6978    6.5588   24.4840 C   0  0  0  0  0  0  0  0  0  0  0  0
   12.4825    0.7660   22.7228 C   0  0  0  0  0  0  0  0  0  0  0  0
   13.6011    0.0550   23.0977 N   0  0  0  0  0  0  0  0  0  0  0  0
    8.7424   -0.7694   22.1945 S   0  0  0  0  0  0  0  0  0  0  0  0
    9.1782   -2.0690   21.3673 N   0  0  0  0  0  0  0  0  0  0  0  0
    7.7321   -0.0994   21.4319 O   0  0  0  0  0  0  0  0  0  0  0  0
    8.4361   -1.1966   23.5266 O   0  0  0  0  0  0  0  0  0  0  0  0
  1  2  1  0
  2  3  1  0
  3  4  2  0
  4  5  1  0
  5  6  2  0
  6  7  1  0
  7  8  2  0
  8  9  1  0
  9 10  1  0
 10 11  1  0
 11 12  1  0
 12 13  1  0
 13 14  2  0
 13 15  1  0
 15 16  1  0
 16 17  2  0
 17 18  1  0
 18 19  2  0
 19 20  1  0
 20 21  2  0
  9 22  2  0
 22 23  1  0
  6 24  1  0
 24 25  1  0
 24 26  2  0
 24 27  2  0
 23  3  1  0
 22  5  1  0
 21 16  1  0
M  END
