CVD-0003506|dock_bobby27042020.73|mol2|33|dock1
     RDKit          3D

 14 15  0  0  0  0  0  0  0  0999 V2000
   13.1677   -2.2031   20.5821 N   0  0  0  0  0  0  0  0  0  0  0  0
   13.2799   -1.8913   21.6774 C   0  0  0  0  0  0  0  0  0  0  0  0
   13.4443   -1.4591   23.0312 C   0  0  0  0  0  0  0  0  0  0  0  0
   14.2809   -2.0058   23.9802 C   0  0  0  0  0  0  0  0  0  0  0  0
   14.1084   -1.2886   25.0921 N   0  0  0  0  0  0  0  0  0  0  0  0
   13.2021   -0.2962   24.9289 N   0  0  0  0  0  0  0  0  0  0  0  0
   12.7899   -0.3948   23.6655 C   0  0  0  0  0  0  0  0  0  0  0  0
   11.7668    0.5437   23.0882 C   0  0  0  0  0  0  0  0  0  0  0  0
   12.2982    1.9368   22.8372 C   0  0  0  0  0  0  0  0  0  0  0  0
   11.4459    3.0174   22.6832 C   0  0  0  0  0  0  0  0  0  0  0  0
   11.9675    4.2793   22.4581 C   0  0  0  0  0  0  0  0  0  0  0  0
   13.3352    4.4205   22.3944 C   0  0  0  0  0  0  0  0  0  0  0  0
   14.1814    3.3999   22.5398 N   0  0  0  0  0  0  0  0  0  0  0  0
   13.6545    2.1909   22.7565 C   0  0  0  0  0  0  0  0  0  0  0  0
  1  2  3  0
  2  3  1  0
  3  4  2  0
  4  5  1  0
  5  6  1  0
  6  7  2  0
  7  8  1  0
  8  9  1  0
  9 10  2  0
 10 11  1  0
 11 12  2  0
 12 13  1  0
 13 14  2  0
  7  3  1  0
 14  9  1  0
M  END
