CVD-0002171|dock_bobby27042020.64|mol2|22|dock1
     RDKit          3D

 26 28  0  0  0  0  0  0  0  0999 V2000
    9.4747    0.0969   22.9429 O   0  0  0  0  0  0  0  0  0  0  0  0
    9.8725   -0.4779   21.9352 C   0  0  0  0  0  0  0  0  0  0  0  0
   11.0870   -1.1175   21.8324 N   0  0  0  0  0  0  0  0  0  0  0  0
   12.1328   -1.2808   22.7763 C   0  0  0  0  0  0  0  0  0  0  0  0
   12.2984   -0.4700   23.8975 C   0  0  0  0  0  0  0  0  0  0  0  0
   13.3484   -0.6969   24.7723 C   0  0  0  0  0  0  0  0  0  0  0  0
   14.2393   -1.7229   24.5468 C   0  0  0  0  0  0  0  0  0  0  0  0
   14.0845   -2.5299   23.4419 C   0  0  0  0  0  0  0  0  0  0  0  0
   13.0391   -2.3130   22.5604 C   0  0  0  0  0  0  0  0  0  0  0  0
    9.1607   -0.5662   20.7606 N   0  0  0  0  0  0  0  0  0  0  0  0
    7.8812   -0.0635   20.4129 C   0  0  0  0  0  0  0  0  0  0  0  0
    7.6070    0.1971   19.0762 C   0  0  0  0  0  0  0  0  0  0  0  0
    6.3693    0.6875   18.7022 C   0  0  0  0  0  0  0  0  0  0  0  0
    5.4184    0.9096   19.6830 C   0  0  0  0  0  0  0  0  0  0  0  0
    4.0499    1.4463   19.3473 C   0  0  0  0  0  0  0  0  0  0  0  0
    3.1823    1.5568   20.5035 N   0  0  0  0  0  0  0  0  0  0  0  0
    1.8823    1.9568   20.4408 C   0  0  0  0  0  0  0  0  0  0  0  0
    1.4709    2.9520   19.5544 C   0  0  0  0  0  0  0  0  0  0  0  0
    0.1355    3.3118   19.5411 C   0  0  0  0  0  0  0  0  0  0  0  0
   -0.7577    2.6821   20.4001 C   0  0  0  0  0  0  0  0  0  0  0  0
   -0.2514    1.7012   21.2474 C   0  0  0  0  0  0  0  0  0  0  0  0
    1.0366    1.3411   21.2731 N   0  0  0  0  0  0  0  0  0  0  0  0
   -2.1566    3.0323   20.4131 C   0  0  0  0  0  0  0  0  0  0  0  0
   -3.2672    3.2987   20.3921 N   0  0  0  0  0  0  0  0  0  0  0  0
    5.6554    0.6688   20.9789 N   0  0  0  0  0  0  0  0  0  0  0  0
    6.8582    0.1944   21.3228 C   0  0  0  0  0  0  0  0  0  0  0  0
  1  2  2  0
  2  3  1  0
  3  4  1  0
  4  5  2  0
  5  6  1  0
  6  7  2  0
  7  8  1  0
  8  9  2  0
  2 10  1  0
 10 11  1  0
 11 12  2  0
 12 13  1  0
 13 14  2  0
 14 15  1  0
 15 16  1  0
 16 17  1  0
 17 18  2  0
 18 19  1  0
 19 20  2  0
 20 21  1  0
 21 22  2  0
 20 23  1  0
 23 24  3  0
 14 25  1  0
 25 26  2  0
  9  4  1  0
 26 11  1  0
 22 17  1  0
M  END
