CVD-0002303|dock_bobby27042020.6|mol2|22|dock3
     RDKit          3D

 40 43  0  0  0  0  0  0  0  0999 V2000
    2.3810   -5.4814   26.8530 C   0  0  0  0  0  0  0  0  0  0  0  0
    3.3513   -6.5645   26.4117 C   0  0  0  0  0  0  0  0  0  0  0  0
    2.6851   -7.9320   26.3885 C   0  0  0  0  0  0  0  0  0  0  0  0
    3.9621   -6.1957   25.1056 N   0  0  0  0  0  0  0  0  0  0  0  0
    3.4064   -6.8390   23.9104 C   0  0  0  0  0  0  0  0  0  0  0  0
    5.0115   -5.2785   25.0147 C   0  0  0  0  0  0  0  0  0  0  0  0
    5.5878   -4.9293   23.7922 C   0  0  0  0  0  0  0  0  0  0  0  0
    6.5645   -4.0957   23.5456 N   0  0  0  0  0  0  0  0  0  0  0  0
    7.0510   -3.8415   22.2067 C   0  0  0  0  0  0  0  0  0  0  0  0
    7.8137   -2.5452   22.1244 C   0  0  0  0  0  0  0  0  0  0  0  0
    9.1685   -2.3773   22.4626 C   0  0  0  0  0  0  0  0  0  0  0  0
    9.5370   -1.0571   22.2869 C   0  0  0  0  0  0  0  0  0  0  0  0
   10.8836   -0.4923   22.5436 C   0  0  0  0  0  0  0  0  0  0  0  0
   11.9773   -1.3130   22.2623 C   0  0  0  0  0  0  0  0  0  0  0  0
   13.2736   -0.8514   22.4179 C   0  0  0  0  0  0  0  0  0  0  0  0
   13.5078    0.4311   22.8610 C   0  0  0  0  0  0  0  0  0  0  0  0
   12.4452    1.2553   23.1850 C   0  0  0  0  0  0  0  0  0  0  0  0
   11.1664    0.7689   23.0499 C   0  0  0  0  0  0  0  0  0  0  0  0
   10.1625    1.5762   23.4555 F   0  0  0  0  0  0  0  0  0  0  0  0
    8.3786   -0.3874   21.8062 N   0  0  0  0  0  0  0  0  0  0  0  0
    7.3387   -1.3051   21.7223 C   0  0  0  0  0  0  0  0  0  0  0  0
    8.1030    1.2208   21.3415 S   0  0  0  0  0  0  0  0  0  0  0  0
    7.4829    1.8948   22.4393 O   0  0  0  0  0  0  0  0  0  0  0  0
    9.3647    1.6890   20.8582 O   0  0  0  0  0  0  0  0  0  0  0  0
    7.0038    1.1559   19.9683 C   0  0  0  0  0  0  0  0  0  0  0  0
    5.8267    1.8845   19.9782 C   0  0  0  0  0  0  0  0  0  0  0  0
    4.9895    1.8004   18.8791 C   0  0  0  0  0  0  0  0  0  0  0  0
    5.3599    0.9971   17.8242 C   0  0  0  0  0  0  0  0  0  0  0  0
    6.4897    0.2886   17.8019 N   0  0  0  0  0  0  0  0  0  0  0  0
    7.2931    0.3741   18.8662 C   0  0  0  0  0  0  0  0  0  0  0  0
    5.5546   -4.6312   26.2660 C   0  0  0  0  0  0  0  0  0  0  0  0
    5.6195   -3.1168   26.1112 C   0  0  0  0  0  0  0  0  0  0  0  0
    6.2014   -2.4787   27.3557 C   0  0  0  0  0  0  0  0  0  0  0  0
    7.5275   -3.0288   27.6247 N   0  0  0  0  0  0  0  0  0  0  0  0
    7.5073   -4.4724   27.8337 C   0  0  0  0  0  0  0  0  0  0  0  0
    6.9437   -5.1702   26.6003 C   0  0  0  0  0  0  0  0  0  0  0  0
    8.6291   -2.3118   27.9427 C   0  0  0  0  0  0  0  0  0  0  0  0
    9.7043   -2.8652   28.1356 O   0  0  0  0  0  0  0  0  0  0  0  0
    8.5071   -0.8048   28.0640 C   0  0  0  0  0  0  0  0  0  0  0  0
    9.9574   -0.1042   28.7940 Cl  0  0  0  0  0  0  0  0  0  0  0  0
  1  2  1  0
  2  3  1  0
  2  4  1  0
  4  5  1  0
  4  6  1  0
  6  7  2  0
  7  8  1  0
  8  9  1  0
  9 10  1  0
 10 11  1  0
 11 12  2  0
 12 13  1  0
 13 14  2  0
 14 15  1  0
 15 16  2  0
 16 17  1  0
 17 18  2  0
 18 19  1  0
 12 20  1  0
 20 21  1  0
 20 22  1  0
 22 23  2  0
 22 24  2  0
 22 25  1  0
 25 26  2  0
 26 27  1  0
 27 28  2  0
 28 29  1  0
 29 30  2  0
  6 31  1  0
 31 32  1  0
 32 33  1  0
 33 34  1  0
 34 35  1  0
 35 36  1  0
 34 37  1  0
 37 38  2  0
 37 39  1  0
 39 40  1  0
 21 10  2  0
 30 25  1  0
 36 31  1  0
 18 13  1  0
M  END
