CVD-0003282|dock_bobby27042020.88|mol2|27|dock1
     RDKit          3D

 25 28  0  0  0  0  0  0  0  0999 V2000
   15.0743   -1.7338   25.9837 O   0  0  0  0  0  0  0  0  0  0  0  0
   13.7822   -2.3109   25.7773 C   0  0  0  0  0  0  0  0  0  0  0  0
   12.7622   -1.2065   25.8873 C   0  0  0  0  0  0  0  0  0  0  0  0
   12.8454   -0.2261   24.7259 C   0  0  0  0  0  0  0  0  0  0  0  0
   12.7586   -0.9211   23.3901 C   0  0  0  0  0  0  0  0  0  0  0  0
   12.8732    0.0830   22.2384 C   0  0  0  0  0  0  0  0  0  0  0  0
   11.9204    1.2438   22.3334 C   0  0  0  0  0  0  0  0  0  0  0  0
   10.5732    1.1211   22.1831 C   0  0  0  0  0  0  0  0  0  0  0  0
    9.7946   -0.1278   21.9131 C   0  0  0  0  0  0  0  0  0  0  0  0
    8.4632    0.1578   21.2511 C   0  0  0  0  0  0  0  0  0  0  0  0
    7.6145    0.8377   21.8204 O   0  0  0  0  0  0  0  0  0  0  0  0
    8.3119   -0.3824   20.0034 N   0  0  0  0  0  0  0  0  0  0  0  0
    7.2115   -0.2816   19.1490 C   0  0  0  0  0  0  0  0  0  0  0  0
    6.2936   -1.2273   18.8164 C   0  0  0  0  0  0  0  0  0  0  0  0
    5.4395   -0.6076   17.9534 N   0  0  0  0  0  0  0  0  0  0  0  0
    5.8607    0.6524   17.8009 C   0  0  0  0  0  0  0  0  0  0  0  0
    6.9468    0.9073   18.5135 N   0  0  0  0  0  0  0  0  0  0  0  0
    9.7131    2.6262   22.3335 S   0  0  0  0  0  0  0  0  0  0  0  0
   11.1959    3.4734   22.6020 C   0  0  0  0  0  0  0  0  0  0  0  0
   11.6473    4.7955   22.8446 C   0  0  0  0  0  0  0  0  0  0  0  0
   13.0104    4.6974   22.9583 C   0  0  0  0  0  0  0  0  0  0  0  0
   13.4002    3.3925   22.7978 N   0  0  0  0  0  0  0  0  0  0  0  0
   12.2891    2.6117   22.5749 C   0  0  0  0  0  0  0  0  0  0  0  0
   13.7960   -2.0149   23.2851 C   0  0  0  0  0  0  0  0  0  0  0  0
   13.6916   -2.9969   24.4346 C   0  0  0  0  0  0  0  0  0  0  0  0
  1  2  1  0
  2  3  1  0
  3  4  1  0
  4  5  1  0
  5  6  1  0
  6  7  1  0
  7  8  2  0
  8  9  1  0
  9 10  1  0
 10 11  2  0
 10 12  1  0
 12 13  1  0
 13 14  2  0
 14 15  1  0
 15 16  1  0
 16 17  2  0
  8 18  1  0
 18 19  1  0
 19 20  1  0
 20 21  2  0
 21 22  1  0
 22 23  1  0
  5 24  1  0
 24 25  1  0
 25  2  1  0
 23  7  1  0
 17 13  1  0
 23 19  2  0
M  END
