CVD-0002121|dock_bobby27042020.7|mol2|19|dock3
     RDKit          3D

 24 27  0  0  0  0  0  0  0  0999 V2000
   10.6839   -1.4704   21.8398 C   0  0  0  0  0  0  0  0  0  0  0  0
    9.4511   -0.8599   22.3151 N   0  0  0  0  0  0  0  0  0  0  0  0
    8.3822   -0.6622   21.5353 C   0  0  0  0  0  0  0  0  0  0  0  0
    7.2533   -0.1108   21.9425 N   0  0  0  0  0  0  0  0  0  0  0  0
    6.4454   -0.1131   20.8085 C   0  0  0  0  0  0  0  0  0  0  0  0
    5.1402    0.3429   20.6277 C   0  0  0  0  0  0  0  0  0  0  0  0
    4.5579    0.2201   19.3750 C   0  0  0  0  0  0  0  0  0  0  0  0
    5.2478   -0.3417   18.3181 C   0  0  0  0  0  0  0  0  0  0  0  0
    6.5455   -0.7999   18.4803 C   0  0  0  0  0  0  0  0  0  0  0  0
    7.1300   -0.6775   19.7351 C   0  0  0  0  0  0  0  0  0  0  0  0
    8.3725   -1.0217   20.2299 N   0  0  0  0  0  0  0  0  0  0  0  0
   11.8281   -1.3444   22.8151 C   0  0  0  0  0  0  0  0  0  0  0  0
   12.6387   -2.4344   23.1183 C   0  0  0  0  0  0  0  0  0  0  0  0
   13.6903   -2.3130   24.0101 C   0  0  0  0  0  0  0  0  0  0  0  0
   13.9469   -1.0990   24.6100 C   0  0  0  0  0  0  0  0  0  0  0  0
   13.1550    0.0005   24.3232 C   0  0  0  0  0  0  0  0  0  0  0  0
   12.0960   -0.1200   23.4292 C   0  0  0  0  0  0  0  0  0  0  0  0
   11.2659    0.9492   23.0925 O   0  0  0  0  0  0  0  0  0  0  0  0
   11.7470    2.2093   22.8700 C   0  0  0  0  0  0  0  0  0  0  0  0
   10.8179    3.2499   22.8686 C   0  0  0  0  0  0  0  0  0  0  0  0
   11.3015    4.5253   22.6358 C   0  0  0  0  0  0  0  0  0  0  0  0
   12.6487    4.7138   22.4179 C   0  0  0  0  0  0  0  0  0  0  0  0
   13.4715    3.6106   22.4396 C   0  0  0  0  0  0  0  0  0  0  0  0
   13.0414    2.3610   22.6608 N   0  0  0  0  0  0  0  0  0  0  0  0
  1  2  1  0
  2  3  1  0
  3  4  2  0
  4  5  1  0
  5  6  2  0
  6  7  1  0
  7  8  2  0
  8  9  1  0
  9 10  2  0
 10 11  1  0
  1 12  1  0
 12 13  2  0
 13 14  1  0
 14 15  2  0
 15 16  1  0
 16 17  2  0
 17 18  1  0
 18 19  1  0
 19 20  2  0
 20 21  1  0
 21 22  2  0
 22 23  1  0
 23 24  2  0
 11  3  1  0
 17 12  1  0
 24 19  1  0
 10  5  1  0
M  END
