CVD-0002608|dock_bobby27042020.33|mol2|34|dock2
     RDKit          3D

 30 32  0  0  0  0  0  0  0  0999 V2000
   13.5058   -0.4465   22.7781 C   0  0  0  0  0  0  0  0  0  0  0  0
   12.4105    0.5613   22.5436 C   0  0  0  0  0  0  0  0  0  0  0  0
   12.7147    1.9147   22.6550 C   0  0  0  0  0  0  0  0  0  0  0  0
   11.7661    2.9054   22.4499 C   0  0  0  0  0  0  0  0  0  0  0  0
   12.1345    4.3637   22.5849 C   0  0  0  0  0  0  0  0  0  0  0  0
   11.6863    4.9643   23.8498 N   0  0  0  0  0  0  0  0  0  0  0  0
   10.4731    5.7594   23.6382 C   0  0  0  0  0  0  0  0  0  0  0  0
    9.9917    6.3431   24.9535 C   0  0  0  0  0  0  0  0  0  0  0  0
   11.0383    7.1686   25.5604 N   0  0  0  0  0  0  0  0  0  0  0  0
   12.2859    6.4175   25.7304 C   0  0  0  0  0  0  0  0  0  0  0  0
   12.7285    5.8237   24.4055 C   0  0  0  0  0  0  0  0  0  0  0  0
   10.8362    8.4488   25.9317 C   0  0  0  0  0  0  0  0  0  0  0  0
    9.7529    9.0020   25.7906 O   0  0  0  0  0  0  0  0  0  0  0  0
   12.0261    9.1720   26.5311 C   0  0  0  0  0  0  0  0  0  0  0  0
   11.6144   10.8322   26.9803 Cl  0  0  0  0  0  0  0  0  0  0  0  0
   10.4763    2.5218   22.1247 C   0  0  0  0  0  0  0  0  0  0  0  0
   10.1347    1.1864   22.0035 C   0  0  0  0  0  0  0  0  0  0  0  0
   11.0947    0.1959   22.2115 C   0  0  0  0  0  0  0  0  0  0  0  0
   10.7614   -1.1348   22.0929 N   0  0  0  0  0  0  0  0  0  0  0  0
    9.4244   -1.6636   22.3081 C   0  0  0  0  0  0  0  0  0  0  0  0
    9.4232   -2.9569   23.0988 C   0  0  0  0  0  0  0  0  0  0  0  0
    8.2424   -3.7922   22.8551 N   0  0  0  0  0  0  0  0  0  0  0  0
    8.2328   -5.0503   23.6471 C   0  0  0  0  0  0  0  0  0  0  0  0
    6.9430   -5.7512   23.6129 N   0  0  0  0  0  0  0  0  0  0  0  0
    6.5645   -6.0809   22.2337 C   0  0  0  0  0  0  0  0  0  0  0  0
    5.2613   -6.8535   22.1768 C   0  0  0  0  0  0  0  0  0  0  0  0
    4.1119   -6.1193   22.8565 C   0  0  0  0  0  0  0  0  0  0  0  0
    2.9028   -6.8796   22.9297 O   0  0  0  0  0  0  0  0  0  0  0  0
    4.5663   -5.6994   24.2501 C   0  0  0  0  0  0  0  0  0  0  0  0
    5.8845   -4.9438   24.2253 C   0  0  0  0  0  0  0  0  0  0  0  0
  1  2  1  0
  2  3  2  0
  3  4  1  0
  4  5  1  0
  5  6  1  0
  6  7  1  0
  7  8  1  0
  8  9  1  0
  9 10  1  0
 10 11  1  0
  9 12  1  0
 12 13  2  0
 12 14  1  0
 14 15  1  0
  4 16  2  0
 16 17  1  0
 17 18  2  0
 18 19  1  0
 19 20  1  0
 20 21  1  0
 21 22  1  0
 22 23  1  0
 23 24  1  0
 24 25  1  0
 25 26  1  0
 26 27  1  0
 27 28  1  0
 27 29  1  0
 29 30  1  0
 18  2  1  0
 30 24  1  0
 11  6  1  0
M  END
