CVD-0001637|dock_bobby27042020.23|mol2|18|dock2
     RDKit          3D

 25 27  0  0  0  0  0  0  0  0999 V2000
    3.3707    2.2467   20.1503 C   0  0  0  0  0  0  0  0  0  0  0  0
    4.4053    1.2866   19.6103 C   0  0  0  0  0  0  0  0  0  0  0  0
    4.9523    1.8937   18.4401 O   0  0  0  0  0  0  0  0  0  0  0  0
    5.8487    1.0100   17.7944 C   0  0  0  0  0  0  0  0  0  0  0  0
    6.9761    0.6102   18.6912 C   0  0  0  0  0  0  0  0  0  0  0  0
    6.4427    0.0238   19.9238 N   0  0  0  0  0  0  0  0  0  0  0  0
    5.4770    0.9048   20.5879 C   0  0  0  0  0  0  0  0  0  0  0  0
    6.1853    2.0759   21.2542 C   0  0  0  0  0  0  0  0  0  0  0  0
    6.7781   -1.2388   20.4352 C   0  0  0  0  0  0  0  0  0  0  0  0
    6.0407   -2.3685   20.1218 C   0  0  0  0  0  0  0  0  0  0  0  0
    6.3506   -3.5946   20.5562 N   0  0  0  0  0  0  0  0  0  0  0  0
    7.4442   -3.7423   21.3281 C   0  0  0  0  0  0  0  0  0  0  0  0
    7.7513   -5.1258   21.6222 C   0  0  0  0  0  0  0  0  0  0  0  0
    8.0122   -6.2048   21.8914 N   0  0  0  0  0  0  0  0  0  0  0  0
    8.2116   -2.6534   21.7803 C   0  0  0  0  0  0  0  0  0  0  0  0
    7.8680   -1.3956   21.2838 C   0  0  0  0  0  0  0  0  0  0  0  0
    9.3761   -2.6651   22.7342 C   0  0  0  0  0  0  0  0  0  0  0  0
    9.1562   -2.9920   23.8958 O   0  0  0  0  0  0  0  0  0  0  0  0
   10.6079   -2.3303   22.2617 N   0  0  0  0  0  0  0  0  0  0  0  0
   11.8602   -2.2325   22.9213 C   0  0  0  0  0  0  0  0  0  0  0  0
   12.8398   -1.2938   22.6019 C   0  0  0  0  0  0  0  0  0  0  0  0
   14.0337   -1.2653   23.3039 C   0  0  0  0  0  0  0  0  0  0  0  0
   14.2711   -2.1640   24.3203 C   0  0  0  0  0  0  0  0  0  0  0  0
   13.3125   -3.0992   24.6404 C   0  0  0  0  0  0  0  0  0  0  0  0
   12.1145   -3.1359   23.9474 C   0  0  0  0  0  0  0  0  0  0  0  0
  1  2  1  0
  2  3  1  0
  3  4  1  0
  4  5  1  0
  5  6  1  0
  6  7  1  0
  7  8  1  0
  6  9  1  0
  9 10  2  0
 10 11  1  0
 11 12  2  0
 12 13  1  0
 13 14  3  0
 12 15  1  0
 15 16  2  0
 15 17  1  0
 17 18  2  0
 17 19  1  0
 19 20  1  0
 20 21  2  0
 21 22  1  0
 22 23  2  0
 23 24  1  0
 24 25  2  0
  7  2  1  0
 16  9  1  0
 25 20  1  0
M  END
