CVD-0001310|dock_bobby27042020.38|mol2|32|dock2
     RDKit          3D

 16 17  0  0  0  0  0  0  0  0999 V2000
   14.1257   -2.5554   23.7585 F   0  0  0  0  0  0  0  0  0  0  0  0
   13.8369   -1.5433   22.8691 C   0  0  0  0  0  0  0  0  0  0  0  0
   12.2950   -0.7408   23.2256 S   0  0  0  0  0  0  0  0  0  0  0  0
   11.1890   -2.0951   23.0651 C   0  0  0  0  0  0  0  0  0  0  0  0
   11.5576   -3.2409   23.0844 O   0  0  0  0  0  0  0  0  0  0  0  0
    9.7595   -1.6386   22.8981 C   0  0  0  0  0  0  0  0  0  0  0  0
    9.6173   -0.7276   21.6850 C   0  0  0  0  0  0  0  0  0  0  0  0
    8.1739   -0.3057   21.5022 C   0  0  0  0  0  0  0  0  0  0  0  0
    7.3231   -1.4850   21.3662 N   0  0  0  0  0  0  0  0  0  0  0  0
    7.3852   -2.3624   22.5301 C   0  0  0  0  0  0  0  0  0  0  0  0
    8.8188   -2.8327   22.7527 C   0  0  0  0  0  0  0  0  0  0  0  0
    6.3594   -1.6559   20.4414 C   0  0  0  0  0  0  0  0  0  0  0  0
    5.7527   -2.7063   20.3533 O   0  0  0  0  0  0  0  0  0  0  0  0
    6.0368   -0.5110   19.5033 C   0  0  0  0  0  0  0  0  0  0  0  0
    5.7315   -1.0564   18.1528 C   0  0  0  0  0  0  0  0  0  0  0  0
    6.9353   -0.2221   18.3438 C   0  0  0  0  0  0  0  0  0  0  0  0
  1  2  1  0
  2  3  1  0
  3  4  1  0
  4  5  2  0
  4  6  1  0
  6  7  1  0
  7  8  1  0
  8  9  1  0
  9 10  1  0
 10 11  1  0
  9 12  1  0
 12 13  2  0
 12 14  1  0
 14 15  1  0
 15 16  1  0
 11  6  1  0
 16 14  1  0
M  END
