CVD-0001046|dock_bobby27042020.68|mol2|20|dock2
     RDKit          3D

 30 33  0  0  0  0  0  0  0  0999 V2000
   14.2761    6.3493   22.7164 O   0  0  0  0  0  0  0  0  0  0  0  0
   13.2022    6.1938   23.2942 N   0  0  0  0  0  0  0  0  0  0  0  0
   12.7302    6.9923   24.0857 O   0  0  0  0  0  0  0  0  0  0  0  0
   12.4392    4.9702   23.0145 C   0  0  0  0  0  0  0  0  0  0  0  0
   13.1102    3.8023   22.7016 C   0  0  0  0  0  0  0  0  0  0  0  0
   12.3969    2.6613   22.3878 C   0  0  0  0  0  0  0  0  0  0  0  0
   11.0043    2.6834   22.3824 C   0  0  0  0  0  0  0  0  0  0  0  0
   10.3236    3.8449   22.8113 C   0  0  0  0  0  0  0  0  0  0  0  0
   11.0560    4.9998   23.0716 C   0  0  0  0  0  0  0  0  0  0  0  0
    8.8832    3.9102   23.0158 N   0  0  0  0  0  0  0  0  0  0  0  0
    8.2929    2.8580   23.2520 O   0  0  0  0  0  0  0  0  0  0  0  0
    8.2953    4.9696   22.8883 O   0  0  0  0  0  0  0  0  0  0  0  0
   10.3799    1.4746   21.9268 N   0  0  0  0  0  0  0  0  0  0  0  0
    9.2264    1.6442   21.1788 N   0  0  0  0  0  0  0  0  0  0  0  0
    8.8430    0.4098   20.8384 C   0  0  0  0  0  0  0  0  0  0  0  0
    9.7139   -0.5500   21.3744 C   0  0  0  0  0  0  0  0  0  0  0  0
   10.6803    0.1385   22.0811 C   0  0  0  0  0  0  0  0  0  0  0  0
   11.7950   -0.4749   22.8360 C   0  0  0  0  0  0  0  0  0  0  0  0
   12.4228   -1.6010   22.3139 C   0  0  0  0  0  0  0  0  0  0  0  0
   13.4873   -2.1964   22.9667 C   0  0  0  0  0  0  0  0  0  0  0  0
   13.9112   -1.6523   24.1474 C   0  0  0  0  0  0  0  0  0  0  0  0
   14.9676   -2.2230   24.7870 F   0  0  0  0  0  0  0  0  0  0  0  0
   13.3152   -0.5586   24.7122 C   0  0  0  0  0  0  0  0  0  0  0  0
   12.2416    0.0196   24.0581 C   0  0  0  0  0  0  0  0  0  0  0  0
    7.6444    0.2051   20.0102 C   0  0  0  0  0  0  0  0  0  0  0  0
    7.4744   -0.9525   19.2620 C   0  0  0  0  0  0  0  0  0  0  0  0
    6.3330   -1.1085   18.4952 C   0  0  0  0  0  0  0  0  0  0  0  0
    5.3957   -0.1004   18.5004 C   0  0  0  0  0  0  0  0  0  0  0  0
    5.5312    1.0222   19.2084 N   0  0  0  0  0  0  0  0  0  0  0  0
    6.6387    1.1583   19.9440 C   0  0  0  0  0  0  0  0  0  0  0  0
  1  2  1  0
  2  3  2  0
  2  4  1  0
  4  5  2  0
  5  6  1  0
  6  7  2  0
  7  8  1  0
  8  9  2  0
  8 10  1  0
 10 11  1  0
 10 12  2  0
  7 13  1  0
 13 14  1  0
 14 15  2  0
 15 16  1  0
 16 17  2  0
 17 18  1  0
 18 19  2  0
 19 20  1  0
 20 21  2  0
 21 22  1  0
 21 23  1  0
 23 24  2  0
 15 25  1  0
 25 26  2  0
 26 27  1  0
 27 28  2  0
 28 29  1  0
 29 30  2  0
  9  4  1  0
 17 13  1  0
 24 18  1  0
 30 25  1  0
M  CHG  4   1  -1   2   1  10   1  11  -1
M  END
