CVD-0000186|dock_bobby27042020.85|mol2|16|dock2
     RDKit          3D

 24 26  0  0  0  0  0  0  0  0999 V2000
    6.0442   -7.2603   29.6134 C   0  0  0  0  0  0  0  0  0  0  0  0
    5.8433   -7.0423   28.2184 O   0  0  0  0  0  0  0  0  0  0  0  0
    6.8026   -6.4042   27.4722 C   0  0  0  0  0  0  0  0  0  0  0  0
    6.4110   -5.7813   26.2991 C   0  0  0  0  0  0  0  0  0  0  0  0
    7.3431   -5.1259   25.5148 C   0  0  0  0  0  0  0  0  0  0  0  0
    8.6746   -5.0891   25.8988 C   0  0  0  0  0  0  0  0  0  0  0  0
    9.0642   -5.7137   27.0740 C   0  0  0  0  0  0  0  0  0  0  0  0
    8.1346   -6.3704   27.8613 C   0  0  0  0  0  0  0  0  0  0  0  0
    9.6386   -4.4124   25.0896 N   0  0  0  0  0  0  0  0  0  0  0  0
    9.4613   -3.3860   24.2308 C   0  0  0  0  0  0  0  0  0  0  0  0
   10.6996   -3.1254   23.7243 C   0  0  0  0  0  0  0  0  0  0  0  0
   11.1368   -2.0991   22.7275 C   0  0  0  0  0  0  0  0  0  0  0  0
   12.0181   -1.0856   23.3123 N   0  0  0  0  0  0  0  0  0  0  0  0
   11.2584   -0.1904   24.1898 C   0  0  0  0  0  0  0  0  0  0  0  0
   12.1829    0.8317   24.8248 C   0  0  0  0  0  0  0  0  0  0  0  0
   12.8775    1.6043   23.7925 N   0  0  0  0  0  0  0  0  0  0  0  0
   13.5995    0.7319   22.8612 C   0  0  0  0  0  0  0  0  0  0  0  0
   12.6563   -0.2957   22.2626 C   0  0  0  0  0  0  0  0  0  0  0  0
   12.8582    2.9578   23.7507 C   0  0  0  0  0  0  0  0  0  0  0  0
   12.2554    3.6146   24.5903 O   0  0  0  0  0  0  0  0  0  0  0  0
   13.5979    3.6589   22.6271 C   0  0  0  0  0  0  0  0  0  0  0  0
   13.5134    5.4147   22.8193 Cl  0  0  0  0  0  0  0  0  0  0  0  0
   11.5816   -3.9930   24.2852 N   0  0  0  0  0  0  0  0  0  0  0  0
   10.9414   -4.7817   25.1197 N   0  0  0  0  0  0  0  0  0  0  0  0
  1  2  1  0
  2  3  1  0
  3  4  2  0
  4  5  1  0
  5  6  2  0
  6  7  1  0
  7  8  2  0
  6  9  1  0
  9 10  1  0
 10 11  2  0
 11 12  1  0
 12 13  1  0
 13 14  1  0
 14 15  1  0
 15 16  1  0
 16 17  1  0
 17 18  1  0
 16 19  1  0
 19 20  2  0
 19 21  1  0
 21 22  1  0
 11 23  1  0
 23 24  2  0
  8  3  1  0
 24  9  1  0
 18 13  1  0
M  END
