CVD-0000623|dock_bobby27042020.98|mol2|3|dock3
     RDKit          3D

 24 26  0  0  0  0  0  0  0  0999 V2000
    9.4607    0.2358   22.3998 O   0  0  0  0  0  0  0  0  0  0  0  0
    9.8678   -0.5036   21.5100 C   0  0  0  0  0  0  0  0  0  0  0  0
   11.1517   -1.2981   21.6474 C   0  0  0  0  0  0  0  0  0  0  0  0
   12.1068   -0.9014   22.8028 C   0  0  0  0  0  0  0  0  0  0  0  0
   11.3870   -1.2825   24.0940 C   0  0  0  0  0  0  0  0  0  0  0  0
   12.2923   -1.1019   25.2961 C   0  0  0  0  0  0  0  0  0  0  0  0
   13.5782   -1.9004   25.1473 C   0  0  0  0  0  0  0  0  0  0  0  0
   14.2970   -1.5362   23.8585 C   0  0  0  0  0  0  0  0  0  0  0  0
   13.3908   -1.7037   22.6454 C   0  0  0  0  0  0  0  0  0  0  0  0
   12.2977    0.5515   22.8892 C   0  0  0  0  0  0  0  0  0  0  0  0
   12.4577    1.7344   22.8970 C   0  0  0  0  0  0  0  0  0  0  0  0
   12.6457    3.1588   22.8162 C   0  0  0  0  0  0  0  0  0  0  0  0
   11.6109    4.0218   23.1686 C   0  0  0  0  0  0  0  0  0  0  0  0
   11.9231    5.3633   23.0452 C   0  0  0  0  0  0  0  0  0  0  0  0
   13.0992    5.8349   22.6295 N   0  0  0  0  0  0  0  0  0  0  0  0
   14.0001    4.9098   22.3246 C   0  0  0  0  0  0  0  0  0  0  0  0
   13.8477    3.5885   22.3919 N   0  0  0  0  0  0  0  0  0  0  0  0
    9.2452   -0.7037   20.3229 N   0  0  0  0  0  0  0  0  0  0  0  0
    8.0437   -0.1681   19.7961 C   0  0  0  0  0  0  0  0  0  0  0  0
    7.0216    0.3646   20.5755 C   0  0  0  0  0  0  0  0  0  0  0  0
    5.8879    0.8623   19.9563 C   0  0  0  0  0  0  0  0  0  0  0  0
    5.8057    0.8148   18.5838 C   0  0  0  0  0  0  0  0  0  0  0  0
    6.7679    0.3107   17.8115 N   0  0  0  0  0  0  0  0  0  0  0  0
    7.8581   -0.1670   18.4184 C   0  0  0  0  0  0  0  0  0  0  0  0
  1  2  2  0
  2  3  1  0
  3  4  1  0
  4  5  1  0
  5  6  1  0
  6  7  1  0
  7  8  1  0
  8  9  1  0
  4 10  1  0
 10 11  3  0
 11 12  1  0
 12 13  2  0
 13 14  1  0
 14 15  2  0
 15 16  1  0
 16 17  2  0
  2 18  1  0
 18 19  1  0
 19 20  2  0
 20 21  1  0
 21 22  2  0
 22 23  1  0
 23 24  2  0
  9  4  1  0
 17 12  1  0
 24 19  1  0
M  END
