CVD-0000808|dock_bobby27042020.97|mol2|24|dock1
     RDKit          3D

 31 34  0  0  0  0  0  0  0  0999 V2000
   14.1923    5.6801   21.9491 C   0  0  0  0  0  0  0  0  0  0  0  0
   13.3999    5.3299   23.1817 C   0  0  0  0  0  0  0  0  0  0  0  0
   12.1285    4.5585   22.8851 C   0  0  0  0  0  0  0  0  0  0  0  0
   12.1745    3.1818   22.6855 C   0  0  0  0  0  0  0  0  0  0  0  0
   11.0242    2.4603   22.4086 C   0  0  0  0  0  0  0  0  0  0  0  0
   11.0009    1.1049   22.1991 O   0  0  0  0  0  0  0  0  0  0  0  0
   12.0117    0.2294   22.7586 C   0  0  0  0  0  0  0  0  0  0  0  0
   11.7718   -1.2363   22.3423 C   0  0  0  0  0  0  0  0  0  0  0  0
   12.7790   -2.1945   22.9753 C   0  0  0  0  0  0  0  0  0  0  0  0
   12.8082   -2.0464   24.4911 C   0  0  0  0  0  0  0  0  0  0  0  0
   13.0769   -0.6043   24.8969 C   0  0  0  0  0  0  0  0  0  0  0  0
   12.0434    0.3406   24.2925 C   0  0  0  0  0  0  0  0  0  0  0  0
    9.7938    3.1217   22.3245 C   0  0  0  0  0  0  0  0  0  0  0  0
    8.4453    2.6838   22.0526 C   0  0  0  0  0  0  0  0  0  0  0  0
    7.6686    3.7981   22.1058 C   0  0  0  0  0  0  0  0  0  0  0  0
    8.4249    4.8972   22.4005 N   0  0  0  0  0  0  0  0  0  0  0  0
    7.9069    6.2520   22.5054 C   0  0  0  0  0  0  0  0  0  0  0  0
    7.2601    6.4964   23.7898 N   0  0  0  0  0  0  0  0  0  0  0  0
    8.1705    6.1730   24.8822 C   0  0  0  0  0  0  0  0  0  0  0  0
    6.8469    7.8912   23.8918 C   0  0  0  0  0  0  0  0  0  0  0  0
    9.7510    4.5070   22.5299 C   0  0  0  0  0  0  0  0  0  0  0  0
   10.9092    5.2223   22.8054 C   0  0  0  0  0  0  0  0  0  0  0  0
    7.9083    1.0216   21.7060 S   0  0  0  0  0  0  0  0  0  0  0  0
    8.9478    0.3507   20.9742 O   0  0  0  0  0  0  0  0  0  0  0  0
    7.4318    0.4328   22.9276 O   0  0  0  0  0  0  0  0  0  0  0  0
    6.5298    1.2323   20.6273 C   0  0  0  0  0  0  0  0  0  0  0  0
    5.2781    1.4935   21.1607 C   0  0  0  0  0  0  0  0  0  0  0  0
    4.2007    1.6526   20.3053 C   0  0  0  0  0  0  0  0  0  0  0  0
    4.3718    1.5510   18.9411 C   0  0  0  0  0  0  0  0  0  0  0  0
    5.6208    1.2888   18.4193 C   0  0  0  0  0  0  0  0  0  0  0  0
    6.7108    1.1265   19.2579 C   0  0  0  0  0  0  0  0  0  0  0  0
  1  2  1  0
  2  3  1  0
  3  4  2  0
  4  5  1  0
  5  6  1  0
  6  7  1  0
  7  8  1  0
  8  9  1  0
  9 10  1  0
 10 11  1  0
 11 12  1  0
  5 13  2  0
 13 14  1  0
 14 15  2  0
 15 16  1  0
 16 17  1  0
 17 18  1  0
 18 19  1  0
 18 20  1  0
 16 21  1  0
 21 22  2  0
 14 23  1  0
 23 24  2  0
 23 25  2  0
 23 26  1  0
 26 27  2  0
 27 28  1  0
 28 29  2  0
 29 30  1  0
 30 31  2  0
 22  3  1  0
 31 26  1  0
 12  7  1  0
 21 13  1  0
M  END
