CVD-0001198|dock_bobby27042020.10|mol2|27|dock2
     RDKit          3D

 27 29  0  0  0  0  0  0  0  0999 V2000
    5.3008    1.5980   18.7299 C   0  0  0  0  0  0  0  0  0  0  0  0
    5.6255    0.1798   18.3628 C   0  0  0  0  0  0  0  0  0  0  0  0
    5.7877   -0.1684   17.1975 O   0  0  0  0  0  0  0  0  0  0  0  0
    5.7109   -0.6843   19.3761 N   0  0  0  0  0  0  0  0  0  0  0  0
    6.0013   -2.0974   19.1802 C   0  0  0  0  0  0  0  0  0  0  0  0
    6.4078   -2.7756   20.4733 C   0  0  0  0  0  0  0  0  0  0  0  0
    7.8228   -2.4758   20.8731 C   0  0  0  0  0  0  0  0  0  0  0  0
    8.6887   -1.6132   20.2687 C   0  0  0  0  0  0  0  0  0  0  0  0
    9.8909   -1.6091   20.9218 N   0  0  0  0  0  0  0  0  0  0  0  0
    9.8222   -2.4840   21.9785 C   0  0  0  0  0  0  0  0  0  0  0  0
   10.7830   -2.8282   22.9390 C   0  0  0  0  0  0  0  0  0  0  0  0
   12.0259   -2.1896   22.8500 N   0  0  0  0  0  0  0  0  0  0  0  0
   12.3656   -0.8261   22.7337 C   0  0  0  0  0  0  0  0  0  0  0  0
   11.4436    0.2069   22.8696 C   0  0  0  0  0  0  0  0  0  0  0  0
   11.8422    1.5294   22.7800 C   0  0  0  0  0  0  0  0  0  0  0  0
   13.1709    1.8548   22.5238 C   0  0  0  0  0  0  0  0  0  0  0  0
   13.6409    3.1879   22.4228 N   0  0  0  0  0  0  0  0  0  0  0  0
   12.9916    4.3634   22.2192 C   0  0  0  0  0  0  0  0  0  0  0  0
   13.8953    5.5611   22.1993 C   0  0  0  0  0  0  0  0  0  0  0  0
   11.7798    4.4848   22.0752 O   0  0  0  0  0  0  0  0  0  0  0  0
   14.0841    0.8216   22.3570 C   0  0  0  0  0  0  0  0  0  0  0  0
   13.6872   -0.4993   22.4591 C   0  0  0  0  0  0  0  0  0  0  0  0
   10.4391   -3.7798   23.8978 C   0  0  0  0  0  0  0  0  0  0  0  0
    9.1702   -4.3092   23.8818 C   0  0  0  0  0  0  0  0  0  0  0  0
    8.8511   -5.2210   24.8397 F   0  0  0  0  0  0  0  0  0  0  0  0
    8.2035   -3.9805   22.9628 C   0  0  0  0  0  0  0  0  0  0  0  0
    8.5331   -3.0503   21.9799 C   0  0  0  0  0  0  0  0  0  0  0  0
  1  2  1  0
  2  3  2  0
  2  4  1  0
  4  5  1  0
  5  6  1  0
  6  7  1  0
  7  8  2  0
  8  9  1  0
  9 10  1  0
 10 11  2  0
 11 12  1  0
 12 13  1  0
 13 14  2  0
 14 15  1  0
 15 16  2  0
 16 17  1  0
 17 18  1  0
 18 19  1  0
 18 20  2  0
 16 21  1  0
 21 22  2  0
 11 23  1  0
 23 24  2  0
 24 25  1  0
 24 26  1  0
 26 27  2  0
 27  7  1  0
 27 10  1  0
 22 13  1  0
M  END
