CVD-0001765|dock_bobby27042020.80|mol2|10|dock1
     RDKit          3D

 26 27  0  0  0  0  0  0  0  0999 V2000
   10.2626    2.4376   25.4261 C   0  0  0  0  0  0  0  0  0  0  0  0
   10.3933    1.1103   26.1052 C   0  0  0  0  0  0  0  0  0  0  0  0
   10.0810    0.0179   25.1987 N   0  0  0  0  0  0  0  0  0  0  0  0
   10.9457   -0.4482   24.2833 C   0  0  0  0  0  0  0  0  0  0  0  0
   12.1107    0.2211   24.1663 N   0  0  0  0  0  0  0  0  0  0  0  0
   12.9635   -0.1300   23.1982 C   0  0  0  0  0  0  0  0  0  0  0  0
   12.7363   -1.1753   22.3131 C   0  0  0  0  0  0  0  0  0  0  0  0
   11.5660   -1.9099   22.4584 C   0  0  0  0  0  0  0  0  0  0  0  0
   10.6670   -1.5709   23.4655 C   0  0  0  0  0  0  0  0  0  0  0  0
    9.4892   -2.3856   23.6340 N   0  0  0  0  0  0  0  0  0  0  0  0
    9.3891   -3.1080   24.9154 C   0  0  0  0  0  0  0  0  0  0  0  0
   10.0491   -4.4776   24.8721 C   0  0  0  0  0  0  0  0  0  0  0  0
    9.8009   -5.2839   26.0999 C   0  0  0  0  0  0  0  0  0  0  0  0
   10.2762   -6.4390   26.2240 N   0  0  0  0  0  0  0  0  0  0  0  0
    9.0536   -4.7019   27.0120 N   0  0  0  0  0  0  0  0  0  0  0  0
    8.5260   -2.5335   22.6278 C   0  0  0  0  0  0  0  0  0  0  0  0
    7.6113   -3.3192   22.8383 O   0  0  0  0  0  0  0  0  0  0  0  0
    8.6233   -1.8235   21.4524 N   0  0  0  0  0  0  0  0  0  0  0  0
    7.7789   -1.8250   20.3111 C   0  0  0  0  0  0  0  0  0  0  0  0
    6.6961   -2.6776   20.1079 C   0  0  0  0  0  0  0  0  0  0  0  0
    5.9548   -2.5691   18.9438 C   0  0  0  0  0  0  0  0  0  0  0  0
    6.3093   -1.6183   18.0153 C   0  0  0  0  0  0  0  0  0  0  0  0
    7.3386   -0.7885   18.1794 N   0  0  0  0  0  0  0  0  0  0  0  0
    8.0471   -0.9017   19.3064 C   0  0  0  0  0  0  0  0  0  0  0  0
   13.6840   -1.4949   21.2742 C   0  0  0  0  0  0  0  0  0  0  0  0
   14.4114   -1.7670   20.4366 N   0  0  0  0  0  0  0  0  0  0  0  0
  1  2  1  0
  2  3  1  0
  3  4  1  0
  4  5  2  0
  5  6  1  0
  6  7  2  0
  7  8  1  0
  8  9  2  0
  9 10  1  0
 10 11  1  0
 11 12  1  0
 12 13  1  0
 13 14  1  0
 13 15  2  0
 10 16  1  0
 16 17  2  0
 16 18  1  0
 18 19  1  0
 19 20  2  0
 20 21  1  0
 21 22  2  0
 22 23  1  0
 23 24  2  0
  7 25  1  0
 25 26  3  0
  9  4  1  0
 24 19  1  0
M  END
