CVD-0002688|dock_bobby27042020.33|mol2|21|dock3
     RDKit          3D

 35 38  0  0  0  0  0  0  0  0999 V2000
    9.6941    0.7548   23.2506 O   0  0  0  0  0  0  0  0  0  0  0  0
   10.3397    0.2503   22.3357 C   0  0  0  0  0  0  0  0  0  0  0  0
    9.8949   -0.7856   21.6188 N   0  0  0  0  0  0  0  0  0  0  0  0
    8.5996   -1.3928   21.8774 C   0  0  0  0  0  0  0  0  0  0  0  0
    7.9821   -1.9488   20.5851 C   0  0  0  0  0  0  0  0  0  0  0  0
    7.3035   -0.8938   19.7455 C   0  0  0  0  0  0  0  0  0  0  0  0
    5.9612   -0.5985   19.9273 C   0  0  0  0  0  0  0  0  0  0  0  0
    5.3391    0.3716   19.1592 C   0  0  0  0  0  0  0  0  0  0  0  0
    6.0527    1.0584   18.2007 C   0  0  0  0  0  0  0  0  0  0  0  0
    7.3881    0.7755   18.0107 C   0  0  0  0  0  0  0  0  0  0  0  0
    8.0098   -0.1947   18.7790 C   0  0  0  0  0  0  0  0  0  0  0  0
    8.7643   -2.5285   22.8822 C   0  0  0  0  0  0  0  0  0  0  0  0
    8.9239   -3.6842   22.5294 O   0  0  0  0  0  0  0  0  0  0  0  0
    8.7353   -2.1600   24.3783 C   0  0  0  0  0  0  0  0  0  0  0  0
    8.9292   -1.0049   24.7540 O   0  0  0  0  0  0  0  0  0  0  0  0
    8.4878   -3.1796   25.1992 N   0  0  0  0  0  0  0  0  0  0  0  0
    8.4239   -3.0124   26.6437 C   0  0  0  0  0  0  0  0  0  0  0  0
    7.8006   -4.1932   27.3442 C   0  0  0  0  0  0  0  0  0  0  0  0
    8.5397   -5.3225   27.6544 C   0  0  0  0  0  0  0  0  0  0  0  0
    7.9078   -6.3703   28.3012 C   0  0  0  0  0  0  0  0  0  0  0  0
    6.5711   -6.2657   28.6188 C   0  0  0  0  0  0  0  0  0  0  0  0
    5.9134   -5.1069   28.2743 C   0  0  0  0  0  0  0  0  0  0  0  0
    6.5006   -4.0780   27.6486 N   0  0  0  0  0  0  0  0  0  0  0  0
   11.7151    0.7943   21.9633 C   0  0  0  0  0  0  0  0  0  0  0  0
   12.8536   -0.1970   22.2924 C   0  0  0  0  0  0  0  0  0  0  0  0
   13.7932    0.5145   23.2041 C   0  0  0  0  0  0  0  0  0  0  0  0
   13.5294    1.9849   22.9821 C   0  0  0  0  0  0  0  0  0  0  0  0
   12.0877    1.9975   22.7416 N   0  0  0  0  0  0  0  0  0  0  0  0
   11.6115    3.2566   22.1547 C   0  0  0  0  0  0  0  0  0  0  0  0
   12.1107    4.4633   22.9119 C   0  0  0  0  0  0  0  0  0  0  0  0
   13.0771    5.3000   22.3794 C   0  0  0  0  0  0  0  0  0  0  0  0
   13.4945    6.3882   23.1260 C   0  0  0  0  0  0  0  0  0  0  0  0
   12.9443    6.6105   24.3694 C   0  0  0  0  0  0  0  0  0  0  0  0
   11.9901    5.7276   24.8216 C   0  0  0  0  0  0  0  0  0  0  0  0
   11.5684    4.6671   24.1202 N   0  0  0  0  0  0  0  0  0  0  0  0
  1  2  2  0
  2  3  1  0
  3  4  1  0
  4  5  1  0
  5  6  1  0
  6  7  2  0
  7  8  1  0
  8  9  2  0
  9 10  1  0
 10 11  2  0
  4 12  1  0
 12 13  2  0
 12 14  1  0
 14 15  2  0
 14 16  1  0
 16 17  1  0
 17 18  1  0
 18 19  2  0
 19 20  1  0
 20 21  2  0
 21 22  1  0
 22 23  2  0
  2 24  1  0
 24 25  1  0
 25 26  1  0
 26 27  1  0
 27 28  1  0
 28 29  1  0
 29 30  1  0
 30 31  2  0
 31 32  1  0
 32 33  2  0
 33 34  1  0
 34 35  2  0
 11  6  1  0
 23 18  1  0
 28 24  1  0
 35 30  1  0
M  END
