CVD-0000197|dock_bobby27042020.28|mol2|11|dock3
     RDKit          3D

 27 31  0  0  0  0  0  0  0  0999 V2000
    8.1871   -1.8407   23.6859 O   0  0  0  0  0  0  0  0  0  0  0  0
    9.4506   -1.2539   23.5892 C   0  0  0  0  0  0  0  0  0  0  0  0
    9.8481   -0.2499   24.4603 C   0  0  0  0  0  0  0  0  0  0  0  0
   11.0844    0.3104   24.3490 C   0  0  0  0  0  0  0  0  0  0  0  0
   11.9911   -0.1159   23.3502 C   0  0  0  0  0  0  0  0  0  0  0  0
   13.2852    0.4362   23.1960 C   0  0  0  0  0  0  0  0  0  0  0  0
   14.1197   -0.0126   22.2157 C   0  0  0  0  0  0  0  0  0  0  0  0
   13.7220   -1.0134   21.3538 C   0  0  0  0  0  0  0  0  0  0  0  0
   12.4850   -1.5761   21.4623 C   0  0  0  0  0  0  0  0  0  0  0  0
   11.5828   -1.1441   22.4634 C   0  0  0  0  0  0  0  0  0  0  0  0
   10.2916   -1.7024   22.6077 C   0  0  0  0  0  0  0  0  0  0  0  0
    7.4881   -2.2364   22.5856 C   0  0  0  0  0  0  0  0  0  0  0  0
    7.1055   -1.3363   21.7136 N   0  0  0  0  0  0  0  0  0  0  0  0
    6.4306   -1.7668   20.6389 C   0  0  0  0  0  0  0  0  0  0  0  0
    6.0989   -3.0249   20.3610 N   0  0  0  0  0  0  0  0  0  0  0  0
    6.4822   -3.9707   21.2738 C   0  0  0  0  0  0  0  0  0  0  0  0
    6.1541   -5.3278   21.0462 C   0  0  0  0  0  0  0  0  0  0  0  0
    6.5225   -6.2864   21.9445 C   0  0  0  0  0  0  0  0  0  0  0  0
    7.2192   -5.9580   23.0898 C   0  0  0  0  0  0  0  0  0  0  0  0
    7.5585   -4.6636   23.3503 C   0  0  0  0  0  0  0  0  0  0  0  0
    7.2007   -3.6310   22.4467 C   0  0  0  0  0  0  0  0  0  0  0  0
    6.0083   -0.7417   19.6565 C   0  0  0  0  0  0  0  0  0  0  0  0
    5.8076    0.5812   20.0321 C   0  0  0  0  0  0  0  0  0  0  0  0
    5.4130    1.5137   19.0890 C   0  0  0  0  0  0  0  0  0  0  0  0
    5.2291    1.0961   17.7906 C   0  0  0  0  0  0  0  0  0  0  0  0
    5.4126   -0.1646   17.3956 N   0  0  0  0  0  0  0  0  0  0  0  0
    5.7936   -1.0514   18.3202 C   0  0  0  0  0  0  0  0  0  0  0  0
  1  2  1  0
  2  3  2  0
  3  4  1  0
  4  5  2  0
  5  6  1  0
  6  7  2  0
  7  8  1  0
  8  9  2  0
  9 10  1  0
 10 11  2  0
  1 12  1  0
 12 13  2  0
 13 14  1  0
 14 15  2  0
 15 16  1  0
 16 17  2  0
 17 18  1  0
 18 19  2  0
 19 20  1  0
 20 21  2  0
 14 22  1  0
 22 23  2  0
 23 24  1  0
 24 25  2  0
 25 26  1  0
 26 27  2  0
 11  2  1  0
 21 12  1  0
 27 22  1  0
 10  5  1  0
 21 16  1  0
M  END
