CVD-0000649|dock_bobby27042020.12|mol2|20|dock2
     RDKit          3D

 22 23  0  0  0  0  0  0  0  0999 V2000
    6.9181   -3.5742   23.6716 C   0  0  0  0  0  0  0  0  0  0  0  0
    8.0508   -2.9188   24.4423 C   0  0  0  0  0  0  0  0  0  0  0  0
    8.2280   -3.6122   25.7816 C   0  0  0  0  0  0  0  0  0  0  0  0
    9.3241   -2.9178   23.5954 C   0  0  0  0  0  0  0  0  0  0  0  0
    9.3673   -2.0224   22.3501 C   0  0  0  0  0  0  0  0  0  0  0  0
   10.8071   -1.9480   21.8769 C   0  0  0  0  0  0  0  0  0  0  0  0
   11.6431   -1.2904   22.8836 N   0  0  0  0  0  0  0  0  0  0  0  0
   11.1231    0.0353   23.2331 C   0  0  0  0  0  0  0  0  0  0  0  0
    9.6751   -0.0667   23.6766 C   0  0  0  0  0  0  0  0  0  0  0  0
    8.8561   -0.6781   22.6330 N   0  0  0  0  0  0  0  0  0  0  0  0
    8.8906    0.2399   21.4800 C   0  0  0  0  0  0  0  0  0  0  0  0
    7.8341   -0.0638   20.4443 C   0  0  0  0  0  0  0  0  0  0  0  0
    8.0718   -0.9884   19.4395 C   0  0  0  0  0  0  0  0  0  0  0  0
    7.1015   -1.2685   18.4918 C   0  0  0  0  0  0  0  0  0  0  0  0
    5.8758   -0.6258   18.5370 C   0  0  0  0  0  0  0  0  0  0  0  0
    5.6447    0.2913   19.5386 C   0  0  0  0  0  0  0  0  0  0  0  0
    4.1081    1.1075   19.6094 Cl  0  0  0  0  0  0  0  0  0  0  0  0
    6.6036    0.5785   20.4883 C   0  0  0  0  0  0  0  0  0  0  0  0
   12.7609   -1.8561   23.3962 C   0  0  0  0  0  0  0  0  0  0  0  0
   13.1432   -2.9631   23.0379 O   0  0  0  0  0  0  0  0  0  0  0  0
   13.5468   -1.0760   24.4326 C   0  0  0  0  0  0  0  0  0  0  0  0
   14.9061   -2.0200   25.0560 Cl  0  0  0  0  0  0  0  0  0  0  0  0
  1  2  1  0
  2  3  1  0
  2  4  1  0
  5  4  1  0
  5  6  1  0
  6  7  1  0
  7  8  1  0
  8  9  1  0
  9 10  1  0
 10 11  1  0
 11 12  1  0
 12 13  2  0
 13 14  1  0
 14 15  2  0
 15 16  1  0
 16 17  1  0
 16 18  2  0
  7 19  1  0
 19 20  2  0
 19 21  1  0
 21 22  1  0
 10  5  1  0
 18 12  1  0
M  END
