CVD-0001640|dock_bobby27042020.80|mol2|28|dock1
     RDKit          3D

 16 17  0  0  0  0  0  0  0  0999 V2000
   13.1992   -1.9056   23.0711 C   0  0  0  0  0  0  0  0  0  0  0  0
   12.2835   -0.9425   22.3319 C   0  0  0  0  0  0  0  0  0  0  0  0
   10.9905   -1.6385   21.9834 C   0  0  0  0  0  0  0  0  0  0  0  0
   10.2128   -1.9044   23.1920 N   0  0  0  0  0  0  0  0  0  0  0  0
    9.0307   -2.6986   22.8614 C   0  0  0  0  0  0  0  0  0  0  0  0
    9.8852   -0.6243   23.8115 C   0  0  0  0  0  0  0  0  0  0  0  0
   11.1409    0.0882   24.2385 C   0  0  0  0  0  0  0  0  0  0  0  0
   12.0344    0.2827   23.0940 N   0  0  0  0  0  0  0  0  0  0  0  0
   12.5635    1.5416   22.7712 C   0  0  0  0  0  0  0  0  0  0  0  0
   11.7209    2.6257   22.5569 C   0  0  0  0  0  0  0  0  0  0  0  0
   12.2469    3.8623   22.2332 C   0  0  0  0  0  0  0  0  0  0  0  0
   13.6277    3.9779   22.1294 C   0  0  0  0  0  0  0  0  0  0  0  0
   14.4666    2.9464   22.3332 N   0  0  0  0  0  0  0  0  0  0  0  0
   13.9286    1.7635   22.6548 C   0  0  0  0  0  0  0  0  0  0  0  0
   14.2383    5.2480   21.7885 C   0  0  0  0  0  0  0  0  0  0  0  0
   14.6947    6.2660   21.5430 N   0  0  0  0  0  0  0  0  0  0  0  0
  1  2  1  0
  2  3  1  0
  3  4  1  0
  4  5  1  0
  4  6  1  0
  6  7  1  0
  7  8  1  0
  8  9  1  0
  9 10  2  0
 10 11  1  0
 11 12  2  0
 12 13  1  0
 13 14  2  0
 12 15  1  0
 15 16  3  0
  8  2  1  0
 14  9  1  0
M  END
