CVD-0001930|dock_bobby27042020.22|mol2|17|dock3
     RDKit          3D

 21 23  0  0  0  0  0  0  0  0999 V2000
    8.7762    3.7191   22.5809 N   0  0  0  0  0  0  0  0  0  0  0  0
    9.3863    2.3738   22.6704 C   0  0  0  0  0  0  0  0  0  0  0  0
    8.3502    1.2642   22.7909 C   0  0  0  0  0  0  0  0  0  0  0  0
    8.9864    0.1509   23.4072 O   0  0  0  0  0  0  0  0  0  0  0  0
    9.8658   -0.5705   22.5196 C   0  0  0  0  0  0  0  0  0  0  0  0
    8.9516   -1.2956   21.4962 C   0  0  0  0  0  0  0  0  0  0  0  0
    8.1446   -0.2375   20.7659 C   0  0  0  0  0  0  0  0  0  0  0  0
    7.6446   -0.4575   19.4737 C   0  0  0  0  0  0  0  0  0  0  0  0
    7.9291   -1.5973   18.7731 O   0  0  0  0  0  0  0  0  0  0  0  0
    6.7823    0.4638   18.8817 C   0  0  0  0  0  0  0  0  0  0  0  0
    6.3244    0.2260   17.6252 O   0  0  0  0  0  0  0  0  0  0  0  0
    6.4054    1.6128   19.5604 C   0  0  0  0  0  0  0  0  0  0  0  0
    6.8939    1.8363   20.8331 C   0  0  0  0  0  0  0  0  0  0  0  0
    7.7578    0.9281   21.4449 C   0  0  0  0  0  0  0  0  0  0  0  0
   10.7270   -1.4768   23.3991 C   0  0  0  0  0  0  0  0  0  0  0  0
   11.5329   -0.6556   24.4183 C   0  0  0  0  0  0  0  0  0  0  0  0
   12.5751    0.2078   23.7127 C   0  0  0  0  0  0  0  0  0  0  0  0
   13.5114   -0.6488   22.8635 C   0  0  0  0  0  0  0  0  0  0  0  0
   12.7473   -1.5192   21.8808 C   0  0  0  0  0  0  0  0  0  0  0  0
   13.6306   -2.3246   21.0293 N   0  0  0  0  0  0  0  0  0  0  0  0
   11.6694   -2.3551   22.5799 C   0  0  0  0  0  0  0  0  0  0  0  0
  1  2  1  0
  2  3  1  0
  3  4  1  0
  4  5  1  0
  5  6  1  0
  6  7  1  0
  7  8  2  0
  8  9  1  0
  8 10  1  0
 10 11  1  0
 10 12  2  0
 12 13  1  0
 13 14  2  0
  5 15  1  0
 15 16  1  0
 16 17  1  0
 17 18  1  0
 18 19  1  0
 19 20  1  0
 19 21  1  0
 14  3  1  0
 21 15  1  0
 14  7  1  0
M  END
