CVD-0002758|dock_bobby27042020.4|mol2|31|dock3
     RDKit          3D

 20 22  0  0  0  0  0  0  0  0999 V2000
   14.1710   -1.3195   20.5759 N   0  0  0  0  0  0  0  0  0  0  0  0
   13.9034   -0.8669   21.7904 C   0  0  0  0  0  0  0  0  0  0  0  0
   14.0015    0.3270   22.0809 O   0  0  0  0  0  0  0  0  0  0  0  0
   13.4653   -1.9168   22.7942 C   0  0  0  0  0  0  0  0  0  0  0  0
   14.2514   -1.7479   24.1047 C   0  0  0  0  0  0  0  0  0  0  0  0
   13.2088   -1.7608   25.2208 C   0  0  0  0  0  0  0  0  0  0  0  0
   13.3733   -2.9212   26.0412 O   0  0  0  0  0  0  0  0  0  0  0  0
   11.9746   -1.8202   24.6500 C   0  0  0  0  0  0  0  0  0  0  0  0
   11.9530   -1.9317   23.2062 C   0  0  0  0  0  0  0  0  0  0  0  0
   11.0758   -0.8756   22.5717 C   0  0  0  0  0  0  0  0  0  0  0  0
   11.1995    0.4627   22.8073 C   0  0  0  0  0  0  0  0  0  0  0  0
   10.0617    1.3937   21.9264 S   0  0  0  0  0  0  0  0  0  0  0  0
    9.3888   -0.0070   21.2025 C   0  0  0  0  0  0  0  0  0  0  0  0
   10.0278   -1.1287   21.6400 C   0  0  0  0  0  0  0  0  0  0  0  0
    8.2818    0.1271   20.2600 C   0  0  0  0  0  0  0  0  0  0  0  0
    7.3332    1.1334   20.3735 C   0  0  0  0  0  0  0  0  0  0  0  0
    6.3250    1.1709   19.4276 C   0  0  0  0  0  0  0  0  0  0  0  0
    6.3351    0.2096   18.4441 C   0  0  0  0  0  0  0  0  0  0  0  0
    7.2536   -0.7362   18.3638 N   0  0  0  0  0  0  0  0  0  0  0  0
    8.2401   -0.7852   19.2766 N   0  0  0  0  0  0  0  0  0  0  0  0
  1  2  1  0
  2  3  2  0
  4  2  1  0
  4  5  1  0
  5  6  1  0
  6  7  1  0
  6  8  1  0
  8  9  1  0
  9 10  1  0
 10 11  2  0
 11 12  1  0
 12 13  1  0
 13 14  2  0
 13 15  1  0
 15 16  2  0
 16 17  1  0
 17 18  2  0
 18 19  1  0
 19 20  2  0
  9  4  1  0
 14 10  1  0
 20 15  1  0
M  END
