CVD-0003642|dock_bobby27042020.87|mol2|18|dock1
     RDKit          3D

 30 33  0  0  0  0  0  0  0  0999 V2000
   12.9731    6.9794   23.9461 O   0  0  0  0  0  0  0  0  0  0  0  0
   13.4002    6.1532   23.1421 N   0  0  0  0  0  0  0  0  0  0  0  0
   14.4539    6.2676   22.5394 O   0  0  0  0  0  0  0  0  0  0  0  0
   12.5903    4.9534   22.8924 C   0  0  0  0  0  0  0  0  0  0  0  0
   13.2125    3.7670   22.5501 C   0  0  0  0  0  0  0  0  0  0  0  0
   12.4530    2.6487   22.2640 C   0  0  0  0  0  0  0  0  0  0  0  0
   11.0626    2.7120   22.3160 C   0  0  0  0  0  0  0  0  0  0  0  0
   10.4357    3.8920   22.7755 C   0  0  0  0  0  0  0  0  0  0  0  0
   11.2123    5.0238   23.0068 C   0  0  0  0  0  0  0  0  0  0  0  0
    9.0084    4.0042   23.0419 N   0  0  0  0  0  0  0  0  0  0  0  0
    8.4890    5.1162   23.0921 O   0  0  0  0  0  0  0  0  0  0  0  0
    8.3579    2.9777   23.1412 O   0  0  0  0  0  0  0  0  0  0  0  0
   10.3850    1.5235   21.8833 N   0  0  0  0  0  0  0  0  0  0  0  0
    9.2180    1.7299   21.1661 N   0  0  0  0  0  0  0  0  0  0  0  0
    8.7835    0.5082   20.8419 C   0  0  0  0  0  0  0  0  0  0  0  0
    9.6352   -0.4790   21.3587 C   0  0  0  0  0  0  0  0  0  0  0  0
   10.6434    0.1784   22.0357 C   0  0  0  0  0  0  0  0  0  0  0  0
   11.7566   -0.4699   22.7631 C   0  0  0  0  0  0  0  0  0  0  0  0
   12.4111   -1.6024   22.2875 C   0  0  0  0  0  0  0  0  0  0  0  0
   13.4204   -2.2027   23.0196 C   0  0  0  0  0  0  0  0  0  0  0  0
   13.8027   -1.6488   24.2208 C   0  0  0  0  0  0  0  0  0  0  0  0
   15.0715   -2.4020   25.1457 Cl  0  0  0  0  0  0  0  0  0  0  0  0
   13.1993   -0.5088   24.7023 C   0  0  0  0  0  0  0  0  0  0  0  0
   12.1810    0.0752   23.9704 C   0  0  0  0  0  0  0  0  0  0  0  0
    7.5564    0.3418   20.0474 C   0  0  0  0  0  0  0  0  0  0  0  0
    6.5635    1.3149   20.0647 C   0  0  0  0  0  0  0  0  0  0  0  0
    5.4095    1.1552   19.3158 C   0  0  0  0  0  0  0  0  0  0  0  0
    5.2337    0.0267   18.5439 C   0  0  0  0  0  0  0  0  0  0  0  0
    6.2106   -0.9455   18.5184 C   0  0  0  0  0  0  0  0  0  0  0  0
    7.3669   -0.7918   19.2649 C   0  0  0  0  0  0  0  0  0  0  0  0
  1  2  1  0
  2  3  2  0
  2  4  1  0
  4  5  2  0
  5  6  1  0
  6  7  2  0
  7  8  1  0
  8  9  2  0
  8 10  1  0
 10 11  1  0
 10 12  2  0
  7 13  1  0
 13 14  1  0
 14 15  2  0
 15 16  1  0
 16 17  2  0
 17 18  1  0
 18 19  2  0
 19 20  1  0
 20 21  2  0
 21 22  1  0
 21 23  1  0
 23 24  2  0
 15 25  1  0
 25 26  2  0
 26 27  1  0
 27 28  2  0
 28 29  1  0
 29 30  2  0
  9  4  1  0
 17 13  1  0
 24 18  1  0
 30 25  1  0
M  CHG  4   1  -1   2   1  10   1  11  -1
M  END
