CVD-0003042|dock_bobby27042020.75|mol2|10|dock1
     RDKit          3D

 28 31  0  0  0  0  0  0  0  0999 V2000
    6.2019   -6.5243   21.5610 Cl  0  0  0  0  0  0  0  0  0  0  0  0
    7.1598   -5.2477   22.3224 C   0  0  0  0  0  0  0  0  0  0  0  0
    7.0371   -3.9490   21.5484 C   0  0  0  0  0  0  0  0  0  0  0  0
    6.4627   -3.9208   20.4673 O   0  0  0  0  0  0  0  0  0  0  0  0
    7.5821   -2.8292   22.0749 N   0  0  0  0  0  0  0  0  0  0  0  0
    8.2999   -2.7314   23.3496 C   0  0  0  0  0  0  0  0  0  0  0  0
    9.5762   -1.9484   23.1827 C   0  0  0  0  0  0  0  0  0  0  0  0
    9.3015   -0.6105   22.6333 N   0  0  0  0  0  0  0  0  0  0  0  0
    8.6624   -0.7858   21.3282 C   0  0  0  0  0  0  0  0  0  0  0  0
    7.3512   -1.5230   21.4610 C   0  0  0  0  0  0  0  0  0  0  0  0
   10.5377    0.1788   22.5114 C   0  0  0  0  0  0  0  0  0  0  0  0
   11.6156   -0.3211   23.4519 C   0  0  0  0  0  0  0  0  0  0  0  0
   11.8893    0.0907   24.7502 C   0  0  0  0  0  0  0  0  0  0  0  0
   12.9599   -0.5793   25.3367 C   0  0  0  0  0  0  0  0  0  0  0  0
   13.5006   -1.4889   24.5043 C   0  0  0  0  0  0  0  0  0  0  0  0
   14.9501   -2.6186   24.8588 Br  0  0  0  0  0  0  0  0  0  0  0  0
   12.7228   -1.5596   22.9767 S   0  0  0  0  0  0  0  0  0  0  0  0
   10.2492    1.6822   22.6556 C   0  0  0  0  0  0  0  0  0  0  0  0
    8.9515    2.1099   22.7961 C   0  0  0  0  0  0  0  0  0  0  0  0
    8.6408    3.4456   22.9404 C   0  0  0  0  0  0  0  0  0  0  0  0
    6.9699    3.9052   23.1125 Cl  0  0  0  0  0  0  0  0  0  0  0  0
    9.5988    4.4096   22.9524 C   0  0  0  0  0  0  0  0  0  0  0  0
   10.9543    4.0401   22.8088 C   0  0  0  0  0  0  0  0  0  0  0  0
   11.9760    5.0195   22.8180 C   0  0  0  0  0  0  0  0  0  0  0  0
   13.2828    4.6650   22.6769 C   0  0  0  0  0  0  0  0  0  0  0  0
   13.6320    3.3423   22.5187 C   0  0  0  0  0  0  0  0  0  0  0  0
   12.6823    2.3644   22.5017 C   0  0  0  0  0  0  0  0  0  0  0  0
   11.2989    2.6628   22.6522 C   0  0  0  0  0  0  0  0  0  0  0  0
  1  2  1  0
  2  3  1  0
  3  4  2  0
  3  5  1  0
  5  6  1  0
  6  7  1  0
  7  8  1  0
  8  9  1  0
  9 10  1  0
  8 11  1  0
 11 12  1  0
 12 13  2  0
 13 14  1  0
 14 15  2  0
 15 16  1  0
 15 17  1  0
 11 18  1  0
 18 19  2  0
 19 20  1  0
 20 21  1  0
 20 22  2  0
 22 23  1  0
 23 24  2  0
 24 25  1  0
 25 26  2  0
 26 27  1  0
 27 28  2  0
 10  5  1  0
 17 12  1  0
 28 18  1  0
 28 23  1  0
M  END
