CVD-0001002|dock_bobby27042020.25|mol2|23|dock2
     RDKit          3D

 38 42  0  0  0  0  0  0  0  0999 V2000
   13.2521    8.7160   25.1933 C   0  0  0  0  0  0  0  0  0  0  0  0
   13.3658    8.0791   23.9221 O   0  0  0  0  0  0  0  0  0  0  0  0
   12.9321    6.7877   23.7541 C   0  0  0  0  0  0  0  0  0  0  0  0
   13.4367    5.9663   22.7557 C   0  0  0  0  0  0  0  0  0  0  0  0
   12.9653    4.6713   22.6288 C   0  0  0  0  0  0  0  0  0  0  0  0
   11.9913    4.1765   23.4873 C   0  0  0  0  0  0  0  0  0  0  0  0
   11.4956    5.0099   24.4819 C   0  0  0  0  0  0  0  0  0  0  0  0
   11.9613    6.3055   24.6155 C   0  0  0  0  0  0  0  0  0  0  0  0
   11.4953    2.7985   23.3459 C   0  0  0  0  0  0  0  0  0  0  0  0
   11.3139    2.1414   22.2378 N   0  0  0  0  0  0  0  0  0  0  0  0
   10.8389    0.9021   22.6540 C   0  0  0  0  0  0  0  0  0  0  0  0
   10.4597   -0.2376   21.9498 C   0  0  0  0  0  0  0  0  0  0  0  0
   10.0170   -1.3473   22.6528 C   0  0  0  0  0  0  0  0  0  0  0  0
    9.9426   -1.3486   24.0455 C   0  0  0  0  0  0  0  0  0  0  0  0
    9.4779   -2.5282   24.6792 N   0  0  0  0  0  0  0  0  0  0  0  0
    9.1458   -2.7781   25.9703 C   0  0  0  0  0  0  0  0  0  0  0  0
    9.1919   -1.9663   26.8899 O   0  0  0  0  0  0  0  0  0  0  0  0
    8.6875   -4.1989   26.2254 C   0  0  0  0  0  0  0  0  0  0  0  0
    8.6842   -4.5328   27.6841 C   0  0  0  0  0  0  0  0  0  0  0  0
    8.1489   -5.9256   27.9739 C   0  0  0  0  0  0  0  0  0  0  0  0
    6.8477   -6.1033   27.3485 N   0  0  0  0  0  0  0  0  0  0  0  0
    6.8210   -5.8530   25.9126 C   0  0  0  0  0  0  0  0  0  0  0  0
    7.3049   -4.4321   25.6371 C   0  0  0  0  0  0  0  0  0  0  0  0
    5.5969   -6.7909   28.1361 S   0  0  0  0  0  0  0  0  0  0  0  0
    4.6468   -5.7495   28.3758 O   0  0  0  0  0  0  0  0  0  0  0  0
    5.2184   -7.9388   27.3718 O   0  0  0  0  0  0  0  0  0  0  0  0
    6.2025   -7.3463   29.6918 C   0  0  0  0  0  0  0  0  0  0  0  0
    6.9332   -8.5219   29.7620 C   0  0  0  0  0  0  0  0  0  0  0  0
    7.4124   -8.9540   30.9859 C   0  0  0  0  0  0  0  0  0  0  0  0
    7.1608   -8.2108   32.1280 C   0  0  0  0  0  0  0  0  0  0  0  0
    6.4315   -7.0351   32.0528 C   0  0  0  0  0  0  0  0  0  0  0  0
    5.9500   -6.5988   30.8312 C   0  0  0  0  0  0  0  0  0  0  0  0
    7.6702   -8.6721   33.4262 N   0  0  0  0  0  0  0  0  0  0  0  0
    8.0651   -9.8332   33.5107 O   0  0  0  0  0  0  0  0  0  0  0  0
    7.6748   -7.8791   34.3524 O   0  0  0  0  0  0  0  0  0  0  0  0
   10.3233   -0.2053   24.7488 C   0  0  0  0  0  0  0  0  0  0  0  0
   10.7607    0.8868   24.0246 C   0  0  0  0  0  0  0  0  0  0  0  0
   11.1839    2.1132   24.4956 O   0  0  0  0  0  0  0  0  0  0  0  0
  1  2  1  0
  2  3  1  0
  3  4  2  0
  4  5  1  0
  5  6  2  0
  6  7  1  0
  7  8  2  0
  6  9  1  0
  9 10  2  0
 10 11  1  0
 11 12  2  0
 12 13  1  0
 13 14  2  0
 14 15  1  0
 15 16  1  0
 16 17  2  0
 16 18  1  0
 18 19  1  0
 19 20  1  0
 20 21  1  0
 21 22  1  0
 22 23  1  0
 21 24  1  0
 24 25  2  0
 24 26  2  0
 24 27  1  0
 27 28  2  0
 28 29  1  0
 29 30  2  0
 30 31  1  0
 31 32  2  0
 30 33  1  0
 33 34  1  0
 33 35  2  0
 14 36  1  0
 36 37  2  0
 37 38  1  0
  8  3  1  0
 38  9  1  0
 37 11  1  0
 23 18  1  0
 32 27  1  0
M  CHG  2  33   1  34  -1
M  END
