CVD-0003306|dock_bobby27042020.31|mol2|20|dock1
     RDKit          3D

 30 32  0  0  0  0  0  0  0  0999 V2000
    9.0994    4.5181   22.9968 C   0  0  0  0  0  0  0  0  0  0  0  0
   10.1878    3.6706   22.4063 C   0  0  0  0  0  0  0  0  0  0  0  0
    9.9305    2.7401   21.6520 O   0  0  0  0  0  0  0  0  0  0  0  0
   11.4645    3.9844   22.7226 N   0  0  0  0  0  0  0  0  0  0  0  0
   12.0137    5.0865   23.5227 C   0  0  0  0  0  0  0  0  0  0  0  0
   13.3811    5.1907   23.1307 C   0  0  0  0  0  0  0  0  0  0  0  0
   13.7815    4.0738   22.3076 C   0  0  0  0  0  0  0  0  0  0  0  0
   12.5569    3.1721   22.1612 C   0  0  0  0  0  0  0  0  0  0  0  0
   12.6625    1.8719   22.9384 C   0  0  0  0  0  0  0  0  0  0  0  0
   13.7809    1.0965   22.5252 O   0  0  0  0  0  0  0  0  0  0  0  0
   13.8370   -0.2114   23.0735 C   0  0  0  0  0  0  0  0  0  0  0  0
   12.7646   -1.1538   22.5660 C   0  0  0  0  0  0  0  0  0  0  0  0
   12.9055   -1.6637   21.4612 O   0  0  0  0  0  0  0  0  0  0  0  0
   11.5347   -1.4452   23.4625 C   0  0  0  0  0  0  0  0  0  0  0  0
   11.7443   -1.8789   24.5897 O   0  0  0  0  0  0  0  0  0  0  0  0
   10.2680   -1.2413   23.0406 N   0  0  0  0  0  0  0  0  0  0  0  0
    9.1480   -1.5039   23.9295 C   0  0  0  0  0  0  0  0  0  0  0  0
    8.1502   -2.4026   23.2694 C   0  0  0  0  0  0  0  0  0  0  0  0
    7.7329   -1.8011   21.9950 N   0  0  0  0  0  0  0  0  0  0  0  0
    8.8692   -1.6189   21.0796 C   0  0  0  0  0  0  0  0  0  0  0  0
    9.8794   -0.7186   21.7270 C   0  0  0  0  0  0  0  0  0  0  0  0
    6.3087   -2.2910   21.3714 S   0  0  0  0  0  0  0  0  0  0  0  0
    6.5972   -3.4145   20.5351 O   0  0  0  0  0  0  0  0  0  0  0  0
    5.4113   -2.4362   22.4753 O   0  0  0  0  0  0  0  0  0  0  0  0
    5.7115   -0.9889   20.3499 C   0  0  0  0  0  0  0  0  0  0  0  0
    5.7159   -1.1425   18.9730 C   0  0  0  0  0  0  0  0  0  0  0  0
    5.2393   -0.1137   18.1776 C   0  0  0  0  0  0  0  0  0  0  0  0
    4.7654    1.0479   18.7491 C   0  0  0  0  0  0  0  0  0  0  0  0
    4.7628    1.1916   20.1202 C   0  0  0  0  0  0  0  0  0  0  0  0
    5.2351    0.1743   20.9326 C   0  0  0  0  0  0  0  0  0  0  0  0
  1  2  1  0
  2  3  2  0
  2  4  1  0
  4  5  1  0
  5  6  1  0
  6  7  1  0
  7  8  1  0
  8  9  1  0
  9 10  1  0
 10 11  1  0
 11 12  1  0
 12 13  2  0
 12 14  1  0
 14 15  2  0
 14 16  1  0
 16 17  1  0
 17 18  1  0
 18 19  1  0
 19 20  1  0
 20 21  1  0
 19 22  1  0
 22 23  2  0
 22 24  2  0
 22 25  1  0
 25 26  2  0
 26 27  1  0
 27 28  2  0
 28 29  1  0
 29 30  2  0
  8  4  1  0
 21 16  1  0
 30 25  1  0
M  END
