CVD-0002824|dock_bobby27042020.61|mol2|44|dock3
     RDKit          3D

 28 31  0  0  0  0  0  0  0  0999 V2000
   14.0717    5.5304   22.8419 N   0  0  0  0  0  0  0  0  0  0  0  0
   12.7104    4.8740   23.3700 S   0  0  0  0  0  0  0  0  0  0  0  0
   11.6415    5.4422   22.6046 O   0  0  0  0  0  0  0  0  0  0  0  0
   12.6947    5.0200   24.7947 O   0  0  0  0  0  0  0  0  0  0  0  0
   12.7498    3.1428   23.0174 C   0  0  0  0  0  0  0  0  0  0  0  0
   13.9605    2.5365   22.7204 C   0  0  0  0  0  0  0  0  0  0  0  0
   14.0066    1.2041   22.4418 C   0  0  0  0  0  0  0  0  0  0  0  0
   12.8304    0.4172   22.4481 C   0  0  0  0  0  0  0  0  0  0  0  0
   12.8230   -0.9693   22.1666 C   0  0  0  0  0  0  0  0  0  0  0  0
   11.6608   -1.6789   22.1860 C   0  0  0  0  0  0  0  0  0  0  0  0
   10.4437   -1.0776   22.4795 C   0  0  0  0  0  0  0  0  0  0  0  0
   10.4189    0.2620   22.7571 C   0  0  0  0  0  0  0  0  0  0  0  0
   11.5960    1.0455   22.7508 C   0  0  0  0  0  0  0  0  0  0  0  0
   11.5868    2.4304   23.0349 C   0  0  0  0  0  0  0  0  0  0  0  0
    9.1626   -1.9022   22.4951 C   0  0  0  0  0  0  0  0  0  0  0  0
    8.7618   -2.2211   21.0929 C   0  0  0  0  0  0  0  0  0  0  0  0
    7.4980   -2.9982   21.0622 N   0  0  0  0  0  0  0  0  0  0  0  0
    7.3909   -4.1643   21.9607 C   0  0  0  0  0  0  0  0  0  0  0  0
    8.4668   -4.2536   23.0466 C   0  0  0  0  0  0  0  0  0  0  0  0
    8.5891   -5.4150   23.8027 C   0  0  0  0  0  0  0  0  0  0  0  0
    9.5505   -5.5268   24.7903 C   0  0  0  0  0  0  0  0  0  0  0  0
   10.4024   -4.4722   25.0311 C   0  0  0  0  0  0  0  0  0  0  0  0
   10.2862   -3.3143   24.2828 C   0  0  0  0  0  0  0  0  0  0  0  0
    9.3230   -3.1794   23.2810 C   0  0  0  0  0  0  0  0  0  0  0  0
    6.4853   -2.7101   20.2121 C   0  0  0  0  0  0  0  0  0  0  0  0
    5.4449   -3.3563   20.2106 O   0  0  0  0  0  0  0  0  0  0  0  0
    6.6605   -1.5484   19.2511 C   0  0  0  0  0  0  0  0  0  0  0  0
    5.3392   -1.4649   18.0782 Cl  0  0  0  0  0  0  0  0  0  0  0  0
  1  2  1  0
  2  3  2  0
  2  4  2  0
  2  5  1  0
  5  6  2  0
  6  7  1  0
  7  8  2  0
  8  9  1  0
  9 10  2  0
 10 11  1  0
 11 12  2  0
 12 13  1  0
 13 14  2  0
 11 15  1  0
 15 16  1  0
 16 17  1  0
 17 18  1  0
 18 19  1  0
 19 20  2  0
 20 21  1  0
 21 22  2  0
 22 23  1  0
 23 24  2  0
 17 25  1  0
 25 26  2  0
 25 27  1  0
 27 28  1  0
 14  5  1  0
 24 15  1  0
 13  8  1  0
 24 19  1  0
M  END
