CVD-0003337|dock_bobby27042020.88|mol2|19|dock1
     RDKit          3D

 23 26  0  0  0  0  0  0  0  0999 V2000
    5.6118   -1.4577   17.1643 O   0  0  0  0  0  0  0  0  0  0  0  0
    6.4455   -1.6201   18.2321 C   0  0  0  0  0  0  0  0  0  0  0  0
    7.4261   -0.6733   18.4856 C   0  0  0  0  0  0  0  0  0  0  0  0
    8.2769   -0.8272   19.5648 C   0  0  0  0  0  0  0  0  0  0  0  0
    8.1603   -1.9303   20.4073 C   0  0  0  0  0  0  0  0  0  0  0  0
    8.8725   -2.3745   21.5888 C   0  0  0  0  0  0  0  0  0  0  0  0
    8.2851   -3.5511   21.9740 C   0  0  0  0  0  0  0  0  0  0  0  0
    7.2503   -3.8808   21.1168 N   0  0  0  0  0  0  0  0  0  0  0  0
    6.4505   -5.0200   21.2334 C   0  0  0  0  0  0  0  0  0  0  0  0
    5.5490   -5.2586   20.4398 O   0  0  0  0  0  0  0  0  0  0  0  0
    6.7551   -5.9387   22.4002 C   0  0  0  0  0  0  0  0  0  0  0  0
    5.6536   -7.3221   22.4074 Cl  0  0  0  0  0  0  0  0  0  0  0  0
    7.1595   -2.8798   20.1341 C   0  0  0  0  0  0  0  0  0  0  0  0
    6.2990   -2.7328   19.0500 C   0  0  0  0  0  0  0  0  0  0  0  0
    9.9989   -1.6966   22.2406 C   0  0  0  0  0  0  0  0  0  0  0  0
   10.0205   -1.3107   23.5078 N   0  0  0  0  0  0  0  0  0  0  0  0
   11.2712   -0.7237   23.6733 C   0  0  0  0  0  0  0  0  0  0  0  0
   11.8544   -0.1392   24.7968 C   0  0  0  0  0  0  0  0  0  0  0  0
   13.1359    0.3799   24.6893 C   0  0  0  0  0  0  0  0  0  0  0  0
   13.8311    0.3245   23.4967 C   0  0  0  0  0  0  0  0  0  0  0  0
   13.2657   -0.2531   22.3710 C   0  0  0  0  0  0  0  0  0  0  0  0
   11.9814   -0.7738   22.4770 C   0  0  0  0  0  0  0  0  0  0  0  0
   11.1480   -1.4012   21.5713 N   0  0  0  0  0  0  0  0  0  0  0  0
  1  2  1  0
  2  3  2  0
  3  4  1  0
  4  5  2  0
  5  6  1  0
  6  7  2  0
  7  8  1  0
  8  9  1  0
  9 10  2  0
  9 11  1  0
 11 12  1  0
  8 13  1  0
 13 14  2  0
  6 15  1  0
 15 16  2  0
 16 17  1  0
 17 18  2  0
 18 19  1  0
 19 20  2  0
 20 21  1  0
 21 22  2  0
 22 23  1  0
 14  2  1  0
 23 15  1  0
 13  5  1  0
 22 17  1  0
M  END
