CVD-0002668|dock_bobby27042020.76|mol2|25|dock3
     RDKit          3D

 18 19  0  0  0  0  0  0  0  0999 V2000
   13.4931    5.4367   21.4860 C   0  0  0  0  0  0  0  0  0  0  0  0
   13.2365    5.1114   22.9121 C   0  0  0  0  0  0  0  0  0  0  0  0
   12.6535    3.7769   22.9726 O   0  0  0  0  0  0  0  0  0  0  0  0
   11.3799    3.6636   22.5884 C   0  0  0  0  0  0  0  0  0  0  0  0
   10.6265    4.6026   22.4730 O   0  0  0  0  0  0  0  0  0  0  0  0
   10.9930    2.2568   22.3190 C   0  0  0  0  0  0  0  0  0  0  0  0
   11.8799    1.3487   22.8284 N   0  0  0  0  0  0  0  0  0  0  0  0
   11.5832    0.0689   22.6158 C   0  0  0  0  0  0  0  0  0  0  0  0
   12.4771   -0.8152   23.1291 N   0  0  0  0  0  0  0  0  0  0  0  0
   12.3368   -2.2639   23.0059 C   0  0  0  0  0  0  0  0  0  0  0  0
   13.6941   -0.3484   23.7877 C   0  0  0  0  0  0  0  0  0  0  0  0
   10.3905   -0.3149   21.8904 C   0  0  0  0  0  0  0  0  0  0  0  0
    9.7577   -1.5283   21.4807 C   0  0  0  0  0  0  0  0  0  0  0  0
    8.5925   -1.1967   20.7897 C   0  0  0  0  0  0  0  0  0  0  0  0
    8.5191    0.1860   20.7803 C   0  0  0  0  0  0  0  0  0  0  0  0
    7.1902    1.2479   20.0097 Br  0  0  0  0  0  0  0  0  0  0  0  0
    9.6046    0.7257   21.4452 N   0  0  0  0  0  0  0  0  0  0  0  0
    9.8687    2.0600   21.6379 N   0  0  0  0  0  0  0  0  0  0  0  0
  1  2  1  0
  2  3  1  0
  3  4  1  0
  4  5  2  0
  4  6  1  0
  6  7  1  0
  7  8  2  0
  8  9  1  0
  9 10  1  0
  9 11  1  0
  8 12  1  0
 12 13  2  0
 13 14  1  0
 14 15  2  0
 15 16  1  0
 15 17  1  0
 17 18  1  0
 18  6  2  0
 17 12  1  0
M  END
