CVD-0003666|dock_bobby27042020.30|mol2|15|dock3
     RDKit          3D

 16 17  0  0  0  0  0  0  0  0999 V2000
    9.6562   -1.9266   21.7030 Cl  0  0  0  0  0  0  0  0  0  0  0  0
   10.3964   -2.5335   23.1898 C   0  0  0  0  0  0  0  0  0  0  0  0
   11.8433   -2.0930   23.2947 C   0  0  0  0  0  0  0  0  0  0  0  0
   12.7665   -2.8817   23.1368 O   0  0  0  0  0  0  0  0  0  0  0  0
   12.0570   -0.7914   23.5748 N   0  0  0  0  0  0  0  0  0  0  0  0
   11.0758    0.2625   23.7823 C   0  0  0  0  0  0  0  0  0  0  0  0
   11.3963    1.5114   22.9689 C   0  0  0  0  0  0  0  0  0  0  0  0
   12.7826    1.9408   23.2045 N   0  0  0  0  0  0  0  0  0  0  0  0
   13.7215    0.8426   22.8606 C   0  0  0  0  0  0  0  0  0  0  0  0
   13.4419   -0.3328   23.7592 C   0  0  0  0  0  0  0  0  0  0  0  0
   13.1395    3.2211   22.9330 C   0  0  0  0  0  0  0  0  0  0  0  0
   12.8303    4.1251   23.8678 N   0  0  0  0  0  0  0  0  0  0  0  0
   13.1877    5.3850   23.5896 C   0  0  0  0  0  0  0  0  0  0  0  0
   13.8299    5.7492   22.4291 C   0  0  0  0  0  0  0  0  0  0  0  0
   14.0944    4.7299   21.5443 C   0  0  0  0  0  0  0  0  0  0  0  0
   13.7595    3.4537   21.7715 N   0  0  0  0  0  0  0  0  0  0  0  0
  1  2  1  0
  2  3  1  0
  3  4  2  0
  3  5  1  0
  5  6  1  0
  6  7  1  0
  7  8  1  0
  8  9  1  0
  9 10  1  0
  8 11  1  0
 11 12  2  0
 12 13  1  0
 13 14  2  0
 14 15  1  0
 15 16  2  0
 10  5  1  0
 16 11  1  0
M  END
