CVD-0003008|dock_bobby27042020.18|mol2|3|dock1
     RDKit          3D

 22 24  0  0  0  0  0  0  0  0999 V2000
   14.5417   -3.4594   25.0959 Cl  0  0  0  0  0  0  0  0  0  0  0  0
   13.7058   -2.0444   24.5201 C   0  0  0  0  0  0  0  0  0  0  0  0
   13.6699   -0.9141   25.3068 C   0  0  0  0  0  0  0  0  0  0  0  0
   13.0047    0.2080   24.8454 C   0  0  0  0  0  0  0  0  0  0  0  0
   12.3773    0.2048   23.6048 C   0  0  0  0  0  0  0  0  0  0  0  0
   12.4303   -0.9503   22.8329 C   0  0  0  0  0  0  0  0  0  0  0  0
   13.0933   -2.0767   23.2867 C   0  0  0  0  0  0  0  0  0  0  0  0
   11.6699    1.4026   23.1174 C   0  0  0  0  0  0  0  0  0  0  0  0
   11.9714    2.7197   23.0886 C   0  0  0  0  0  0  0  0  0  0  0  0
   10.8983    3.3842   22.4985 C   0  0  0  0  0  0  0  0  0  0  0  0
    9.9740    2.4510   22.1850 C   0  0  0  0  0  0  0  0  0  0  0  0
   10.4235    1.2041   22.5576 O   0  0  0  0  0  0  0  0  0  0  0  0
    8.6355    2.5280   21.5464 C   0  0  0  0  0  0  0  0  0  0  0  0
    7.9450    3.5206   21.5913 O   0  0  0  0  0  0  0  0  0  0  0  0
    8.3434    1.3516   20.9288 O   0  0  0  0  0  0  0  0  0  0  0  0
    7.2540    1.1851   20.0458 C   0  0  0  0  0  0  0  0  0  0  0  0
    7.4512    0.5466   18.8402 C   0  0  0  0  0  0  0  0  0  0  0  0
    6.4736    0.3514   17.9506 N   0  0  0  0  0  0  0  0  0  0  0  0
    5.2502    0.7973   18.2491 C   0  0  0  0  0  0  0  0  0  0  0  0
    4.9784    1.4382   19.4378 C   0  0  0  0  0  0  0  0  0  0  0  0
    3.3659    1.9983   19.7825 Cl  0  0  0  0  0  0  0  0  0  0  0  0
    5.9824    1.6391   20.3615 C   0  0  0  0  0  0  0  0  0  0  0  0
  1  2  1  0
  2  3  2  0
  3  4  1  0
  4  5  2  0
  5  6  1  0
  6  7  2  0
  5  8  1  0
  8  9  2  0
  9 10  1  0
 10 11  2  0
 11 12  1  0
 11 13  1  0
 13 14  2  0
 13 15  1  0
 15 16  1  0
 16 17  2  0
 17 18  1  0
 18 19  2  0
 19 20  1  0
 20 21  1  0
 20 22  2  0
  7  2  1  0
 12  8  1  0
 22 16  1  0
M  END
