CVD-0003995|dock_bobby27042020.0|mol2|14|dock3
     RDKit          3D

 33 34  0  0  0  0  0  0  0  0999 V2000
    9.0256   -0.8335   19.7391 O   0  0  0  0  0  0  0  0  0  0  0  0
    8.0727   -0.4404   20.4050 C   0  0  0  0  0  0  0  0  0  0  0  0
    8.2797    0.2448   21.7392 C   0  0  0  0  0  0  0  0  0  0  0  0
    9.2223    1.4389   21.7544 C   0  0  0  0  0  0  0  0  0  0  0  0
    8.8637    2.5120   21.2854 O   0  0  0  0  0  0  0  0  0  0  0  0
   10.5746    1.2824   22.3429 C   0  0  0  0  0  0  0  0  0  0  0  0
   10.9868    0.1623   22.6286 O   0  0  0  0  0  0  0  0  0  0  0  0
   11.4133    2.4560   22.5815 C   0  0  0  0  0  0  0  0  0  0  0  0
   12.2149    2.8573   23.5934 C   0  0  0  0  0  0  0  0  0  0  0  0
   12.7596    4.1079   23.2173 C   0  0  0  0  0  0  0  0  0  0  0  0
   12.2688    4.3933   22.0203 C   0  0  0  0  0  0  0  0  0  0  0  0
   11.4323    3.3990   21.5902 O   0  0  0  0  0  0  0  0  0  0  0  0
    6.8109   -0.5724   20.0053 N   0  0  0  0  0  0  0  0  0  0  0  0
    5.6685   -0.9231   19.1894 C   0  0  0  0  0  0  0  0  0  0  0  0
    5.6603   -2.4179   18.9523 C   0  0  0  0  0  0  0  0  0  0  0  0
    5.5430   -2.8544   17.8138 O   0  0  0  0  0  0  0  0  0  0  0  0
    5.7967   -3.3151   20.1278 C   0  0  0  0  0  0  0  0  0  0  0  0
    5.7343   -2.8298   21.2535 O   0  0  0  0  0  0  0  0  0  0  0  0
    6.0137   -4.8340   19.9367 C   0  0  0  0  0  0  0  0  0  0  0  0
    5.8966   -5.3483   18.8283 O   0  0  0  0  0  0  0  0  0  0  0  0
    6.3666   -5.7039   21.0866 C   0  0  0  0  0  0  0  0  0  0  0  0
    7.5203   -5.7892   21.4893 O   0  0  0  0  0  0  0  0  0  0  0  0
    5.2658   -6.4924   21.7519 C   0  0  0  0  0  0  0  0  0  0  0  0
    4.9757   -6.0513   23.1796 C   0  0  0  0  0  0  0  0  0  0  0  0
    3.8614   -6.8661   23.8210 C   0  0  0  0  0  0  0  0  0  0  0  0
    2.5255   -6.6803   23.1578 C   0  0  0  0  0  0  0  0  0  0  0  0
    1.6974   -5.8669   23.5223 O   0  0  0  0  0  0  0  0  0  0  0  0
    2.3926   -7.5513   22.1040 O   0  0  0  0  0  0  0  0  0  0  0  0
    1.2416   -7.6207   21.2777 C   0  0  0  0  0  0  0  0  0  0  0  0
    1.1035   -8.5270   20.1812 C   0  0  0  0  0  0  0  0  0  0  0  0
   -0.0978   -8.3045   19.6466 C   0  0  0  0  0  0  0  0  0  0  0  0
   -0.7414   -7.3159   20.3256 O   0  0  0  0  0  0  0  0  0  0  0  0
    0.1054   -6.9176   21.3191 C   0  0  0  0  0  0  0  0  0  0  0  0
  1  2  2  0
  2  3  1  0
  3  4  1  0
  4  5  2  0
  4  6  1  0
  6  7  2  0
  6  8  1  0
  8  9  2  0
  9 10  1  0
 10 11  2  0
 11 12  1  0
  2 13  1  0
 13 14  1  0
 14 15  1  0
 15 16  2  0
 15 17  1  0
 17 18  2  0
 17 19  1  0
 19 20  2  0
 19 21  1  0
 21 22  2  0
 21 23  1  0
 23 24  1  0
 24 25  1  0
 25 26  1  0
 26 27  2  0
 26 28  1  0
 28 29  1  0
 29 30  1  0
 30 31  2  0
 31 32  1  0
 32 33  1  0
 12  8  1  0
 33 29  2  0
M  END
