CVD-0001237|dock_bobby27042020.53|mol2|21|dock2
     RDKit          3D

 22 23  0  0  0  0  0  0  0  0999 V2000
   13.4820   -0.2169   22.5422 C   0  0  0  0  0  0  0  0  0  0  0  0
   13.3567   -1.4937   21.7715 C   0  0  0  0  0  0  0  0  0  0  0  0
   11.9646   -1.8636   21.5779 N   0  0  0  0  0  0  0  0  0  0  0  0
   11.2012   -2.3674   22.5620 C   0  0  0  0  0  0  0  0  0  0  0  0
   11.7831   -3.2698   23.3768 N   0  0  0  0  0  0  0  0  0  0  0  0
   11.0458   -3.7897   24.3647 C   0  0  0  0  0  0  0  0  0  0  0  0
    9.7178   -3.4502   24.5943 C   0  0  0  0  0  0  0  0  0  0  0  0
    9.1284   -2.5178   23.7484 C   0  0  0  0  0  0  0  0  0  0  0  0
    9.8616   -1.9537   22.7112 C   0  0  0  0  0  0  0  0  0  0  0  0
    9.1902   -0.9437   21.8061 C   0  0  0  0  0  0  0  0  0  0  0  0
    8.3459   -1.6061   20.6979 C   0  0  0  0  0  0  0  0  0  0  0  0
    7.5637   -0.6064   19.8809 C   0  0  0  0  0  0  0  0  0  0  0  0
    8.0956   -0.0611   18.7237 C   0  0  0  0  0  0  0  0  0  0  0  0
    7.3734    0.8574   17.9817 C   0  0  0  0  0  0  0  0  0  0  0  0
    6.1079    1.2428   18.3905 C   0  0  0  0  0  0  0  0  0  0  0  0
    5.5538    0.7091   19.5508 C   0  0  0  0  0  0  0  0  0  0  0  0
    6.2939   -0.2125   20.2836 C   0  0  0  0  0  0  0  0  0  0  0  0
    4.1851    1.0854   20.0504 C   0  0  0  0  0  0  0  0  0  0  0  0
    3.2392    1.4412   19.1895 N   0  0  0  0  0  0  0  0  0  0  0  0
    3.9727    1.0534   21.2677 O   0  0  0  0  0  0  0  0  0  0  0  0
    8.9699   -4.0434   25.6751 C   0  0  0  0  0  0  0  0  0  0  0  0
    8.3977   -4.4981   26.5530 N   0  0  0  0  0  0  0  0  0  0  0  0
  1  2  1  0
  2  3  1  0
  3  4  1  0
  4  5  2  0
  5  6  1  0
  6  7  2  0
  7  8  1  0
  8  9  2  0
  9 10  1  0
 10 11  1  0
 11 12  1  0
 12 13  2  0
 13 14  1  0
 14 15  2  0
 15 16  1  0
 16 17  2  0
 16 18  1  0
 18 19  1  0
 18 20  2  0
  7 21  1  0
 21 22  3  0
  9  4  1  0
 17 12  1  0
M  END
