CVD-0000559|dock_bobby27042020.41|mol2|10|dock2
     RDKit          3D

 25 27  0  0  0  0  0  0  0  0999 V2000
   14.6798    5.4539   21.9107 N   0  0  0  0  0  0  0  0  0  0  0  0
   13.5203    4.9642   22.3552 C   0  0  0  0  0  0  0  0  0  0  0  0
   12.6136    5.8447   22.8275 N   0  0  0  0  0  0  0  0  0  0  0  0
   11.4616    5.3222   23.2655 C   0  0  0  0  0  0  0  0  0  0  0  0
   11.1597    3.9735   23.2606 C   0  0  0  0  0  0  0  0  0  0  0  0
   12.1719    3.1641   22.7503 C   0  0  0  0  0  0  0  0  0  0  0  0
   13.3514    3.6287   22.2949 N   0  0  0  0  0  0  0  0  0  0  0  0
   11.9876    1.7381   22.6876 C   0  0  0  0  0  0  0  0  0  0  0  0
   11.8949    0.5481   22.6798 C   0  0  0  0  0  0  0  0  0  0  0  0
   11.8557   -0.9194   22.6870 C   0  0  0  0  0  0  0  0  0  0  0  0
   10.8656   -1.4827   21.6368 C   0  0  0  0  0  0  0  0  0  0  0  0
    9.5519   -0.7446   21.4685 C   0  0  0  0  0  0  0  0  0  0  0  0
    9.0412   -0.1109   22.3861 O   0  0  0  0  0  0  0  0  0  0  0  0
    9.0311   -0.8683   20.2232 N   0  0  0  0  0  0  0  0  0  0  0  0
    7.8442   -0.3524   19.6453 C   0  0  0  0  0  0  0  0  0  0  0  0
    6.7024   -0.2585   20.4306 C   0  0  0  0  0  0  0  0  0  0  0  0
    5.5341    0.2426   19.8843 C   0  0  0  0  0  0  0  0  0  0  0  0
    5.5397    0.6364   18.5664 C   0  0  0  0  0  0  0  0  0  0  0  0
    6.6180    0.5591   17.7867 N   0  0  0  0  0  0  0  0  0  0  0  0
    7.7422    0.0737   18.3229 C   0  0  0  0  0  0  0  0  0  0  0  0
   11.2804   -1.2922   24.0509 C   0  0  0  0  0  0  0  0  0  0  0  0
   12.2487   -0.9452   25.1640 C   0  0  0  0  0  0  0  0  0  0  0  0
   13.5985   -1.6143   24.9541 C   0  0  0  0  0  0  0  0  0  0  0  0
   14.1749   -1.2579   23.5934 C   0  0  0  0  0  0  0  0  0  0  0  0
   13.2033   -1.5928   22.4688 C   0  0  0  0  0  0  0  0  0  0  0  0
  1  2  1  0
  2  3  2  0
  3  4  1  0
  4  5  2  0
  5  6  1  0
  6  7  2  0
  6  8  1  0
  8  9  3  0
  9 10  1  0
 10 11  1  0
 11 12  1  0
 12 13  2  0
 12 14  1  0
 14 15  1  0
 15 16  2  0
 16 17  1  0
 17 18  2  0
 18 19  1  0
 19 20  2  0
 10 21  1  0
 21 22  1  0
 22 23  1  0
 23 24  1  0
 24 25  1  0
  7  2  1  0
 25 10  1  0
 20 15  1  0
M  END
