CVD-0000019|dock_bobby27042020.100|mol2|3|dock2
     RDKit          3D

 42 46  0  0  0  0  0  0  0  0999 V2000
    1.1714   -5.9894   22.2957 C   0  0  0  0  0  0  0  0  0  0  0  0
    1.9665   -7.2665   22.1125 C   0  0  0  0  0  0  0  0  0  0  0  0
    1.3654   -8.1012   21.0006 C   0  0  0  0  0  0  0  0  0  0  0  0
    2.0164   -8.0670   23.3983 C   0  0  0  0  0  0  0  0  0  0  0  0
    3.3491   -6.9191   21.7076 O   0  0  0  0  0  0  0  0  0  0  0  0
    4.1796   -6.1926   22.4771 C   0  0  0  0  0  0  0  0  0  0  0  0
    3.9625   -5.8293   23.6129 O   0  0  0  0  0  0  0  0  0  0  0  0
    5.3136   -5.9404   21.7396 N   0  0  0  0  0  0  0  0  0  0  0  0
    6.4482   -5.2090   22.1596 C   0  0  0  0  0  0  0  0  0  0  0  0
    7.4691   -5.6070   22.9792 C   0  0  0  0  0  0  0  0  0  0  0  0
    8.5095   -4.7142   23.2727 C   0  0  0  0  0  0  0  0  0  0  0  0
    8.5112   -3.4740   22.7472 C   0  0  0  0  0  0  0  0  0  0  0  0
    7.5024   -3.0433   21.9121 N   0  0  0  0  0  0  0  0  0  0  0  0
    7.4889   -1.6743   21.3230 C   0  0  0  0  0  0  0  0  0  0  0  0
    8.8512   -0.9495   21.3852 C   0  0  0  0  0  0  0  0  0  0  0  0
    9.3688   -0.3102   22.6162 C   0  0  0  0  0  0  0  0  0  0  0  0
    9.0369    0.5290   21.4442 C   0  0  0  0  0  0  0  0  0  0  0  0
    6.3546   -0.7789   21.7942 C   0  0  0  0  0  0  0  0  0  0  0  0
    6.0607   -0.7437   23.1570 C   0  0  0  0  0  0  0  0  0  0  0  0
    4.9933   -0.0304   23.6950 C   0  0  0  0  0  0  0  0  0  0  0  0
    4.1637    0.6753   22.8287 C   0  0  0  0  0  0  0  0  0  0  0  0
    4.4521    0.6970   21.4706 C   0  0  0  0  0  0  0  0  0  0  0  0
    3.7938    1.3288   20.4456 N   0  0  0  0  0  0  0  0  0  0  0  0
    4.4742    1.1226   19.2832 C   0  0  0  0  0  0  0  0  0  0  0  0
    5.5817    0.3354   19.5145 C   0  0  0  0  0  0  0  0  0  0  0  0
    6.4810    0.0051   18.4389 C   0  0  0  0  0  0  0  0  0  0  0  0
    6.1797   -0.0299   17.2622 O   0  0  0  0  0  0  0  0  0  0  0  0
    5.5623    0.0080   20.9326 C   0  0  0  0  0  0  0  0  0  0  0  0
    4.8032   -0.0728   25.1764 C   0  0  0  0  0  0  0  0  0  0  0  0
    4.1067    0.7811   25.7140 O   0  0  0  0  0  0  0  0  0  0  0  0
    5.4167   -1.1233   26.1214 C   0  0  0  0  0  0  0  0  0  0  0  0
    5.2063   -2.3305   26.0293 O   0  0  0  0  0  0  0  0  0  0  0  0
    6.2025   -0.6026   27.0626 N   0  0  0  0  0  0  0  0  0  0  0  0
    6.8729   -1.4288   28.0558 C   0  0  0  0  0  0  0  0  0  0  0  0
    7.6398   -0.6273   29.0795 C   0  0  0  0  0  0  0  0  0  0  0  0
    6.9757    0.0673   30.0787 C   0  0  0  0  0  0  0  0  0  0  0  0
    7.6788    0.8054   31.0160 C   0  0  0  0  0  0  0  0  0  0  0  0
    9.0552    0.8584   30.9647 C   0  0  0  0  0  0  0  0  0  0  0  0
    9.7279    0.1735   29.9757 C   0  0  0  0  0  0  0  0  0  0  0  0
    9.0241   -0.5643   29.0386 C   0  0  0  0  0  0  0  0  0  0  0  0
    6.4327   -3.8502   21.5821 C   0  0  0  0  0  0  0  0  0  0  0  0
    5.5156   -3.4787   20.8603 O   0  0  0  0  0  0  0  0  0  0  0  0
  1  2  1  0
  2  3  1  0
  2  4  1  0
  2  5  1  0
  5  6  1  0
  6  7  2  0
  6  8  1  0
  8  9  1  0
  9 10  2  0
 10 11  1  0
 11 12  2  0
 12 13  1  0
 13 14  1  0
 14 15  1  0
 15 16  1  0
 16 17  1  0
 14 18  1  0
 18 19  2  0
 19 20  1  0
 20 21  2  0
 21 22  1  0
 22 23  1  0
 23 24  1  0
 24 25  2  0
 25 26  1  0
 26 27  2  0
 25 28  1  0
 20 29  1  0
 29 30  2  0
 29 31  1  0
 31 32  2  0
 31 33  1  0
 33 34  1  0
 34 35  1  0
 35 36  2  0
 36 37  1  0
 37 38  2  0
 38 39  1  0
 39 40  2  0
 13 41  1  0
 41 42  2  0
 41  9  1  0
 17 15  1  0
 28 18  1  0
 40 35  1  0
 28 22  2  0
M  END
