CVD-0000865|dock_bobby27042020.97|mol2|15|dock3
     RDKit          3D

 25 26  0  0  0  0  0  0  0  0999 V2000
    7.8673   -0.9994   18.8469 C   0  0  0  0  0  0  0  0  0  0  0  0
    7.2565   -1.0573   20.2418 C   0  0  0  0  0  0  0  0  0  0  0  0
    6.2975    0.0442   20.3722 N   0  0  0  0  0  0  0  0  0  0  0  0
    5.0607   -0.0073   19.8731 C   0  0  0  0  0  0  0  0  0  0  0  0
    4.6150   -0.9745   19.2635 O   0  0  0  0  0  0  0  0  0  0  0  0
    4.2303    1.2317   20.1267 C   0  0  0  0  0  0  0  0  0  0  0  0
    4.7444    2.6067   19.1407 Cl  0  0  0  0  0  0  0  0  0  0  0  0
    8.3251   -0.9768   21.3153 C   0  0  0  0  0  0  0  0  0  0  0  0
    8.5432   -2.0429   22.1737 C   0  0  0  0  0  0  0  0  0  0  0  0
    9.5230   -1.9509   23.1394 C   0  0  0  0  0  0  0  0  0  0  0  0
    9.7834   -3.2965   24.2139 Cl  0  0  0  0  0  0  0  0  0  0  0  0
   10.3027   -0.8214   23.2765 C   0  0  0  0  0  0  0  0  0  0  0  0
   10.1006    0.2643   22.4232 C   0  0  0  0  0  0  0  0  0  0  0  0
    9.1038    0.1629   21.4511 C   0  0  0  0  0  0  0  0  0  0  0  0
   10.9276    1.4951   22.5498 C   0  0  0  0  0  0  0  0  0  0  0  0
   12.3096    1.4210   22.6959 C   0  0  0  0  0  0  0  0  0  0  0  0
   13.0816    2.5622   22.8142 C   0  0  0  0  0  0  0  0  0  0  0  0
   12.4883    3.8144   22.7971 C   0  0  0  0  0  0  0  0  0  0  0  0
   11.0984    3.9161   22.6476 C   0  0  0  0  0  0  0  0  0  0  0  0
   10.4557    5.1155   22.6165 O   0  0  0  0  0  0  0  0  0  0  0  0
   10.3410    2.7619   22.5252 C   0  0  0  0  0  0  0  0  0  0  0  0
   13.5602    5.2195   22.9580 S   0  0  0  0  0  0  0  0  0  0  0  0
   13.8359    5.8261   21.5021 N   0  0  0  0  0  0  0  0  0  0  0  0
   14.8157    4.7465   23.4592 O   0  0  0  0  0  0  0  0  0  0  0  0
   12.8481    6.2137   23.7034 O   0  0  0  0  0  0  0  0  0  0  0  0
  1  2  1  0
  2  3  1  0
  3  4  1  0
  4  5  2  0
  4  6  1  0
  6  7  1  0
  2  8  1  0
  8  9  2  0
  9 10  1  0
 10 11  1  0
 10 12  2  0
 12 13  1  0
 13 14  2  0
 13 15  1  0
 15 16  2  0
 16 17  1  0
 17 18  2  0
 18 19  1  0
 19 20  1  0
 19 21  2  0
 18 22  1  0
 22 23  1  0
 22 24  2  0
 22 25  2  0
 14  8  1  0
 21 15  1  0
M  END
