CVD-0001846|dock_bobby27042020.8|mol2|17|dock1
     RDKit          3D

 29 32  0  0  0  0  0  0  0  0999 V2000
    4.9638    0.3647   23.1091 C   0  0  0  0  0  0  0  0  0  0  0  0
    6.3406   -0.1934   23.3238 C   0  0  0  0  0  0  0  0  0  0  0  0
    6.8639   -0.1107   24.4283 O   0  0  0  0  0  0  0  0  0  0  0  0
    6.9905   -0.8080   22.2240 N   0  0  0  0  0  0  0  0  0  0  0  0
    6.4296   -0.9637   20.9029 C   0  0  0  0  0  0  0  0  0  0  0  0
    6.1428   -2.1026   20.2456 C   0  0  0  0  0  0  0  0  0  0  0  0
    5.6322   -1.8272   19.0057 N   0  0  0  0  0  0  0  0  0  0  0  0
    5.5813   -0.4769   18.8355 C   0  0  0  0  0  0  0  0  0  0  0  0
    5.1553    0.1858   17.7473 N   0  0  0  0  0  0  0  0  0  0  0  0
    5.2038    1.5147   17.8579 C   0  0  0  0  0  0  0  0  0  0  0  0
    5.6082    2.2288   18.9044 N   0  0  0  0  0  0  0  0  0  0  0  0
    6.0172    1.5304   19.9682 C   0  0  0  0  0  0  0  0  0  0  0  0
    6.0542    0.1344   20.0088 C   0  0  0  0  0  0  0  0  0  0  0  0
    8.3188   -1.3380   22.4721 C   0  0  0  0  0  0  0  0  0  0  0  0
    9.4620   -0.5456   22.2206 C   0  0  0  0  0  0  0  0  0  0  0  0
   10.6963   -1.1114   22.5476 C   0  0  0  0  0  0  0  0  0  0  0  0
   10.7392   -2.3979   23.0379 C   0  0  0  0  0  0  0  0  0  0  0  0
    9.6634   -3.1674   23.2242 N   0  0  0  0  0  0  0  0  0  0  0  0
    8.4497   -2.6560   22.9620 C   0  0  0  0  0  0  0  0  0  0  0  0
    7.3618   -3.6361   23.2464 C   0  0  0  0  0  0  0  0  0  0  0  0
    6.5986   -3.4801   24.3997 C   0  0  0  0  0  0  0  0  0  0  0  0
    5.5837   -4.3679   24.7132 C   0  0  0  0  0  0  0  0  0  0  0  0
    5.3076   -5.4347   23.8765 C   0  0  0  0  0  0  0  0  0  0  0  0
    6.0556   -5.5861   22.7304 C   0  0  0  0  0  0  0  0  0  0  0  0
    5.7169   -6.9226   21.6667 Cl  0  0  0  0  0  0  0  0  0  0  0  0
    7.0669   -4.7070   22.3997 C   0  0  0  0  0  0  0  0  0  0  0  0
    9.4486    0.8262   21.6351 C   0  0  0  0  0  0  0  0  0  0  0  0
   10.2176    1.9313   22.2876 C   0  0  0  0  0  0  0  0  0  0  0  0
    8.8171    1.0911   20.6264 O   0  0  0  0  0  0  0  0  0  0  0  0
  1  2  1  0
  2  3  2  0
  2  4  1  0
  4  5  1  0
  5  6  2  0
  6  7  1  0
  7  8  1  0
  8  9  2  0
  9 10  1  0
 10 11  2  0
 11 12  1  0
 12 13  2  0
  4 14  1  0
 14 15  2  0
 15 16  1  0
 16 17  2  0
 17 18  1  0
 18 19  2  0
 19 20  1  0
 20 21  2  0
 21 22  1  0
 22 23  2  0
 23 24  1  0
 24 25  1  0
 24 26  2  0
 15 27  1  0
 27 28  1  0
 27 29  2  0
 13  5  1  0
 19 14  1  0
 26 20  1  0
 13  8  1  0
M  END
