CVD-0002457|dock_bobby27042020.77|mol2|18|dock1
     RDKit          3D

 31 34  0  0  0  0  0  0  0  0999 V2000
   -1.9745   -4.1687   18.8992 C   0  0  0  0  0  0  0  0  0  0  0  0
   -1.1474   -4.7767   20.0057 C   0  0  0  0  0  0  0  0  0  0  0  0
   -0.7805   -4.0323   21.1148 C   0  0  0  0  0  0  0  0  0  0  0  0
   -0.0183   -4.5808   22.1306 C   0  0  0  0  0  0  0  0  0  0  0  0
    0.3947   -5.8993   22.0489 C   0  0  0  0  0  0  0  0  0  0  0  0
    1.1505   -6.4147   23.0737 O   0  0  0  0  0  0  0  0  0  0  0  0
    2.0716   -7.4759   22.8378 C   0  0  0  0  0  0  0  0  0  0  0  0
    3.2237   -7.4031   23.8269 C   0  0  0  0  0  0  0  0  0  0  0  0
    3.5025   -8.3691   24.5259 O   0  0  0  0  0  0  0  0  0  0  0  0
    3.9208   -6.2495   23.8967 N   0  0  0  0  0  0  0  0  0  0  0  0
    3.7202   -5.0238   23.1392 C   0  0  0  0  0  0  0  0  0  0  0  0
    5.0213   -4.5016   22.5403 C   0  0  0  0  0  0  0  0  0  0  0  0
    6.0604   -4.3928   23.5749 N   0  0  0  0  0  0  0  0  0  0  0  0
    6.2787   -5.7135   24.2185 C   0  0  0  0  0  0  0  0  0  0  0  0
    5.0007   -6.1428   24.8891 C   0  0  0  0  0  0  0  0  0  0  0  0
    7.1489   -3.5585   23.3635 C   0  0  0  0  0  0  0  0  0  0  0  0
    7.4678   -2.5466   24.2630 C   0  0  0  0  0  0  0  0  0  0  0  0
    8.5502   -1.7143   24.0399 C   0  0  0  0  0  0  0  0  0  0  0  0
    9.3524   -1.8655   22.9219 C   0  0  0  0  0  0  0  0  0  0  0  0
   10.5329   -0.9543   22.6830 C   0  0  0  0  0  0  0  0  0  0  0  0
   11.6162   -1.1261   23.6624 N   0  0  0  0  0  0  0  0  0  0  0  0
   12.8445   -0.4663   23.2032 C   0  0  0  0  0  0  0  0  0  0  0  0
   13.9611   -0.5836   24.2218 C   0  0  0  0  0  0  0  0  0  0  0  0
   14.2700   -2.0291   24.5925 C   0  0  0  0  0  0  0  0  0  0  0  0
   15.2300   -2.1641   25.6440 O   0  0  0  0  0  0  0  0  0  0  0  0
   12.9633   -2.7193   24.9679 C   0  0  0  0  0  0  0  0  0  0  0  0
   11.8910   -2.5448   23.9054 C   0  0  0  0  0  0  0  0  0  0  0  0
    9.0403   -2.8764   22.0292 C   0  0  0  0  0  0  0  0  0  0  0  0
    7.9577   -3.7112   22.2419 C   0  0  0  0  0  0  0  0  0  0  0  0
    0.0351   -6.6621   20.9480 C   0  0  0  0  0  0  0  0  0  0  0  0
   -0.7266   -6.0950   19.9414 C   0  0  0  0  0  0  0  0  0  0  0  0
  1  2  1  0
  2  3  2  0
  3  4  1  0
  4  5  2  0
  5  6  1  0
  6  7  1  0
  7  8  1  0
  8  9  2  0
  8 10  1  0
 10 11  1  0
 11 12  1  0
 12 13  1  0
 13 14  1  0
 14 15  1  0
 13 16  1  0
 16 17  2  0
 17 18  1  0
 18 19  2  0
 19 20  1  0
 20 21  1  0
 21 22  1  0
 22 23  1  0
 23 24  1  0
 24 25  1  0
 24 26  1  0
 26 27  1  0
 19 28  1  0
 28 29  2  0
  5 30  1  0
 30 31  2  0
 31  2  1  0
 15 10  1  0
 29 16  1  0
 27 21  1  0
M  END
