CVD-0001842|dock_bobby27042020.65|mol2|41|dock3
     RDKit          3D

 21 23  0  0  0  0  0  0  0  0999 V2000
   14.4091   -0.3029   23.0467 F   0  0  0  0  0  0  0  0  0  0  0  0
   13.4787   -1.3511   23.0329 C   0  0  0  0  0  0  0  0  0  0  0  0
   12.1021   -0.8291   23.4530 C   0  0  0  0  0  0  0  0  0  0  0  0
   11.1842   -0.9712   22.2927 C   0  0  0  0  0  0  0  0  0  0  0  0
    9.9268   -1.7954   22.5622 C   0  0  0  0  0  0  0  0  0  0  0  0
    9.0387   -1.9390   21.3295 C   0  0  0  0  0  0  0  0  0  0  0  0
    7.6171   -2.3476   21.6157 C   0  0  0  0  0  0  0  0  0  0  0  0
    7.3366   -3.4813   21.9412 O   0  0  0  0  0  0  0  0  0  0  0  0
    6.5404   -1.2931   21.4668 C   0  0  0  0  0  0  0  0  0  0  0  0
    6.0468   -1.1348   20.0597 C   0  0  0  0  0  0  0  0  0  0  0  0
    5.7639   -2.1273   19.1670 C   0  0  0  0  0  0  0  0  0  0  0  0
    5.3355   -1.5998   17.9770 N   0  0  0  0  0  0  0  0  0  0  0  0
    5.3340   -0.2399   18.0814 C   0  0  0  0  0  0  0  0  0  0  0  0
    4.9841    0.6595   17.1468 N   0  0  0  0  0  0  0  0  0  0  0  0
    5.0865    1.9306   17.5440 C   0  0  0  0  0  0  0  0  0  0  0  0
    5.4854    2.3885   18.7288 N   0  0  0  0  0  0  0  0  0  0  0  0
    5.8249    1.4621   19.6309 C   0  0  0  0  0  0  0  0  0  0  0  0
    5.7734    0.0929   19.3720 C   0  0  0  0  0  0  0  0  0  0  0  0
   12.0063   -1.5810   21.2436 N   0  0  0  0  0  0  0  0  0  0  0  0
   13.2946   -1.8179   21.6248 C   0  0  0  0  0  0  0  0  0  0  0  0
   14.1834   -2.3339   20.9525 O   0  0  0  0  0  0  0  0  0  0  0  0
  1  2  1  0
  2  3  1  0
  3  4  1  0
  4  5  1  0
  5  6  1  0
  6  7  1  0
  7  8  2  0
  7  9  1  0
  9 10  1  0
 10 11  2  0
 11 12  1  0
 12 13  1  0
 13 14  2  0
 14 15  1  0
 15 16  2  0
 16 17  1  0
 17 18  2  0
  4 19  1  0
 19 20  1  0
 20 21  2  0
 20  2  1  0
 18 10  1  0
 18 13  1  0
M  END
