CVD-0002993|dock_bobby27042020.61|mol2|19|dock2
     RDKit          3D

 34 37  0  0  0  0  0  0  0  0999 V2000
   13.3211    4.9800   22.9196 C   0  0  0  0  0  0  0  0  0  0  0  0
   12.7870    4.1235   21.8144 C   0  0  0  0  0  0  0  0  0  0  0  0
   11.8737    3.1122   22.3194 N   0  0  0  0  0  0  0  0  0  0  0  0
   12.2341    1.8405   22.5388 C   0  0  0  0  0  0  0  0  0  0  0  0
   13.4496    1.6379   23.0551 N   0  0  0  0  0  0  0  0  0  0  0  0
   13.8601    0.3858   23.2918 C   0  0  0  0  0  0  0  0  0  0  0  0
   13.1208   -0.7246   23.0455 C   0  0  0  0  0  0  0  0  0  0  0  0
   13.6325   -2.0430   23.3281 C   0  0  0  0  0  0  0  0  0  0  0  0
   14.0726   -3.0671   23.5780 N   0  0  0  0  0  0  0  0  0  0  0  0
   11.8076   -0.5691   22.4939 C   0  0  0  0  0  0  0  0  0  0  0  0
   10.9556   -1.6633   22.2037 C   0  0  0  0  0  0  0  0  0  0  0  0
    9.7126   -1.4717   21.6832 C   0  0  0  0  0  0  0  0  0  0  0  0
    9.2270   -0.1984   21.4011 C   0  0  0  0  0  0  0  0  0  0  0  0
   10.0364    0.8948   21.6757 C   0  0  0  0  0  0  0  0  0  0  0  0
   11.3368    0.7523   22.2253 C   0  0  0  0  0  0  0  0  0  0  0  0
    7.9086    0.0056   20.8350 N   0  0  0  0  0  0  0  0  0  0  0  0
    7.6066   -0.3491   19.5218 C   0  0  0  0  0  0  0  0  0  0  0  0
    8.4260   -0.8634   18.7705 O   0  0  0  0  0  0  0  0  0  0  0  0
    6.2051   -0.0834   19.0045 C   0  0  0  0  0  0  0  0  0  0  0  0
    5.6981   -1.3398   17.8681 Cl  0  0  0  0  0  0  0  0  0  0  0  0
    6.9370    0.5947   21.7325 C   0  0  0  0  0  0  0  0  0  0  0  0
    6.3335   -0.2003   22.6973 C   0  0  0  0  0  0  0  0  0  0  0  0
    5.3879    0.3396   23.5494 C   0  0  0  0  0  0  0  0  0  0  0  0
    5.0375    1.6744   23.4526 C   0  0  0  0  0  0  0  0  0  0  0  0
    5.6600    2.5059   22.5223 C   0  0  0  0  0  0  0  0  0  0  0  0
    6.5981    1.9437   21.6593 C   0  0  0  0  0  0  0  0  0  0  0  0
    5.3886    3.9790   22.3636 C   0  0  0  0  0  0  0  0  0  0  0  0
    4.4145    4.2669   21.6894 O   0  0  0  0  0  0  0  0  0  0  0  0
    6.1441    4.9703   22.8948 N   0  0  0  0  0  0  0  0  0  0  0  0
    7.3530    4.7752   23.6984 C   0  0  0  0  0  0  0  0  0  0  0  0
    8.6040    5.0056   22.8891 C   0  0  0  0  0  0  0  0  0  0  0  0
    8.7010    6.6844   22.2146 S   0  0  0  0  0  0  0  0  0  0  0  0
    7.0650    6.7391   21.4584 C   0  0  0  0  0  0  0  0  0  0  0  0
    5.9579    6.3373   22.3975 C   0  0  0  0  0  0  0  0  0  0  0  0
  1  2  1  0
  2  3  1  0
  3  4  1  0
  4  5  2  0
  5  6  1  0
  6  7  2  0
  7  8  1  0
  8  9  3  0
  7 10  1  0
 10 11  2  0
 11 12  1  0
 12 13  2  0
 13 14  1  0
 14 15  2  0
 13 16  1  0
 16 17  1  0
 17 18  2  0
 17 19  1  0
 19 20  1  0
 16 21  1  0
 21 22  2  0
 22 23  1  0
 23 24  2  0
 24 25  1  0
 25 26  2  0
 25 27  1  0
 27 28  2  0
 27 29  1  0
 29 30  1  0
 30 31  1  0
 31 32  1  0
 32 33  1  0
 33 34  1  0
 15  4  1  0
 26 21  1  0
 34 29  1  0
 15 10  1  0
M  END
