CVD-0001333|dock_bobby27042020.67|mol2|27|dock3
     RDKit          3D

 17 18  0  0  0  0  0  0  0  0999 V2000
   13.4737   -1.7543   20.8839 C   0  0  0  0  0  0  0  0  0  0  0  0
   12.9235   -2.0957   22.2381 C   0  0  0  0  0  0  0  0  0  0  0  0
   13.8373   -2.4286   23.1488 N   0  0  0  0  0  0  0  0  0  0  0  0
   13.4051   -2.7379   24.3690 C   0  0  0  0  0  0  0  0  0  0  0  0
   12.1484   -2.7526   24.7899 N   0  0  0  0  0  0  0  0  0  0  0  0
   11.2326   -2.4181   23.8773 C   0  0  0  0  0  0  0  0  0  0  0  0
   11.5585   -2.0740   22.5662 C   0  0  0  0  0  0  0  0  0  0  0  0
   10.6296   -1.7084   21.5510 N   0  0  0  0  0  0  0  0  0  0  0  0
    9.3901   -1.1208   21.6750 C   0  0  0  0  0  0  0  0  0  0  0  0
    8.8734   -0.8073   22.7420 O   0  0  0  0  0  0  0  0  0  0  0  0
    8.8020   -0.9289   20.4448 N   0  0  0  0  0  0  0  0  0  0  0  0
    7.5485   -0.3668   20.0924 C   0  0  0  0  0  0  0  0  0  0  0  0
    6.4580   -0.2971   20.9575 C   0  0  0  0  0  0  0  0  0  0  0  0
    5.2671    0.2690   20.5330 C   0  0  0  0  0  0  0  0  0  0  0  0
    5.1445    0.7688   19.2554 C   0  0  0  0  0  0  0  0  0  0  0  0
    6.2159    0.7049   18.3927 C   0  0  0  0  0  0  0  0  0  0  0  0
    7.4113    0.1414   18.8054 C   0  0  0  0  0  0  0  0  0  0  0  0
  1  2  1  0
  2  3  2  0
  3  4  1  0
  4  5  2  0
  5  6  1  0
  6  7  2  0
  7  8  1  0
  8  9  1  0
  9 10  2  0
  9 11  1  0
 11 12  1  0
 12 13  2  0
 13 14  1  0
 14 15  2  0
 15 16  1  0
 16 17  2  0
  7  2  1  0
 17 12  1  0
M  END
