CVD-0002338|dock_bobby27042020.6|mol2|17|dock3
     RDKit          3D

 13 13  0  0  0  0  0  0  0  0999 V2000
   12.9828   -1.7270   21.7220 C   0  0  0  0  0  0  0  0  0  0  0  0
   12.5964   -1.0938   23.0563 C   0  0  0  0  0  0  0  0  0  0  0  0
   13.6970   -1.3145   24.0835 C   0  0  0  0  0  0  0  0  0  0  0  0
   13.5751   -0.6434   25.2176 N   0  0  0  0  0  0  0  0  0  0  0  0
   14.6396   -2.0763   23.8573 O   0  0  0  0  0  0  0  0  0  0  0  0
   12.3325    0.3998   22.9243 C   0  0  0  0  0  0  0  0  0  0  0  0
   11.0454    0.9027   22.8086 C   0  0  0  0  0  0  0  0  0  0  0  0
   10.8347    2.2637   22.6869 C   0  0  0  0  0  0  0  0  0  0  0  0
   11.9483    3.0977   22.6841 C   0  0  0  0  0  0  0  0  0  0  0  0
   13.2108    2.6417   22.7934 N   0  0  0  0  0  0  0  0  0  0  0  0
   13.3699    1.3180   22.9091 C   0  0  0  0  0  0  0  0  0  0  0  0
   11.7922    4.5338   22.5599 C   0  0  0  0  0  0  0  0  0  0  0  0
   11.6579    5.6603   22.4261 N   0  0  0  0  0  0  0  0  0  0  0  0
  1  2  1  0
  2  3  1  0
  3  4  1  0
  3  5  2  0
  2  6  1  0
  6  7  2  0
  7  8  1  0
  8  9  2  0
  9 10  1  0
 10 11  2  0
  9 12  1  0
 12 13  3  0
 11  6  1  0
M  END
