CVD-0001888|dock_bobby27042020.93|mol2|39|dock1
     RDKit          3D

 30 32  0  0  0  0  0  0  0  0999 V2000
   14.4882   -2.5455   24.1086 C   0  0  0  0  0  0  0  0  0  0  0  0
   14.1094   -0.8744   23.5863 S   0  0  0  0  0  0  0  0  0  0  0  0
   12.3594   -0.8908   23.3811 C   0  0  0  0  0  0  0  0  0  0  0  0
   11.5276   -0.4161   24.3840 C   0  0  0  0  0  0  0  0  0  0  0  0
   10.1534   -0.4361   24.2241 C   0  0  0  0  0  0  0  0  0  0  0  0
    9.5753   -0.9292   23.0606 C   0  0  0  0  0  0  0  0  0  0  0  0
   10.4159   -1.4105   22.0635 C   0  0  0  0  0  0  0  0  0  0  0  0
   11.7905   -1.3919   22.2200 C   0  0  0  0  0  0  0  0  0  0  0  0
    8.1457   -0.9421   22.9350 N   0  0  0  0  0  0  0  0  0  0  0  0
    7.4797    0.3387   22.5767 C   0  0  0  0  0  0  0  0  0  0  0  0
    8.2628    1.5511   23.1228 C   0  0  0  0  0  0  0  0  0  0  0  0
    7.8497    2.2154   24.0687 O   0  0  0  0  0  0  0  0  0  0  0  0
    9.4148    1.7724   22.4423 N   0  0  0  0  0  0  0  0  0  0  0  0
   10.4189    2.7603   22.5996 C   0  0  0  0  0  0  0  0  0  0  0  0
   10.0172    4.0548   22.9088 C   0  0  0  0  0  0  0  0  0  0  0  0
   10.9449    5.0671   23.0761 C   0  0  0  0  0  0  0  0  0  0  0  0
   12.2836    4.7814   22.9330 C   0  0  0  0  0  0  0  0  0  0  0  0
   13.4567    6.0512   23.1424 Cl  0  0  0  0  0  0  0  0  0  0  0  0
   12.7112    3.5090   22.6272 C   0  0  0  0  0  0  0  0  0  0  0  0
   11.7801    2.4988   22.4604 C   0  0  0  0  0  0  0  0  0  0  0  0
    7.1487    0.4715   21.0940 C   0  0  0  0  0  0  0  0  0  0  0  0
    7.3340   -0.5667   20.1920 C   0  0  0  0  0  0  0  0  0  0  0  0
    7.0097   -0.3855   18.8587 C   0  0  0  0  0  0  0  0  0  0  0  0
    6.5081    0.8338   18.4634 C   0  0  0  0  0  0  0  0  0  0  0  0
    6.3185    1.8522   19.3036 N   0  0  0  0  0  0  0  0  0  0  0  0
    6.6375    1.6548   20.5861 C   0  0  0  0  0  0  0  0  0  0  0  0
    7.3367   -2.0605   23.1070 C   0  0  0  0  0  0  0  0  0  0  0  0
    6.1164   -1.9891   22.9670 O   0  0  0  0  0  0  0  0  0  0  0  0
    7.8957   -3.4030   23.4438 C   0  0  0  0  0  0  0  0  0  0  0  0
    7.1485   -4.4734   23.3781 C   0  0  0  0  0  0  0  0  0  0  0  0
  1  2  1  0
  2  3  1  0
  3  4  2  0
  4  5  1  0
  5  6  2  0
  6  7  1  0
  7  8  2  0
  6  9  1  0
  9 10  1  0
 10 11  1  0
 11 12  2  0
 11 13  1  0
 13 14  1  0
 14 15  2  0
 15 16  1  0
 16 17  2  0
 17 18  1  0
 17 19  1  0
 19 20  2  0
 10 21  1  0
 21 22  2  0
 22 23  1  0
 23 24  2  0
 24 25  1  0
 25 26  2  0
  9 27  1  0
 27 28  2  0
 27 29  1  0
 29 30  2  0
  8  3  1  0
 20 14  1  0
 26 21  1  0
M  END
