CVD-0003117|dock_bobby27042020.3|mol2|13|dock3
     RDKit          3D

 17 18  0  0  0  0  0  0  0  0999 V2000
   14.3755    7.4079   22.0587 C   0  0  0  0  0  0  0  0  0  0  0  0
   14.1920    5.9498   21.7558 C   0  0  0  0  0  0  0  0  0  0  0  0
   14.8118    5.3906   20.8565 O   0  0  0  0  0  0  0  0  0  0  0  0
   13.3035    5.3004   22.5103 N   0  0  0  0  0  0  0  0  0  0  0  0
   13.0247    3.8955   22.3043 C   0  0  0  0  0  0  0  0  0  0  0  0
   11.5800    3.5702   22.6449 C   0  0  0  0  0  0  0  0  0  0  0  0
   10.7146    4.4360   22.6157 O   0  0  0  0  0  0  0  0  0  0  0  0
   11.3031    2.2952   22.9842 N   0  0  0  0  0  0  0  0  0  0  0  0
    9.9365    1.7971   23.3571 C   0  0  0  0  0  0  0  0  0  0  0  0
   10.1600    0.3221   23.5824 C   0  0  0  0  0  0  0  0  0  0  0  0
   11.5989   -0.0673   23.3759 C   0  0  0  0  0  0  0  0  0  0  0  0
   12.3369    1.2279   23.0180 C   0  0  0  0  0  0  0  0  0  0  0  0
   12.2131   -0.7014   24.6287 C   0  0  0  0  0  0  0  0  0  0  0  0
   13.6207   -1.2527   24.3580 C   0  0  0  0  0  0  0  0  0  0  0  0
   13.6659   -2.1351   23.0679 C   0  0  0  0  0  0  0  0  0  0  0  0
   13.0960   -1.4150   21.9396 N   0  0  0  0  0  0  0  0  0  0  0  0
   11.7124   -1.0307   22.1967 C   0  0  0  0  0  0  0  0  0  0  0  0
  1  2  1  0
  2  3  2  0
  2  4  1  0
  4  5  1  0
  5  6  1  0
  6  7  2  0
  6  8  1  0
  8  9  1  0
  9 10  1  0
 11 10  1  0
 11 12  1  0
 11 13  1  0
 13 14  1  0
 14 15  1  0
 15 16  1  0
 16 17  1  0
 12  8  1  0
 17 11  1  0
M  END
