CVD-0003998|dock_bobby27042020.58|mol2|4|dock1
     RDKit          3D

 18 18  0  0  0  0  0  0  0  0999 V2000
    8.4186   -3.5584   23.0217 C   0  0  0  0  0  0  0  0  0  0  0  0
    8.7937   -2.2910   22.3196 C   0  0  0  0  0  0  0  0  0  0  0  0
   10.2251   -2.2318   22.0465 N   0  0  0  0  0  0  0  0  0  0  0  0
   11.1711   -2.2063   22.9976 C   0  0  0  0  0  0  0  0  0  0  0  0
   10.9623   -2.2383   24.1929 O   0  0  0  0  0  0  0  0  0  0  0  0
   12.8452   -2.1337   22.3959 S   0  0  0  0  0  0  0  0  0  0  0  0
   13.6664   -2.7161   23.4178 O   0  0  0  0  0  0  0  0  0  0  0  0
   12.8301   -2.7260   21.0895 O   0  0  0  0  0  0  0  0  0  0  0  0
   13.2087   -0.4127   22.2581 C   0  0  0  0  0  0  0  0  0  0  0  0
   13.4282    0.2838   23.5873 C   0  0  0  0  0  0  0  0  0  0  0  0
   13.8151    1.6701   23.3707 O   0  0  0  0  0  0  0  0  0  0  0  0
   12.9946    2.7250   23.0666 C   0  0  0  0  0  0  0  0  0  0  0  0
   13.5374    3.9961   22.8810 C   0  0  0  0  0  0  0  0  0  0  0  0
   12.7374    5.2020   22.4454 C   0  0  0  0  0  0  0  0  0  0  0  0
   11.2603    4.9135   22.4154 C   0  0  0  0  0  0  0  0  0  0  0  0
   10.7038    3.7211   22.6951 C   0  0  0  0  0  0  0  0  0  0  0  0
   11.5423    2.5568   22.9361 C   0  0  0  0  0  0  0  0  0  0  0  0
   10.9627    1.4694   23.0296 O   0  0  0  0  0  0  0  0  0  0  0  0
  1  2  1  0
  2  3  1  0
  3  4  1  0
  4  5  2  0
  4  6  1  0
  6  7  2  0
  6  8  2  0
  6  9  1  0
  9 10  1  0
 10 11  1  0
 11 12  1  0
 12 13  2  0
 13 14  1  0
 14 15  1  0
 15 16  2  0
 16 17  1  0
 17 18  2  0
 17 12  1  0
M  END
