CVD-0002577|dock_bobby27042020.5|mol2|14|dock3
     RDKit          3D

 37 40  0  0  0  0  0  0  0  0999 V2000
    5.3084    1.3170   17.7947 C   0  0  0  0  0  0  0  0  0  0  0  0
    5.7674    0.1378   18.5332 N   0  0  0  0  0  0  0  0  0  0  0  0
    7.1653    0.2027   18.9726 C   0  0  0  0  0  0  0  0  0  0  0  0
    7.3855   -0.5716   20.2394 C   0  0  0  0  0  0  0  0  0  0  0  0
    6.6811   -1.7625   20.5217 C   0  0  0  0  0  0  0  0  0  0  0  0
    7.0763   -2.2897   21.7339 C   0  0  0  0  0  0  0  0  0  0  0  0
    6.5636   -3.5427   22.3376 C   0  0  0  0  0  0  0  0  0  0  0  0
    6.4721   -4.6656   21.5136 C   0  0  0  0  0  0  0  0  0  0  0  0
    5.9746   -5.8637   21.9985 C   0  0  0  0  0  0  0  0  0  0  0  0
    5.5650   -5.9696   23.3093 C   0  0  0  0  0  0  0  0  0  0  0  0
    5.6702   -4.8818   24.1577 C   0  0  0  0  0  0  0  0  0  0  0  0
    6.1833   -3.7068   23.6618 C   0  0  0  0  0  0  0  0  0  0  0  0
    6.3260   -2.6793   24.5283 F   0  0  0  0  0  0  0  0  0  0  0  0
    8.0498   -1.3867   22.2678 N   0  0  0  0  0  0  0  0  0  0  0  0
    8.2333   -0.3566   21.3303 C   0  0  0  0  0  0  0  0  0  0  0  0
    9.1661    0.6144   21.6549 O   0  0  0  0  0  0  0  0  0  0  0  0
    8.9570    1.7479   22.4011 C   0  0  0  0  0  0  0  0  0  0  0  0
    7.9290    2.0565   22.9741 O   0  0  0  0  0  0  0  0  0  0  0  0
   10.1735    2.6179   22.4507 C   0  0  0  0  0  0  0  0  0  0  0  0
   11.4420    2.1119   22.1834 C   0  0  0  0  0  0  0  0  0  0  0  0
   12.5578    2.9285   22.2364 C   0  0  0  0  0  0  0  0  0  0  0  0
   12.4095    4.2672   22.5593 C   0  0  0  0  0  0  0  0  0  0  0  0
   11.1556    4.7917   22.8249 C   0  0  0  0  0  0  0  0  0  0  0  0
   10.0476    3.9654   22.7697 C   0  0  0  0  0  0  0  0  0  0  0  0
   13.8302    5.3164   22.6225 S   0  0  0  0  0  0  0  0  0  0  0  0
   13.5160    6.5368   23.6099 N   0  0  0  0  0  0  0  0  0  0  0  0
   14.0136    5.8673   21.3134 O   0  0  0  0  0  0  0  0  0  0  0  0
   14.8949    4.5598   23.2100 O   0  0  0  0  0  0  0  0  0  0  0  0
    8.8696   -1.4711   23.7626 S   0  0  0  0  0  0  0  0  0  0  0  0
    8.4138   -0.3891   24.5791 O   0  0  0  0  0  0  0  0  0  0  0  0
    8.6997   -2.7899   24.2851 O   0  0  0  0  0  0  0  0  0  0  0  0
   10.5749   -1.2050   23.4148 C   0  0  0  0  0  0  0  0  0  0  0  0
   11.1641   -1.8258   22.3264 C   0  0  0  0  0  0  0  0  0  0  0  0
   12.5077   -1.5999   22.0830 C   0  0  0  0  0  0  0  0  0  0  0  0
   13.2039   -0.7696   22.9318 C   0  0  0  0  0  0  0  0  0  0  0  0
   12.6509   -0.1663   23.9847 N   0  0  0  0  0  0  0  0  0  0  0  0
   11.3534   -0.3888   24.2141 C   0  0  0  0  0  0  0  0  0  0  0  0
  1  2  1  0
  2  3  1  0
  3  4  1  0
  4  5  1  0
  5  6  2  0
  6  7  1  0
  7  8  2  0
  8  9  1  0
  9 10  2  0
 10 11  1  0
 11 12  2  0
 12 13  1  0
  6 14  1  0
 14 15  1  0
 15 16  1  0
 16 17  1  0
 17 18  2  0
 17 19  1  0
 19 20  2  0
 20 21  1  0
 21 22  2  0
 22 23  1  0
 23 24  2  0
 22 25  1  0
 25 26  1  0
 25 27  2  0
 25 28  2  0
 14 29  1  0
 29 30  2  0
 29 31  2  0
 29 32  1  0
 32 33  2  0
 33 34  1  0
 34 35  2  0
 35 36  1  0
 36 37  2  0
 15  4  2  0
 24 19  1  0
 37 32  1  0
 12  7  1  0
M  END
