CVD-0002067|dock_bobby27042020.36|mol2|7|dock3
     RDKit          3D

 34 37  0  0  0  0  0  0  0  0999 V2000
   13.8643   -1.5359   24.2740 C   0  0  0  0  0  0  0  0  0  0  0  0
   13.1544   -0.1964   24.2764 C   0  0  0  0  0  0  0  0  0  0  0  0
   12.3497    0.0808   23.0010 C   0  0  0  0  0  0  0  0  0  0  0  0
   11.1817   -0.8134   22.9518 N   0  0  0  0  0  0  0  0  0  0  0  0
   10.5599   -0.8452   21.6316 C   0  0  0  0  0  0  0  0  0  0  0  0
    9.2121   -1.5160   21.6721 C   0  0  0  0  0  0  0  0  0  0  0  0
    8.9493   -2.7808   22.2255 C   0  0  0  0  0  0  0  0  0  0  0  0
    7.6080   -3.0974   22.0927 C   0  0  0  0  0  0  0  0  0  0  0  0
    6.9447   -4.3455   22.5605 C   0  0  0  0  0  0  0  0  0  0  0  0
    7.5443   -5.5958   22.3861 C   0  0  0  0  0  0  0  0  0  0  0  0
    6.9277   -6.7592   22.8153 C   0  0  0  0  0  0  0  0  0  0  0  0
    5.6922   -6.7144   23.4183 C   0  0  0  0  0  0  0  0  0  0  0  0
    5.0645   -5.4974   23.6035 C   0  0  0  0  0  0  0  0  0  0  0  0
    5.6995   -4.3531   23.1822 C   0  0  0  0  0  0  0  0  0  0  0  0
    5.0421   -3.1932   23.4109 F   0  0  0  0  0  0  0  0  0  0  0  0
    7.0234   -1.9849   21.4197 N   0  0  0  0  0  0  0  0  0  0  0  0
    8.0102   -1.0376   21.1762 C   0  0  0  0  0  0  0  0  0  0  0  0
    5.4467   -1.6399   20.8944 S   0  0  0  0  0  0  0  0  0  0  0  0
    4.8899   -2.8522   20.3787 O   0  0  0  0  0  0  0  0  0  0  0  0
    4.8175   -1.0094   22.0129 O   0  0  0  0  0  0  0  0  0  0  0  0
    5.5724   -0.4331   19.6195 C   0  0  0  0  0  0  0  0  0  0  0  0
    5.1740    0.8725   19.8497 C   0  0  0  0  0  0  0  0  0  0  0  0
    5.2855    1.7879   18.8174 C   0  0  0  0  0  0  0  0  0  0  0  0
    5.7855    1.3636   17.6069 C   0  0  0  0  0  0  0  0  0  0  0  0
    6.1713    0.1089   17.3707 N   0  0  0  0  0  0  0  0  0  0  0  0
    6.0608   -0.7696   18.3713 C   0  0  0  0  0  0  0  0  0  0  0  0
   11.9332    1.5383   22.9443 C   0  0  0  0  0  0  0  0  0  0  0  0
   12.8579    2.5518   22.7525 C   0  0  0  0  0  0  0  0  0  0  0  0
   12.4141    3.8608   22.7053 C   0  0  0  0  0  0  0  0  0  0  0  0
   11.0584    4.1319   22.8513 C   0  0  0  0  0  0  0  0  0  0  0  0
   10.2047    3.0494   23.0410 C   0  0  0  0  0  0  0  0  0  0  0  0
   10.6235    1.7795   23.0879 N   0  0  0  0  0  0  0  0  0  0  0  0
   10.5561    5.4830   22.8080 C   0  0  0  0  0  0  0  0  0  0  0  0
   10.1647    6.5541   22.7410 N   0  0  0  0  0  0  0  0  0  0  0  0
  1  2  1  0
  2  3  1  0
  3  4  1  0
  4  5  1  0
  5  6  1  0
  6  7  1  0
  7  8  2  0
  8  9  1  0
  9 10  2  0
 10 11  1  0
 11 12  2  0
 12 13  1  0
 13 14  2  0
 14 15  1  0
  8 16  1  0
 16 17  1  0
 16 18  1  0
 18 19  2  0
 18 20  2  0
 18 21  1  0
 21 22  2  0
 22 23  1  0
 23 24  2  0
 24 25  1  0
 25 26  2  0
  3 27  1  0
 27 28  2  0
 28 29  1  0
 29 30  2  0
 30 31  1  0
 31 32  2  0
 30 33  1  0
 33 34  3  0
 17  6  2  0
 26 21  1  0
 32 27  1  0
 14  9  1  0
M  END
