CVD-0003029|dock_bobby27042020.61|mol2|13|dock3
     RDKit          3D

 28 31  0  0  0  0  0  0  0  0999 V2000
    4.2796   -6.9418   26.4349 C   0  0  0  0  0  0  0  0  0  0  0  0
    4.8729   -6.2097   25.2602 C   0  0  0  0  0  0  0  0  0  0  0  0
    5.8548   -5.2433   25.4667 C   0  0  0  0  0  0  0  0  0  0  0  0
    6.4068   -4.5493   24.4042 C   0  0  0  0  0  0  0  0  0  0  0  0
    7.3803   -3.6153   24.7075 O   0  0  0  0  0  0  0  0  0  0  0  0
    7.9329   -2.9330   23.6501 C   0  0  0  0  0  0  0  0  0  0  0  0
    8.9594   -1.8746   23.7837 C   0  0  0  0  0  0  0  0  0  0  0  0
    9.5370   -1.5280   24.8059 O   0  0  0  0  0  0  0  0  0  0  0  0
    9.2157   -1.4269   22.5378 N   0  0  0  0  0  0  0  0  0  0  0  0
   10.1842   -0.3766   22.2175 C   0  0  0  0  0  0  0  0  0  0  0  0
   11.5535   -0.6170   22.8283 C   0  0  0  0  0  0  0  0  0  0  0  0
   12.1113   -1.9744   22.4782 C   0  0  0  0  0  0  0  0  0  0  0  0
   12.8283   -1.9374   21.2549 O   0  0  0  0  0  0  0  0  0  0  0  0
    8.4463   -2.1297   21.5181 C   0  0  0  0  0  0  0  0  0  0  0  0
    7.6274   -3.0781   22.3591 C   0  0  0  0  0  0  0  0  0  0  0  0
    6.6059   -4.0490   21.9672 C   0  0  0  0  0  0  0  0  0  0  0  0
    6.2902   -4.2326   20.7965 O   0  0  0  0  0  0  0  0  0  0  0  0
    5.9941   -4.7979   23.0864 C   0  0  0  0  0  0  0  0  0  0  0  0
    5.0123   -5.7635   22.8745 C   0  0  0  0  0  0  0  0  0  0  0  0
    4.4735   -6.4458   23.9491 C   0  0  0  0  0  0  0  0  0  0  0  0
    3.2553   -7.6400   23.6426 Cl  0  0  0  0  0  0  0  0  0  0  0  0
    7.6146   -1.1850   20.6641 C   0  0  0  0  0  0  0  0  0  0  0  0
    6.3836   -0.7236   21.1089 C   0  0  0  0  0  0  0  0  0  0  0  0
    5.6224    0.1384   20.3397 C   0  0  0  0  0  0  0  0  0  0  0  0
    6.1030    0.5414   19.1120 C   0  0  0  0  0  0  0  0  0  0  0  0
    5.0661    1.7242   18.0473 Br  0  0  0  0  0  0  0  0  0  0  0  0
    7.3226    0.1016   18.6431 C   0  0  0  0  0  0  0  0  0  0  0  0
    8.0715   -0.7601   19.4245 C   0  0  0  0  0  0  0  0  0  0  0  0
  1  2  1  0
  2  3  2  0
  3  4  1  0
  4  5  1  0
  5  6  1  0
  6  7  1  0
  7  8  2  0
  7  9  1  0
  9 10  1  0
 10 11  1  0
 11 12  1  0
 12 13  1  0
  9 14  1  0
 14 15  1  0
 15 16  1  0
 16 17  2  0
 16 18  1  0
 18 19  1  0
 19 20  2  0
 20 21  1  0
 14 22  1  0
 22 23  2  0
 23 24  1  0
 24 25  2  0
 25 26  1  0
 25 27  1  0
 27 28  2  0
 20  2  1  0
 28 22  1  0
 18  4  2  0
 15  6  2  0
M  END
