CVD-0003321|dock_bobby27042020.16|mol2|50|dock1
     RDKit          3D

 29 32  0  0  0  0  0  0  0  0999 V2000
    7.5168   -4.9503   22.1215 Cl  0  0  0  0  0  0  0  0  0  0  0  0
    8.0744   -3.2771   22.2559 C   0  0  0  0  0  0  0  0  0  0  0  0
    9.2831   -3.1502   23.1665 C   0  0  0  0  0  0  0  0  0  0  0  0
    9.8529   -4.1568   23.5689 O   0  0  0  0  0  0  0  0  0  0  0  0
    9.7023   -1.9127   23.5194 N   0  0  0  0  0  0  0  0  0  0  0  0
   10.8769   -1.6975   24.4003 C   0  0  0  0  0  0  0  0  0  0  0  0
   11.8272   -0.7168   23.7990 C   0  0  0  0  0  0  0  0  0  0  0  0
   12.4378   -1.2742   22.5282 C   0  0  0  0  0  0  0  0  0  0  0  0
   11.9377   -1.2337   21.2776 C   0  0  0  0  0  0  0  0  0  0  0  0
   12.7931   -1.8501   20.4123 O   0  0  0  0  0  0  0  0  0  0  0  0
   13.8583   -2.2883   21.1498 C   0  0  0  0  0  0  0  0  0  0  0  0
   13.6734   -1.9547   22.4377 C   0  0  0  0  0  0  0  0  0  0  0  0
   14.7201   -2.2747   23.7717 Cl  0  0  0  0  0  0  0  0  0  0  0  0
   11.1232    0.5926   23.5424 C   0  0  0  0  0  0  0  0  0  0  0  0
   11.7833    1.8167   23.6624 C   0  0  0  0  0  0  0  0  0  0  0  0
   11.1366    3.0150   23.4186 C   0  0  0  0  0  0  0  0  0  0  0  0
    9.8037    3.0159   23.0458 C   0  0  0  0  0  0  0  0  0  0  0  0
    9.1272    1.8108   22.9201 C   0  0  0  0  0  0  0  0  0  0  0  0
    7.8158    1.6824   22.5337 O   0  0  0  0  0  0  0  0  0  0  0  0
    7.1223    2.8155   21.9897 C   0  0  0  0  0  0  0  0  0  0  0  0
    5.8883    2.3250   21.2741 C   0  0  0  0  0  0  0  0  0  0  0  0
    6.1596    1.8000   19.9281 N   0  0  0  0  0  0  0  0  0  0  0  0
    7.1363    0.7082   19.9720 C   0  0  0  0  0  0  0  0  0  0  0  0
    7.3895    0.2017   18.5902 C   0  0  0  0  0  0  0  0  0  0  0  0
    6.1963   -0.2773   17.9802 O   0  0  0  0  0  0  0  0  0  0  0  0
    5.2347    0.7636   17.9345 C   0  0  0  0  0  0  0  0  0  0  0  0
    4.9350    1.3080   19.2990 C   0  0  0  0  0  0  0  0  0  0  0  0
    9.7796    0.5995   23.1663 C   0  0  0  0  0  0  0  0  0  0  0  0
    9.0118   -0.7168   22.9967 C   0  0  0  0  0  0  0  0  0  0  0  0
  1  2  1  0
  2  3  1  0
  3  4  2  0
  3  5  1  0
  5  6  1  0
  6  7  1  0
  7  8  1  0
  8  9  2  0
  9 10  1  0
 10 11  1  0
 11 12  2  0
 12 13  1  0
  7 14  1  0
 14 15  2  0
 15 16  1  0
 16 17  2  0
 17 18  1  0
 18 19  1  0
 19 20  1  0
 20 21  1  0
 21 22  1  0
 22 23  1  0
 23 24  1  0
 24 25  1  0
 25 26  1  0
 26 27  1  0
 18 28  2  0
 28 29  1  0
 29  5  1  0
 12  8  1  0
 28 14  1  0
 27 22  1  0
M  END
