CVD-0000879|dock_bobby27042020.97|mol2|13|dock3
     RDKit          3D

 27 28  0  0  0  0  0  0  0  0999 V2000
   12.2270    4.2167   21.8679 C   0  0  0  0  0  0  0  0  0  0  0  0
   11.4332    3.1799   22.6071 C   0  0  0  0  0  0  0  0  0  0  0  0
   10.3995    3.4592   23.2063 O   0  0  0  0  0  0  0  0  0  0  0  0
   11.9105    1.9313   22.5602 N   0  0  0  0  0  0  0  0  0  0  0  0
   11.2125    0.8430   23.2253 C   0  0  0  0  0  0  0  0  0  0  0  0
   10.2290    0.2394   22.3099 C   0  0  0  0  0  0  0  0  0  0  0  0
    9.4334   -0.3210   21.6211 C   0  0  0  0  0  0  0  0  0  0  0  0
    8.4579   -1.0987   20.8380 C   0  0  0  0  0  0  0  0  0  0  0  0
    8.0822   -2.3017   21.5627 N   0  0  0  0  0  0  0  0  0  0  0  0
    6.9759   -2.9874   21.2666 C   0  0  0  0  0  0  0  0  0  0  0  0
    6.1971   -2.6660   20.3744 O   0  0  0  0  0  0  0  0  0  0  0  0
    6.7532   -4.2167   22.1198 C   0  0  0  0  0  0  0  0  0  0  0  0
    7.7982   -5.5614   21.6434 Cl  0  0  0  0  0  0  0  0  0  0  0  0
    7.2329   -0.2559   20.5180 C   0  0  0  0  0  0  0  0  0  0  0  0
    6.3124    0.0863   21.4979 C   0  0  0  0  0  0  0  0  0  0  0  0
    5.2053    0.8562   21.1831 C   0  0  0  0  0  0  0  0  0  0  0  0
    5.0072    1.2926   19.8837 C   0  0  0  0  0  0  0  0  0  0  0  0
    5.9279    0.9477   18.9180 C   0  0  0  0  0  0  0  0  0  0  0  0
    5.6893    1.4912   17.2808 Cl  0  0  0  0  0  0  0  0  0  0  0  0
    7.0358    0.1812   19.2171 C   0  0  0  0  0  0  0  0  0  0  0  0
   12.1959   -0.2048   23.7232 C   0  0  0  0  0  0  0  0  0  0  0  0
   12.6446   -0.1911   25.0363 C   0  0  0  0  0  0  0  0  0  0  0  0
   13.5367   -1.1434   25.4962 C   0  0  0  0  0  0  0  0  0  0  0  0
   13.9944   -2.1313   24.6389 C   0  0  0  0  0  0  0  0  0  0  0  0
   14.8745   -3.0729   25.0863 O   0  0  0  0  0  0  0  0  0  0  0  0
   13.5543   -2.1587   23.3250 C   0  0  0  0  0  0  0  0  0  0  0  0
   12.6621   -1.2008   22.8771 C   0  0  0  0  0  0  0  0  0  0  0  0
  1  2  1  0
  2  3  2  0
  2  4  1  0
  4  5  1  0
  5  6  1  0
  6  7  3  0
  7  8  1  0
  8  9  1  0
  9 10  1  0
 10 11  2  0
 10 12  1  0
 12 13  1  0
  8 14  1  0
 14 15  2  0
 15 16  1  0
 16 17  2  0
 17 18  1  0
 18 19  1  0
 18 20  2  0
  5 21  1  0
 21 22  2  0
 22 23  1  0
 23 24  2  0
 24 25  1  0
 24 26  1  0
 26 27  2  0
 20 14  1  0
 27 21  1  0
M  END
