CVD-0000280|dock_bobby27042020.13|mol2|28|dock3
     RDKit          3D

 22 24  0  0  0  0  0  0  0  0999 V2000
   11.7074    2.9037   22.4027 O   0  0  0  0  0  0  0  0  0  0  0  0
   12.8980    2.7803   22.6751 C   0  0  0  0  0  0  0  0  0  0  0  0
   13.7256    3.8436   22.7040 N   0  0  0  0  0  0  0  0  0  0  0  0
   13.2321    5.1722   22.4125 C   0  0  0  0  0  0  0  0  0  0  0  0
   12.2924    5.6779   23.4610 C   0  0  0  0  0  0  0  0  0  0  0  0
   10.9747    5.9684   23.3425 C   0  0  0  0  0  0  0  0  0  0  0  0
   10.3423    6.4210   24.4737 N   0  0  0  0  0  0  0  0  0  0  0  0
   11.1926    6.4711   25.4518 C   0  0  0  0  0  0  0  0  0  0  0  0
   12.7924    5.9778   25.0622 S   0  0  0  0  0  0  0  0  0  0  0  0
   13.5401    1.6040   22.9771 N   0  0  0  0  0  0  0  0  0  0  0  0
   13.0523    0.2755   23.0581 C   0  0  0  0  0  0  0  0  0  0  0  0
   13.8550   -0.8410   22.8523 C   0  0  0  0  0  0  0  0  0  0  0  0
   13.3054   -2.1047   22.9556 C   0  0  0  0  0  0  0  0  0  0  0  0
   11.9678   -2.2696   23.2672 C   0  0  0  0  0  0  0  0  0  0  0  0
   11.1438   -1.1669   23.4691 C   0  0  0  0  0  0  0  0  0  0  0  0
   11.7038    0.1046   23.3572 C   0  0  0  0  0  0  0  0  0  0  0  0
    9.7947   -1.3168   23.7738 N   0  0  0  0  0  0  0  0  0  0  0  0
    9.1034   -0.5274   24.7950 C   0  0  0  0  0  0  0  0  0  0  0  0
    8.1170   -1.3868   25.5472 C   0  0  0  0  0  0  0  0  0  0  0  0
    7.2228   -2.0435   24.6690 O   0  0  0  0  0  0  0  0  0  0  0  0
    7.9449   -2.9035   23.7952 C   0  0  0  0  0  0  0  0  0  0  0  0
    8.8894   -2.0892   22.9321 C   0  0  0  0  0  0  0  0  0  0  0  0
  1  2  2  0
  2  3  1  0
  3  4  1  0
  4  5  1  0
  5  6  2  0
  6  7  1  0
  7  8  2  0
  8  9  1  0
  2 10  1  0
 10 11  1  0
 11 12  2  0
 12 13  1  0
 13 14  2  0
 14 15  1  0
 15 16  2  0
 15 17  1  0
 17 18  1  0
 18 19  1  0
 19 20  1  0
 20 21  1  0
 21 22  1  0
  9  5  1  0
 16 11  1  0
 22 17  1  0
M  END
