CVD-0003327|dock_bobby27042020.31|mol2|17|dock3
     RDKit          3D

 24 26  0  0  0  0  0  0  0  0999 V2000
    5.5301   -0.0060   18.8174 Cl  0  0  0  0  0  0  0  0  0  0  0  0
    6.1906   -1.5505   18.2650 C   0  0  0  0  0  0  0  0  0  0  0  0
    6.1096   -2.6076   19.3500 C   0  0  0  0  0  0  0  0  0  0  0  0
    5.4643   -3.6310   19.1600 O   0  0  0  0  0  0  0  0  0  0  0  0
    6.7681   -2.3930   20.5140 N   0  0  0  0  0  0  0  0  0  0  0  0
    7.5748   -1.2153   20.8491 C   0  0  0  0  0  0  0  0  0  0  0  0
    8.8895   -1.6271   21.4588 C   0  0  0  0  0  0  0  0  0  0  0  0
    8.6746   -2.4691   22.6470 N   0  0  0  0  0  0  0  0  0  0  0  0
    7.9388   -3.6612   22.2231 C   0  0  0  0  0  0  0  0  0  0  0  0
    6.5902   -3.2919   21.6526 C   0  0  0  0  0  0  0  0  0  0  0  0
    9.9529   -2.8368   23.2770 C   0  0  0  0  0  0  0  0  0  0  0  0
    9.7635   -3.7323   24.4822 C   0  0  0  0  0  0  0  0  0  0  0  0
   10.5732   -4.7812   24.8975 C   0  0  0  0  0  0  0  0  0  0  0  0
   10.1196   -5.4108   26.0537 C   0  0  0  0  0  0  0  0  0  0  0  0
    8.9820   -4.8518   26.5137 C   0  0  0  0  0  0  0  0  0  0  0  0
    8.0980   -5.3237   27.9055 Cl  0  0  0  0  0  0  0  0  0  0  0  0
    8.4248   -3.5425   25.5575 S   0  0  0  0  0  0  0  0  0  0  0  0
   10.7525   -1.6023   23.6668 C   0  0  0  0  0  0  0  0  0  0  0  0
   10.3435   -0.7904   24.7150 C   0  0  0  0  0  0  0  0  0  0  0  0
   11.0737    0.3333   25.0635 C   0  0  0  0  0  0  0  0  0  0  0  0
   12.2243    0.6603   24.3658 C   0  0  0  0  0  0  0  0  0  0  0  0
   12.6229   -0.1505   23.3256 C   0  0  0  0  0  0  0  0  0  0  0  0
   14.0677    0.2494   22.4394 Cl  0  0  0  0  0  0  0  0  0  0  0  0
   11.9043   -1.2730   22.9681 C   0  0  0  0  0  0  0  0  0  0  0  0
  1  2  1  0
  2  3  1  0
  3  4  2  0
  3  5  1  0
  5  6  1  0
  6  7  1  0
  7  8  1  0
  8  9  1  0
  9 10  1  0
  8 11  1  0
 11 12  1  0
 12 13  2  0
 13 14  1  0
 14 15  2  0
 15 16  1  0
 15 17  1  0
 11 18  1  0
 18 19  2  0
 19 20  1  0
 20 21  2  0
 21 22  1  0
 22 23  1  0
 22 24  2  0
 10  5  1  0
 17 12  1  0
 24 18  1  0
M  END
