CVD-0000236|dock_bobby27042020.71|mol2|5|dock3
     RDKit          3D

 27 29  0  0  0  0  0  0  0  0999 V2000
    6.8214    2.7408   21.6396 C   0  0  0  0  0  0  0  0  0  0  0  0
    6.3139    1.3228   21.3952 C   0  0  0  0  0  0  0  0  0  0  0  0
    6.6952    0.8506   20.0078 C   0  0  0  0  0  0  0  0  0  0  0  0
    6.0634   -0.5118   19.8413 C   0  0  0  0  0  0  0  0  0  0  0  0
    6.2271   -0.9340   18.3850 C   0  0  0  0  0  0  0  0  0  0  0  0
    6.5977   -1.5828   20.7989 C   0  0  0  0  0  0  0  0  0  0  0  0
    6.6975   -1.0361   22.2155 N   0  0  0  0  0  0  0  0  0  0  0  0
    6.8580    0.4529   22.5376 C   0  0  0  0  0  0  0  0  0  0  0  0
    6.6410   -2.0608   23.0946 C   0  0  0  0  0  0  0  0  0  0  0  0
    6.6659   -1.8109   24.2877 O   0  0  0  0  0  0  0  0  0  0  0  0
    6.5465   -3.5123   22.6783 C   0  0  0  0  0  0  0  0  0  0  0  0
    5.3222   -4.1740   22.8097 C   0  0  0  0  0  0  0  0  0  0  0  0
    5.1842   -5.4975   22.4400 C   0  0  0  0  0  0  0  0  0  0  0  0
    6.2565   -6.1787   21.9170 C   0  0  0  0  0  0  0  0  0  0  0  0
    7.4810   -5.5538   21.7600 C   0  0  0  0  0  0  0  0  0  0  0  0
    7.6543   -4.2194   22.1413 C   0  0  0  0  0  0  0  0  0  0  0  0
    8.9053   -3.5493   22.0132 N   0  0  0  0  0  0  0  0  0  0  0  0
    9.5241   -2.6553   22.8551 C   0  0  0  0  0  0  0  0  0  0  0  0
    9.1000   -2.2413   23.9299 O   0  0  0  0  0  0  0  0  0  0  0  0
   10.7130   -2.2424   22.3729 N   0  0  0  0  0  0  0  0  0  0  0  0
   11.9848   -1.5417   22.2737 C   0  0  0  0  0  0  0  0  0  0  0  0
   12.8197   -1.6616   23.5236 C   0  0  0  0  0  0  0  0  0  0  0  0
   12.9562   -0.6102   24.4131 C   0  0  0  0  0  0  0  0  0  0  0  0
   13.7486   -0.8363   25.5203 C   0  0  0  0  0  0  0  0  0  0  0  0
   14.3663   -1.9941   25.7534 N   0  0  0  0  0  0  0  0  0  0  0  0
   14.1643   -2.9299   24.8316 C   0  0  0  0  0  0  0  0  0  0  0  0
   13.4264   -2.8386   23.7234 N   0  0  0  0  0  0  0  0  0  0  0  0
  1  2  1  0
  2  3  1  0
  3  4  1  0
  4  5  1  0
  4  6  1  0
  6  7  1  0
  7  8  1  0
  7  9  1  0
  9 10  2  0
  9 11  1  0
 11 12  2  0
 12 13  1  0
 13 14  2  0
 14 15  1  0
 15 16  2  0
 16 17  1  0
 17 18  1  0
 18 19  2  0
 18 20  1  0
 20 21  1  0
 21 22  1  0
 22 23  2  0
 23 24  1  0
 24 25  2  0
 25 26  1  0
 26 27  2  0
  8  2  1  0
 16 11  1  0
 27 22  1  0
M  END
