CVD-0002745|dock_bobby27042020.90|mol2|19|dock3
     RDKit          3D

 25 27  0  0  0  0  0  0  0  0999 V2000
   10.0042    5.7471   23.0467 C   0  0  0  0  0  0  0  0  0  0  0  0
   10.9960    4.6132   22.9547 C   0  0  0  0  0  0  0  0  0  0  0  0
   12.3557    4.8633   22.8941 C   0  0  0  0  0  0  0  0  0  0  0  0
   13.2553    3.8175   22.7991 C   0  0  0  0  0  0  0  0  0  0  0  0
   12.8084    2.5073   22.7708 C   0  0  0  0  0  0  0  0  0  0  0  0
   11.4490    2.2212   22.8492 C   0  0  0  0  0  0  0  0  0  0  0  0
   10.5644    3.2958   22.9226 C   0  0  0  0  0  0  0  0  0  0  0  0
   10.9593    0.8746   22.8465 N   0  0  0  0  0  0  0  0  0  0  0  0
    9.5244    0.5931   22.8676 C   0  0  0  0  0  0  0  0  0  0  0  0
    8.8970    0.8622   21.5054 C   0  0  0  0  0  0  0  0  0  0  0  0
    7.4189    0.5313   21.5253 C   0  0  0  0  0  0  0  0  0  0  0  0
    7.2249   -0.8619   21.9183 N   0  0  0  0  0  0  0  0  0  0  0  0
    7.7633   -1.1545   23.2423 C   0  0  0  0  0  0  0  0  0  0  0  0
    9.2581   -0.8541   23.2754 C   0  0  0  0  0  0  0  0  0  0  0  0
    6.4037   -1.7465   21.3085 C   0  0  0  0  0  0  0  0  0  0  0  0
    6.3209   -2.9025   21.7040 O   0  0  0  0  0  0  0  0  0  0  0  0
    5.5785   -1.2768   20.1257 C   0  0  0  0  0  0  0  0  0  0  0  0
    6.5778   -0.9622   18.7012 Cl  0  0  0  0  0  0  0  0  0  0  0  0
   11.8916   -0.2113   22.8649 C   0  0  0  0  0  0  0  0  0  0  0  0
   12.0123   -1.0794   21.7848 C   0  0  0  0  0  0  0  0  0  0  0  0
   12.9304   -2.1158   21.8081 C   0  0  0  0  0  0  0  0  0  0  0  0
   13.7417   -2.3088   22.9112 C   0  0  0  0  0  0  0  0  0  0  0  0
   13.6384   -1.4559   24.0102 C   0  0  0  0  0  0  0  0  0  0  0  0
   14.4367   -1.6368   25.1154 N   0  0  0  0  0  0  0  0  0  0  0  0
   12.7119   -0.4137   23.9726 C   0  0  0  0  0  0  0  0  0  0  0  0
  1  2  1  0
  2  3  2  0
  3  4  1  0
  4  5  2  0
  5  6  1  0
  6  7  2  0
  6  8  1  0
  8  9  1  0
  9 10  1  0
 10 11  1  0
 11 12  1  0
 12 13  1  0
 13 14  1  0
 12 15  1  0
 15 16  2  0
 15 17  1  0
 17 18  1  0
  8 19  1  0
 19 20  2  0
 20 21  1  0
 21 22  2  0
 22 23  1  0
 23 24  1  0
 23 25  2  0
  7  2  1  0
 14  9  1  0
 25 19  1  0
M  END
