CVD-0003662|dock_bobby27042020.1|mol2|21|dock2
     RDKit          3D

 27 29  0  0  0  0  0  0  0  0999 V2000
    7.0759   -6.3755   20.9061 F   0  0  0  0  0  0  0  0  0  0  0  0
    6.4799   -5.4762   21.6769 C   0  0  0  0  0  0  0  0  0  0  0  0
    7.1834   -5.4166   22.7994 F   0  0  0  0  0  0  0  0  0  0  0  0
    5.2973   -5.9814   21.9999 F   0  0  0  0  0  0  0  0  0  0  0  0
    6.3643   -4.1455   21.0095 C   0  0  0  0  0  0  0  0  0  0  0  0
    5.5236   -3.9363   20.0054 N   0  0  0  0  0  0  0  0  0  0  0  0
    5.6961   -2.6294   19.6640 N   0  0  0  0  0  0  0  0  0  0  0  0
    6.6076   -1.9618   20.3895 C   0  0  0  0  0  0  0  0  0  0  0  0
    7.1200   -2.8488   21.3077 C   0  0  0  0  0  0  0  0  0  0  0  0
    8.0576   -2.7312   22.2880 O   0  0  0  0  0  0  0  0  0  0  0  0
    9.0959   -1.7208   22.1681 C   0  0  0  0  0  0  0  0  0  0  0  0
   10.3852   -2.2659   22.7201 C   0  0  0  0  0  0  0  0  0  0  0  0
   11.5042   -1.9211   21.8349 N   0  0  0  0  0  0  0  0  0  0  0  0
   12.8842   -1.3717   22.4576 S   0  0  0  0  0  0  0  0  0  0  0  0
   13.9247   -1.7409   21.5473 O   0  0  0  0  0  0  0  0  0  0  0  0
   12.9385   -1.8305   23.8119 O   0  0  0  0  0  0  0  0  0  0  0  0
   12.7894    0.3860   22.4859 C   0  0  0  0  0  0  0  0  0  0  0  0
   11.5532    1.0084   22.5211 C   0  0  0  0  0  0  0  0  0  0  0  0
   11.4886    2.3901   22.5467 C   0  0  0  0  0  0  0  0  0  0  0  0
   12.6397    3.1699   22.5364 C   0  0  0  0  0  0  0  0  0  0  0  0
   13.8694    2.5193   22.5072 C   0  0  0  0  0  0  0  0  0  0  0  0
   13.9517    1.1383   22.4813 C   0  0  0  0  0  0  0  0  0  0  0  0
   12.5449    4.6971   22.5563 C   0  0  0  0  0  0  0  0  0  0  0  0
   13.6256    5.4571   21.8082 C   0  0  0  0  0  0  0  0  0  0  0  0
   13.6047    5.4697   23.3082 C   0  0  0  0  0  0  0  0  0  0  0  0
   11.1956    5.2934   22.4956 C   0  0  0  0  0  0  0  0  0  0  0  0
   10.1527    5.7488   22.4897 N   0  0  0  0  0  0  0  0  0  0  0  0
  1  2  1  0
  2  3  1  0
  2  4  1  0
  2  5  1  0
  5  6  2  0
  6  7  1  0
  7  8  1  0
  8  9  2  0
  9 10  1  0
 10 11  1  0
 11 12  1  0
 12 13  1  0
 13 14  1  0
 14 15  2  0
 14 16  2  0
 14 17  1  0
 17 18  2  0
 18 19  1  0
 19 20  2  0
 20 21  1  0
 21 22  2  0
 20 23  1  0
 23 24  1  0
 24 25  1  0
 23 26  1  0
 26 27  3  0
  9  5  1  0
 22 17  1  0
 25 23  1  0
M  END
