CVD-0003244|dock_bobby27042020.31|mol2|29|dock2
     RDKit          3D

 29 32  0  0  0  0  0  0  0  0999 V2000
    5.7934   -1.4869   17.7788 C   0  0  0  0  0  0  0  0  0  0  0  0
    6.2775   -0.5460   18.7990 N   0  0  0  0  0  0  0  0  0  0  0  0
    7.6344   -0.3532   19.0261 C   0  0  0  0  0  0  0  0  0  0  0  0
    8.4654   -0.8935   18.3170 O   0  0  0  0  0  0  0  0  0  0  0  0
    8.2114    0.4945   20.1276 C   0  0  0  0  0  0  0  0  0  0  0  0
    7.6698    1.6914   20.5952 C   0  0  0  0  0  0  0  0  0  0  0  0
    8.2741    2.3797   21.6302 C   0  0  0  0  0  0  0  0  0  0  0  0
    9.4362    1.9190   22.2483 C   0  0  0  0  0  0  0  0  0  0  0  0
   10.1028    2.6554   23.3818 C   0  0  0  0  0  0  0  0  0  0  0  0
   10.7078    1.6882   24.3424 C   0  0  0  0  0  0  0  0  0  0  0  0
   11.6907    0.8108   23.6599 N   0  0  0  0  0  0  0  0  0  0  0  0
   11.2913    0.2080   22.3743 C   0  0  0  0  0  0  0  0  0  0  0  0
    9.9766    0.7264   21.7829 C   0  0  0  0  0  0  0  0  0  0  0  0
    9.3692    0.0346   20.7425 C   0  0  0  0  0  0  0  0  0  0  0  0
   12.9445    0.5571   24.0969 C   0  0  0  0  0  0  0  0  0  0  0  0
   13.3715    1.0492   25.1339 O   0  0  0  0  0  0  0  0  0  0  0  0
   13.8205   -0.3561   23.2599 C   0  0  0  0  0  0  0  0  0  0  0  0
   14.5266    0.5140   21.8917 Cl  0  0  0  0  0  0  0  0  0  0  0  0
   11.1549    3.6513   22.9106 C   0  0  0  0  0  0  0  0  0  0  0  0
   11.7159    3.5459   21.6456 C   0  0  0  0  0  0  0  0  0  0  0  0
   12.6741    4.4501   21.2187 C   0  0  0  0  0  0  0  0  0  0  0  0
   13.0832    5.4699   22.0508 C   0  0  0  0  0  0  0  0  0  0  0  0
   12.5352    5.5861   23.3103 C   0  0  0  0  0  0  0  0  0  0  0  0
   11.5770    4.6824   23.7382 C   0  0  0  0  0  0  0  0  0  0  0  0
    5.2614    0.1326   19.5044 C   0  0  0  0  0  0  0  0  0  0  0  0
    5.0121    0.1200   20.8435 C   0  0  0  0  0  0  0  0  0  0  0  0
    3.9328    0.9303   21.0301 N   0  0  0  0  0  0  0  0  0  0  0  0
    3.5739    1.3950   19.8312 C   0  0  0  0  0  0  0  0  0  0  0  0
    4.3571    0.9351   18.8693 N   0  0  0  0  0  0  0  0  0  0  0  0
  1  2  1  0
  2  3  1  0
  3  4  2  0
  3  5  1  0
  5  6  2  0
  6  7  1  0
  7  8  2  0
  8  9  1  0
  9 10  1  0
 10 11  1  0
 11 12  1  0
 12 13  1  0
 13 14  2  0
 11 15  1  0
 15 16  2  0
 15 17  1  0
 17 18  1  0
  9 19  1  0
 19 20  2  0
 20 21  1  0
 21 22  2  0
 22 23  1  0
 23 24  2  0
  2 25  1  0
 25 26  2  0
 26 27  1  0
 27 28  1  0
 28 29  2  0
 14  5  1  0
 24 19  1  0
 29 25  1  0
 13  8  1  0
M  END
