CVD-0002177|dock_bobby27042020.78|mol2|21|dock2
     RDKit          3D

 25 27  0  0  0  0  0  0  0  0999 V2000
    5.8226    1.2914   17.1668 O   0  0  0  0  0  0  0  0  0  0  0  0
    5.9358    0.4394   18.3100 C   0  0  0  0  0  0  0  0  0  0  0  0
    7.3391   -0.1118   18.5312 C   0  0  0  0  0  0  0  0  0  0  0  0
    7.4624   -0.8987   19.8211 C   0  0  0  0  0  0  0  0  0  0  0  0
    7.0614   -0.1013   20.9865 N   0  0  0  0  0  0  0  0  0  0  0  0
    7.2383   -0.8632   22.2248 C   0  0  0  0  0  0  0  0  0  0  0  0
    8.6612   -1.2802   22.4964 C   0  0  0  0  0  0  0  0  0  0  0  0
    9.0130   -2.5709   22.7193 C   0  0  0  0  0  0  0  0  0  0  0  0
   10.6800   -2.7388   23.0034 S   0  0  0  0  0  0  0  0  0  0  0  0
   10.9393   -1.0652   22.8348 C   0  0  0  0  0  0  0  0  0  0  0  0
    9.7775   -0.4168   22.5663 C   0  0  0  0  0  0  0  0  0  0  0  0
    9.6597    1.3182   22.3318 S   0  0  0  0  0  0  0  0  0  0  0  0
    8.4253    1.7528   22.9085 O   0  0  0  0  0  0  0  0  0  0  0  0
    9.9294    1.5907   20.9540 O   0  0  0  0  0  0  0  0  0  0  0  0
   10.8403    2.0012   23.1839 N   0  0  0  0  0  0  0  0  0  0  0  0
   12.1800    2.0947   22.5916 C   0  0  0  0  0  0  0  0  0  0  0  0
   12.4340    3.4939   22.0600 C   0  0  0  0  0  0  0  0  0  0  0  0
   12.0644    4.5711   23.0509 C   0  0  0  0  0  0  0  0  0  0  0  0
   12.9998    5.0597   23.9499 C   0  0  0  0  0  0  0  0  0  0  0  0
   12.6620    6.0502   24.8570 C   0  0  0  0  0  0  0  0  0  0  0  0
   11.3838    6.5651   24.8756 C   0  0  0  0  0  0  0  0  0  0  0  0
   10.4440    6.0896   23.9867 C   0  0  0  0  0  0  0  0  0  0  0  0
   10.7828    5.0992   23.0800 C   0  0  0  0  0  0  0  0  0  0  0  0
    5.6700    0.3287   20.8229 C   0  0  0  0  0  0  0  0  0  0  0  0
    5.5037    1.1764   19.5728 C   0  0  0  0  0  0  0  0  0  0  0  0
  1  2  1  0
  2  3  1  0
  3  4  1  0
  4  5  1  0
  5  6  1  0
  6  7  1  0
  7  8  2  0
  8  9  1  0
  9 10  1  0
 10 11  2  0
 11 12  1  0
 12 13  2  0
 12 14  2  0
 12 15  1  0
 15 16  1  0
 16 17  1  0
 17 18  1  0
 18 19  2  0
 19 20  1  0
 20 21  2  0
 21 22  1  0
 22 23  2  0
  5 24  1  0
 24 25  1  0
 25  2  1  0
 11  7  1  0
 23 18  1  0
M  END
