CVD-0000170|dock_bobby27042020.14|mol2|1|dock3
     RDKit          3D

 18 19  0  0  0  0  0  0  0  0999 V2000
   13.9549   -2.3715   23.2015 C   0  0  0  0  0  0  0  0  0  0  0  0
   13.0114   -2.3206   22.0891 N   0  0  0  0  0  0  0  0  0  0  0  0
   13.7122   -2.1044   20.8283 C   0  0  0  0  0  0  0  0  0  0  0  0
   11.9204   -1.3639   22.2863 C   0  0  0  0  0  0  0  0  0  0  0  0
   12.3141    0.0212   22.7804 C   0  0  0  0  0  0  0  0  0  0  0  0
   11.1987    1.0252   22.7677 C   0  0  0  0  0  0  0  0  0  0  0  0
    9.8590    0.7764   22.7063 C   0  0  0  0  0  0  0  0  0  0  0  0
    9.1555    1.9502   22.7153 N   0  0  0  0  0  0  0  0  0  0  0  0
   10.0406    2.9982   22.7838 C   0  0  0  0  0  0  0  0  0  0  0  0
    9.8318    4.3731   22.8187 C   0  0  0  0  0  0  0  0  0  0  0  0
   10.9243    5.2212   22.8895 C   0  0  0  0  0  0  0  0  0  0  0  0
   12.2073    4.6949   22.9262 C   0  0  0  0  0  0  0  0  0  0  0  0
   12.4210    3.3248   22.8899 C   0  0  0  0  0  0  0  0  0  0  0  0
   11.3372    2.4524   22.8186 C   0  0  0  0  0  0  0  0  0  0  0  0
   13.5975    5.7827   23.0103 S   0  0  0  0  0  0  0  0  0  0  0  0
   14.0149    6.1887   21.5189 N   0  0  0  0  0  0  0  0  0  0  0  0
   13.1656    6.9785   23.6694 O   0  0  0  0  0  0  0  0  0  0  0  0
   14.6881    5.0407   23.5681 O   0  0  0  0  0  0  0  0  0  0  0  0
  1  2  1  0
  2  3  1  0
  2  4  1  0
  4  5  1  0
  5  6  1  0
  6  7  2  0
  7  8  1  0
  8  9  1  0
  9 10  2  0
 10 11  1  0
 11 12  2  0
 12 13  1  0
 13 14  2  0
 12 15  1  0
 15 16  1  0
 15 17  2  0
 15 18  2  0
 14  6  1  0
 14  9  1  0
M  END
