CVD-0002313|dock_bobby27042020.63|mol2|39|dock3
     RDKit          3D

 34 37  0  0  0  0  0  0  0  0999 V2000
    6.9618    7.5719   23.4690 C   0  0  0  0  0  0  0  0  0  0  0  0
    8.0087    6.5303   23.7351 C   0  0  0  0  0  0  0  0  0  0  0  0
    8.7749    6.6291   24.6868 O   0  0  0  0  0  0  0  0  0  0  0  0
    8.0966    5.4764   22.8864 N   0  0  0  0  0  0  0  0  0  0  0  0
    7.2453    5.2310   21.7182 C   0  0  0  0  0  0  0  0  0  0  0  0
    6.7764    3.7994   21.6929 C   0  0  0  0  0  0  0  0  0  0  0  0
    7.9204    2.8733   21.7100 N   0  0  0  0  0  0  0  0  0  0  0  0
    8.6753    3.1179   22.9400 C   0  0  0  0  0  0  0  0  0  0  0  0
    9.2073    4.5306   22.9781 C   0  0  0  0  0  0  0  0  0  0  0  0
    7.4767    1.4849   21.6381 C   0  0  0  0  0  0  0  0  0  0  0  0
    8.6886    0.5589   21.4734 C   0  0  0  0  0  0  0  0  0  0  0  0
    9.7709    1.0185   21.1630 O   0  0  0  0  0  0  0  0  0  0  0  0
    8.4968   -0.7574   21.6808 N   0  0  0  0  0  0  0  0  0  0  0  0
    9.6315   -1.6647   21.7311 C   0  0  0  0  0  0  0  0  0  0  0  0
    9.5909   -2.4915   22.9776 C   0  0  0  0  0  0  0  0  0  0  0  0
    8.3012   -3.1932   23.0454 N   0  0  0  0  0  0  0  0  0  0  0  0
    7.1700   -2.2542   23.0752 C   0  0  0  0  0  0  0  0  0  0  0  0
    7.1959   -1.4174   21.8305 C   0  0  0  0  0  0  0  0  0  0  0  0
    8.2261   -4.5242   23.9838 S   0  0  0  0  0  0  0  0  0  0  0  0
    8.0772   -4.0702   25.3316 O   0  0  0  0  0  0  0  0  0  0  0  0
    9.3493   -5.3369   23.6341 O   0  0  0  0  0  0  0  0  0  0  0  0
    6.6964   -5.3117   23.4651 C   0  0  0  0  0  0  0  0  0  0  0  0
    5.6208   -5.5562   24.3250 C   0  0  0  0  0  0  0  0  0  0  0  0
    5.7045   -5.2032   25.6280 F   0  0  0  0  0  0  0  0  0  0  0  0
    4.4503   -6.1513   23.9171 C   0  0  0  0  0  0  0  0  0  0  0  0
    4.3200   -6.5390   22.5948 C   0  0  0  0  0  0  0  0  0  0  0  0
    5.3552   -6.3333   21.6996 C   0  0  0  0  0  0  0  0  0  0  0  0
    6.5088   -5.7351   22.1475 C   0  0  0  0  0  0  0  0  0  0  0  0
    7.5060   -5.5555   21.2513 F   0  0  0  0  0  0  0  0  0  0  0  0
    6.5007    1.2914   20.5060 C   0  0  0  0  0  0  0  0  0  0  0  0
    5.0829    1.3529   20.6370 C   0  0  0  0  0  0  0  0  0  0  0  0
    4.4071    1.1502   19.4714 C   0  0  0  0  0  0  0  0  0  0  0  0
    5.5053    0.8826   18.2033 S   0  0  0  0  0  0  0  0  0  0  0  0
    6.8621    1.0409   19.2153 C   0  0  0  0  0  0  0  0  0  0  0  0
  1  2  1  0
  2  3  2  0
  2  4  1  0
  4  5  1  0
  5  6  1  0
  6  7  1  0
  7  8  1  0
  8  9  1  0
  7 10  1  0
 10 11  1  0
 11 12  2  0
 11 13  1  0
 13 14  1  0
 14 15  1  0
 15 16  1  0
 16 17  1  0
 17 18  1  0
 16 19  1  0
 19 20  2  0
 19 21  2  0
 19 22  1  0
 22 23  2  0
 23 24  1  0
 23 25  1  0
 25 26  2  0
 26 27  1  0
 27 28  2  0
 28 29  1  0
 10 30  1  0
 30 31  1  0
 31 32  2  0
 32 33  1  0
 33 34  1  0
  9  4  1  0
 18 13  1  0
 28 22  1  0
 34 30  2  0
M  END
