CVD-0002049|dock_bobby27042020.93|mol2|12|dock3
     RDKit          3D

 34 37  0  0  0  0  0  0  0  0999 V2000
   14.0254   -2.1542   22.7243 C   0  0  0  0  0  0  0  0  0  0  0  0
   12.5597   -2.1791   22.7450 N   0  0  0  0  0  0  0  0  0  0  0  0
   11.8830   -0.9001   22.4844 C   0  0  0  0  0  0  0  0  0  0  0  0
   12.1981    0.1266   23.5823 C   0  0  0  0  0  0  0  0  0  0  0  0
   11.4047    1.3387   23.5111 N   0  0  0  0  0  0  0  0  0  0  0  0
   11.9233    2.5386   23.1277 C   0  0  0  0  0  0  0  0  0  0  0  0
   11.1059    3.6319   22.8383 C   0  0  0  0  0  0  0  0  0  0  0  0
   11.7039    4.8187   22.4548 C   0  0  0  0  0  0  0  0  0  0  0  0
   13.0888    4.8979   22.3668 C   0  0  0  0  0  0  0  0  0  0  0  0
   13.8183    3.7542   22.6760 C   0  0  0  0  0  0  0  0  0  0  0  0
   13.2565    2.5988   23.0484 N   0  0  0  0  0  0  0  0  0  0  0  0
   13.7449    6.1194   21.9701 C   0  0  0  0  0  0  0  0  0  0  0  0
   14.2566    7.1002   21.6853 N   0  0  0  0  0  0  0  0  0  0  0  0
   10.4053   -1.0719   22.3205 C   0  0  0  0  0  0  0  0  0  0  0  0
    9.5701   -0.3811   21.3998 C   0  0  0  0  0  0  0  0  0  0  0  0
    8.2532   -0.7875   21.5332 C   0  0  0  0  0  0  0  0  0  0  0  0
    7.0882   -0.2911   20.7501 C   0  0  0  0  0  0  0  0  0  0  0  0
    5.9290    0.1658   21.3834 C   0  0  0  0  0  0  0  0  0  0  0  0
    4.8459    0.6338   20.6583 C   0  0  0  0  0  0  0  0  0  0  0  0
    4.8885    0.6729   19.2840 C   0  0  0  0  0  0  0  0  0  0  0  0
    6.0191    0.2347   18.6215 C   0  0  0  0  0  0  0  0  0  0  0  0
    7.0784   -0.2385   19.3592 C   0  0  0  0  0  0  0  0  0  0  0  0
    8.1460   -0.6715   18.6506 F   0  0  0  0  0  0  0  0  0  0  0  0
    8.2720   -1.7690   22.5672 N   0  0  0  0  0  0  0  0  0  0  0  0
    9.5778   -1.9109   23.0201 C   0  0  0  0  0  0  0  0  0  0  0  0
    7.0704   -2.7272   23.2875 S   0  0  0  0  0  0  0  0  0  0  0  0
    5.9502   -1.8803   23.5580 O   0  0  0  0  0  0  0  0  0  0  0  0
    7.7260   -3.3794   24.3782 O   0  0  0  0  0  0  0  0  0  0  0  0
    6.6290   -3.9724   22.1248 C   0  0  0  0  0  0  0  0  0  0  0  0
    6.8040   -5.3109   22.4320 C   0  0  0  0  0  0  0  0  0  0  0  0
    6.4481   -6.2567   21.4861 C   0  0  0  0  0  0  0  0  0  0  0  0
    5.9374   -5.8293   20.2813 C   0  0  0  0  0  0  0  0  0  0  0  0
    5.7652   -4.5434   19.9713 N   0  0  0  0  0  0  0  0  0  0  0  0
    6.1109   -3.6355   20.8887 C   0  0  0  0  0  0  0  0  0  0  0  0
  1  2  1  0
  2  3  1  0
  3  4  1  0
  4  5  1  0
  5  6  1  0
  6  7  2  0
  7  8  1  0
  8  9  2  0
  9 10  1  0
 10 11  2  0
  9 12  1  0
 12 13  3  0
  3 14  1  0
 14 15  1  0
 15 16  2  0
 16 17  1  0
 17 18  2  0
 18 19  1  0
 19 20  2  0
 20 21  1  0
 21 22  2  0
 22 23  1  0
 16 24  1  0
 24 25  1  0
 24 26  1  0
 26 27  2  0
 26 28  2  0
 26 29  1  0
 29 30  2  0
 30 31  1  0
 31 32  2  0
 32 33  1  0
 33 34  2  0
 11  6  1  0
 25 14  2  0
 34 29  1  0
 22 17  1  0
M  END
