CVD-0001172|dock_bobby27042020.81|mol2|49|dock3
     RDKit          3D

 24 26  0  0  0  0  0  0  0  0999 V2000
   14.3057    4.4318   22.6871 C   0  0  0  0  0  0  0  0  0  0  0  0
   12.9869    4.9900   23.1838 C   0  0  0  0  0  0  0  0  0  0  0  0
   11.8250    4.7344   22.2369 C   0  0  0  0  0  0  0  0  0  0  0  0
   10.4982    5.3111   22.7578 C   0  0  0  0  0  0  0  0  0  0  0  0
    9.5780    4.1724   22.6286 N   0  0  0  0  0  0  0  0  0  0  0  0
   10.1618    3.0830   22.2294 C   0  0  0  0  0  0  0  0  0  0  0  0
    9.6227    1.8677   22.0803 N   0  0  0  0  0  0  0  0  0  0  0  0
    8.2248    1.5749   22.3600 C   0  0  0  0  0  0  0  0  0  0  0  0
    7.5909    0.6577   21.3432 C   0  0  0  0  0  0  0  0  0  0  0  0
    7.0463    1.1918   20.1779 C   0  0  0  0  0  0  0  0  0  0  0  0
    6.4616    0.3818   19.2197 C   0  0  0  0  0  0  0  0  0  0  0  0
    6.4128   -0.9809   19.4127 C   0  0  0  0  0  0  0  0  0  0  0  0
    6.9488   -1.5305   20.5642 C   0  0  0  0  0  0  0  0  0  0  0  0
    7.5399   -0.7289   21.5376 C   0  0  0  0  0  0  0  0  0  0  0  0
    8.1065   -1.3779   22.7791 C   0  0  0  0  0  0  0  0  0  0  0  0
    9.5488   -1.1440   22.9373 N   0  0  0  0  0  0  0  0  0  0  0  0
   10.3369   -1.8219   21.9082 C   0  0  0  0  0  0  0  0  0  0  0  0
   11.8015   -1.5278   22.0861 C   0  0  0  0  0  0  0  0  0  0  0  0
   12.2614   -1.9590   23.4095 N   0  0  0  0  0  0  0  0  0  0  0  0
   13.7072   -1.7244   23.5680 C   0  0  0  0  0  0  0  0  0  0  0  0
   14.2808   -2.2849   24.8440 C   0  0  0  0  0  0  0  0  0  0  0  0
   11.4732   -1.2810   24.4385 C   0  0  0  0  0  0  0  0  0  0  0  0
   10.0087   -1.5752   24.2607 C   0  0  0  0  0  0  0  0  0  0  0  0
   11.4821    3.3386   21.9610 N   0  0  0  0  0  0  0  0  0  0  0  0
  1  2  1  0
  3  2  1  0
  3  4  1  0
  4  5  1  0
  5  6  2  0
  6  7  1  0
  7  8  1  0
  8  9  1  0
  9 10  2  0
 10 11  1  0
 11 12  2  0
 12 13  1  0
 13 14  2  0
 14 15  1  0
 15 16  1  0
 16 17  1  0
 17 18  1  0
 18 19  1  0
 19 20  1  0
 20 21  1  0
 19 22  1  0
 22 23  1  0
  6 24  1  0
 24  3  1  0
 14  9  1  0
 23 16  1  0
M  END
