CVD-0003482|dock_bobby27042020.16|mol2|27|dock2
     RDKit          3D

 23 25  0  0  0  0  0  0  0  0999 V2000
    5.7608    0.4542   19.1223 Cl  0  0  0  0  0  0  0  0  0  0  0  0
    5.9683   -1.1177   18.3392 C   0  0  0  0  0  0  0  0  0  0  0  0
    6.1937   -2.2135   19.3630 C   0  0  0  0  0  0  0  0  0  0  0  0
    5.3350   -3.0582   19.5838 O   0  0  0  0  0  0  0  0  0  0  0  0
    7.3710   -2.2167   20.0240 N   0  0  0  0  0  0  0  0  0  0  0  0
    8.4643   -1.2549   19.8521 C   0  0  0  0  0  0  0  0  0  0  0  0
    8.9740   -0.7840   21.1893 C   0  0  0  0  0  0  0  0  0  0  0  0
    9.4049   -1.9232   22.0161 N   0  0  0  0  0  0  0  0  0  0  0  0
    8.2461   -2.7949   22.2150 C   0  0  0  0  0  0  0  0  0  0  0  0
    7.7372   -3.3298   20.8977 C   0  0  0  0  0  0  0  0  0  0  0  0
    9.9525   -1.4658   23.3155 C   0  0  0  0  0  0  0  0  0  0  0  0
    9.9565   -2.5884   24.3494 C   0  0  0  0  0  0  0  0  0  0  0  0
    9.0956   -2.5734   25.4396 C   0  0  0  0  0  0  0  0  0  0  0  0
    9.1103   -3.5990   26.3703 C   0  0  0  0  0  0  0  0  0  0  0  0
    9.9858   -4.6534   26.2266 C   0  0  0  0  0  0  0  0  0  0  0  0
   10.8478   -4.6826   25.1519 C   0  0  0  0  0  0  0  0  0  0  0  0
   10.8333   -3.6578   24.2206 C   0  0  0  0  0  0  0  0  0  0  0  0
   11.3326   -0.8338   23.1579 C   0  0  0  0  0  0  0  0  0  0  0  0
   12.1789   -1.2481   22.1384 C   0  0  0  0  0  0  0  0  0  0  0  0
   13.4320   -0.6803   21.9801 C   0  0  0  0  0  0  0  0  0  0  0  0
   13.8566    0.3112   22.8382 C   0  0  0  0  0  0  0  0  0  0  0  0
   13.0279    0.7356   23.8544 C   0  0  0  0  0  0  0  0  0  0  0  0
   11.7747    0.1680   24.0130 C   0  0  0  0  0  0  0  0  0  0  0  0
  1  2  1  0
  2  3  1  0
  3  4  2  0
  3  5  1  0
  5  6  1  0
  6  7  1  0
  7  8  1  0
  8  9  1  0
  9 10  1  0
  8 11  1  0
 11 12  1  0
 12 13  2  0
 13 14  1  0
 14 15  2  0
 15 16  1  0
 16 17  2  0
 11 18  1  0
 18 19  2  0
 19 20  1  0
 20 21  2  0
 21 22  1  0
 22 23  2  0
 10  5  1  0
 17 12  1  0
 23 18  1  0
M  END
