CVD-0000994|dock_bobby27042020.68|mol2|28|dock3
     RDKit          3D

 19 21  0  0  0  0  0  0  0  0999 V2000
    1.3554    2.6376   20.8901 Br  0  0  0  0  0  0  0  0  0  0  0  0
    2.9878    2.1522   20.1138 C   0  0  0  0  0  0  0  0  0  0  0  0
    3.4142    2.4486   18.8713 C   0  0  0  0  0  0  0  0  0  0  0  0
    4.6816    1.9301   18.6163 C   0  0  0  0  0  0  0  0  0  0  0  0
    5.2149    1.2356   19.6787 C   0  0  0  0  0  0  0  0  0  0  0  0
    4.1168    1.2295   21.0180 S   0  0  0  0  0  0  0  0  0  0  0  0
    6.4924    0.5664   19.7815 C   0  0  0  0  0  0  0  0  0  0  0  0
    7.1854    0.1531   18.7559 N   0  0  0  0  0  0  0  0  0  0  0  0
    8.3770   -0.4576   19.1396 N   0  0  0  0  0  0  0  0  0  0  0  0
    8.5408   -0.4854   20.4380 C   0  0  0  0  0  0  0  0  0  0  0  0
    9.6985   -1.0706   20.9289 N   0  0  0  0  0  0  0  0  0  0  0  0
   10.2261   -1.1401   22.1905 C   0  0  0  0  0  0  0  0  0  0  0  0
    9.6326   -0.6139   23.1284 O   0  0  0  0  0  0  0  0  0  0  0  0
   11.5346   -1.8672   22.4327 C   0  0  0  0  0  0  0  0  0  0  0  0
   12.7317   -0.9655   22.3975 C   0  0  0  0  0  0  0  0  0  0  0  0
   13.4782   -1.1902   23.6108 C   0  0  0  0  0  0  0  0  0  0  0  0
   12.8065   -2.0545   24.4362 C   0  0  0  0  0  0  0  0  0  0  0  0
   11.5551   -2.5011   23.7999 C   0  0  0  0  0  0  0  0  0  0  0  0
    7.2334    0.2470   21.3134 S   0  0  0  0  0  0  0  0  0  0  0  0
  1  2  1  0
  2  3  2  0
  3  4  1  0
  4  5  2  0
  5  6  1  0
  5  7  1  0
  7  8  2  0
  8  9  1  0
  9 10  2  0
 10 11  1  0
 11 12  1  0
 12 13  2  0
 12 14  1  0
 14 15  1  0
 15 16  1  0
 16 17  1  0
 17 18  1  0
 10 19  1  0
  6  2  1  0
 19  7  1  0
 18 14  1  0
M  END
