CVD-0001395|dock_bobby27042020.24|mol2|6|dock2
     RDKit          3D

 17 18  0  0  0  0  0  0  0  0999 V2000
   12.2655   -2.0136   21.8236 C   0  0  0  0  0  0  0  0  0  0  0  0
   13.0195   -1.4874   22.9606 N   0  0  0  0  0  0  0  0  0  0  0  0
   13.9364   -2.2456   23.6503 C   0  0  0  0  0  0  0  0  0  0  0  0
   14.4257   -1.4621   24.6311 C   0  0  0  0  0  0  0  0  0  0  0  0
   13.8378   -0.2236   24.5851 N   0  0  0  0  0  0  0  0  0  0  0  0
   12.9841   -0.2595   23.5653 C   0  0  0  0  0  0  0  0  0  0  0  0
   12.1716    0.9327   23.2400 C   0  0  0  0  0  0  0  0  0  0  0  0
   10.7879    0.7868   23.2050 C   0  0  0  0  0  0  0  0  0  0  0  0
    9.9638    1.8575   22.9043 C   0  0  0  0  0  0  0  0  0  0  0  0
   10.5054    3.1006   22.6315 C   0  0  0  0  0  0  0  0  0  0  0  0
   11.8838    3.2692   22.6634 C   0  0  0  0  0  0  0  0  0  0  0  0
   12.4743    4.5420   22.3868 N   0  0  0  0  0  0  0  0  0  0  0  0
   14.0749    4.8450   22.3980 S   0  0  0  0  0  0  0  0  0  0  0  0
   14.2682    6.5698   22.1623 C   0  0  0  0  0  0  0  0  0  0  0  0
   14.6321    4.1783   21.2617 O   0  0  0  0  0  0  0  0  0  0  0  0
   14.5669    4.5044   23.6971 O   0  0  0  0  0  0  0  0  0  0  0  0
   12.7076    2.1908   22.9680 C   0  0  0  0  0  0  0  0  0  0  0  0
  1  2  1  0
  2  3  1  0
  3  4  2  0
  4  5  1  0
  5  6  2  0
  6  7  1  0
  7  8  2  0
  8  9  1  0
  9 10  2  0
 10 11  1  0
 11 12  1  0
 12 13  1  0
 13 14  1  0
 13 15  2  0
 13 16  2  0
 11 17  2  0
  6  2  1  0
 17  7  1  0
M  END
