CVD-0002511|dock_bobby27042020.48|mol2|20|dock2
     RDKit          3D

 23 24  0  0  0  0  0  0  0  0999 V2000
   13.9112    3.9620   22.3589 C   0  0  0  0  0  0  0  0  0  0  0  0
   12.5396    3.5707   21.9397 C   0  0  0  0  0  0  0  0  0  0  0  0
   12.1374    2.3699   22.6649 O   0  0  0  0  0  0  0  0  0  0  0  0
   10.9386    1.8439   22.4204 C   0  0  0  0  0  0  0  0  0  0  0  0
   10.1784    2.2356   21.5733 O   0  0  0  0  0  0  0  0  0  0  0  0
   10.6428    0.6715   23.3455 C   0  0  0  0  0  0  0  0  0  0  0  0
    9.1918    0.2931   23.3618 C   0  0  0  0  0  0  0  0  0  0  0  0
    8.7265   -0.4099   22.0936 C   0  0  0  0  0  0  0  0  0  0  0  0
    7.2483   -0.8143   22.1537 C   0  0  0  0  0  0  0  0  0  0  0  0
    6.5569   -0.8558   20.8126 C   0  0  0  0  0  0  0  0  0  0  0  0
    6.2341   -2.0635   20.2155 C   0  0  0  0  0  0  0  0  0  0  0  0
    5.6025   -2.0888   18.9840 C   0  0  0  0  0  0  0  0  0  0  0  0
    5.2905   -0.9033   18.3401 C   0  0  0  0  0  0  0  0  0  0  0  0
    5.6052    0.3183   18.9147 C   0  0  0  0  0  0  0  0  0  0  0  0
    5.2642    1.6130   18.2180 C   0  0  0  0  0  0  0  0  0  0  0  0
    6.2365    0.3219   20.1496 C   0  0  0  0  0  0  0  0  0  0  0  0
    9.6284   -1.5877   21.8298 C   0  0  0  0  0  0  0  0  0  0  0  0
   11.0859   -1.1919   21.7625 C   0  0  0  0  0  0  0  0  0  0  0  0
   11.4892   -0.4776   22.9954 N   0  0  0  0  0  0  0  0  0  0  0  0
   12.6140   -0.7398   23.7148 C   0  0  0  0  0  0  0  0  0  0  0  0
   12.9064    0.0042   24.6426 O   0  0  0  0  0  0  0  0  0  0  0  0
   13.5276   -1.9174   23.4300 C   0  0  0  0  0  0  0  0  0  0  0  0
   14.7903   -2.0373   24.6624 Cl  0  0  0  0  0  0  0  0  0  0  0  0
  1  2  1  0
  2  3  1  0
  3  4  1  0
  4  5  2  0
  4  6  1  0
  6  7  1  0
  7  8  1  0
  8  9  1  0
  9 10  1  0
 10 11  2  0
 11 12  1  0
 12 13  2  0
 13 14  1  0
 14 15  1  0
 14 16  2  0
  8 17  1  0
 17 18  1  0
 18 19  1  0
 19 20  1  0
 20 21  2  0
 20 22  1  0
 22 23  1  0
 19  6  1  0
 16 10  1  0
M  END
