CVD-0001373|dock_bobby27042020.95|mol2|31|dock2
     RDKit          3D

 25 27  0  0  0  0  0  0  0  0999 V2000
   14.4462   -1.3974   25.8056 O   0  0  0  0  0  0  0  0  0  0  0  0
   13.9876   -1.4422   24.6551 C   0  0  0  0  0  0  0  0  0  0  0  0
   14.2820   -2.4525   23.6870 C   0  0  0  0  0  0  0  0  0  0  0  0
   13.7279   -2.3983   22.4405 C   0  0  0  0  0  0  0  0  0  0  0  0
   12.8552   -1.3594   22.0782 C   0  0  0  0  0  0  0  0  0  0  0  0
   12.5419   -0.3819   22.9821 C   0  0  0  0  0  0  0  0  0  0  0  0
   13.1216   -0.4527   24.2320 N   0  0  0  0  0  0  0  0  0  0  0  0
   11.6288    0.7294   22.6543 C   0  0  0  0  0  0  0  0  0  0  0  0
   12.1721    2.0110   22.7882 C   0  0  0  0  0  0  0  0  0  0  0  0
   11.4028    3.1402   22.5697 C   0  0  0  0  0  0  0  0  0  0  0  0
   10.0804    3.0134   22.2152 C   0  0  0  0  0  0  0  0  0  0  0  0
    9.5362    1.7542   22.0445 C   0  0  0  0  0  0  0  0  0  0  0  0
   10.2905    0.5967   22.2227 C   0  0  0  0  0  0  0  0  0  0  0  0
    9.5689   -0.6967   21.9024 C   0  0  0  0  0  0  0  0  0  0  0  0
    8.4084   -0.9917   22.8373 C   0  0  0  0  0  0  0  0  0  0  0  0
    7.5606   -2.0550   22.2851 N   0  0  0  0  0  0  0  0  0  0  0  0
    5.9750   -1.8206   22.1271 S   0  0  0  0  0  0  0  0  0  0  0  0
    5.4059   -3.0796   21.7541 O   0  0  0  0  0  0  0  0  0  0  0  0
    5.5309   -1.1748   23.3243 O   0  0  0  0  0  0  0  0  0  0  0  0
    5.7360   -0.7019   20.7890 C   0  0  0  0  0  0  0  0  0  0  0  0
    5.5593   -1.1963   19.5069 C   0  0  0  0  0  0  0  0  0  0  0  0
    5.3673   -0.3083   18.4616 C   0  0  0  0  0  0  0  0  0  0  0  0
    5.3508    1.0504   18.6942 C   0  0  0  0  0  0  0  0  0  0  0  0
    5.5254    1.5337   19.9735 C   0  0  0  0  0  0  0  0  0  0  0  0
    5.7189    0.6620   21.0321 C   0  0  0  0  0  0  0  0  0  0  0  0
  1  2  2  0
  2  3  1  0
  3  4  2  0
  4  5  1  0
  5  6  2  0
  6  7  1  0
  6  8  1  0
  8  9  2  0
  9 10  1  0
 10 11  2  0
 11 12  1  0
 12 13  2  0
 13 14  1  0
 14 15  1  0
 15 16  1  0
 16 17  1  0
 17 18  2  0
 17 19  2  0
 17 20  1  0
 20 21  2  0
 21 22  1  0
 22 23  2  0
 23 24  1  0
 24 25  2  0
  7  2  1  0
 13  8  1  0
 25 20  1  0
M  END
