CVD-0003143|dock_bobby27042020.74|mol2|42|dock2
     RDKit          3D

 18 20  0  0  0  0  0  0  0  0999 V2000
    9.1779    4.4462   23.2724 C   0  0  0  0  0  0  0  0  0  0  0  0
   10.6474    4.2248   23.0681 C   0  0  0  0  0  0  0  0  0  0  0  0
   11.4222    5.2304   23.4636 N   0  0  0  0  0  0  0  0  0  0  0  0
   12.7474    5.2209   23.2358 N   0  0  0  0  0  0  0  0  0  0  0  0
   13.2906    4.1832   22.6276 C   0  0  0  0  0  0  0  0  0  0  0  0
   12.5665    3.0767   22.2357 C   0  0  0  0  0  0  0  0  0  0  0  0
   11.1967    3.0712   22.4877 C   0  0  0  0  0  0  0  0  0  0  0  0
   10.3833    1.8597   22.1216 C   0  0  0  0  0  0  0  0  0  0  0  0
    9.4596    2.0026   21.3389 O   0  0  0  0  0  0  0  0  0  0  0  0
   10.6936    0.6538   22.6392 N   0  0  0  0  0  0  0  0  0  0  0  0
    9.9229   -0.5538   22.2496 C   0  0  0  0  0  0  0  0  0  0  0  0
   10.6851   -1.8129   22.6632 C   0  0  0  0  0  0  0  0  0  0  0  0
   12.1712   -1.6524   22.3798 C   0  0  0  0  0  0  0  0  0  0  0  0
   12.8885   -2.7828   22.7759 O   0  0  0  0  0  0  0  0  0  0  0  0
   13.9814   -2.4481   23.5143 C   0  0  0  0  0  0  0  0  0  0  0  0
   13.7143   -1.0789   24.1226 C   0  0  0  0  0  0  0  0  0  0  0  0
   12.7934   -0.4397   23.0860 C   0  0  0  0  0  0  0  0  0  0  0  0
   11.7236    0.4724   23.6594 C   0  0  0  0  0  0  0  0  0  0  0  0
  1  2  1  0
  2  3  2  0
  3  4  1  0
  4  5  2  0
  5  6  1  0
  6  7  2  0
  7  8  1  0
  8  9  2  0
  8 10  1  0
 10 11  1  0
 11 12  1  0
 13 12  1  0
 13 14  1  0
 14 15  1  0
 15 16  1  0
 17 16  1  0
 17 18  1  0
  7  2  1  0
 18 10  1  0
 17 13  1  0
M  END
