CVD-0003046|dock_bobby27042020.17|mol2|37|dock1
     RDKit          3D

 27 29  0  0  0  0  0  0  0  0999 V2000
   13.7531    5.3558   22.2234 C   0  0  0  0  0  0  0  0  0  0  0  0
   12.5903    4.4232   22.4604 C   0  0  0  0  0  0  0  0  0  0  0  0
   12.7800    3.0552   22.5711 C   0  0  0  0  0  0  0  0  0  0  0  0
   11.7156    2.1992   22.7912 C   0  0  0  0  0  0  0  0  0  0  0  0
   10.4228    2.6849   22.9080 C   0  0  0  0  0  0  0  0  0  0  0  0
    9.2605    1.7527   23.1513 C   0  0  0  0  0  0  0  0  0  0  0  0
    8.6395    1.2284   21.8576 C   0  0  0  0  0  0  0  0  0  0  0  0
    7.3855    0.3639   22.0406 C   0  0  0  0  0  0  0  0  0  0  0  0
    7.6179   -1.0670   21.7352 N   0  0  0  0  0  0  0  0  0  0  0  0
    6.3636   -1.8351   21.7976 C   0  0  0  0  0  0  0  0  0  0  0  0
    6.6010   -3.2789   21.4381 C   0  0  0  0  0  0  0  0  0  0  0  0
    7.6178   -3.8699   22.3137 N   0  0  0  0  0  0  0  0  0  0  0  0
    8.8574   -3.0958   22.3339 C   0  0  0  0  0  0  0  0  0  0  0  0
    8.5534   -1.6605   22.6916 C   0  0  0  0  0  0  0  0  0  0  0  0
    7.5372   -5.0682   22.9383 C   0  0  0  0  0  0  0  0  0  0  0  0
    8.4405   -5.4738   23.6589 O   0  0  0  0  0  0  0  0  0  0  0  0
    6.2904   -5.9076   22.7345 C   0  0  0  0  0  0  0  0  0  0  0  0
    4.8980   -5.2074   23.5700 Cl  0  0  0  0  0  0  0  0  0  0  0  0
    6.2635    0.9388   21.2007 C   0  0  0  0  0  0  0  0  0  0  0  0
    5.1066    1.4189   21.7979 C   0  0  0  0  0  0  0  0  0  0  0  0
    4.0813    1.9471   21.0313 C   0  0  0  0  0  0  0  0  0  0  0  0
    4.2001    2.0029   19.6529 C   0  0  0  0  0  0  0  0  0  0  0  0
    5.3518    1.5254   19.0669 C   0  0  0  0  0  0  0  0  0  0  0  0
    5.5155    1.5896   17.3344 Cl  0  0  0  0  0  0  0  0  0  0  0  0
    6.3803    0.9969   19.8199 C   0  0  0  0  0  0  0  0  0  0  0  0
   10.2304    4.0532   22.8004 C   0  0  0  0  0  0  0  0  0  0  0  0
   11.2972    4.9064   22.5803 C   0  0  0  0  0  0  0  0  0  0  0  0
  1  2  1  0
  2  3  2  0
  3  4  1  0
  4  5  2  0
  5  6  1  0
  6  7  1  0
  7  8  1  0
  8  9  1  0
  9 10  1  0
 10 11  1  0
 11 12  1  0
 12 13  1  0
 13 14  1  0
 12 15  1  0
 15 16  2  0
 15 17  1  0
 17 18  1  0
  8 19  1  0
 19 20  2  0
 20 21  1  0
 21 22  2  0
 22 23  1  0
 23 24  1  0
 23 25  2  0
  5 26  1  0
 26 27  2  0
 27  2  1  0
 14  9  1  0
 25 19  1  0
M  END
