CVD-0002158|dock_bobby27042020.21|mol2|20|dock1
     RDKit          3D

 11 11  0  0  0  0  0  0  0  0999 V2000
    4.8680    0.3645   19.5597 C   0  0  0  0  0  0  0  0  0  0  0  0
    6.2813   -0.2119   19.5911 C   0  0  0  0  0  0  0  0  0  0  0  0
    6.9771    0.1143   18.2806 C   0  0  0  0  0  0  0  0  0  0  0  0
    8.3832   -0.3615   18.1050 C   0  0  0  0  0  0  0  0  0  0  0  0
    6.4017    0.7244   17.4080 O   0  0  0  0  0  0  0  0  0  0  0  0
    6.2817   -1.7179   19.8137 C   0  0  0  0  0  0  0  0  0  0  0  0
    6.8278   -2.2849   20.9551 C   0  0  0  0  0  0  0  0  0  0  0  0
    6.8047   -3.6588   21.1200 C   0  0  0  0  0  0  0  0  0  0  0  0
    6.2320   -4.4286   20.1328 C   0  0  0  0  0  0  0  0  0  0  0  0
    5.6970   -3.9153   19.0238 N   0  0  0  0  0  0  0  0  0  0  0  0
    5.7305   -2.5865   18.8861 C   0  0  0  0  0  0  0  0  0  0  0  0
  1  2  1  0
  2  3  1  0
  3  4  1  0
  3  5  2  0
  2  6  1  0
  6  7  2  0
  7  8  1  0
  8  9  2  0
  9 10  1  0
 10 11  2  0
 11  6  1  0
M  END
