CVD-0002285|dock_bobby27042020.78|mol2|4|dock3
     RDKit          3D

 40 43  0  0  0  0  0  0  0  0999 V2000
   13.2768   -2.1297   21.2604 C   0  0  0  0  0  0  0  0  0  0  0  0
   12.8782   -2.5970   22.5906 N   0  0  0  0  0  0  0  0  0  0  0  0
   11.4539   -2.4215   22.8942 C   0  0  0  0  0  0  0  0  0  0  0  0
   11.0085   -0.9997   22.6737 C   0  0  0  0  0  0  0  0  0  0  0  0
   11.7795    0.1447   22.9377 C   0  0  0  0  0  0  0  0  0  0  0  0
   11.0673    1.2911   22.6271 C   0  0  0  0  0  0  0  0  0  0  0  0
   11.5518    2.6917   22.7648 C   0  0  0  0  0  0  0  0  0  0  0  0
   10.6604    3.7523   22.9479 C   0  0  0  0  0  0  0  0  0  0  0  0
   11.1088    5.0599   23.0427 C   0  0  0  0  0  0  0  0  0  0  0  0
   12.4512    5.3492   22.9661 C   0  0  0  0  0  0  0  0  0  0  0  0
   13.3633    4.3255   22.7976 C   0  0  0  0  0  0  0  0  0  0  0  0
   12.9000    3.0345   22.7092 C   0  0  0  0  0  0  0  0  0  0  0  0
   13.8457    2.0780   22.5665 F   0  0  0  0  0  0  0  0  0  0  0  0
    9.8005    0.8324   22.1605 N   0  0  0  0  0  0  0  0  0  0  0  0
    9.7867   -0.5566   22.1950 C   0  0  0  0  0  0  0  0  0  0  0  0
    8.3946    1.6105   21.6123 S   0  0  0  0  0  0  0  0  0  0  0  0
    7.6056    1.9455   22.7566 O   0  0  0  0  0  0  0  0  0  0  0  0
    8.8950    2.6505   20.7680 O   0  0  0  0  0  0  0  0  0  0  0  0
    7.5146    0.4575   20.5806 C   0  0  0  0  0  0  0  0  0  0  0  0
    8.2261   -0.1530   19.5579 C   0  0  0  0  0  0  0  0  0  0  0  0
    7.7043   -1.0544   18.7232 N   0  0  0  0  0  0  0  0  0  0  0  0
    6.4179   -1.3580   18.8920 C   0  0  0  0  0  0  0  0  0  0  0  0
    5.6073   -0.7946   19.8579 C   0  0  0  0  0  0  0  0  0  0  0  0
    6.1567    0.1344   20.7384 C   0  0  0  0  0  0  0  0  0  0  0  0
    5.3465    0.7379   21.7649 N   0  0  0  0  0  0  0  0  0  0  0  0
    4.5417    1.9390   21.4129 C   0  0  0  0  0  0  0  0  0  0  0  0
    3.2791    1.5057   20.6888 C   0  0  0  0  0  0  0  0  0  0  0  0
    5.3158    2.9288   20.5556 C   0  0  0  0  0  0  0  0  0  0  0  0
    5.3268    0.1898   23.0225 C   0  0  0  0  0  0  0  0  0  0  0  0
    4.6282    0.7011   23.8752 O   0  0  0  0  0  0  0  0  0  0  0  0
    6.1611   -1.0351   23.3662 C   0  0  0  0  0  0  0  0  0  0  0  0
    5.2698   -2.2186   23.7213 C   0  0  0  0  0  0  0  0  0  0  0  0
    6.1083   -3.4222   24.0996 C   0  0  0  0  0  0  0  0  0  0  0  0
    6.9896   -3.0853   25.2145 N   0  0  0  0  0  0  0  0  0  0  0  0
    7.9009   -1.9898   24.9017 C   0  0  0  0  0  0  0  0  0  0  0  0
    7.1075   -0.7421   24.5282 C   0  0  0  0  0  0  0  0  0  0  0  0
    7.1889   -3.8386   26.3150 C   0  0  0  0  0  0  0  0  0  0  0  0
    7.9328   -3.4803   27.2193 O   0  0  0  0  0  0  0  0  0  0  0  0
    6.4382   -5.1542   26.3789 C   0  0  0  0  0  0  0  0  0  0  0  0
    6.9244   -6.1062   27.7875 Cl  0  0  0  0  0  0  0  0  0  0  0  0
  1  2  1  0
  2  3  1  0
  3  4  1  0
  4  5  1  0
  5  6  2  0
  6  7  1  0
  7  8  2  0
  8  9  1  0
  9 10  2  0
 10 11  1  0
 11 12  2  0
 12 13  1  0
  6 14  1  0
 14 15  1  0
 14 16  1  0
 16 17  2  0
 16 18  2  0
 16 19  1  0
 19 20  2  0
 20 21  1  0
 21 22  2  0
 22 23  1  0
 23 24  2  0
 24 25  1  0
 25 26  1  0
 26 27  1  0
 26 28  1  0
 25 29  1  0
 29 30  2  0
 29 31  1  0
 31 32  1  0
 32 33  1  0
 33 34  1  0
 34 35  1  0
 35 36  1  0
 34 37  1  0
 37 38  2  0
 37 39  1  0
 39 40  1  0
 15  4  2  0
 24 19  1  0
 36 31  1  0
 12  7  1  0
M  END
