CVD-0003916|dock_bobby27042020.58|mol2|16|dock3
     RDKit          3D

 26 28  0  0  0  0  0  0  0  0999 V2000
    7.7755    0.6812   18.2856 F   0  0  0  0  0  0  0  0  0  0  0  0
    6.7067    1.0666   19.0196 C   0  0  0  0  0  0  0  0  0  0  0  0
    5.5556    1.3893   18.3419 C   0  0  0  0  0  0  0  0  0  0  0  0
    4.4473    1.7860   19.0693 C   0  0  0  0  0  0  0  0  0  0  0  0
    4.5051    1.8527   20.4446 C   0  0  0  0  0  0  0  0  0  0  0  0
    5.6685    1.5259   21.1218 C   0  0  0  0  0  0  0  0  0  0  0  0
    6.7887    1.1279   20.4054 C   0  0  0  0  0  0  0  0  0  0  0  0
    8.2328    0.7243   21.3681 S   0  0  0  0  0  0  0  0  0  0  0  0
    9.3772    1.2183   20.6681 O   0  0  0  0  0  0  0  0  0  0  0  0
    7.9279    1.2124   22.6772 O   0  0  0  0  0  0  0  0  0  0  0  0
    8.3753   -0.9358   21.5029 N   0  0  0  0  0  0  0  0  0  0  0  0
    9.7090   -1.5706   21.3455 C   0  0  0  0  0  0  0  0  0  0  0  0
   10.8266   -0.9872   22.2072 C   0  0  0  0  0  0  0  0  0  0  0  0
   10.4635   -1.0457   23.7052 C   0  0  0  0  0  0  0  0  0  0  0  0
   11.5924   -0.5356   24.5990 C   0  0  0  0  0  0  0  0  0  0  0  0
   12.8978   -1.2676   24.3160 C   0  0  0  0  0  0  0  0  0  0  0  0
   13.2682   -1.1801   22.8424 C   0  0  0  0  0  0  0  0  0  0  0  0
   12.1517   -1.7278   21.9592 C   0  0  0  0  0  0  0  0  0  0  0  0
    7.2441   -1.7727   21.7221 C   0  0  0  0  0  0  0  0  0  0  0  0
    6.1549   -1.2335   21.8167 O   0  0  0  0  0  0  0  0  0  0  0  0
    7.2192   -3.2703   21.8748 C   0  0  0  0  0  0  0  0  0  0  0  0
    7.7602   -3.7880   23.0482 C   0  0  0  0  0  0  0  0  0  0  0  0
    7.8013   -5.1520   23.2823 C   0  0  0  0  0  0  0  0  0  0  0  0
    7.2977   -6.0302   22.3493 C   0  0  0  0  0  0  0  0  0  0  0  0
    6.7401   -5.5402   21.1896 C   0  0  0  0  0  0  0  0  0  0  0  0
    6.6870   -4.1755   20.9579 C   0  0  0  0  0  0  0  0  0  0  0  0
  1  2  1  0
  2  3  2  0
  3  4  1  0
  4  5  2  0
  5  6  1  0
  6  7  2  0
  7  8  1  0
  8  9  2  0
  8 10  2  0
  8 11  1  0
 11 12  1  0
 12 13  1  0
 13 14  1  0
 14 15  1  0
 15 16  1  0
 16 17  1  0
 17 18  1  0
 11 19  1  0
 19 20  2  0
 19 21  1  0
 21 22  2  0
 22 23  1  0
 23 24  2  0
 24 25  1  0
 25 26  2  0
  7  2  1  0
 18 13  1  0
 26 21  1  0
M  END
