CVD-0001017|dock_bobby27042020.11|mol2|8|dock3
     RDKit          3D

 16 17  0  0  0  0  0  0  0  0999 V2000
    7.1084   -5.4233   21.5408 C   0  0  0  0  0  0  0  0  0  0  0  0
    6.7911   -3.9783   21.2872 C   0  0  0  0  0  0  0  0  0  0  0  0
    5.9228   -3.6653   20.4805 O   0  0  0  0  0  0  0  0  0  0  0  0
    7.4607   -3.0115   21.9677 N   0  0  0  0  0  0  0  0  0  0  0  0
    7.2497   -1.5669   21.8297 C   0  0  0  0  0  0  0  0  0  0  0  0
    8.5573   -0.8588   21.5380 C   0  0  0  0  0  0  0  0  0  0  0  0
    9.6416   -1.1980   22.5585 C   0  0  0  0  0  0  0  0  0  0  0  0
   10.9984   -0.5720   22.2135 C   0  0  0  0  0  0  0  0  0  0  0  0
   12.1117   -0.9281   23.1686 C   0  0  0  0  0  0  0  0  0  0  0  0
   12.9824   -1.9690   22.8855 C   0  0  0  0  0  0  0  0  0  0  0  0
   14.0019   -2.2982   23.7632 C   0  0  0  0  0  0  0  0  0  0  0  0
   14.1618   -1.5904   24.9350 C   0  0  0  0  0  0  0  0  0  0  0  0
   13.3022   -0.5541   25.2292 C   0  0  0  0  0  0  0  0  0  0  0  0
   12.2829   -0.2253   24.3512 C   0  0  0  0  0  0  0  0  0  0  0  0
    9.7436   -2.7091   22.7219 C   0  0  0  0  0  0  0  0  0  0  0  0
    8.4076   -3.3514   23.0234 C   0  0  0  0  0  0  0  0  0  0  0  0
  1  2  1  0
  2  3  2  0
  2  4  1  0
  4  5  1  0
  5  6  1  0
  6  7  1  0
  7  8  1  0
  8  9  1  0
  9 10  2  0
 10 11  1  0
 11 12  2  0
 12 13  1  0
 13 14  2  0
  7 15  1  0
 15 16  1  0
 16  4  1  0
 14  9  1  0
M  END
