CVD-0002631|dock_bobby27042020.5|mol2|6|dock3
     RDKit          3D

 28 31  0  0  0  0  0  0  0  0999 V2000
    5.9138   -2.9650   18.5620 O   0  0  0  0  0  0  0  0  0  0  0  0
    6.1634   -1.9486   19.5339 C   0  0  0  0  0  0  0  0  0  0  0  0
    7.0939   -0.8742   19.0347 C   0  0  0  0  0  0  0  0  0  0  0  0
    7.5386   -0.2048   20.2395 O   0  0  0  0  0  0  0  0  0  0  0  0
    7.5340   -1.1481   21.2989 C   0  0  0  0  0  0  0  0  0  0  0  0
    6.9309   -2.4411   20.7494 C   0  0  0  0  0  0  0  0  0  0  0  0
    6.0408   -3.1696   21.6445 N   0  0  0  0  0  0  0  0  0  0  0  0
    6.0675   -4.5437   21.8912 C   0  0  0  0  0  0  0  0  0  0  0  0
    5.4992   -5.0459   23.0543 C   0  0  0  0  0  0  0  0  0  0  0  0
    5.4937   -6.3473   23.3534 N   0  0  0  0  0  0  0  0  0  0  0  0
    6.0738   -7.1446   22.4618 C   0  0  0  0  0  0  0  0  0  0  0  0
    6.6468   -6.7910   21.3155 N   0  0  0  0  0  0  0  0  0  0  0  0
    6.6311   -5.4846   21.0386 C   0  0  0  0  0  0  0  0  0  0  0  0
    8.9309   -1.3499   21.7258 N   0  0  0  0  0  0  0  0  0  0  0  0
    9.3767   -2.0450   22.8796 C   0  0  0  0  0  0  0  0  0  0  0  0
    8.6073   -2.6886   23.8032 N   0  0  0  0  0  0  0  0  0  0  0  0
    8.9314   -3.4339   25.0216 C   0  0  0  0  0  0  0  0  0  0  0  0
    9.4762   -4.8378   24.6879 C   0  0  0  0  0  0  0  0  0  0  0  0
    9.7556   -5.6675   25.9396 C   0  0  0  0  0  0  0  0  0  0  0  0
    8.5275   -5.7483   26.8371 C   0  0  0  0  0  0  0  0  0  0  0  0
    8.0126   -4.3601   27.1895 C   0  0  0  0  0  0  0  0  0  0  0  0
    7.6988   -3.5526   25.9342 C   0  0  0  0  0  0  0  0  0  0  0  0
   10.7364   -2.1006   23.1260 C   0  0  0  0  0  0  0  0  0  0  0  0
   11.7159   -1.5109   22.2861 C   0  0  0  0  0  0  0  0  0  0  0  0
   12.9414   -1.5282   22.4692 O   0  0  0  0  0  0  0  0  0  0  0  0
   11.1972   -0.8826   21.1848 N   0  0  0  0  0  0  0  0  0  0  0  0
    9.8714   -0.7740   20.8586 C   0  0  0  0  0  0  0  0  0  0  0  0
    9.5911   -0.1770   19.8255 O   0  0  0  0  0  0  0  0  0  0  0  0
  1  2  1  0
  2  3  1  0
  3  4  1  0
  4  5  1  0
  5  6  1  0
  6  7  1  0
  7  8  1  0
  8  9  2  0
  9 10  1  0
 10 11  2  0
 11 12  1  0
 12 13  2  0
  5 14  1  0
 14 15  1  0
 15 16  1  0
 16 17  1  0
 17 18  1  0
 18 19  1  0
 19 20  1  0
 20 21  1  0
 21 22  1  0
 15 23  2  0
 23 24  1  0
 24 25  2  0
 24 26  1  0
 26 27  1  0
 27 28  2  0
  6  2  1  0
 13  8  1  0
 27 14  1  0
 22 17  1  0
M  END
