CVD-0001806|dock_bobby27042020.94|mol2|11|dock1
     RDKit          3D

 20 21  0  0  0  0  0  0  0  0999 V2000
    4.7570    0.6465   21.0233 C   0  0  0  0  0  0  0  0  0  0  0  0
    5.4947    0.6890   19.7101 C   0  0  0  0  0  0  0  0  0  0  0  0
    5.0120    1.4898   18.6788 C   0  0  0  0  0  0  0  0  0  0  0  0
    5.6549    1.4946   17.4586 C   0  0  0  0  0  0  0  0  0  0  0  0
    6.7321    0.7577   17.1930 N   0  0  0  0  0  0  0  0  0  0  0  0
    7.2153    0.0015   18.1831 C   0  0  0  0  0  0  0  0  0  0  0  0
    6.6486   -0.0516   19.4493 C   0  0  0  0  0  0  0  0  0  0  0  0
    7.2516   -0.8682   20.4834 N   0  0  0  0  0  0  0  0  0  0  0  0
    6.6514   -2.0778   20.7836 C   0  0  0  0  0  0  0  0  0  0  0  0
    5.6973   -2.5272   20.1610 O   0  0  0  0  0  0  0  0  0  0  0  0
    7.2113   -2.8466   21.9957 C   0  0  0  0  0  0  0  0  0  0  0  0
    8.6883   -2.5327   22.2251 C   0  0  0  0  0  0  0  0  0  0  0  0
    8.9608   -1.1334   22.0953 N   0  0  0  0  0  0  0  0  0  0  0  0
   10.0180   -0.5730   22.9454 C   0  0  0  0  0  0  0  0  0  0  0  0
   11.3928   -1.1338   22.6255 C   0  0  0  0  0  0  0  0  0  0  0  0
   12.4800   -0.4855   23.4464 C   0  0  0  0  0  0  0  0  0  0  0  0
   13.7211   -0.8590   23.1777 N   0  0  0  0  0  0  0  0  0  0  0  0
   12.2096    0.3464   24.3174 O   0  0  0  0  0  0  0  0  0  0  0  0
    8.3730   -0.3583   21.1278 C   0  0  0  0  0  0  0  0  0  0  0  0
    8.8436    0.7316   20.8425 O   0  0  0  0  0  0  0  0  0  0  0  0
  1  2  1  0
  2  3  2  0
  3  4  1  0
  4  5  2  0
  5  6  1  0
  6  7  2  0
  7  8  1  0
  8  9  1  0
  9 10  2  0
  9 11  1  0
 11 12  1  0
 12 13  1  0
 13 14  1  0
 14 15  1  0
 15 16  1  0
 16 17  1  0
 16 18  2  0
 13 19  1  0
 19 20  2  0
  7  2  1  0
 19  8  1  0
M  END
