CVD-0000151|dock_bobby27042020.28|mol2|18|dock2
     RDKit          3D

 21 23  0  0  0  0  0  0  0  0999 V2000
   14.6003   -1.0016   25.9270 O   0  0  0  0  0  0  0  0  0  0  0  0
   13.9536   -1.4523   24.7338 C   0  0  0  0  0  0  0  0  0  0  0  0
   12.9276   -2.5525   25.0273 C   0  0  0  0  0  0  0  0  0  0  0  0
   12.2592   -3.0173   23.7644 C   0  0  0  0  0  0  0  0  0  0  0  0
   11.6272   -1.9126   23.0367 N   0  0  0  0  0  0  0  0  0  0  0  0
   12.5643   -0.8062   22.7336 C   0  0  0  0  0  0  0  0  0  0  0  0
   13.2658   -0.3355   23.9898 C   0  0  0  0  0  0  0  0  0  0  0  0
   10.3813   -1.9925   22.5208 C   0  0  0  0  0  0  0  0  0  0  0  0
    9.3923   -2.9293   22.5663 C   0  0  0  0  0  0  0  0  0  0  0  0
    8.3316   -2.4137   21.8237 C   0  0  0  0  0  0  0  0  0  0  0  0
    8.7073   -1.2008   21.3604 C   0  0  0  0  0  0  0  0  0  0  0  0
    9.9860   -0.9124   21.7821 O   0  0  0  0  0  0  0  0  0  0  0  0
    8.0366   -0.1888   20.5338 C   0  0  0  0  0  0  0  0  0  0  0  0
    8.7151    0.5610   19.8346 O   0  0  0  0  0  0  0  0  0  0  0  0
    6.6813   -0.1727   20.6202 N   0  0  0  0  0  0  0  0  0  0  0  0
    5.7158    0.6461   19.9826 C   0  0  0  0  0  0  0  0  0  0  0  0
    5.9868    1.1330   18.7103 C   0  0  0  0  0  0  0  0  0  0  0  0
    5.0577    1.9340   18.0702 C   0  0  0  0  0  0  0  0  0  0  0  0
    3.8817    2.2266   18.7206 C   0  0  0  0  0  0  0  0  0  0  0  0
    3.5914    1.7755   19.9409 N   0  0  0  0  0  0  0  0  0  0  0  0
    4.4948    1.0023   20.5516 C   0  0  0  0  0  0  0  0  0  0  0  0
  1  2  1  0
  2  3  1  0
  3  4  1  0
  4  5  1  0
  5  6  1  0
  6  7  1  0
  5  8  1  0
  8  9  2  0
  9 10  1  0
 10 11  2  0
 11 12  1  0
 11 13  1  0
 13 14  2  0
 13 15  1  0
 15 16  1  0
 16 17  2  0
 17 18  1  0
 18 19  2  0
 19 20  1  0
 20 21  2  0
  7  2  1  0
 12  8  1  0
 21 16  1  0
M  END
