CVD-0001745|dock_bobby27042020.66|mol2|14|dock3
     RDKit          3D

 29 31  0  0  0  0  0  0  0  0999 V2000
    6.2813   -6.7312   22.1336 C   0  0  0  0  0  0  0  0  0  0  0  0
    7.5301   -6.0452   22.5917 C   0  0  0  0  0  0  0  0  0  0  0  0
    7.5069   -4.6279   22.2703 N   0  0  0  0  0  0  0  0  0  0  0  0
    6.9629   -3.7029   23.0773 C   0  0  0  0  0  0  0  0  0  0  0  0
    5.9858   -4.1286   23.9036 N   0  0  0  0  0  0  0  0  0  0  0  0
    5.4608   -3.2665   24.7804 C   0  0  0  0  0  0  0  0  0  0  0  0
    5.8496   -1.9376   24.8804 C   0  0  0  0  0  0  0  0  0  0  0  0
    6.8281   -1.4765   24.0083 C   0  0  0  0  0  0  0  0  0  0  0  0
    7.3845   -2.3500   23.0789 C   0  0  0  0  0  0  0  0  0  0  0  0
    8.3741   -1.8246   22.1679 N   0  0  0  0  0  0  0  0  0  0  0  0
    9.7770   -2.2033   22.4058 C   0  0  0  0  0  0  0  0  0  0  0  0
   10.5449   -1.0799   23.0837 C   0  0  0  0  0  0  0  0  0  0  0  0
   11.7000   -1.5520   23.8595 N   0  0  0  0  0  0  0  0  0  0  0  0
   12.7877   -1.9874   22.9792 C   0  0  0  0  0  0  0  0  0  0  0  0
   13.9417   -2.4620   23.7998 C   0  0  0  0  0  0  0  0  0  0  0  0
   14.4312   -1.4381   24.6583 O   0  0  0  0  0  0  0  0  0  0  0  0
   13.3905   -0.9976   25.5146 C   0  0  0  0  0  0  0  0  0  0  0  0
   12.2042   -0.5020   24.7432 C   0  0  0  0  0  0  0  0  0  0  0  0
    8.1652   -1.0026   21.0592 C   0  0  0  0  0  0  0  0  0  0  0  0
    9.1516   -0.5709   20.4766 O   0  0  0  0  0  0  0  0  0  0  0  0
    6.8781   -0.7080   20.6818 N   0  0  0  0  0  0  0  0  0  0  0  0
    6.4006    0.0983   19.6164 C   0  0  0  0  0  0  0  0  0  0  0  0
    5.2456    0.8751   19.6575 C   0  0  0  0  0  0  0  0  0  0  0  0
    4.8858    1.6157   18.5447 C   0  0  0  0  0  0  0  0  0  0  0  0
    5.6847    1.5661   17.4260 C   0  0  0  0  0  0  0  0  0  0  0  0
    6.7975    0.8363   17.3569 N   0  0  0  0  0  0  0  0  0  0  0  0
    7.1345    0.1238   18.4357 C   0  0  0  0  0  0  0  0  0  0  0  0
    5.2579   -1.0570   25.8572 C   0  0  0  0  0  0  0  0  0  0  0  0
    4.7709   -0.3458   26.6066 N   0  0  0  0  0  0  0  0  0  0  0  0
  1  2  1  0
  2  3  1  0
  3  4  1  0
  4  5  2  0
  5  6  1  0
  6  7  2  0
  7  8  1  0
  8  9  2  0
  9 10  1  0
 10 11  1  0
 11 12  1  0
 12 13  1  0
 13 14  1  0
 14 15  1  0
 15 16  1  0
 16 17  1  0
 17 18  1  0
 10 19  1  0
 19 20  2  0
 19 21  1  0
 21 22  1  0
 22 23  2  0
 23 24  1  0
 24 25  2  0
 25 26  1  0
 26 27  2  0
  7 28  1  0
 28 29  3  0
  9  4  1  0
 18 13  1  0
 27 22  1  0
M  END
