CVD-0000670|dock_bobby27042020.12|mol2|17|dock1
     RDKit          3D

 26 28  0  0  0  0  0  0  0  0999 V2000
    9.7080   -5.5588   27.2250 C   0  0  0  0  0  0  0  0  0  0  0  0
    8.6411   -4.7408   26.7485 O   0  0  0  0  0  0  0  0  0  0  0  0
    8.8260   -3.9314   25.6554 C   0  0  0  0  0  0  0  0  0  0  0  0
    9.9203   -4.0697   24.8135 C   0  0  0  0  0  0  0  0  0  0  0  0
   10.0576   -3.2258   23.7252 C   0  0  0  0  0  0  0  0  0  0  0  0
    9.1221   -2.2382   23.4545 C   0  0  0  0  0  0  0  0  0  0  0  0
    8.0342   -2.1151   24.3056 C   0  0  0  0  0  0  0  0  0  0  0  0
    7.8833   -2.9511   25.3973 C   0  0  0  0  0  0  0  0  0  0  0  0
    9.2819   -1.3187   22.2534 C   0  0  0  0  0  0  0  0  0  0  0  0
    8.0119   -1.3171   21.3925 C   0  0  0  0  0  0  0  0  0  0  0  0
    8.2564   -0.8981   20.0086 N   0  0  0  0  0  0  0  0  0  0  0  0
    7.1398   -0.0630   19.2172 S   0  0  0  0  0  0  0  0  0  0  0  0
    5.6783   -1.0273   19.1858 C   0  0  0  0  0  0  0  0  0  0  0  0
    6.8772    1.1161   19.9832 O   0  0  0  0  0  0  0  0  0  0  0  0
    7.6026    0.0854   17.8720 O   0  0  0  0  0  0  0  0  0  0  0  0
    9.5494    0.1092   22.7201 C   0  0  0  0  0  0  0  0  0  0  0  0
    8.6198    0.8589   22.9499 O   0  0  0  0  0  0  0  0  0  0  0  0
   10.8367    0.5389   22.8731 N   0  0  0  0  0  0  0  0  0  0  0  0
   11.9888   -0.3644   23.1056 C   0  0  0  0  0  0  0  0  0  0  0  0
   13.2179    0.5706   23.1440 C   0  0  0  0  0  0  0  0  0  0  0  0
   12.6572    1.9290   22.8274 C   0  0  0  0  0  0  0  0  0  0  0  0
   13.2920    3.1552   22.6689 C   0  0  0  0  0  0  0  0  0  0  0  0
   12.5168    4.2423   22.3149 C   0  0  0  0  0  0  0  0  0  0  0  0
   11.1982    4.1842   22.1168 N   0  0  0  0  0  0  0  0  0  0  0  0
   10.5867    3.0021   22.2696 C   0  0  0  0  0  0  0  0  0  0  0  0
   11.2819    1.8561   22.6234 C   0  0  0  0  0  0  0  0  0  0  0  0
  1  2  1  0
  2  3  1  0
  3  4  2  0
  4  5  1  0
  5  6  2  0
  6  7  1  0
  7  8  2  0
  6  9  1  0
  9 10  1  0
 10 11  1  0
 11 12  1  0
 12 13  1  0
 12 14  2  0
 12 15  2  0
  9 16  1  0
 16 17  2  0
 16 18  1  0
 18 19  1  0
 19 20  1  0
 20 21  1  0
 21 22  2  0
 22 23  1  0
 23 24  2  0
 24 25  1  0
 25 26  2  0
  8  3  1  0
 26 18  1  0
 26 21  1  0
M  END
