CVD-0002534|dock_bobby27042020.19|mol2|28|dock1
     RDKit          3D

 26 29  0  0  0  0  0  0  0  0999 V2000
    7.4935    1.9287   23.2075 C   0  0  0  0  0  0  0  0  0  0  0  0
    8.2510    1.1859   21.9467 S   0  0  0  0  0  0  0  0  0  0  0  0
    9.1201    2.5717   21.7492 C   0  0  0  0  0  0  0  0  0  0  0  0
    8.9482   -0.2830   22.0710 N   0  0  0  0  0  0  0  0  0  0  0  0
   10.3830   -0.4803   22.3446 C   0  0  0  0  0  0  0  0  0  0  0  0
   10.7855   -1.9332   22.1769 C   0  0  0  0  0  0  0  0  0  0  0  0
    9.9316   -2.8113   22.9347 N   0  0  0  0  0  0  0  0  0  0  0  0
    8.4883   -2.5951   22.7794 C   0  0  0  0  0  0  0  0  0  0  0  0
    8.2397   -1.5239   21.7265 C   0  0  0  0  0  0  0  0  0  0  0  0
    7.7045   -3.7410   22.1435 C   0  0  0  0  0  0  0  0  0  0  0  0
    6.8205   -3.2655   21.1719 C   0  0  0  0  0  0  0  0  0  0  0  0
    6.1003   -4.1077   20.3600 C   0  0  0  0  0  0  0  0  0  0  0  0
    6.1849   -5.4279   20.4326 N   0  0  0  0  0  0  0  0  0  0  0  0
    7.0208   -5.9022   21.3515 C   0  0  0  0  0  0  0  0  0  0  0  0
    7.7956   -5.1439   22.2229 C   0  0  0  0  0  0  0  0  0  0  0  0
    8.3992   -6.0364   23.1643 N   0  0  0  0  0  0  0  0  0  0  0  0
    9.2213   -5.8561   24.2100 C   0  0  0  0  0  0  0  0  0  0  0  0
    9.7072   -6.8365   24.7662 O   0  0  0  0  0  0  0  0  0  0  0  0
    9.5884   -4.4658   24.7050 C   0  0  0  0  0  0  0  0  0  0  0  0
   10.5157   -3.7754   23.7082 C   0  0  0  0  0  0  0  0  0  0  0  0
   11.7162   -3.9045   23.7716 O   0  0  0  0  0  0  0  0  0  0  0  0
    7.0982    1.1199   20.6198 C   0  0  0  0  0  0  0  0  0  0  0  0
    5.7377    1.5735   20.6953 C   0  0  0  0  0  0  0  0  0  0  0  0
    5.0520    1.4103   19.5233 C   0  0  0  0  0  0  0  0  0  0  0  0
    6.0337    0.7120   18.3234 S   0  0  0  0  0  0  0  0  0  0  0  0
    7.3462    0.6443   19.3940 C   0  0  0  0  0  0  0  0  0  0  0  0
  1  2  2  0
  2  3  2  0
  2  4  1  0
  4  5  1  0
  5  6  1  0
  6  7  1  0
  7  8  1  0
  8  9  1  0
  8 10  1  0
 10 11  2  0
 11 12  1  0
 12 13  2  0
 13 14  1  0
 14 15  2  0
 15 16  1  0
 16 17  1  0
 17 18  2  0
 17 19  1  0
 19 20  1  0
 20 21  2  0
  2 22  1  0
 22 23  1  0
 23 24  2  0
 24 25  1  0
 25 26  1  0
  9  4  1  0
 15 10  1  0
 26 22  2  0
 20  7  1  0
M  END
