CVD-0000708|dock_bobby27042020.26|mol2|26|dock2
     RDKit          3D

 18 19  0  0  0  0  0  0  0  0999 V2000
    8.7149   -0.3583   22.5727 O   0  0  0  0  0  0  0  0  0  0  0  0
    9.2621   -0.8456   21.5891 C   0  0  0  0  0  0  0  0  0  0  0  0
   10.5946   -1.5579   21.7109 C   0  0  0  0  0  0  0  0  0  0  0  0
   11.3925   -1.0860   22.9053 C   0  0  0  0  0  0  0  0  0  0  0  0
   11.4367    0.2483   23.2675 C   0  0  0  0  0  0  0  0  0  0  0  0
   12.1213    0.7242   24.3124 N   0  0  0  0  0  0  0  0  0  0  0  0
   12.8051   -0.1530   25.0518 C   0  0  0  0  0  0  0  0  0  0  0  0
   12.8315   -1.5173   24.7816 C   0  0  0  0  0  0  0  0  0  0  0  0
   12.1089   -1.9828   23.6867 C   0  0  0  0  0  0  0  0  0  0  0  0
   13.5843   -2.4279   25.6086 C   0  0  0  0  0  0  0  0  0  0  0  0
   14.2077   -3.1304   26.2588 N   0  0  0  0  0  0  0  0  0  0  0  0
    8.7726   -0.8228   20.3258 N   0  0  0  0  0  0  0  0  0  0  0  0
    7.5770   -0.2739   19.7998 C   0  0  0  0  0  0  0  0  0  0  0  0
    6.4328   -0.0390   20.5555 C   0  0  0  0  0  0  0  0  0  0  0  0
    5.3160    0.5019   19.9418 C   0  0  0  0  0  0  0  0  0  0  0  0
    5.3719    0.7919   18.5979 C   0  0  0  0  0  0  0  0  0  0  0  0
    6.4535    0.5781   17.8489 N   0  0  0  0  0  0  0  0  0  0  0  0
    7.5260    0.0558   18.4504 C   0  0  0  0  0  0  0  0  0  0  0  0
  1  2  2  0
  2  3  1  0
  3  4  1  0
  4  5  2  0
  5  6  1  0
  6  7  2  0
  7  8  1  0
  8  9  2  0
  8 10  1  0
 10 11  3  0
  2 12  1  0
 12 13  1  0
 13 14  2  0
 14 15  1  0
 15 16  2  0
 16 17  1  0
 17 18  2  0
  9  4  1  0
 18 13  1  0
M  END
