CVD-0001094|dock_bobby27042020.82|mol2|13|dock2
     RDKit          3D

 22 23  0  0  0  0  0  0  0  0999 V2000
    7.7541   -0.4147   18.7877 C   0  0  0  0  0  0  0  0  0  0  0  0
    7.9665    0.0781   20.4547 S   0  0  0  0  0  0  0  0  0  0  0  0
    8.3034    1.4682   20.4672 O   0  0  0  0  0  0  0  0  0  0  0  0
    6.8211   -0.3538   21.1946 O   0  0  0  0  0  0  0  0  0  0  0  0
    9.2303   -0.7168   21.0392 N   0  0  0  0  0  0  0  0  0  0  0  0
    9.5793   -0.7135   22.4505 C   0  0  0  0  0  0  0  0  0  0  0  0
   10.8290    0.0411   22.6699 N   0  0  0  0  0  0  0  0  0  0  0  0
   10.8197    1.4444   22.6718 C   0  0  0  0  0  0  0  0  0  0  0  0
    9.7634    2.0298   22.4770 O   0  0  0  0  0  0  0  0  0  0  0  0
   11.9978    2.1286   22.8785 N   0  0  0  0  0  0  0  0  0  0  0  0
   12.2602    3.5242   22.9153 C   0  0  0  0  0  0  0  0  0  0  0  0
   11.3228    4.5054   23.2385 C   0  0  0  0  0  0  0  0  0  0  0  0
   11.6838    5.8429   23.2420 C   0  0  0  0  0  0  0  0  0  0  0  0
   12.9697    6.2239   22.9296 C   0  0  0  0  0  0  0  0  0  0  0  0
   13.9045    5.2648   22.6113 C   0  0  0  0  0  0  0  0  0  0  0  0
   13.5548    3.9253   22.6035 C   0  0  0  0  0  0  0  0  0  0  0  0
   12.0026   -0.7619   22.9095 C   0  0  0  0  0  0  0  0  0  0  0  0
   12.5279   -1.6173   21.9442 C   0  0  0  0  0  0  0  0  0  0  0  0
   13.6670   -2.3609   22.2040 C   0  0  0  0  0  0  0  0  0  0  0  0
   14.2885   -2.2799   23.4298 C   0  0  0  0  0  0  0  0  0  0  0  0
   13.7709   -1.4513   24.3998 C   0  0  0  0  0  0  0  0  0  0  0  0
   12.6389   -0.6952   24.1456 C   0  0  0  0  0  0  0  0  0  0  0  0
  1  2  1  0
  2  3  2  0
  2  4  2  0
  2  5  1  0
  5  6  1  0
  6  7  1  0
  7  8  1  0
  8  9  2  0
  8 10  1  0
 10 11  1  0
 11 12  2  0
 12 13  1  0
 13 14  2  0
 14 15  1  0
 15 16  2  0
  7 17  1  0
 17 18  2  0
 18 19  1  0
 19 20  2  0
 20 21  1  0
 21 22  2  0
 16 11  1  0
 22 17  1  0
M  END
