CVD-0001658|dock_bobby27042020.23|mol2|15|dock3
     RDKit          3D

 17 18  0  0  0  0  0  0  0  0999 V2000
    5.3538    1.5376   17.2715 Cl  0  0  0  0  0  0  0  0  0  0  0  0
    6.0928    0.4379   18.4426 C   0  0  0  0  0  0  0  0  0  0  0  0
    6.5478    1.1601   19.6951 C   0  0  0  0  0  0  0  0  0  0  0  0
    5.9551    2.1398   20.1082 O   0  0  0  0  0  0  0  0  0  0  0  0
    7.7451    0.6404   20.4329 C   0  0  0  0  0  0  0  0  0  0  0  0
    7.9559   -0.7246   20.5482 C   0  0  0  0  0  0  0  0  0  0  0  0
    9.0725   -1.1610   21.2363 C   0  0  0  0  0  0  0  0  0  0  0  0
    9.9625   -0.2449   21.7872 C   0  0  0  0  0  0  0  0  0  0  0  0
    9.6595    1.1000   21.6173 C   0  0  0  0  0  0  0  0  0  0  0  0
    8.5802    1.5447   20.9622 N   0  0  0  0  0  0  0  0  0  0  0  0
   11.0974   -0.6544   22.4766 N   0  0  0  0  0  0  0  0  0  0  0  0
   11.6299    0.1372   23.5915 C   0  0  0  0  0  0  0  0  0  0  0  0
   12.7686    1.0918   23.1663 C   0  0  0  0  0  0  0  0  0  0  0  0
   14.0711    0.3071   22.8944 C   0  0  0  0  0  0  0  0  0  0  0  0
   13.8206   -0.6268   21.8441 O   0  0  0  0  0  0  0  0  0  0  0  0
   13.2725   -1.8791   22.2571 C   0  0  0  0  0  0  0  0  0  0  0  0
   11.7367   -1.9206   22.0850 C   0  0  0  0  0  0  0  0  0  0  0  0
  1  2  1  0
  2  3  1  0
  3  4  2  0
  3  5  1  0
  5  6  2  0
  6  7  1  0
  7  8  2  0
  8  9  1  0
  9 10  2  0
  8 11  1  0
 11 12  1  0
 12 13  1  0
 13 14  1  0
 14 15  1  0
 15 16  1  0
 16 17  1  0
 10  5  1  0
 17 11  1  0
M  END
