CVD-0002683|dock_bobby27042020.90|mol2|29|dock2
     RDKit          3D

 38 41  0  0  0  0  0  0  0  0999 V2000
   13.8035   -2.1027   23.5973 C   0  0  0  0  0  0  0  0  0  0  0  0
   13.8492   -1.3289   22.3617 N   0  0  0  0  0  0  0  0  0  0  0  0
   13.6722   -2.1991   21.2043 C   0  0  0  0  0  0  0  0  0  0  0  0
   12.9288   -0.1732   22.3841 C   0  0  0  0  0  0  0  0  0  0  0  0
   13.4864    1.0246   23.1769 C   0  0  0  0  0  0  0  0  0  0  0  0
   12.8886    2.3472   22.7626 C   0  0  0  0  0  0  0  0  0  0  0  0
   13.7002    3.3967   22.3600 C   0  0  0  0  0  0  0  0  0  0  0  0
   13.1518    4.6093   21.9769 C   0  0  0  0  0  0  0  0  0  0  0  0
   11.7850    4.7863   21.9909 C   0  0  0  0  0  0  0  0  0  0  0  0
   10.9667    3.7505   22.3878 C   0  0  0  0  0  0  0  0  0  0  0  0
   11.5156    2.5381   22.7709 C   0  0  0  0  0  0  0  0  0  0  0  0
   11.5869   -0.5855   22.9845 C   0  0  0  0  0  0  0  0  0  0  0  0
   11.3911   -0.4804   24.1924 O   0  0  0  0  0  0  0  0  0  0  0  0
   10.6574   -1.0473   22.1425 N   0  0  0  0  0  0  0  0  0  0  0  0
    9.3515   -1.4811   22.6116 C   0  0  0  0  0  0  0  0  0  0  0  0
    8.5055   -2.0444   21.4589 C   0  0  0  0  0  0  0  0  0  0  0  0
    7.7485   -0.9874   20.6916 C   0  0  0  0  0  0  0  0  0  0  0  0
    6.6423   -0.3636   21.2476 C   0  0  0  0  0  0  0  0  0  0  0  0
    5.9449    0.6033   20.5429 C   0  0  0  0  0  0  0  0  0  0  0  0
    6.3452    0.9573   19.2723 C   0  0  0  0  0  0  0  0  0  0  0  0
    7.4422    0.3439   18.7068 C   0  0  0  0  0  0  0  0  0  0  0  0
    8.1391   -0.6229   19.4122 C   0  0  0  0  0  0  0  0  0  0  0  0
    9.5296   -2.5570   23.6780 C   0  0  0  0  0  0  0  0  0  0  0  0
   10.3709   -3.4278   23.5377 O   0  0  0  0  0  0  0  0  0  0  0  0
    8.6047   -2.4426   24.9013 C   0  0  0  0  0  0  0  0  0  0  0  0
    8.1191   -1.3295   25.0666 O   0  0  0  0  0  0  0  0  0  0  0  0
    8.3339   -3.4629   25.7404 N   0  0  0  0  0  0  0  0  0  0  0  0
    8.7887   -4.8426   25.6637 C   0  0  0  0  0  0  0  0  0  0  0  0
    7.6432   -5.8336   25.8366 C   0  0  0  0  0  0  0  0  0  0  0  0
    6.8768   -5.5315   27.0545 N   0  0  0  0  0  0  0  0  0  0  0  0
    6.3565   -4.1416   26.9973 C   0  0  0  0  0  0  0  0  0  0  0  0
    7.5219   -3.1902   26.9357 C   0  0  0  0  0  0  0  0  0  0  0  0
    6.0925   -6.5211   27.6300 C   0  0  0  0  0  0  0  0  0  0  0  0
    5.0627   -7.1271   26.9171 C   0  0  0  0  0  0  0  0  0  0  0  0
    4.2926   -8.1206   27.4983 C   0  0  0  0  0  0  0  0  0  0  0  0
    4.5294   -8.5179   28.7950 C   0  0  0  0  0  0  0  0  0  0  0  0
    5.5397   -7.9205   29.5143 C   0  0  0  0  0  0  0  0  0  0  0  0
    6.3188   -6.9294   28.9412 C   0  0  0  0  0  0  0  0  0  0  0  0
  1  2  1  0
  2  3  1  0
  2  4  1  0
  4  5  1  0
  5  6  1  0
  6  7  2  0
  7  8  1  0
  8  9  2  0
  9 10  1  0
 10 11  2  0
  4 12  1  0
 12 13  2  0
 12 14  1  0
 14 15  1  0
 15 16  1  0
 16 17  1  0
 17 18  2  0
 18 19  1  0
 19 20  2  0
 20 21  1  0
 21 22  2  0
 15 23  1  0
 23 24  2  0
 23 25  1  0
 25 26  2  0
 25 27  1  0
 27 28  1  0
 28 29  1  0
 29 30  1  0
 30 31  1  0
 31 32  1  0
 30 33  1  0
 33 34  2  0
 34 35  1  0
 35 36  2  0
 36 37  1  0
 37 38  2  0
 11  6  1  0
 22 17  1  0
 32 27  1  0
 38 33  1  0
M  END
