CVD-0001393|dock_bobby27042020.95|mol2|27|dock3
     RDKit          3D

 15 16  0  0  0  0  0  0  0  0999 V2000
   10.7243   -2.1327   21.6553 N   0  0  0  0  0  0  0  0  0  0  0  0
   11.7574   -1.8310   22.8405 S   0  0  0  0  0  0  0  0  0  0  0  0
   12.9500   -2.5734   22.5619 O   0  0  0  0  0  0  0  0  0  0  0  0
   11.0680   -2.0667   24.0735 O   0  0  0  0  0  0  0  0  0  0  0  0
   12.1801   -0.1158   22.7918 C   0  0  0  0  0  0  0  0  0  0  0  0
   11.1931    0.8399   22.9696 C   0  0  0  0  0  0  0  0  0  0  0  0
   11.5310    2.1812   22.9354 C   0  0  0  0  0  0  0  0  0  0  0  0
   12.8463    2.5798   22.7265 C   0  0  0  0  0  0  0  0  0  0  0  0
   13.8225    1.6056   22.5522 C   0  0  0  0  0  0  0  0  0  0  0  0
   13.4969    0.2613   22.5844 C   0  0  0  0  0  0  0  0  0  0  0  0
   13.1990    4.0078   22.6906 C   0  0  0  0  0  0  0  0  0  0  0  0
   14.1353    4.5801   22.0005 N   0  0  0  0  0  0  0  0  0  0  0  0
   14.0331    5.9108   22.3332 C   0  0  0  0  0  0  0  0  0  0  0  0
   13.0276    6.0811   23.2192 C   0  0  0  0  0  0  0  0  0  0  0  0
   12.4680    4.8570   23.4686 O   0  0  0  0  0  0  0  0  0  0  0  0
  1  2  1  0
  2  3  2  0
  2  4  2  0
  2  5  1  0
  5  6  2  0
  6  7  1  0
  7  8  2  0
  8  9  1  0
  9 10  2  0
  8 11  1  0
 11 12  2  0
 12 13  1  0
 13 14  2  0
 14 15  1  0
 10  5  1  0
 15 11  1  0
M  END
