CVD-0003246|dock_bobby27042020.2|mol2|36|dock3
     RDKit          3D

 28 31  0  0  0  0  0  0  0  0999 V2000
    3.8970    1.3546   21.1368 C   0  0  0  0  0  0  0  0  0  0  0  0
    5.2580    0.8648   21.4047 N   0  0  0  0  0  0  0  0  0  0  0  0
    5.8412    0.9932   22.6585 C   0  0  0  0  0  0  0  0  0  0  0  0
    5.2092    1.4639   23.5871 O   0  0  0  0  0  0  0  0  0  0  0  0
    7.2517    0.5957   23.0011 C   0  0  0  0  0  0  0  0  0  0  0  0
    7.6355   -0.6396   23.5191 C   0  0  0  0  0  0  0  0  0  0  0  0
    8.9684   -0.9215   23.7534 C   0  0  0  0  0  0  0  0  0  0  0  0
    9.9756    0.0062   23.4853 C   0  0  0  0  0  0  0  0  0  0  0  0
   11.4325   -0.2951   23.7363 C   0  0  0  0  0  0  0  0  0  0  0  0
   12.1440    0.9447   24.1639 C   0  0  0  0  0  0  0  0  0  0  0  0
   12.0099    2.0152   23.1449 N   0  0  0  0  0  0  0  0  0  0  0  0
   10.6591    2.2913   22.6173 C   0  0  0  0  0  0  0  0  0  0  0  0
    9.5973    1.2430   22.9673 C   0  0  0  0  0  0  0  0  0  0  0  0
    8.2555    1.5186   22.7346 C   0  0  0  0  0  0  0  0  0  0  0  0
   13.0502    2.7242   22.6619 C   0  0  0  0  0  0  0  0  0  0  0  0
   14.1983    2.5381   23.0452 O   0  0  0  0  0  0  0  0  0  0  0  0
   12.7259    3.7711   21.6143 C   0  0  0  0  0  0  0  0  0  0  0  0
   14.1009    4.8535   21.3602 Cl  0  0  0  0  0  0  0  0  0  0  0  0
   12.0789   -0.8819   22.5216 C   0  0  0  0  0  0  0  0  0  0  0  0
   11.5258   -1.5086   21.4509 C   0  0  0  0  0  0  0  0  0  0  0  0
   12.5598   -1.8476   20.6290 N   0  0  0  0  0  0  0  0  0  0  0  0
   13.6892   -1.4265   21.2102 C   0  0  0  0  0  0  0  0  0  0  0  0
   13.4563   -0.8295   22.3686 N   0  0  0  0  0  0  0  0  0  0  0  0
    5.9081    0.2613   20.3060 C   0  0  0  0  0  0  0  0  0  0  0  0
    7.1795    0.3774   19.8226 C   0  0  0  0  0  0  0  0  0  0  0  0
    7.2400   -0.4412   18.7350 N   0  0  0  0  0  0  0  0  0  0  0  0
    6.0407   -1.0091   18.5962 C   0  0  0  0  0  0  0  0  0  0  0  0
    5.1961   -0.6093   19.5318 N   0  0  0  0  0  0  0  0  0  0  0  0
  1  2  1  0
  2  3  1  0
  3  4  2  0
  3  5  1  0
  5  6  2  0
  6  7  1  0
  7  8  2  0
  8  9  1  0
  9 10  1  0
 10 11  1  0
 11 12  1  0
 12 13  1  0
 13 14  2  0
 11 15  1  0
 15 16  2  0
 15 17  1  0
 17 18  1  0
  9 19  1  0
 19 20  2  0
 20 21  1  0
 21 22  1  0
 22 23  2  0
  2 24  1  0
 24 25  2  0
 25 26  1  0
 26 27  1  0
 27 28  2  0
 14  5  1  0
 23 19  1  0
 28 24  1  0
 13  8  1  0
M  END
