CVD-0001901|dock_bobby27042020.8|mol2|9|dock3
     RDKit          3D

 32 35  0  0  0  0  0  0  0  0999 V2000
    8.6927    6.5776   22.5512 C   0  0  0  0  0  0  0  0  0  0  0  0
    9.6437    6.3705   23.7012 C   0  0  0  0  0  0  0  0  0  0  0  0
   10.7808    5.4193   23.3827 C   0  0  0  0  0  0  0  0  0  0  0  0
   12.0849    5.8796   23.3076 C   0  0  0  0  0  0  0  0  0  0  0  0
   13.1215    5.0099   23.0198 C   0  0  0  0  0  0  0  0  0  0  0  0
   12.8641    3.6669   22.8053 C   0  0  0  0  0  0  0  0  0  0  0  0
   11.5644    3.1792   22.8772 C   0  0  0  0  0  0  0  0  0  0  0  0
   11.3736    1.7924   22.6486 N   0  0  0  0  0  0  0  0  0  0  0  0
   10.2835    0.9975   22.8270 C   0  0  0  0  0  0  0  0  0  0  0  0
    9.2005    1.3908   23.2508 O   0  0  0  0  0  0  0  0  0  0  0  0
   10.4564   -0.5017   22.4781 C   0  0  0  0  0  0  0  0  0  0  0  0
    9.2479   -1.3075   22.7991 N   0  0  0  0  0  0  0  0  0  0  0  0
    8.1548   -1.3936   21.9494 C   0  0  0  0  0  0  0  0  0  0  0  0
    7.2179   -2.0931   22.3311 O   0  0  0  0  0  0  0  0  0  0  0  0
    7.9896   -0.7369   20.6125 C   0  0  0  0  0  0  0  0  0  0  0  0
    7.0234   -0.9332   19.7516 C   0  0  0  0  0  0  0  0  0  0  0  0
    9.1556   -2.0324   24.0275 C   0  0  0  0  0  0  0  0  0  0  0  0
    8.5706   -1.4850   25.1637 C   0  0  0  0  0  0  0  0  0  0  0  0
    8.4991   -2.2003   26.3479 C   0  0  0  0  0  0  0  0  0  0  0  0
    9.0177   -3.4935   26.4306 C   0  0  0  0  0  0  0  0  0  0  0  0
    9.0310   -4.3491   27.5297 N   0  0  0  0  0  0  0  0  0  0  0  0
    9.5995   -5.4664   27.2229 C   0  0  0  0  0  0  0  0  0  0  0  0
   10.1843   -5.6351   25.5989 S   0  0  0  0  0  0  0  0  0  0  0  0
    9.6071   -4.0310   25.2813 C   0  0  0  0  0  0  0  0  0  0  0  0
    9.6799   -3.3163   24.0934 C   0  0  0  0  0  0  0  0  0  0  0  0
   11.7200   -1.0583   23.1254 C   0  0  0  0  0  0  0  0  0  0  0  0
   12.5123   -1.9824   22.4611 C   0  0  0  0  0  0  0  0  0  0  0  0
   13.6567   -2.4734   23.0649 C   0  0  0  0  0  0  0  0  0  0  0  0
   13.9793   -2.0229   24.3248 C   0  0  0  0  0  0  0  0  0  0  0  0
   13.2420   -1.1346   24.9930 N   0  0  0  0  0  0  0  0  0  0  0  0
   12.1418   -0.6745   24.3900 C   0  0  0  0  0  0  0  0  0  0  0  0
   10.5309    4.0697   23.1665 C   0  0  0  0  0  0  0  0  0  0  0  0
  1  2  1  0
  2  3  1  0
  3  4  2  0
  4  5  1  0
  5  6  2  0
  6  7  1  0
  7  8  1  0
  8  9  1  0
  9 10  2  0
  9 11  1  0
 11 12  1  0
 12 13  1  0
 13 14  2  0
 13 15  1  0
 15 16  2  0
 12 17  1  0
 17 18  2  0
 18 19  1  0
 19 20  2  0
 20 21  1  0
 21 22  2  0
 22 23  1  0
 23 24  1  0
 24 25  2  0
 11 26  1  0
 26 27  2  0
 27 28  1  0
 28 29  2  0
 29 30  1  0
 30 31  2  0
  7 32  2  0
 32  3  1  0
 25 17  1  0
 31 26  1  0
 24 20  1  0
M  END
