CVD-0004050|dock_bobby27042020.0|mol2|5|dock2
     RDKit          3D

 24 27  0  0  0  0  0  0  0  0999 V2000
    6.2509   -1.2786   19.8582 C   0  0  0  0  0  0  0  0  0  0  0  0
    7.5307   -0.8657   20.5313 C   0  0  0  0  0  0  0  0  0  0  0  0
    8.4286   -1.8590   21.0884 C   0  0  0  0  0  0  0  0  0  0  0  0
    9.5675   -1.5915   21.6856 N   0  0  0  0  0  0  0  0  0  0  0  0
    9.9118   -0.2829   21.7719 C   0  0  0  0  0  0  0  0  0  0  0  0
   11.0420    0.4026   22.3422 C   0  0  0  0  0  0  0  0  0  0  0  0
   10.7880    1.7827   22.0621 C   0  0  0  0  0  0  0  0  0  0  0  0
    9.6109    1.9441   21.4525 N   0  0  0  0  0  0  0  0  0  0  0  0
    9.0889    0.6934   21.2576 N   0  0  0  0  0  0  0  0  0  0  0  0
    7.9144    0.4247   20.6420 C   0  0  0  0  0  0  0  0  0  0  0  0
   11.5641    3.0203   22.2955 C   0  0  0  0  0  0  0  0  0  0  0  0
   12.9535    2.9627   22.2636 C   0  0  0  0  0  0  0  0  0  0  0  0
   13.7235    4.0959   22.4565 C   0  0  0  0  0  0  0  0  0  0  0  0
   13.0853    5.2836   22.6850 C   0  0  0  0  0  0  0  0  0  0  0  0
   13.8356    6.4044   22.8617 F   0  0  0  0  0  0  0  0  0  0  0  0
   11.7230    5.3898   22.7443 C   0  0  0  0  0  0  0  0  0  0  0  0
   10.9642    4.2470   22.5629 C   0  0  0  0  0  0  0  0  0  0  0  0
   12.1552   -0.3008   23.0551 C   0  0  0  0  0  0  0  0  0  0  0  0
   12.7416    0.2353   24.1929 C   0  0  0  0  0  0  0  0  0  0  0  0
   13.7409   -0.3515   24.8606 N   0  0  0  0  0  0  0  0  0  0  0  0
   14.1652   -1.5402   24.3795 C   0  0  0  0  0  0  0  0  0  0  0  0
   15.1496   -2.1560   25.0382 N   0  0  0  0  0  0  0  0  0  0  0  0
   13.6698   -2.1530   23.2825 N   0  0  0  0  0  0  0  0  0  0  0  0
   12.6905   -1.5109   22.6369 C   0  0  0  0  0  0  0  0  0  0  0  0
  1  2  1  0
  2  3  1  0
  3  4  2  0
  4  5  1  0
  5  6  2  0
  6  7  1  0
  7  8  2  0
  8  9  1  0
  9 10  1  0
  7 11  1  0
 11 12  2  0
 12 13  1  0
 13 14  2  0
 14 15  1  0
 14 16  1  0
 16 17  2  0
  6 18  1  0
 18 19  2  0
 19 20  1  0
 20 21  2  0
 21 22  1  0
 21 23  1  0
 23 24  2  0
 10  2  2  0
 17 11  1  0
 24 18  1  0
  9  5  1  0
M  END
