CVD-0000054|dock_bobby27042020.85|mol2|37|dock1
     RDKit          3D

 41 44  0  0  0  0  0  0  0  0999 V2000
    6.7390    7.5573   20.8424 C   0  0  0  0  0  0  0  0  0  0  0  0
    7.9640    6.8303   20.9021 O   0  0  0  0  0  0  0  0  0  0  0  0
    8.1402    6.0094   21.9361 C   0  0  0  0  0  0  0  0  0  0  0  0
    8.8256    6.4785   22.9680 N   0  0  0  0  0  0  0  0  0  0  0  0
    8.9495    5.5864   23.9513 C   0  0  0  0  0  0  0  0  0  0  0  0
    8.4732    4.3420   23.9843 N   0  0  0  0  0  0  0  0  0  0  0  0
    7.8054    4.0177   22.8734 C   0  0  0  0  0  0  0  0  0  0  0  0
    7.2207    2.6303   22.7894 C   0  0  0  0  0  0  0  0  0  0  0  0
    7.6313    1.9886   21.5335 N   0  0  0  0  0  0  0  0  0  0  0  0
    8.9851    1.6352   21.4727 C   0  0  0  0  0  0  0  0  0  0  0  0
    9.3823    1.1032   20.4429 O   0  0  0  0  0  0  0  0  0  0  0  0
    9.8962    1.8441   22.4810 N   0  0  0  0  0  0  0  0  0  0  0  0
   11.2931    1.5275   22.5255 C   0  0  0  0  0  0  0  0  0  0  0  0
   11.6918    0.1792   22.5703 C   0  0  0  0  0  0  0  0  0  0  0  0
   10.6621   -0.9347   22.4734 C   0  0  0  0  0  0  0  0  0  0  0  0
   10.4883   -1.7183   23.7623 C   0  0  0  0  0  0  0  0  0  0  0  0
    9.1917   -2.3777   23.8248 N   0  0  0  0  0  0  0  0  0  0  0  0
    8.6539   -3.0095   22.7851 C   0  0  0  0  0  0  0  0  0  0  0  0
    9.2013   -3.0906   21.6899 O   0  0  0  0  0  0  0  0  0  0  0  0
    7.2897   -3.6302   23.0328 C   0  0  0  0  0  0  0  0  0  0  0  0
    7.1741   -4.3085   24.3260 N   0  0  0  0  0  0  0  0  0  0  0  0
    8.1682   -5.3775   24.4546 C   0  0  0  0  0  0  0  0  0  0  0  0
    8.0234   -6.0443   25.7830 C   0  0  0  0  0  0  0  0  0  0  0  0
    6.7260   -6.6046   25.9500 O   0  0  0  0  0  0  0  0  0  0  0  0
    5.7480   -5.5861   25.8219 C   0  0  0  0  0  0  0  0  0  0  0  0
    5.8416   -4.8844   24.5003 C   0  0  0  0  0  0  0  0  0  0  0  0
   13.0588   -0.1119   22.6921 C   0  0  0  0  0  0  0  0  0  0  0  0
   13.6118   -1.5084   22.8119 C   0  0  0  0  0  0  0  0  0  0  0  0
   13.9401    0.9586   22.7030 C   0  0  0  0  0  0  0  0  0  0  0  0
   13.5823    2.2396   22.5951 N   0  0  0  0  0  0  0  0  0  0  0  0
   12.2689    2.5554   22.5118 C   0  0  0  0  0  0  0  0  0  0  0  0
   12.0234    4.0056   22.4173 C   0  0  0  0  0  0  0  0  0  0  0  0
   12.8585    4.9955   22.2708 C   0  0  0  0  0  0  0  0  0  0  0  0
    6.5694    1.7712   20.6154 C   0  0  0  0  0  0  0  0  0  0  0  0
    6.4962    0.6580   19.7830 C   0  0  0  0  0  0  0  0  0  0  0  0
    5.4211    0.5174   18.9183 C   0  0  0  0  0  0  0  0  0  0  0  0
    5.3106   -0.6783   18.0038 C   0  0  0  0  0  0  0  0  0  0  0  0
    4.4509    1.5044   18.9249 C   0  0  0  0  0  0  0  0  0  0  0  0
    4.5944    2.5752   19.7815 C   0  0  0  0  0  0  0  0  0  0  0  0
    5.6287    2.7201   20.6183 N   0  0  0  0  0  0  0  0  0  0  0  0
    7.6022    4.8010   21.8121 N   0  0  0  0  0  0  0  0  0  0  0  0
  1  2  1  0
  2  3  1  0
  3  4  2  0
  4  5  1  0
  5  6  2  0
  6  7  1  0
  7  8  1  0
  8  9  1  0
  9 10  1  0
 10 11  2  0
 10 12  1  0
 12 13  1  0
 13 14  1  0
 14 15  1  0
 15 16  1  0
 16 17  1  0
 17 18  1  0
 18 19  2  0
 18 20  1  0
 20 21  1  0
 21 22  1  0
 22 23  1  0
 23 24  1  0
 24 25  1  0
 25 26  1  0
 14 27  2  0
 27 28  1  0
 27 29  1  0
 29 30  2  0
 30 31  1  0
 31 32  1  0
 32 33  2  0
  9 34  1  0
 34 35  2  0
 35 36  1  0
 36 37  1  0
 36 38  2  0
 38 39  1  0
 39 40  2  0
  7 41  2  0
 41  3  1  0
 31 13  2  0
 40 34  1  0
 26 21  1  0
M  END
