CVD-0002441|dock_bobby27042020.6|mol2|1|dock3
     RDKit          3D

 34 35  0  0  0  0  0  0  0  0999 V2000
    5.2839    1.7802   22.2169 C   0  0  0  0  0  0  0  0  0  0  0  0
    6.6321    2.1329   21.6302 C   0  0  0  0  0  0  0  0  0  0  0  0
    7.1176    0.9946   20.8561 O   0  0  0  0  0  0  0  0  0  0  0  0
    6.3793    0.5890   19.7739 C   0  0  0  0  0  0  0  0  0  0  0  0
    5.8355    1.4828   18.8617 C   0  0  0  0  0  0  0  0  0  0  0  0
    5.1219    1.0063   17.7775 C   0  0  0  0  0  0  0  0  0  0  0  0
    4.9511   -0.3492   17.6048 C   0  0  0  0  0  0  0  0  0  0  0  0
    5.4763   -1.2550   18.5124 C   0  0  0  0  0  0  0  0  0  0  0  0
    6.1927   -0.7944   19.6194 C   0  0  0  0  0  0  0  0  0  0  0  0
    6.7519   -1.6324   20.6195 N   0  0  0  0  0  0  0  0  0  0  0  0
    6.3866   -2.8783   21.0167 C   0  0  0  0  0  0  0  0  0  0  0  0
    5.4563   -3.5298   20.5514 O   0  0  0  0  0  0  0  0  0  0  0  0
    7.2328   -3.4610   22.1285 C   0  0  0  0  0  0  0  0  0  0  0  0
    7.0220   -2.6975   23.4301 C   0  0  0  0  0  0  0  0  0  0  0  0
    7.8424   -3.3109   24.5461 C   0  0  0  0  0  0  0  0  0  0  0  0
    7.4892   -4.7186   24.7090 N   0  0  0  0  0  0  0  0  0  0  0  0
    7.7256   -5.5026   23.5016 C   0  0  0  0  0  0  0  0  0  0  0  0
    6.9084   -4.9374   22.3446 C   0  0  0  0  0  0  0  0  0  0  0  0
    7.2467   -5.3382   25.8819 C   0  0  0  0  0  0  0  0  0  0  0  0
    6.9373   -6.5218   25.9367 O   0  0  0  0  0  0  0  0  0  0  0  0
    7.3829   -4.4956   27.1351 C   0  0  0  0  0  0  0  0  0  0  0  0
    7.2575   -5.5080   28.5797 Cl  0  0  0  0  0  0  0  0  0  0  0  0
    7.6778    2.4094   22.7205 C   0  0  0  0  0  0  0  0  0  0  0  0
    7.3849    3.6665   23.3926 N   0  0  0  0  0  0  0  0  0  0  0  0
    7.1861    3.7436   24.7137 C   0  0  0  0  0  0  0  0  0  0  0  0
    6.8785    5.1102   25.2515 C   0  0  0  0  0  0  0  0  0  0  0  0
    7.2354    2.7578   25.4430 O   0  0  0  0  0  0  0  0  0  0  0  0
    9.1022    2.4701   22.1755 C   0  0  0  0  0  0  0  0  0  0  0  0
    9.3233    2.1809   21.0027 O   0  0  0  0  0  0  0  0  0  0  0  0
   10.0639    2.8536   23.0152 N   0  0  0  0  0  0  0  0  0  0  0  0
   11.4554    2.9416   22.5924 C   0  0  0  0  0  0  0  0  0  0  0  0
   12.2252    1.7376   22.9267 C   0  0  0  0  0  0  0  0  0  0  0  0
   12.8467    0.7819   23.2536 C   0  0  0  0  0  0  0  0  0  0  0  0
   13.7924   -0.6467   23.8086 Br  0  0  0  0  0  0  0  0  0  0  0  0
  2  1  1  0
  2  3  1  0
  3  4  1  0
  4  5  2  0
  5  6  1  0
  6  7  2  0
  7  8  1  0
  8  9  2  0
  9 10  1  0
 10 11  1  0
 11 12  2  0
 11 13  1  0
 13 14  1  0
 14 15  1  0
 15 16  1  0
 16 17  1  0
 17 18  1  0
 16 19  1  0
 19 20  2  0
 19 21  1  0
 21 22  1  0
  2 23  1  0
 23 24  1  0
 24 25  1  0
 25 26  1  0
 25 27  2  0
 23 28  1  0
 28 29  2  0
 28 30  1  0
 30 31  1  0
 31 32  1  0
 32 33  3  0
 33 34  1  0
  9  4  1  0
 18 13  1  0
M  END
