CVD-0000290|dock_bobby27042020.70|mol2|35|dock1
     RDKit          3D

 25 27  0  0  0  0  0  0  0  0999 V2000
   10.6084   -3.0452   23.7537 O   0  0  0  0  0  0  0  0  0  0  0  0
    9.5625   -2.5236   23.3796 C   0  0  0  0  0  0  0  0  0  0  0  0
    8.3379   -3.3450   23.0577 C   0  0  0  0  0  0  0  0  0  0  0  0
    7.4812   -3.6257   24.2898 C   0  0  0  0  0  0  0  0  0  0  0  0
    8.2393   -4.3588   25.3701 C   0  0  0  0  0  0  0  0  0  0  0  0
    8.4711   -5.7203   25.3251 C   0  0  0  0  0  0  0  0  0  0  0  0
    9.1411   -6.3899   26.2662 N   0  0  0  0  0  0  0  0  0  0  0  0
    9.5881   -5.6557   27.2793 C   0  0  0  0  0  0  0  0  0  0  0  0
    9.4377   -4.3461   27.4451 N   0  0  0  0  0  0  0  0  0  0  0  0
    8.7613   -3.7201   26.4787 C   0  0  0  0  0  0  0  0  0  0  0  0
    9.4289   -1.2041   23.2301 N   0  0  0  0  0  0  0  0  0  0  0  0
   10.5069   -0.2547   23.4953 C   0  0  0  0  0  0  0  0  0  0  0  0
   10.4572    0.8767   22.4636 C   0  0  0  0  0  0  0  0  0  0  0  0
   11.6287    1.7405   22.5368 N   0  0  0  0  0  0  0  0  0  0  0  0
   11.5408    3.0678   22.6191 C   0  0  0  0  0  0  0  0  0  0  0  0
   10.4652    3.6602   22.6393 O   0  0  0  0  0  0  0  0  0  0  0  0
   12.8588    3.8092   22.6869 C   0  0  0  0  0  0  0  0  0  0  0  0
   12.9751    4.7090   21.5075 C   0  0  0  0  0  0  0  0  0  0  0  0
   12.8702    5.2941   22.8596 C   0  0  0  0  0  0  0  0  0  0  0  0
   11.8594   -0.9394   23.4757 C   0  0  0  0  0  0  0  0  0  0  0  0
   12.6842   -0.9128   24.5915 C   0  0  0  0  0  0  0  0  0  0  0  0
   13.9211   -1.5356   24.5719 C   0  0  0  0  0  0  0  0  0  0  0  0
   14.3482   -2.1913   23.4371 C   0  0  0  0  0  0  0  0  0  0  0  0
   13.5397   -2.2244   22.3211 C   0  0  0  0  0  0  0  0  0  0  0  0
   12.3027   -1.6019   22.3396 C   0  0  0  0  0  0  0  0  0  0  0  0
  1  2  2  0
  2  3  1  0
  3  4  1  0
  4  5  1  0
  5  6  2  0
  6  7  1  0
  7  8  2  0
  8  9  1  0
  9 10  2  0
  2 11  1  0
 11 12  1  0
 12 13  1  0
 13 14  1  0
 14 15  1  0
 15 16  2  0
 15 17  1  0
 17 18  1  0
 18 19  1  0
 12 20  1  0
 20 21  2  0
 21 22  1  0
 22 23  2  0
 23 24  1  0
 24 25  2  0
 10  5  1  0
 19 17  1  0
 25 20  1  0
M  END
