CVD-0001015|dock_bobby27042020.39|mol2|33|dock3
     RDKit          3D

 24 26  0  0  0  0  0  0  0  0999 V2000
    8.6988    5.9974   22.4225 C   0  0  0  0  0  0  0  0  0  0  0  0
    9.4304    4.8238   22.7697 O   0  0  0  0  0  0  0  0  0  0  0  0
   10.7851    4.9236   22.9330 C   0  0  0  0  0  0  0  0  0  0  0  0
   11.4587    6.0568   23.3704 C   0  0  0  0  0  0  0  0  0  0  0  0
   12.8363    6.0222   23.4918 C   0  0  0  0  0  0  0  0  0  0  0  0
   13.5338    4.8747   23.1822 C   0  0  0  0  0  0  0  0  0  0  0  0
   12.8765    3.7359   22.7447 C   0  0  0  0  0  0  0  0  0  0  0  0
   11.4865    3.7522   22.6159 C   0  0  0  0  0  0  0  0  0  0  0  0
   10.6726    2.6731   22.1830 N   0  0  0  0  0  0  0  0  0  0  0  0
   10.7737    1.3324   22.4664 C   0  0  0  0  0  0  0  0  0  0  0  0
   11.6186    0.8752   23.2251 O   0  0  0  0  0  0  0  0  0  0  0  0
    9.8884    0.4773   21.8704 N   0  0  0  0  0  0  0  0  0  0  0  0
    8.5990    0.8547   21.2827 C   0  0  0  0  0  0  0  0  0  0  0  0
    7.4794    0.0106   21.8573 C   0  0  0  0  0  0  0  0  0  0  0  0
    7.7615   -1.4856   21.7402 C   0  0  0  0  0  0  0  0  0  0  0  0
    6.6857   -2.3474   22.4139 C   0  0  0  0  0  0  0  0  0  0  0  0
    6.9428   -3.8345   22.3691 C   0  0  0  0  0  0  0  0  0  0  0  0
    7.6160   -4.4699   23.4011 C   0  0  0  0  0  0  0  0  0  0  0  0
    7.8486   -5.8346   23.3613 C   0  0  0  0  0  0  0  0  0  0  0  0
    7.4094   -6.5807   22.2888 C   0  0  0  0  0  0  0  0  0  0  0  0
    6.7374   -5.9619   21.2567 C   0  0  0  0  0  0  0  0  0  0  0  0
    6.5053   -4.5972   21.2971 C   0  0  0  0  0  0  0  0  0  0  0  0
    9.1512   -1.7941   22.2823 C   0  0  0  0  0  0  0  0  0  0  0  0
   10.2225   -0.9266   21.6593 C   0  0  0  0  0  0  0  0  0  0  0  0
  1  2  1  0
  2  3  1  0
  3  4  2  0
  4  5  1  0
  5  6  2  0
  6  7  1  0
  7  8  2  0
  8  9  1  0
  9 10  1  0
 10 11  2  0
 10 12  1  0
 12 13  1  0
 13 14  1  0
 14 15  1  0
 15 16  1  0
 16 17  1  0
 17 18  2  0
 18 19  1  0
 19 20  2  0
 20 21  1  0
 21 22  2  0
 15 23  1  0
 23 24  1  0
  8  3  1  0
 24 12  1  0
 22 17  1  0
M  END
