CVD-0003709|dock_bobby27042020.87|mol2|8|dock1
     RDKit          3D

 30 34  0  0  0  0  0  0  0  0999 V2000
   12.3681    4.1819   21.9957 C   0  0  0  0  0  0  0  0  0  0  0  0
   11.7635    2.9502   22.6246 C   0  0  0  0  0  0  0  0  0  0  0  0
   11.8141    2.7566   23.9983 C   0  0  0  0  0  0  0  0  0  0  0  0
   11.2614    1.6341   24.5895 C   0  0  0  0  0  0  0  0  0  0  0  0
   10.6292    0.6541   23.8098 C   0  0  0  0  0  0  0  0  0  0  0  0
    9.9728   -0.5891   24.0806 C   0  0  0  0  0  0  0  0  0  0  0  0
    9.5542   -1.0934   22.8753 C   0  0  0  0  0  0  0  0  0  0  0  0
    9.9183   -0.2238   21.8680 N   0  0  0  0  0  0  0  0  0  0  0  0
   10.5802    0.8561   22.4223 C   0  0  0  0  0  0  0  0  0  0  0  0
   11.1396    1.9888   21.8411 C   0  0  0  0  0  0  0  0  0  0  0  0
    8.8508   -2.3028   22.5793 C   0  0  0  0  0  0  0  0  0  0  0  0
    9.0097   -3.4096   23.3159 N   0  0  0  0  0  0  0  0  0  0  0  0
    8.2003   -4.3563   22.7593 N   0  0  0  0  0  0  0  0  0  0  0  0
    7.5151   -3.8955   21.6755 C   0  0  0  0  0  0  0  0  0  0  0  0
    6.5982   -4.4785   20.8075 C   0  0  0  0  0  0  0  0  0  0  0  0
    6.0681   -3.7224   19.7750 C   0  0  0  0  0  0  0  0  0  0  0  0
    6.4423   -2.3922   19.5989 C   0  0  0  0  0  0  0  0  0  0  0  0
    5.8965   -1.6092   18.5338 N   0  0  0  0  0  0  0  0  0  0  0  0
    6.2790   -0.0469   18.2557 S   0  0  0  0  0  0  0  0  0  0  0  0
    7.7070    0.0214   18.1916 O   0  0  0  0  0  0  0  0  0  0  0  0
    5.4993    0.3768   17.1331 O   0  0  0  0  0  0  0  0  0  0  0  0
    5.7530    0.8677   19.6652 C   0  0  0  0  0  0  0  0  0  0  0  0
    4.4098    0.8941   20.0043 C   0  0  0  0  0  0  0  0  0  0  0  0
    4.0049    1.6202   21.1119 C   0  0  0  0  0  0  0  0  0  0  0  0
    4.9303    2.3142   21.8729 C   0  0  0  0  0  0  0  0  0  0  0  0
    6.2456    2.2613   21.4995 C   0  0  0  0  0  0  0  0  0  0  0  0
    7.1576    2.9425   22.2444 F   0  0  0  0  0  0  0  0  0  0  0  0
    6.6976    1.5565   20.4109 C   0  0  0  0  0  0  0  0  0  0  0  0
    7.3594   -1.8094   20.4675 C   0  0  0  0  0  0  0  0  0  0  0  0
    7.9026   -2.5549   21.5112 C   0  0  0  0  0  0  0  0  0  0  0  0
  1  2  1  0
  2  3  2  0
  3  4  1  0
  4  5  2  0
  5  6  1  0
  6  7  2  0
  7  8  1  0
  8  9  1  0
  9 10  2  0
  7 11  1  0
 11 12  2  0
 12 13  1  0
 13 14  1  0
 14 15  2  0
 15 16  1  0
 16 17  2  0
 17 18  1  0
 18 19  1  0
 19 20  2  0
 19 21  2  0
 19 22  1  0
 22 23  2  0
 23 24  1  0
 24 25  2  0
 25 26  1  0
 26 27  1  0
 26 28  2  0
 17 29  1  0
 29 30  2  0
 10  2  1  0
 30 11  1  0
  9  5  1  0
 30 14  1  0
 28 22  1  0
M  END
