CVD-0001937|dock_bobby27042020.79|mol2|22|dock1
     RDKit          3D

 23 24  0  0  0  0  0  0  0  0999 V2000
   14.1174    6.3952   22.1178 C   0  0  0  0  0  0  0  0  0  0  0  0
   13.7112    5.0394   22.4972 N   0  0  0  0  0  0  0  0  0  0  0  0
   12.3367    4.6902   22.1227 C   0  0  0  0  0  0  0  0  0  0  0  0
   12.0204    3.2527   22.4419 C   0  0  0  0  0  0  0  0  0  0  0  0
   12.9586    2.2399   22.6990 C   0  0  0  0  0  0  0  0  0  0  0  0
   12.2902    1.0564   22.9505 C   0  0  0  0  0  0  0  0  0  0  0  0
   12.9579   -0.2324   23.2643 C   0  0  0  0  0  0  0  0  0  0  0  0
   13.4751   -0.3468   24.5564 C   0  0  0  0  0  0  0  0  0  0  0  0
   14.1616   -1.4798   24.9589 C   0  0  0  0  0  0  0  0  0  0  0  0
   14.3451   -2.5281   24.0864 C   0  0  0  0  0  0  0  0  0  0  0  0
   13.8168   -2.4624   22.8101 C   0  0  0  0  0  0  0  0  0  0  0  0
   13.1178   -1.3386   22.4368 C   0  0  0  0  0  0  0  0  0  0  0  0
   12.5675   -1.3672   21.2044 F   0  0  0  0  0  0  0  0  0  0  0  0
   10.9305    1.3233   22.8361 N   0  0  0  0  0  0  0  0  0  0  0  0
    9.7554    0.4450   22.9519 C   0  0  0  0  0  0  0  0  0  0  0  0
    9.2680   -0.0842   21.6044 C   0  0  0  0  0  0  0  0  0  0  0  0
    7.8662   -0.6085   21.6220 C   0  0  0  0  0  0  0  0  0  0  0  0
    6.8303   -0.0442   21.0336 C   0  0  0  0  0  0  0  0  0  0  0  0
    5.4293   -0.5532   21.0419 C   0  0  0  0  0  0  0  0  0  0  0  0
    4.8049   -0.2967   19.7776 O   0  0  0  0  0  0  0  0  0  0  0  0
    5.3657   -0.8534   18.7189 C   0  0  0  0  0  0  0  0  0  0  0  0
    6.3007   -1.6370   18.7369 O   0  0  0  0  0  0  0  0  0  0  0  0
   10.7785    2.6441   22.5297 C   0  0  0  0  0  0  0  0  0  0  0  0
  1  2  1  0
  2  3  1  0
  3  4  1  0
  4  5  1  0
  5  6  2  0
  6  7  1  0
  7  8  2  0
  8  9  1  0
  9 10  2  0
 10 11  1  0
 11 12  2  0
 12 13  1  0
  6 14  1  0
 14 15  1  0
 15 16  1  0
 16 17  1  0
 17 18  2  0
 18 19  1  0
 19 20  1  0
 20 21  1  0
 21 22  2  0
 14 23  1  0
 23  4  2  0
 12  7  1  0
M  END
