CVD-0003100|dock_bobby27042020.17|mol2|29|dock3
     RDKit          3D

 18 19  0  0  0  0  0  0  0  0999 V2000
    8.0561    0.6471   21.9133 O   0  0  0  0  0  0  0  0  0  0  0  0
    8.4508   -0.0341   20.9746 C   0  0  0  0  0  0  0  0  0  0  0  0
    9.5759   -0.7594   21.1096 N   0  0  0  0  0  0  0  0  0  0  0  0
   10.2901   -0.7651   22.3777 C   0  0  0  0  0  0  0  0  0  0  0  0
   11.2415    0.3960   22.5208 C   0  0  0  0  0  0  0  0  0  0  0  0
   12.6063    0.1986   22.6516 C   0  0  0  0  0  0  0  0  0  0  0  0
   13.4278    1.3033   22.7828 C   0  0  0  0  0  0  0  0  0  0  0  0
   12.8720    2.5775   22.7814 C   0  0  0  0  0  0  0  0  0  0  0  0
   11.4904    2.6750   22.6460 C   0  0  0  0  0  0  0  0  0  0  0  0
   10.6842    1.6150   22.5185 N   0  0  0  0  0  0  0  0  0  0  0  0
   13.6957    3.7535   22.9155 C   0  0  0  0  0  0  0  0  0  0  0  0
   14.3516    4.6785   23.0542 N   0  0  0  0  0  0  0  0  0  0  0  0
    7.7444   -0.0505   19.8036 N   0  0  0  0  0  0  0  0  0  0  0  0
    6.7889    1.0008   19.4352 C   0  0  0  0  0  0  0  0  0  0  0  0
    5.5080    0.3763   18.9205 C   0  0  0  0  0  0  0  0  0  0  0  0
    5.7463   -0.5035   17.8404 O   0  0  0  0  0  0  0  0  0  0  0  0
    6.6205   -1.5566   18.2473 C   0  0  0  0  0  0  0  0  0  0  0  0
    7.9516   -1.0137   18.7179 C   0  0  0  0  0  0  0  0  0  0  0  0
  1  2  2  0
  2  3  1  0
  3  4  1  0
  4  5  1  0
  5  6  2  0
  6  7  1  0
  7  8  2  0
  8  9  1  0
  9 10  2  0
  8 11  1  0
 11 12  3  0
  2 13  1  0
 13 14  1  0
 14 15  1  0
 15 16  1  0
 16 17  1  0
 17 18  1  0
 10  5  1  0
 18 13  1  0
M  END
