CVD-0003138|dock_bobby27042020.46|mol2|15|dock2
     RDKit          3D

 17 19  0  0  0  0  0  0  0  0999 V2000
   11.0404   -0.8309   24.9376 O   0  0  0  0  0  0  0  0  0  0  0  0
   11.0224   -0.7569   23.5062 C   0  0  0  0  0  0  0  0  0  0  0  0
   10.9459    0.6828   23.0191 C   0  0  0  0  0  0  0  0  0  0  0  0
   12.3380    1.1766   23.1017 N   0  0  0  0  0  0  0  0  0  0  0  0
   13.3021    0.0481   22.9707 C   0  0  0  0  0  0  0  0  0  0  0  0
   12.3754   -1.1467   22.9481 C   0  0  0  0  0  0  0  0  0  0  0  0
   12.9386   -2.5418   23.0913 C   0  0  0  0  0  0  0  0  0  0  0  0
   12.4695   -2.0649   21.7491 C   0  0  0  0  0  0  0  0  0  0  0  0
   12.6863    2.4605   22.7592 C   0  0  0  0  0  0  0  0  0  0  0  0
   11.7222    3.4099   22.4523 C   0  0  0  0  0  0  0  0  0  0  0  0
   12.1677    4.6756   22.1190 C   0  0  0  0  0  0  0  0  0  0  0  0
   13.5393    4.9111   22.1134 C   0  0  0  0  0  0  0  0  0  0  0  0
   14.4105    3.9385   22.4227 N   0  0  0  0  0  0  0  0  0  0  0  0
   13.9790    2.7158   22.7446 N   0  0  0  0  0  0  0  0  0  0  0  0
   14.1862    6.2337   21.7730 C   0  0  0  0  0  0  0  0  0  0  0  0
   13.6202    7.0227   20.8909 O   0  0  0  0  0  0  0  0  0  0  0  0
   15.2267    6.5480   22.3245 O   0  0  0  0  0  0  0  0  0  0  0  0
  2  1  1  0
  2  3  1  0
  3  4  1  0
  4  5  1  0
  5  6  1  0
  6  7  1  0
  7  8  1  0
  4  9  1  0
  9 10  2  0
 10 11  1  0
 11 12  2  0
 12 13  1  0
 13 14  2  0
 12 15  1  0
 15 16  1  0
 15 17  2  0
  6  2  1  0
  8  6  1  0
 14  9  1  0
M  END
