CVD-0001032|dock_bobby27042020.82|mol2|22|dock2
     RDKit          3D

 38 42  0  0  0  0  0  0  0  0999 V2000
   13.4964   13.2015   27.9005 C   0  0  0  0  0  0  0  0  0  0  0  0
   13.4833   11.8660   28.4013 O   0  0  0  0  0  0  0  0  0  0  0  0
   13.3280   10.8057   27.5434 C   0  0  0  0  0  0  0  0  0  0  0  0
   13.6875   10.8858   26.2081 C   0  0  0  0  0  0  0  0  0  0  0  0
   13.5093    9.7870   25.3880 C   0  0  0  0  0  0  0  0  0  0  0  0
   12.9754    8.5865   25.8578 C   0  0  0  0  0  0  0  0  0  0  0  0
   12.8523    7.5121   24.8501 C   0  0  0  0  0  0  0  0  0  0  0  0
   13.5404    7.4405   23.7468 N   0  0  0  0  0  0  0  0  0  0  0  0
   13.0914    6.2792   23.1274 C   0  0  0  0  0  0  0  0  0  0  0  0
   13.4379    5.6624   21.9279 C   0  0  0  0  0  0  0  0  0  0  0  0
   12.8051    4.4834   21.5627 C   0  0  0  0  0  0  0  0  0  0  0  0
   11.8271    3.9043   22.3759 C   0  0  0  0  0  0  0  0  0  0  0  0
   11.1545    2.7017   22.0436 N   0  0  0  0  0  0  0  0  0  0  0  0
    9.9004    2.2688   22.3248 C   0  0  0  0  0  0  0  0  0  0  0  0
    9.0539    2.8837   22.9665 O   0  0  0  0  0  0  0  0  0  0  0  0
    9.5961    0.8969   21.7620 C   0  0  0  0  0  0  0  0  0  0  0  0
    8.0947    0.6973   21.5966 C   0  0  0  0  0  0  0  0  0  0  0  0
    7.7971   -0.6915   21.0697 C   0  0  0  0  0  0  0  0  0  0  0  0
    8.3567   -1.6967   21.9694 N   0  0  0  0  0  0  0  0  0  0  0  0
    9.8033   -1.5784   22.1170 C   0  0  0  0  0  0  0  0  0  0  0  0
   10.1607   -0.1997   22.6622 C   0  0  0  0  0  0  0  0  0  0  0  0
    7.7164   -2.8049   22.4119 C   0  0  0  0  0  0  0  0  0  0  0  0
    6.5819   -3.0323   22.0277 O   0  0  0  0  0  0  0  0  0  0  0  0
    8.2931   -3.8066   23.3773 C   0  0  0  0  0  0  0  0  0  0  0  0
    8.4614   -5.1688   23.1213 C   0  0  0  0  0  0  0  0  0  0  0  0
    9.0399   -6.0079   24.0575 C   0  0  0  0  0  0  0  0  0  0  0  0
    9.4319   -5.5080   25.2871 C   0  0  0  0  0  0  0  0  0  0  0  0
    9.2419   -4.1687   25.5779 C   0  0  0  0  0  0  0  0  0  0  0  0
    8.6775   -3.3341   24.6300 C   0  0  0  0  0  0  0  0  0  0  0  0
   10.0465   -6.3972   26.2814 N   0  0  0  0  0  0  0  0  0  0  0  0
   10.1881   -7.5820   25.9857 O   0  0  0  0  0  0  0  0  0  0  0  0
   10.3845   -5.9138   27.3486 O   0  0  0  0  0  0  0  0  0  0  0  0
   11.4847    4.5257   23.5743 C   0  0  0  0  0  0  0  0  0  0  0  0
   12.1302    5.6981   23.9135 C   0  0  0  0  0  0  0  0  0  0  0  0
   11.9604    6.4825   25.0359 O   0  0  0  0  0  0  0  0  0  0  0  0
   12.6218    8.5350   27.2090 C   0  0  0  0  0  0  0  0  0  0  0  0
   11.8811    7.0021   28.0463 Br  0  0  0  0  0  0  0  0  0  0  0  0
   12.7954    9.6280   28.0391 C   0  0  0  0  0  0  0  0  0  0  0  0
  1  2  1  0
  2  3  1  0
  3  4  2  0
  4  5  1  0
  5  6  2  0
  6  7  1  0
  7  8  2  0
  8  9  1  0
  9 10  2  0
 10 11  1  0
 11 12  2  0
 12 13  1  0
 13 14  1  0
 14 15  2  0
 14 16  1  0
 16 17  1  0
 17 18  1  0
 18 19  1  0
 19 20  1  0
 20 21  1  0
 19 22  1  0
 22 23  2  0
 22 24  1  0
 24 25  2  0
 25 26  1  0
 26 27  2  0
 27 28  1  0
 28 29  2  0
 27 30  1  0
 30 31  1  0
 30 32  2  0
 12 33  1  0
 33 34  2  0
 34 35  1  0
  6 36  1  0
 36 37  1  0
 36 38  2  0
 38  3  1  0
 35  7  1  0
 34  9  1  0
 21 16  1  0
 29 24  1  0
M  CHG  2  30   1  31  -1
M  END
