CVD-0000985|dock_bobby27042020.39|mol2|38|dock3
     RDKit          3D

 36 40  0  0  0  0  0  0  0  0999 V2000
   13.5648    9.2230   24.8120 C   0  0  0  0  0  0  0  0  0  0  0  0
   13.7178    8.4339   23.6339 O   0  0  0  0  0  0  0  0  0  0  0  0
   13.4169    7.0947   23.6543 C   0  0  0  0  0  0  0  0  0  0  0  0
   13.8543    6.3091   22.6016 C   0  0  0  0  0  0  0  0  0  0  0  0
   13.5734    4.9548   22.5819 C   0  0  0  0  0  0  0  0  0  0  0  0
   12.8519    4.3646   23.6119 C   0  0  0  0  0  0  0  0  0  0  0  0
   12.4180    5.1631   24.6630 C   0  0  0  0  0  0  0  0  0  0  0  0
   12.6949    6.5186   24.6902 C   0  0  0  0  0  0  0  0  0  0  0  0
   12.5534    2.9240   23.5901 C   0  0  0  0  0  0  0  0  0  0  0  0
   13.0548    2.0326   22.7857 N   0  0  0  0  0  0  0  0  0  0  0  0
   12.4505    0.8435   23.1804 C   0  0  0  0  0  0  0  0  0  0  0  0
   12.5664   -0.4639   22.7149 C   0  0  0  0  0  0  0  0  0  0  0  0
   11.8230   -1.4683   23.3166 C   0  0  0  0  0  0  0  0  0  0  0  0
   10.9604   -1.1924   24.3811 C   0  0  0  0  0  0  0  0  0  0  0  0
   10.1820   -2.1860   25.0262 N   0  0  0  0  0  0  0  0  0  0  0  0
   10.2359   -3.5401   24.9754 C   0  0  0  0  0  0  0  0  0  0  0  0
   11.0270   -4.2044   24.3126 O   0  0  0  0  0  0  0  0  0  0  0  0
    9.1949   -4.2174   25.8407 C   0  0  0  0  0  0  0  0  0  0  0  0
    7.7752   -4.0197   25.3151 C   0  0  0  0  0  0  0  0  0  0  0  0
    6.7884   -4.6770   26.2643 C   0  0  0  0  0  0  0  0  0  0  0  0
    7.0578   -6.1060   26.3870 N   0  0  0  0  0  0  0  0  0  0  0  0
    6.0443   -6.7546   27.2314 C   0  0  0  0  0  0  0  0  0  0  0  0
    6.1131   -6.3359   28.6808 C   0  0  0  0  0  0  0  0  0  0  0  0
    5.4839   -5.1790   29.1154 C   0  0  0  0  0  0  0  0  0  0  0  0
    5.5460   -4.7868   30.4408 C   0  0  0  0  0  0  0  0  0  0  0  0
    6.2482   -5.5590   31.3517 C   0  0  0  0  0  0  0  0  0  0  0  0
    6.8843   -6.7167   30.9345 C   0  0  0  0  0  0  0  0  0  0  0  0
    6.8131   -7.0960   29.6058 C   0  0  0  0  0  0  0  0  0  0  0  0
    6.3185   -5.1497   32.7606 N   0  0  0  0  0  0  0  0  0  0  0  0
    6.6670   -5.9895   33.5880 O   0  0  0  0  0  0  0  0  0  0  0  0
    6.0276   -3.9981   33.0361 O   0  0  0  0  0  0  0  0  0  0  0  0
    8.3987   -6.2860   26.9543 C   0  0  0  0  0  0  0  0  0  0  0  0
    9.4655   -5.7013   26.0416 C   0  0  0  0  0  0  0  0  0  0  0  0
   10.8482    0.1166   24.8428 C   0  0  0  0  0  0  0  0  0  0  0  0
   11.5991    1.0976   24.2263 C   0  0  0  0  0  0  0  0  0  0  0  0
   11.6505    2.4472   24.5099 O   0  0  0  0  0  0  0  0  0  0  0  0
  1  2  1  0
  2  3  1  0
  3  4  2  0
  4  5  1  0
  5  6  2  0
  6  7  1  0
  7  8  2  0
  6  9  1  0
  9 10  2  0
 10 11  1  0
 11 12  2  0
 12 13  1  0
 13 14  2  0
 14 15  1  0
 15 16  1  0
 16 17  2  0
 16 18  1  0
 18 19  1  0
 19 20  1  0
 20 21  1  0
 21 22  1  0
 22 23  1  0
 23 24  2  0
 24 25  1  0
 25 26  2  0
 26 27  1  0
 27 28  2  0
 26 29  1  0
 29 30  1  0
 29 31  2  0
 21 32  1  0
 32 33  1  0
 14 34  1  0
 34 35  2  0
 35 36  1  0
  8  3  1  0
 36  9  1  0
 35 11  1  0
 33 18  1  0
 28 23  1  0
M  CHG  2  29   1  30  -1
M  END
