CVD-0004026|dock_bobby27042020.72|mol2|4|dock1
     RDKit          3D

 20 22  0  0  0  0  0  0  0  0999 V2000
    5.3965   -3.1611   20.0369 O   0  0  0  0  0  0  0  0  0  0  0  0
    6.1040   -2.1998   20.2840 C   0  0  0  0  0  0  0  0  0  0  0  0
    7.1435   -2.3764   21.1291 N   0  0  0  0  0  0  0  0  0  0  0  0
    7.3629   -3.7452   21.7114 C   0  0  0  0  0  0  0  0  0  0  0  0
    8.5929   -3.5589   22.5741 C   0  0  0  0  0  0  0  0  0  0  0  0
    9.0866   -2.1674   22.5135 C   0  0  0  0  0  0  0  0  0  0  0  0
    8.1307   -1.3704   21.6159 C   0  0  0  0  0  0  0  0  0  0  0  0
   10.4497   -2.0770   22.0003 N   0  0  0  0  0  0  0  0  0  0  0  0
   11.5700   -1.9367   22.8146 C   0  0  0  0  0  0  0  0  0  0  0  0
   11.7810   -2.7842   23.8970 C   0  0  0  0  0  0  0  0  0  0  0  0
   12.9018   -2.6261   24.6952 C   0  0  0  0  0  0  0  0  0  0  0  0
   13.8161   -1.6311   24.4242 C   0  0  0  0  0  0  0  0  0  0  0  0
   13.6144   -0.7884   23.3528 C   0  0  0  0  0  0  0  0  0  0  0  0
   12.4973   -0.9364   22.5479 C   0  0  0  0  0  0  0  0  0  0  0  0
    5.7297   -0.9012   19.6196 C   0  0  0  0  0  0  0  0  0  0  0  0
    5.2182    0.1066   20.4337 C   0  0  0  0  0  0  0  0  0  0  0  0
    4.8693    1.3425   19.9165 C   0  0  0  0  0  0  0  0  0  0  0  0
    5.0220    1.5997   18.5729 C   0  0  0  0  0  0  0  0  0  0  0  0
    5.5086    0.6127   17.7454 C   0  0  0  0  0  0  0  0  0  0  0  0
    5.8457   -0.6305   18.2550 C   0  0  0  0  0  0  0  0  0  0  0  0
  1  2  2  0
  2  3  1  0
  3  4  1  0
  4  5  1  0
  5  6  1  0
  6  7  1  0
  6  8  1  0
  8  9  1  0
  9 10  2  0
 10 11  1  0
 11 12  2  0
 12 13  1  0
 13 14  2  0
  2 15  1  0
 15 16  2  0
 16 17  1  0
 17 18  2  0
 18 19  1  0
 19 20  2  0
  7  3  1  0
 14  9  1  0
 20 15  1  0
M  END
