CVD-0001122|dock_bobby27042020.96|mol2|21|dock3
     RDKit          3D

 23 24  0  0  0  0  0  0  0  0999 V2000
    3.5148    1.9986   20.3516 C   0  0  0  0  0  0  0  0  0  0  0  0
    4.2324    1.6336   19.0854 C   0  0  0  0  0  0  0  0  0  0  0  0
    4.4982    2.4681   18.2260 O   0  0  0  0  0  0  0  0  0  0  0  0
    4.5501    0.3456   18.9406 N   0  0  0  0  0  0  0  0  0  0  0  0
    5.2317   -0.1668   17.7607 C   0  0  0  0  0  0  0  0  0  0  0  0
    6.0028   -1.4369   18.0600 C   0  0  0  0  0  0  0  0  0  0  0  0
    7.0207   -1.2624   19.1488 C   0  0  0  0  0  0  0  0  0  0  0  0
    7.8270   -0.1830   19.3636 C   0  0  0  0  0  0  0  0  0  0  0  0
    8.6254   -0.3915   20.4554 N   0  0  0  0  0  0  0  0  0  0  0  0
    8.3413   -1.6316   20.9718 C   0  0  0  0  0  0  0  0  0  0  0  0
    8.8920   -2.2858   22.0769 C   0  0  0  0  0  0  0  0  0  0  0  0
    9.9750   -1.6505   22.9202 C   0  0  0  0  0  0  0  0  0  0  0  0
   11.3050   -2.3727   22.8013 C   0  0  0  0  0  0  0  0  0  0  0  0
   12.0585   -1.8826   21.6408 N   0  0  0  0  0  0  0  0  0  0  0  0
   13.6198   -1.5510   21.7916 S   0  0  0  0  0  0  0  0  0  0  0  0
   13.7578    0.0232   22.5463 C   0  0  0  0  0  0  0  0  0  0  0  0
   14.1699   -2.5219   22.6863 O   0  0  0  0  0  0  0  0  0  0  0  0
   14.1580   -1.4581   20.4696 O   0  0  0  0  0  0  0  0  0  0  0  0
    8.4174   -3.5559   22.3845 C   0  0  0  0  0  0  0  0  0  0  0  0
    7.4342   -4.1104   21.5983 C   0  0  0  0  0  0  0  0  0  0  0  0
    6.9862   -5.3537   21.9205 F   0  0  0  0  0  0  0  0  0  0  0  0
    6.8754   -3.4868   20.5065 C   0  0  0  0  0  0  0  0  0  0  0  0
    7.3362   -2.2122   20.1773 C   0  0  0  0  0  0  0  0  0  0  0  0
  1  2  1  0
  2  3  2  0
  2  4  1  0
  4  5  1  0
  5  6  1  0
  6  7  1  0
  7  8  2  0
  8  9  1  0
  9 10  1  0
 10 11  2  0
 11 12  1  0
 12 13  1  0
 13 14  1  0
 14 15  1  0
 15 16  1  0
 15 17  2  0
 15 18  2  0
 11 19  1  0
 19 20  2  0
 20 21  1  0
 20 22  1  0
 22 23  2  0
 23  7  1  0
 23 10  1  0
M  END
