CVD-0000183|dock_bobby27042020.28|mol2|13|dock1
     RDKit          3D

 28 31  0  0  0  0  0  0  0  0999 V2000
   10.0408   -0.7569   26.2419 F   0  0  0  0  0  0  0  0  0  0  0  0
    9.9943   -1.1816   24.9504 C   0  0  0  0  0  0  0  0  0  0  0  0
   11.0092   -0.7910   24.1092 C   0  0  0  0  0  0  0  0  0  0  0  0
   10.9833   -1.2131   22.7823 C   0  0  0  0  0  0  0  0  0  0  0  0
   11.9605   -0.8646   21.8825 N   0  0  0  0  0  0  0  0  0  0  0  0
   13.1516   -0.1335   22.2675 C   0  0  0  0  0  0  0  0  0  0  0  0
   12.9194    1.3426   22.4827 C   0  0  0  0  0  0  0  0  0  0  0  0
   11.6316    1.8620   22.4675 C   0  0  0  0  0  0  0  0  0  0  0  0
   11.3936    3.2121   22.6591 C   0  0  0  0  0  0  0  0  0  0  0  0
   12.4802    4.0523   22.8691 C   0  0  0  0  0  0  0  0  0  0  0  0
   12.5747    5.4048   23.0859 N   0  0  0  0  0  0  0  0  0  0  0  0
   13.8901    5.6729   23.2238 C   0  0  0  0  0  0  0  0  0  0  0  0
   14.6634    4.6112   23.1158 N   0  0  0  0  0  0  0  0  0  0  0  0
   13.7821    3.5576   22.8880 C   0  0  0  0  0  0  0  0  0  0  0  0
   13.9984    2.1948   22.6928 C   0  0  0  0  0  0  0  0  0  0  0  0
    9.9167   -2.0215   22.3666 C   0  0  0  0  0  0  0  0  0  0  0  0
    9.6396   -2.5739   21.1399 N   0  0  0  0  0  0  0  0  0  0  0  0
    8.4766   -3.2883   21.2324 C   0  0  0  0  0  0  0  0  0  0  0  0
    7.9765   -3.2200   22.4991 C   0  0  0  0  0  0  0  0  0  0  0  0
    6.7234   -3.8609   23.0196 C   0  0  0  0  0  0  0  0  0  0  0  0
    5.6857   -4.0957   21.9400 C   0  0  0  0  0  0  0  0  0  0  0  0
    5.4998   -2.9206   21.1009 N   0  0  0  0  0  0  0  0  0  0  0  0
    5.6067   -2.9844   19.7682 C   0  0  0  0  0  0  0  0  0  0  0  0
    5.8699   -4.0582   19.2084 O   0  0  0  0  0  0  0  0  0  0  0  0
    5.4042   -1.7449   18.9752 C   0  0  0  0  0  0  0  0  0  0  0  0
    5.7124   -1.5925   17.7121 C   0  0  0  0  0  0  0  0  0  0  0  0
    8.8900   -2.4068   23.2499 C   0  0  0  0  0  0  0  0  0  0  0  0
    8.9362   -1.9725   24.5729 C   0  0  0  0  0  0  0  0  0  0  0  0
  1  2  1  0
  2  3  2  0
  3  4  1  0
  4  5  1  0
  5  6  1  0
  6  7  1  0
  7  8  2  0
  8  9  1  0
  9 10  2  0
 10 11  1  0
 11 12  1  0
 12 13  2  0
 13 14  1  0
 14 15  2  0
  4 16  2  0
 16 17  1  0
 17 18  1  0
 18 19  2  0
 19 20  1  0
 20 21  1  0
 21 22  1  0
 22 23  1  0
 23 24  2  0
 23 25  1  0
 25 26  2  0
 19 27  1  0
 27 28  2  0
 28  2  1  0
 15  7  1  0
 27 16  1  0
 14 10  1  0
M  END
