CVD-0000980|dock_bobby27042020.25|mol2|27|dock1
     RDKit          3D

 28 31  0  0  0  0  0  0  0  0999 V2000
   12.6536    6.8774   24.8827 C   0  0  0  0  0  0  0  0  0  0  0  0
   12.3353    5.6447   24.0721 C   0  0  0  0  0  0  0  0  0  0  0  0
   11.0322    5.3421   23.7106 C   0  0  0  0  0  0  0  0  0  0  0  0
   10.7384    4.2143   22.9651 C   0  0  0  0  0  0  0  0  0  0  0  0
   11.7426    3.3509   22.5566 C   0  0  0  0  0  0  0  0  0  0  0  0
   11.4248    2.1212   21.7403 C   0  0  0  0  0  0  0  0  0  0  0  0
   11.5243    0.8768   22.5153 N   0  0  0  0  0  0  0  0  0  0  0  0
   11.2972   -0.2829   21.6589 C   0  0  0  0  0  0  0  0  0  0  0  0
   11.4947   -1.5746   22.4333 C   0  0  0  0  0  0  0  0  0  0  0  0
   10.5170   -1.6191   23.6052 C   0  0  0  0  0  0  0  0  0  0  0  0
   10.6937   -0.3787   24.4682 C   0  0  0  0  0  0  0  0  0  0  0  0
   10.5381    0.8612   23.6013 C   0  0  0  0  0  0  0  0  0  0  0  0
   10.6141   -2.9082   24.3968 C   0  0  0  0  0  0  0  0  0  0  0  0
   11.4867   -3.7302   24.1297 O   0  0  0  0  0  0  0  0  0  0  0  0
    9.7256   -3.1409   25.4100 N   0  0  0  0  0  0  0  0  0  0  0  0
    9.5488   -4.1737   26.2951 C   0  0  0  0  0  0  0  0  0  0  0  0
   10.4532   -4.7235   27.0510 N   0  0  0  0  0  0  0  0  0  0  0  0
    9.8164   -5.7252   27.7808 N   0  0  0  0  0  0  0  0  0  0  0  0
    8.5823   -5.7078   27.4175 C   0  0  0  0  0  0  0  0  0  0  0  0
    8.3316   -4.7510   26.4781 O   0  0  0  0  0  0  0  0  0  0  0  0
    7.4812   -6.5673   27.8879 C   0  0  0  0  0  0  0  0  0  0  0  0
    6.2563   -6.5542   27.2347 C   0  0  0  0  0  0  0  0  0  0  0  0
    5.2520   -7.3781   27.7124 C   0  0  0  0  0  0  0  0  0  0  0  0
    5.4915   -8.1782   28.8084 C   0  0  0  0  0  0  0  0  0  0  0  0
    6.7371   -8.1253   29.3922 C   0  0  0  0  0  0  0  0  0  0  0  0
    7.7310   -7.3399   28.9560 N   0  0  0  0  0  0  0  0  0  0  0  0
   13.0475    3.6515   22.9138 C   0  0  0  0  0  0  0  0  0  0  0  0
   13.3369    4.7805   23.6595 C   0  0  0  0  0  0  0  0  0  0  0  0
  1  2  1  0
  2  3  2  0
  3  4  1  0
  4  5  2  0
  5  6  1  0
  6  7  1  0
  7  8  1  0
  8  9  1  0
  9 10  1  0
 10 11  1  0
 11 12  1  0
 10 13  1  0
 13 14  2  0
 13 15  1  0
 15 16  1  0
 16 17  2  0
 17 18  1  0
 18 19  2  0
 19 20  1  0
 19 21  1  0
 21 22  2  0
 22 23  1  0
 23 24  2  0
 24 25  1  0
 25 26  2  0
  5 27  1  0
 27 28  2  0
 28  2  1  0
 12  7  1  0
 20 16  1  0
 26 21  1  0
M  END
