CVD-0002700|dock_bobby27042020.47|mol2|34|dock2
     RDKit          3D

 35 38  0  0  0  0  0  0  0  0999 V2000
    7.1694   -6.1135   28.2572 C   0  0  0  0  0  0  0  0  0  0  0  0
    7.9731   -6.0740   27.0367 N   0  0  0  0  0  0  0  0  0  0  0  0
    9.2773   -5.4594   27.3012 C   0  0  0  0  0  0  0  0  0  0  0  0
   10.1227   -5.4582   26.0412 C   0  0  0  0  0  0  0  0  0  0  0  0
    9.4351   -4.7422   24.9644 N   0  0  0  0  0  0  0  0  0  0  0  0
    8.1004   -5.2961   24.7157 C   0  0  0  0  0  0  0  0  0  0  0  0
    7.2880   -5.3095   25.9977 C   0  0  0  0  0  0  0  0  0  0  0  0
   10.0016   -3.7208   24.2853 C   0  0  0  0  0  0  0  0  0  0  0  0
   11.1378   -3.3437   24.5416 O   0  0  0  0  0  0  0  0  0  0  0  0
    9.2071   -3.0422   23.1667 C   0  0  0  0  0  0  0  0  0  0  0  0
    9.9067   -1.8243   22.7163 N   0  0  0  0  0  0  0  0  0  0  0  0
    9.5562   -1.5042   21.3205 C   0  0  0  0  0  0  0  0  0  0  0  0
    8.0684   -1.1510   21.0346 C   0  0  0  0  0  0  0  0  0  0  0  0
    7.9324    0.1455   20.2682 C   0  0  0  0  0  0  0  0  0  0  0  0
    7.3245    0.0164   19.1031 N   0  0  0  0  0  0  0  0  0  0  0  0
    7.0269   -1.3330   18.9830 C   0  0  0  0  0  0  0  0  0  0  0  0
    7.3871   -2.0780   20.0387 C   0  0  0  0  0  0  0  0  0  0  0  0
    7.1775   -3.5496   20.2488 C   0  0  0  0  0  0  0  0  0  0  0  0
    9.7905   -0.6787   23.5527 C   0  0  0  0  0  0  0  0  0  0  0  0
   10.2137   -0.9469   24.8331 O   0  0  0  0  0  0  0  0  0  0  0  0
   10.4514    0.4525   23.0069 N   0  0  0  0  0  0  0  0  0  0  0  0
   11.8276    0.5682   23.4586 C   0  0  0  0  0  0  0  0  0  0  0  0
   12.5606    1.6426   22.6798 C   0  0  0  0  0  0  0  0  0  0  0  0
   11.8464    2.9281   22.7556 N   0  0  0  0  0  0  0  0  0  0  0  0
   10.4189    2.8194   22.4630 C   0  0  0  0  0  0  0  0  0  0  0  0
    9.7740    1.7196   23.2506 C   0  0  0  0  0  0  0  0  0  0  0  0
   12.5177    4.1764   22.8078 C   0  0  0  0  0  0  0  0  0  0  0  0
   13.2688    4.5608   21.6977 C   0  0  0  0  0  0  0  0  0  0  0  0
   14.0829    5.6777   21.7640 C   0  0  0  0  0  0  0  0  0  0  0  0
   14.1629    6.4216   22.9182 C   0  0  0  0  0  0  0  0  0  0  0  0
   13.3667    6.1137   24.0057 C   0  0  0  0  0  0  0  0  0  0  0  0
   12.4808    5.0420   23.9260 C   0  0  0  0  0  0  0  0  0  0  0  0
   11.5498    4.9102   25.0203 N   0  0  0  0  0  0  0  0  0  0  0  0
   10.7298    4.0491   25.1013 O   0  0  0  0  0  0  0  0  0  0  0  0
   11.3995    5.7766   25.8265 O   0  0  0  0  0  0  0  0  0  0  0  0
  1  2  1  0
  2  3  1  0
  3  4  1  0
  4  5  1  0
  5  6  1  0
  6  7  1  0
  5  8  1  0
  8  9  2  0
  8 10  1  0
 10 11  1  0
 11 12  1  0
 12 13  1  0
 13 14  1  0
 14 15  2  0
 15 16  1  0
 16 17  2  0
 17 18  1  0
 11 19  1  0
 19 20  1  0
 19 21  1  0
 21 22  1  0
 22 23  1  0
 23 24  1  0
 24 25  1  0
 25 26  1  0
 24 27  1  0
 27 28  2  0
 28 29  1  0
 29 30  2  0
 30 31  1  0
 31 32  2  0
 32 33  1  0
 33 34  1  0
 33 35  1  0
  7  2  1  0
 17 13  1  0
 26 21  1  0
 32 27  1  0
M  END
