CVD-0002889|dock_bobby27042020.89|mol2|39|dock2
     RDKit          3D

 29 32  0  0  0  0  0  0  0  0999 V2000
    6.6611    0.5857   18.7994 C   0  0  0  0  0  0  0  0  0  0  0  0
    5.7409    0.9468   20.2452 S   0  0  0  0  0  0  0  0  0  0  0  0
    4.3892    1.2075   19.8567 O   0  0  0  0  0  0  0  0  0  0  0  0
    5.9878   -0.0801   21.2099 O   0  0  0  0  0  0  0  0  0  0  0  0
    6.3371    2.3370   20.8499 N   0  0  0  0  0  0  0  0  0  0  0  0
    7.6415    2.4815   21.4172 C   0  0  0  0  0  0  0  0  0  0  0  0
    8.0521    3.7116   21.9048 C   0  0  0  0  0  0  0  0  0  0  0  0
    9.3303    3.8863   22.4058 C   0  0  0  0  0  0  0  0  0  0  0  0
   10.2756    2.8593   22.3522 C   0  0  0  0  0  0  0  0  0  0  0  0
   11.6746    2.9949   22.6446 N   0  0  0  0  0  0  0  0  0  0  0  0
   12.3410    4.2759   22.6854 C   0  0  0  0  0  0  0  0  0  0  0  0
   12.2343    5.1330   23.6986 N   0  0  0  0  0  0  0  0  0  0  0  0
   13.0073    6.2183   23.3635 C   0  0  0  0  0  0  0  0  0  0  0  0
   13.5917    6.0222   22.1654 C   0  0  0  0  0  0  0  0  0  0  0  0
   13.1720    4.7940   21.7461 N   0  0  0  0  0  0  0  0  0  0  0  0
   12.4754    1.8576   22.8779 C   0  0  0  0  0  0  0  0  0  0  0  0
   13.6456    1.9404   23.2146 O   0  0  0  0  0  0  0  0  0  0  0  0
   11.9074    0.5921   22.6725 N   0  0  0  0  0  0  0  0  0  0  0  0
   12.7375   -0.5731   22.9193 C   0  0  0  0  0  0  0  0  0  0  0  0
   12.8483   -1.5907   21.9839 C   0  0  0  0  0  0  0  0  0  0  0  0
   13.6001   -2.6807   22.1662 N   0  0  0  0  0  0  0  0  0  0  0  0
   14.2819   -2.7975   23.3092 C   0  0  0  0  0  0  0  0  0  0  0  0
   14.2405   -1.8345   24.3117 C   0  0  0  0  0  0  0  0  0  0  0  0
   14.9567   -1.9894   25.4756 N   0  0  0  0  0  0  0  0  0  0  0  0
   13.4515   -0.7046   24.1050 C   0  0  0  0  0  0  0  0  0  0  0  0
   10.6014    0.3700   22.2081 C   0  0  0  0  0  0  0  0  0  0  0  0
   10.1475   -0.7419   21.9966 O   0  0  0  0  0  0  0  0  0  0  0  0
    9.8007    1.5798   22.0165 C   0  0  0  0  0  0  0  0  0  0  0  0
    8.5164    1.4090   21.5021 C   0  0  0  0  0  0  0  0  0  0  0  0
  1  2  1  0
  2  3  2  0
  2  4  2  0
  2  5  1  0
  5  6  1  0
  6  7  2  0
  7  8  1  0
  8  9  2  0
  9 10  1  0
 10 11  1  0
 11 12  2  0
 12 13  1  0
 13 14  2  0
 14 15  1  0
 10 16  1  0
 16 17  2  0
 16 18  1  0
 18 19  1  0
 19 20  2  0
 20 21  1  0
 21 22  2  0
 22 23  1  0
 23 24  1  0
 23 25  2  0
 18 26  1  0
 26 27  2  0
 26 28  1  0
 28 29  2  0
 29  6  1  0
 28  9  1  0
 15 11  1  0
 25 19  1  0
M  END
