CVD-0002601|dock_bobby27042020.33|mol2|35|dock1
     RDKit          3D

 20 21  0  0  0  0  0  0  0  0999 V2000
    2.9819    2.3026   20.5935 C   0  0  0  0  0  0  0  0  0  0  0  0
    4.1933    1.5535   20.0940 C   0  0  0  0  0  0  0  0  0  0  0  0
    4.5995    1.6579   18.7729 C   0  0  0  0  0  0  0  0  0  0  0  0
    5.7099    0.9668   18.3183 C   0  0  0  0  0  0  0  0  0  0  0  0
    6.4270    0.1598   19.1847 C   0  0  0  0  0  0  0  0  0  0  0  0
    6.0405    0.0359   20.5093 C   0  0  0  0  0  0  0  0  0  0  0  0
    6.8164   -0.8389   21.4641 C   0  0  0  0  0  0  0  0  0  0  0  0
    8.2643   -0.7568   21.2471 N   0  0  0  0  0  0  0  0  0  0  0  0
    9.0862   -1.2093   22.3848 C   0  0  0  0  0  0  0  0  0  0  0  0
    8.7334   -2.6528   22.7104 C   0  0  0  0  0  0  0  0  0  0  0  0
    8.7362   -3.4828   21.5553 O   0  0  0  0  0  0  0  0  0  0  0  0
   10.5600   -1.0992   22.0230 C   0  0  0  0  0  0  0  0  0  0  0  0
   11.5008   -1.5440   23.0566 N   0  0  0  0  0  0  0  0  0  0  0  0
   11.5789   -0.5650   24.1476 C   0  0  0  0  0  0  0  0  0  0  0  0
   12.5050   -1.0285   25.2547 C   0  0  0  0  0  0  0  0  0  0  0  0
   13.9095   -1.3430   24.7539 C   0  0  0  0  0  0  0  0  0  0  0  0
   14.7674   -1.9031   25.7517 O   0  0  0  0  0  0  0  0  0  0  0  0
   13.7948   -2.2813   23.5576 C   0  0  0  0  0  0  0  0  0  0  0  0
   12.8395   -1.7553   22.4994 C   0  0  0  0  0  0  0  0  0  0  0  0
    4.9245    0.7388   20.9453 C   0  0  0  0  0  0  0  0  0  0  0  0
  1  2  1  0
  2  3  2  0
  3  4  1  0
  4  5  2  0
  5  6  1  0
  6  7  1  0
  7  8  1  0
  8  9  1  0
  9 10  1  0
 10 11  1  0
  9 12  1  0
 12 13  1  0
 13 14  1  0
 14 15  1  0
 15 16  1  0
 16 17  1  0
 16 18  1  0
 18 19  1  0
  6 20  2  0
 20  2  1  0
 19 13  1  0
M  END
