CVD-0003793|dock_bobby27042020.29|mol2|39|dock2
     RDKit          3D

 24 26  0  0  0  0  0  0  0  0999 V2000
   11.9262    6.7098   25.3172 C   0  0  0  0  0  0  0  0  0  0  0  0
   12.3177    6.0212   24.0325 C   0  0  0  0  0  0  0  0  0  0  0  0
   13.3906    6.4759   23.2822 C   0  0  0  0  0  0  0  0  0  0  0  0
   13.7521    5.8432   22.1051 C   0  0  0  0  0  0  0  0  0  0  0  0
   13.0435    4.7407   21.6594 C   0  0  0  0  0  0  0  0  0  0  0  0
   11.9659    4.2689   22.3996 C   0  0  0  0  0  0  0  0  0  0  0  0
   11.2338    3.1620   21.9793 N   0  0  0  0  0  0  0  0  0  0  0  0
   10.4216    2.3459   22.8758 C   0  0  0  0  0  0  0  0  0  0  0  0
   11.2682    1.7074   23.9825 C   0  0  0  0  0  0  0  0  0  0  0  0
   10.4181    0.8730   24.8984 C   0  0  0  0  0  0  0  0  0  0  0  0
    9.6709   -0.1570   24.1705 N   0  0  0  0  0  0  0  0  0  0  0  0
    8.8407    0.3940   23.0744 C   0  0  0  0  0  0  0  0  0  0  0  0
    9.6733    1.2564   22.1499 C   0  0  0  0  0  0  0  0  0  0  0  0
    9.5886   -1.4742   24.6016 C   0  0  0  0  0  0  0  0  0  0  0  0
    9.2187   -1.7770   25.9086 C   0  0  0  0  0  0  0  0  0  0  0  0
    9.1337   -3.0878   26.3432 C   0  0  0  0  0  0  0  0  0  0  0  0
    9.4262   -4.1189   25.4686 C   0  0  0  0  0  0  0  0  0  0  0  0
    9.7963   -3.8426   24.1645 C   0  0  0  0  0  0  0  0  0  0  0  0
    9.8736   -2.5284   23.7389 C   0  0  0  0  0  0  0  0  0  0  0  0
    9.3167   -5.7956   26.0161 S   0  0  0  0  0  0  0  0  0  0  0  0
    9.7789   -6.7517   24.8181 N   0  0  0  0  0  0  0  0  0  0  0  0
    7.9348   -6.0732   26.2703 O   0  0  0  0  0  0  0  0  0  0  0  0
   10.2623   -5.9611   27.0789 O   0  0  0  0  0  0  0  0  0  0  0  0
   11.6142    4.9151   23.5796 C   0  0  0  0  0  0  0  0  0  0  0  0
  1  2  1  0
  2  3  2  0
  3  4  1  0
  4  5  2  0
  5  6  1  0
  6  7  1  0
  7  8  1  0
  8  9  1  0
  9 10  1  0
 10 11  1  0
 11 12  1  0
 12 13  1  0
 11 14  1  0
 14 15  2  0
 15 16  1  0
 16 17  2  0
 17 18  1  0
 18 19  2  0
 17 20  1  0
 20 21  1  0
 20 22  2  0
 20 23  2  0
  6 24  2  0
 24  2  1  0
 13  8  1  0
 19 14  1  0
M  END
