CVD-0002503|dock_bobby27042020.63|mol2|10|dock3
     RDKit          3D

 28 31  0  0  0  0  0  0  0  0999 V2000
    6.3516   -6.5286   22.0899 C   0  0  0  0  0  0  0  0  0  0  0  0
    6.8635   -5.2021   22.5961 C   0  0  0  0  0  0  0  0  0  0  0  0
    7.2572   -5.0502   23.9149 C   0  0  0  0  0  0  0  0  0  0  0  0
    7.7225   -3.8309   24.3741 C   0  0  0  0  0  0  0  0  0  0  0  0
    7.8067   -2.7464   23.5177 C   0  0  0  0  0  0  0  0  0  0  0  0
    7.4208   -2.8712   22.1873 C   0  0  0  0  0  0  0  0  0  0  0  0
    6.9434   -4.1051   21.7515 C   0  0  0  0  0  0  0  0  0  0  0  0
    7.5173   -1.7324   21.2964 N   0  0  0  0  0  0  0  0  0  0  0  0
    6.5780   -1.5143   20.2586 C   0  0  0  0  0  0  0  0  0  0  0  0
    5.5912   -2.2307   20.1402 O   0  0  0  0  0  0  0  0  0  0  0  0
    6.7790   -0.4731   19.3690 N   0  0  0  0  0  0  0  0  0  0  0  0
    5.7278   -0.1398   18.1422 S   0  0  0  0  0  0  0  0  0  0  0  0
    4.5249    0.9304   18.8312 C   0  0  0  0  0  0  0  0  0  0  0  0
    5.0873   -1.3675   17.7836 O   0  0  0  0  0  0  0  0  0  0  0  0
    6.4517    0.5808   17.1409 O   0  0  0  0  0  0  0  0  0  0  0  0
    8.6494   -0.8648   21.5359 C   0  0  0  0  0  0  0  0  0  0  0  0
    9.9511   -1.3543   21.5117 C   0  0  0  0  0  0  0  0  0  0  0  0
   11.0317   -0.5317   21.7817 C   0  0  0  0  0  0  0  0  0  0  0  0
   10.8155    0.8119   22.0838 C   0  0  0  0  0  0  0  0  0  0  0  0
    9.5081    1.3163   22.1110 C   0  0  0  0  0  0  0  0  0  0  0  0
    9.5291    2.8075   22.3428 C   0  0  0  0  0  0  0  0  0  0  0  0
   11.0023    3.0873   22.5098 C   0  0  0  0  0  0  0  0  0  0  0  0
   11.6645    4.2932   22.7166 C   0  0  0  0  0  0  0  0  0  0  0  0
   13.0494    4.3325   22.7362 C   0  0  0  0  0  0  0  0  0  0  0  0
   13.7797    3.1768   22.5508 C   0  0  0  0  0  0  0  0  0  0  0  0
   13.1383    1.9653   22.3432 C   0  0  0  0  0  0  0  0  0  0  0  0
   11.7444    1.9154   22.3218 C   0  0  0  0  0  0  0  0  0  0  0  0
    8.4345    0.4770   21.8376 C   0  0  0  0  0  0  0  0  0  0  0  0
  1  2  1  0
  2  3  2  0
  3  4  1  0
  4  5  2  0
  5  6  1  0
  6  7  2  0
  6  8  1  0
  8  9  1  0
  9 10  2  0
  9 11  1  0
 11 12  1  0
 12 13  1  0
 12 14  2  0
 12 15  2  0
  8 16  1  0
 16 17  2  0
 17 18  1  0
 18 19  2  0
 19 20  1  0
 20 21  1  0
 21 22  1  0
 22 23  2  0
 23 24  1  0
 24 25  2  0
 25 26  1  0
 26 27  2  0
 20 28  2  0
  7  2  1  0
 28 16  1  0
 19 27  1  0
 27 22  1  0
M  END
