CVD-0001596|dock_bobby27042020.9|mol2|15|dock2
     RDKit          3D

 17 18  0  0  0  0  0  0  0  0999 V2000
    8.8573    1.4537   22.8105 C   0  0  0  0  0  0  0  0  0  0  0  0
    9.7811    0.2649   23.0220 C   0  0  0  0  0  0  0  0  0  0  0  0
   11.2033    0.6673   22.7170 C   0  0  0  0  0  0  0  0  0  0  0  0
   12.1192   -0.4625   22.8867 N   0  0  0  0  0  0  0  0  0  0  0  0
   11.6862   -1.6762   22.1898 C   0  0  0  0  0  0  0  0  0  0  0  0
   10.2566   -1.9996   22.5339 C   0  0  0  0  0  0  0  0  0  0  0  0
    9.3866   -0.8767   22.1990 N   0  0  0  0  0  0  0  0  0  0  0  0
    7.9773   -1.2359   22.2720 C   0  0  0  0  0  0  0  0  0  0  0  0
    7.1560   -0.4454   21.3814 N   0  0  0  0  0  0  0  0  0  0  0  0
    7.3991   -0.7029   19.9458 C   0  0  0  0  0  0  0  0  0  0  0  0
    7.1999    0.5256   19.0705 C   0  0  0  0  0  0  0  0  0  0  0  0
    5.7800    0.7005   18.5012 C   0  0  0  0  0  0  0  0  0  0  0  0
    4.7975    0.2793   19.4535 O   0  0  0  0  0  0  0  0  0  0  0  0
    5.0043    0.7019   20.7972 C   0  0  0  0  0  0  0  0  0  0  0  0
    5.7116   -0.3356   21.6352 C   0  0  0  0  0  0  0  0  0  0  0  0
   13.1857   -0.4382   23.6694 C   0  0  0  0  0  0  0  0  0  0  0  0
   14.1276   -0.4472   24.3230 N   0  0  0  0  0  0  0  0  0  0  0  0
  1  2  1  0
  2  3  1  0
  3  4  1  0
  4  5  1  0
  5  6  1  0
  6  7  1  0
  7  8  1  0
  8  9  1  0
  9 10  1  0
 10 11  1  0
 11 12  1  0
 12 13  1  0
 13 14  1  0
 14 15  1  0
  4 16  1  0
 16 17  3  0
  7  2  1  0
 15  9  1  0
M  END
