CVD-0002835|dock_bobby27042020.61|mol2|42|dock2
     RDKit          3D

 24 26  0  0  0  0  0  0  0  0999 V2000
   13.1874   -1.9046   20.8444 N   0  0  0  0  0  0  0  0  0  0  0  0
   12.8585   -1.8766   22.1263 C   0  0  0  0  0  0  0  0  0  0  0  0
   13.6958   -1.9538   23.0300 O   0  0  0  0  0  0  0  0  0  0  0  0
   11.3832   -1.7335   22.4451 C   0  0  0  0  0  0  0  0  0  0  0  0
   10.8640   -0.3151   22.3482 C   0  0  0  0  0  0  0  0  0  0  0  0
   11.7587    0.6975   22.6901 C   0  0  0  0  0  0  0  0  0  0  0  0
   11.4042    2.0336   22.6395 C   0  0  0  0  0  0  0  0  0  0  0  0
   10.1352    2.3842   22.2423 C   0  0  0  0  0  0  0  0  0  0  0  0
    9.2308    1.3950   21.9011 C   0  0  0  0  0  0  0  0  0  0  0  0
    9.5659    0.0413   21.9465 C   0  0  0  0  0  0  0  0  0  0  0  0
    8.4968   -0.9777   21.5561 C   0  0  0  0  0  0  0  0  0  0  0  0
    8.0127   -1.7490   22.7379 C   0  0  0  0  0  0  0  0  0  0  0  0
    7.2077   -0.8897   23.6410 N   0  0  0  0  0  0  0  0  0  0  0  0
    6.1542   -0.0555   23.0306 C   0  0  0  0  0  0  0  0  0  0  0  0
    6.1993    0.0390   21.5027 C   0  0  0  0  0  0  0  0  0  0  0  0
    5.1242    0.5882   20.8112 C   0  0  0  0  0  0  0  0  0  0  0  0
    5.1532    0.7186   19.4348 C   0  0  0  0  0  0  0  0  0  0  0  0
    6.2629    0.2986   18.7356 C   0  0  0  0  0  0  0  0  0  0  0  0
    7.3348   -0.2483   19.4183 C   0  0  0  0  0  0  0  0  0  0  0  0
    7.3277   -0.3897   20.8073 C   0  0  0  0  0  0  0  0  0  0  0  0
    7.4168   -0.7917   24.9710 C   0  0  0  0  0  0  0  0  0  0  0  0
    6.7358   -0.0657   25.6844 O   0  0  0  0  0  0  0  0  0  0  0  0
    8.5391   -1.6318   25.5486 C   0  0  0  0  0  0  0  0  0  0  0  0
    8.6002   -1.4854   27.3098 Cl  0  0  0  0  0  0  0  0  0  0  0  0
  1  2  1  0
  2  3  2  0
  2  4  1  0
  4  5  1  0
  5  6  2  0
  6  7  1  0
  7  8  2  0
  8  9  1  0
  9 10  2  0
 10 11  1  0
 11 12  1  0
 12 13  1  0
 13 14  1  0
 14 15  1  0
 15 16  2  0
 16 17  1  0
 17 18  2  0
 18 19  1  0
 19 20  2  0
 13 21  1  0
 21 22  2  0
 21 23  1  0
 23 24  1  0
 10  5  1  0
 20 11  1  0
 20 15  1  0
M  END
