CVD-0003633|dock_bobby27042020.16|mol2|4|dock2
     RDKit          3D

 18 19  0  0  0  0  0  0  0  0999 V2000
   11.7204   -2.6923   22.8383 C   0  0  0  0  0  0  0  0  0  0  0  0
   11.9438   -1.3466   23.4923 C   0  0  0  0  0  0  0  0  0  0  0  0
   12.8267   -1.2478   24.5797 C   0  0  0  0  0  0  0  0  0  0  0  0
   13.5444   -2.3282   25.0437 N   0  0  0  0  0  0  0  0  0  0  0  0
   12.9766   -0.0155   25.2045 C   0  0  0  0  0  0  0  0  0  0  0  0
   12.3385    1.0882   24.8219 N   0  0  0  0  0  0  0  0  0  0  0  0
   11.5348    1.0042   23.7594 C   0  0  0  0  0  0  0  0  0  0  0  0
   11.2893   -0.1767   23.0588 C   0  0  0  0  0  0  0  0  0  0  0  0
   10.4213   -0.2604   21.9330 N   0  0  0  0  0  0  0  0  0  0  0  0
    9.2129    0.3642   21.7159 C   0  0  0  0  0  0  0  0  0  0  0  0
    8.6720    1.1284   22.5083 O   0  0  0  0  0  0  0  0  0  0  0  0
    8.6827    0.0164   20.4935 N   0  0  0  0  0  0  0  0  0  0  0  0
    7.4743    0.4052   19.8607 C   0  0  0  0  0  0  0  0  0  0  0  0
    7.3521    0.6290   18.4906 C   0  0  0  0  0  0  0  0  0  0  0  0
    6.1329    1.0072   17.9524 C   0  0  0  0  0  0  0  0  0  0  0  0
    5.0290    1.1668   18.7606 C   0  0  0  0  0  0  0  0  0  0  0  0
    5.1390    0.9482   20.1157 C   0  0  0  0  0  0  0  0  0  0  0  0
    6.3522    0.5698   20.6652 C   0  0  0  0  0  0  0  0  0  0  0  0
  1  2  1  0
  2  3  2  0
  3  4  1  0
  3  5  1  0
  5  6  2  0
  6  7  1  0
  7  8  2  0
  8  9  1  0
  9 10  1  0
 10 11  2  0
 10 12  1  0
 12 13  1  0
 13 14  2  0
 14 15  1  0
 15 16  2  0
 16 17  1  0
 17 18  2  0
  8  2  1  0
 18 13  1  0
M  END
