CVD-0002815|dock_bobby27042020.90|mol2|9|dock2
     RDKit          3D

 19 21  0  0  0  0  0  0  0  0999 V2000
    7.1203   -3.0919   23.0326 N   0  0  0  0  0  0  0  0  0  0  0  0
    8.1401   -2.4338   22.4647 C   0  0  0  0  0  0  0  0  0  0  0  0
    9.4870   -2.6654   23.1305 C   0  0  0  0  0  0  0  0  0  0  0  0
   10.5777   -1.8799   22.3971 C   0  0  0  0  0  0  0  0  0  0  0  0
   10.1533   -0.4035   22.3127 C   0  0  0  0  0  0  0  0  0  0  0  0
    8.7547   -0.2462   21.7168 C   0  0  0  0  0  0  0  0  0  0  0  0
    8.6429   -0.5221   20.3323 N   0  0  0  0  0  0  0  0  0  0  0  0
    7.6590    0.0350   19.5217 C   0  0  0  0  0  0  0  0  0  0  0  0
    6.4717    0.5392   20.0336 C   0  0  0  0  0  0  0  0  0  0  0  0
    5.5408    1.0780   19.1626 C   0  0  0  0  0  0  0  0  0  0  0  0
    5.8280    1.0936   17.8160 C   0  0  0  0  0  0  0  0  0  0  0  0
    6.9616    0.6152   17.3000 N   0  0  0  0  0  0  0  0  0  0  0  0
    7.8551    0.0969   18.1479 C   0  0  0  0  0  0  0  0  0  0  0  0
    7.8095   -1.0345   22.4672 O   0  0  0  0  0  0  0  0  0  0  0  0
   11.9444   -2.0209   22.9908 C   0  0  0  0  0  0  0  0  0  0  0  0
   12.2180   -2.1753   24.3810 C   0  0  0  0  0  0  0  0  0  0  0  0
   13.5424   -2.2907   24.6790 C   0  0  0  0  0  0  0  0  0  0  0  0
   14.4658   -2.2115   23.2556 S   0  0  0  0  0  0  0  0  0  0  0  0
   13.0977   -2.0279   22.2634 C   0  0  0  0  0  0  0  0  0  0  0  0
  2  1  1  0
  2  3  1  0
  3  4  1  0
  4  5  1  0
  5  6  1  0
  6  7  1  0
  7  8  1  0
  8  9  2  0
  9 10  1  0
 10 11  2  0
 11 12  1  0
 12 13  2  0
  6 14  1  0
  4 15  1  0
 15 16  1  0
 16 17  2  0
 17 18  1  0
 18 19  1  0
 14  2  1  0
 19 15  2  0
 13  8  1  0
M  END
