CVD-0000599|dock_bobby27042020.55|mol2|27|dock1
     RDKit          3D

 20 21  0  0  0  0  0  0  0  0999 V2000
    8.5500   -2.0135   19.1216 O   0  0  0  0  0  0  0  0  0  0  0  0
    7.6751   -0.9785   19.2190 C   0  0  0  0  0  0  0  0  0  0  0  0
    6.5345   -1.0413   18.4267 C   0  0  0  0  0  0  0  0  0  0  0  0
    5.5904   -0.0329   18.4611 C   0  0  0  0  0  0  0  0  0  0  0  0
    5.7953    1.0414   19.2955 C   0  0  0  0  0  0  0  0  0  0  0  0
    4.6121    2.3180   19.3470 Cl  0  0  0  0  0  0  0  0  0  0  0  0
    6.9169    1.1321   20.0935 C   0  0  0  0  0  0  0  0  0  0  0  0
    7.8852    0.1236   20.0750 C   0  0  0  0  0  0  0  0  0  0  0  0
    9.0658    0.3321   20.9885 C   0  0  0  0  0  0  0  0  0  0  0  0
    9.4260    1.4797   21.2283 O   0  0  0  0  0  0  0  0  0  0  0  0
    9.6733   -0.7720   21.5022 N   0  0  0  0  0  0  0  0  0  0  0  0
   10.7846   -0.9060   22.3740 C   0  0  0  0  0  0  0  0  0  0  0  0
   11.6115   -2.0094   22.1908 C   0  0  0  0  0  0  0  0  0  0  0  0
   12.7161   -2.2149   22.9974 C   0  0  0  0  0  0  0  0  0  0  0  0
   13.0086   -1.3120   24.0046 C   0  0  0  0  0  0  0  0  0  0  0  0
   12.1970   -0.2080   24.2019 C   0  0  0  0  0  0  0  0  0  0  0  0
   11.0925   -0.0052   23.3930 C   0  0  0  0  0  0  0  0  0  0  0  0
   14.1803   -1.5250   24.8644 N   0  0  0  0  0  0  0  0  0  0  0  0
   14.3504   -0.7557   25.8080 O   0  0  0  0  0  0  0  0  0  0  0  0
   14.9234   -2.4542   24.5973 O   0  0  0  0  0  0  0  0  0  0  0  0
  1  2  1  0
  2  3  2  0
  3  4  1  0
  4  5  2  0
  5  6  1  0
  5  7  1  0
  7  8  2  0
  8  9  1  0
  9 10  2  0
  9 11  1  0
 11 12  1  0
 12 13  2  0
 13 14  1  0
 14 15  2  0
 15 16  1  0
 16 17  2  0
 15 18  1  0
 18 19  1  0
 18 20  2  0
  8  2  1  0
 17 12  1  0
M  CHG  2  18   1  19  -1
M  END
