CVD-0000300|dock_bobby27042020.27|mol2|34|dock3
     RDKit          3D

 23 25  0  0  0  0  0  0  0  0999 V2000
   11.7669    0.4197   21.3499 O   0  0  0  0  0  0  0  0  0  0  0  0
   12.3497   -0.0051   22.5943 C   0  0  0  0  0  0  0  0  0  0  0  0
   11.4399   -1.0481   23.2620 C   0  0  0  0  0  0  0  0  0  0  0  0
   11.5765   -2.5120   22.8231 C   0  0  0  0  0  0  0  0  0  0  0  0
   10.4137   -3.4147   23.1787 C   0  0  0  0  0  0  0  0  0  0  0  0
   10.5948   -4.2784   24.2548 C   0  0  0  0  0  0  0  0  0  0  0  0
    9.5894   -5.1309   24.6661 C   0  0  0  0  0  0  0  0  0  0  0  0
    8.3878   -5.1326   23.9975 C   0  0  0  0  0  0  0  0  0  0  0  0
    8.1799   -4.2947   22.9142 C   0  0  0  0  0  0  0  0  0  0  0  0
    9.1867   -3.4218   22.4878 C   0  0  0  0  0  0  0  0  0  0  0  0
    9.0328   -2.5381   21.3812 N   0  0  0  0  0  0  0  0  0  0  0  0
    7.9406   -1.7928   20.9930 C   0  0  0  0  0  0  0  0  0  0  0  0
    6.8628   -1.7732   21.5776 O   0  0  0  0  0  0  0  0  0  0  0  0
    8.2126   -1.0618   19.8582 N   0  0  0  0  0  0  0  0  0  0  0  0
    7.4026   -0.1656   19.1151 C   0  0  0  0  0  0  0  0  0  0  0  0
    6.2358    0.3112   19.6990 C   0  0  0  0  0  0  0  0  0  0  0  0
    5.4246    1.1868   18.9991 C   0  0  0  0  0  0  0  0  0  0  0  0
    5.8024    1.5632   17.7316 C   0  0  0  0  0  0  0  0  0  0  0  0
    6.9147    1.1248   17.1425 N   0  0  0  0  0  0  0  0  0  0  0  0
    7.6921    0.2793   17.8263 C   0  0  0  0  0  0  0  0  0  0  0  0
   13.8291   -0.3606   22.4707 C   0  0  0  0  0  0  0  0  0  0  0  0
   14.1800    0.8014   23.3200 N   0  0  0  0  0  0  0  0  0  0  0  0
   12.7534    1.1717   23.4706 C   0  0  0  0  0  0  0  0  0  0  0  0
  1  2  1  0
  2  3  1  0
  3  4  1  0
  4  5  1  0
  5  6  2  0
  6  7  1  0
  7  8  2  0
  8  9  1  0
  9 10  2  0
 10 11  1  0
 11 12  1  0
 12 13  2  0
 12 14  1  0
 14 15  1  0
 15 16  2  0
 16 17  1  0
 17 18  2  0
 18 19  1  0
 19 20  2  0
  2 21  1  0
 21 22  1  0
 22 23  1  0
 23  2  1  0
 10  5  1  0
 20 15  1  0
M  END
