CVD-0001938|dock_bobby27042020.65|mol2|24|dock2
     RDKit          3D

 18 19  0  0  0  0  0  0  0  0999 V2000
    6.7055   -1.0799   19.1999 C   0  0  0  0  0  0  0  0  0  0  0  0
    7.8135   -0.8832   20.1382 N   0  0  0  0  0  0  0  0  0  0  0  0
    7.9652    0.4946   20.6182 C   0  0  0  0  0  0  0  0  0  0  0  0
    9.2371    0.6736   21.4048 C   0  0  0  0  0  0  0  0  0  0  0  0
   10.0472   -0.3589   21.9066 C   0  0  0  0  0  0  0  0  0  0  0  0
   11.1234    0.1994   22.5696 C   0  0  0  0  0  0  0  0  0  0  0  0
   12.2131   -0.5544   23.2380 C   0  0  0  0  0  0  0  0  0  0  0  0
   12.7859   -1.5904   22.4975 C   0  0  0  0  0  0  0  0  0  0  0  0
   13.8519   -2.3216   22.9932 C   0  0  0  0  0  0  0  0  0  0  0  0
   14.3680   -2.0416   24.2380 C   0  0  0  0  0  0  0  0  0  0  0  0
   13.7979   -1.0488   25.0138 C   0  0  0  0  0  0  0  0  0  0  0  0
   12.7206   -0.3528   24.5177 C   0  0  0  0  0  0  0  0  0  0  0  0
   12.1565    0.5407   25.3601 F   0  0  0  0  0  0  0  0  0  0  0  0
   10.9960    1.5774   22.4774 N   0  0  0  0  0  0  0  0  0  0  0  0
   11.9046    2.5978   22.9677 C   0  0  0  0  0  0  0  0  0  0  0  0
   12.5089    3.3791   21.9181 N   0  0  0  0  0  0  0  0  0  0  0  0
   13.4249    4.4318   22.3650 C   0  0  0  0  0  0  0  0  0  0  0  0
    9.8630    1.8557   21.7703 C   0  0  0  0  0  0  0  0  0  0  0  0
  1  2  1  0
  2  3  1  0
  3  4  1  0
  4  5  1  0
  5  6  2  0
  6  7  1  0
  7  8  2  0
  8  9  1  0
  9 10  2  0
 10 11  1  0
 11 12  2  0
 12 13  1  0
  6 14  1  0
 14 15  1  0
 15 16  1  0
 16 17  1  0
 14 18  1  0
 18  4  2  0
 12  7  1  0
M  END
