CVD-0003074|dock_bobby27042020.89|mol2|11|dock3
     RDKit          3D

 31 34  0  0  0  0  0  0  0  0999 V2000
    5.9822   -2.1548   26.1344 C   0  0  0  0  0  0  0  0  0  0  0  0
    6.9729   -3.0056   25.4939 N   0  0  0  0  0  0  0  0  0  0  0  0
    6.5740   -4.4044   25.5252 C   0  0  0  0  0  0  0  0  0  0  0  0
    6.8878   -5.0625   26.8336 C   0  0  0  0  0  0  0  0  0  0  0  0
    6.3263   -6.2300   27.3612 C   0  0  0  0  0  0  0  0  0  0  0  0
    6.9278   -6.4179   28.5414 C   0  0  0  0  0  0  0  0  0  0  0  0
    6.8193   -7.4466   29.6187 C   0  0  0  0  0  0  0  0  0  0  0  0
    7.8188   -5.4306   28.7527 O   0  0  0  0  0  0  0  0  0  0  0  0
    7.7818   -4.5618   27.6345 N   0  0  0  0  0  0  0  0  0  0  0  0
    8.0632   -2.3385   24.9638 C   0  0  0  0  0  0  0  0  0  0  0  0
    8.6074   -3.0539   24.1381 O   0  0  0  0  0  0  0  0  0  0  0  0
    8.5842   -1.0967   25.2035 N   0  0  0  0  0  0  0  0  0  0  0  0
    8.2650    0.0048   26.1630 C   0  0  0  0  0  0  0  0  0  0  0  0
    8.1024   -0.5668   27.5272 C   0  0  0  0  0  0  0  0  0  0  0  0
    9.2301    0.3467   27.2524 C   0  0  0  0  0  0  0  0  0  0  0  0
    9.7241   -0.6597   24.3453 C   0  0  0  0  0  0  0  0  0  0  0  0
    9.3134   -0.5784   22.8854 C   0  0  0  0  0  0  0  0  0  0  0  0
   10.4918   -0.1533   22.0261 C   0  0  0  0  0  0  0  0  0  0  0  0
   11.6728   -1.0599   22.2483 C   0  0  0  0  0  0  0  0  0  0  0  0
   12.0524   -1.0647   23.6672 N   0  0  0  0  0  0  0  0  0  0  0  0
   10.9424   -1.5272   24.5217 C   0  0  0  0  0  0  0  0  0  0  0  0
   13.4788   -0.5752   24.2872 S   0  0  0  0  0  0  0  0  0  0  0  0
   13.9826   -1.7799   25.4595 C   0  0  0  0  0  0  0  0  0  0  0  0
   13.2353    0.6492   24.9849 O   0  0  0  0  0  0  0  0  0  0  0  0
   14.4250   -0.5758   23.2149 O   0  0  0  0  0  0  0  0  0  0  0  0
   10.8572    1.2942   22.2905 C   0  0  0  0  0  0  0  0  0  0  0  0
    9.8905    2.2893   22.2514 C   0  0  0  0  0  0  0  0  0  0  0  0
   10.2252    3.6118   22.4899 C   0  0  0  0  0  0  0  0  0  0  0  0
   11.5302    3.9561   22.7695 C   0  0  0  0  0  0  0  0  0  0  0  0
   12.5012    2.9786   22.8104 C   0  0  0  0  0  0  0  0  0  0  0  0
   12.1673    1.6559   22.5720 C   0  0  0  0  0  0  0  0  0  0  0  0
  1  2  1  0
  2  3  1  0
  3  4  1  0
  4  5  1  0
  5  6  2  0
  6  7  1  0
  6  8  1  0
  8  9  1  0
  2 10  1  0
 10 11  2  0
 10 12  1  0
 12 13  1  0
 13 14  1  0
 14 15  1  0
 12 16  1  0
 16 17  1  0
 17 18  1  0
 18 19  1  0
 19 20  1  0
 20 21  1  0
 20 22  1  0
 22 23  1  0
 22 24  2  0
 22 25  2  0
 18 26  1  0
 26 27  2  0
 27 28  1  0
 28 29  2  0
 29 30  1  0
 30 31  2  0
  9  4  2  0
 15 13  1  0
 21 16  1  0
 31 26  1  0
M  END
