CVD-0003505|dock_bobby27042020.87|mol2|39|dock1
     RDKit          3D

 31 35  0  0  0  0  0  0  0  0999 V2000
    6.7063   -6.5140   22.1422 C   0  0  0  0  0  0  0  0  0  0  0  0
    6.4795   -5.1989   21.4691 C   0  0  0  0  0  0  0  0  0  0  0  0
    5.8396   -5.1015   20.2917 N   0  0  0  0  0  0  0  0  0  0  0  0
    5.7441   -3.8163   19.8546 N   0  0  0  0  0  0  0  0  0  0  0  0
    6.3389   -3.0702   20.7968 C   0  0  0  0  0  0  0  0  0  0  0  0
    6.5495   -1.6391   20.8988 C   0  0  0  0  0  0  0  0  0  0  0  0
    7.1953   -1.1201   21.9305 N   0  0  0  0  0  0  0  0  0  0  0  0
    7.6796   -1.9162   22.9481 C   0  0  0  0  0  0  0  0  0  0  0  0
    8.3761   -1.1196   24.0192 C   0  0  0  0  0  0  0  0  0  0  0  0
    9.7264   -0.5773   23.5913 C   0  0  0  0  0  0  0  0  0  0  0  0
   10.8031   -1.4351   23.5598 C   0  0  0  0  0  0  0  0  0  0  0  0
   12.0742   -1.0228   23.1845 C   0  0  0  0  0  0  0  0  0  0  0  0
   13.2196   -2.0054   23.1629 C   0  0  0  0  0  0  0  0  0  0  0  0
   12.2640    0.2901   22.8301 C   0  0  0  0  0  0  0  0  0  0  0  0
   11.1998    1.2216   22.8426 C   0  0  0  0  0  0  0  0  0  0  0  0
   11.3238    2.5841   22.4924 C   0  0  0  0  0  0  0  0  0  0  0  0
   10.2077    3.3584   22.5541 C   0  0  0  0  0  0  0  0  0  0  0  0
    9.0156    2.9144   22.9213 N   0  0  0  0  0  0  0  0  0  0  0  0
    8.8444    1.6485   23.2589 N   0  0  0  0  0  0  0  0  0  0  0  0
    9.9114    0.7900   23.2276 C   0  0  0  0  0  0  0  0  0  0  0  0
    7.5172   -3.2856   22.9412 C   0  0  0  0  0  0  0  0  0  0  0  0
    8.0244   -4.0936   24.0110 C   0  0  0  0  0  0  0  0  0  0  0  0
    8.4110   -4.8032   24.8681 C   0  0  0  0  0  0  0  0  0  0  0  0
    6.8255   -3.9086   21.8326 C   0  0  0  0  0  0  0  0  0  0  0  0
    6.0659   -0.6620   19.8862 C   0  0  0  0  0  0  0  0  0  0  0  0
    5.9919   -1.0526   18.5436 C   0  0  0  0  0  0  0  0  0  0  0  0
    5.6022   -0.2680   17.5359 N   0  0  0  0  0  0  0  0  0  0  0  0
    5.2117    0.9632   17.8526 C   0  0  0  0  0  0  0  0  0  0  0  0
    5.2241    1.4524   19.1412 C   0  0  0  0  0  0  0  0  0  0  0  0
    5.6662    0.6542   20.1940 C   0  0  0  0  0  0  0  0  0  0  0  0
    5.6915    1.2737   21.5680 C   0  0  0  0  0  0  0  0  0  0  0  0
  1  2  1  0
  2  3  1  0
  3  4  1  0
  4  5  2  0
  5  6  1  0
  6  7  2  0
  7  8  1  0
  8  9  1  0
  9 10  1  0
 10 11  2  0
 11 12  1  0
 12 13  1  0
 12 14  2  0
 14 15  1  0
 15 16  2  0
 16 17  1  0
 17 18  2  0
 18 19  1  0
 19 20  2  0
  8 21  2  0
 21 22  1  0
 22 23  3  0
 21 24  1  0
  6 25  1  0
 25 26  2  0
 26 27  1  0
 27 28  2  0
 28 29  1  0
 29 30  2  0
 30 31  1  0
 24  2  2  0
 30 25  1  0
 24  5  1  0
 20 10  1  0
 20 15  1  0
M  END
