CVD-0002129|dock_bobby27042020.35|mol2|31|dock3
     RDKit          3D

 30 32  0  0  0  0  0  0  0  0999 V2000
   14.0536   -1.1342   24.8087 C   0  0  0  0  0  0  0  0  0  0  0  0
   13.3928   -0.7804   23.4991 C   0  0  0  0  0  0  0  0  0  0  0  0
   12.2248   -0.0483   23.7880 O   0  0  0  0  0  0  0  0  0  0  0  0
   11.8024    0.9991   22.8920 C   0  0  0  0  0  0  0  0  0  0  0  0
   12.7286    2.1923   22.9418 C   0  0  0  0  0  0  0  0  0  0  0  0
   12.3504    3.4633   22.9601 C   0  0  0  0  0  0  0  0  0  0  0  0
   10.8997    3.8455   22.9067 C   0  0  0  0  0  0  0  0  0  0  0  0
   10.0151    2.7092   22.4363 C   0  0  0  0  0  0  0  0  0  0  0  0
   10.3347    1.4022   23.1681 C   0  0  0  0  0  0  0  0  0  0  0  0
    9.4034    0.3303   22.8241 N   0  0  0  0  0  0  0  0  0  0  0  0
    8.1896    0.1885   23.3647 C   0  0  0  0  0  0  0  0  0  0  0  0
    7.6367    1.0005   24.3016 C   0  0  0  0  0  0  0  0  0  0  0  0
    6.0727    0.5042   24.7506 S   0  0  0  0  0  0  0  0  0  0  0  0
    6.1218   -0.8157   23.6797 C   0  0  0  0  0  0  0  0  0  0  0  0
    7.2934   -0.8883   22.9982 C   0  0  0  0  0  0  0  0  0  0  0  0
    7.5404   -1.9829   21.9922 C   0  0  0  0  0  0  0  0  0  0  0  0
    7.1143   -1.6439   20.6327 N   0  0  0  0  0  0  0  0  0  0  0  0
    5.7587   -1.0812   20.6355 C   0  0  0  0  0  0  0  0  0  0  0  0
    5.2744   -0.7725   19.2325 C   0  0  0  0  0  0  0  0  0  0  0  0
    6.2110    0.1647   18.4796 C   0  0  0  0  0  0  0  0  0  0  0  0
    5.8460    0.3714   17.1123 O   0  0  0  0  0  0  0  0  0  0  0  0
    7.6278   -0.3900   18.5782 C   0  0  0  0  0  0  0  0  0  0  0  0
    8.0342   -0.6869   20.0120 C   0  0  0  0  0  0  0  0  0  0  0  0
   13.3406    4.5795   23.0257 C   0  0  0  0  0  0  0  0  0  0  0  0
   12.9260    5.8123   23.2047 O   0  0  0  0  0  0  0  0  0  0  0  0
   14.5289    4.3409   22.9127 O   0  0  0  0  0  0  0  0  0  0  0  0
   12.9274   -2.2131   22.5911 S   0  0  0  0  0  0  0  0  0  0  0  0
   13.1010   -1.8541   21.0312 N   0  0  0  0  0  0  0  0  0  0  0  0
   11.5354   -2.4094   22.8685 O   0  0  0  0  0  0  0  0  0  0  0  0
   13.8845   -3.2198   22.9434 O   0  0  0  0  0  0  0  0  0  0  0  0
  1  2  1  0
  2  3  1  0
  3  4  1  0
  4  5  1  0
  5  6  2  0
  6  7  1  0
  7  8  1  0
  8  9  1  0
  9 10  1  0
 10 11  1  0
 11 12  2  0
 12 13  1  0
 13 14  1  0
 14 15  2  0
 15 16  1  0
 16 17  1  0
 17 18  1  0
 18 19  1  0
 19 20  1  0
 20 21  1  0
 20 22  1  0
 22 23  1  0
  6 24  1  0
 24 25  1  0
 24 26  2  0
  2 27  1  0
 27 28  1  0
 27 29  2  0
 27 30  2  0
  9  4  1  0
 15 11  1  0
 23 17  1  0
M  END
