CVD-0002039|dock_bobby27042020.36|mol2|11|dock1
     RDKit          3D

 26 28  0  0  0  0  0  0  0  0999 V2000
   12.4664    4.2114   22.3413 C   0  0  0  0  0  0  0  0  0  0  0  0
   11.0149    4.0743   22.7241 C   0  0  0  0  0  0  0  0  0  0  0  0
   10.2219    5.2180   22.7184 C   0  0  0  0  0  0  0  0  0  0  0  0
    8.8899    5.1293   23.0544 C   0  0  0  0  0  0  0  0  0  0  0  0
    8.3041    3.9865   23.3986 N   0  0  0  0  0  0  0  0  0  0  0  0
    9.0603    2.8847   23.4263 C   0  0  0  0  0  0  0  0  0  0  0  0
   10.4148    2.8527   23.0895 C   0  0  0  0  0  0  0  0  0  0  0  0
   11.2223    1.6788   23.0944 N   0  0  0  0  0  0  0  0  0  0  0  0
   11.1785    0.5861   23.9105 C   0  0  0  0  0  0  0  0  0  0  0  0
   10.3429    0.4567   24.7989 O   0  0  0  0  0  0  0  0  0  0  0  0
   12.1987   -0.5103   23.7023 C   0  0  0  0  0  0  0  0  0  0  0  0
   13.2550   -0.6258   24.6107 C   0  0  0  0  0  0  0  0  0  0  0  0
   14.1996   -1.6115   24.4349 C   0  0  0  0  0  0  0  0  0  0  0  0
   14.1600   -2.4962   23.4452 N   0  0  0  0  0  0  0  0  0  0  0  0
   13.1452   -2.4139   22.5817 C   0  0  0  0  0  0  0  0  0  0  0  0
   12.1422   -1.4444   22.6329 C   0  0  0  0  0  0  0  0  0  0  0  0
   11.0872   -1.3452   21.6808 N   0  0  0  0  0  0  0  0  0  0  0  0
    9.7774   -0.9486   21.8438 C   0  0  0  0  0  0  0  0  0  0  0  0
    9.2796   -0.5951   22.9072 O   0  0  0  0  0  0  0  0  0  0  0  0
    9.0887   -1.0009   20.6523 N   0  0  0  0  0  0  0  0  0  0  0  0
    7.7390   -0.6914   20.3446 C   0  0  0  0  0  0  0  0  0  0  0  0
    7.2568   -1.0890   19.1025 C   0  0  0  0  0  0  0  0  0  0  0  0
    5.9496   -0.8211   18.7337 C   0  0  0  0  0  0  0  0  0  0  0  0
    5.1079   -0.1547   19.5962 C   0  0  0  0  0  0  0  0  0  0  0  0
    5.5728    0.2448   20.8296 C   0  0  0  0  0  0  0  0  0  0  0  0
    6.8788   -0.0176   21.2098 C   0  0  0  0  0  0  0  0  0  0  0  0
  1  2  1  0
  2  3  2  0
  3  4  1  0
  4  5  2  0
  5  6  1  0
  6  7  2  0
  7  8  1  0
  8  9  1  0
  9 10  2  0
  9 11  1  0
 11 12  2  0
 12 13  1  0
 13 14  2  0
 14 15  1  0
 15 16  2  0
 16 17  1  0
 17 18  1  0
 18 19  2  0
 18 20  1  0
 20 21  1  0
 21 22  2  0
 22 23  1  0
 23 24  2  0
 24 25  1  0
 25 26  2  0
  7  2  1  0
 16 11  1  0
 26 21  1  0
M  END
