CVD-0000053|dock_bobby27042020.99|mol2|46|dock2
     RDKit          3D

 41 44  0  0  0  0  0  0  0  0999 V2000
    6.3814    7.7921   20.8021 C   0  0  0  0  0  0  0  0  0  0  0  0
    7.3686    6.7871   20.5826 O   0  0  0  0  0  0  0  0  0  0  0  0
    7.6354    5.9591   21.5912 C   0  0  0  0  0  0  0  0  0  0  0  0
    8.4894    6.3842   22.5103 N   0  0  0  0  0  0  0  0  0  0  0  0
    8.6921    5.4888   23.4773 C   0  0  0  0  0  0  0  0  0  0  0  0
    8.1447    4.2789   23.5921 N   0  0  0  0  0  0  0  0  0  0  0  0
    7.3081    3.9960   22.5896 C   0  0  0  0  0  0  0  0  0  0  0  0
    6.6226    2.6538   22.6092 C   0  0  0  0  0  0  0  0  0  0  0  0
    7.4708    1.6504   21.9531 N   0  0  0  0  0  0  0  0  0  0  0  0
    8.7643    1.5245   22.4691 C   0  0  0  0  0  0  0  0  0  0  0  0
    9.0325    1.9883   23.5712 O   0  0  0  0  0  0  0  0  0  0  0  0
    9.7086    0.8627   21.7349 N   0  0  0  0  0  0  0  0  0  0  0  0
   11.0548    0.6613   22.1794 C   0  0  0  0  0  0  0  0  0  0  0  0
   11.5507   -0.6510   22.2858 C   0  0  0  0  0  0  0  0  0  0  0  0
   10.6379   -1.8481   22.0695 C   0  0  0  0  0  0  0  0  0  0  0  0
    9.4979   -1.9334   23.0691 C   0  0  0  0  0  0  0  0  0  0  0  0
    9.2774   -3.2988   23.5239 N   0  0  0  0  0  0  0  0  0  0  0  0
    8.0697   -3.7757   23.8132 C   0  0  0  0  0  0  0  0  0  0  0  0
    7.0433   -3.1094   23.7223 O   0  0  0  0  0  0  0  0  0  0  0  0
    8.0333   -5.2204   24.2821 C   0  0  0  0  0  0  0  0  0  0  0  0
    6.8931   -5.9843   23.7699 N   0  0  0  0  0  0  0  0  0  0  0  0
    6.7456   -5.7604   22.3265 C   0  0  0  0  0  0  0  0  0  0  0  0
    5.5971   -6.5583   21.7635 C   0  0  0  0  0  0  0  0  0  0  0  0
    4.3033   -6.2425   22.4669 C   0  0  0  0  0  0  0  0  0  0  0  0
    4.4797   -6.3963   23.9655 C   0  0  0  0  0  0  0  0  0  0  0  0
    5.6535   -5.5914   24.4549 C   0  0  0  0  0  0  0  0  0  0  0  0
   12.9035   -0.8284   22.6134 C   0  0  0  0  0  0  0  0  0  0  0  0
   13.5797   -2.1726   22.6906 C   0  0  0  0  0  0  0  0  0  0  0  0
   13.6478    0.3088   22.8887 C   0  0  0  0  0  0  0  0  0  0  0  0
   13.1690    1.5543   22.8732 N   0  0  0  0  0  0  0  0  0  0  0  0
   11.8807    1.7629   22.5151 C   0  0  0  0  0  0  0  0  0  0  0  0
   11.4968    3.1858   22.5198 C   0  0  0  0  0  0  0  0  0  0  0  0
   12.1355    4.2306   22.9661 C   0  0  0  0  0  0  0  0  0  0  0  0
    6.8512    0.9145   20.9007 C   0  0  0  0  0  0  0  0  0  0  0  0
    6.2294    1.5121   19.8030 C   0  0  0  0  0  0  0  0  0  0  0  0
    5.6577    0.7218   18.8165 C   0  0  0  0  0  0  0  0  0  0  0  0
    4.9804    1.3455   17.6205 C   0  0  0  0  0  0  0  0  0  0  0  0
    5.7207   -0.6520   18.9630 C   0  0  0  0  0  0  0  0  0  0  0  0
    6.3463   -1.1704   20.0753 C   0  0  0  0  0  0  0  0  0  0  0  0
    6.9018   -0.4147   21.0292 N   0  0  0  0  0  0  0  0  0  0  0  0
    7.0071    4.7889   21.5592 N   0  0  0  0  0  0  0  0  0  0  0  0
  1  2  1  0
  2  3  1  0
  3  4  2  0
  4  5  1  0
  5  6  2  0
  6  7  1  0
  7  8  1  0
  8  9  1  0
  9 10  1  0
 10 11  2  0
 10 12  1  0
 12 13  1  0
 13 14  1  0
 14 15  1  0
 15 16  1  0
 16 17  1  0
 17 18  1  0
 18 19  2  0
 18 20  1  0
 20 21  1  0
 21 22  1  0
 22 23  1  0
 23 24  1  0
 24 25  1  0
 25 26  1  0
 14 27  2  0
 27 28  1  0
 27 29  1  0
 29 30  2  0
 30 31  1  0
 31 32  1  0
 32 33  2  0
  9 34  1  0
 34 35  2  0
 35 36  1  0
 36 37  1  0
 36 38  2  0
 38 39  1  0
 39 40  2  0
  7 41  2  0
 41  3  1  0
 31 13  2  0
 40 34  1  0
 26 21  1  0
M  END
