CVD-0000683|dock_bobby27042020.26|mol2|30|dock2
     RDKit          3D

 26 28  0  0  0  0  0  0  0  0999 V2000
    6.0268   -0.7190   18.7133 C   0  0  0  0  0  0  0  0  0  0  0  0
    7.5386    0.0832   19.0846 S   0  0  0  0  0  0  0  0  0  0  0  0
    7.2614    1.1562   19.9889 O   0  0  0  0  0  0  0  0  0  0  0  0
    8.1970    0.3826   17.8506 O   0  0  0  0  0  0  0  0  0  0  0  0
    8.4648   -0.9645   19.8689 N   0  0  0  0  0  0  0  0  0  0  0  0
    8.2533   -1.1984   21.3011 C   0  0  0  0  0  0  0  0  0  0  0  0
    9.5512   -1.1341   22.1173 C   0  0  0  0  0  0  0  0  0  0  0  0
   10.0208    0.3194   22.1432 C   0  0  0  0  0  0  0  0  0  0  0  0
    9.3136    1.1158   21.5559 O   0  0  0  0  0  0  0  0  0  0  0  0
   11.1637    0.7878   22.7469 N   0  0  0  0  0  0  0  0  0  0  0  0
   12.0700   -0.0803   23.5062 C   0  0  0  0  0  0  0  0  0  0  0  0
   13.4754    0.0878   22.9862 C   0  0  0  0  0  0  0  0  0  0  0  0
   13.9120    1.4363   23.1586 O   0  0  0  0  0  0  0  0  0  0  0  0
   12.9828    2.3994   22.8445 C   0  0  0  0  0  0  0  0  0  0  0  0
   13.4633    3.6995   22.8017 C   0  0  0  0  0  0  0  0  0  0  0  0
   12.5764    4.6991   22.4769 C   0  0  0  0  0  0  0  0  0  0  0  0
   11.2941    4.4755   22.2055 N   0  0  0  0  0  0  0  0  0  0  0  0
   10.8388    3.2173   22.2492 C   0  0  0  0  0  0  0  0  0  0  0  0
   11.6350    2.1187   22.5648 C   0  0  0  0  0  0  0  0  0  0  0  0
    9.2977   -1.6340   23.5328 C   0  0  0  0  0  0  0  0  0  0  0  0
    8.7945   -0.7802   24.5047 C   0  0  0  0  0  0  0  0  0  0  0  0
    8.5548   -1.2214   25.7938 C   0  0  0  0  0  0  0  0  0  0  0  0
    8.8264   -2.5288   26.0922 C   0  0  0  0  0  0  0  0  0  0  0  0
    8.5927   -2.9714   27.3571 F   0  0  0  0  0  0  0  0  0  0  0  0
    9.3235   -3.4090   25.1704 C   0  0  0  0  0  0  0  0  0  0  0  0
    9.5588   -2.9513   23.8860 C   0  0  0  0  0  0  0  0  0  0  0  0
  1  2  1  0
  2  3  2  0
  2  4  2  0
  2  5  1  0
  5  6  1  0
  7  6  1  0
  7  8  1  0
  8  9  2  0
  8 10  1  0
 10 11  1  0
 11 12  1  0
 12 13  1  0
 13 14  1  0
 14 15  2  0
 15 16  1  0
 16 17  2  0
 17 18  1  0
 18 19  2  0
  7 20  1  0
 20 21  2  0
 21 22  1  0
 22 23  2  0
 23 24  1  0
 23 25  1  0
 25 26  2  0
 19 10  1  0
 26 20  1  0
 19 14  1  0
M  END
