CVD-0003590|dock_bobby27042020.30|mol2|26|dock1
     RDKit          3D

 20 22  0  0  0  0  0  0  0  0999 V2000
    9.0488   -2.4599   21.3855 Cl  0  0  0  0  0  0  0  0  0  0  0  0
    8.9831   -0.9585   22.3187 C   0  0  0  0  0  0  0  0  0  0  0  0
   10.3107   -0.2182   22.3349 C   0  0  0  0  0  0  0  0  0  0  0  0
   11.2984   -0.7517   21.8477 O   0  0  0  0  0  0  0  0  0  0  0  0
   10.3460    1.0341   22.8858 N   0  0  0  0  0  0  0  0  0  0  0  0
    9.1469    1.5484   23.5453 C   0  0  0  0  0  0  0  0  0  0  0  0
    8.6905    2.7818   22.8077 C   0  0  0  0  0  0  0  0  0  0  0  0
    9.7245    3.7674   22.7411 O   0  0  0  0  0  0  0  0  0  0  0  0
   11.0189    3.3330   22.6574 C   0  0  0  0  0  0  0  0  0  0  0  0
   11.9652    4.3330   22.4856 C   0  0  0  0  0  0  0  0  0  0  0  0
   13.3074    4.0199   22.4420 C   0  0  0  0  0  0  0  0  0  0  0  0
   13.7060    2.7036   22.5702 C   0  0  0  0  0  0  0  0  0  0  0  0
   12.7736    1.6781   22.7441 C   0  0  0  0  0  0  0  0  0  0  0  0
   13.3574    0.3598   23.1459 C   0  0  0  0  0  0  0  0  0  0  0  0
   13.3713   -0.0578   24.4724 C   0  0  0  0  0  0  0  0  0  0  0  0
   13.9231   -1.2813   24.8096 C   0  0  0  0  0  0  0  0  0  0  0  0
   14.4514   -2.0611   23.8067 C   0  0  0  0  0  0  0  0  0  0  0  0
   14.4577   -1.6940   22.5249 N   0  0  0  0  0  0  0  0  0  0  0  0
   13.9205   -0.5089   22.2195 C   0  0  0  0  0  0  0  0  0  0  0  0
   11.3924    1.9925   22.7897 C   0  0  0  0  0  0  0  0  0  0  0  0
  1  2  1  0
  2  3  1  0
  3  4  2  0
  3  5  1  0
  5  6  1  0
  6  7  1  0
  7  8  1  0
  8  9  1  0
  9 10  2  0
 10 11  1  0
 11 12  2  0
 12 13  1  0
 13 14  1  0
 14 15  2  0
 15 16  1  0
 16 17  2  0
 17 18  1  0
 18 19  2  0
 13 20  2  0
 20  5  1  0
 20  9  1  0
 19 14  1  0
M  END
