CVD-0000723|dock_bobby27042020.12|mol2|9|dock1
     RDKit          3D

 19 21  0  0  0  0  0  0  0  0999 V2000
   13.7134   -2.1772   22.8421 N   0  0  0  0  0  0  0  0  0  0  0  0
   12.7385   -1.3244   22.5683 C   0  0  0  0  0  0  0  0  0  0  0  0
   11.9934   -1.4644   21.5960 O   0  0  0  0  0  0  0  0  0  0  0  0
   12.5790   -0.1420   23.5047 C   0  0  0  0  0  0  0  0  0  0  0  0
   13.3898    1.0003   22.9368 C   0  0  0  0  0  0  0  0  0  0  0  0
   12.3871    2.1150   22.7583 C   0  0  0  0  0  0  0  0  0  0  0  0
   12.7840    3.4404   22.1641 C   0  0  0  0  0  0  0  0  0  0  0  0
   13.2091    4.5016   23.1824 C   0  0  0  0  0  0  0  0  0  0  0  0
   13.6595    5.7040   22.1554 C   0  0  0  0  0  0  0  0  0  0  0  0
   12.8443    5.9978   23.3627 C   0  0  0  0  0  0  0  0  0  0  0  0
   11.1728    1.7593   23.1945 C   0  0  0  0  0  0  0  0  0  0  0  0
   11.1500    0.3243   23.6639 C   0  0  0  0  0  0  0  0  0  0  0  0
   10.1564   -0.5653   22.9341 C   0  0  0  0  0  0  0  0  0  0  0  0
    9.7866   -1.7965   23.4567 C   0  0  0  0  0  0  0  0  0  0  0  0
    8.8839   -2.6062   22.7882 C   0  0  0  0  0  0  0  0  0  0  0  0
    8.3378   -2.1945   21.5842 C   0  0  0  0  0  0  0  0  0  0  0  0
    8.7106   -0.9717   21.0707 C   0  0  0  0  0  0  0  0  0  0  0  0
    8.0325   -0.4411   19.5571 Cl  0  0  0  0  0  0  0  0  0  0  0  0
    9.6092   -0.1558   21.7273 C   0  0  0  0  0  0  0  0  0  0  0  0
  1  2  1  0
  2  3  2  0
  4  2  1  0
  4  5  1  0
  5  6  1  0
  6  7  1  0
  7  8  1  0
  8  9  1  0
  9 10  1  0
  6 11  2  0
 11 12  1  0
 12 13  1  0
 13 14  2  0
 14 15  1  0
 15 16  2  0
 16 17  1  0
 17 18  1  0
 17 19  2  0
 12  4  1  0
 19 13  1  0
 10  8  1  0
M  END
