CVD-0001092|dock_bobby27042020.10|mol2|44|dock1
     RDKit          3D

 22 23  0  0  0  0  0  0  0  0999 V2000
   13.6511    4.9735   21.9043 C   0  0  0  0  0  0  0  0  0  0  0  0
   13.9410    3.6050   22.4030 C   0  0  0  0  0  0  0  0  0  0  0  0
   12.8368    2.7708   22.0381 O   0  0  0  0  0  0  0  0  0  0  0  0
   12.7625    1.4975   22.5471 C   0  0  0  0  0  0  0  0  0  0  0  0
   13.8615    0.7143   22.8875 C   0  0  0  0  0  0  0  0  0  0  0  0
   13.6863   -0.5628   23.3957 C   0  0  0  0  0  0  0  0  0  0  0  0
   12.4219   -1.0800   23.5731 C   0  0  0  0  0  0  0  0  0  0  0  0
   11.3137   -0.3213   23.2425 C   0  0  0  0  0  0  0  0  0  0  0  0
   11.4592    0.9763   22.7253 C   0  0  0  0  0  0  0  0  0  0  0  0
   10.2777    1.7758   22.3766 C   0  0  0  0  0  0  0  0  0  0  0  0
    9.2044    1.3569   21.7117 C   0  0  0  0  0  0  0  0  0  0  0  0
    8.0491    2.2213   21.4014 C   0  0  0  0  0  0  0  0  0  0  0  0
    8.0403    3.3733   21.8493 O   0  0  0  0  0  0  0  0  0  0  0  0
    6.8935    1.8115   20.5600 C   0  0  0  0  0  0  0  0  0  0  0  0
    7.0538    0.7106   19.7173 C   0  0  0  0  0  0  0  0  0  0  0  0
    6.0197    0.1949   18.9516 C   0  0  0  0  0  0  0  0  0  0  0  0
    6.2389   -1.0047   18.0620 C   0  0  0  0  0  0  0  0  0  0  0  0
    4.7783    0.8034   19.0305 C   0  0  0  0  0  0  0  0  0  0  0  0
    4.5979    1.9279   19.8207 C   0  0  0  0  0  0  0  0  0  0  0  0
    2.7026    2.8217   19.8939 I   0  0  0  0  0  0  0  0  0  0  0  0
    5.6449    2.4811   20.5624 C   0  0  0  0  0  0  0  0  0  0  0  0
    5.4071    3.6458   21.2330 O   0  0  0  0  0  0  0  0  0  0  0  0
  1  2  1  0
  2  3  1  0
  3  4  1  0
  4  5  2  0
  5  6  1  0
  6  7  2  0
  7  8  1  0
  8  9  2  0
  9 10  1  0
 10 11  2  0
 11 12  1  0
 12 13  2  0
 12 14  1  0
 14 15  2  0
 15 16  1  0
 16 17  1  0
 16 18  2  0
 18 19  1  0
 19 20  1  0
 19 21  2  0
 21 22  1  0
  9  4  1  0
 21 14  1  0
M  END
