CVD-0004048|dock_bobby27042020.29|mol2|1|dock3
     RDKit          3D

 23 26  0  0  0  0  0  0  0  0999 V2000
    5.4278   -0.4214   19.3149 C   0  0  0  0  0  0  0  0  0  0  0  0
    6.6700    0.0656   20.0085 C   0  0  0  0  0  0  0  0  0  0  0  0
    6.8851    1.4830   20.2312 C   0  0  0  0  0  0  0  0  0  0  0  0
    7.9330    1.9991   20.8323 N   0  0  0  0  0  0  0  0  0  0  0  0
    8.8629    1.1156   21.2700 C   0  0  0  0  0  0  0  0  0  0  0  0
   10.1292    1.2838   21.9548 C   0  0  0  0  0  0  0  0  0  0  0  0
   10.7372    2.5884   22.3214 C   0  0  0  0  0  0  0  0  0  0  0  0
   10.0643    3.7961   22.5778 C   0  0  0  0  0  0  0  0  0  0  0  0
   10.8989    4.7781   22.8763 N   0  0  0  0  0  0  0  0  0  0  0  0
   12.1269    4.2142   22.7972 N   0  0  0  0  0  0  0  0  0  0  0  0
   13.3132    5.0102   23.0879 C   0  0  0  0  0  0  0  0  0  0  0  0
   12.0718    2.9154   22.4770 C   0  0  0  0  0  0  0  0  0  0  0  0
   10.5922   -0.0613   22.1472 C   0  0  0  0  0  0  0  0  0  0  0  0
    9.7585   -0.9456   21.5938 N   0  0  0  0  0  0  0  0  0  0  0  0
    8.7047   -0.2379   21.0825 N   0  0  0  0  0  0  0  0  0  0  0  0
    7.6274   -0.7728   20.4634 C   0  0  0  0  0  0  0  0  0  0  0  0
   11.7671   -0.6459   22.8297 C   0  0  0  0  0  0  0  0  0  0  0  0
   12.3685   -1.7769   22.2876 C   0  0  0  0  0  0  0  0  0  0  0  0
   13.4841   -2.3477   22.8737 C   0  0  0  0  0  0  0  0  0  0  0  0
   13.9859   -1.7747   24.0093 C   0  0  0  0  0  0  0  0  0  0  0  0
   15.0922   -2.3209   24.5822 F   0  0  0  0  0  0  0  0  0  0  0  0
   13.4193   -0.6755   24.5932 C   0  0  0  0  0  0  0  0  0  0  0  0
   12.2948   -0.1228   24.0060 C   0  0  0  0  0  0  0  0  0  0  0  0
  1  2  1  0
  2  3  1  0
  3  4  2  0
  4  5  1  0
  5  6  2  0
  6  7  1  0
  7  8  1  0
  8  9  2  0
  9 10  1  0
 10 11  1  0
 10 12  1  0
  6 13  1  0
 13 14  2  0
 14 15  1  0
 15 16  1  0
 13 17  1  0
 17 18  2  0
 18 19  1  0
 19 20  2  0
 20 21  1  0
 20 22  1  0
 22 23  2  0
 16  2  2  0
 23 17  1  0
 15  5  1  0
 12  7  2  0
M  END
