CVD-0001042|dock_bobby27042020.25|mol2|17|dock3
     RDKit          3D

 33 36  0  0  0  0  0  0  0  0999 V2000
    7.2175    8.7650   23.0769 O   0  0  0  0  0  0  0  0  0  0  0  0
    7.0005    8.0079   22.1328 N   0  0  0  0  0  0  0  0  0  0  0  0
    6.3523    8.3137   21.1463 O   0  0  0  0  0  0  0  0  0  0  0  0
    7.5567    6.6501   22.1969 C   0  0  0  0  0  0  0  0  0  0  0  0
    8.8111    6.4424   22.7473 C   0  0  0  0  0  0  0  0  0  0  0  0
    9.3316    5.1618   22.8057 C   0  0  0  0  0  0  0  0  0  0  0  0
    8.6107    4.0770   22.3182 C   0  0  0  0  0  0  0  0  0  0  0  0
    7.3531    4.3025   21.7689 C   0  0  0  0  0  0  0  0  0  0  0  0
    6.8256    5.5801   21.7068 C   0  0  0  0  0  0  0  0  0  0  0  0
    9.1679    2.7168   22.3823 C   0  0  0  0  0  0  0  0  0  0  0  0
   10.4758    2.3176   22.6934 C   0  0  0  0  0  0  0  0  0  0  0  0
   10.5011    0.9384   22.6243 C   0  0  0  0  0  0  0  0  0  0  0  0
   11.6842    0.0888   22.8863 C   0  0  0  0  0  0  0  0  0  0  0  0
   12.5357    0.2784   23.9718 C   0  0  0  0  0  0  0  0  0  0  0  0
   13.6138   -0.5613   24.1895 C   0  0  0  0  0  0  0  0  0  0  0  0
   13.8440   -1.5725   23.2981 C   0  0  0  0  0  0  0  0  0  0  0  0
   14.9025   -2.4006   23.5094 F   0  0  0  0  0  0  0  0  0  0  0  0
   13.0539   -1.7838   22.2026 C   0  0  0  0  0  0  0  0  0  0  0  0
   11.9723   -0.9451   22.0013 C   0  0  0  0  0  0  0  0  0  0  0  0
    9.2266    0.5575   22.2689 N   0  0  0  0  0  0  0  0  0  0  0  0
    8.3948    1.6572   22.1254 N   0  0  0  0  0  0  0  0  0  0  0  0
    8.6568   -0.7266   21.9809 C   0  0  0  0  0  0  0  0  0  0  0  0
    7.6973   -0.7641   20.9709 C   0  0  0  0  0  0  0  0  0  0  0  0
    7.0184   -1.9361   20.6988 C   0  0  0  0  0  0  0  0  0  0  0  0
    7.2907   -3.0758   21.4330 C   0  0  0  0  0  0  0  0  0  0  0  0
    8.2693   -3.0720   22.4125 C   0  0  0  0  0  0  0  0  0  0  0  0
    8.9959   -1.9125   22.6695 C   0  0  0  0  0  0  0  0  0  0  0  0
   10.0797   -2.0123   23.6391 N   0  0  0  0  0  0  0  0  0  0  0  0
   10.8991   -2.9236   23.5491 O   0  0  0  0  0  0  0  0  0  0  0  0
   10.1072   -1.2084   24.5556 O   0  0  0  0  0  0  0  0  0  0  0  0
    6.5348   -4.3072   21.1687 N   0  0  0  0  0  0  0  0  0  0  0  0
    5.6466   -4.2686   20.3197 O   0  0  0  0  0  0  0  0  0  0  0  0
    6.8280   -5.3047   21.8058 O   0  0  0  0  0  0  0  0  0  0  0  0
  1  2  1  0
  2  3  2  0
  2  4  1  0
  4  5  2  0
  5  6  1  0
  6  7  2  0
  7  8  1  0
  8  9  2  0
  7 10  1  0
 10 11  1  0
 11 12  2  0
 12 13  1  0
 13 14  2  0
 14 15  1  0
 15 16  2  0
 16 17  1  0
 16 18  1  0
 18 19  2  0
 12 20  1  0
 20 21  1  0
 20 22  1  0
 22 23  2  0
 23 24  1  0
 24 25  2  0
 25 26  1  0
 26 27  2  0
 27 28  1  0
 28 29  1  0
 28 30  2  0
 25 31  1  0
 31 32  1  0
 31 33  2  0
  9  4  1  0
 21 10  2  0
 27 22  1  0
 19 13  1  0
M  CHG  6   1  -1   2   1  28   1  29  -1  31   1  32  -1
M  END
