CVD-0000381|dock_bobby27042020.13|mol2|13|dock1
     RDKit          3D

 30 32  0  0  0  0  0  0  0  0999 V2000
    6.4027    0.6031   18.9178 C   0  0  0  0  0  0  0  0  0  0  0  0
    5.5324   -0.2171   19.8178 C   0  0  0  0  0  0  0  0  0  0  0  0
    5.7450   -1.6397   19.6100 N   0  0  0  0  0  0  0  0  0  0  0  0
    6.3853   -2.4424   20.5029 C   0  0  0  0  0  0  0  0  0  0  0  0
    7.4760   -1.9585   21.2236 C   0  0  0  0  0  0  0  0  0  0  0  0
    8.0926   -2.7976   22.1483 C   0  0  0  0  0  0  0  0  0  0  0  0
    9.1938   -2.4109   22.9563 N   0  0  0  0  0  0  0  0  0  0  0  0
    9.2661   -1.5823   24.0263 C   0  0  0  0  0  0  0  0  0  0  0  0
    8.2683   -0.9225   24.6962 C   0  0  0  0  0  0  0  0  0  0  0  0
    6.9523   -0.9460   24.4714 F   0  0  0  0  0  0  0  0  0  0  0  0
    8.7880    0.0451   25.9972 S   0  0  0  0  0  0  0  0  0  0  0  0
   10.4025   -0.4291   25.7019 C   0  0  0  0  0  0  0  0  0  0  0  0
   10.5241   -1.2815   24.6506 C   0  0  0  0  0  0  0  0  0  0  0  0
   11.8484   -1.8377   24.1948 C   0  0  0  0  0  0  0  0  0  0  0  0
   13.0075   -1.7355   25.1704 C   0  0  0  0  0  0  0  0  0  0  0  0
   14.1764   -2.1984   24.3566 C   0  0  0  0  0  0  0  0  0  0  0  0
   13.9014   -1.7634   22.8957 C   0  0  0  0  0  0  0  0  0  0  0  0
   12.4409   -1.2255   22.8899 C   0  0  0  0  0  0  0  0  0  0  0  0
   12.3227    0.2858   22.8193 C   0  0  0  0  0  0  0  0  0  0  0  0
   13.2881    1.0044   23.0597 O   0  0  0  0  0  0  0  0  0  0  0  0
   11.0735    0.7191   22.4761 N   0  0  0  0  0  0  0  0  0  0  0  0
   10.5282    1.9788   22.3012 C   0  0  0  0  0  0  0  0  0  0  0  0
   11.2388    2.9804   22.4670 O   0  0  0  0  0  0  0  0  0  0  0  0
    9.1029    2.1327   21.9177 C   0  0  0  0  0  0  0  0  0  0  0  0
    8.5004    3.2897   21.9945 C   0  0  0  0  0  0  0  0  0  0  0  0
    7.6079   -4.1120   22.2791 C   0  0  0  0  0  0  0  0  0  0  0  0
    6.5170   -4.5039   21.4934 C   0  0  0  0  0  0  0  0  0  0  0  0
    5.9095   -3.6839   20.6312 N   0  0  0  0  0  0  0  0  0  0  0  0
    8.1981   -5.0528   23.1959 C   0  0  0  0  0  0  0  0  0  0  0  0
    8.6505   -5.8246   23.9063 N   0  0  0  0  0  0  0  0  0  0  0  0
  1  2  1  0
  2  3  1  0
  3  4  1  0
  4  5  2  0
  5  6  1  0
  6  7  1  0
  7  8  1  0
  8  9  2  0
  9 10  1  0
  9 11  1  0
 11 12  1  0
 12 13  2  0
 14 13  1  0
 14 15  1  0
 15 16  1  0
 16 17  1  0
 17 18  1  0
 18 19  1  0
 19 20  2  0
 19 21  1  0
 21 22  1  0
 22 23  2  0
 22 24  1  0
 24 25  2  0
  6 26  2  0
 26 27  1  0
 27 28  2  0
 26 29  1  0
 29 30  3  0
 28  4  1  0
 13  8  1  0
 18 14  1  0
M  END
