CVD-0002843|dock_bobby27042020.47|mol2|13|dock1
     RDKit          3D

 25 27  0  0  0  0  0  0  0  0999 V2000
    5.1055    1.9650   21.8019 O   0  0  0  0  0  0  0  0  0  0  0  0
    4.8585    0.7092   21.1935 C   0  0  0  0  0  0  0  0  0  0  0  0
    5.5204    0.5928   19.8418 C   0  0  0  0  0  0  0  0  0  0  0  0
    5.1797    1.5003   18.8436 C   0  0  0  0  0  0  0  0  0  0  0  0
    5.7552    1.3821   17.5951 C   0  0  0  0  0  0  0  0  0  0  0  0
    6.6326    0.4320   17.2758 N   0  0  0  0  0  0  0  0  0  0  0  0
    6.9685   -0.4294   18.2399 C   0  0  0  0  0  0  0  0  0  0  0  0
    6.4636   -0.4046   19.5386 C   0  0  0  0  0  0  0  0  0  0  0  0
    6.9787   -1.4465   20.4712 C   0  0  0  0  0  0  0  0  0  0  0  0
    8.2426   -1.4027   21.0546 C   0  0  0  0  0  0  0  0  0  0  0  0
    8.6432   -2.4081   21.9242 C   0  0  0  0  0  0  0  0  0  0  0  0
   10.0080   -2.3722   22.5683 C   0  0  0  0  0  0  0  0  0  0  0  0
   10.2926   -1.0460   23.2690 C   0  0  0  0  0  0  0  0  0  0  0  0
   11.6566   -1.0172   23.9097 C   0  0  0  0  0  0  0  0  0  0  0  0
   11.9284   -0.5771   25.1863 C   0  0  0  0  0  0  0  0  0  0  0  0
   10.8455    0.0550   26.3523 Cl  0  0  0  0  0  0  0  0  0  0  0  0
   13.2376   -0.7020   25.4631 N   0  0  0  0  0  0  0  0  0  0  0  0
   13.8552   -1.2274   24.3780 C   0  0  0  0  0  0  0  0  0  0  0  0
   12.9211   -1.4379   23.3814 C   0  0  0  0  0  0  0  0  0  0  0  0
   13.3066   -2.0076   22.0588 C   0  0  0  0  0  0  0  0  0  0  0  0
   12.7183   -1.5774   20.9711 O   0  0  0  0  0  0  0  0  0  0  0  0
   14.1698   -2.8633   21.9958 O   0  0  0  0  0  0  0  0  0  0  0  0
    7.7563   -3.4413   22.1741 C   0  0  0  0  0  0  0  0  0  0  0  0
    6.5246   -3.4253   21.5526 C   0  0  0  0  0  0  0  0  0  0  0  0
    6.1275   -2.4594   20.7145 N   0  0  0  0  0  0  0  0  0  0  0  0
  1  2  1  0
  2  3  1  0
  3  4  2  0
  4  5  1  0
  5  6  2  0
  6  7  1  0
  7  8  2  0
  8  9  1  0
  9 10  2  0
 10 11  1  0
 11 12  1  0
 12 13  1  0
 13 14  1  0
 14 15  2  0
 15 16  1  0
 15 17  1  0
 17 18  1  0
 18 19  2  0
 19 20  1  0
 20 21  1  0
 20 22  2  0
 11 23  2  0
 23 24  1  0
 24 25  2  0
  8  3  1  0
 25  9  1  0
 19 14  1  0
M  END
