CVD-0003897|dock_bobby27042020.29|mol2|24|dock2
     RDKit          3D

 26 28  0  0  0  0  0  0  0  0999 V2000
    7.8832   -5.9096   26.0854 C   0  0  0  0  0  0  0  0  0  0  0  0
    7.6715   -4.5112   26.2695 O   0  0  0  0  0  0  0  0  0  0  0  0
    8.0846   -3.6171   25.3134 C   0  0  0  0  0  0  0  0  0  0  0  0
    8.2886   -3.9919   23.9936 C   0  0  0  0  0  0  0  0  0  0  0  0
    8.7067   -3.0535   23.0660 C   0  0  0  0  0  0  0  0  0  0  0  0
    8.9628   -1.7424   23.4453 C   0  0  0  0  0  0  0  0  0  0  0  0
    8.7335   -1.3750   24.7644 C   0  0  0  0  0  0  0  0  0  0  0  0
    8.2987   -2.3038   25.6922 C   0  0  0  0  0  0  0  0  0  0  0  0
    9.4508   -0.7708   22.5149 N   0  0  0  0  0  0  0  0  0  0  0  0
   10.9193   -0.5731   22.4026 C   0  0  0  0  0  0  0  0  0  0  0  0
   11.4667    0.1987   23.5950 C   0  0  0  0  0  0  0  0  0  0  0  0
   12.9698    0.4249   23.4069 C   0  0  0  0  0  0  0  0  0  0  0  0
   13.7424   -0.8812   23.2120 C   0  0  0  0  0  0  0  0  0  0  0  0
   13.8084   -1.6589   24.4112 O   0  0  0  0  0  0  0  0  0  0  0  0
   13.1436   -1.6688   22.0529 C   0  0  0  0  0  0  0  0  0  0  0  0
   11.6416   -1.9034   22.2108 C   0  0  0  0  0  0  0  0  0  0  0  0
    8.5641   -0.0153   21.7864 C   0  0  0  0  0  0  0  0  0  0  0  0
    8.9790    0.8395   21.0269 O   0  0  0  0  0  0  0  0  0  0  0  0
    7.0569   -0.2162   21.8981 C   0  0  0  0  0  0  0  0  0  0  0  0
    6.4420    0.8853   22.7578 C   0  0  0  0  0  0  0  0  0  0  0  0
    6.4601   -0.2432   20.4976 C   0  0  0  0  0  0  0  0  0  0  0  0
    6.0347   -1.4362   19.9303 C   0  0  0  0  0  0  0  0  0  0  0  0
    5.4949   -1.4606   18.6552 C   0  0  0  0  0  0  0  0  0  0  0  0
    5.3746   -0.2934   17.9318 C   0  0  0  0  0  0  0  0  0  0  0  0
    5.7942    0.8987   18.4824 C   0  0  0  0  0  0  0  0  0  0  0  0
    6.3342    0.9241   19.7574 C   0  0  0  0  0  0  0  0  0  0  0  0
  1  2  1  0
  2  3  1  0
  3  4  2  0
  4  5  1  0
  5  6  2  0
  6  7  1  0
  7  8  2  0
  6  9  1  0
  9 10  1  0
 10 11  1  0
 11 12  1  0
 12 13  1  0
 13 14  1  0
 13 15  1  0
 15 16  1  0
  9 17  1  0
 17 18  2  0
 17 19  1  0
 19 20  1  0
 19 21  1  0
 21 22  2  0
 22 23  1  0
 23 24  2  0
 24 25  1  0
 25 26  2  0
  8  3  1  0
 16 10  1  0
 26 21  1  0
M  END
