CVD-0000010|dock_bobby27042020.28|mol2|41|dock3
     RDKit          3D

 22 24  0  0  0  0  0  0  0  0999 V2000
    6.9787   -3.7380   25.2641 C   0  0  0  0  0  0  0  0  0  0  0  0
    7.1942   -2.3733   25.7522 N   0  0  0  0  0  0  0  0  0  0  0  0
    7.6293   -1.4662   24.6830 C   0  0  0  0  0  0  0  0  0  0  0  0
    8.9986   -1.8064   24.1538 C   0  0  0  0  0  0  0  0  0  0  0  0
    9.1938   -2.6946   22.9601 C   0  0  0  0  0  0  0  0  0  0  0  0
    9.4852   -1.2128   22.8166 C   0  0  0  0  0  0  0  0  0  0  0  0
    8.4696   -0.3695   22.0379 C   0  0  0  0  0  0  0  0  0  0  0  0
    7.8915    0.5595   22.5846 O   0  0  0  0  0  0  0  0  0  0  0  0
    8.2976   -0.7520   20.7479 N   0  0  0  0  0  0  0  0  0  0  0  0
    7.4630   -0.2319   19.7267 C   0  0  0  0  0  0  0  0  0  0  0  0
    6.2593    0.3609   20.0858 C   0  0  0  0  0  0  0  0  0  0  0  0
    5.4285    0.8754   19.1062 C   0  0  0  0  0  0  0  0  0  0  0  0
    5.8245    0.7831   17.7924 C   0  0  0  0  0  0  0  0  0  0  0  0
    6.9725    0.2207   17.4147 N   0  0  0  0  0  0  0  0  0  0  0  0
    7.7686   -0.2735   18.3679 C   0  0  0  0  0  0  0  0  0  0  0  0
   10.9490   -0.8010   22.7361 C   0  0  0  0  0  0  0  0  0  0  0  0
   11.4671    0.1828   23.5697 C   0  0  0  0  0  0  0  0  0  0  0  0
   12.7995    0.5522   23.4931 C   0  0  0  0  0  0  0  0  0  0  0  0
   13.6402   -0.0587   22.5783 C   0  0  0  0  0  0  0  0  0  0  0  0
   13.1245   -1.0340   21.7536 C   0  0  0  0  0  0  0  0  0  0  0  0
   14.1695   -1.8118   20.5980 Cl  0  0  0  0  0  0  0  0  0  0  0  0
   11.7985   -1.4107   21.8204 C   0  0  0  0  0  0  0  0  0  0  0  0
  1  2  1  0
  2  3  1  0
  3  4  1  0
  4  5  1  0
  5  6  1  0
  6  7  1  0
  7  8  2  0
  7  9  1  0
  9 10  1  0
 10 11  2  0
 11 12  1  0
 12 13  2  0
 13 14  1  0
 14 15  2  0
  6 16  1  0
 16 17  2  0
 17 18  1  0
 18 19  2  0
 19 20  1  0
 20 21  1  0
 20 22  2  0
  6  4  1  0
 15 10  1  0
 22 16  1  0
M  END
