CVD-0001056|dock_bobby27042020.25|mol2|15|dock2
     RDKit          3D

 20 23  0  0  0  0  0  0  0  0999 V2000
    9.1422    3.2458   22.7542 Cl  0  0  0  0  0  0  0  0  0  0  0  0
    9.9587    1.7360   22.4954 C   0  0  0  0  0  0  0  0  0  0  0  0
   11.0446    1.6338   23.2022 N   0  0  0  0  0  0  0  0  0  0  0  0
   11.7873    0.4896   23.0931 C   0  0  0  0  0  0  0  0  0  0  0  0
   12.9741    0.3480   23.8491 C   0  0  0  0  0  0  0  0  0  0  0  0
   13.7205   -0.7892   23.7464 C   0  0  0  0  0  0  0  0  0  0  0  0
   13.3362   -1.8171   22.9092 C   0  0  0  0  0  0  0  0  0  0  0  0
   12.1991   -1.7217   22.1626 C   0  0  0  0  0  0  0  0  0  0  0  0
   11.3940   -0.5611   22.2369 C   0  0  0  0  0  0  0  0  0  0  0  0
   10.2039   -0.3813   21.4997 C   0  0  0  0  0  0  0  0  0  0  0  0
    9.4610    0.7679   21.6115 C   0  0  0  0  0  0  0  0  0  0  0  0
    8.2384    0.8241   20.7831 C   0  0  0  0  0  0  0  0  0  0  0  0
    7.3008    1.7204   20.8915 N   0  0  0  0  0  0  0  0  0  0  0  0
    6.3672    1.3746   19.9203 C   0  0  0  0  0  0  0  0  0  0  0  0
    5.1531    1.9555   19.5554 C   0  0  0  0  0  0  0  0  0  0  0  0
    4.4231    1.3761   18.5266 C   0  0  0  0  0  0  0  0  0  0  0  0
    4.8810    0.2479   17.8717 C   0  0  0  0  0  0  0  0  0  0  0  0
    6.0868   -0.3324   18.2311 C   0  0  0  0  0  0  0  0  0  0  0  0
    6.8075    0.2537   19.2591 C   0  0  0  0  0  0  0  0  0  0  0  0
    8.0193   -0.1169   19.8056 O   0  0  0  0  0  0  0  0  0  0  0  0
  1  2  1  0
  2  3  2  0
  3  4  1  0
  4  5  2  0
  5  6  1  0
  6  7  2  0
  7  8  1  0
  8  9  2  0
  9 10  1  0
 10 11  2  0
 11 12  1  0
 12 13  2  0
 13 14  1  0
 14 15  2  0
 15 16  1  0
 16 17  2  0
 17 18  1  0
 18 19  2  0
 19 20  1  0
 11  2  1  0
 20 12  1  0
  9  4  1  0
 19 14  1  0
M  END
