CVD-0000982|dock_bobby27042020.82|mol2|30|dock1
     RDKit          3D

 38 42  0  0  0  0  0  0  0  0999 V2000
   14.1430    6.4488   22.3201 C   0  0  0  0  0  0  0  0  0  0  0  0
   14.2594    5.1187   22.8215 O   0  0  0  0  0  0  0  0  0  0  0  0
   13.2313    4.2248   22.6543 C   0  0  0  0  0  0  0  0  0  0  0  0
   11.9142    4.6332   22.5169 C   0  0  0  0  0  0  0  0  0  0  0  0
   10.9173    3.6891   22.3462 C   0  0  0  0  0  0  0  0  0  0  0  0
   11.1964    2.3259   22.3074 C   0  0  0  0  0  0  0  0  0  0  0  0
   12.5267    1.9377   22.4569 C   0  0  0  0  0  0  0  0  0  0  0  0
   13.5305    2.8752   22.6238 C   0  0  0  0  0  0  0  0  0  0  0  0
   10.0698    1.3866   22.1131 C   0  0  0  0  0  0  0  0  0  0  0  0
    9.2182    1.5941   21.1209 N   0  0  0  0  0  0  0  0  0  0  0  0
    8.3112    0.5518   21.2164 C   0  0  0  0  0  0  0  0  0  0  0  0
    7.1914    0.1778   20.5029 C   0  0  0  0  0  0  0  0  0  0  0  0
    6.6363    1.1031   19.1447 Cl  0  0  0  0  0  0  0  0  0  0  0  0
    6.4811   -0.8964   20.8070 N   0  0  0  0  0  0  0  0  0  0  0  0
    6.9018   -1.6251   21.8581 C   0  0  0  0  0  0  0  0  0  0  0  0
    6.1367   -2.7462   22.1485 N   0  0  0  0  0  0  0  0  0  0  0  0
    6.3021   -3.7021   23.0951 C   0  0  0  0  0  0  0  0  0  0  0  0
    7.2219   -3.7349   23.9091 O   0  0  0  0  0  0  0  0  0  0  0  0
    5.2279   -4.7694   23.0752 C   0  0  0  0  0  0  0  0  0  0  0  0
    3.8924   -4.2689   23.6200 C   0  0  0  0  0  0  0  0  0  0  0  0
    2.8566   -5.3746   23.5140 C   0  0  0  0  0  0  0  0  0  0  0  0
    3.2716   -6.5503   24.2723 N   0  0  0  0  0  0  0  0  0  0  0  0
    2.2251   -7.5815   24.2446 C   0  0  0  0  0  0  0  0  0  0  0  0
    1.4900   -7.6402   22.9271 C   0  0  0  0  0  0  0  0  0  0  0  0
    0.3176   -6.9245   22.7375 C   0  0  0  0  0  0  0  0  0  0  0  0
   -0.3599   -6.9708   21.5320 C   0  0  0  0  0  0  0  0  0  0  0  0
    0.1384   -7.7429   20.4952 C   0  0  0  0  0  0  0  0  0  0  0  0
    1.3092   -8.4631   20.6674 C   0  0  0  0  0  0  0  0  0  0  0  0
    1.9755   -8.4068   21.8786 C   0  0  0  0  0  0  0  0  0  0  0  0
   -0.5751   -7.7976   19.2125 N   0  0  0  0  0  0  0  0  0  0  0  0
   -0.0888   -8.4774   18.3110 O   0  0  0  0  0  0  0  0  0  0  0  0
   -1.6128   -7.1659   19.1087 O   0  0  0  0  0  0  0  0  0  0  0  0
    4.5213   -7.0635   23.7002 C   0  0  0  0  0  0  0  0  0  0  0  0
    5.6385   -6.0375   23.8092 C   0  0  0  0  0  0  0  0  0  0  0  0
    7.9693   -1.3765   22.6371 N   0  0  0  0  0  0  0  0  0  0  0  0
    8.6295   -0.2759   22.2679 C   0  0  0  0  0  0  0  0  0  0  0  0
    9.7522    0.2606   22.8493 N   0  0  0  0  0  0  0  0  0  0  0  0
   10.4075   -0.3633   23.9952 C   0  0  0  0  0  0  0  0  0  0  0  0
  1  2  1  0
  2  3  1  0
  3  4  2  0
  4  5  1  0
  5  6  2  0
  6  7  1  0
  7  8  2  0
  6  9  1  0
  9 10  2  0
 10 11  1  0
 11 12  2  0
 12 13  1  0
 12 14  1  0
 14 15  2  0
 15 16  1  0
 16 17  1  0
 17 18  2  0
 17 19  1  0
 19 20  1  0
 20 21  1  0
 21 22  1  0
 22 23  1  0
 23 24  1  0
 24 25  2  0
 25 26  1  0
 26 27  2  0
 27 28  1  0
 28 29  2  0
 27 30  1  0
 30 31  1  0
 30 32  2  0
 22 33  1  0
 33 34  1  0
 15 35  1  0
 35 36  2  0
 36 37  1  0
 37 38  1  0
  8  3  1  0
 37  9  1  0
 36 11  1  0
 34 19  1  0
 29 24  1  0
M  CHG  2  30   1  31  -1
M  END
