CVD-0003780|dock_bobby27042020.15|mol2|30|dock1
     RDKit          3D

 25 27  0  0  0  0  0  0  0  0999 V2000
    6.3345   -7.4608   28.4914 C   0  0  0  0  0  0  0  0  0  0  0  0
    7.0337   -6.6807   27.4049 C   0  0  0  0  0  0  0  0  0  0  0  0
    6.3332   -6.1879   26.3158 C   0  0  0  0  0  0  0  0  0  0  0  0
    6.9631   -5.4690   25.3152 C   0  0  0  0  0  0  0  0  0  0  0  0
    8.3270   -5.2345   25.3944 C   0  0  0  0  0  0  0  0  0  0  0  0
    8.9926   -4.5279   24.4235 O   0  0  0  0  0  0  0  0  0  0  0  0
    8.3208   -3.5120   23.6643 C   0  0  0  0  0  0  0  0  0  0  0  0
    9.3502   -2.6727   22.9390 C   0  0  0  0  0  0  0  0  0  0  0  0
   10.5301   -2.3134   23.8490 C   0  0  0  0  0  0  0  0  0  0  0  0
   11.5443   -1.4831   23.1144 C   0  0  0  0  0  0  0  0  0  0  0  0
   10.9532   -0.2689   22.5437 N   0  0  0  0  0  0  0  0  0  0  0  0
    9.7950   -0.5463   21.6628 C   0  0  0  0  0  0  0  0  0  0  0  0
    8.7687   -1.4004   22.3760 C   0  0  0  0  0  0  0  0  0  0  0  0
   11.5502    0.9832   22.6501 C   0  0  0  0  0  0  0  0  0  0  0  0
   12.9318    1.1263   22.5603 C   0  0  0  0  0  0  0  0  0  0  0  0
   13.5371    2.3665   22.6586 C   0  0  0  0  0  0  0  0  0  0  0  0
   12.7601    3.4922   22.8628 C   0  0  0  0  0  0  0  0  0  0  0  0
   11.3856    3.3777   22.9641 C   0  0  0  0  0  0  0  0  0  0  0  0
   10.7916    2.1333   22.8500 C   0  0  0  0  0  0  0  0  0  0  0  0
   13.5259    5.0785   23.0051 S   0  0  0  0  0  0  0  0  0  0  0  0
   13.5563    5.7590   21.5563 N   0  0  0  0  0  0  0  0  0  0  0  0
   14.8853    4.8633   23.4005 O   0  0  0  0  0  0  0  0  0  0  0  0
   12.6837    5.8869   23.8350 O   0  0  0  0  0  0  0  0  0  0  0  0
    9.0425   -5.7147   26.4774 C   0  0  0  0  0  0  0  0  0  0  0  0
    8.3946   -6.4300   27.4685 C   0  0  0  0  0  0  0  0  0  0  0  0
  1  2  1  0
  2  3  2  0
  3  4  1  0
  4  5  2  0
  5  6  1  0
  6  7  1  0
  7  8  1  0
  8  9  1  0
  9 10  1  0
 10 11  1  0
 11 12  1  0
 12 13  1  0
 11 14  1  0
 14 15  2  0
 15 16  1  0
 16 17  2  0
 17 18  1  0
 18 19  2  0
 17 20  1  0
 20 21  1  0
 20 22  2  0
 20 23  2  0
  5 24  1  0
 24 25  2  0
 25  2  1  0
 13  8  1  0
 19 14  1  0
M  END
