CVD-0003685|dock_bobby27042020.30|mol2|12|dock1
     RDKit          3D

 20 21  0  0  0  0  0  0  0  0999 V2000
   12.7817    4.6723   21.6270 C   0  0  0  0  0  0  0  0  0  0  0  0
   12.2658    4.2036   22.9834 C   0  0  0  0  0  0  0  0  0  0  0  0
   11.1926    5.1456   23.5186 C   0  0  0  0  0  0  0  0  0  0  0  0
   13.3721    4.2307   23.9060 O   0  0  0  0  0  0  0  0  0  0  0  0
   11.7078    2.7810   22.8704 C   0  0  0  0  0  0  0  0  0  0  0  0
   11.8551    1.8559   23.8949 C   0  0  0  0  0  0  0  0  0  0  0  0
   11.3828    0.6066   23.8264 N   0  0  0  0  0  0  0  0  0  0  0  0
   10.7419    0.2768   22.6895 C   0  0  0  0  0  0  0  0  0  0  0  0
   10.2071   -1.0814   22.5692 C   0  0  0  0  0  0  0  0  0  0  0  0
    9.9691   -1.8984   23.5815 C   0  0  0  0  0  0  0  0  0  0  0  0
    9.4343   -3.2628   23.4937 C   0  0  0  0  0  0  0  0  0  0  0  0
    8.4702   -3.5770   22.5364 C   0  0  0  0  0  0  0  0  0  0  0  0
    7.9614   -4.8646   22.4488 C   0  0  0  0  0  0  0  0  0  0  0  0
    7.0185   -5.1572   21.5070 O   0  0  0  0  0  0  0  0  0  0  0  0
    8.4036   -5.8568   23.3113 C   0  0  0  0  0  0  0  0  0  0  0  0
    9.3625   -5.5486   24.2652 C   0  0  0  0  0  0  0  0  0  0  0  0
    9.8039   -6.5177   25.1181 O   0  0  0  0  0  0  0  0  0  0  0  0
    9.8764   -4.2634   24.3592 C   0  0  0  0  0  0  0  0  0  0  0  0
   10.5996    1.2091   21.6671 C   0  0  0  0  0  0  0  0  0  0  0  0
   11.0735    2.4575   21.7396 N   0  0  0  0  0  0  0  0  0  0  0  0
  1  2  1  0
  2  3  1  0
  2  4  1  0
  2  5  1  0
  5  6  2  0
  6  7  1  0
  7  8  2  0
  8  9  1  0
  9 10  2  0
 10 11  1  0
 11 12  2  0
 12 13  1  0
 13 14  1  0
 13 15  2  0
 15 16  1  0
 16 17  1  0
 16 18  2  0
  8 19  1  0
 19 20  2  0
 20  5  1  0
 18 11  1  0
M  END
