CVD-0003245|dock_bobby27042020.17|mol2|7|dock3
     RDKit          3D

 26 28  0  0  0  0  0  0  0  0999 V2000
    4.8580   -6.0438   25.0258 C   0  0  0  0  0  0  0  0  0  0  0  0
    5.0617   -6.2813   23.5369 C   0  0  0  0  0  0  0  0  0  0  0  0
    3.7858   -6.0655   22.7369 C   0  0  0  0  0  0  0  0  0  0  0  0
    6.1892   -5.4758   23.0017 N   0  0  0  0  0  0  0  0  0  0  0  0
    7.2121   -6.2614   22.3163 C   0  0  0  0  0  0  0  0  0  0  0  0
    6.2284   -4.1305   23.1811 C   0  0  0  0  0  0  0  0  0  0  0  0
    5.3343   -3.5618   23.7833 O   0  0  0  0  0  0  0  0  0  0  0  0
    7.3357   -3.2341   22.6922 C   0  0  0  0  0  0  0  0  0  0  0  0
    7.2711   -2.4021   21.5756 C   0  0  0  0  0  0  0  0  0  0  0  0
    8.3713   -1.6624   21.1842 C   0  0  0  0  0  0  0  0  0  0  0  0
    9.5816   -1.7113   21.8767 C   0  0  0  0  0  0  0  0  0  0  0  0
   10.7853   -0.9024   21.4603 C   0  0  0  0  0  0  0  0  0  0  0  0
   12.0361   -1.6627   21.7492 C   0  0  0  0  0  0  0  0  0  0  0  0
   12.1275   -2.0131   23.1883 N   0  0  0  0  0  0  0  0  0  0  0  0
   10.9399   -2.6211   23.8201 C   0  0  0  0  0  0  0  0  0  0  0  0
    9.6516   -2.5413   22.9936 C   0  0  0  0  0  0  0  0  0  0  0  0
    8.5420   -3.2820   23.3813 C   0  0  0  0  0  0  0  0  0  0  0  0
   13.2331   -1.7693   23.9282 C   0  0  0  0  0  0  0  0  0  0  0  0
   14.2300   -1.2510   23.4409 O   0  0  0  0  0  0  0  0  0  0  0  0
   13.2105   -2.1496   25.3974 C   0  0  0  0  0  0  0  0  0  0  0  0
   14.8258   -2.0314   26.1080 Cl  0  0  0  0  0  0  0  0  0  0  0  0
   10.8154    0.4303   22.1381 C   0  0  0  0  0  0  0  0  0  0  0  0
    9.8971    1.4313   22.1373 C   0  0  0  0  0  0  0  0  0  0  0  0
   10.4121    2.4257   22.9153 N   0  0  0  0  0  0  0  0  0  0  0  0
   11.6039    2.0107   23.3603 C   0  0  0  0  0  0  0  0  0  0  0  0
   11.9015    0.7988   22.9183 N   0  0  0  0  0  0  0  0  0  0  0  0
  1  2  1  0
  2  3  1  0
  2  4  1  0
  4  5  1  0
  4  6  1  0
  6  7  2  0
  6  8  1  0
  8  9  2  0
  9 10  1  0
 10 11  2  0
 11 12  1  0
 12 13  1  0
 13 14  1  0
 14 15  1  0
 15 16  1  0
 16 17  2  0
 14 18  1  0
 18 19  2  0
 18 20  1  0
 20 21  1  0
 12 22  1  0
 22 23  2  0
 23 24  1  0
 24 25  1  0
 25 26  2  0
 17  8  1  0
 26 22  1  0
 16 11  1  0
M  END
