CVD-0002023|dock_bobby27042020.22|mol2|3|dock3
     RDKit          3D

 34 38  0  0  0  0  0  0  0  0999 V2000
   14.2149   -1.1097   23.5294 C   0  0  0  0  0  0  0  0  0  0  0  0
   12.7584   -1.0735   23.6499 N   0  0  0  0  0  0  0  0  0  0  0  0
   12.1570   -2.2069   22.9412 C   0  0  0  0  0  0  0  0  0  0  0  0
   10.6485   -2.1876   23.1040 C   0  0  0  0  0  0  0  0  0  0  0  0
   10.0960   -0.9271   22.6033 N   0  0  0  0  0  0  0  0  0  0  0  0
   10.7214    0.2301   23.2511 C   0  0  0  0  0  0  0  0  0  0  0  0
   12.2300    0.1701   23.0953 C   0  0  0  0  0  0  0  0  0  0  0  0
    9.1129   -0.8743   21.6809 C   0  0  0  0  0  0  0  0  0  0  0  0
    8.6144   -1.8909   21.2144 O   0  0  0  0  0  0  0  0  0  0  0  0
    8.6434    0.4944   21.2189 C   0  0  0  0  0  0  0  0  0  0  0  0
    7.5146    0.4309   20.2313 C   0  0  0  0  0  0  0  0  0  0  0  0
    7.4528   -0.4682   19.2076 C   0  0  0  0  0  0  0  0  0  0  0  0
    6.2999   -0.3159   18.4911 N   0  0  0  0  0  0  0  0  0  0  0  0
    5.5693    0.6835   19.0582 C   0  0  0  0  0  0  0  0  0  0  0  0
    4.3477    1.0745   18.6570 N   0  0  0  0  0  0  0  0  0  0  0  0
    3.7674    2.0380   19.3776 C   0  0  0  0  0  0  0  0  0  0  0  0
    4.3942    2.6764   20.4265 C   0  0  0  0  0  0  0  0  0  0  0  0
    5.6946    2.3073   20.7730 C   0  0  0  0  0  0  0  0  0  0  0  0
    6.3377    3.1369   21.8445 C   0  0  0  0  0  0  0  0  0  0  0  0
    5.6579    3.6031   22.7538 O   0  0  0  0  0  0  0  0  0  0  0  0
    7.6484    3.3624   21.7630 N   0  0  0  0  0  0  0  0  0  0  0  0
    8.3732    4.0996   22.7882 C   0  0  0  0  0  0  0  0  0  0  0  0
    8.3982    5.5880   22.5030 C   0  0  0  0  0  0  0  0  0  0  0  0
    8.9114    6.3978   23.6574 C   0  0  0  0  0  0  0  0  0  0  0  0
    8.2255    7.3172   24.3949 C   0  0  0  0  0  0  0  0  0  0  0  0
    9.0325    7.8478   25.3641 N   0  0  0  0  0  0  0  0  0  0  0  0
   10.2762    7.2725   25.2705 C   0  0  0  0  0  0  0  0  0  0  0  0
   11.4326    7.4690   26.0168 C   0  0  0  0  0  0  0  0  0  0  0  0
   12.5667    6.7416   25.7005 C   0  0  0  0  0  0  0  0  0  0  0  0
   12.5110    5.8510   24.6608 C   0  0  0  0  0  0  0  0  0  0  0  0
   13.6329    5.1425   24.3605 F   0  0  0  0  0  0  0  0  0  0  0  0
   11.3880    5.6283   23.8998 C   0  0  0  0  0  0  0  0  0  0  0  0
   10.2370    6.3530   24.2053 C   0  0  0  0  0  0  0  0  0  0  0  0
    6.3165    1.2135   20.1260 C   0  0  0  0  0  0  0  0  0  0  0  0
  1  2  1  0
  2  3  1  0
  3  4  1  0
  4  5  1  0
  5  6  1  0
  6  7  1  0
  5  8  1  0
  8  9  2  0
  8 10  1  0
 10 11  1  0
 11 12  2  0
 12 13  1  0
 13 14  1  0
 14 15  2  0
 15 16  1  0
 16 17  2  0
 17 18  1  0
 18 19  1  0
 19 20  2  0
 19 21  1  0
 21 22  1  0
 22 23  1  0
 23 24  1  0
 24 25  2  0
 25 26  1  0
 26 27  1  0
 27 28  2  0
 28 29  1  0
 29 30  2  0
 30 31  1  0
 30 32  1  0
 32 33  2  0
 18 34  2  0
  7  2  1  0
 34 11  1  0
 34 14  1  0
 33 24  1  0
 33 27  1  0
M  END
