CVD-0001428|dock_bobby27042020.81|mol2|9|dock3
     RDKit          3D

 21 22  0  0  0  0  0  0  0  0999 V2000
    6.7675    0.5752   21.9992 F   0  0  0  0  0  0  0  0  0  0  0  0
    6.3825    0.1575   20.7717 C   0  0  0  0  0  0  0  0  0  0  0  0
    6.0497    1.1316   19.8599 C   0  0  0  0  0  0  0  0  0  0  0  0
    5.6559    0.7537   18.5878 C   0  0  0  0  0  0  0  0  0  0  0  0
    5.6013   -0.5847   18.2397 C   0  0  0  0  0  0  0  0  0  0  0  0
    5.9419   -1.5269   19.1806 C   0  0  0  0  0  0  0  0  0  0  0  0
    5.8868   -2.8277   18.8136 F   0  0  0  0  0  0  0  0  0  0  0  0
    6.3382   -1.2096   20.4811 C   0  0  0  0  0  0  0  0  0  0  0  0
    6.7609   -2.4982   21.6592 S   0  0  0  0  0  0  0  0  0  0  0  0
    6.8721   -3.7387   20.9563 O   0  0  0  0  0  0  0  0  0  0  0  0
    5.9264   -2.4130   22.8171 O   0  0  0  0  0  0  0  0  0  0  0  0
    8.2660   -2.0916   22.1357 N   0  0  0  0  0  0  0  0  0  0  0  0
    9.2725   -1.8927   21.0832 C   0  0  0  0  0  0  0  0  0  0  0  0
   10.3837   -1.0491   21.6240 C   0  0  0  0  0  0  0  0  0  0  0  0
   10.9411   -1.6454   22.8268 N   0  0  0  0  0  0  0  0  0  0  0  0
    9.9484   -1.9350   23.8664 C   0  0  0  0  0  0  0  0  0  0  0  0
    8.8324   -2.7694   23.3112 C   0  0  0  0  0  0  0  0  0  0  0  0
   12.2814   -1.8548   22.9312 C   0  0  0  0  0  0  0  0  0  0  0  0
   13.0037   -1.5288   21.9904 O   0  0  0  0  0  0  0  0  0  0  0  0
   12.9573   -2.4734   24.1155 C   0  0  0  0  0  0  0  0  0  0  0  0
   14.0575   -2.0561   24.6913 C   0  0  0  0  0  0  0  0  0  0  0  0
  1  2  1  0
  2  3  2  0
  3  4  1  0
  4  5  2  0
  5  6  1  0
  6  7  1  0
  6  8  2  0
  8  9  1  0
  9 10  2  0
  9 11  2  0
  9 12  1  0
 12 13  1  0
 13 14  1  0
 14 15  1  0
 15 16  1  0
 16 17  1  0
 15 18  1  0
 18 19  2  0
 18 20  1  0
 20 21  2  0
  8  2  1  0
 17 12  1  0
M  END
