CVD-0001615|dock_bobby27042020.37|mol2|36|dock1
     RDKit          3D

 19 20  0  0  0  0  0  0  0  0999 V2000
   10.1030    2.1310   21.3788 F   0  0  0  0  0  0  0  0  0  0  0  0
   10.3139    2.5642   22.6441 C   0  0  0  0  0  0  0  0  0  0  0  0
    9.0747    2.8495   23.1088 F   0  0  0  0  0  0  0  0  0  0  0  0
   10.8380    1.4454   23.4370 N   0  0  0  0  0  0  0  0  0  0  0  0
   12.2923    1.3020   23.2591 C   0  0  0  0  0  0  0  0  0  0  0  0
   12.8289    0.1831   24.1135 C   0  0  0  0  0  0  0  0  0  0  0  0
   12.1404   -1.0756   23.8107 N   0  0  0  0  0  0  0  0  0  0  0  0
   10.6869   -0.9559   23.9081 C   0  0  0  0  0  0  0  0  0  0  0  0
   10.2123    0.1837   23.0383 C   0  0  0  0  0  0  0  0  0  0  0  0
   12.7240   -2.2754   23.6074 C   0  0  0  0  0  0  0  0  0  0  0  0
   12.0687   -3.2769   23.3484 O   0  0  0  0  0  0  0  0  0  0  0  0
   14.2355   -2.3345   23.7208 C   0  0  0  0  0  0  0  0  0  0  0  0
   14.8003   -1.8450   25.3236 Cl  0  0  0  0  0  0  0  0  0  0  0  0
   11.1743    3.8116   22.6551 C   0  0  0  0  0  0  0  0  0  0  0  0
   10.9988    4.9405   23.4160 C   0  0  0  0  0  0  0  0  0  0  0  0
   11.9608    5.9259   23.2073 C   0  0  0  0  0  0  0  0  0  0  0  0
   12.8710    5.5510   22.2906 C   0  0  0  0  0  0  0  0  0  0  0  0
   14.3414    6.5391   21.6867 Br  0  0  0  0  0  0  0  0  0  0  0  0
   12.5776    3.9845   21.6579 S   0  0  0  0  0  0  0  0  0  0  0  0
  1  2  1  0
  2  3  1  0
  2  4  1  0
  4  5  1  0
  5  6  1  0
  6  7  1  0
  7  8  1  0
  8  9  1  0
  7 10  1  0
 10 11  2  0
 10 12  1  0
 12 13  1  0
  2 14  1  0
 14 15  2  0
 15 16  1  0
 16 17  2  0
 17 18  1  0
 17 19  1  0
  9  4  1  0
 19 14  1  0
M  END
