CVD-0000671|dock_bobby27042020.97|mol2|44|dock1
     RDKit          3D

 27 29  0  0  0  0  0  0  0  0999 V2000
    7.6354   -4.3898   27.6350 C   0  0  0  0  0  0  0  0  0  0  0  0
    7.5834   -3.0447   27.1634 O   0  0  0  0  0  0  0  0  0  0  0  0
    7.8937   -2.7578   25.8574 C   0  0  0  0  0  0  0  0  0  0  0  0
    7.9010   -3.7336   24.8708 C   0  0  0  0  0  0  0  0  0  0  0  0
    8.2219   -3.3888   23.5695 C   0  0  0  0  0  0  0  0  0  0  0  0
    8.5392   -2.0831   23.2254 C   0  0  0  0  0  0  0  0  0  0  0  0
    8.5257   -1.1208   24.2238 C   0  0  0  0  0  0  0  0  0  0  0  0
    8.2071   -1.4499   25.5290 C   0  0  0  0  0  0  0  0  0  0  0  0
    8.8871   -1.7157   21.7911 C   0  0  0  0  0  0  0  0  0  0  0  0
    7.6215   -1.3905   20.9871 C   0  0  0  0  0  0  0  0  0  0  0  0
    7.9084   -0.9379   19.6220 N   0  0  0  0  0  0  0  0  0  0  0  0
    6.7762   -0.1809   18.7762 S   0  0  0  0  0  0  0  0  0  0  0  0
    5.7593   -1.4011   18.0388 C   0  0  0  0  0  0  0  0  0  0  0  0
    7.4415    0.5335   17.7307 O   0  0  0  0  0  0  0  0  0  0  0  0
    5.9801    0.5567   19.7079 O   0  0  0  0  0  0  0  0  0  0  0  0
    9.7964   -0.4894   21.7777 C   0  0  0  0  0  0  0  0  0  0  0  0
    9.4076    0.4653   21.1333 O   0  0  0  0  0  0  0  0  0  0  0  0
   10.9829   -0.4777   22.4706 N   0  0  0  0  0  0  0  0  0  0  0  0
   11.4735   -1.7825   22.9738 C   0  0  0  0  0  0  0  0  0  0  0  0
   12.9802   -1.7846   23.2208 C   0  0  0  0  0  0  0  0  0  0  0  0
   13.7249   -0.8575   22.2574 C   0  0  0  0  0  0  0  0  0  0  0  0
   13.1810    0.5299   22.4489 C   0  0  0  0  0  0  0  0  0  0  0  0
   13.9908    1.6463   22.6241 C   0  0  0  0  0  0  0  0  0  0  0  0
   13.4088    2.8434   22.9790 C   0  0  0  0  0  0  0  0  0  0  0  0
   12.1007    2.9968   23.1664 N   0  0  0  0  0  0  0  0  0  0  0  0
   11.3103    1.9284   23.0003 C   0  0  0  0  0  0  0  0  0  0  0  0
   11.7951    0.6733   22.6426 C   0  0  0  0  0  0  0  0  0  0  0  0
  1  2  1  0
  2  3  1  0
  3  4  2  0
  4  5  1  0
  5  6  2  0
  6  7  1  0
  7  8  2  0
  6  9  1  0
  9 10  1  0
 10 11  1  0
 11 12  1  0
 12 13  1  0
 12 14  2  0
 12 15  2  0
  9 16  1  0
 16 17  2  0
 16 18  1  0
 18 19  1  0
 19 20  1  0
 20 21  1  0
 21 22  1  0
 22 23  2  0
 23 24  1  0
 24 25  2  0
 25 26  1  0
 26 27  2  0
  8  3  1  0
 27 18  1  0
 27 22  1  0
M  END
