CVD-0000795|dock_bobby27042020.83|mol2|19|dock3
     RDKit          3D

 23 25  0  0  0  0  0  0  0  0999 V2000
   12.7646   -1.8322   23.0626 C   0  0  0  0  0  0  0  0  0  0  0  0
   11.8461   -1.5963   21.8919 C   0  0  0  0  0  0  0  0  0  0  0  0
   10.9782   -0.3621   22.0424 C   0  0  0  0  0  0  0  0  0  0  0  0
    9.5937   -0.4707   22.0533 C   0  0  0  0  0  0  0  0  0  0  0  0
    8.7723    0.6370   22.1961 C   0  0  0  0  0  0  0  0  0  0  0  0
    7.4061    0.4614   22.1990 O   0  0  0  0  0  0  0  0  0  0  0  0
    6.5199    0.2975   21.0633 C   0  0  0  0  0  0  0  0  0  0  0  0
    6.8200   -0.9824   20.3422 C   0  0  0  0  0  0  0  0  0  0  0  0
    5.8843   -1.3339   19.2132 C   0  0  0  0  0  0  0  0  0  0  0  0
    6.1118   -0.5969   17.9168 C   0  0  0  0  0  0  0  0  0  0  0  0
    6.0551    0.9048   17.8840 C   0  0  0  0  0  0  0  0  0  0  0  0
    5.5974    1.6339   19.1066 C   0  0  0  0  0  0  0  0  0  0  0  0
    6.5382    1.5631   20.2715 C   0  0  0  0  0  0  0  0  0  0  0  0
    9.3652    1.9080   22.3273 C   0  0  0  0  0  0  0  0  0  0  0  0
    8.8599    3.1812   22.4742 N   0  0  0  0  0  0  0  0  0  0  0  0
    9.8959    4.0702   22.5534 C   0  0  0  0  0  0  0  0  0  0  0  0
   11.0917    3.4241   22.4626 C   0  0  0  0  0  0  0  0  0  0  0  0
   12.4901    3.9921   22.5008 C   0  0  0  0  0  0  0  0  0  0  0  0
   12.6205    5.4328   22.7601 N   0  0  0  0  0  0  0  0  0  0  0  0
   12.3929    5.7921   24.1564 C   0  0  0  0  0  0  0  0  0  0  0  0
   13.8589    6.0042   22.2397 C   0  0  0  0  0  0  0  0  0  0  0  0
   10.7709    2.0336   22.3164 C   0  0  0  0  0  0  0  0  0  0  0  0
   11.5547    0.8917   22.1767 C   0  0  0  0  0  0  0  0  0  0  0  0
  1  2  1  0
  2  3  1  0
  3  4  2  0
  4  5  1  0
  5  6  1  0
  6  7  1  0
  7  8  1  0
  8  9  1  0
  9 10  1  0
 10 11  1  0
 11 12  1  0
 12 13  1  0
  5 14  2  0
 14 15  1  0
 15 16  1  0
 16 17  2  0
 17 18  1  0
 18 19  1  0
 19 20  1  0
 19 21  1  0
 17 22  1  0
 22 23  2  0
 23  3  1  0
 13  7  1  0
 22 14  1  0
M  END
