CVD-0001501|dock_bobby27042020.52|mol2|26|dock1
     RDKit          3D

 24 26  0  0  0  0  0  0  0  0999 V2000
   13.8672    5.2898   22.4559 O   0  0  0  0  0  0  0  0  0  0  0  0
   12.8568    4.8327   23.1552 C   0  0  0  0  0  0  0  0  0  0  0  0
   12.6295    5.1690   24.2966 O   0  0  0  0  0  0  0  0  0  0  0  0
   11.9826    3.8575   22.4109 C   0  0  0  0  0  0  0  0  0  0  0  0
   12.2473    2.4130   22.7349 C   0  0  0  0  0  0  0  0  0  0  0  0
   11.2366    1.6151   22.9360 C   0  0  0  0  0  0  0  0  0  0  0  0
   11.4381    0.2219   23.4359 C   0  0  0  0  0  0  0  0  0  0  0  0
   12.9273   -0.1113   23.7257 C   0  0  0  0  0  0  0  0  0  0  0  0
   13.1742   -1.3412   22.9086 N   0  0  0  0  0  0  0  0  0  0  0  0
   12.0169   -1.6868   22.1658 C   0  0  0  0  0  0  0  0  0  0  0  0
   11.0332   -0.8250   22.4208 C   0  0  0  0  0  0  0  0  0  0  0  0
    9.6605   -0.9367   22.0768 N   0  0  0  0  0  0  0  0  0  0  0  0
    8.9222   -0.0724   21.2633 C   0  0  0  0  0  0  0  0  0  0  0  0
    9.4316    0.9161   20.7439 O   0  0  0  0  0  0  0  0  0  0  0  0
    7.6113   -0.4615   21.1307 N   0  0  0  0  0  0  0  0  0  0  0  0
    6.5399    0.1210   20.4082 C   0  0  0  0  0  0  0  0  0  0  0  0
    5.2816    0.1121   20.9991 C   0  0  0  0  0  0  0  0  0  0  0  0
    4.1930    0.6649   20.3463 C   0  0  0  0  0  0  0  0  0  0  0  0
    4.3429    1.2347   19.0945 C   0  0  0  0  0  0  0  0  0  0  0  0
    5.5932    1.2474   18.4991 C   0  0  0  0  0  0  0  0  0  0  0  0
    5.7504    1.8071   17.2649 O   0  0  0  0  0  0  0  0  0  0  0  0
    6.6891    0.6954   19.1470 C   0  0  0  0  0  0  0  0  0  0  0  0
   13.9643    0.8548   23.4203 N   0  0  0  0  0  0  0  0  0  0  0  0
   13.6043    1.9435   22.8771 C   0  0  0  0  0  0  0  0  0  0  0  0
  1  2  1  0
  2  3  2  0
  2  4  1  0
  4  5  1  0
  5  6  2  0
  6  7  1  0
  7  8  1  0
  8  9  1  0
  9 10  1  0
 10 11  2  0
 11 12  1  0
 12 13  1  0
 13 14  2  0
 13 15  1  0
 15 16  1  0
 16 17  2  0
 17 18  1  0
 18 19  2  0
 19 20  1  0
 20 21  1  0
 20 22  2  0
  8 23  1  0
 23 24  2  0
 24  5  1  0
 11  7  1  0
 22 16  1  0
M  END
