CVD-0002860|dock_bobby27042020.4|mol2|16|dock3
     RDKit          3D

 20 22  0  0  0  0  0  0  0  0999 V2000
    2.4536    1.3294   22.0602 F   0  0  0  0  0  0  0  0  0  0  0  0
    3.2631    1.4104   20.9698 C   0  0  0  0  0  0  0  0  0  0  0  0
    2.8627    2.1990   19.9233 C   0  0  0  0  0  0  0  0  0  0  0  0
    3.6766    2.2904   18.8077 C   0  0  0  0  0  0  0  0  0  0  0  0
    4.8718    1.5803   18.7857 C   0  0  0  0  0  0  0  0  0  0  0  0
    5.8508    1.4903   17.8268 N   0  0  0  0  0  0  0  0  0  0  0  0
    6.8380    0.6579   18.2791 C   0  0  0  0  0  0  0  0  0  0  0  0
    6.5323    0.1922   19.5238 C   0  0  0  0  0  0  0  0  0  0  0  0
    7.3440   -0.7417   20.3731 C   0  0  0  0  0  0  0  0  0  0  0  0
    8.3363   -0.0211   21.2639 C   0  0  0  0  0  0  0  0  0  0  0  0
    9.4082   -0.9016   21.7059 N   0  0  0  0  0  0  0  0  0  0  0  0
   10.6276   -0.4540   22.0042 C   0  0  0  0  0  0  0  0  0  0  0  0
   10.9722    0.7126   21.8353 O   0  0  0  0  0  0  0  0  0  0  0  0
   11.6061   -1.4739   22.5795 C   0  0  0  0  0  0  0  0  0  0  0  0
   12.6930   -0.8022   23.4060 C   0  0  0  0  0  0  0  0  0  0  0  0
   13.9489   -1.0258   22.6916 C   0  0  0  0  0  0  0  0  0  0  0  0
   13.6711   -1.7036   21.4848 C   0  0  0  0  0  0  0  0  0  0  0  0
   12.3027   -2.2101   21.5207 N   0  0  0  0  0  0  0  0  0  0  0  0
    5.2675    0.7748   19.8702 C   0  0  0  0  0  0  0  0  0  0  0  0
    4.4361    0.6937   20.9861 C   0  0  0  0  0  0  0  0  0  0  0  0
  1  2  1  0
  2  3  2  0
  3  4  1  0
  4  5  2  0
  5  6  1  0
  6  7  1  0
  7  8  2  0
  8  9  1  0
  9 10  1  0
 10 11  1  0
 11 12  1  0
 12 13  2  0
 14 12  1  0
 14 15  1  0
 15 16  1  0
 16 17  1  0
 17 18  1  0
  8 19  1  0
 19 20  2  0
 20  2  1  0
 19  5  1  0
 18 14  1  0
M  END
