CVD-0002494|dock_bobby27042020.91|mol2|16|dock3
     RDKit          3D

 30 32  0  0  0  0  0  0  0  0999 V2000
   12.9976    4.1491   22.0415 C   0  0  0  0  0  0  0  0  0  0  0  0
   12.3400    2.9631   22.6748 C   0  0  0  0  0  0  0  0  0  0  0  0
   13.2683    1.8296   22.7223 N   0  0  0  0  0  0  0  0  0  0  0  0
   12.6480    0.5209   22.9790 C   0  0  0  0  0  0  0  0  0  0  0  0
   11.8054    0.5577   24.2532 C   0  0  0  0  0  0  0  0  0  0  0  0
   11.1899   -0.7826   24.5957 C   0  0  0  0  0  0  0  0  0  0  0  0
   12.3065   -1.7911   24.8048 C   0  0  0  0  0  0  0  0  0  0  0  0
   13.2387   -1.9806   23.5862 C   0  0  0  0  0  0  0  0  0  0  0  0
   14.3503   -2.8000   23.9506 O   0  0  0  0  0  0  0  0  0  0  0  0
   13.6950   -0.5789   23.1054 C   0  0  0  0  0  0  0  0  0  0  0  0
   14.2685   -0.6838   21.7854 O   0  0  0  0  0  0  0  0  0  0  0  0
   13.6465   -1.4294   20.9399 C   0  0  0  0  0  0  0  0  0  0  0  0
   13.1371   -2.0671   20.1453 N   0  0  0  0  0  0  0  0  0  0  0  0
   10.2178   -1.2678   23.5382 C   0  0  0  0  0  0  0  0  0  0  0  0
    9.8110   -2.5938   23.5036 C   0  0  0  0  0  0  0  0  0  0  0  0
    8.9239   -3.0319   22.5352 C   0  0  0  0  0  0  0  0  0  0  0  0
    8.4349   -2.1441   21.5921 C   0  0  0  0  0  0  0  0  0  0  0  0
    8.8246   -0.8139   21.6082 C   0  0  0  0  0  0  0  0  0  0  0  0
    8.3004    0.1588   20.5776 C   0  0  0  0  0  0  0  0  0  0  0  0
    6.8464    0.0953   20.3607 N   0  0  0  0  0  0  0  0  0  0  0  0
    6.4935    0.6974   19.0716 C   0  0  0  0  0  0  0  0  0  0  0  0
    4.9985    0.5923   18.8345 C   0  0  0  0  0  0  0  0  0  0  0  0
    4.2615    1.2472   19.9176 N   0  0  0  0  0  0  0  0  0  0  0  0
    4.6371    0.7073   21.2280 C   0  0  0  0  0  0  0  0  0  0  0  0
    6.1391    0.8010   21.4260 C   0  0  0  0  0  0  0  0  0  0  0  0
    3.3359    2.2056   19.6984 C   0  0  0  0  0  0  0  0  0  0  0  0
    3.0565    2.5758   18.5650 O   0  0  0  0  0  0  0  0  0  0  0  0
    2.6574    2.8157   20.9097 C   0  0  0  0  0  0  0  0  0  0  0  0
    1.4760    4.0376   20.4215 Cl  0  0  0  0  0  0  0  0  0  0  0  0
    9.7177   -0.3923   22.5856 C   0  0  0  0  0  0  0  0  0  0  0  0
  1  2  1  0
  2  3  1  0
  3  4  1  0
  4  5  1  0
  5  6  1  0
  6  7  1  0
  7  8  1  0
  8  9  1  0
  8 10  1  0
 10 11  1  0
 11 12  1  0
 12 13  3  0
  6 14  1  0
 14 15  2  0
 15 16  1  0
 16 17  2  0
 17 18  1  0
 18 19  1  0
 19 20  1  0
 20 21  1  0
 21 22  1  0
 22 23  1  0
 23 24  1  0
 24 25  1  0
 23 26  1  0
 26 27  2  0
 26 28  1  0
 28 29  1  0
 18 30  2  0
 10  4  1  0
 30 14  1  0
 25 20  1  0
M  END
