CVD-0000657|dock_bobby27042020.97|mol2|46|dock2
     RDKit          3D

 21 22  0  0  0  0  0  0  0  0999 V2000
   14.0291   -1.5794   24.7907 C   0  0  0  0  0  0  0  0  0  0  0  0
   12.8761   -2.3395   24.2048 C   0  0  0  0  0  0  0  0  0  0  0  0
   12.4893   -3.3599   24.7586 O   0  0  0  0  0  0  0  0  0  0  0  0
   12.2202   -1.7988   22.9137 C   0  0  0  0  0  0  0  0  0  0  0  0
   12.9702   -1.5919   21.9666 O   0  0  0  0  0  0  0  0  0  0  0  0
   10.8954   -1.5588   22.8065 N   0  0  0  0  0  0  0  0  0  0  0  0
   10.3450   -1.0228   21.5724 C   0  0  0  0  0  0  0  0  0  0  0  0
    9.2051   -1.8656   21.0935 C   0  0  0  0  0  0  0  0  0  0  0  0
    8.2026   -1.9684   22.1633 N   0  0  0  0  0  0  0  0  0  0  0  0
    8.7593   -2.5874   23.3753 C   0  0  0  0  0  0  0  0  0  0  0  0
    9.9040   -1.7531   23.8691 C   0  0  0  0  0  0  0  0  0  0  0  0
    6.6822   -2.3594   21.7239 S   0  0  0  0  0  0  0  0  0  0  0  0
    6.7670   -3.6141   21.0432 O   0  0  0  0  0  0  0  0  0  0  0  0
    5.8768   -2.2393   22.8993 O   0  0  0  0  0  0  0  0  0  0  0  0
    6.1454   -1.1465   20.5681 C   0  0  0  0  0  0  0  0  0  0  0  0
    5.9561   -1.5007   19.2419 C   0  0  0  0  0  0  0  0  0  0  0  0
    5.5380   -0.5398   18.3365 C   0  0  0  0  0  0  0  0  0  0  0  0
    5.3120    0.7624   18.7494 C   0  0  0  0  0  0  0  0  0  0  0  0
    5.5136    1.0676   20.0678 C   0  0  0  0  0  0  0  0  0  0  0  0
    5.2933    2.3461   20.4771 F   0  0  0  0  0  0  0  0  0  0  0  0
    5.9273    0.1519   21.0040 C   0  0  0  0  0  0  0  0  0  0  0  0
  1  2  1  0
  2  3  2  0
  2  4  1  0
  4  5  2  0
  4  6  1  0
  6  7  1  0
  7  8  1  0
  8  9  1  0
  9 10  1  0
 10 11  1  0
  9 12  1  0
 12 13  2  0
 12 14  2  0
 12 15  1  0
 15 16  2  0
 16 17  1  0
 17 18  2  0
 18 19  1  0
 19 20  1  0
 19 21  2  0
 11  6  1  0
 21 15  1  0
M  END
