CVD-0003819|dock_bobby27042020.58|mol2|30|dock2
     RDKit          3D

 31 35  0  0  0  0  0  0  0  0999 V2000
    2.1640    5.9460   18.0319 N   0  0  0  0  0  0  0  0  0  0  0  0
    1.6273    5.0897   19.2735 S   0  0  0  0  0  0  0  0  0  0  0  0
    1.6271    5.9539   20.4155 O   0  0  0  0  0  0  0  0  0  0  0  0
    0.3966    4.4802   18.8671 O   0  0  0  0  0  0  0  0  0  0  0  0
    2.7791    3.7888   19.5962 C   0  0  0  0  0  0  0  0  0  0  0  0
    3.5247    3.8009   20.7609 C   0  0  0  0  0  0  0  0  0  0  0  0
    4.4255    2.7803   21.0080 C   0  0  0  0  0  0  0  0  0  0  0  0
    4.5967    1.7332   20.1060 C   0  0  0  0  0  0  0  0  0  0  0  0
    3.8249    1.7371   18.9472 C   0  0  0  0  0  0  0  0  0  0  0  0
    2.9261    2.7566   18.6874 C   0  0  0  0  0  0  0  0  0  0  0  0
    5.5132    0.7237   20.3740 N   0  0  0  0  0  0  0  0  0  0  0  0
    5.5599    0.0462   21.6602 C   0  0  0  0  0  0  0  0  0  0  0  0
    6.9993   -0.0891   22.1297 C   0  0  0  0  0  0  0  0  0  0  0  0
    7.8919   -0.7179   21.1062 C   0  0  0  0  0  0  0  0  0  0  0  0
    7.7711    0.0262   19.7857 C   0  0  0  0  0  0  0  0  0  0  0  0
    6.3174    0.1042   19.3277 C   0  0  0  0  0  0  0  0  0  0  0  0
    9.3213   -0.7645   21.5606 C   0  0  0  0  0  0  0  0  0  0  0  0
   10.0125    0.2983   21.8253 N   0  0  0  0  0  0  0  0  0  0  0  0
   11.3073   -0.0216   22.2198 C   0  0  0  0  0  0  0  0  0  0  0  0
   12.3484    0.8644   22.5837 C   0  0  0  0  0  0  0  0  0  0  0  0
   13.5814    0.3361   22.9776 C   0  0  0  0  0  0  0  0  0  0  0  0
   13.8030   -1.0308   23.0055 C   0  0  0  0  0  0  0  0  0  0  0  0
   12.7997   -1.9088   22.6388 C   0  0  0  0  0  0  0  0  0  0  0  0
   11.5649   -1.3992   22.2507 C   0  0  0  0  0  0  0  0  0  0  0  0
   10.1562   -2.2884   21.7507 S   0  0  0  0  0  0  0  0  0  0  0  0
   12.2088    2.3516   22.5754 C   0  0  0  0  0  0  0  0  0  0  0  0
   11.0027    2.9816   22.8736 C   0  0  0  0  0  0  0  0  0  0  0  0
   10.9003    4.3628   22.8748 C   0  0  0  0  0  0  0  0  0  0  0  0
   11.9944    5.1413   22.5672 C   0  0  0  0  0  0  0  0  0  0  0  0
   13.1933    4.5378   22.2570 C   0  0  0  0  0  0  0  0  0  0  0  0
   13.2997    3.1572   22.2607 C   0  0  0  0  0  0  0  0  0  0  0  0
  1  2  1  0
  2  3  2  0
  2  4  2  0
  2  5  1  0
  5  6  2  0
  6  7  1  0
  7  8  2  0
  8  9  1  0
  9 10  2  0
  8 11  1  0
 11 12  1  0
 12 13  1  0
 13 14  1  0
 14 15  1  0
 15 16  1  0
 14 17  1  0
 17 18  2  0
 18 19  1  0
 19 20  2  0
 20 21  1  0
 21 22  2  0
 22 23  1  0
 23 24  2  0
 24 25  1  0
 20 26  1  0
 26 27  2  0
 27 28  1  0
 28 29  2  0
 29 30  1  0
 30 31  2  0
 10  5  1  0
 16 11  1  0
 25 17  1  0
 31 26  1  0
 24 19  1  0
M  END
