CVD-0002729|dock_bobby27042020.18|mol2|44|dock1
     RDKit          3D

 22 23  0  0  0  0  0  0  0  0999 V2000
    8.9119   -0.7267   27.1159 C   0  0  0  0  0  0  0  0  0  0  0  0
    9.8886    0.1714   26.4234 C   0  0  0  0  0  0  0  0  0  0  0  0
   10.0438   -0.1914   25.0240 N   0  0  0  0  0  0  0  0  0  0  0  0
   11.1911    0.0341   24.2939 C   0  0  0  0  0  0  0  0  0  0  0  0
   12.0323    1.0950   24.6349 C   0  0  0  0  0  0  0  0  0  0  0  0
   13.1718    1.3449   23.8898 C   0  0  0  0  0  0  0  0  0  0  0  0
   13.4858    0.5560   22.7995 C   0  0  0  0  0  0  0  0  0  0  0  0
   12.6628   -0.5118   22.4453 C   0  0  0  0  0  0  0  0  0  0  0  0
   13.0131   -1.3036   21.2945 C   0  0  0  0  0  0  0  0  0  0  0  0
   13.3164   -1.9095   20.3747 N   0  0  0  0  0  0  0  0  0  0  0  0
   11.5132   -0.7984   23.2062 C   0  0  0  0  0  0  0  0  0  0  0  0
   10.6754   -2.0021   22.8159 C   0  0  0  0  0  0  0  0  0  0  0  0
    9.3244   -1.6299   22.3714 N   0  0  0  0  0  0  0  0  0  0  0  0
    8.4884   -2.8240   22.2166 C   0  0  0  0  0  0  0  0  0  0  0  0
    7.0838   -2.4311   21.7978 C   0  0  0  0  0  0  0  0  0  0  0  0
    7.1170   -1.6710   20.5464 N   0  0  0  0  0  0  0  0  0  0  0  0
    7.9940   -0.5005   20.6501 C   0  0  0  0  0  0  0  0  0  0  0  0
    9.3828   -0.9204   21.0960 C   0  0  0  0  0  0  0  0  0  0  0  0
    6.3917   -2.0181   19.4571 C   0  0  0  0  0  0  0  0  0  0  0  0
    5.6551   -2.9965   19.4658 O   0  0  0  0  0  0  0  0  0  0  0  0
    6.5135   -1.1696   18.2056 C   0  0  0  0  0  0  0  0  0  0  0  0
    5.8708    0.4562   18.4723 Cl  0  0  0  0  0  0  0  0  0  0  0  0
  1  2  1  0
  2  3  1  0
  3  4  1  0
  4  5  2  0
  5  6  1  0
  6  7  2  0
  7  8  1  0
  8  9  1  0
  9 10  3  0
  8 11  2  0
 11 12  1  0
 12 13  1  0
 13 14  1  0
 14 15  1  0
 15 16  1  0
 16 17  1  0
 17 18  1  0
 16 19  1  0
 19 20  2  0
 19 21  1  0
 21 22  1  0
 11  4  1  0
 18 13  1  0
M  END
