CVD-0003116|dock_bobby27042020.32|mol2|5|dock1
     RDKit          3D

 18 20  0  0  0  0  0  0  0  0999 V2000
    4.5098    1.0398   19.3153 C   0  0  0  0  0  0  0  0  0  0  0  0
    5.1628    0.1636   18.2570 C   0  0  0  0  0  0  0  0  0  0  0  0
    5.5555   -1.1875   18.7789 C   0  0  0  0  0  0  0  0  0  0  0  0
    6.0233   -1.6087   19.9959 C   0  0  0  0  0  0  0  0  0  0  0  0
    6.2158   -2.9999   19.8823 C   0  0  0  0  0  0  0  0  0  0  0  0
    5.8735   -3.4014   18.6477 N   0  0  0  0  0  0  0  0  0  0  0  0
    5.4774   -2.2766   17.9974 N   0  0  0  0  0  0  0  0  0  0  0  0
    6.7093   -3.9893   20.8968 C   0  0  0  0  0  0  0  0  0  0  0  0
    6.2131   -5.1046   20.7857 O   0  0  0  0  0  0  0  0  0  0  0  0
    7.6132   -3.7543   21.8715 N   0  0  0  0  0  0  0  0  0  0  0  0
    8.3121   -2.4779   22.0721 C   0  0  0  0  0  0  0  0  0  0  0  0
    9.7453   -2.7224   22.4758 C   0  0  0  0  0  0  0  0  0  0  0  0
    9.7496   -3.6514   23.6108 N   0  0  0  0  0  0  0  0  0  0  0  0
   10.7701   -3.8437   24.4738 N   0  0  0  0  0  0  0  0  0  0  0  0
   10.4594   -4.8714   25.2291 N   0  0  0  0  0  0  0  0  0  0  0  0
    9.2428   -5.3424   24.8568 C   0  0  0  0  0  0  0  0  0  0  0  0
    8.7876   -4.5702   23.8285 C   0  0  0  0  0  0  0  0  0  0  0  0
    7.4796   -4.5264   23.1050 C   0  0  0  0  0  0  0  0  0  0  0  0
  1  2  1  0
  2  3  1  0
  3  4  2  0
  4  5  1  0
  5  6  2  0
  6  7  1  0
  5  8  1  0
  8  9  2  0
  8 10  1  0
 10 11  1  0
 11 12  1  0
 12 13  1  0
 13 14  1  0
 14 15  2  0
 15 16  1  0
 16 17  2  0
 17 18  1  0
  7  3  1  0
 18 10  1  0
 17 13  1  0
M  END
