CVD-0001435|dock_bobby27042020.81|mol2|8|dock3
     RDKit          3D

 21 22  0  0  0  0  0  0  0  0999 V2000
    6.4699   -2.8960   21.1620 F   0  0  0  0  0  0  0  0  0  0  0  0
    6.3867   -1.7517   20.4453 C   0  0  0  0  0  0  0  0  0  0  0  0
    5.8926   -1.8372   19.1657 C   0  0  0  0  0  0  0  0  0  0  0  0
    5.8034   -0.6827   18.4078 C   0  0  0  0  0  0  0  0  0  0  0  0
    6.2089    0.5327   18.9319 C   0  0  0  0  0  0  0  0  0  0  0  0
    6.6976    0.5750   20.2164 C   0  0  0  0  0  0  0  0  0  0  0  0
    7.0879    1.7834   20.6822 F   0  0  0  0  0  0  0  0  0  0  0  0
    6.8026   -0.5555   21.0330 C   0  0  0  0  0  0  0  0  0  0  0  0
    7.4301   -0.5188   22.7160 S   0  0  0  0  0  0  0  0  0  0  0  0
    7.6544    0.8287   23.1384 O   0  0  0  0  0  0  0  0  0  0  0  0
    6.6295   -1.3885   23.5207 O   0  0  0  0  0  0  0  0  0  0  0  0
    8.8965   -1.2188   22.5853 N   0  0  0  0  0  0  0  0  0  0  0  0
    9.5994   -1.5430   23.8347 C   0  0  0  0  0  0  0  0  0  0  0  0
   10.6189   -2.6033   23.5600 C   0  0  0  0  0  0  0  0  0  0  0  0
   11.5225   -2.1834   22.5016 N   0  0  0  0  0  0  0  0  0  0  0  0
   10.8475   -1.7722   21.2666 C   0  0  0  0  0  0  0  0  0  0  0  0
    9.8185   -0.7193   21.5544 C   0  0  0  0  0  0  0  0  0  0  0  0
   12.8502   -2.2284   22.6881 C   0  0  0  0  0  0  0  0  0  0  0  0
   13.3602   -2.6346   23.7309 O   0  0  0  0  0  0  0  0  0  0  0  0
   13.6865   -1.7653   21.5794 C   0  0  0  0  0  0  0  0  0  0  0  0
   14.2547   -1.3739   20.6246 C   0  0  0  0  0  0  0  0  0  0  0  0
  1  2  1  0
  2  3  2  0
  3  4  1  0
  4  5  2  0
  5  6  1  0
  6  7  1  0
  6  8  2  0
  8  9  1  0
  9 10  2  0
  9 11  2  0
  9 12  1  0
 12 13  1  0
 13 14  1  0
 14 15  1  0
 15 16  1  0
 16 17  1  0
 15 18  1  0
 18 19  2  0
 18 20  1  0
 20 21  3  0
  8  2  1  0
 17 12  1  0
M  END
