CVD-0002142|dock_bobby27042020.7|mol2|14|dock1
     RDKit          3D

 17 18  0  0  0  0  0  0  0  0999 V2000
   14.4283   -2.4966   24.6048 C   0  0  0  0  0  0  0  0  0  0  0  0
   12.9722   -2.5148   24.2436 C   0  0  0  0  0  0  0  0  0  0  0  0
   12.2214   -3.3835   24.6734 O   0  0  0  0  0  0  0  0  0  0  0  0
   12.5084   -1.5306   23.4347 N   0  0  0  0  0  0  0  0  0  0  0  0
   11.1036   -1.4875   23.0637 C   0  0  0  0  0  0  0  0  0  0  0  0
   10.5231   -0.1386   23.3511 C   0  0  0  0  0  0  0  0  0  0  0  0
   11.3227    0.8839   22.6615 N   0  0  0  0  0  0  0  0  0  0  0  0
   12.7228    0.8766   23.1110 C   0  0  0  0  0  0  0  0  0  0  0  0
   13.3200   -0.4703   22.8288 C   0  0  0  0  0  0  0  0  0  0  0  0
   10.6132    2.3131   22.3811 S   0  0  0  0  0  0  0  0  0  0  0  0
   10.0736    2.2684   21.0584 O   0  0  0  0  0  0  0  0  0  0  0  0
    9.7501    2.5860   23.4871 O   0  0  0  0  0  0  0  0  0  0  0  0
   11.8589    3.5290   22.3879 C   0  0  0  0  0  0  0  0  0  0  0  0
   12.4008    4.0212   23.5457 C   0  0  0  0  0  0  0  0  0  0  0  0
   13.4148    5.0742   23.3568 C   0  0  0  0  0  0  0  0  0  0  0  0
   13.6008    5.2893   21.5749 S   0  0  0  0  0  0  0  0  0  0  0  0
   12.4304    4.1371   21.2583 C   0  0  0  0  0  0  0  0  0  0  0  0
  1  2  1  0
  2  3  2  0
  2  4  1  0
  4  5  1  0
  5  6  1  0
  6  7  1  0
  7  8  1  0
  8  9  1  0
  7 10  1  0
 10 11  2  0
 10 12  2  0
 10 13  1  0
 13 14  2  0
 14 15  1  0
 15 16  1  0
 16 17  2  0
  9  4  1  0
 17 13  1  0
M  END
