CVD-0001256|dock_bobby27042020.24|mol2|28|dock2
     RDKit          3D

 24 26  0  0  0  0  0  0  0  0999 V2000
    5.0874   -6.1810   22.1642 C   0  0  0  0  0  0  0  0  0  0  0  0
    6.2036   -5.5908   21.3604 C   0  0  0  0  0  0  0  0  0  0  0  0
    6.5303   -4.2477   21.8099 N   0  0  0  0  0  0  0  0  0  0  0  0
    6.5766   -3.1873   20.9880 C   0  0  0  0  0  0  0  0  0  0  0  0
    5.6215   -3.1540   20.0376 N   0  0  0  0  0  0  0  0  0  0  0  0
    5.6039   -2.1204   19.1909 C   0  0  0  0  0  0  0  0  0  0  0  0
    6.5220   -1.0793   19.2276 C   0  0  0  0  0  0  0  0  0  0  0  0
    7.5172   -1.1077   20.1981 C   0  0  0  0  0  0  0  0  0  0  0  0
    7.5699   -2.1628   21.1143 C   0  0  0  0  0  0  0  0  0  0  0  0
    8.6432   -2.1891   22.1760 C   0  0  0  0  0  0  0  0  0  0  0  0
    8.3488   -2.3247   23.3598 O   0  0  0  0  0  0  0  0  0  0  0  0
    9.9327   -2.0635   21.8429 N   0  0  0  0  0  0  0  0  0  0  0  0
   10.9583   -1.9209   22.8659 C   0  0  0  0  0  0  0  0  0  0  0  0
   11.7405   -0.6348   22.7516 C   0  0  0  0  0  0  0  0  0  0  0  0
   13.1284   -0.6472   22.7439 C   0  0  0  0  0  0  0  0  0  0  0  0
   13.8519    0.5278   22.6361 C   0  0  0  0  0  0  0  0  0  0  0  0
   13.1985    1.7653   22.5308 C   0  0  0  0  0  0  0  0  0  0  0  0
   13.5614    3.1304   22.4085 C   0  0  0  0  0  0  0  0  0  0  0  0
   12.4947    3.9035   22.3461 N   0  0  0  0  0  0  0  0  0  0  0  0
   11.4162    3.0703   22.4253 N   0  0  0  0  0  0  0  0  0  0  0  0
   11.7956    1.7696   22.5381 C   0  0  0  0  0  0  0  0  0  0  0  0
   11.0784    0.5835   22.6467 C   0  0  0  0  0  0  0  0  0  0  0  0
    6.4502    0.0081   18.2831 C   0  0  0  0  0  0  0  0  0  0  0  0
    6.3691    0.8831   17.5532 N   0  0  0  0  0  0  0  0  0  0  0  0
  1  2  1  0
  2  3  1  0
  3  4  1  0
  4  5  2  0
  5  6  1  0
  6  7  2  0
  7  8  1  0
  8  9  2  0
  9 10  1  0
 10 11  2  0
 10 12  1  0
 12 13  1  0
 13 14  1  0
 14 15  2  0
 15 16  1  0
 16 17  2  0
 17 18  1  0
 18 19  2  0
 19 20  1  0
 20 21  1  0
 21 22  2  0
  7 23  1  0
 23 24  3  0
  9  4  1  0
 22 14  1  0
 21 17  1  0
M  END
