CVD-0000780|dock_bobby27042020.97|mol2|28|dock1
     RDKit          3D

 31 34  0  0  0  0  0  0  0  0999 V2000
    7.5829    6.4163   22.0245 C   0  0  0  0  0  0  0  0  0  0  0  0
    7.3537    5.2093   22.7491 O   0  0  0  0  0  0  0  0  0  0  0  0
    8.2413    4.1659   22.6601 C   0  0  0  0  0  0  0  0  0  0  0  0
    7.7396    2.8808   22.8156 C   0  0  0  0  0  0  0  0  0  0  0  0
    8.5701    1.7646   22.7392 C   0  0  0  0  0  0  0  0  0  0  0  0
    8.0453    0.3428   22.9099 C   0  0  0  0  0  0  0  0  0  0  0  0
    7.7623   -0.2712   21.5796 C   0  0  0  0  0  0  0  0  0  0  0  0
    6.6298    0.4116   20.9062 N   0  0  0  0  0  0  0  0  0  0  0  0
    5.4026    0.6371   21.6950 C   0  0  0  0  0  0  0  0  0  0  0  0
    5.5482    0.4213   23.2043 C   0  0  0  0  0  0  0  0  0  0  0  0
    4.4166    0.3597   24.0116 C   0  0  0  0  0  0  0  0  0  0  0  0
    4.5246    0.1686   25.3774 C   0  0  0  0  0  0  0  0  0  0  0  0
    5.7699    0.0369   25.9509 C   0  0  0  0  0  0  0  0  0  0  0  0
    6.8993    0.0972   25.1537 C   0  0  0  0  0  0  0  0  0  0  0  0
    6.8126    0.2891   23.7750 C   0  0  0  0  0  0  0  0  0  0  0  0
    6.6664    0.7656   19.6007 C   0  0  0  0  0  0  0  0  0  0  0  0
    7.6406    0.5268   18.8979 O   0  0  0  0  0  0  0  0  0  0  0  0
    5.4558    1.4662   19.0113 C   0  0  0  0  0  0  0  0  0  0  0  0
    5.5849    1.5729   17.2505 Cl  0  0  0  0  0  0  0  0  0  0  0  0
    9.9335    1.9918   22.5010 C   0  0  0  0  0  0  0  0  0  0  0  0
   10.9694    1.0987   22.3801 N   0  0  0  0  0  0  0  0  0  0  0  0
   12.1219    1.7994   22.1496 C   0  0  0  0  0  0  0  0  0  0  0  0
   11.8662    3.1390   22.1164 C   0  0  0  0  0  0  0  0  0  0  0  0
   12.8509    4.2486   21.8905 C   0  0  0  0  0  0  0  0  0  0  0  0
   13.6107    4.6308   23.1451 C   0  0  0  0  0  0  0  0  0  0  0  0
   12.7275    5.1583   24.1753 N   0  0  0  0  0  0  0  0  0  0  0  0
   12.6448    6.4607   24.4543 C   0  0  0  0  0  0  0  0  0  0  0  0
   11.6732    6.8452   25.5312 C   0  0  0  0  0  0  0  0  0  0  0  0
   13.3135    7.2966   23.8545 O   0  0  0  0  0  0  0  0  0  0  0  0
   10.4564    3.2874   22.3416 C   0  0  0  0  0  0  0  0  0  0  0  0
    9.5950    4.3801   22.4230 C   0  0  0  0  0  0  0  0  0  0  0  0
  1  2  1  0
  2  3  1  0
  3  4  2  0
  4  5  1  0
  6  5  1  0
  6  7  1  0
  7  8  1  0
  8  9  1  0
  9 10  1  0
 10 11  2  0
 11 12  1  0
 12 13  2  0
 13 14  1  0
 14 15  2  0
  8 16  1  0
 16 17  2  0
 16 18  1  0
 18 19  1  0
  5 20  2  0
 20 21  1  0
 21 22  1  0
 22 23  2  0
 23 24  1  0
 24 25  1  0
 25 26  1  0
 26 27  1  0
 27 28  1  0
 27 29  2  0
 23 30  1  0
 30 31  2  0
 31  3  1  0
 15  6  1  0
 30 20  1  0
 15 10  1  0
M  END
