CVD-0000568|dock_bobby27042020.12|mol2|32|dock3
     RDKit          3D

 23 25  0  0  0  0  0  0  0  0999 V2000
    8.8289   -0.0853   22.5678 O   0  0  0  0  0  0  0  0  0  0  0  0
    9.3857   -0.6262   21.6195 C   0  0  0  0  0  0  0  0  0  0  0  0
   10.7463   -1.2906   21.7261 C   0  0  0  0  0  0  0  0  0  0  0  0
   11.4546   -1.4675   23.0926 C   0  0  0  0  0  0  0  0  0  0  0  0
   10.7340   -2.5058   23.9961 C   0  0  0  0  0  0  0  0  0  0  0  0
    9.2298   -2.4477   24.1070 C   0  0  0  0  0  0  0  0  0  0  0  0
    8.4118   -3.2251   23.3045 C   0  0  0  0  0  0  0  0  0  0  0  0
    7.0367   -3.1403   23.4357 C   0  0  0  0  0  0  0  0  0  0  0  0
    6.5207   -2.2736   24.3721 C   0  0  0  0  0  0  0  0  0  0  0  0
    7.2822   -1.5115   25.1585 N   0  0  0  0  0  0  0  0  0  0  0  0
    8.6072   -1.6104   25.0136 C   0  0  0  0  0  0  0  0  0  0  0  0
   12.8147   -2.0885   22.7849 C   0  0  0  0  0  0  0  0  0  0  0  0
   13.6776   -2.1544   24.0290 C   0  0  0  0  0  0  0  0  0  0  0  0
   13.8495   -0.7805   24.6585 C   0  0  0  0  0  0  0  0  0  0  0  0
   12.4999   -0.1485   24.9588 C   0  0  0  0  0  0  0  0  0  0  0  0
   11.6210   -0.0887   23.7159 C   0  0  0  0  0  0  0  0  0  0  0  0
    8.8661   -0.7133   20.3705 N   0  0  0  0  0  0  0  0  0  0  0  0
    7.6398   -0.2559   19.8260 C   0  0  0  0  0  0  0  0  0  0  0  0
    6.5188   -0.2138   20.6450 C   0  0  0  0  0  0  0  0  0  0  0  0
    5.3119    0.2295   20.1336 C   0  0  0  0  0  0  0  0  0  0  0  0
    5.2589    0.6191   18.8156 C   0  0  0  0  0  0  0  0  0  0  0  0
    6.3158    0.5906   18.0037 N   0  0  0  0  0  0  0  0  0  0  0  0
    7.4773    0.1606   18.5064 C   0  0  0  0  0  0  0  0  0  0  0  0
  1  2  2  0
  2  3  1  0
  3  4  1  0
  4  5  1  0
  5  6  1  0
  6  7  2  0
  7  8  1  0
  8  9  2  0
  9 10  1  0
 10 11  2  0
  4 12  1  0
 12 13  1  0
 13 14  1  0
 14 15  1  0
 15 16  1  0
  2 17  1  0
 17 18  1  0
 18 19  2  0
 19 20  1  0
 20 21  2  0
 21 22  1  0
 22 23  2  0
 16  4  1  0
 23 18  1  0
 11  6  1  0
M  END
