CVD-0001206|dock_bobby27042020.96|mol2|8|dock2
     RDKit          3D

 24 26  0  0  0  0  0  0  0  0999 V2000
   12.3653    6.8186   25.1831 C   0  0  0  0  0  0  0  0  0  0  0  0
   13.0352    6.1691   24.0079 C   0  0  0  0  0  0  0  0  0  0  0  0
   13.7586    6.7992   23.2430 O   0  0  0  0  0  0  0  0  0  0  0  0
   12.8119    4.8626   23.8527 N   0  0  0  0  0  0  0  0  0  0  0  0
   13.4046    4.0880   22.7718 C   0  0  0  0  0  0  0  0  0  0  0  0
   13.0097    2.6264   22.8415 C   0  0  0  0  0  0  0  0  0  0  0  0
   11.5808    2.3856   22.4511 C   0  0  0  0  0  0  0  0  0  0  0  0
   10.5729    3.3021   22.3933 C   0  0  0  0  0  0  0  0  0  0  0  0
    9.4082    2.7052   21.9948 N   0  0  0  0  0  0  0  0  0  0  0  0
    9.6470    1.3691   21.7842 C   0  0  0  0  0  0  0  0  0  0  0  0
    8.7858    0.3430   21.3724 C   0  0  0  0  0  0  0  0  0  0  0  0
    7.4675    0.6272   21.1136 N   0  0  0  0  0  0  0  0  0  0  0  0
    6.6880   -0.1097   20.1388 C   0  0  0  0  0  0  0  0  0  0  0  0
    5.6606    0.7646   19.4646 C   0  0  0  0  0  0  0  0  0  0  0  0
    5.9255    1.1433   18.2095 N   0  0  0  0  0  0  0  0  0  0  0  0
    4.9955    1.9156   17.6341 C   0  0  0  0  0  0  0  0  0  0  0  0
    3.8389    2.3049   18.2691 C   0  0  0  0  0  0  0  0  0  0  0  0
    3.6784    1.8511   19.5577 C   0  0  0  0  0  0  0  0  0  0  0  0
    4.5755    1.0771   20.1813 N   0  0  0  0  0  0  0  0  0  0  0  0
    9.3093   -0.9407   21.2401 C   0  0  0  0  0  0  0  0  0  0  0  0
   10.6401   -1.1469   21.5175 C   0  0  0  0  0  0  0  0  0  0  0  0
   11.1291   -2.4091   21.3816 F   0  0  0  0  0  0  0  0  0  0  0  0
   11.5086   -0.1628   21.9230 C   0  0  0  0  0  0  0  0  0  0  0  0
   11.0065    1.1294   22.0617 C   0  0  0  0  0  0  0  0  0  0  0  0
  1  2  1  0
  2  3  2  0
  2  4  1  0
  4  5  1  0
  5  6  1  0
  6  7  1  0
  7  8  2  0
  8  9  1  0
  9 10  1  0
 10 11  2  0
 11 12  1  0
 12 13  1  0
 13 14  1  0
 14 15  2  0
 15 16  1  0
 16 17  2  0
 17 18  1  0
 18 19  2  0
 11 20  1  0
 20 21  2  0
 21 22  1  0
 21 23  1  0
 23 24  2  0
 24  7  1  0
 24 10  1  0
 19 14  1  0
M  END
