CVD-0001421|dock_bobby27042020.81|mol2|10|dock3
     RDKit          3D

 20 21  0  0  0  0  0  0  0  0999 V2000
   13.6043    3.1577   22.6090 C   0  0  0  0  0  0  0  0  0  0  0  0
   14.1533    1.7609   22.6418 C   0  0  0  0  0  0  0  0  0  0  0  0
   15.2520    1.5244   22.1519 O   0  0  0  0  0  0  0  0  0  0  0  0
   13.4328    0.7670   23.2293 N   0  0  0  0  0  0  0  0  0  0  0  0
   12.1157    0.9894   23.8298 C   0  0  0  0  0  0  0  0  0  0  0  0
   11.0975    0.0282   23.2451 C   0  0  0  0  0  0  0  0  0  0  0  0
   11.5252   -1.3572   23.4611 N   0  0  0  0  0  0  0  0  0  0  0  0
   10.5238   -2.2922   22.9323 C   0  0  0  0  0  0  0  0  0  0  0  0
   10.0309   -1.8843   21.6380 N   0  0  0  0  0  0  0  0  0  0  0  0
    8.8404   -1.2986   21.4429 C   0  0  0  0  0  0  0  0  0  0  0  0
    8.1765   -1.1428   22.5872 N   0  0  0  0  0  0  0  0  0  0  0  0
    8.4655   -0.9525   20.1939 N   0  0  0  0  0  0  0  0  0  0  0  0
    7.2984   -0.3337   19.6751 C   0  0  0  0  0  0  0  0  0  0  0  0
    7.1974   -0.1049   18.3429 C   0  0  0  0  0  0  0  0  0  0  0  0
    5.7256    0.6473   17.8940 S   0  0  0  0  0  0  0  0  0  0  0  0
    5.2292    0.6559   19.5425 C   0  0  0  0  0  0  0  0  0  0  0  0
    3.7080    1.3094   19.9903 Cl  0  0  0  0  0  0  0  0  0  0  0  0
    6.1403    0.1150   20.3741 C   0  0  0  0  0  0  0  0  0  0  0  0
   12.8147   -1.5652   22.8075 C   0  0  0  0  0  0  0  0  0  0  0  0
   13.8635   -0.6268   23.3761 C   0  0  0  0  0  0  0  0  0  0  0  0
  1  2  1  0
  2  3  2  0
  2  4  1  0
  4  5  1  0
  5  6  1  0
  6  7  1  0
  7  8  1  0
  8  9  1  0
  9 10  1  0
 10 11  2  0
 10 12  1  0
 12 13  1  0
 13 14  2  0
 14 15  1  0
 15 16  1  0
 16 17  1  0
 16 18  2  0
  7 19  1  0
 19 20  1  0
 20  4  1  0
 18 13  1  0
M  END
