CVD-0000872|dock_bobby27042020.97|mol2|14|dock1
     RDKit          3D

 28 31  0  0  0  0  0  0  0  0999 V2000
    9.0566   -0.4746   27.8235 Cl  0  0  0  0  0  0  0  0  0  0  0  0
    8.3826   -1.5140   26.5611 C   0  0  0  0  0  0  0  0  0  0  0  0
    8.1994   -0.7524   25.2620 C   0  0  0  0  0  0  0  0  0  0  0  0
    8.3079    0.4675   25.2411 O   0  0  0  0  0  0  0  0  0  0  0  0
    7.9243   -1.4691   24.1472 N   0  0  0  0  0  0  0  0  0  0  0  0
    7.8594   -2.9439   24.1533 C   0  0  0  0  0  0  0  0  0  0  0  0
    7.3264   -3.5769   22.8655 C   0  0  0  0  0  0  0  0  0  0  0  0
    7.4491   -4.9503   22.6812 C   0  0  0  0  0  0  0  0  0  0  0  0
    6.9575   -5.5691   21.5472 C   0  0  0  0  0  0  0  0  0  0  0  0
    6.3347   -4.8116   20.5817 C   0  0  0  0  0  0  0  0  0  0  0  0
    6.2116   -3.4460   20.7629 C   0  0  0  0  0  0  0  0  0  0  0  0
    6.6982   -2.7932   21.8975 C   0  0  0  0  0  0  0  0  0  0  0  0
    6.5436   -1.3096   22.1255 C   0  0  0  0  0  0  0  0  0  0  0  0
    7.7366   -0.7781   22.8475 C   0  0  0  0  0  0  0  0  0  0  0  0
    9.0227   -0.8699   22.0117 C   0  0  0  0  0  0  0  0  0  0  0  0
   10.2705   -0.5780   22.8094 C   0  0  0  0  0  0  0  0  0  0  0  0
   11.2265   -1.5556   23.0287 C   0  0  0  0  0  0  0  0  0  0  0  0
   12.3591   -1.2601   23.7670 C   0  0  0  0  0  0  0  0  0  0  0  0
   12.5003    0.0142   24.2671 C   0  0  0  0  0  0  0  0  0  0  0  0
   11.5976    0.9770   24.0746 N   0  0  0  0  0  0  0  0  0  0  0  0
   10.5123    0.6673   23.3587 C   0  0  0  0  0  0  0  0  0  0  0  0
    6.2729   -0.5268   20.8436 C   0  0  0  0  0  0  0  0  0  0  0  0
    7.0591   -0.7522   19.7218 C   0  0  0  0  0  0  0  0  0  0  0  0
    6.8398   -0.0566   18.5447 C   0  0  0  0  0  0  0  0  0  0  0  0
    5.8253    0.8818   18.4685 C   0  0  0  0  0  0  0  0  0  0  0  0
    5.0472    1.1044   19.5828 C   0  0  0  0  0  0  0  0  0  0  0  0
    3.7664    2.2817   19.5055 Cl  0  0  0  0  0  0  0  0  0  0  0  0
    5.2575    0.4166   20.7605 C   0  0  0  0  0  0  0  0  0  0  0  0
  1  2  1  0
  2  3  1  0
  3  4  2  0
  3  5  1  0
  5  6  1  0
  6  7  1  0
  7  8  2  0
  8  9  1  0
  9 10  2  0
 10 11  1  0
 11 12  2  0
 12 13  1  0
 13 14  1  0
 14 15  1  0
 15 16  1  0
 16 17  2  0
 17 18  1  0
 18 19  2  0
 19 20  1  0
 20 21  2  0
 13 22  1  0
 22 23  2  0
 23 24  1  0
 24 25  2  0
 25 26  1  0
 26 27  1  0
 26 28  2  0
 14  5  1  0
 21 16  1  0
 28 22  1  0
 12  7  1  0
M  END
