CVD-0000046|dock_bobby27042020.57|mol2|26|dock2
     RDKit          3D

 20 20  0  0  0  0  0  0  0  0999 V2000
   11.9428    5.6256   23.2209 C   0  0  0  0  0  0  0  0  0  0  0  0
   13.3087    5.0652   22.8505 C   0  0  0  0  0  0  0  0  0  0  0  0
   14.0638    6.0353   21.9530 C   0  0  0  0  0  0  0  0  0  0  0  0
   13.1345    3.7423   22.1316 C   0  0  0  0  0  0  0  0  0  0  0  0
   13.1854    3.6587   20.9073 O   0  0  0  0  0  0  0  0  0  0  0  0
   12.9234    2.6859   22.9320 N   0  0  0  0  0  0  0  0  0  0  0  0
   12.7407    1.3872   22.4518 C   0  0  0  0  0  0  0  0  0  0  0  0
   13.6777    0.4331   22.5571 C   0  0  0  0  0  0  0  0  0  0  0  0
   13.4049   -1.1917   21.9453 S   0  0  0  0  0  0  0  0  0  0  0  0
   13.9667   -1.2551   20.6284 O   0  0  0  0  0  0  0  0  0  0  0  0
   13.8528   -2.1102   22.9502 O   0  0  0  0  0  0  0  0  0  0  0  0
   11.7996   -1.3858   21.7951 N   0  0  0  0  0  0  0  0  0  0  0  0
   10.8037   -1.1703   22.8181 C   0  0  0  0  0  0  0  0  0  0  0  0
    9.4560   -1.3891   22.5065 C   0  0  0  0  0  0  0  0  0  0  0  0
    8.9832   -1.8381   21.1481 C   0  0  0  0  0  0  0  0  0  0  0  0
    8.5235   -1.1696   23.5165 C   0  0  0  0  0  0  0  0  0  0  0  0
    8.9443   -0.7554   24.7633 C   0  0  0  0  0  0  0  0  0  0  0  0
   10.2252   -0.5407   25.0863 N   0  0  0  0  0  0  0  0  0  0  0  0
   11.1084   -0.7433   24.1433 C   0  0  0  0  0  0  0  0  0  0  0  0
   12.3660   -0.5065   24.5447 F   0  0  0  0  0  0  0  0  0  0  0  0
  1  2  1  0
  2  3  1  0
  2  4  1  0
  4  5  2  0
  4  6  1  0
  6  7  1  0
  7  8  2  0
  8  9  1  0
  9 10  2  0
  9 11  2  0
  9 12  1  0
 12 13  1  0
 13 14  2  0
 14 15  1  0
 14 16  1  0
 16 17  2  0
 17 18  1  0
 18 19  2  0
 19 20  1  0
 19 13  1  0
M  END
