CVD-0002518|dock_bobby27042020.48|mol2|19|dock3
     RDKit          3D

 30 33  0  0  0  0  0  0  0  0999 V2000
    7.4092   -2.5630   19.4329 O   0  0  0  0  0  0  0  0  0  0  0  0
    7.8242   -1.4088   19.5173 C   0  0  0  0  0  0  0  0  0  0  0  0
    8.7481   -0.9615   20.4039 N   0  0  0  0  0  0  0  0  0  0  0  0
    9.4651   -1.6311   21.4267 C   0  0  0  0  0  0  0  0  0  0  0  0
   10.7693   -1.3033   21.7884 C   0  0  0  0  0  0  0  0  0  0  0  0
   11.4143   -1.9963   22.7978 C   0  0  0  0  0  0  0  0  0  0  0  0
   10.7669   -3.0247   23.4616 C   0  0  0  0  0  0  0  0  0  0  0  0
   11.3934   -3.7463   24.4798 O   0  0  0  0  0  0  0  0  0  0  0  0
   10.7209   -4.4993   25.3749 C   0  0  0  0  0  0  0  0  0  0  0  0
   10.0156   -3.8098   26.2601 N   0  0  0  0  0  0  0  0  0  0  0  0
    9.3520   -4.5522   27.1552 C   0  0  0  0  0  0  0  0  0  0  0  0
    9.3896   -5.9267   27.1712 C   0  0  0  0  0  0  0  0  0  0  0  0
   10.1627   -6.5144   26.1977 C   0  0  0  0  0  0  0  0  0  0  0  0
   10.8448   -5.8165   25.2810 N   0  0  0  0  0  0  0  0  0  0  0  0
    9.4727   -3.3609   23.1092 C   0  0  0  0  0  0  0  0  0  0  0  0
    8.8292   -2.6674   22.1001 C   0  0  0  0  0  0  0  0  0  0  0  0
    7.3331   -0.2864   18.5951 C   0  0  0  0  0  0  0  0  0  0  0  0
    8.2067    0.2054   17.8899 O   0  0  0  0  0  0  0  0  0  0  0  0
    6.0599    0.1521   18.5334 N   0  0  0  0  0  0  0  0  0  0  0  0
    5.0026   -0.3531   19.4119 C   0  0  0  0  0  0  0  0  0  0  0  0
    4.3161    0.7945   20.1292 C   0  0  0  0  0  0  0  0  0  0  0  0
    3.7586    1.7395   19.1571 N   0  0  0  0  0  0  0  0  0  0  0  0
    3.0610    2.8279   19.8434 C   0  0  0  0  0  0  0  0  0  0  0  0
    1.9008    2.3304   20.6519 C   0  0  0  0  0  0  0  0  0  0  0  0
    1.8376    2.1916   22.0217 C   0  0  0  0  0  0  0  0  0  0  0  0
    0.5768    1.6908   22.4274 C   0  0  0  0  0  0  0  0  0  0  0  0
   -0.2637    1.4660   21.4039 C   0  0  0  0  0  0  0  0  0  0  0  0
    0.4461    1.8553   19.9019 S   0  0  0  0  0  0  0  0  0  0  0  0
    4.8410    2.2668   18.3302 C   0  0  0  0  0  0  0  0  0  0  0  0
    5.5447    1.1462   17.5868 C   0  0  0  0  0  0  0  0  0  0  0  0
  1  2  2  0
  2  3  1  0
  3  4  1  0
  4  5  2  0
  5  6  1  0
  6  7  2  0
  7  8  1  0
  8  9  1  0
  9 10  2  0
 10 11  1  0
 11 12  2  0
 12 13  1  0
 13 14  2  0
  7 15  1  0
 15 16  2  0
  2 17  1  0
 17 18  2  0
 17 19  1  0
 19 20  1  0
 20 21  1  0
 21 22  1  0
 22 23  1  0
 23 24  1  0
 24 25  2  0
 25 26  1  0
 26 27  2  0
 27 28  1  0
 22 29  1  0
 29 30  1  0
 16  4  1  0
 30 19  1  0
 14  9  1  0
 28 24  1  0
M  END
