CVD-0002406|dock_bobby27042020.6|mol2|6|dock3
     RDKit          3D

 27 30  0  0  0  0  0  0  0  0999 V2000
   13.8579   -0.1813   24.2017 C   0  0  0  0  0  0  0  0  0  0  0  0
   12.5544   -0.6196   23.5796 C   0  0  0  0  0  0  0  0  0  0  0  0
   11.3386   -0.2543   24.1345 C   0  0  0  0  0  0  0  0  0  0  0  0
   10.1401   -0.6494   23.5676 C   0  0  0  0  0  0  0  0  0  0  0  0
   10.1279   -1.4279   22.4168 C   0  0  0  0  0  0  0  0  0  0  0  0
   11.3439   -1.7977   21.8544 C   0  0  0  0  0  0  0  0  0  0  0  0
   12.5350   -1.3954   22.4320 C   0  0  0  0  0  0  0  0  0  0  0  0
    8.8779   -1.8454   21.8225 N   0  0  0  0  0  0  0  0  0  0  0  0
    8.3075   -3.1007   22.1526 C   0  0  0  0  0  0  0  0  0  0  0  0
    8.8695   -3.9598   23.0962 C   0  0  0  0  0  0  0  0  0  0  0  0
    8.2818   -5.1846   23.3495 C   0  0  0  0  0  0  0  0  0  0  0  0
    9.0033   -6.2516   24.5094 Cl  0  0  0  0  0  0  0  0  0  0  0  0
    7.1302   -5.5508   22.6832 C   0  0  0  0  0  0  0  0  0  0  0  0
    6.5676   -6.7554   22.9329 F   0  0  0  0  0  0  0  0  0  0  0  0
    6.5434   -4.7139   21.7719 C   0  0  0  0  0  0  0  0  0  0  0  0
    7.1216   -3.4739   21.5028 C   0  0  0  0  0  0  0  0  0  0  0  0
    6.4542   -2.5936   20.5375 C   0  0  0  0  0  0  0  0  0  0  0  0
    5.4283   -2.9300   19.9705 O   0  0  0  0  0  0  0  0  0  0  0  0
    7.0866   -1.3552   20.3097 N   0  0  0  0  0  0  0  0  0  0  0  0
    6.4617   -0.4416   19.3700 C   0  0  0  0  0  0  0  0  0  0  0  0
    5.1997    0.0921   19.6012 C   0  0  0  0  0  0  0  0  0  0  0  0
    4.6431    0.9598   18.6781 C   0  0  0  0  0  0  0  0  0  0  0  0
    5.3651    1.2712   17.5499 C   0  0  0  0  0  0  0  0  0  0  0  0
    6.5772    0.7757   17.3017 N   0  0  0  0  0  0  0  0  0  0  0  0
    7.1026   -0.0636   18.1996 C   0  0  0  0  0  0  0  0  0  0  0  0
    8.2848   -0.9551   20.9221 C   0  0  0  0  0  0  0  0  0  0  0  0
    8.8034    0.1255   20.6872 O   0  0  0  0  0  0  0  0  0  0  0  0
  1  2  1  0
  2  3  2  0
  3  4  1  0
  4  5  2  0
  5  6  1  0
  6  7  2  0
  5  8  1  0
  8  9  1  0
  9 10  2  0
 10 11  1  0
 11 12  1  0
 11 13  2  0
 13 14  1  0
 13 15  1  0
 15 16  2  0
 16 17  1  0
 17 18  2  0
 17 19  1  0
 19 20  1  0
 20 21  2  0
 21 22  1  0
 22 23  2  0
 23 24  1  0
 24 25  2  0
 19 26  1  0
 26 27  2  0
  7  2  1  0
 26  8  1  0
 16  9  1  0
 25 20  1  0
M  END
