CVD-0001424|dock_bobby27042020.38|mol2|13|dock1
     RDKit          3D

 32 34  0  0  0  0  0  0  0  0999 V2000
   12.5822    5.4406   22.7420 C   0  0  0  0  0  0  0  0  0  0  0  0
   12.6814    3.9503   22.7298 C   0  0  0  0  0  0  0  0  0  0  0  0
   13.6796    3.0792   22.5432 C   0  0  0  0  0  0  0  0  0  0  0  0
   13.1003    1.8113   22.6596 C   0  0  0  0  0  0  0  0  0  0  0  0
   13.7488    0.4699   22.5419 C   0  0  0  0  0  0  0  0  0  0  0  0
   13.4664   -0.4394   23.7328 C   0  0  0  0  0  0  0  0  0  0  0  0
   14.6902   -0.8545   24.3335 O   0  0  0  0  0  0  0  0  0  0  0  0
   12.6575   -1.6426   23.2640 C   0  0  0  0  0  0  0  0  0  0  0  0
   13.2228   -2.6845   22.9429 O   0  0  0  0  0  0  0  0  0  0  0  0
   11.3338   -1.4920   23.2272 N   0  0  0  0  0  0  0  0  0  0  0  0
   10.4355   -2.5552   22.8005 C   0  0  0  0  0  0  0  0  0  0  0  0
    9.0253   -2.0515   22.5643 C   0  0  0  0  0  0  0  0  0  0  0  0
    8.9355   -1.0256   21.4623 C   0  0  0  0  0  0  0  0  0  0  0  0
    7.5745   -0.8531   21.0922 O   0  0  0  0  0  0  0  0  0  0  0  0
    7.3605   -0.0345   19.9485 C   0  0  0  0  0  0  0  0  0  0  0  0
    6.6819    1.2631   20.3494 C   0  0  0  0  0  0  0  0  0  0  0  0
    7.4344    1.9021   21.5194 C   0  0  0  0  0  0  0  0  0  0  0  0
    6.8425    3.2226   21.8201 N   0  0  0  0  0  0  0  0  0  0  0  0
    5.4304    3.1187   22.2348 C   0  0  0  0  0  0  0  0  0  0  0  0
    4.6292    2.4636   21.1325 C   0  0  0  0  0  0  0  0  0  0  0  0
    5.1986    1.1073   20.7269 C   0  0  0  0  0  0  0  0  0  0  0  0
    4.4246    0.4794   19.7037 O   0  0  0  0  0  0  0  0  0  0  0  0
    7.6305    4.1207   22.5104 C   0  0  0  0  0  0  0  0  0  0  0  0
    8.1970    5.2510   21.9241 C   0  0  0  0  0  0  0  0  0  0  0  0
    8.9622    6.0855   22.7203 C   0  0  0  0  0  0  0  0  0  0  0  0
    9.1546    5.7904   24.0638 C   0  0  0  0  0  0  0  0  0  0  0  0
    8.5519    4.6383   24.5536 C   0  0  0  0  0  0  0  0  0  0  0  0
    7.8090    3.8211   23.8004 N   0  0  0  0  0  0  0  0  0  0  0  0
    9.9469    6.6437   24.9146 C   0  0  0  0  0  0  0  0  0  0  0  0
   10.5978    7.2959   25.5895 N   0  0  0  0  0  0  0  0  0  0  0  0
   11.8257    1.8930   22.9026 N   0  0  0  0  0  0  0  0  0  0  0  0
   11.5359    3.2786   22.9516 O   0  0  0  0  0  0  0  0  0  0  0  0
  1  2  1  0
  2  3  2  0
  3  4  1  0
  4  5  1  0
  5  6  1  0
  6  7  1  0
  6  8  1  0
  8  9  2  0
  8 10  1  0
 10 11  1  0
 11 12  1  0
 12 13  1  0
 13 14  1  0
 14 15  1  0
 15 16  1  0
 16 17  1  0
 17 18  1  0
 18 19  1  0
 19 20  1  0
 20 21  1  0
 21 22  1  0
 18 23  1  0
 23 24  2  0
 24 25  1  0
 25 26  2  0
 26 27  1  0
 27 28  2  0
 26 29  1  0
 29 30  3  0
  4 31  2  0
 31 32  1  0
 32  2  1  0
 21 16  1  0
 28 23  1  0
M  END
