CVD-0001064|dock_bobby27042020.11|mol2|1|dock1
     RDKit          3D

 21 23  0  0  0  0  0  0  0  0999 V2000
    4.4017    2.2490   21.3681 Br  0  0  0  0  0  0  0  0  0  0  0  0
    4.9754    0.8338   20.2385 C   0  0  0  0  0  0  0  0  0  0  0  0
    4.8350    0.9660   18.8733 C   0  0  0  0  0  0  0  0  0  0  0  0
    5.2559   -0.0706   18.0571 C   0  0  0  0  0  0  0  0  0  0  0  0
    5.8066   -1.2158   18.6073 C   0  0  0  0  0  0  0  0  0  0  0  0
    5.9426   -1.3365   19.9863 C   0  0  0  0  0  0  0  0  0  0  0  0
    5.5209   -0.2973   20.8078 C   0  0  0  0  0  0  0  0  0  0  0  0
    6.5297   -2.5497   20.6312 C   0  0  0  0  0  0  0  0  0  0  0  0
    5.9645   -3.6390   20.4845 O   0  0  0  0  0  0  0  0  0  0  0  0
    7.7627   -2.4530   21.4303 C   0  0  0  0  0  0  0  0  0  0  0  0
    8.6501   -1.4871   21.2145 C   0  0  0  0  0  0  0  0  0  0  0  0
    9.9054   -1.2934   21.9441 C   0  0  0  0  0  0  0  0  0  0  0  0
   10.5886   -0.0816   21.8961 C   0  0  0  0  0  0  0  0  0  0  0  0
   11.7155    0.1440   22.5301 N   0  0  0  0  0  0  0  0  0  0  0  0
   12.2139   -0.8953   23.2687 C   0  0  0  0  0  0  0  0  0  0  0  0
   13.4232   -0.7409   23.9844 C   0  0  0  0  0  0  0  0  0  0  0  0
   13.9166   -1.7788   24.7193 C   0  0  0  0  0  0  0  0  0  0  0  0
   13.2525   -2.9879   24.7785 C   0  0  0  0  0  0  0  0  0  0  0  0
   12.0827   -3.1815   24.1040 C   0  0  0  0  0  0  0  0  0  0  0  0
   11.5328   -2.1347   23.3292 C   0  0  0  0  0  0  0  0  0  0  0  0
   10.3593   -2.3216   22.6496 N   0  0  0  0  0  0  0  0  0  0  0  0
  1  2  1  0
  2  3  2  0
  3  4  1  0
  4  5  2  0
  5  6  1  0
  6  7  2  0
  6  8  1  0
  8  9  2  0
  8 10  1  0
 10 11  2  0
 11 12  1  0
 12 13  2  0
 13 14  1  0
 14 15  2  0
 15 16  1  0
 16 17  2  0
 17 18  1  0
 18 19  2  0
 19 20  1  0
 20 21  2  0
  7  2  1  0
 21 12  1  0
 20 15  1  0
M  END
