CVD-0001285|dock_bobby27042020.95|mol2|44|dock3
     RDKit          3D

 18 18  0  0  0  0  0  0  0  0999 V2000
   10.7883    1.2099   23.0314 Cl  0  0  0  0  0  0  0  0  0  0  0  0
   12.3383    0.6442   23.6674 C   0  0  0  0  0  0  0  0  0  0  0  0
   13.1465   -0.1143   22.6479 C   0  0  0  0  0  0  0  0  0  0  0  0
   14.0287    0.4026   21.9963 O   0  0  0  0  0  0  0  0  0  0  0  0
   12.7866   -1.5746   22.4855 C   0  0  0  0  0  0  0  0  0  0  0  0
   11.4807   -1.8394   21.9216 N   0  0  0  0  0  0  0  0  0  0  0  0
   10.3986   -1.9241   22.6906 C   0  0  0  0  0  0  0  0  0  0  0  0
   10.4365   -1.7853   23.9092 O   0  0  0  0  0  0  0  0  0  0  0  0
    9.0919   -2.1905   21.9734 C   0  0  0  0  0  0  0  0  0  0  0  0
    8.6585   -0.9788   21.1757 C   0  0  0  0  0  0  0  0  0  0  0  0
    9.4627   -0.1139   20.8425 O   0  0  0  0  0  0  0  0  0  0  0  0
    7.3594   -0.9123   20.8767 N   0  0  0  0  0  0  0  0  0  0  0  0
    6.7753    0.1980   20.1243 C   0  0  0  0  0  0  0  0  0  0  0  0
    6.2175   -0.2802   18.7681 C   0  0  0  0  0  0  0  0  0  0  0  0
    5.5356    0.8433   17.9894 C   0  0  0  0  0  0  0  0  0  0  0  0
    4.4571    1.5216   18.8243 C   0  0  0  0  0  0  0  0  0  0  0  0
    5.0196    2.0200   20.1478 C   0  0  0  0  0  0  0  0  0  0  0  0
    5.6636    0.8843   20.9364 C   0  0  0  0  0  0  0  0  0  0  0  0
  1  2  1  0
  2  3  1  0
  3  4  2  0
  3  5  1  0
  5  6  1  0
  6  7  1  0
  7  8  2  0
  7  9  1  0
  9 10  1  0
 10 11  2  0
 10 12  1  0
 12 13  1  0
 13 14  1  0
 14 15  1  0
 15 16  1  0
 16 17  1  0
 17 18  1  0
 18 13  1  0
M  END
