CVD-0003398|dock_bobby27042020.16|mol2|39|dock3
     RDKit          3D

 19 21  0  0  0  0  0  0  0  0999 V2000
    9.5624    0.6869   21.0193 O   0  0  0  0  0  0  0  0  0  0  0  0
    8.8166   -0.1541   21.5118 C   0  0  0  0  0  0  0  0  0  0  0  0
    9.3301   -0.9578   22.6785 C   0  0  0  0  0  0  0  0  0  0  0  0
   10.8380   -0.8091   22.9051 C   0  0  0  0  0  0  0  0  0  0  0  0
   11.2485   -1.3436   24.2925 C   0  0  0  0  0  0  0  0  0  0  0  0
   12.7575   -1.2759   24.5203 C   0  0  0  0  0  0  0  0  0  0  0  0
   13.5187   -1.9829   23.4063 C   0  0  0  0  0  0  0  0  0  0  0  0
   13.1338   -1.4301   22.0415 C   0  0  0  0  0  0  0  0  0  0  0  0
   11.6306   -1.5378   21.8065 C   0  0  0  0  0  0  0  0  0  0  0  0
    7.5611   -0.3052   20.9738 N   0  0  0  0  0  0  0  0  0  0  0  0
    6.7879    0.2529   19.9382 C   0  0  0  0  0  0  0  0  0  0  0  0
    7.4022    0.1458   18.7192 C   0  0  0  0  0  0  0  0  0  0  0  0
    6.8922    0.6039   17.5407 N   0  0  0  0  0  0  0  0  0  0  0  0
    5.7309    1.1878   17.5779 C   0  0  0  0  0  0  0  0  0  0  0  0
    4.9817    1.3589   18.7732 C   0  0  0  0  0  0  0  0  0  0  0  0
    3.7913    1.9270   18.9443 N   0  0  0  0  0  0  0  0  0  0  0  0
    3.5462    1.8093   20.2856 C   0  0  0  0  0  0  0  0  0  0  0  0
    4.5579    1.1861   20.9274 C   0  0  0  0  0  0  0  0  0  0  0  0
    5.5257    0.8794   19.9656 N   0  0  0  0  0  0  0  0  0  0  0  0
  1  2  2  0
  2  3  1  0
  3  4  1  0
  4  5  1  0
  5  6  1  0
  6  7  1  0
  7  8  1  0
  8  9  1  0
  2 10  1  0
 10 11  1  0
 11 12  2  0
 12 13  1  0
 13 14  2  0
 14 15  1  0
 15 16  2  0
 16 17  1  0
 17 18  2  0
 18 19  1  0
  9  4  1  0
 19 11  1  0
 19 15  1  0
M  END
