CVD-0002324|dock_bobby27042020.6|mol2|19|dock3
     RDKit          3D

 30 33  0  0  0  0  0  0  0  0999 V2000
   10.0732   -5.4609   25.7271 C   0  0  0  0  0  0  0  0  0  0  0  0
    8.9785   -5.1986   24.7350 C   0  0  0  0  0  0  0  0  0  0  0  0
    7.9537   -5.8713   24.7249 O   0  0  0  0  0  0  0  0  0  0  0  0
    9.1468   -4.1826   23.8535 N   0  0  0  0  0  0  0  0  0  0  0  0
   10.3153   -3.3021   23.7586 C   0  0  0  0  0  0  0  0  0  0  0  0
    9.8882   -1.8615   23.6490 C   0  0  0  0  0  0  0  0  0  0  0  0
    8.9922   -1.6671   22.4974 N   0  0  0  0  0  0  0  0  0  0  0  0
    7.8138   -2.5112   22.7005 C   0  0  0  0  0  0  0  0  0  0  0  0
    8.1963   -3.9707   22.7636 C   0  0  0  0  0  0  0  0  0  0  0  0
    8.6113   -0.2664   22.3559 C   0  0  0  0  0  0  0  0  0  0  0  0
    9.8758    0.5955   22.1371 C   0  0  0  0  0  0  0  0  0  0  0  0
   10.8615    0.0963   21.6022 O   0  0  0  0  0  0  0  0  0  0  0  0
    9.7565    1.8730   22.5762 N   0  0  0  0  0  0  0  0  0  0  0  0
   10.6692    2.9569   22.5562 C   0  0  0  0  0  0  0  0  0  0  0  0
   11.6152    3.1282   21.5519 C   0  0  0  0  0  0  0  0  0  0  0  0
   12.4754    4.2087   21.5998 C   0  0  0  0  0  0  0  0  0  0  0  0
   12.4068    5.1209   22.6373 C   0  0  0  0  0  0  0  0  0  0  0  0
   11.4638    4.9693   23.6494 C   0  0  0  0  0  0  0  0  0  0  0  0
   10.5965    3.8777   23.5973 C   0  0  0  0  0  0  0  0  0  0  0  0
   11.3615    5.9036   24.7419 N   0  0  0  0  0  0  0  0  0  0  0  0
   12.5526    6.4105   25.4277 C   0  0  0  0  0  0  0  0  0  0  0  0
   12.0124    7.3715   26.4581 C   0  0  0  0  0  0  0  0  0  0  0  0
   10.5116    7.2278   26.4574 C   0  0  0  0  0  0  0  0  0  0  0  0
   10.1818    6.3238   25.3075 C   0  0  0  0  0  0  0  0  0  0  0  0
    9.0799    5.9795   24.9011 O   0  0  0  0  0  0  0  0  0  0  0  0
    7.6833   -0.0522   21.1872 C   0  0  0  0  0  0  0  0  0  0  0  0
    7.8421   -0.6516   19.9041 C   0  0  0  0  0  0  0  0  0  0  0  0
    6.8801   -0.3033   19.0043 C   0  0  0  0  0  0  0  0  0  0  0  0
    5.7716    0.7636   19.7244 S   0  0  0  0  0  0  0  0  0  0  0  0
    6.5827    0.7520   21.2184 C   0  0  0  0  0  0  0  0  0  0  0  0
  1  2  1  0
  2  3  2  0
  2  4  1  0
  4  5  1  0
  5  6  1  0
  6  7  1  0
  7  8  1  0
  8  9  1  0
  7 10  1  0
 10 11  1  0
 11 12  2  0
 11 13  1  0
 13 14  1  0
 14 15  2  0
 15 16  1  0
 16 17  2  0
 17 18  1  0
 18 19  2  0
 18 20  1  0
 20 21  1  0
 21 22  1  0
 22 23  1  0
 23 24  1  0
 24 25  2  0
 10 26  1  0
 26 27  1  0
 27 28  2  0
 28 29  1  0
 29 30  1  0
  9  4  1  0
 19 14  1  0
 24 20  1  0
 30 26  2  0
M  END
