CVD-0003646|dock_bobby27042020.30|mol2|18|dock1
     RDKit          3D

 30 33  0  0  0  0  0  0  0  0999 V2000
   14.7321    6.3402   22.2456 O   0  0  0  0  0  0  0  0  0  0  0  0
   13.6704    6.2981   22.8637 N   0  0  0  0  0  0  0  0  0  0  0  0
   13.3004    7.1573   23.6457 O   0  0  0  0  0  0  0  0  0  0  0  0
   12.7917    5.1409   22.6475 C   0  0  0  0  0  0  0  0  0  0  0  0
   13.3413    3.9216   22.2967 C   0  0  0  0  0  0  0  0  0  0  0  0
   12.5169    2.8404   22.0520 C   0  0  0  0  0  0  0  0  0  0  0  0
   11.1338    2.9733   22.1593 C   0  0  0  0  0  0  0  0  0  0  0  0
   10.5798    4.1945   22.6032 C   0  0  0  0  0  0  0  0  0  0  0  0
   11.4230    5.2847   22.8008 C   0  0  0  0  0  0  0  0  0  0  0  0
    9.1636    4.3942   22.8848 N   0  0  0  0  0  0  0  0  0  0  0  0
    8.6740    5.5175   22.7932 O   0  0  0  0  0  0  0  0  0  0  0  0
    8.4869    3.4157   23.1525 O   0  0  0  0  0  0  0  0  0  0  0  0
   10.3541    1.8325   21.7761 N   0  0  0  0  0  0  0  0  0  0  0  0
    9.1897    2.0806   21.0661 N   0  0  0  0  0  0  0  0  0  0  0  0
    8.6919    0.8744   20.7769 C   0  0  0  0  0  0  0  0  0  0  0  0
    9.5107   -0.1409   21.2925 C   0  0  0  0  0  0  0  0  0  0  0  0
   10.5646    0.4808   21.9331 C   0  0  0  0  0  0  0  0  0  0  0  0
   11.6715   -0.2109   22.6308 C   0  0  0  0  0  0  0  0  0  0  0  0
   12.2101    0.3746   23.7720 C   0  0  0  0  0  0  0  0  0  0  0  0
   13.2336   -0.2326   24.4772 C   0  0  0  0  0  0  0  0  0  0  0  0
   13.7282   -1.4397   24.0345 C   0  0  0  0  0  0  0  0  0  0  0  0
   15.1221   -2.2902   25.0049 Br  0  0  0  0  0  0  0  0  0  0  0  0
   13.2294   -2.0399   22.8991 C   0  0  0  0  0  0  0  0  0  0  0  0
   12.2132   -1.4177   22.1955 C   0  0  0  0  0  0  0  0  0  0  0  0
    7.4409    0.7497   20.0128 C   0  0  0  0  0  0  0  0  0  0  0  0
    7.2485   -0.3126   19.1366 C   0  0  0  0  0  0  0  0  0  0  0  0
    6.0697   -0.4270   18.4187 C   0  0  0  0  0  0  0  0  0  0  0  0
    5.0730    0.5137   18.5663 C   0  0  0  0  0  0  0  0  0  0  0  0
    5.2517    1.5715   19.4319 C   0  0  0  0  0  0  0  0  0  0  0  0
    6.4280    1.6918   20.1527 C   0  0  0  0  0  0  0  0  0  0  0  0
  1  2  1  0
  2  3  2  0
  2  4  1  0
  4  5  2  0
  5  6  1  0
  6  7  2  0
  7  8  1  0
  8  9  2  0
  8 10  1  0
 10 11  1  0
 10 12  2  0
  7 13  1  0
 13 14  1  0
 14 15  2  0
 15 16  1  0
 16 17  2  0
 17 18  1  0
 18 19  2  0
 19 20  1  0
 20 21  2  0
 21 22  1  0
 21 23  1  0
 23 24  2  0
 15 25  1  0
 25 26  2  0
 26 27  1  0
 27 28  2  0
 28 29  1  0
 29 30  2  0
  9  4  1  0
 17 13  1  0
 24 18  1  0
 30 25  1  0
M  CHG  4   1  -1   2   1  10   1  11  -1
M  END
