CVD-0003462|dock_bobby27042020.2|mol2|5|dock1
     RDKit          3D

 40 44  0  0  0  0  0  0  0  0999 V2000
    7.7242    5.9212   23.2920 C   0  0  0  0  0  0  0  0  0  0  0  0
    7.7210    4.3914   23.0784 C   0  0  0  0  0  0  0  0  0  0  0  0
    6.8551    3.9902   21.8616 C   0  0  0  0  0  0  0  0  0  0  0  0
    5.4085    3.7646   22.3798 C   0  0  0  0  0  0  0  0  0  0  0  0
    4.8999    2.3503   22.0111 C   0  0  0  0  0  0  0  0  0  0  0  0
    5.0932    1.8947   20.5907 C   0  0  0  0  0  0  0  0  0  0  0  0
    4.3867    2.2761   19.4874 C   0  0  0  0  0  0  0  0  0  0  0  0
    4.8592    1.6440   18.3680 N   0  0  0  0  0  0  0  0  0  0  0  0
    5.8930    0.8326   18.7320 C   0  0  0  0  0  0  0  0  0  0  0  0
    6.6280    0.0407   17.9329 N   0  0  0  0  0  0  0  0  0  0  0  0
    7.5969   -0.6673   18.5292 C   0  0  0  0  0  0  0  0  0  0  0  0
    7.8624   -0.6193   19.8810 C   0  0  0  0  0  0  0  0  0  0  0  0
    7.0944    0.2027   20.6906 C   0  0  0  0  0  0  0  0  0  0  0  0
    6.0737    0.9600   20.1194 C   0  0  0  0  0  0  0  0  0  0  0  0
    5.4967    3.9063   23.9113 C   0  0  0  0  0  0  0  0  0  0  0  0
    6.9718    3.6805   24.2363 C   0  0  0  0  0  0  0  0  0  0  0  0
    7.3593    4.0636   25.6659 C   0  0  0  0  0  0  0  0  0  0  0  0
    6.9154    3.1401   26.7523 C   0  0  0  0  0  0  0  0  0  0  0  0
    7.5081    2.0441   26.9084 N   0  0  0  0  0  0  0  0  0  0  0  0
    5.9086    3.5480   27.4929 N   0  0  0  0  0  0  0  0  0  0  0  0
    4.4122    4.7536   21.7948 C   0  0  0  0  0  0  0  0  0  0  0  0
    4.7194    5.5205   20.9110 O   0  0  0  0  0  0  0  0  0  0  0  0
    2.9878    4.7753   22.3367 C   0  0  0  0  0  0  0  0  0  0  0  0
    2.2714    6.3914   22.3942 Cl  0  0  0  0  0  0  0  0  0  0  0  0
    9.1579    3.8887   22.9857 C   0  0  0  0  0  0  0  0  0  0  0  0
   10.2040    4.8055   22.9690 C   0  0  0  0  0  0  0  0  0  0  0  0
   11.5373    4.4395   22.8933 C   0  0  0  0  0  0  0  0  0  0  0  0
   12.5626    5.4535   22.8861 C   0  0  0  0  0  0  0  0  0  0  0  0
   13.4063    6.2234   22.8674 N   0  0  0  0  0  0  0  0  0  0  0  0
   11.8860    3.0511   22.8221 C   0  0  0  0  0  0  0  0  0  0  0  0
   13.2225    2.5827   22.7437 C   0  0  0  0  0  0  0  0  0  0  0  0
   13.4985    1.2508   22.6771 C   0  0  0  0  0  0  0  0  0  0  0  0
   12.4652    0.3267   22.6863 C   0  0  0  0  0  0  0  0  0  0  0  0
   11.1612    0.7205   22.7588 C   0  0  0  0  0  0  0  0  0  0  0  0
   10.8322    2.0939   22.8303 C   0  0  0  0  0  0  0  0  0  0  0  0
    9.4917    2.5416   22.9092 C   0  0  0  0  0  0  0  0  0  0  0  0
   12.8442   -1.3969   22.5920 S   0  0  0  0  0  0  0  0  0  0  0  0
   11.6300   -2.1441   21.8638 N   0  0  0  0  0  0  0  0  0  0  0  0
   12.9048   -1.8955   23.9332 O   0  0  0  0  0  0  0  0  0  0  0  0
   13.9938   -1.5366   21.7495 O   0  0  0  0  0  0  0  0  0  0  0  0
  2  1  1  0
  2  3  1  0
  3  4  1  0
  4  5  1  0
  5  6  1  0
  6  7  2  0
  7  8  1  0
  8  9  1  0
  9 10  2  0
 10 11  1  0
 11 12  2  0
 12 13  1  0
 13 14  2  0
  4 15  1  0
 15 16  1  0
 16 17  1  0
 17 18  1  0
 18 19  1  0
 18 20  2  0
  4 21  1  0
 21 22  2  0
 21 23  1  0
 23 24  1  0
  2 25  1  0
 25 26  2  0
 26 27  1  0
 27 28  1  0
 28 29  3  0
 27 30  2  0
 30 31  1  0
 31 32  2  0
 32 33  1  0
 33 34  2  0
 34 35  1  0
 35 36  2  0
 33 37  1  0
 37 38  1  0
 37 39  2  0
 37 40  2  0
 16  2  1  0
 36 25  1  0
 14  6  1  0
 35 30  1  0
 14  9  1  0
M  END
