CVD-0002956|dock_bobby27042020.89|mol2|29|dock3
     RDKit          3D

 33 36  0  0  0  0  0  0  0  0999 V2000
   13.3390   -1.8622   20.8385 N   0  0  0  0  0  0  0  0  0  0  0  0
   12.9527   -1.5774   22.3658 S   0  0  0  0  0  0  0  0  0  0  0  0
   11.8524   -2.4344   22.6913 O   0  0  0  0  0  0  0  0  0  0  0  0
   14.1579   -1.6772   23.1331 O   0  0  0  0  0  0  0  0  0  0  0  0
   12.3802    0.0894   22.4970 C   0  0  0  0  0  0  0  0  0  0  0  0
   13.2770    1.0913   22.8332 C   0  0  0  0  0  0  0  0  0  0  0  0
   12.8538    2.3818   22.9341 C   0  0  0  0  0  0  0  0  0  0  0  0
   11.5018    2.7280   22.6992 C   0  0  0  0  0  0  0  0  0  0  0  0
   11.0261    4.0577   22.7956 C   0  0  0  0  0  0  0  0  0  0  0  0
    9.7139    4.3407   22.5601 C   0  0  0  0  0  0  0  0  0  0  0  0
    8.8226    3.3363   22.2224 C   0  0  0  0  0  0  0  0  0  0  0  0
    9.2230    2.0305   22.1122 C   0  0  0  0  0  0  0  0  0  0  0  0
    8.2247    0.9534   21.7444 C   0  0  0  0  0  0  0  0  0  0  0  0
    8.0162   -0.0214   22.8214 N   0  0  0  0  0  0  0  0  0  0  0  0
    7.8626   -1.3497   22.5350 C   0  0  0  0  0  0  0  0  0  0  0  0
    7.6485   -2.3004   23.4884 C   0  0  0  0  0  0  0  0  0  0  0  0
    7.4523   -3.7038   23.0299 C   0  0  0  0  0  0  0  0  0  0  0  0
    6.7274   -4.0441   21.8922 C   0  0  0  0  0  0  0  0  0  0  0  0
    6.5736   -5.3725   21.5359 C   0  0  0  0  0  0  0  0  0  0  0  0
    7.1683   -6.3354   22.3169 C   0  0  0  0  0  0  0  0  0  0  0  0
    7.8903   -6.0476   23.3995 N   0  0  0  0  0  0  0  0  0  0  0  0
    8.0180   -4.7598   23.7334 C   0  0  0  0  0  0  0  0  0  0  0  0
    7.6306   -1.8137   24.8553 C   0  0  0  0  0  0  0  0  0  0  0  0
    7.5190   -2.6711   25.9459 N   0  0  0  0  0  0  0  0  0  0  0  0
    6.4106   -3.3651   26.3537 C   0  0  0  0  0  0  0  0  0  0  0  0
    5.3100   -3.3421   25.8102 O   0  0  0  0  0  0  0  0  0  0  0  0
    6.6465   -4.2180   27.5808 C   0  0  0  0  0  0  0  0  0  0  0  0
    7.9226   -5.4201   27.3490 Cl  0  0  0  0  0  0  0  0  0  0  0  0
    7.7435   -0.5207   25.1158 N   0  0  0  0  0  0  0  0  0  0  0  0
    7.9317    0.4079   24.1428 C   0  0  0  0  0  0  0  0  0  0  0  0
    8.0356    1.6104   24.3911 O   0  0  0  0  0  0  0  0  0  0  0  0
   10.5838    1.6942   22.3516 C   0  0  0  0  0  0  0  0  0  0  0  0
   11.0660    0.3647   22.2575 C   0  0  0  0  0  0  0  0  0  0  0  0
  1  2  1  0
  2  3  2  0
  2  4  2  0
  2  5  1  0
  5  6  2  0
  6  7  1  0
  7  8  2  0
  8  9  1  0
  9 10  2  0
 10 11  1  0
 11 12  2  0
 12 13  1  0
 13 14  1  0
 14 15  1  0
 15 16  2  0
 16 17  1  0
 17 18  2  0
 18 19  1  0
 19 20  2  0
 20 21  1  0
 21 22  2  0
 16 23  1  0
 23 24  1  0
 24 25  1  0
 25 26  2  0
 25 27  1  0
 27 28  1  0
 23 29  2  0
 29 30  1  0
 30 31  2  0
 12 32  1  0
 32 33  2  0
 33  5  1  0
 32  8  1  0
 30 14  1  0
 22 17  1  0
M  END
