CVD-0001173|dock_bobby27042020.67|mol2|51|dock2
     RDKit          3D

 28 31  0  0  0  0  0  0  0  0999 V2000
    5.6989   -0.1765   20.0716 O   0  0  0  0  0  0  0  0  0  0  0  0
    6.0914   -0.9137   18.9083 S   0  0  0  0  0  0  0  0  0  0  0  0
    5.3174   -0.7985   17.7091 O   0  0  0  0  0  0  0  0  0  0  0  0
    7.7626   -0.4446   18.5228 C   0  0  0  0  0  0  0  0  0  0  0  0
    8.6782   -0.4290   19.6873 C   0  0  0  0  0  0  0  0  0  0  0  0
    9.0428    0.5772   20.4048 N   0  0  0  0  0  0  0  0  0  0  0  0
    9.8759    0.0113   21.3270 C   0  0  0  0  0  0  0  0  0  0  0  0
   10.0281   -1.2759   21.2014 N   0  0  0  0  0  0  0  0  0  0  0  0
    9.2129   -1.5885   20.0857 O   0  0  0  0  0  0  0  0  0  0  0  0
   10.5512    0.7831   22.3803 C   0  0  0  0  0  0  0  0  0  0  0  0
   10.8871    0.1951   23.5936 C   0  0  0  0  0  0  0  0  0  0  0  0
   11.5207    0.9640   24.5497 C   0  0  0  0  0  0  0  0  0  0  0  0
   11.8341    2.2491   24.3808 N   0  0  0  0  0  0  0  0  0  0  0  0
   11.5065    2.8016   23.2123 C   0  0  0  0  0  0  0  0  0  0  0  0
   10.8722    2.1217   22.1913 C   0  0  0  0  0  0  0  0  0  0  0  0
    6.1381   -2.4887   19.3224 N   0  0  0  0  0  0  0  0  0  0  0  0
    6.6123   -3.0090   20.5664 C   0  0  0  0  0  0  0  0  0  0  0  0
    6.6004   -4.3762   20.7991 C   0  0  0  0  0  0  0  0  0  0  0  0
    7.0581   -4.8896   21.9996 C   0  0  0  0  0  0  0  0  0  0  0  0
    7.5304   -4.0522   23.0065 C   0  0  0  0  0  0  0  0  0  0  0  0
    7.5416   -2.6817   22.7604 C   0  0  0  0  0  0  0  0  0  0  0  0
    7.0906   -2.1655   21.5585 C   0  0  0  0  0  0  0  0  0  0  0  0
    7.9823   -4.5479   24.2235 N   0  0  0  0  0  0  0  0  0  0  0  0
    8.9779   -5.6246   24.2797 C   0  0  0  0  0  0  0  0  0  0  0  0
   10.0380   -5.3097   25.3090 C   0  0  0  0  0  0  0  0  0  0  0  0
    9.4280   -5.0239   26.6701 C   0  0  0  0  0  0  0  0  0  0  0  0
    8.3890   -3.9117   26.5636 C   0  0  0  0  0  0  0  0  0  0  0  0
    7.3478   -4.2320   25.5038 C   0  0  0  0  0  0  0  0  0  0  0  0
  1  2  2  0
  2  3  2  0
  2  4  1  0
  4  5  1  0
  5  6  2  0
  6  7  1  0
  7  8  2  0
  8  9  1  0
  7 10  1  0
 10 11  2  0
 11 12  1  0
 12 13  2  0
 13 14  1  0
 14 15  2  0
  2 16  1  0
 16 17  1  0
 17 18  2  0
 18 19  1  0
 19 20  2  0
 20 21  1  0
 21 22  2  0
 20 23  1  0
 23 24  1  0
 24 25  1  0
 25 26  1  0
 26 27  1  0
 27 28  1  0
  9  5  1  0
 15 10  1  0
 22 17  1  0
 28 23  1  0
M  END
