CVD-0002363|dock_bobby27042020.6|mol2|13|dock2
     RDKit          3D

 38 42  0  0  0  0  0  0  0  0999 V2000
    7.4143   -1.1252   28.1363 C   0  0  0  0  0  0  0  0  0  0  0  0
    7.7306   -1.3172   26.7186 N   0  0  0  0  0  0  0  0  0  0  0  0
    6.6382   -0.9754   25.8012 C   0  0  0  0  0  0  0  0  0  0  0  0
    7.0778   -1.0422   24.3622 C   0  0  0  0  0  0  0  0  0  0  0  0
    6.2470   -0.8362   23.2475 C   0  0  0  0  0  0  0  0  0  0  0  0
    6.9707   -0.9671   22.0745 C   0  0  0  0  0  0  0  0  0  0  0  0
    6.4412   -0.8275   20.6900 C   0  0  0  0  0  0  0  0  0  0  0  0
    6.3299    0.4239   20.0777 C   0  0  0  0  0  0  0  0  0  0  0  0
    5.8428    0.5568   18.7883 C   0  0  0  0  0  0  0  0  0  0  0  0
    5.4645   -0.5510   18.0659 C   0  0  0  0  0  0  0  0  0  0  0  0
    5.5651   -1.8062   18.6347 C   0  0  0  0  0  0  0  0  0  0  0  0
    6.0387   -1.9153   19.9208 C   0  0  0  0  0  0  0  0  0  0  0  0
    6.0933   -3.1686   20.4270 F   0  0  0  0  0  0  0  0  0  0  0  0
    8.3050   -1.2554   22.4854 N   0  0  0  0  0  0  0  0  0  0  0  0
    8.3484   -1.2988   23.8733 C   0  0  0  0  0  0  0  0  0  0  0  0
    9.7501   -1.5292   21.6382 S   0  0  0  0  0  0  0  0  0  0  0  0
    9.5377   -1.1250   20.2829 O   0  0  0  0  0  0  0  0  0  0  0  0
   10.0815   -2.8933   21.9105 O   0  0  0  0  0  0  0  0  0  0  0  0
   10.9922   -0.5323   22.3869 C   0  0  0  0  0  0  0  0  0  0  0  0
   11.8972   -1.1095   23.2589 C   0  0  0  0  0  0  0  0  0  0  0  0
   12.8663   -0.3087   23.8334 C   0  0  0  0  0  0  0  0  0  0  0  0
   12.9278    1.0429   23.5388 C   0  0  0  0  0  0  0  0  0  0  0  0
   12.0099    1.6348   22.6752 C   0  0  0  0  0  0  0  0  0  0  0  0
   11.0361    0.8226   22.0952 C   0  0  0  0  0  0  0  0  0  0  0  0
   12.0634    3.0269   22.3709 N   0  0  0  0  0  0  0  0  0  0  0  0
   13.2776    3.6366   21.7792 C   0  0  0  0  0  0  0  0  0  0  0  0
   13.8395    4.6115   22.6046 C   0  0  0  0  0  0  0  0  0  0  0  0
   13.0481    5.3730   23.5442 C   0  0  0  0  0  0  0  0  0  0  0  0
   11.5721    5.1696   23.3781 C   0  0  0  0  0  0  0  0  0  0  0  0
   10.6649    6.1583   23.7449 C   0  0  0  0  0  0  0  0  0  0  0  0
    9.3075    5.9985   23.5558 C   0  0  0  0  0  0  0  0  0  0  0  0
    8.8536    4.8218   22.9869 C   0  0  0  0  0  0  0  0  0  0  0  0
    9.7342    3.8170   22.6105 C   0  0  0  0  0  0  0  0  0  0  0  0
   11.1046    3.9892   22.8065 C   0  0  0  0  0  0  0  0  0  0  0  0
    7.1241    4.5993   22.7022 S   0  0  0  0  0  0  0  0  0  0  0  0
    6.6558    5.6438   21.5829 N   0  0  0  0  0  0  0  0  0  0  0  0
    6.4434    4.9439   23.9142 O   0  0  0  0  0  0  0  0  0  0  0  0
    6.9456    3.2868   22.1578 O   0  0  0  0  0  0  0  0  0  0  0  0
  1  2  1  0
  2  3  1  0
  3  4  1  0
  4  5  1  0
  5  6  2  0
  6  7  1  0
  7  8  2  0
  8  9  1  0
  9 10  2  0
 10 11  1  0
 11 12  2  0
 12 13  1  0
  6 14  1  0
 14 15  1  0
 14 16  1  0
 16 17  2  0
 16 18  2  0
 16 19  1  0
 19 20  2  0
 20 21  1  0
 21 22  2  0
 22 23  1  0
 23 24  2  0
 23 25  1  0
 25 26  1  0
 26 27  1  0
 27 28  1  0
 28 29  1  0
 29 30  2  0
 30 31  1  0
 31 32  2  0
 32 33  1  0
 33 34  2  0
 32 35  1  0
 35 36  1  0
 35 37  2  0
 35 38  2  0
 15  4  2  0
 24 19  1  0
 34 25  1  0
 12  7  1  0
 34 29  1  0
M  END
