CVD-0003927|dock_bobby27042020.0|mol2|24|dock1
     RDKit          3D

 27 29  0  0  0  0  0  0  0  0999 V2000
    2.6561    2.4281   20.9547 C   0  0  0  0  0  0  0  0  0  0  0  0
    4.0558    1.8765   20.8335 C   0  0  0  0  0  0  0  0  0  0  0  0
    4.8939    1.8090   21.9340 C   0  0  0  0  0  0  0  0  0  0  0  0
    6.1751    1.3018   21.8240 C   0  0  0  0  0  0  0  0  0  0  0  0
    6.6391    0.8512   20.5975 C   0  0  0  0  0  0  0  0  0  0  0  0
    5.8209    0.8986   19.4593 C   0  0  0  0  0  0  0  0  0  0  0  0
    6.2519    0.4179   18.0989 C   0  0  0  0  0  0  0  0  0  0  0  0
    4.5373    1.4173   19.6166 C   0  0  0  0  0  0  0  0  0  0  0  0
    8.2991    0.2147   20.5381 S   0  0  0  0  0  0  0  0  0  0  0  0
    9.1944    1.3223   20.6654 O   0  0  0  0  0  0  0  0  0  0  0  0
    8.3905   -0.6465   19.4002 O   0  0  0  0  0  0  0  0  0  0  0  0
    8.5189   -0.7192   21.8540 N   0  0  0  0  0  0  0  0  0  0  0  0
    9.4069   -0.2620   22.9453 C   0  0  0  0  0  0  0  0  0  0  0  0
   10.8280   -0.7608   22.8282 C   0  0  0  0  0  0  0  0  0  0  0  0
   11.2889   -1.2611   21.6135 C   0  0  0  0  0  0  0  0  0  0  0  0
   12.5878   -1.7207   21.4797 C   0  0  0  0  0  0  0  0  0  0  0  0
   13.4406   -1.6833   22.5611 C   0  0  0  0  0  0  0  0  0  0  0  0
   12.9934   -1.1870   23.7738 C   0  0  0  0  0  0  0  0  0  0  0  0
   11.6894   -0.7210   23.9296 C   0  0  0  0  0  0  0  0  0  0  0  0
   11.2391   -0.1862   25.2634 C   0  0  0  0  0  0  0  0  0  0  0  0
    7.7968   -2.0076   21.9808 C   0  0  0  0  0  0  0  0  0  0  0  0
    6.5883   -1.8770   22.8971 C   0  0  0  0  0  0  0  0  0  0  0  0
    5.8456   -3.2152   22.9521 C   0  0  0  0  0  0  0  0  0  0  0  0
    6.7422   -4.3685   23.4067 C   0  0  0  0  0  0  0  0  0  0  0  0
    7.0863   -4.2769   24.7919 O   0  0  0  0  0  0  0  0  0  0  0  0
    7.9761   -4.4473   22.5160 C   0  0  0  0  0  0  0  0  0  0  0  0
    8.7338   -3.1221   22.4367 C   0  0  0  0  0  0  0  0  0  0  0  0
  1  2  1  0
  2  3  2  0
  3  4  1  0
  4  5  2  0
  5  6  1  0
  6  7  1  0
  6  8  2  0
  5  9  1  0
  9 10  2  0
  9 11  2  0
  9 12  1  0
 12 13  1  0
 13 14  1  0
 14 15  2  0
 15 16  1  0
 16 17  2  0
 17 18  1  0
 18 19  2  0
 19 20  1  0
 12 21  1  0
 21 22  1  0
 22 23  1  0
 23 24  1  0
 24 25  1  0
 24 26  1  0
 26 27  1  0
  8  2  1  0
 19 14  1  0
 27 21  1  0
M  END
