CVD-0001330|dock_bobby27042020.24|mol2|17|dock3
     RDKit          3D

 35 38  0  0  0  0  0  0  0  0999 V2000
   14.1463   -2.3206   24.0743 C   0  0  0  0  0  0  0  0  0  0  0  0
   13.6031   -2.5639   22.9196 C   0  0  0  0  0  0  0  0  0  0  0  0
   12.3617   -1.9315   22.3816 C   0  0  0  0  0  0  0  0  0  0  0  0
   11.4475   -1.4334   23.4201 N   0  0  0  0  0  0  0  0  0  0  0  0
   11.2863   -0.1288   23.8931 C   0  0  0  0  0  0  0  0  0  0  0  0
   10.3829   -0.0271   24.8913 C   0  0  0  0  0  0  0  0  0  0  0  0
    9.6556   -1.5185   25.3044 S   0  0  0  0  0  0  0  0  0  0  0  0
   10.6291   -2.3154   24.1079 C   0  0  0  0  0  0  0  0  0  0  0  0
   10.6257   -3.5840   23.8586 N   0  0  0  0  0  0  0  0  0  0  0  0
    9.7081   -4.2261   24.7038 N   0  0  0  0  0  0  0  0  0  0  0  0
   10.2125   -5.2020   25.3656 C   0  0  0  0  0  0  0  0  0  0  0  0
    9.4076   -5.9680   26.2787 C   0  0  0  0  0  0  0  0  0  0  0  0
    8.0722   -5.8895   26.3050 C   0  0  0  0  0  0  0  0  0  0  0  0
    7.1988   -6.6161   27.1804 C   0  0  0  0  0  0  0  0  0  0  0  0
    5.8999   -6.9837   27.0753 C   0  0  0  0  0  0  0  0  0  0  0  0
    5.5756   -7.6885   28.2586 C   0  0  0  0  0  0  0  0  0  0  0  0
    6.6727   -7.7096   29.0022 C   0  0  0  0  0  0  0  0  0  0  0  0
    7.7005   -7.0583   28.3741 O   0  0  0  0  0  0  0  0  0  0  0  0
   12.0226    1.0692   23.4011 C   0  0  0  0  0  0  0  0  0  0  0  0
   13.2350    1.1008   23.5777 O   0  0  0  0  0  0  0  0  0  0  0  0
   11.4035    2.1026   22.8034 N   0  0  0  0  0  0  0  0  0  0  0  0
    9.9475    2.1874   22.6716 C   0  0  0  0  0  0  0  0  0  0  0  0
    9.4392    3.4989   23.2410 C   0  0  0  0  0  0  0  0  0  0  0  0
   10.0762    4.6290   22.5586 N   0  0  0  0  0  0  0  0  0  0  0  0
    9.5573    5.9035   23.0795 C   0  0  0  0  0  0  0  0  0  0  0  0
    8.1115    6.0948   22.7556 C   0  0  0  0  0  0  0  0  0  0  0  0
    7.6590    6.5874   21.6190 C   0  0  0  0  0  0  0  0  0  0  0  0
    6.2575    6.8001   21.2398 C   0  0  0  0  0  0  0  0  0  0  0  0
    5.8749    7.9171   20.5019 C   0  0  0  0  0  0  0  0  0  0  0  0
    4.5519    8.1170   20.1445 C   0  0  0  0  0  0  0  0  0  0  0  0
    3.5879    7.2054   20.5173 C   0  0  0  0  0  0  0  0  0  0  0  0
    3.9461    6.0931   21.2479 C   0  0  0  0  0  0  0  0  0  0  0  0
    5.2684    5.8912   21.6064 C   0  0  0  0  0  0  0  0  0  0  0  0
   11.5218    4.5485   22.7508 C   0  0  0  0  0  0  0  0  0  0  0  0
   12.0686    3.2520   22.1817 C   0  0  0  0  0  0  0  0  0  0  0  0
  1  2  2  0
  2  3  1  0
  3  4  1  0
  4  5  1  0
  5  6  2  0
  6  7  1  0
  7  8  1  0
  8  9  2  0
  9 10  1  0
 10 11  2  0
 11 12  1  0
 12 13  2  0
 13 14  1  0
 14 15  2  0
 15 16  1  0
 16 17  2  0
 17 18  1  0
  5 19  1  0
 19 20  2  0
 19 21  1  0
 21 22  1  0
 22 23  1  0
 23 24  1  0
 24 25  1  0
 25 26  1  0
 26 27  2  0
 27 28  1  0
 28 29  2  0
 29 30  1  0
 30 31  2  0
 31 32  1  0
 32 33  2  0
 24 34  1  0
 34 35  1  0
  8  4  1  0
 18 14  1  0
 35 21  1  0
 33 28  1  0
M  END
