CVD-0001685|dock_bobby27042020.23|mol2|11|dock1
     RDKit          3D

 21 22  0  0  0  0  0  0  0  0999 V2000
   13.1081   -0.3681   25.3935 C   0  0  0  0  0  0  0  0  0  0  0  0
   13.3702   -1.3539   24.2595 C   0  0  0  0  0  0  0  0  0  0  0  0
   14.0569   -2.5935   24.8208 C   0  0  0  0  0  0  0  0  0  0  0  0
   12.0743   -1.7513   23.5638 C   0  0  0  0  0  0  0  0  0  0  0  0
   11.1566   -2.2739   24.4666 F   0  0  0  0  0  0  0  0  0  0  0  0
   11.4172   -0.6529   22.7269 C   0  0  0  0  0  0  0  0  0  0  0  0
   11.8956    0.4647   22.7431 O   0  0  0  0  0  0  0  0  0  0  0  0
   10.3303   -0.9305   21.9793 N   0  0  0  0  0  0  0  0  0  0  0  0
    9.6769    0.0654   21.1274 C   0  0  0  0  0  0  0  0  0  0  0  0
    8.1989    0.1586   21.4586 C   0  0  0  0  0  0  0  0  0  0  0  0
    7.5582   -1.1492   21.2917 N   0  0  0  0  0  0  0  0  0  0  0  0
    6.1190   -1.0559   21.5727 C   0  0  0  0  0  0  0  0  0  0  0  0
    5.4169   -0.0512   20.6900 C   0  0  0  0  0  0  0  0  0  0  0  0
    4.6673    0.9719   21.2641 C   0  0  0  0  0  0  0  0  0  0  0  0
    4.0168    1.9053   20.4756 C   0  0  0  0  0  0  0  0  0  0  0  0
    4.1100    1.8246   19.1034 C   0  0  0  0  0  0  0  0  0  0  0  0
    4.8538    0.8119   18.5217 C   0  0  0  0  0  0  0  0  0  0  0  0
    5.5172   -0.1367   19.2977 C   0  0  0  0  0  0  0  0  0  0  0  0
    6.3155   -1.2265   18.6323 C   0  0  0  0  0  0  0  0  0  0  0  0
    8.1936   -2.1094   22.1902 C   0  0  0  0  0  0  0  0  0  0  0  0
    9.6739   -2.2379   21.8803 C   0  0  0  0  0  0  0  0  0  0  0  0
  1  2  1  0
  2  3  1  0
  2  4  1  0
  4  5  1  0
  4  6  1  0
  6  7  2  0
  6  8  1  0
  8  9  1  0
  9 10  1  0
 10 11  1  0
 11 12  1  0
 12 13  1  0
 13 14  2  0
 14 15  1  0
 15 16  2  0
 16 17  1  0
 17 18  2  0
 18 19  1  0
 11 20  1  0
 20 21  1  0
 21  8  1  0
 18 13  1  0
M  END
