CVD-0002238|dock_bobby27042020.92|mol2|16|dock3
     RDKit          3D

 43 48  0  0  0  0  0  0  0  0999 V2000
   10.1045    1.3926   23.3349 F   0  0  0  0  0  0  0  0  0  0  0  0
   11.1145    0.5945   22.9261 C   0  0  0  0  0  0  0  0  0  0  0  0
   12.3858    1.1103   23.0148 C   0  0  0  0  0  0  0  0  0  0  0  0
   13.4569    0.2990   22.6865 C   0  0  0  0  0  0  0  0  0  0  0  0
   13.2385   -1.0000   22.2853 C   0  0  0  0  0  0  0  0  0  0  0  0
   11.9486   -1.4920   22.1759 C   0  0  0  0  0  0  0  0  0  0  0  0
   10.8454   -0.6859   22.4624 C   0  0  0  0  0  0  0  0  0  0  0  0
    9.5048   -1.2848   22.2564 C   0  0  0  0  0  0  0  0  0  0  0  0
    9.1651   -2.6036   22.4907 C   0  0  0  0  0  0  0  0  0  0  0  0
    7.8064   -2.8085   22.1911 C   0  0  0  0  0  0  0  0  0  0  0  0
    7.0738   -4.1175   22.3261 C   0  0  0  0  0  0  0  0  0  0  0  0
    6.1616   -4.1639   23.4526 N   0  0  0  0  0  0  0  0  0  0  0  0
    6.5579   -3.9609   24.7610 C   0  0  0  0  0  0  0  0  0  0  0  0
    7.0279   -2.7247   25.1880 C   0  0  0  0  0  0  0  0  0  0  0  0
    7.4195   -2.5564   26.5049 C   0  0  0  0  0  0  0  0  0  0  0  0
    7.3439   -3.6101   27.3999 C   0  0  0  0  0  0  0  0  0  0  0  0
    6.8704   -4.8532   26.9971 C   0  0  0  0  0  0  0  0  0  0  0  0
    6.4880   -5.0096   25.6714 C   0  0  0  0  0  0  0  0  0  0  0  0
    6.7633   -6.0254   27.9706 C   0  0  0  0  0  0  0  0  0  0  0  0
    8.0975   -6.6352   28.2464 C   0  0  0  0  0  0  0  0  0  0  0  0
    7.9690   -7.7994   29.1573 N   0  0  0  0  0  0  0  0  0  0  0  0
    7.0948   -7.6570   30.3370 C   0  0  0  0  0  0  0  0  0  0  0  0
    6.3014   -6.3493   30.4124 C   0  0  0  0  0  0  0  0  0  0  0  0
    5.6649   -5.9864   31.5949 C   0  0  0  0  0  0  0  0  0  0  0  0
    4.8501   -4.8696   31.6491 C   0  0  0  0  0  0  0  0  0  0  0  0
    4.6658   -4.1057   30.5168 C   0  0  0  0  0  0  0  0  0  0  0  0
    5.2981   -4.4654   29.3403 C   0  0  0  0  0  0  0  0  0  0  0  0
    6.1234   -5.5865   29.2634 C   0  0  0  0  0  0  0  0  0  0  0  0
    8.5197   -9.0165   28.9525 C   0  0  0  0  0  0  0  0  0  0  0  0
    9.1971   -9.2469   27.9587 O   0  0  0  0  0  0  0  0  0  0  0  0
    8.2826  -10.0925   29.9950 C   0  0  0  0  0  0  0  0  0  0  0  0
    9.3267  -11.4941   29.7255 Cl  0  0  0  0  0  0  0  0  0  0  0  0
    7.3013   -1.5953   21.7457 C   0  0  0  0  0  0  0  0  0  0  0  0
    8.3247   -0.6559   21.7735 N   0  0  0  0  0  0  0  0  0  0  0  0
    8.0098    0.9269   21.2502 S   0  0  0  0  0  0  0  0  0  0  0  0
    7.4016    1.6345   22.3334 O   0  0  0  0  0  0  0  0  0  0  0  0
    9.2520    1.3967   20.7200 O   0  0  0  0  0  0  0  0  0  0  0  0
    6.8824    0.7868   19.9059 C   0  0  0  0  0  0  0  0  0  0  0  0
    5.5840    1.2510   20.0292 C   0  0  0  0  0  0  0  0  0  0  0  0
    4.7299    1.1164   18.9483 C   0  0  0  0  0  0  0  0  0  0  0  0
    5.2045    0.5271   17.7983 C   0  0  0  0  0  0  0  0  0  0  0  0
    6.4520    0.0739   17.6662 N   0  0  0  0  0  0  0  0  0  0  0  0
    7.2712    0.2068   18.7134 C   0  0  0  0  0  0  0  0  0  0  0  0
  1  2  1  0
  2  3  2  0
  3  4  1  0
  4  5  2  0
  5  6  1  0
  6  7  2  0
  7  8  1  0
  8  9  2  0
  9 10  1  0
 10 11  1  0
 11 12  1  0
 12 13  1  0
 13 14  2  0
 14 15  1  0
 15 16  2  0
 16 17  1  0
 17 18  2  0
 17 19  1  0
 19 20  1  0
 20 21  1  0
 21 22  1  0
 22 23  1  0
 23 24  2  0
 24 25  1  0
 25 26  2  0
 26 27  1  0
 27 28  2  0
 21 29  1  0
 29 30  2  0
 29 31  1  0
 31 32  1  0
 10 33  2  0
 33 34  1  0
 34 35  1  0
 35 36  2  0
 35 37  2  0
 35 38  1  0
 38 39  2  0
 39 40  1  0
 40 41  2  0
 41 42  1  0
 42 43  2  0
  7  2  1  0
 34  8  1  0
 43 38  1  0
 18 13  1  0
 28 19  1  0
 28 23  1  0
M  END
