CVD-0002571|dock_bobby27042020.91|mol2|4|dock1
     RDKit          3D

 37 40  0  0  0  0  0  0  0  0999 V2000
    9.4059    6.0930   25.3107 C   0  0  0  0  0  0  0  0  0  0  0  0
   10.1960    5.0398   24.7097 O   0  0  0  0  0  0  0  0  0  0  0  0
   10.1831    3.8699   25.3459 C   0  0  0  0  0  0  0  0  0  0  0  0
    9.5013    3.6400   26.3307 O   0  0  0  0  0  0  0  0  0  0  0  0
   11.0933    2.8548   24.7311 C   0  0  0  0  0  0  0  0  0  0  0  0
   11.2925    1.6139   25.3274 C   0  0  0  0  0  0  0  0  0  0  0  0
   12.1354    0.6783   24.7538 C   0  0  0  0  0  0  0  0  0  0  0  0
   12.7871    0.9825   23.5699 C   0  0  0  0  0  0  0  0  0  0  0  0
   12.6037    2.2131   22.9614 C   0  0  0  0  0  0  0  0  0  0  0  0
   11.7586    3.1406   23.5442 C   0  0  0  0  0  0  0  0  0  0  0  0
   13.8655   -0.2011   22.8382 S   0  0  0  0  0  0  0  0  0  0  0  0
   14.7793   -0.6603   23.8392 O   0  0  0  0  0  0  0  0  0  0  0  0
   14.3610    0.3375   21.6086 O   0  0  0  0  0  0  0  0  0  0  0  0
   12.9558   -1.5180   22.4198 N   0  0  0  0  0  0  0  0  0  0  0  0
   11.7043   -1.1996   21.8701 N   0  0  0  0  0  0  0  0  0  0  0  0
   10.5935   -1.9629   22.4311 C   0  0  0  0  0  0  0  0  0  0  0  0
    9.3650   -1.9059   21.5616 C   0  0  0  0  0  0  0  0  0  0  0  0
    8.9119   -0.7711   20.8674 C   0  0  0  0  0  0  0  0  0  0  0  0
    7.7532   -1.0629   20.1680 C   0  0  0  0  0  0  0  0  0  0  0  0
    6.9793   -0.1239   19.3102 C   0  0  0  0  0  0  0  0  0  0  0  0
    5.6397    0.1699   19.5800 C   0  0  0  0  0  0  0  0  0  0  0  0
    4.9155    1.0387   18.7810 C   0  0  0  0  0  0  0  0  0  0  0  0
    5.4976    1.6301   17.6841 C   0  0  0  0  0  0  0  0  0  0  0  0
    6.8184    1.3602   17.3811 C   0  0  0  0  0  0  0  0  0  0  0  0
    7.5239    0.5051   18.1945 C   0  0  0  0  0  0  0  0  0  0  0  0
    8.8172    0.2986   17.8559 F   0  0  0  0  0  0  0  0  0  0  0  0
    7.4764   -2.4322   20.4526 N   0  0  0  0  0  0  0  0  0  0  0  0
    8.4647   -2.9249   21.2957 C   0  0  0  0  0  0  0  0  0  0  0  0
    6.2362   -3.4910   19.9817 S   0  0  0  0  0  0  0  0  0  0  0  0
    5.0508   -2.7117   19.7999 O   0  0  0  0  0  0  0  0  0  0  0  0
    6.7711   -4.2089   18.8665 O   0  0  0  0  0  0  0  0  0  0  0  0
    6.0133   -4.6492   21.2879 C   0  0  0  0  0  0  0  0  0  0  0  0
    6.5995   -5.9015   21.2208 C   0  0  0  0  0  0  0  0  0  0  0  0
    6.3938   -6.7831   22.2679 C   0  0  0  0  0  0  0  0  0  0  0  0
    5.6161   -6.3803   23.3299 C   0  0  0  0  0  0  0  0  0  0  0  0
    5.0439   -5.1780   23.4069 N   0  0  0  0  0  0  0  0  0  0  0  0
    5.2461   -4.3319   22.3927 C   0  0  0  0  0  0  0  0  0  0  0  0
  1  2  1  0
  2  3  1  0
  3  4  2  0
  3  5  1  0
  5  6  2  0
  6  7  1  0
  7  8  2  0
  8  9  1  0
  9 10  2  0
  8 11  1  0
 11 12  2  0
 11 13  2  0
 11 14  1  0
 14 15  1  0
 15 16  1  0
 16 17  1  0
 17 18  1  0
 18 19  2  0
 19 20  1  0
 20 21  2  0
 21 22  1  0
 22 23  2  0
 23 24  1  0
 24 25  2  0
 25 26  1  0
 19 27  1  0
 27 28  1  0
 27 29  1  0
 29 30  2  0
 29 31  2  0
 29 32  1  0
 32 33  2  0
 33 34  1  0
 34 35  2  0
 35 36  1  0
 36 37  2  0
 10  5  1  0
 28 17  2  0
 37 32  1  0
 25 20  1  0
M  END
