CVD-0003521|dock_bobby27042020.59|mol2|31|dock3
     RDKit          3D

 28 30  0  0  0  0  0  0  0  0999 V2000
    7.7843   -4.5986   28.1928 Cl  0  0  0  0  0  0  0  0  0  0  0  0
    8.0976   -3.1252   27.2665 C   0  0  0  0  0  0  0  0  0  0  0  0
    7.9841   -3.3832   25.7760 C   0  0  0  0  0  0  0  0  0  0  0  0
    7.6758   -4.4959   25.3676 O   0  0  0  0  0  0  0  0  0  0  0  0
    8.2232   -2.3594   24.9228 N   0  0  0  0  0  0  0  0  0  0  0  0
    8.1392   -2.5021   23.4676 C   0  0  0  0  0  0  0  0  0  0  0  0
    9.4283   -2.0399   22.8143 C   0  0  0  0  0  0  0  0  0  0  0  0
    9.7064   -0.6456   23.1711 N   0  0  0  0  0  0  0  0  0  0  0  0
   10.9333   -0.1805   22.5090 C   0  0  0  0  0  0  0  0  0  0  0  0
   11.0741    1.3241   22.5221 C   0  0  0  0  0  0  0  0  0  0  0  0
   12.3407    1.8904   22.6284 C   0  0  0  0  0  0  0  0  0  0  0  0
   12.4947    3.2608   22.6464 C   0  0  0  0  0  0  0  0  0  0  0  0
   14.0929    3.9395   22.7802 Cl  0  0  0  0  0  0  0  0  0  0  0  0
   11.4070    4.0992   22.5605 C   0  0  0  0  0  0  0  0  0  0  0  0
   10.1461    3.5420   22.4544 C   0  0  0  0  0  0  0  0  0  0  0  0
    9.9552    2.1628   22.4335 C   0  0  0  0  0  0  0  0  0  0  0  0
    8.5588    1.6044   22.3101 C   0  0  0  0  0  0  0  0  0  0  0  0
    8.3873    0.7285   21.1604 N   0  0  0  0  0  0  0  0  0  0  0  0
    7.2115    0.1853   20.8462 C   0  0  0  0  0  0  0  0  0  0  0  0
    6.1994    0.3925   21.5108 O   0  0  0  0  0  0  0  0  0  0  0  0
    7.2203   -0.6992   19.6140 C   0  0  0  0  0  0  0  0  0  0  0  0
    7.4320    0.1588   18.3921 C   0  0  0  0  0  0  0  0  0  0  0  0
    6.1930    0.9943   18.1442 C   0  0  0  0  0  0  0  0  0  0  0  0
    4.9006    0.2117   18.1669 C   0  0  0  0  0  0  0  0  0  0  0  0
    4.8311   -0.6112   19.3347 O   0  0  0  0  0  0  0  0  0  0  0  0
    5.9411   -1.5055   19.5280 C   0  0  0  0  0  0  0  0  0  0  0  0
    9.8377   -0.5421   24.6221 C   0  0  0  0  0  0  0  0  0  0  0  0
    8.5599   -0.9861   25.3107 C   0  0  0  0  0  0  0  0  0  0  0  0
  1  2  1  0
  2  3  1  0
  3  4  2  0
  3  5  1  0
  5  6  1  0
  6  7  1  0
  7  8  1  0
  8  9  1  0
  9 10  1  0
 10 11  2  0
 11 12  1  0
 12 13  1  0
 12 14  2  0
 14 15  1  0
 15 16  2  0
 16 17  1  0
 17 18  1  0
 18 19  1  0
 19 20  2  0
 21 19  1  0
 21 22  1  0
 22 23  1  0
 23 24  1  0
 24 25  1  0
 25 26  1  0
  8 27  1  0
 27 28  1  0
 28  5  1  0
 16 10  1  0
 26 21  1  0
M  END
