CVD-0000527|dock_bobby27042020.12|mol2|38|dock1
     RDKit          3D

 23 24  0  0  0  0  0  0  0  0999 V2000
    6.5910   -1.1532   18.4830 C   0  0  0  0  0  0  0  0  0  0  0  0
    5.6872   -0.0766   18.2421 O   0  0  0  0  0  0  0  0  0  0  0  0
    5.4229    0.8422   19.2273 C   0  0  0  0  0  0  0  0  0  0  0  0
    4.2004    1.4920   19.3075 C   0  0  0  0  0  0  0  0  0  0  0  0
    3.9879    2.4095   20.3218 C   0  0  0  0  0  0  0  0  0  0  0  0
    4.9768    2.6834   21.2510 C   0  0  0  0  0  0  0  0  0  0  0  0
    6.2046    2.0327   21.1733 C   0  0  0  0  0  0  0  0  0  0  0  0
    7.2622    2.2620   22.0884 N   0  0  0  0  0  0  0  0  0  0  0  0
    8.6070    2.2835   21.9203 C   0  0  0  0  0  0  0  0  0  0  0  0
    9.1987    2.0935   20.8629 O   0  0  0  0  0  0  0  0  0  0  0  0
    9.3704    2.5836   23.1950 C   0  0  0  0  0  0  0  0  0  0  0  0
   10.8444    2.2710   23.0702 C   0  0  0  0  0  0  0  0  0  0  0  0
   11.7327    3.2175   22.5844 C   0  0  0  0  0  0  0  0  0  0  0  0
   13.0818    2.9253   22.4754 C   0  0  0  0  0  0  0  0  0  0  0  0
   13.5538    1.6800   22.8542 C   0  0  0  0  0  0  0  0  0  0  0  0
   12.6841    0.7193   23.3453 C   0  0  0  0  0  0  0  0  0  0  0  0
   13.1890   -0.6371   23.7562 C   0  0  0  0  0  0  0  0  0  0  0  0
   13.2894   -1.7662   22.3836 S   0  0  0  0  0  0  0  0  0  0  0  0
   11.8206   -1.9313   21.7674 N   0  0  0  0  0  0  0  0  0  0  0  0
   14.1102   -1.1566   21.3767 O   0  0  0  0  0  0  0  0  0  0  0  0
   13.6836   -3.0459   22.8997 O   0  0  0  0  0  0  0  0  0  0  0  0
   11.3334    1.0268   23.4475 C   0  0  0  0  0  0  0  0  0  0  0  0
    6.4178    1.1109   20.1538 C   0  0  0  0  0  0  0  0  0  0  0  0
  1  2  1  0
  2  3  1  0
  3  4  2  0
  4  5  1  0
  5  6  2  0
  6  7  1  0
  7  8  1  0
  8  9  1  0
  9 10  2  0
  9 11  1  0
 11 12  1  0
 12 13  2  0
 13 14  1  0
 14 15  2  0
 15 16  1  0
 16 17  1  0
 17 18  1  0
 18 19  1  0
 18 20  2  0
 18 21  2  0
 16 22  2  0
  7 23  2  0
 23  3  1  0
 22 12  1  0
M  END
