CVD-0001695|dock_bobby27042020.80|mol2|20|dock1
     RDKit          3D

 24 25  0  0  0  0  0  0  0  0999 V2000
    5.5692   -2.0406   22.6265 C   0  0  0  0  0  0  0  0  0  0  0  0
    5.0420   -1.5569   21.3979 O   0  0  0  0  0  0  0  0  0  0  0  0
    6.0403   -1.3648   20.3936 C   0  0  0  0  0  0  0  0  0  0  0  0
    5.4153   -1.2052   19.0283 C   0  0  0  0  0  0  0  0  0  0  0  0
    5.7574   -0.0412   18.4634 C   0  0  0  0  0  0  0  0  0  0  0  0
    5.4415    0.3881   17.2502 O   0  0  0  0  0  0  0  0  0  0  0  0
    6.6036    0.7983   19.3902 C   0  0  0  0  0  0  0  0  0  0  0  0
    6.7861   -0.0688   20.6149 C   0  0  0  0  0  0  0  0  0  0  0  0
    8.1906   -0.3437   20.9569 N   0  0  0  0  0  0  0  0  0  0  0  0
    8.9673    0.7696   21.5182 C   0  0  0  0  0  0  0  0  0  0  0  0
    9.4849    0.4806   22.9140 C   0  0  0  0  0  0  0  0  0  0  0  0
   10.9590    0.3565   22.9309 N   0  0  0  0  0  0  0  0  0  0  0  0
   11.6378    1.5525   22.8820 C   0  0  0  0  0  0  0  0  0  0  0  0
   10.8990    2.8504   22.8379 C   0  0  0  0  0  0  0  0  0  0  0  0
   12.9801    1.5541   22.8784 C   0  0  0  0  0  0  0  0  0  0  0  0
   13.7659    0.2730   22.9276 C   0  0  0  0  0  0  0  0  0  0  0  0
   12.8939   -0.9670   22.9664 C   0  0  0  0  0  0  0  0  0  0  0  0
   13.7247   -2.2239   22.9903 C   0  0  0  0  0  0  0  0  0  0  0  0
   11.5521   -0.8704   22.9696 C   0  0  0  0  0  0  0  0  0  0  0  0
   10.6702   -2.1019   23.0156 C   0  0  0  0  0  0  0  0  0  0  0  0
    9.7105   -2.0655   21.9515 O   0  0  0  0  0  0  0  0  0  0  0  0
    9.9947   -2.2259   24.3609 C   0  0  0  0  0  0  0  0  0  0  0  0
    8.9651   -2.9851   24.6086 C   0  0  0  0  0  0  0  0  0  0  0  0
    8.3998   -3.0582   25.8354 F   0  0  0  0  0  0  0  0  0  0  0  0
  1  2  1  0
  2  3  1  0
  3  4  1  0
  4  5  2  0
  5  6  1  0
  5  7  1  0
  7  8  1  0
  8  9  1  0
  9 10  1  0
 10 11  1  0
 11 12  1  0
 12 13  1  0
 13 14  1  0
 13 15  2  0
 15 16  1  0
 16 17  1  0
 17 18  1  0
 17 19  2  0
 19 20  1  0
 20 21  1  0
 20 22  1  0
 22 23  2  0
 23 24  1  0
  8  3  1  0
 19 12  1  0
M  END
