CVD-0002942|dock_bobby27042020.32|mol2|32|dock3
     RDKit          3D

 18 19  0  0  0  0  0  0  0  0999 V2000
   14.3535   -2.3391   23.0496 O   0  0  0  0  0  0  0  0  0  0  0  0
   13.8723   -1.0220   23.2551 C   0  0  0  0  0  0  0  0  0  0  0  0
   12.4085   -0.8870   22.9136 C   0  0  0  0  0  0  0  0  0  0  0  0
   11.8536   -1.6002   21.8626 C   0  0  0  0  0  0  0  0  0  0  0  0
   10.5123   -1.4746   21.5472 C   0  0  0  0  0  0  0  0  0  0  0  0
    9.6849   -0.6310   22.2741 C   0  0  0  0  0  0  0  0  0  0  0  0
   10.2416    0.0848   23.3242 C   0  0  0  0  0  0  0  0  0  0  0  0
   11.5831   -0.0417   23.6386 C   0  0  0  0  0  0  0  0  0  0  0  0
    8.2240   -0.4912   21.9290 C   0  0  0  0  0  0  0  0  0  0  0  0
    7.9539    0.5823   20.9005 C   0  0  0  0  0  0  0  0  0  0  0  0
    6.4821    0.5697   20.5500 C   0  0  0  0  0  0  0  0  0  0  0  0
    6.0909   -0.7876   20.1170 N   0  0  0  0  0  0  0  0  0  0  0  0
    6.4041   -1.8128   21.1084 C   0  0  0  0  0  0  0  0  0  0  0  0
    7.7737   -1.7672   21.4411 O   0  0  0  0  0  0  0  0  0  0  0  0
    5.5067   -1.0626   18.9336 C   0  0  0  0  0  0  0  0  0  0  0  0
    5.2017   -2.2036   18.6100 O   0  0  0  0  0  0  0  0  0  0  0  0
    5.2402    0.1200   18.0232 C   0  0  0  0  0  0  0  0  0  0  0  0
    4.1058    1.2559   18.7650 Cl  0  0  0  0  0  0  0  0  0  0  0  0
  1  2  1  0
  2  3  1  0
  3  4  2  0
  4  5  1  0
  5  6  2  0
  6  7  1  0
  7  8  2  0
  6  9  1  0
  9 10  1  0
 10 11  1  0
 11 12  1  0
 12 13  1  0
 13 14  1  0
 12 15  1  0
 15 16  2  0
 15 17  1  0
 17 18  1  0
  8  3  1  0
 14  9  1  0
M  END
