CVD-0002371|dock_bobby27042020.91|mol2|35|dock2
     RDKit          3D

 38 42  0  0  0  0  0  0  0  0999 V2000
    7.6701   -6.2053   22.7559 C   0  0  0  0  0  0  0  0  0  0  0  0
    6.3185   -5.8807   23.1960 N   0  0  0  0  0  0  0  0  0  0  0  0
    5.2910   -5.4860   22.2123 C   0  0  0  0  0  0  0  0  0  0  0  0
    3.9105   -5.5962   22.7993 C   0  0  0  0  0  0  0  0  0  0  0  0
    3.7571   -6.8554   23.6367 C   0  0  0  0  0  0  0  0  0  0  0  0
    4.7699   -6.8432   24.7580 C   0  0  0  0  0  0  0  0  0  0  0  0
    4.4471   -7.3134   26.0248 C   0  0  0  0  0  0  0  0  0  0  0  0
    5.3239   -7.1783   27.0789 C   0  0  0  0  0  0  0  0  0  0  0  0
    6.5470   -6.5644   26.8735 C   0  0  0  0  0  0  0  0  0  0  0  0
    6.9096   -6.0763   25.6079 C   0  0  0  0  0  0  0  0  0  0  0  0
    8.0583   -5.2687   25.5529 N   0  0  0  0  0  0  0  0  0  0  0  0
    7.9311   -3.8270   25.6790 C   0  0  0  0  0  0  0  0  0  0  0  0
    8.2610   -3.0755   24.4157 C   0  0  0  0  0  0  0  0  0  0  0  0
    7.3260   -2.6557   23.4529 C   0  0  0  0  0  0  0  0  0  0  0  0
    7.9659   -1.9809   22.4288 C   0  0  0  0  0  0  0  0  0  0  0  0
    7.3397   -1.3730   21.2245 C   0  0  0  0  0  0  0  0  0  0  0  0
    8.0426   -1.2615   20.0202 C   0  0  0  0  0  0  0  0  0  0  0  0
    7.4496   -0.7212   18.8912 C   0  0  0  0  0  0  0  0  0  0  0  0
    6.1575   -0.2503   18.9359 C   0  0  0  0  0  0  0  0  0  0  0  0
    5.4422   -0.3185   20.1166 C   0  0  0  0  0  0  0  0  0  0  0  0
    6.0409   -0.8755   21.2216 C   0  0  0  0  0  0  0  0  0  0  0  0
    5.2902   -0.9289   22.3458 F   0  0  0  0  0  0  0  0  0  0  0  0
    9.3474   -1.9948   22.7669 N   0  0  0  0  0  0  0  0  0  0  0  0
    9.5083   -2.6555   23.9793 C   0  0  0  0  0  0  0  0  0  0  0  0
   10.6988   -1.3689   21.9552 S   0  0  0  0  0  0  0  0  0  0  0  0
   10.3622   -0.0297   21.5832 O   0  0  0  0  0  0  0  0  0  0  0  0
   11.0643   -2.3338   20.9653 O   0  0  0  0  0  0  0  0  0  0  0  0
   11.9837   -1.3050   23.1556 C   0  0  0  0  0  0  0  0  0  0  0  0
   12.9945   -2.2508   23.1503 C   0  0  0  0  0  0  0  0  0  0  0  0
   13.9825   -2.1657   24.1159 C   0  0  0  0  0  0  0  0  0  0  0  0
   13.9195   -1.1477   25.0404 C   0  0  0  0  0  0  0  0  0  0  0  0
   12.9508   -0.2309   25.0584 N   0  0  0  0  0  0  0  0  0  0  0  0
   12.0001   -0.3189   24.1237 C   0  0  0  0  0  0  0  0  0  0  0  0
    5.9943   -6.2258   24.5403 C   0  0  0  0  0  0  0  0  0  0  0  0
    7.6818   -6.5875   28.2366 S   0  0  0  0  0  0  0  0  0  0  0  0
    7.4425   -7.9316   29.0727 N   0  0  0  0  0  0  0  0  0  0  0  0
    9.0058   -6.6575   27.6949 O   0  0  0  0  0  0  0  0  0  0  0  0
    7.3408   -5.4903   29.0915 O   0  0  0  0  0  0  0  0  0  0  0  0
  1  2  1  0
  2  3  1  0
  3  4  1  0
  4  5  1  0
  5  6  1  0
  6  7  2  0
  7  8  1  0
  8  9  2  0
  9 10  1  0
 10 11  1  0
 11 12  1  0
 12 13  1  0
 13 14  1  0
 14 15  2  0
 15 16  1  0
 16 17  2  0
 17 18  1  0
 18 19  2  0
 19 20  1  0
 20 21  2  0
 21 22  1  0
 15 23  1  0
 23 24  1  0
 23 25  1  0
 25 26  2  0
 25 27  2  0
 25 28  1  0
 28 29  2  0
 29 30  1  0
 30 31  2  0
 31 32  1  0
 32 33  2  0
 10 34  2  0
  9 35  1  0
 35 36  1  0
 35 37  2  0
 35 38  2  0
 34  2  1  0
 34  6  1  0
 24 13  2  0
 33 28  1  0
 21 16  1  0
M  END
