CVD-0000789|dock_bobby27042020.69|mol2|13|dock2
     RDKit          3D

 29 32  0  0  0  0  0  0  0  0999 V2000
   11.3733    3.6457   22.3061 C   0  0  0  0  0  0  0  0  0  0  0  0
    9.9825    3.2951   22.7672 C   0  0  0  0  0  0  0  0  0  0  0  0
    9.5803    1.8685   22.4470 C   0  0  0  0  0  0  0  0  0  0  0  0
   10.3780    0.8043   22.8396 C   0  0  0  0  0  0  0  0  0  0  0  0
   10.0620   -0.5281   22.5497 C   0  0  0  0  0  0  0  0  0  0  0  0
   11.0428   -1.5177   22.8407 N   0  0  0  0  0  0  0  0  0  0  0  0
   11.2043   -2.0335   24.1963 C   0  0  0  0  0  0  0  0  0  0  0  0
   12.0380   -1.1801   25.0660 C   0  0  0  0  0  0  0  0  0  0  0  0
   13.4527   -1.0602   24.6573 C   0  0  0  0  0  0  0  0  0  0  0  0
   13.7303   -0.5990   23.2992 C   0  0  0  0  0  0  0  0  0  0  0  0
   13.3918   -1.4278   22.1481 C   0  0  0  0  0  0  0  0  0  0  0  0
   12.0602   -1.9159   21.8661 C   0  0  0  0  0  0  0  0  0  0  0  0
    8.7925   -0.7902   21.9720 C   0  0  0  0  0  0  0  0  0  0  0  0
    8.0330   -1.9380   21.7089 N   0  0  0  0  0  0  0  0  0  0  0  0
    8.2526   -3.3347   22.0947 C   0  0  0  0  0  0  0  0  0  0  0  0
    6.9748   -4.1221   22.2605 C   0  0  0  0  0  0  0  0  0  0  0  0
    6.7580   -5.2815   21.5321 C   0  0  0  0  0  0  0  0  0  0  0  0
    5.5875   -6.0055   21.6865 C   0  0  0  0  0  0  0  0  0  0  0  0
    4.6212   -5.5786   22.5718 C   0  0  0  0  0  0  0  0  0  0  0  0
    4.8252   -4.4281   23.3029 C   0  0  0  0  0  0  0  0  0  0  0  0
    5.9957   -3.7043   23.1484 C   0  0  0  0  0  0  0  0  0  0  0  0
    6.9091   -1.5682   21.0295 C   0  0  0  0  0  0  0  0  0  0  0  0
    6.8560   -0.2288   20.8613 C   0  0  0  0  0  0  0  0  0  0  0  0
    5.7942    0.5695   20.1511 C   0  0  0  0  0  0  0  0  0  0  0  0
    6.3092    1.3316   19.0084 N   0  0  0  0  0  0  0  0  0  0  0  0
    5.2332    1.6205   18.0675 C   0  0  0  0  0  0  0  0  0  0  0  0
    7.3652    0.5889   18.3295 C   0  0  0  0  0  0  0  0  0  0  0  0
    8.0129    0.2964   21.5191 C   0  0  0  0  0  0  0  0  0  0  0  0
    8.4176    1.6047   21.7498 C   0  0  0  0  0  0  0  0  0  0  0  0
  1  2  1  0
  2  3  1  0
  3  4  2  0
  4  5  1  0
  5  6  1  0
  6  7  1  0
  7  8  1  0
  8  9  1  0
  9 10  1  0
 10 11  1  0
 11 12  1  0
  5 13  2  0
 13 14  1  0
 14 15  1  0
 15 16  1  0
 16 17  2  0
 17 18  1  0
 18 19  2  0
 19 20  1  0
 20 21  2  0
 14 22  1  0
 22 23  2  0
 23 24  1  0
 24 25  1  0
 25 26  1  0
 25 27  1  0
 23 28  1  0
 28 29  2  0
 29  3  1  0
 12  6  1  0
 28 13  1  0
 21 16  1  0
M  END
