CVD-0001247|dock_bobby27042020.81|mol2|38|dock3
     RDKit          3D

 22 24  0  0  0  0  0  0  0  0999 V2000
   13.8221   -2.1493   22.8919 C   0  0  0  0  0  0  0  0  0  0  0  0
   12.3410   -1.9434   22.9541 C   0  0  0  0  0  0  0  0  0  0  0  0
   11.8807   -1.0665   21.8904 N   0  0  0  0  0  0  0  0  0  0  0  0
   11.6368    0.2411   22.0793 C   0  0  0  0  0  0  0  0  0  0  0  0
   12.7133    1.0465   22.1772 N   0  0  0  0  0  0  0  0  0  0  0  0
   12.5037    2.3541   22.3656 C   0  0  0  0  0  0  0  0  0  0  0  0
   11.2398    2.9232   22.4642 C   0  0  0  0  0  0  0  0  0  0  0  0
   10.1374    2.0828   22.3610 C   0  0  0  0  0  0  0  0  0  0  0  0
   10.3122    0.7177   22.1662 C   0  0  0  0  0  0  0  0  0  0  0  0
    9.0931   -0.1802   22.0516 C   0  0  0  0  0  0  0  0  0  0  0  0
    8.1978    0.1349   20.8705 C   0  0  0  0  0  0  0  0  0  0  0  0
    8.3775   -0.5040   19.6506 C   0  0  0  0  0  0  0  0  0  0  0  0
    7.5640   -0.2181   18.5655 C   0  0  0  0  0  0  0  0  0  0  0  0
    6.5482    0.7234   18.6922 C   0  0  0  0  0  0  0  0  0  0  0  0
    5.5413    1.2119   17.6921 C   0  0  0  0  0  0  0  0  0  0  0  0
    4.7918    2.1648   18.4816 N   0  0  0  0  0  0  0  0  0  0  0  0
    5.2211    2.2997   19.7498 C   0  0  0  0  0  0  0  0  0  0  0  0
    4.7253    3.0462   20.5877 O   0  0  0  0  0  0  0  0  0  0  0  0
    6.3588    1.3668   19.9020 C   0  0  0  0  0  0  0  0  0  0  0  0
    7.1796    1.0755   20.9900 C   0  0  0  0  0  0  0  0  0  0  0  0
   11.0711    4.3409   22.6674 C   0  0  0  0  0  0  0  0  0  0  0  0
   10.9418    5.4592   22.8610 N   0  0  0  0  0  0  0  0  0  0  0  0
  1  2  1  0
  2  3  1  0
  3  4  1  0
  4  5  2  0
  5  6  1  0
  6  7  2  0
  7  8  1  0
  8  9  2  0
  9 10  1  0
 10 11  1  0
 11 12  2  0
 12 13  1  0
 13 14  2  0
 14 15  1  0
 15 16  1  0
 16 17  1  0
 17 18  2  0
 17 19  1  0
 19 20  2  0
  7 21  1  0
 21 22  3  0
  9  4  1  0
 20 11  1  0
 19 14  1  0
M  END
