CVD-0002161|dock_bobby27042020.78|mol2|24|dock2
     RDKit          3D

 13 13  0  0  0  0  0  0  0  0999 V2000
   13.5268   -1.9561   21.1334 C   0  0  0  0  0  0  0  0  0  0  0  0
   12.5480   -1.8283   22.2769 C   0  0  0  0  0  0  0  0  0  0  0  0
   13.2396   -1.0030   23.6685 S   0  0  0  0  0  0  0  0  0  0  0  0
   14.4845   -1.6288   23.9987 O   0  0  0  0  0  0  0  0  0  0  0  0
   12.2319   -0.9204   24.6824 O   0  0  0  0  0  0  0  0  0  0  0  0
   13.5808    0.5298   23.2338 N   0  0  0  0  0  0  0  0  0  0  0  0
   12.5957    1.5312   22.9960 C   0  0  0  0  0  0  0  0  0  0  0  0
   11.2336    1.2659   23.1210 C   0  0  0  0  0  0  0  0  0  0  0  0
   10.3140    2.2748   22.8793 C   0  0  0  0  0  0  0  0  0  0  0  0
   10.7268    3.5394   22.5159 C   0  0  0  0  0  0  0  0  0  0  0  0
   12.0750    3.8225   22.3860 C   0  0  0  0  0  0  0  0  0  0  0  0
   12.9729    2.8123   22.6291 C   0  0  0  0  0  0  0  0  0  0  0  0
   14.2952    3.0705   22.5073 F   0  0  0  0  0  0  0  0  0  0  0  0
  1  2  1  0
  2  3  1  0
  3  4  2  0
  3  5  2  0
  3  6  1  0
  6  7  1  0
  7  8  2  0
  8  9  1  0
  9 10  2  0
 10 11  1  0
 11 12  2  0
 12 13  1  0
 12  7  1  0
M  END
