CVD-0000770|dock_bobby27042020.40|mol2|28|dock2
     RDKit          3D

 21 23  0  0  0  0  0  0  0  0999 V2000
   13.5122    5.3370   22.8177 C   0  0  0  0  0  0  0  0  0  0  0  0
   12.3690    4.8352   21.9486 C   0  0  0  0  0  0  0  0  0  0  0  0
   11.7248    3.5731   22.4649 C   0  0  0  0  0  0  0  0  0  0  0  0
   10.4407    3.3660   22.9144 C   0  0  0  0  0  0  0  0  0  0  0  0
   10.1977    2.0560   23.3186 C   0  0  0  0  0  0  0  0  0  0  0  0
   11.2847    1.2291   23.1895 C   0  0  0  0  0  0  0  0  0  0  0  0
   12.6330    2.1055   22.5520 S   0  0  0  0  0  0  0  0  0  0  0  0
   11.4129   -0.2529   23.5217 C   0  0  0  0  0  0  0  0  0  0  0  0
   11.0451   -0.6348   24.9224 C   0  0  0  0  0  0  0  0  0  0  0  0
   12.4845   -0.6170   24.5082 C   0  0  0  0  0  0  0  0  0  0  0  0
   11.1625   -1.1546   22.3178 C   0  0  0  0  0  0  0  0  0  0  0  0
   10.1367   -0.5634   21.3272 C   0  0  0  0  0  0  0  0  0  0  0  0
    8.7885   -0.6779   21.9236 N   0  0  0  0  0  0  0  0  0  0  0  0
    7.8482    0.3532   21.4816 C   0  0  0  0  0  0  0  0  0  0  0  0
    7.2376    0.0981   20.1183 C   0  0  0  0  0  0  0  0  0  0  0  0
    6.4110   -1.1078   20.1046 N   0  0  0  0  0  0  0  0  0  0  0  0
    5.8926   -1.4024   18.7663 C   0  0  0  0  0  0  0  0  0  0  0  0
    8.5149   -1.6190   22.8604 C   0  0  0  0  0  0  0  0  0  0  0  0
    9.3879   -2.5286   23.3048 C   0  0  0  0  0  0  0  0  0  0  0  0
    9.0748   -3.4399   24.2741 F   0  0  0  0  0  0  0  0  0  0  0  0
   10.7824   -2.5783   22.7299 C   0  0  0  0  0  0  0  0  0  0  0  0
  1  2  1  0
  2  3  1  0
  3  4  2  0
  4  5  1  0
  5  6  2  0
  6  7  1  0
  6  8  1  0
  8  9  1  0
  9 10  1  0
  8 11  1  0
 11 12  1  0
 12 13  1  0
 13 14  1  0
 14 15  1  0
 15 16  1  0
 16 17  1  0
 13 18  1  0
 18 19  2  0
 19 20  1  0
 19 21  1  0
  7  3  1  0
 10  8  1  0
 21 11  1  0
M  END
