CVD-0002847|dock_bobby27042020.90|mol2|4|dock3
     RDKit          3D

 22 24  0  0  0  0  0  0  0  0999 V2000
    4.1605    1.0730   22.9322 C   0  0  0  0  0  0  0  0  0  0  0  0
    5.0542    0.6561   21.8173 C   0  0  0  0  0  0  0  0  0  0  0  0
    4.6901    0.4566   20.5606 N   0  0  0  0  0  0  0  0  0  0  0  0
    5.8348    0.0967   19.8865 C   0  0  0  0  0  0  0  0  0  0  0  0
    5.7115   -0.1842   18.4298 C   0  0  0  0  0  0  0  0  0  0  0  0
    5.2266    1.2801   17.5650 Cl  0  0  0  0  0  0  0  0  0  0  0  0
    6.8921    0.0800   20.7516 C   0  0  0  0  0  0  0  0  0  0  0  0
    8.3514   -0.2346   20.5931 C   0  0  0  0  0  0  0  0  0  0  0  0
    8.9422   -1.1849   21.5927 C   0  0  0  0  0  0  0  0  0  0  0  0
    8.3347   -2.3854   21.8677 N   0  0  0  0  0  0  0  0  0  0  0  0
    9.0927   -3.0171   22.7769 C   0  0  0  0  0  0  0  0  0  0  0  0
   10.1548   -2.3093   23.1200 N   0  0  0  0  0  0  0  0  0  0  0  0
   10.0698   -1.1353   22.3794 C   0  0  0  0  0  0  0  0  0  0  0  0
   11.0996   -0.0751   22.5207 C   0  0  0  0  0  0  0  0  0  0  0  0
   10.6901    1.2500   22.6958 C   0  0  0  0  0  0  0  0  0  0  0  0
   11.5143    2.2954   22.7928 N   0  0  0  0  0  0  0  0  0  0  0  0
   12.8186    2.0322   22.7751 C   0  0  0  0  0  0  0  0  0  0  0  0
   13.3410    0.7629   22.6368 C   0  0  0  0  0  0  0  0  0  0  0  0
   12.4856   -0.3283   22.4938 C   0  0  0  0  0  0  0  0  0  0  0  0
   13.0831   -1.7045   22.3087 C   0  0  0  0  0  0  0  0  0  0  0  0
   13.4478   -1.9839   20.9677 O   0  0  0  0  0  0  0  0  0  0  0  0
    6.3833    0.4417   21.9682 N   0  0  0  0  0  0  0  0  0  0  0  0
  1  2  1  0
  2  3  2  0
  3  4  1  0
  4  5  1  0
  5  6  1  0
  4  7  2  0
  7  8  1  0
  8  9  1  0
  9 10  1  0
 10 11  1  0
 11 12  2  0
 12 13  1  0
 13 14  1  0
 14 15  2  0
 15 16  1  0
 16 17  2  0
 17 18  1  0
 18 19  2  0
 19 20  1  0
 20 21  1  0
  7 22  1  0
 22  2  1  0
 13  9  2  0
 19 14  1  0
M  END
