CVD-0003783|dock_bobby27042020.72|mol2|40|dock1
     RDKit          3D

 25 27  0  0  0  0  0  0  0  0999 V2000
   13.5738    5.7439   21.5777 N   0  0  0  0  0  0  0  0  0  0  0  0
   13.5303    5.0515   23.0207 S   0  0  0  0  0  0  0  0  0  0  0  0
   12.6719    5.8469   23.8462 O   0  0  0  0  0  0  0  0  0  0  0  0
   14.8864    4.8432   23.4314 O   0  0  0  0  0  0  0  0  0  0  0  0
   12.7785    3.4608   22.8559 C   0  0  0  0  0  0  0  0  0  0  0  0
   11.4052    3.3324   22.9579 C   0  0  0  0  0  0  0  0  0  0  0  0
   10.8225    2.0840   22.8300 C   0  0  0  0  0  0  0  0  0  0  0  0
   11.5887    0.9480   22.5836 C   0  0  0  0  0  0  0  0  0  0  0  0
   12.9674    1.1071   22.4772 C   0  0  0  0  0  0  0  0  0  0  0  0
   13.5637    2.3476   22.6171 C   0  0  0  0  0  0  0  0  0  0  0  0
   11.0014   -0.3057   22.4468 N   0  0  0  0  0  0  0  0  0  0  0  0
   11.6237   -1.5348   22.9482 C   0  0  0  0  0  0  0  0  0  0  0  0
   10.6434   -2.4053   23.6821 C   0  0  0  0  0  0  0  0  0  0  0  0
    9.4373   -2.7418   22.7982 C   0  0  0  0  0  0  0  0  0  0  0  0
    8.4417   -3.6210   23.5229 C   0  0  0  0  0  0  0  0  0  0  0  0
    9.1530   -4.5702   24.3310 O   0  0  0  0  0  0  0  0  0  0  0  0
    8.5349   -5.2120   25.3760 C   0  0  0  0  0  0  0  0  0  0  0  0
    9.2573   -5.6360   26.4818 C   0  0  0  0  0  0  0  0  0  0  0  0
    8.6054   -6.2782   27.5218 C   0  0  0  0  0  0  0  0  0  0  0  0
    7.2412   -6.5051   27.4650 C   0  0  0  0  0  0  0  0  0  0  0  0
    6.5645   -6.0779   26.3562 C   0  0  0  0  0  0  0  0  0  0  0  0
    5.2238   -6.2980   26.2891 F   0  0  0  0  0  0  0  0  0  0  0  0
    7.1691   -5.4360   25.3039 C   0  0  0  0  0  0  0  0  0  0  0  0
    8.8241   -1.4548   22.3066 C   0  0  0  0  0  0  0  0  0  0  0  0
    9.8170   -0.5611   21.5944 C   0  0  0  0  0  0  0  0  0  0  0  0
  1  2  1  0
  2  3  2  0
  2  4  2  0
  2  5  1  0
  5  6  2  0
  6  7  1  0
  7  8  2  0
  8  9  1  0
  9 10  2  0
  8 11  1  0
 11 12  1  0
 12 13  1  0
 13 14  1  0
 14 15  1  0
 15 16  1  0
 16 17  1  0
 17 18  2  0
 18 19  1  0
 19 20  2  0
 20 21  1  0
 21 22  1  0
 21 23  2  0
 14 24  1  0
 24 25  1  0
 10  5  1  0
 25 11  1  0
 23 17  1  0
M  END
