CVD-0002666|dock_bobby27042020.5|mol2|1|dock3
     RDKit          3D

 21 22  0  0  0  0  0  0  0  0999 V2000
    8.8925   -1.8387   21.6412 C   0  0  0  0  0  0  0  0  0  0  0  0
   10.0187   -1.4261   22.5767 C   0  0  0  0  0  0  0  0  0  0  0  0
    9.8772   -1.9720   23.9975 C   0  0  0  0  0  0  0  0  0  0  0  0
    9.8955   -3.4864   24.1794 C   0  0  0  0  0  0  0  0  0  0  0  0
    9.2549   -4.0006   25.4589 C   0  0  0  0  0  0  0  0  0  0  0  0
    9.2258   -5.4620   25.5529 N   0  0  0  0  0  0  0  0  0  0  0  0
   10.4762   -5.9734   26.1136 C   0  0  0  0  0  0  0  0  0  0  0  0
    8.0756   -5.9125   26.3403 C   0  0  0  0  0  0  0  0  0  0  0  0
    8.1202   -5.4769   27.7860 C   0  0  0  0  0  0  0  0  0  0  0  0
    6.8861   -5.7361   28.4359 O   0  0  0  0  0  0  0  0  0  0  0  0
   10.1112    0.0315   22.6079 N   0  0  0  0  0  0  0  0  0  0  0  0
   11.2651    0.7280   22.6917 C   0  0  0  0  0  0  0  0  0  0  0  0
   12.4398    0.0821   22.7532 N   0  0  0  0  0  0  0  0  0  0  0  0
   13.5636    0.8131   22.8357 C   0  0  0  0  0  0  0  0  0  0  0  0
   13.7093    2.1032   22.8673 N   0  0  0  0  0  0  0  0  0  0  0  0
   12.5055    2.7671   22.8043 N   0  0  0  0  0  0  0  0  0  0  0  0
   12.3088    4.1357   22.8160 C   0  0  0  0  0  0  0  0  0  0  0  0
   13.7255    5.3476   22.9251 Br  0  0  0  0  0  0  0  0  0  0  0  0
   10.9563    4.4256   22.7371 C   0  0  0  0  0  0  0  0  0  0  0  0
   10.2875    3.2028   22.6742 C   0  0  0  0  0  0  0  0  0  0  0  0
   11.2669    2.1662   22.7169 C   0  0  0  0  0  0  0  0  0  0  0  0
  1  2  1  0
  2  3  1  0
  3  4  1  0
  4  5  1  0
  5  6  1  0
  6  7  1  0
  6  8  1  0
  8  9  1  0
  9 10  1  0
  2 11  1  0
 11 12  1  0
 12 13  2  0
 13 14  1  0
 14 15  2  0
 15 16  1  0
 16 17  1  0
 17 18  1  0
 17 19  2  0
 19 20  1  0
 20 21  2  0
 21 12  1  0
 21 16  1  0
M  END
