CVD-0003487|dock_bobby27042020.45|mol2|13|dock1
     RDKit          3D

 21 23  0  0  0  0  0  0  0  0999 V2000
    2.1425    3.0566   20.2897 Cl  0  0  0  0  0  0  0  0  0  0  0  0
    3.3693    2.0321   19.5328 C   0  0  0  0  0  0  0  0  0  0  0  0
    4.5943    1.8946   20.4168 C   0  0  0  0  0  0  0  0  0  0  0  0
    4.5992    2.3966   21.5338 O   0  0  0  0  0  0  0  0  0  0  0  0
    5.6597    1.2054   19.9413 N   0  0  0  0  0  0  0  0  0  0  0  0
    5.7257    0.5612   18.6223 C   0  0  0  0  0  0  0  0  0  0  0  0
    6.3128   -0.8296   18.7506 C   0  0  0  0  0  0  0  0  0  0  0  0
    7.6824   -0.7730   19.4152 C   0  0  0  0  0  0  0  0  0  0  0  0
    7.5736   -0.0659   20.7539 C   0  0  0  0  0  0  0  0  0  0  0  0
    6.9555    1.3171   20.6177 C   0  0  0  0  0  0  0  0  0  0  0  0
    8.8889    0.0477   21.4145 N   0  0  0  0  0  0  0  0  0  0  0  0
    9.7109   -0.9399   21.8113 C   0  0  0  0  0  0  0  0  0  0  0  0
   10.7845   -0.3141   22.3852 C   0  0  0  0  0  0  0  0  0  0  0  0
   10.5679    1.0307   22.3196 N   0  0  0  0  0  0  0  0  0  0  0  0
    9.4101    1.2483   21.7371 N   0  0  0  0  0  0  0  0  0  0  0  0
   11.9971   -0.8861   22.9909 C   0  0  0  0  0  0  0  0  0  0  0  0
   12.5235   -0.3530   24.1621 C   0  0  0  0  0  0  0  0  0  0  0  0
   13.6652   -0.8938   24.7297 C   0  0  0  0  0  0  0  0  0  0  0  0
   14.2922   -1.9691   24.1374 C   0  0  0  0  0  0  0  0  0  0  0  0
   13.7800   -2.5069   22.9760 C   0  0  0  0  0  0  0  0  0  0  0  0
   12.6388   -1.9706   22.4033 C   0  0  0  0  0  0  0  0  0  0  0  0
  1  2  1  0
  2  3  1  0
  3  4  2  0
  3  5  1  0
  5  6  1  0
  6  7  1  0
  7  8  1  0
  8  9  1  0
  9 10  1  0
  9 11  1  0
 11 12  1  0
 12 13  2  0
 13 14  1  0
 14 15  2  0
 13 16  1  0
 16 17  2  0
 17 18  1  0
 18 19  2  0
 19 20  1  0
 20 21  2  0
 10  5  1  0
 15 11  1  0
 21 16  1  0
M  END
