CVD-0003803|dock_bobby27042020.86|mol2|38|dock1
     RDKit          3D

 29 32  0  0  0  0  0  0  0  0999 V2000
   12.8966    5.2193   21.4826 N   0  0  0  0  0  0  0  0  0  0  0  0
   13.2093    4.4724   22.8638 S   0  0  0  0  0  0  0  0  0  0  0  0
   12.7186    5.3085   23.9179 O   0  0  0  0  0  0  0  0  0  0  0  0
   14.5974    4.1200   22.8497 O   0  0  0  0  0  0  0  0  0  0  0  0
   12.2833    2.9679   22.9090 C   0  0  0  0  0  0  0  0  0  0  0  0
   10.9057    3.0027   22.7874 C   0  0  0  0  0  0  0  0  0  0  0  0
   10.1856    1.8217   22.8214 C   0  0  0  0  0  0  0  0  0  0  0  0
   10.8233    0.5940   22.9714 C   0  0  0  0  0  0  0  0  0  0  0  0
   12.2102    0.5836   23.0855 C   0  0  0  0  0  0  0  0  0  0  0  0
   12.9394    1.7591   23.0574 C   0  0  0  0  0  0  0  0  0  0  0  0
   10.0946   -0.5874   23.0054 N   0  0  0  0  0  0  0  0  0  0  0  0
    9.4060   -1.1313   21.8311 C   0  0  0  0  0  0  0  0  0  0  0  0
    8.0105   -1.5850   22.1545 C   0  0  0  0  0  0  0  0  0  0  0  0
    8.0159   -2.6124   23.2918 C   0  0  0  0  0  0  0  0  0  0  0  0
    8.7279   -2.0154   24.4796 C   0  0  0  0  0  0  0  0  0  0  0  0
   10.1225   -1.5282   24.1492 C   0  0  0  0  0  0  0  0  0  0  0  0
    6.6506   -3.0701   23.6193 N   0  0  0  0  0  0  0  0  0  0  0  0
    6.3961   -4.4958   23.8887 C   0  0  0  0  0  0  0  0  0  0  0  0
    6.7216   -5.3617   22.6383 C   0  0  0  0  0  0  0  0  0  0  0  0
    5.4136   -5.7959   22.0608 C   0  0  0  0  0  0  0  0  0  0  0  0
    4.3533   -5.3911   22.9737 C   0  0  0  0  0  0  0  0  0  0  0  0
    4.8896   -4.7047   24.1621 C   0  0  0  0  0  0  0  0  0  0  0  0
    7.2379   -4.8402   25.1214 C   0  0  0  0  0  0  0  0  0  0  0  0
    6.7409   -4.6671   26.4076 C   0  0  0  0  0  0  0  0  0  0  0  0
    7.5072   -4.9838   27.5165 C   0  0  0  0  0  0  0  0  0  0  0  0
    8.7890   -5.4822   27.3580 C   0  0  0  0  0  0  0  0  0  0  0  0
    9.2793   -5.6543   26.0822 C   0  0  0  0  0  0  0  0  0  0  0  0
   10.8898   -6.2808   25.8664 Cl  0  0  0  0  0  0  0  0  0  0  0  0
    8.5251   -5.3422   24.9694 C   0  0  0  0  0  0  0  0  0  0  0  0
  1  2  1  0
  2  3  2  0
  2  4  2  0
  2  5  1  0
  5  6  2  0
  6  7  1  0
  7  8  2  0
  8  9  1  0
  9 10  2  0
  8 11  1  0
 11 12  1  0
 12 13  1  0
 13 14  1  0
 14 15  1  0
 15 16  1  0
 14 17  1  0
 17 18  1  0
 18 19  1  0
 19 20  1  0
 20 21  1  0
 21 22  1  0
 18 23  1  0
 23 24  2  0
 24 25  1  0
 25 26  2  0
 26 27  1  0
 27 28  1  0
 27 29  2  0
 10  5  1  0
 16 11  1  0
 22 18  1  0
 29 23  1  0
M  END
