CVD-0003366|dock_bobby27042020.74|mol2|10|dock2
     RDKit          3D

 29 31  0  0  0  0  0  0  0  0999 V2000
    9.4621   -6.6896   25.4804 C   0  0  0  0  0  0  0  0  0  0  0  0
   10.2788   -5.2476   26.0462 S   0  0  0  0  0  0  0  0  0  0  0  0
   11.3441   -4.9553   25.1376 O   0  0  0  0  0  0  0  0  0  0  0  0
   10.5919   -5.4289   27.4301 O   0  0  0  0  0  0  0  0  0  0  0  0
    9.2374   -4.0319   25.9557 N   0  0  0  0  0  0  0  0  0  0  0  0
    8.4327   -3.8549   24.7408 C   0  0  0  0  0  0  0  0  0  0  0  0
    9.3130   -3.5462   23.5424 C   0  0  0  0  0  0  0  0  0  0  0  0
    8.5584   -2.8595   22.4231 C   0  0  0  0  0  0  0  0  0  0  0  0
    8.7805   -1.4975   22.2343 C   0  0  0  0  0  0  0  0  0  0  0  0
    8.1462   -0.7696   21.2453 C   0  0  0  0  0  0  0  0  0  0  0  0
    8.3841    0.5677   21.0761 N   0  0  0  0  0  0  0  0  0  0  0  0
    8.7484    1.4423   22.1748 C   0  0  0  0  0  0  0  0  0  0  0  0
   10.1867    1.9128   22.0785 C   0  0  0  0  0  0  0  0  0  0  0  0
   11.0244    1.2203   21.5105 O   0  0  0  0  0  0  0  0  0  0  0  0
   10.4142    3.1116   22.6681 N   0  0  0  0  0  0  0  0  0  0  0  0
   11.5513    3.9572   22.6603 C   0  0  0  0  0  0  0  0  0  0  0  0
   11.8187    4.7351   23.7793 C   0  0  0  0  0  0  0  0  0  0  0  0
   12.9253    5.5659   23.7873 C   0  0  0  0  0  0  0  0  0  0  0  0
   13.7341    5.5956   22.6752 C   0  0  0  0  0  0  0  0  0  0  0  0
   13.5047    4.8617   21.5863 N   0  0  0  0  0  0  0  0  0  0  0  0
   12.4334    4.0622   21.5873 C   0  0  0  0  0  0  0  0  0  0  0  0
    7.2166   -1.4351   20.3785 C   0  0  0  0  0  0  0  0  0  0  0  0
    6.4948   -0.8081   19.3274 C   0  0  0  0  0  0  0  0  0  0  0  0
    5.6388   -1.5395   18.5662 C   0  0  0  0  0  0  0  0  0  0  0  0
    5.4114   -2.8426   18.7294 N   0  0  0  0  0  0  0  0  0  0  0  0
    6.0631   -3.4592   19.6969 C   0  0  0  0  0  0  0  0  0  0  0  0
    6.9865   -2.8323   20.5714 C   0  0  0  0  0  0  0  0  0  0  0  0
    7.6837   -3.5000   21.6099 C   0  0  0  0  0  0  0  0  0  0  0  0
    7.3914   -5.1894   21.8265 Cl  0  0  0  0  0  0  0  0  0  0  0  0
  1  2  1  0
  2  3  2  0
  2  4  2  0
  2  5  1  0
  5  6  1  0
  6  7  1  0
  7  8  1  0
  8  9  2  0
  9 10  1  0
 10 11  1  0
 11 12  1  0
 12 13  1  0
 13 14  2  0
 13 15  1  0
 15 16  1  0
 16 17  2  0
 17 18  1  0
 18 19  2  0
 19 20  1  0
 20 21  2  0
 10 22  2  0
 22 23  1  0
 23 24  2  0
 24 25  1  0
 25 26  2  0
 26 27  1  0
 27 28  2  0
 28 29  1  0
 28  8  1  0
 21 16  1  0
 27 22  1  0
M  END
