CVD-0000418|dock_bobby27042020.56|mol2|10|dock2
     RDKit          3D

 24 26  0  0  0  0  0  0  0  0999 V2000
   14.2685    6.0897   21.5319 C   0  0  0  0  0  0  0  0  0  0  0  0
   13.0433    5.3233   21.9736 C   0  0  0  0  0  0  0  0  0  0  0  0
   13.3963    3.9927   22.6119 C   0  0  0  0  0  0  0  0  0  0  0  0
   12.2080    3.0854   22.7964 C   0  0  0  0  0  0  0  0  0  0  0  0
   10.8767    3.4189   22.9219 C   0  0  0  0  0  0  0  0  0  0  0  0
   10.1424    4.9656   22.9093 Cl  0  0  0  0  0  0  0  0  0  0  0  0
   10.1145    2.3130   23.0719 N   0  0  0  0  0  0  0  0  0  0  0  0
   10.9359    1.2075   23.0486 C   0  0  0  0  0  0  0  0  0  0  0  0
   10.6423   -0.1540   23.1628 C   0  0  0  0  0  0  0  0  0  0  0  0
    9.3148   -0.4606   23.3246 O   0  0  0  0  0  0  0  0  0  0  0  0
    8.4965   -0.9085   22.2151 C   0  0  0  0  0  0  0  0  0  0  0  0
    7.0080   -0.6483   22.4357 C   0  0  0  0  0  0  0  0  0  0  0  0
    6.1727   -1.0226   21.2280 C   0  0  0  0  0  0  0  0  0  0  0  0
    6.6851   -0.3696   20.0191 N   0  0  0  0  0  0  0  0  0  0  0  0
    8.0748   -0.7079   19.7338 C   0  0  0  0  0  0  0  0  0  0  0  0
    8.9416   -0.2840   20.8989 C   0  0  0  0  0  0  0  0  0  0  0  0
    5.9568    0.3903   19.1598 C   0  0  0  0  0  0  0  0  0  0  0  0
    4.4978    0.6253   19.4234 C   0  0  0  0  0  0  0  0  0  0  0  0
    6.4990    0.8910   18.1809 O   0  0  0  0  0  0  0  0  0  0  0  0
   11.6672   -1.0851   23.1055 C   0  0  0  0  0  0  0  0  0  0  0  0
   12.9491   -0.6138   22.9370 C   0  0  0  0  0  0  0  0  0  0  0  0
   13.9556   -1.5272   22.8813 F   0  0  0  0  0  0  0  0  0  0  0  0
   13.2850    0.7144   22.8208 C   0  0  0  0  0  0  0  0  0  0  0  0
   12.2579    1.6542   22.8769 C   0  0  0  0  0  0  0  0  0  0  0  0
  1  2  1  0
  2  3  1  0
  3  4  1  0
  4  5  2  0
  5  6  1  0
  5  7  1  0
  7  8  1  0
  8  9  2  0
  9 10  1  0
 10 11  1  0
 11 12  1  0
 12 13  1  0
 13 14  1  0
 14 15  1  0
 15 16  1  0
 14 17  1  0
 17 18  1  0
 17 19  2  0
  9 20  1  0
 20 21  2  0
 21 22  1  0
 21 23  1  0
 23 24  2  0
 24  4  1  0
 24  8  1  0
 16 11  1  0
M  END
