CVD-0000362|dock_bobby27042020.98|mol2|42|dock2
     RDKit          3D

 28 30  0  0  0  0  0  0  0  0999 V2000
    9.8197   -5.8408   26.6961 C   0  0  0  0  0  0  0  0  0  0  0  0
   10.3118   -4.9101   25.6468 C   0  0  0  0  0  0  0  0  0  0  0  0
    9.4425   -5.0043   24.5120 O   0  0  0  0  0  0  0  0  0  0  0  0
    9.5453   -4.1068   23.4762 C   0  0  0  0  0  0  0  0  0  0  0  0
   10.6542   -3.2989   23.2805 C   0  0  0  0  0  0  0  0  0  0  0  0
   10.7077   -2.3856   22.2366 C   0  0  0  0  0  0  0  0  0  0  0  0
   11.9582   -1.5430   22.0896 C   0  0  0  0  0  0  0  0  0  0  0  0
   12.2258   -0.4858   23.0810 N   0  0  0  0  0  0  0  0  0  0  0  0
   10.9928    0.2381   23.4040 C   0  0  0  0  0  0  0  0  0  0  0  0
   11.2661    1.2978   24.4552 C   0  0  0  0  0  0  0  0  0  0  0  0
   12.2926    2.2311   23.9860 N   0  0  0  0  0  0  0  0  0  0  0  0
   13.5205    1.5304   23.5975 C   0  0  0  0  0  0  0  0  0  0  0  0
   13.2128    0.4599   22.5663 C   0  0  0  0  0  0  0  0  0  0  0  0
   12.1063    3.5784   23.9558 C   0  0  0  0  0  0  0  0  0  0  0  0
   13.2021    4.4679   23.4443 C   0  0  0  0  0  0  0  0  0  0  0  0
   11.0458    4.0659   24.3307 O   0  0  0  0  0  0  0  0  0  0  0  0
    9.6110   -2.2970   21.3887 C   0  0  0  0  0  0  0  0  0  0  0  0
    8.5310   -3.1184   21.5850 C   0  0  0  0  0  0  0  0  0  0  0  0
    7.5014   -2.9983   20.7156 F   0  0  0  0  0  0  0  0  0  0  0  0
    8.4395   -4.0557   22.6116 C   0  0  0  0  0  0  0  0  0  0  0  0
    7.2379   -4.9390   22.7721 C   0  0  0  0  0  0  0  0  0  0  0  0
    6.0224   -4.4656   23.2569 C   0  0  0  0  0  0  0  0  0  0  0  0
    4.9716   -5.3594   23.3734 C   0  0  0  0  0  0  0  0  0  0  0  0
    3.6189   -4.9373   23.8838 C   0  0  0  0  0  0  0  0  0  0  0  0
    2.4799   -5.6651   23.2185 C   0  0  0  0  0  0  0  0  0  0  0  0
    5.1101   -6.6463   23.0300 N   0  0  0  0  0  0  0  0  0  0  0  0
    6.3160   -6.9950   22.5792 C   0  0  0  0  0  0  0  0  0  0  0  0
    7.3962   -6.2278   22.4262 N   0  0  0  0  0  0  0  0  0  0  0  0
  1  2  1  0
  2  3  1  0
  3  4  1  0
  4  5  2  0
  5  6  1  0
  6  7  1  0
  7  8  1  0
  8  9  1  0
  9 10  1  0
 10 11  1  0
 11 12  1  0
 12 13  1  0
 11 14  1  0
 14 15  1  0
 14 16  2  0
  6 17  2  0
 17 18  1  0
 18 19  1  0
 18 20  2  0
 20 21  1  0
 21 22  2  0
 22 23  1  0
 23 24  1  0
 24 25  1  0
 23 26  2  0
 26 27  1  0
 27 28  2  0
 20  4  1  0
 28 21  1  0
 13  8  1  0
M  END
