CVD-0002150|dock_bobby27042020.35|mol2|26|dock3
     RDKit          3D

 16 16  0  0  0  0  0  0  0  0999 V2000
   13.4952    0.0216   22.8278 C   0  0  0  0  0  0  0  0  0  0  0  0
   13.4572   -1.4821   21.9312 S   0  0  0  0  0  0  0  0  0  0  0  0
   13.9951   -2.5109   22.7669 O   0  0  0  0  0  0  0  0  0  0  0  0
   14.0611   -1.2534   20.6550 O   0  0  0  0  0  0  0  0  0  0  0  0
   11.9198   -1.8500   21.6640 N   0  0  0  0  0  0  0  0  0  0  0  0
   11.0710   -2.2793   22.7821 C   0  0  0  0  0  0  0  0  0  0  0  0
    9.9909   -1.2496   23.0607 C   0  0  0  0  0  0  0  0  0  0  0  0
    8.9067   -1.2419   22.0103 C   0  0  0  0  0  0  0  0  0  0  0  0
    7.8183   -2.0943   22.1024 C   0  0  0  0  0  0  0  0  0  0  0  0
    6.8226   -2.0946   21.1414 C   0  0  0  0  0  0  0  0  0  0  0  0
    6.8881   -1.2338   20.0488 C   0  0  0  0  0  0  0  0  0  0  0  0
    7.9820   -0.3803   19.9580 C   0  0  0  0  0  0  0  0  0  0  0  0
    8.9732   -0.3863   20.9229 C   0  0  0  0  0  0  0  0  0  0  0  0
    5.8407   -1.1942   18.9852 C   0  0  0  0  0  0  0  0  0  0  0  0
    5.4117   -0.0054   18.5048 N   0  0  0  0  0  0  0  0  0  0  0  0
    5.3309   -2.2796   18.5097 N   0  0  0  0  0  0  0  0  0  0  0  0
  1  2  1  0
  2  3  2  0
  2  4  2  0
  2  5  1  0
  5  6  1  0
  6  7  1  0
  7  8  1  0
  8  9  2  0
  9 10  1  0
 10 11  2  0
 11 12  1  0
 12 13  2  0
 11 14  1  0
 14 15  1  0
 14 16  2  0
 13  8  1  0
M  END
