CVD-0000655|dock_bobby27042020.26|mol2|34|dock2
     RDKit          3D

 23 25  0  0  0  0  0  0  0  0999 V2000
    3.9576    1.8119   19.3718 Cl  0  0  0  0  0  0  0  0  0  0  0  0
    4.7898    0.6080   20.3643 C   0  0  0  0  0  0  0  0  0  0  0  0
    6.1613    1.0974   20.7890 C   0  0  0  0  0  0  0  0  0  0  0  0
    6.5720    2.1918   20.4239 O   0  0  0  0  0  0  0  0  0  0  0  0
    6.9128    0.3030   21.5840 N   0  0  0  0  0  0  0  0  0  0  0  0
    8.2467    0.6945   22.0447 C   0  0  0  0  0  0  0  0  0  0  0  0
    9.2648   -0.3732   21.6893 C   0  0  0  0  0  0  0  0  0  0  0  0
    8.8810   -1.6576   22.2822 N   0  0  0  0  0  0  0  0  0  0  0  0
    9.8850   -2.6994   22.0257 C   0  0  0  0  0  0  0  0  0  0  0  0
   11.2806   -2.3007   22.4418 C   0  0  0  0  0  0  0  0  0  0  0  0
   12.1957   -1.8438   21.5066 C   0  0  0  0  0  0  0  0  0  0  0  0
   13.4767   -1.4813   21.8884 C   0  0  0  0  0  0  0  0  0  0  0  0
   13.8612   -1.5720   23.2156 C   0  0  0  0  0  0  0  0  0  0  0  0
   12.9479   -2.0280   24.1407 C   0  0  0  0  0  0  0  0  0  0  0  0
   13.4162   -2.1485   25.8136 Cl  0  0  0  0  0  0  0  0  0  0  0  0
   11.6690   -2.3922   23.7722 C   0  0  0  0  0  0  0  0  0  0  0  0
    7.5721   -2.0491   21.7653 C   0  0  0  0  0  0  0  0  0  0  0  0
    6.5235   -1.0081   22.1127 C   0  0  0  0  0  0  0  0  0  0  0  0
    7.1876   -3.4007   22.2907 C   0  0  0  0  0  0  0  0  0  0  0  0
    7.0961   -3.7975   23.6198 C   0  0  0  0  0  0  0  0  0  0  0  0
    6.7024   -5.1538   23.7197 C   0  0  0  0  0  0  0  0  0  0  0  0
    6.5081   -5.7455   22.5291 C   0  0  0  0  0  0  0  0  0  0  0  0
    6.7957   -4.6781   21.2290 S   0  0  0  0  0  0  0  0  0  0  0  0
  1  2  1  0
  2  3  1  0
  3  4  2  0
  3  5  1  0
  5  6  1  0
  6  7  1  0
  7  8  1  0
  8  9  1  0
  9 10  1  0
 10 11  2  0
 11 12  1  0
 12 13  2  0
 13 14  1  0
 14 15  1  0
 14 16  2  0
  8 17  1  0
 17 18  1  0
 17 19  1  0
 19 20  2  0
 20 21  1  0
 21 22  2  0
 22 23  1  0
 18  5  1  0
 23 19  1  0
 16 10  1  0
M  END
