CVD-0000059|dock_bobby27042020.14|mol2|19|dock3
     RDKit          3D

 19 20  0  0  0  0  0  0  0  0999 V2000
   13.9082   -2.8145   25.6855 C   0  0  0  0  0  0  0  0  0  0  0  0
   13.1469   -1.7700   24.9063 C   0  0  0  0  0  0  0  0  0  0  0  0
   13.2089   -0.4315   25.2616 C   0  0  0  0  0  0  0  0  0  0  0  0
   12.5119    0.5242   24.5417 C   0  0  0  0  0  0  0  0  0  0  0  0
   11.7427    0.1485   23.4540 C   0  0  0  0  0  0  0  0  0  0  0  0
   11.6639   -1.1827   23.0784 C   0  0  0  0  0  0  0  0  0  0  0  0
   10.8305   -1.6055   21.8897 C   0  0  0  0  0  0  0  0  0  0  0  0
    9.5057   -0.8720   21.8238 C   0  0  0  0  0  0  0  0  0  0  0  0
    9.0398   -0.3340   22.8225 O   0  0  0  0  0  0  0  0  0  0  0  0
    8.9400   -0.8990   20.5914 N   0  0  0  0  0  0  0  0  0  0  0  0
    7.7153   -0.3459   20.1218 C   0  0  0  0  0  0  0  0  0  0  0  0
    6.6615   -0.0027   20.9709 C   0  0  0  0  0  0  0  0  0  0  0  0
    5.5030    0.5298   20.4330 C   0  0  0  0  0  0  0  0  0  0  0  0
    5.4207    0.7075   19.0735 C   0  0  0  0  0  0  0  0  0  0  0  0
    6.4048    0.3932   18.2245 N   0  0  0  0  0  0  0  0  0  0  0  0
    7.5373   -0.1262   18.7364 C   0  0  0  0  0  0  0  0  0  0  0  0
    8.5558   -0.4410   17.7567 C   0  0  0  0  0  0  0  0  0  0  0  0
    9.3894   -0.6852   17.0149 N   0  0  0  0  0  0  0  0  0  0  0  0
   12.3716   -2.1255   23.8125 C   0  0  0  0  0  0  0  0  0  0  0  0
  1  2  1  0
  2  3  2  0
  3  4  1  0
  4  5  2  0
  5  6  1  0
  6  7  1  0
  7  8  1  0
  8  9  2  0
  8 10  1  0
 10 11  1  0
 11 12  2  0
 12 13  1  0
 13 14  2  0
 14 15  1  0
 15 16  2  0
 16 17  1  0
 17 18  3  0
  6 19  2  0
 19  2  1  0
 16 11  1  0
M  END
