CVD-0002667|dock_bobby27042020.90|mol2|32|dock1
     RDKit          3D

 14 15  0  0  0  0  0  0  0  0999 V2000
   13.5893    4.9504   21.2124 N   0  0  0  0  0  0  0  0  0  0  0  0
   13.7399    4.2899   22.3532 C   0  0  0  0  0  0  0  0  0  0  0  0
   14.6165    4.5551   23.1836 O   0  0  0  0  0  0  0  0  0  0  0  0
   12.7780    3.1778   22.6023 C   0  0  0  0  0  0  0  0  0  0  0  0
   11.5284    3.4473   22.1204 N   0  0  0  0  0  0  0  0  0  0  0  0
   10.5671    2.4875   22.2982 C   0  0  0  0  0  0  0  0  0  0  0  0
    9.3317    2.7074   21.8437 O   0  0  0  0  0  0  0  0  0  0  0  0
   10.9412    1.2801   22.9721 C   0  0  0  0  0  0  0  0  0  0  0  0
   10.2454    0.0906   23.3333 C   0  0  0  0  0  0  0  0  0  0  0  0
   11.1662   -0.7322   23.9818 C   0  0  0  0  0  0  0  0  0  0  0  0
   12.3680   -0.0538   24.0047 C   0  0  0  0  0  0  0  0  0  0  0  0
   13.8512   -0.5868   24.6769 Cl  0  0  0  0  0  0  0  0  0  0  0  0
   12.2439    1.1492   23.4040 N   0  0  0  0  0  0  0  0  0  0  0  0
   13.2288    2.0985   23.2379 N   0  0  0  0  0  0  0  0  0  0  0  0
  1  2  1  0
  2  3  2  0
  2  4  1  0
  4  5  1  0
  5  6  2  0
  6  7  1  0
  6  8  1  0
  8  9  2  0
  9 10  1  0
 10 11  2  0
 11 12  1  0
 11 13  1  0
 13 14  1  0
 14  4  2  0
 13  8  1  0
M  END
