CVD-0003120|dock_bobby27042020.46|mol2|18|dock2
     RDKit          3D

 18 20  0  0  0  0  0  0  0  0999 V2000
    7.1919   -5.6375   21.8013 C   0  0  0  0  0  0  0  0  0  0  0  0
    7.2744   -4.1740   21.5122 C   0  0  0  0  0  0  0  0  0  0  0  0
    6.3163   -3.6472   20.7414 N   0  0  0  0  0  0  0  0  0  0  0  0
    6.4278   -2.3362   20.5045 C   0  0  0  0  0  0  0  0  0  0  0  0
    7.4444   -1.5265   20.9963 C   0  0  0  0  0  0  0  0  0  0  0  0
    7.4871   -0.0560   20.6720 C   0  0  0  0  0  0  0  0  0  0  0  0
    8.4007   -2.1946   21.7953 C   0  0  0  0  0  0  0  0  0  0  0  0
    9.4364   -1.5243   22.3285 N   0  0  0  0  0  0  0  0  0  0  0  0
   10.7935   -2.0540   22.4078 C   0  0  0  0  0  0  0  0  0  0  0  0
   11.6989   -1.1008   21.7504 C   0  0  0  0  0  0  0  0  0  0  0  0
   13.1454   -1.5207   21.8011 C   0  0  0  0  0  0  0  0  0  0  0  0
   13.5547   -1.9686   23.1743 C   0  0  0  0  0  0  0  0  0  0  0  0
   14.7906   -1.9160   23.6644 N   0  0  0  0  0  0  0  0  0  0  0  0
   14.6310   -2.2557   24.9686 N   0  0  0  0  0  0  0  0  0  0  0  0
   13.3632   -2.5150   25.3099 C   0  0  0  0  0  0  0  0  0  0  0  0
   12.6037   -2.3434   24.1717 C   0  0  0  0  0  0  0  0  0  0  0  0
   11.1231   -2.3300   23.8719 C   0  0  0  0  0  0  0  0  0  0  0  0
    8.3041   -3.5085   22.0437 N   0  0  0  0  0  0  0  0  0  0  0  0
  1  2  1  0
  2  3  2  0
  3  4  1  0
  4  5  2  0
  5  6  1  0
  5  7  1  0
  7  8  1  0
  9  8  1  0
  9 10  1  0
 10 11  1  0
 11 12  1  0
 12 13  2  0
 13 14  1  0
 14 15  1  0
 15 16  2  0
 16 17  1  0
  7 18  2  0
 18  2  1  0
 17  9  1  0
 16 12  1  0
M  END
