CVD-0000711|dock_bobby27042020.83|mol2|31|dock1
     RDKit          3D

 21 23  0  0  0  0  0  0  0  0999 V2000
    7.4959   -1.0321   22.4397 O   0  0  0  0  0  0  0  0  0  0  0  0
    8.4171   -1.3011   21.6761 C   0  0  0  0  0  0  0  0  0  0  0  0
    9.6176   -2.0815   22.1683 C   0  0  0  0  0  0  0  0  0  0  0  0
   10.7859   -1.2359   22.5781 C   0  0  0  0  0  0  0  0  0  0  0  0
   11.0448    0.0497   22.2028 C   0  0  0  0  0  0  0  0  0  0  0  0
   12.2056    0.4947   22.7777 N   0  0  0  0  0  0  0  0  0  0  0  0
   12.7232   -0.5080   23.5439 C   0  0  0  0  0  0  0  0  0  0  0  0
   13.8514   -0.4771   24.2731 N   0  0  0  0  0  0  0  0  0  0  0  0
   14.1528   -1.5958   24.9466 C   0  0  0  0  0  0  0  0  0  0  0  0
   13.3809   -2.7377   24.9238 C   0  0  0  0  0  0  0  0  0  0  0  0
   12.2202   -2.7525   24.1663 C   0  0  0  0  0  0  0  0  0  0  0  0
   11.8622   -1.6141   23.4470 C   0  0  0  0  0  0  0  0  0  0  0  0
    8.4902   -0.9475   20.3699 N   0  0  0  0  0  0  0  0  0  0  0  0
    7.5993   -0.2167   19.5449 C   0  0  0  0  0  0  0  0  0  0  0  0
    7.8339    0.0522   18.1972 C   0  0  0  0  0  0  0  0  0  0  0  0
    6.9913    0.7415   17.4211 N   0  0  0  0  0  0  0  0  0  0  0  0
    5.8635    1.1964   17.9716 C   0  0  0  0  0  0  0  0  0  0  0  0
    5.5304    0.9862   19.3049 C   0  0  0  0  0  0  0  0  0  0  0  0
    6.4186    0.2664   20.0984 C   0  0  0  0  0  0  0  0  0  0  0  0
    4.2995    1.4975   19.8558 C   0  0  0  0  0  0  0  0  0  0  0  0
    3.3113    1.8719   20.2894 N   0  0  0  0  0  0  0  0  0  0  0  0
  1  2  2  0
  2  3  1  0
  3  4  1  0
  4  5  2  0
  5  6  1  0
  6  7  1  0
  7  8  2  0
  8  9  1  0
  9 10  2  0
 10 11  1  0
 11 12  2  0
  2 13  1  0
 13 14  1  0
 14 15  2  0
 15 16  1  0
 16 17  2  0
 17 18  1  0
 18 19  2  0
 18 20  1  0
 20 21  3  0
 12  4  1  0
 19 14  1  0
 12  7  1  0
M  END
