CVD-0002849|dock_bobby27042020.61|mol2|40|dock2
     RDKit          3D

 22 24  0  0  0  0  0  0  0  0999 V2000
    8.3953   -1.6003   18.6403 N   0  0  0  0  0  0  0  0  0  0  0  0
    7.6394   -1.2496   19.7278 C   0  0  0  0  0  0  0  0  0  0  0  0
    6.2840   -0.8939   19.6197 C   0  0  0  0  0  0  0  0  0  0  0  0
    5.5164   -0.8917   18.0650 Cl  0  0  0  0  0  0  0  0  0  0  0  0
    5.5350   -0.5419   20.7256 C   0  0  0  0  0  0  0  0  0  0  0  0
    6.1742   -0.5531   21.9466 C   0  0  0  0  0  0  0  0  0  0  0  0
    7.4626   -0.8841   22.1021 N   0  0  0  0  0  0  0  0  0  0  0  0
    8.1907   -1.2278   21.0263 C   0  0  0  0  0  0  0  0  0  0  0  0
    9.6287   -1.5815   21.2905 C   0  0  0  0  0  0  0  0  0  0  0  0
    9.9735   -1.6130   22.7541 C   0  0  0  0  0  0  0  0  0  0  0  0
    9.4448   -2.5990   23.5492 N   0  0  0  0  0  0  0  0  0  0  0  0
    9.9201   -2.4018   24.7883 C   0  0  0  0  0  0  0  0  0  0  0  0
   10.7213   -1.3521   24.8552 N   0  0  0  0  0  0  0  0  0  0  0  0
   10.7636   -0.8322   23.5658 C   0  0  0  0  0  0  0  0  0  0  0  0
   11.5679    0.3790   23.2588 C   0  0  0  0  0  0  0  0  0  0  0  0
   12.9535    0.3410   23.4439 C   0  0  0  0  0  0  0  0  0  0  0  0
   13.7795    1.3690   23.2384 N   0  0  0  0  0  0  0  0  0  0  0  0
   13.2345    2.4914   22.7768 C   0  0  0  0  0  0  0  0  0  0  0  0
   11.8853    2.6414   22.5327 C   0  0  0  0  0  0  0  0  0  0  0  0
   11.0121    1.5833   22.7803 C   0  0  0  0  0  0  0  0  0  0  0  0
    9.5346    1.7888   22.5346 C   0  0  0  0  0  0  0  0  0  0  0  0
    9.1437    1.5352   21.1960 O   0  0  0  0  0  0  0  0  0  0  0  0
  1  2  1  0
  2  3  2  0
  3  4  1  0
  3  5  1  0
  5  6  2  0
  6  7  1  0
  7  8  2  0
  8  9  1  0
  9 10  1  0
 10 11  1  0
 11 12  1  0
 12 13  2  0
 13 14  1  0
 14 15  1  0
 15 16  2  0
 16 17  1  0
 17 18  2  0
 18 19  1  0
 19 20  2  0
 20 21  1  0
 21 22  1  0
  8  2  1  0
 14 10  2  0
 20 15  1  0
M  END
