CVD-0002154|dock_bobby27042020.78|mol2|25|dock2
     RDKit          3D

 17 17  0  0  0  0  0  0  0  0999 V2000
   13.9491   -2.3306   20.3337 C   0  0  0  0  0  0  0  0  0  0  0  0
   13.2217   -2.0232   21.8968 S   0  0  0  0  0  0  0  0  0  0  0  0
   13.8738   -0.8897   22.4761 O   0  0  0  0  0  0  0  0  0  0  0  0
   13.2054   -3.2516   22.6295 O   0  0  0  0  0  0  0  0  0  0  0  0
   11.6804   -1.6035   21.6416 N   0  0  0  0  0  0  0  0  0  0  0  0
   10.7784   -1.2756   22.7596 C   0  0  0  0  0  0  0  0  0  0  0  0
   10.7886    0.2248   23.0539 C   0  0  0  0  0  0  0  0  0  0  0  0
   12.1077    0.7079   23.5552 C   0  0  0  0  0  0  0  0  0  0  0  0
   12.5250    0.2923   24.6637 N   0  0  0  0  0  0  0  0  0  0  0  0
   12.7478    1.5609   22.7857 N   0  0  0  0  0  0  0  0  0  0  0  0
    9.3627   -1.7406   22.3976 C   0  0  0  0  0  0  0  0  0  0  0  0
    8.7717   -1.0296   21.2046 C   0  0  0  0  0  0  0  0  0  0  0  0
    8.1717    0.2121   21.3452 C   0  0  0  0  0  0  0  0  0  0  0  0
    7.6263    0.8633   20.2514 C   0  0  0  0  0  0  0  0  0  0  0  0
    7.6742    0.2795   19.0037 C   0  0  0  0  0  0  0  0  0  0  0  0
    8.2666   -0.9554   18.8503 C   0  0  0  0  0  0  0  0  0  0  0  0
    8.8118   -1.6062   19.9445 C   0  0  0  0  0  0  0  0  0  0  0  0
  1  2  1  0
  2  3  2  0
  2  4  2  0
  2  5  1  0
  5  6  1  0
  6  7  1  0
  7  8  1  0
  8  9  1  0
  8 10  2  0
  6 11  1  0
 11 12  1  0
 12 13  2  0
 13 14  1  0
 14 15  2  0
 15 16  1  0
 16 17  2  0
 17 12  1  0
M  END
