CVD-0000641|dock_bobby27042020.26|mol2|36|dock1
     RDKit          3D

 30 33  0  0  0  0  0  0  0  0999 V2000
   10.4476   -1.1611   24.2090 O   0  0  0  0  0  0  0  0  0  0  0  0
   10.7315   -2.1554   23.5482 C   0  0  0  0  0  0  0  0  0  0  0  0
   11.4431   -2.0467   22.2176 C   0  0  0  0  0  0  0  0  0  0  0  0
   11.6913   -0.5913   21.7928 C   0  0  0  0  0  0  0  0  0  0  0  0
   12.7826    0.0408   22.6564 C   0  0  0  0  0  0  0  0  0  0  0  0
   13.0140    1.4938   22.3513 C   0  0  0  0  0  0  0  0  0  0  0  0
   14.1192    1.9781   22.4686 O   0  0  0  0  0  0  0  0  0  0  0  0
   11.8196    2.3498   21.9403 C   0  0  0  0  0  0  0  0  0  0  0  0
   10.4866    1.6260   21.9858 C   0  0  0  0  0  0  0  0  0  0  0  0
    9.3085    2.3583   22.0899 C   0  0  0  0  0  0  0  0  0  0  0  0
    8.0748    1.7376   22.0830 C   0  0  0  0  0  0  0  0  0  0  0  0
    7.9910    0.3609   21.9713 C   0  0  0  0  0  0  0  0  0  0  0  0
    6.6540   -0.3402   21.9924 C   0  0  0  0  0  0  0  0  0  0  0  0
    6.0327   -0.4358   20.6630 N   0  0  0  0  0  0  0  0  0  0  0  0
    6.9515   -1.0434   19.7139 C   0  0  0  0  0  0  0  0  0  0  0  0
    6.3413   -1.1292   18.3240 C   0  0  0  0  0  0  0  0  0  0  0  0
    5.8768    0.2127   17.8762 C   0  0  0  0  0  0  0  0  0  0  0  0
    6.2436    0.7231   16.8394 O   0  0  0  0  0  0  0  0  0  0  0  0
    4.9839    0.8670   18.8555 C   0  0  0  0  0  0  0  0  0  0  0  0
    5.6583    0.9041   20.2137 C   0  0  0  0  0  0  0  0  0  0  0  0
    9.1691   -0.3673   21.8676 C   0  0  0  0  0  0  0  0  0  0  0  0
   10.4304    0.2358   21.8721 C   0  0  0  0  0  0  0  0  0  0  0  0
   10.4439   -3.3933   23.9560 N   0  0  0  0  0  0  0  0  0  0  0  0
    9.7669   -3.6730   25.2225 C   0  0  0  0  0  0  0  0  0  0  0  0
    8.2406   -3.6541   25.0546 C   0  0  0  0  0  0  0  0  0  0  0  0
    7.5251   -3.9325   26.3625 C   0  0  0  0  0  0  0  0  0  0  0  0
    7.9802   -5.2311   26.9728 C   0  0  0  0  0  0  0  0  0  0  0  0
    9.4713   -5.3574   27.0278 C   0  0  0  0  0  0  0  0  0  0  0  0
   10.0444   -5.7574   28.0185 O   0  0  0  0  0  0  0  0  0  0  0  0
   10.2126   -4.9855   25.7904 C   0  0  0  0  0  0  0  0  0  0  0  0
  1  2  2  0
  2  3  1  0
  3  4  1  0
  4  5  1  0
  5  6  1  0
  6  7  2  0
  6  8  1  0
  8  9  1  0
  9 10  2  0
 10 11  1  0
 11 12  2  0
 12 13  1  0
 13 14  1  0
 14 15  1  0
 15 16  1  0
 16 17  1  0
 17 18  2  0
 17 19  1  0
 19 20  1  0
 12 21  1  0
 21 22  2  0
  2 23  1  0
 23 24  1  0
 24 25  1  0
 25 26  1  0
 26 27  1  0
 27 28  1  0
 28 29  2  0
 28 30  1  0
 22  4  1  0
 30 24  1  0
 22  9  1  0
 20 14  1  0
M  END
