CVD-0002333|dock_bobby27042020.77|mol2|37|dock3
     RDKit          3D

 30 32  0  0  0  0  0  0  0  0999 V2000
    6.7196    2.9576   22.2781 C   0  0  0  0  0  0  0  0  0  0  0  0
    8.3519    2.3396   22.4234 S   0  0  0  0  0  0  0  0  0  0  0  0
    8.6494    1.5605   21.2612 O   0  0  0  0  0  0  0  0  0  0  0  0
    8.4789    1.7234   23.7079 O   0  0  0  0  0  0  0  0  0  0  0  0
    9.3486    3.6281   22.4156 N   0  0  0  0  0  0  0  0  0  0  0  0
   10.7742    3.5557   22.5028 C   0  0  0  0  0  0  0  0  0  0  0  0
   11.5515    4.7083   22.4893 C   0  0  0  0  0  0  0  0  0  0  0  0
   12.9301    4.6106   22.5749 C   0  0  0  0  0  0  0  0  0  0  0  0
   13.5381    3.3708   22.6739 C   0  0  0  0  0  0  0  0  0  0  0  0
   12.7730    2.2106   22.6886 C   0  0  0  0  0  0  0  0  0  0  0  0
   11.3881    2.3119   22.6024 C   0  0  0  0  0  0  0  0  0  0  0  0
   13.4414    0.8764   22.7961 C   0  0  0  0  0  0  0  0  0  0  0  0
   14.0706    0.5379   23.7852 O   0  0  0  0  0  0  0  0  0  0  0  0
   13.2666    0.1198   21.7094 O   0  0  0  0  0  0  0  0  0  0  0  0
   13.3227   -1.3122   21.8767 C   0  0  0  0  0  0  0  0  0  0  0  0
   12.1908   -1.8147   22.7385 C   0  0  0  0  0  0  0  0  0  0  0  0
   12.3517   -1.8719   23.9531 O   0  0  0  0  0  0  0  0  0  0  0  0
   11.0725   -2.1726   22.0614 N   0  0  0  0  0  0  0  0  0  0  0  0
    9.8119   -2.6391   22.5108 C   0  0  0  0  0  0  0  0  0  0  0  0
    8.6273   -2.3832   21.8297 C   0  0  0  0  0  0  0  0  0  0  0  0
    7.4334   -2.8689   22.3281 C   0  0  0  0  0  0  0  0  0  0  0  0
    7.4048   -3.6043   23.4993 C   0  0  0  0  0  0  0  0  0  0  0  0
    8.5803   -3.8716   24.1950 C   0  0  0  0  0  0  0  0  0  0  0  0
    9.7841   -3.3837   23.6865 C   0  0  0  0  0  0  0  0  0  0  0  0
    8.5272   -4.6398   25.4131 N   0  0  0  0  0  0  0  0  0  0  0  0
    9.5027   -5.6962   25.6933 C   0  0  0  0  0  0  0  0  0  0  0  0
    9.1186   -6.2097   27.0593 C   0  0  0  0  0  0  0  0  0  0  0  0
    7.8083   -5.5605   27.4267 C   0  0  0  0  0  0  0  0  0  0  0  0
    7.5352   -4.5437   26.3591 C   0  0  0  0  0  0  0  0  0  0  0  0
    6.6087   -3.7475   26.2848 O   0  0  0  0  0  0  0  0  0  0  0  0
  1  2  1  0
  2  3  2  0
  2  4  2  0
  2  5  1  0
  5  6  1  0
  6  7  2  0
  7  8  1  0
  8  9  2  0
  9 10  1  0
 10 11  2  0
 10 12  1  0
 12 13  2  0
 12 14  1  0
 14 15  1  0
 15 16  1  0
 16 17  2  0
 16 18  1  0
 18 19  1  0
 19 20  2  0
 20 21  1  0
 21 22  2  0
 22 23  1  0
 23 24  2  0
 23 25  1  0
 25 26  1  0
 26 27  1  0
 27 28  1  0
 28 29  1  0
 29 30  2  0
 11  6  1  0
 24 19  1  0
 29 25  1  0
M  END
