CVD-0002309|dock_bobby27042020.20|mol2|30|dock3
     RDKit          3D

 40 43  0  0  0  0  0  0  0  0999 V2000
   13.8224    6.5922   22.7200 C   0  0  0  0  0  0  0  0  0  0  0  0
   12.8791    5.5273   23.0706 N   0  0  0  0  0  0  0  0  0  0  0  0
   12.9523    4.3431   22.2082 C   0  0  0  0  0  0  0  0  0  0  0  0
   11.9153    3.3168   22.5821 C   0  0  0  0  0  0  0  0  0  0  0  0
   11.2003    2.5161   21.6740 C   0  0  0  0  0  0  0  0  0  0  0  0
   10.3290    1.6886   22.3569 C   0  0  0  0  0  0  0  0  0  0  0  0
    9.4090    0.7125   21.7231 C   0  0  0  0  0  0  0  0  0  0  0  0
    9.9019   -0.5817   21.5453 C   0  0  0  0  0  0  0  0  0  0  0  0
    9.1088   -1.5818   21.0085 C   0  0  0  0  0  0  0  0  0  0  0  0
    7.8115   -1.3152   20.6324 C   0  0  0  0  0  0  0  0  0  0  0  0
    7.3046   -0.0349   20.7624 C   0  0  0  0  0  0  0  0  0  0  0  0
    8.1165    0.9495   21.2743 C   0  0  0  0  0  0  0  0  0  0  0  0
    7.6025    2.1972   21.3113 F   0  0  0  0  0  0  0  0  0  0  0  0
   10.5264    1.9695   23.7382 N   0  0  0  0  0  0  0  0  0  0  0  0
   11.4894    2.9645   23.8541 C   0  0  0  0  0  0  0  0  0  0  0  0
    9.8485    1.3273   25.1552 S   0  0  0  0  0  0  0  0  0  0  0  0
    9.1251    2.3777   25.8017 O   0  0  0  0  0  0  0  0  0  0  0  0
   10.9437    0.7153   25.8415 O   0  0  0  0  0  0  0  0  0  0  0  0
    8.7533    0.0390   24.6678 C   0  0  0  0  0  0  0  0  0  0  0  0
    7.4224    0.3008   24.4029 C   0  0  0  0  0  0  0  0  0  0  0  0
    6.5626   -0.6512   24.0277 N   0  0  0  0  0  0  0  0  0  0  0  0
    7.0310   -1.8978   23.9108 C   0  0  0  0  0  0  0  0  0  0  0  0
    8.3479   -2.2588   24.1503 C   0  0  0  0  0  0  0  0  0  0  0  0
    9.2236   -1.2574   24.5384 C   0  0  0  0  0  0  0  0  0  0  0  0
    8.8281   -3.6949   23.9932 C   0  0  0  0  0  0  0  0  0  0  0  0
   10.3357   -3.8605   24.1657 C   0  0  0  0  0  0  0  0  0  0  0  0
    8.0888   -4.5850   24.9279 N   0  0  0  0  0  0  0  0  0  0  0  0
    7.5533   -5.8139   24.3486 C   0  0  0  0  0  0  0  0  0  0  0  0
    7.9499   -4.2621   26.2371 C   0  0  0  0  0  0  0  0  0  0  0  0
    8.4248   -3.2395   26.6937 O   0  0  0  0  0  0  0  0  0  0  0  0
    7.1709   -5.2052   27.1371 C   0  0  0  0  0  0  0  0  0  0  0  0
    6.4319   -4.4343   28.2239 C   0  0  0  0  0  0  0  0  0  0  0  0
    5.6894   -5.3850   29.1401 C   0  0  0  0  0  0  0  0  0  0  0  0
    6.6230   -6.3419   29.7283 N   0  0  0  0  0  0  0  0  0  0  0  0
    7.3165   -7.1426   28.7252 C   0  0  0  0  0  0  0  0  0  0  0  0
    8.0974   -6.2340   27.7815 C   0  0  0  0  0  0  0  0  0  0  0  0
    6.6728   -6.6951   31.0309 C   0  0  0  0  0  0  0  0  0  0  0  0
    7.5024   -7.4959   31.4429 O   0  0  0  0  0  0  0  0  0  0  0  0
    5.6576   -6.0705   31.9685 C   0  0  0  0  0  0  0  0  0  0  0  0
    5.7575   -6.7859   33.5826 Cl  0  0  0  0  0  0  0  0  0  0  0  0
  1  2  1  0
  2  3  1  0
  3  4  1  0
  4  5  1  0
  5  6  2  0
  6  7  1  0
  7  8  2  0
  8  9  1  0
  9 10  2  0
 10 11  1  0
 11 12  2  0
 12 13  1  0
  6 14  1  0
 14 15  1  0
 14 16  1  0
 16 17  2  0
 16 18  2  0
 16 19  1  0
 19 20  2  0
 20 21  1  0
 21 22  2  0
 22 23  1  0
 23 24  2  0
 23 25  1  0
 25 26  1  0
 25 27  1  0
 27 28  1  0
 27 29  1  0
 29 30  2  0
 29 31  1  0
 31 32  1  0
 32 33  1  0
 33 34  1  0
 34 35  1  0
 35 36  1  0
 34 37  1  0
 37 38  2  0
 37 39  1  0
 39 40  1  0
 15  4  2  0
 24 19  1  0
 36 31  1  0
 12  7  1  0
M  END
