CVD-0002591|dock_bobby27042020.91|mol2|1|dock1
     RDKit          3D

 37 40  0  0  0  0  0  0  0  0999 V2000
   14.0936    0.6273   22.3707 C   0  0  0  0  0  0  0  0  0  0  0  0
   13.9933   -0.5968   23.1696 N   0  0  0  0  0  0  0  0  0  0  0  0
   13.6411   -1.7959   22.4016 C   0  0  0  0  0  0  0  0  0  0  0  0
   12.1509   -1.9283   22.2278 C   0  0  0  0  0  0  0  0  0  0  0  0
   11.3855   -1.2618   21.2524 C   0  0  0  0  0  0  0  0  0  0  0  0
   10.0591   -1.6312   21.3703 C   0  0  0  0  0  0  0  0  0  0  0  0
    8.9016   -1.1789   20.5504 C   0  0  0  0  0  0  0  0  0  0  0  0
    7.9733   -2.0817   20.0504 C   0  0  0  0  0  0  0  0  0  0  0  0
    8.1072   -3.3836   20.3926 F   0  0  0  0  0  0  0  0  0  0  0  0
    6.9312   -1.7407   19.2231 C   0  0  0  0  0  0  0  0  0  0  0  0
    6.7902   -0.4148   18.8574 C   0  0  0  0  0  0  0  0  0  0  0  0
    7.6558    0.5396   19.3619 C   0  0  0  0  0  0  0  0  0  0  0  0
    8.6721    0.1750   20.2371 C   0  0  0  0  0  0  0  0  0  0  0  0
    9.4262    1.2280   20.7872 O   0  0  0  0  0  0  0  0  0  0  0  0
    9.7083    1.2119   22.1171 C   0  0  0  0  0  0  0  0  0  0  0  0
    9.1986    0.4496   22.9215 O   0  0  0  0  0  0  0  0  0  0  0  0
   10.7120    2.2485   22.5131 C   0  0  0  0  0  0  0  0  0  0  0  0
   11.5429    2.8153   21.5532 C   0  0  0  0  0  0  0  0  0  0  0  0
   12.4794    3.7735   21.8980 C   0  0  0  0  0  0  0  0  0  0  0  0
   12.5895    4.1735   23.2195 C   0  0  0  0  0  0  0  0  0  0  0  0
   11.7741    3.6193   24.1925 C   0  0  0  0  0  0  0  0  0  0  0  0
   10.8416    2.6616   23.8353 C   0  0  0  0  0  0  0  0  0  0  0  0
   13.7867    5.3930   23.6695 S   0  0  0  0  0  0  0  0  0  0  0  0
   13.9111    6.4479   22.4717 N   0  0  0  0  0  0  0  0  0  0  0  0
   13.2720    6.0993   24.8041 O   0  0  0  0  0  0  0  0  0  0  0  0
   15.0510    4.7298   23.7826 O   0  0  0  0  0  0  0  0  0  0  0  0
    9.9975   -2.5371   22.4583 N   0  0  0  0  0  0  0  0  0  0  0  0
   11.2779   -2.7164   22.9658 C   0  0  0  0  0  0  0  0  0  0  0  0
    8.6711   -3.3345   23.1480 S   0  0  0  0  0  0  0  0  0  0  0  0
    8.4048   -4.4691   22.3219 O   0  0  0  0  0  0  0  0  0  0  0  0
    7.6669   -2.3460   23.3906 O   0  0  0  0  0  0  0  0  0  0  0  0
    9.2594   -3.9125   24.7021 C   0  0  0  0  0  0  0  0  0  0  0  0
    9.7294   -5.2080   24.8350 C   0  0  0  0  0  0  0  0  0  0  0  0
   10.1781   -5.6228   26.0769 C   0  0  0  0  0  0  0  0  0  0  0  0
   10.1379   -4.7332   27.1268 C   0  0  0  0  0  0  0  0  0  0  0  0
    9.6861   -3.4834   27.0137 N   0  0  0  0  0  0  0  0  0  0  0  0
    9.2541   -3.0895   25.8122 C   0  0  0  0  0  0  0  0  0  0  0  0
  1  2  1  0
  2  3  1  0
  3  4  1  0
  4  5  1  0
  5  6  2  0
  6  7  1  0
  7  8  2  0
  8  9  1  0
  8 10  1  0
 10 11  2  0
 11 12  1  0
 12 13  2  0
 13 14  1  0
 14 15  1  0
 15 16  2  0
 15 17  1  0
 17 18  2  0
 18 19  1  0
 19 20  2  0
 20 21  1  0
 21 22  2  0
 20 23  1  0
 23 24  1  0
 23 25  2  0
 23 26  2  0
  6 27  1  0
 27 28  1  0
 27 29  1  0
 29 30  2  0
 29 31  2  0
 29 32  1  0
 32 33  2  0
 33 34  1  0
 34 35  2  0
 35 36  1  0
 36 37  2  0
 28  4  2  0
 37 32  1  0
 13  7  1  0
 22 17  1  0
M  END
