CVD-0001734|dock_bobby27042020.23|mol2|4|dock2
     RDKit          3D

 25 27  0  0  0  0  0  0  0  0999 V2000
    4.3888   -4.0059   24.8400 Cl  0  0  0  0  0  0  0  0  0  0  0  0
    5.6118   -4.3832   23.6591 C   0  0  0  0  0  0  0  0  0  0  0  0
    5.7152   -5.6716   23.1865 C   0  0  0  0  0  0  0  0  0  0  0  0
    6.6918   -5.9568   22.2489 C   0  0  0  0  0  0  0  0  0  0  0  0
    7.5445   -4.9632   21.7971 C   0  0  0  0  0  0  0  0  0  0  0  0
    7.4353   -3.6626   22.2761 C   0  0  0  0  0  0  0  0  0  0  0  0
    6.4534   -3.3816   23.2211 C   0  0  0  0  0  0  0  0  0  0  0  0
    8.3433   -2.6518   21.8001 N   0  0  0  0  0  0  0  0  0  0  0  0
    9.7197   -2.7285   22.3164 C   0  0  0  0  0  0  0  0  0  0  0  0
    9.9524   -1.7071   23.4186 C   0  0  0  0  0  0  0  0  0  0  0  0
   11.3648   -1.3412   23.5975 N   0  0  0  0  0  0  0  0  0  0  0  0
   11.5149   -0.2800   24.5971 C   0  0  0  0  0  0  0  0  0  0  0  0
   12.9590    0.0675   24.7512 C   0  0  0  0  0  0  0  0  0  0  0  0
   13.7285   -1.0573   25.1604 O   0  0  0  0  0  0  0  0  0  0  0  0
   13.5910   -2.0993   24.2088 C   0  0  0  0  0  0  0  0  0  0  0  0
   12.1578   -2.4956   24.0173 C   0  0  0  0  0  0  0  0  0  0  0  0
    8.1139   -1.6075   20.9004 C   0  0  0  0  0  0  0  0  0  0  0  0
    9.0762   -0.9250   20.5735 O   0  0  0  0  0  0  0  0  0  0  0  0
    6.8503   -1.3920   20.4077 N   0  0  0  0  0  0  0  0  0  0  0  0
    6.3817   -0.4204   19.4857 C   0  0  0  0  0  0  0  0  0  0  0  0
    5.1701    0.2591   19.5838 C   0  0  0  0  0  0  0  0  0  0  0  0
    4.8340    1.1909   18.6167 C   0  0  0  0  0  0  0  0  0  0  0  0
    5.7076    1.4170   17.5787 C   0  0  0  0  0  0  0  0  0  0  0  0
    6.8708    0.7792   17.4533 N   0  0  0  0  0  0  0  0  0  0  0  0
    7.1867   -0.1159   18.3935 C   0  0  0  0  0  0  0  0  0  0  0  0
  1  2  1  0
  2  3  2  0
  3  4  1  0
  4  5  2  0
  5  6  1  0
  6  7  2  0
  6  8  1  0
  8  9  1  0
  9 10  1  0
 10 11  1  0
 11 12  1  0
 12 13  1  0
 13 14  1  0
 14 15  1  0
 15 16  1  0
  8 17  1  0
 17 18  2  0
 17 19  1  0
 19 20  1  0
 20 21  2  0
 21 22  1  0
 22 23  2  0
 23 24  1  0
 24 25  2  0
  7  2  1  0
 16 11  1  0
 25 20  1  0
M  END
