CVD-0001200|dock_bobby27042020.81|mol2|45|dock2
     RDKit          3D

 27 30  0  0  0  0  0  0  0  0999 V2000
    5.7751    1.0946   17.9859 C   0  0  0  0  0  0  0  0  0  0  0  0
    6.0123    1.0496   19.4668 C   0  0  0  0  0  0  0  0  0  0  0  0
    7.0584    1.4482   19.9692 O   0  0  0  0  0  0  0  0  0  0  0  0
    5.0262    0.5354   20.2044 N   0  0  0  0  0  0  0  0  0  0  0  0
    5.1133    0.4078   21.6520 C   0  0  0  0  0  0  0  0  0  0  0  0
    5.7312   -0.9125   22.0670 C   0  0  0  0  0  0  0  0  0  0  0  0
    7.2022   -0.9874   21.7802 C   0  0  0  0  0  0  0  0  0  0  0  0
    7.8001   -1.2249   20.5779 C   0  0  0  0  0  0  0  0  0  0  0  0
    9.1615   -1.2180   20.7128 N   0  0  0  0  0  0  0  0  0  0  0  0
    9.4729   -0.9715   22.0276 C   0  0  0  0  0  0  0  0  0  0  0  0
   10.7152   -0.8667   22.6670 C   0  0  0  0  0  0  0  0  0  0  0  0
   11.8725   -1.0203   21.9453 N   0  0  0  0  0  0  0  0  0  0  0  0
   13.1348   -0.3948   22.2879 C   0  0  0  0  0  0  0  0  0  0  0  0
   13.0108    1.0789   22.5054 C   0  0  0  0  0  0  0  0  0  0  0  0
   13.9500    1.9204   22.7891 N   0  0  0  0  0  0  0  0  0  0  0  0
   13.2971    3.1455   22.8776 C   0  0  0  0  0  0  0  0  0  0  0  0
   13.7687    4.4276   23.1578 C   0  0  0  0  0  0  0  0  0  0  0  0
   12.8619    5.4784   23.1771 C   0  0  0  0  0  0  0  0  0  0  0  0
   11.5187    5.2693   22.9254 C   0  0  0  0  0  0  0  0  0  0  0  0
   11.0457    3.9972   22.6466 C   0  0  0  0  0  0  0  0  0  0  0  0
   11.9587    2.9552   22.6297 C   0  0  0  0  0  0  0  0  0  0  0  0
   11.7564    1.6124   22.3837 O   0  0  0  0  0  0  0  0  0  0  0  0
   10.7328   -0.6062   24.0342 C   0  0  0  0  0  0  0  0  0  0  0  0
    9.5372   -0.4632   24.6979 C   0  0  0  0  0  0  0  0  0  0  0  0
    9.5782   -0.2091   26.0337 F   0  0  0  0  0  0  0  0  0  0  0  0
    8.3037   -0.5601   24.1005 C   0  0  0  0  0  0  0  0  0  0  0  0
    8.2632   -0.8205   22.7322 C   0  0  0  0  0  0  0  0  0  0  0  0
  1  2  1  0
  2  3  2  0
  2  4  1  0
  4  5  1  0
  5  6  1  0
  6  7  1  0
  7  8  2  0
  8  9  1  0
  9 10  1  0
 10 11  2  0
 11 12  1  0
 12 13  1  0
 13 14  1  0
 14 15  2  0
 15 16  1  0
 16 17  2  0
 17 18  1  0
 18 19  2  0
 19 20  1  0
 20 21  2  0
 21 22  1  0
 11 23  1  0
 23 24  2  0
 24 25  1  0
 24 26  1  0
 26 27  2  0
 27  7  1  0
 27 10  1  0
 22 14  1  0
 21 16  1  0
M  END
