CVD-0000531|dock_bobby27042020.55|mol2|37|dock1
     RDKit          3D

 23 26  0  0  0  0  0  0  0  0999 V2000
    8.1887    3.7722   22.4479 C   0  0  0  0  0  0  0  0  0  0  0  0
    8.5361    2.3353   22.2165 C   0  0  0  0  0  0  0  0  0  0  0  0
    9.7981    2.0322   22.4102 N   0  0  0  0  0  0  0  0  0  0  0  0
    9.9886    0.7541   21.9240 N   0  0  0  0  0  0  0  0  0  0  0  0
    8.8013    0.2856   21.4264 C   0  0  0  0  0  0  0  0  0  0  0  0
    8.6618   -1.0297   20.9864 N   0  0  0  0  0  0  0  0  0  0  0  0
    7.5752   -1.7732   21.3121 C   0  0  0  0  0  0  0  0  0  0  0  0
    7.2126   -2.8131   20.7728 O   0  0  0  0  0  0  0  0  0  0  0  0
    6.8172   -1.2911   22.5121 C   0  0  0  0  0  0  0  0  0  0  0  0
    5.5257   -0.0393   22.1108 S   0  0  0  0  0  0  0  0  0  0  0  0
    6.4343    1.1530   21.0343 C   0  0  0  0  0  0  0  0  0  0  0  0
    5.6423    2.4608   21.0820 C   0  0  0  0  0  0  0  0  0  0  0  0
    4.2747    2.3454   20.4413 C   0  0  0  0  0  0  0  0  0  0  0  0
    4.3643    1.8213   19.0227 C   0  0  0  0  0  0  0  0  0  0  0  0
    5.0865    0.4841   18.9910 C   0  0  0  0  0  0  0  0  0  0  0  0
    6.4664    0.5906   19.6133 C   0  0  0  0  0  0  0  0  0  0  0  0
    7.8373    1.2603   21.5893 C   0  0  0  0  0  0  0  0  0  0  0  0
   11.2326    0.1503   22.3070 C   0  0  0  0  0  0  0  0  0  0  0  0
   11.3813   -1.2149   22.5273 C   0  0  0  0  0  0  0  0  0  0  0  0
   12.6164   -1.7364   22.8746 C   0  0  0  0  0  0  0  0  0  0  0  0
   13.7047   -0.9068   23.0310 C   0  0  0  0  0  0  0  0  0  0  0  0
   13.5608    0.4499   22.8420 C   0  0  0  0  0  0  0  0  0  0  0  0
   12.3330    0.9802   22.4826 C   0  0  0  0  0  0  0  0  0  0  0  0
  1  2  1  0
  2  3  2  0
  3  4  1  0
  4  5  1  0
  5  6  1  0
  6  7  1  0
  7  8  2  0
  7  9  1  0
  9 10  1  0
 10 11  1  0
 11 12  1  0
 12 13  1  0
 13 14  1  0
 14 15  1  0
 15 16  1  0
 11 17  1  0
  4 18  1  0
 18 19  2  0
 19 20  1  0
 20 21  2  0
 21 22  1  0
 22 23  2  0
 17  2  1  0
 23 18  1  0
 17  5  2  0
 16 11  1  0
M  END
