CVD-0001729|dock_bobby27042020.94|mol2|22|dock1
     RDKit          3D

 25 27  0  0  0  0  0  0  0  0999 V2000
    6.1061   -6.9662   22.3600 Cl  0  0  0  0  0  0  0  0  0  0  0  0
    6.2270   -5.2689   22.7301 C   0  0  0  0  0  0  0  0  0  0  0  0
    5.3836   -4.7244   23.6715 C   0  0  0  0  0  0  0  0  0  0  0  0
    5.4905   -3.3744   23.9545 C   0  0  0  0  0  0  0  0  0  0  0  0
    6.4290   -2.5919   23.3025 C   0  0  0  0  0  0  0  0  0  0  0  0
    7.2813   -3.1459   22.3542 C   0  0  0  0  0  0  0  0  0  0  0  0
    7.1671   -4.5036   22.0709 C   0  0  0  0  0  0  0  0  0  0  0  0
    8.2467   -2.3217   21.6732 N   0  0  0  0  0  0  0  0  0  0  0  0
    9.6606   -2.4916   22.0535 C   0  0  0  0  0  0  0  0  0  0  0  0
   10.1742   -1.2891   22.8288 C   0  0  0  0  0  0  0  0  0  0  0  0
   11.3363   -1.6034   23.6715 N   0  0  0  0  0  0  0  0  0  0  0  0
   11.7515   -0.4108   24.4203 C   0  0  0  0  0  0  0  0  0  0  0  0
   12.9248   -0.7093   25.3185 C   0  0  0  0  0  0  0  0  0  0  0  0
   14.0922   -1.2609   24.5430 C   0  0  0  0  0  0  0  0  0  0  0  0
   13.6438   -2.4443   23.7072 C   0  0  0  0  0  0  0  0  0  0  0  0
   12.4591   -2.0818   22.8526 C   0  0  0  0  0  0  0  0  0  0  0  0
    8.0178   -1.3306   20.7154 C   0  0  0  0  0  0  0  0  0  0  0  0
    8.9941   -0.7679   20.2365 O   0  0  0  0  0  0  0  0  0  0  0  0
    6.7306   -1.0360   20.3385 N   0  0  0  0  0  0  0  0  0  0  0  0
    6.2475   -0.0962   19.3913 C   0  0  0  0  0  0  0  0  0  0  0  0
    5.0787    0.6487   19.5267 C   0  0  0  0  0  0  0  0  0  0  0  0
    4.7220    1.5397   18.5291 C   0  0  0  0  0  0  0  0  0  0  0  0
    5.5328    1.6608   17.4245 C   0  0  0  0  0  0  0  0  0  0  0  0
    6.6534    0.9584   17.2627 N   0  0  0  0  0  0  0  0  0  0  0  0
    6.9900    0.1036   18.2327 C   0  0  0  0  0  0  0  0  0  0  0  0
  1  2  1  0
  2  3  2  0
  3  4  1  0
  4  5  2  0
  5  6  1  0
  6  7  2  0
  6  8  1  0
  8  9  1  0
  9 10  1  0
 10 11  1  0
 11 12  1  0
 12 13  1  0
 13 14  1  0
 14 15  1  0
 15 16  1  0
  8 17  1  0
 17 18  2  0
 17 19  1  0
 19 20  1  0
 20 21  2  0
 21 22  1  0
 22 23  2  0
 23 24  1  0
 24 25  2  0
  7  2  1  0
 16 11  1  0
 25 20  1  0
M  END
