CVD-0000076|dock_bobby27042020.28|mol2|30|dock1
     RDKit          3D

 17 18  0  0  0  0  0  0  0  0999 V2000
   14.3648   -2.1388   25.5746 C   0  0  0  0  0  0  0  0  0  0  0  0
   13.8735   -1.4283   24.3953 N   0  0  0  0  0  0  0  0  0  0  0  0
   12.9664   -0.3463   24.7896 C   0  0  0  0  0  0  0  0  0  0  0  0
   12.4920    0.4137   23.5650 C   0  0  0  0  0  0  0  0  0  0  0  0
   11.8227   -0.4917   22.6285 N   0  0  0  0  0  0  0  0  0  0  0  0
   12.6844   -1.6195   22.2606 C   0  0  0  0  0  0  0  0  0  0  0  0
   13.1648   -2.3437   23.5049 C   0  0  0  0  0  0  0  0  0  0  0  0
   10.5596   -0.2663   22.1530 C   0  0  0  0  0  0  0  0  0  0  0  0
   10.1124    0.8712   22.2157 O   0  0  0  0  0  0  0  0  0  0  0  0
    9.8560   -1.3281   21.6332 N   0  0  0  0  0  0  0  0  0  0  0  0
    8.5769   -1.3522   21.0044 C   0  0  0  0  0  0  0  0  0  0  0  0
    8.1063   -0.3830   20.1162 C   0  0  0  0  0  0  0  0  0  0  0  0
    6.8977   -0.4084   19.5457 N   0  0  0  0  0  0  0  0  0  0  0  0
    6.1019   -1.4348   19.8285 C   0  0  0  0  0  0  0  0  0  0  0  0
    6.4656   -2.4527   20.6803 C   0  0  0  0  0  0  0  0  0  0  0  0
    7.7160   -2.4309   21.2909 C   0  0  0  0  0  0  0  0  0  0  0  0
    8.0694   -3.5582   22.2273 C   0  0  0  0  0  0  0  0  0  0  0  0
  1  2  1  0
  2  3  1  0
  3  4  1  0
  4  5  1  0
  5  6  1  0
  6  7  1  0
  5  8  1  0
  8  9  2  0
  8 10  1  0
 10 11  1  0
 11 12  2  0
 12 13  1  0
 13 14  2  0
 14 15  1  0
 15 16  2  0
 16 17  1  0
  7  2  1  0
 16 11  1  0
M  END
