CVD-0000980|dock_bobby27042020.11|mol2|14|dock1
     RDKit          3D

 28 31  0  0  0  0  0  0  0  0999 V2000
   -0.8852   -6.9517   20.1047 C   0  0  0  0  0  0  0  0  0  0  0  0
    0.3157   -6.8498   21.0131 C   0  0  0  0  0  0  0  0  0  0  0  0
    0.7584   -5.6230   21.4806 C   0  0  0  0  0  0  0  0  0  0  0  0
    1.8617   -5.5273   22.3101 C   0  0  0  0  0  0  0  0  0  0  0  0
    2.5623   -6.6589   22.6985 C   0  0  0  0  0  0  0  0  0  0  0  0
    3.7636   -6.5605   23.6106 C   0  0  0  0  0  0  0  0  0  0  0  0
    4.7391   -5.5252   23.2324 N   0  0  0  0  0  0  0  0  0  0  0  0
    5.5398   -5.9632   22.0936 C   0  0  0  0  0  0  0  0  0  0  0  0
    6.4807   -4.8615   21.6379 C   0  0  0  0  0  0  0  0  0  0  0  0
    7.4114   -4.4805   22.7865 C   0  0  0  0  0  0  0  0  0  0  0  0
    6.5888   -4.0897   24.0053 C   0  0  0  0  0  0  0  0  0  0  0  0
    5.6373   -5.2242   24.3524 C   0  0  0  0  0  0  0  0  0  0  0  0
    8.4204   -3.4232   22.3923 C   0  0  0  0  0  0  0  0  0  0  0  0
    8.2268   -2.6421   21.4645 O   0  0  0  0  0  0  0  0  0  0  0  0
    9.5530   -3.4098   23.1460 N   0  0  0  0  0  0  0  0  0  0  0  0
   10.6337   -2.5823   23.0343 C   0  0  0  0  0  0  0  0  0  0  0  0
   11.8976   -2.8818   22.9969 N   0  0  0  0  0  0  0  0  0  0  0  0
   12.5804   -1.6728   22.8759 N   0  0  0  0  0  0  0  0  0  0  0  0
   11.6852   -0.7473   22.8501 C   0  0  0  0  0  0  0  0  0  0  0  0
   10.4178   -1.2437   22.9461 O   0  0  0  0  0  0  0  0  0  0  0  0
   11.8842    0.7086   22.7337 C   0  0  0  0  0  0  0  0  0  0  0  0
   10.7912    1.5642   22.7157 C   0  0  0  0  0  0  0  0  0  0  0  0
   11.0270    2.9235   22.6050 C   0  0  0  0  0  0  0  0  0  0  0  0
   12.3225    3.3847   22.5167 C   0  0  0  0  0  0  0  0  0  0  0  0
   13.3441    2.4625   22.5426 C   0  0  0  0  0  0  0  0  0  0  0  0
   13.1515    1.1408   22.6487 N   0  0  0  0  0  0  0  0  0  0  0  0
    2.1202   -7.8875   22.2330 C   0  0  0  0  0  0  0  0  0  0  0  0
    1.0166   -7.9794   21.4036 C   0  0  0  0  0  0  0  0  0  0  0  0
  1  2  1  0
  2  3  2  0
  3  4  1  0
  4  5  2  0
  5  6  1  0
  6  7  1  0
  7  8  1  0
  8  9  1  0
  9 10  1  0
 10 11  1  0
 11 12  1  0
 10 13  1  0
 13 14  2  0
 13 15  1  0
 15 16  1  0
 16 17  2  0
 17 18  1  0
 18 19  2  0
 19 20  1  0
 19 21  1  0
 21 22  2  0
 22 23  1  0
 23 24  2  0
 24 25  1  0
 25 26  2  0
  5 27  1  0
 27 28  2  0
 28  2  1  0
 12  7  1  0
 20 16  1  0
 26 21  1  0
M  END
