CVD-0003985|dock_bobby27042020.43|mol2|28|dock1
     RDKit          3D

 12 11  0  0  0  0  0  0  0  0999 V2000
   13.0555    5.5173   23.9147 O   0  0  0  0  0  0  0  0  0  0  0  0
   13.4742    4.4778   23.2417 C   0  0  0  0  0  0  0  0  0  0  0  0
   14.6292    4.3430   22.8932 O   0  0  0  0  0  0  0  0  0  0  0  0
   12.3684    3.4459   22.9342 C   0  0  0  0  0  0  0  0  0  0  0  0
   11.2260    3.8491   22.7212 O   0  0  0  0  0  0  0  0  0  0  0  0
   12.6331    2.0922   22.8934 N   0  0  0  0  0  0  0  0  0  0  0  0
   11.9135    0.9762   22.6615 C   0  0  0  0  0  0  0  0  0  0  0  0
   10.7360    0.8499   22.4035 O   0  0  0  0  0  0  0  0  0  0  0  0
   12.8621   -0.5027   22.7408 S   0  0  0  0  0  0  0  0  0  0  0  0
   11.8245   -1.6507   22.4130 O   0  0  0  0  0  0  0  0  0  0  0  0
   13.2909   -0.6887   24.0802 O   0  0  0  0  0  0  0  0  0  0  0  0
   13.8155   -0.4805   21.6907 O   0  0  0  0  0  0  0  0  0  0  0  0
  1  2  1  0
  2  3  2  0
  2  4  1  0
  4  5  2  0
  4  6  1  0
  6  7  1  0
  7  8  2  0
  7  9  1  0
  9 10  1  0
  9 11  2  0
  9 12  2  0
M  END
