CVD-0002699|dock_bobby27042020.62|mol2|14|dock2
     RDKit          3D

 34 35  0  0  0  0  0  0  0  0999 V2000
    3.9296   -5.0573   25.6691 C   0  0  0  0  0  0  0  0  0  0  0  0
    4.5580   -3.8799   24.9545 C   0  0  0  0  0  0  0  0  0  0  0  0
    4.5509   -2.7408   25.8164 O   0  0  0  0  0  0  0  0  0  0  0  0
    6.0060   -4.1732   24.5312 C   0  0  0  0  0  0  0  0  0  0  0  0
    6.0482   -5.2072   23.5087 N   0  0  0  0  0  0  0  0  0  0  0  0
    7.1821   -5.8358   23.1792 C   0  0  0  0  0  0  0  0  0  0  0  0
    7.0647   -6.8893   22.1172 C   0  0  0  0  0  0  0  0  0  0  0  0
    8.2526   -5.5795   23.7217 O   0  0  0  0  0  0  0  0  0  0  0  0
    6.6705   -2.9048   24.0073 C   0  0  0  0  0  0  0  0  0  0  0  0
    7.2681   -2.1497   24.7697 O   0  0  0  0  0  0  0  0  0  0  0  0
    6.5615   -2.6755   22.6957 N   0  0  0  0  0  0  0  0  0  0  0  0
    7.1596   -1.5189   22.0622 C   0  0  0  0  0  0  0  0  0  0  0  0
    8.6031   -1.6324   22.0837 N   0  0  0  0  0  0  0  0  0  0  0  0
    9.3137   -0.7215   21.2215 C   0  0  0  0  0  0  0  0  0  0  0  0
   10.4402   -0.0561   21.8809 N   0  0  0  0  0  0  0  0  0  0  0  0
   11.4672   -1.0079   22.3334 C   0  0  0  0  0  0  0  0  0  0  0  0
   11.4861   -1.1866   23.8524 C   0  0  0  0  0  0  0  0  0  0  0  0
   12.4191   -2.3117   24.2950 C   0  0  0  0  0  0  0  0  0  0  0  0
   13.3129   -1.7771   25.1858 C   0  0  0  0  0  0  0  0  0  0  0  0
   14.3823   -2.5139   25.9440 C   0  0  0  0  0  0  0  0  0  0  0  0
   12.9895   -0.3593   25.2483 C   0  0  0  0  0  0  0  0  0  0  0  0
   12.0162    0.0331   24.5088 N   0  0  0  0  0  0  0  0  0  0  0  0
   10.4999    1.2995   22.0374 C   0  0  0  0  0  0  0  0  0  0  0  0
    9.4936    1.9426   21.7697 O   0  0  0  0  0  0  0  0  0  0  0  0
   11.6713    1.8659   22.4817 N   0  0  0  0  0  0  0  0  0  0  0  0
   11.9825    3.2187   22.7782 C   0  0  0  0  0  0  0  0  0  0  0  0
   11.0442    4.1787   23.1556 C   0  0  0  0  0  0  0  0  0  0  0  0
   11.4444    5.4770   23.4262 C   0  0  0  0  0  0  0  0  0  0  0  0
   12.7698    5.8379   23.3265 C   0  0  0  0  0  0  0  0  0  0  0  0
   13.7050    4.8985   22.9543 C   0  0  0  0  0  0  0  0  0  0  0  0
   13.3169    3.5978   22.6816 C   0  0  0  0  0  0  0  0  0  0  0  0
    6.6784   -1.3994   20.6728 C   0  0  0  0  0  0  0  0  0  0  0  0
    6.3087   -1.2468   19.5671 C   0  0  0  0  0  0  0  0  0  0  0  0
    5.7940   -1.0352   17.8542 Br  0  0  0  0  0  0  0  0  0  0  0  0
  2  1  1  0
  2  3  1  0
  2  4  1  0
  4  5  1  0
  5  6  1  0
  6  7  1  0
  6  8  2  0
  4  9  1  0
  9 10  2  0
  9 11  1  0
 11 12  1  0
 12 13  1  0
 13 14  1  0
 14 15  1  0
 15 16  1  0
 16 17  1  0
 17 18  1  0
 18 19  2  0
 19 20  1  0
 19 21  1  0
 21 22  2  0
 15 23  1  0
 23 24  2  0
 23 25  1  0
 25 26  1  0
 26 27  2  0
 27 28  1  0
 28 29  2  0
 29 30  1  0
 30 31  2  0
 12 32  1  0
 32 33  3  0
 33 34  1  0
 22 17  1  0
 31 26  1  0
M  END
