CVD-0003145|dock_bobby27042020.46|mol2|14|dock1
     RDKit          3D

 17 18  0  0  0  0  0  0  0  0999 V2000
    8.8506    4.0601   22.9064 C   0  0  0  0  0  0  0  0  0  0  0  0
   10.0549    3.5107   22.3861 O   0  0  0  0  0  0  0  0  0  0  0  0
   11.2518    4.0388   22.9622 C   0  0  0  0  0  0  0  0  0  0  0  0
   11.4510    5.5240   22.7234 C   0  0  0  0  0  0  0  0  0  0  0  0
   12.8502    5.7742   22.6897 O   0  0  0  0  0  0  0  0  0  0  0  0
   13.5598    4.5145   22.7035 C   0  0  0  0  0  0  0  0  0  0  0  0
   12.5379    3.4366   22.3943 C   0  0  0  0  0  0  0  0  0  0  0  0
   12.8668    2.1316   22.9571 N   0  0  0  0  0  0  0  0  0  0  0  0
   12.0115    1.0967   22.8677 C   0  0  0  0  0  0  0  0  0  0  0  0
   10.9243    1.2104   22.3148 O   0  0  0  0  0  0  0  0  0  0  0  0
   12.3785   -0.1090   23.4009 N   0  0  0  0  0  0  0  0  0  0  0  0
   13.5607   -0.4949   24.1819 C   0  0  0  0  0  0  0  0  0  0  0  0
   13.1927   -1.7000   24.8500 C   0  0  0  0  0  0  0  0  0  0  0  0
   11.9386   -2.2172   24.3551 C   0  0  0  0  0  0  0  0  0  0  0  0
   11.4618   -1.2538   23.2695 C   0  0  0  0  0  0  0  0  0  0  0  0
   11.5690   -1.8246   21.8525 C   0  0  0  0  0  0  0  0  0  0  0  0
   10.7765   -1.0425   20.8777 N   0  0  0  0  0  0  0  0  0  0  0  0
  1  2  1  0
  3  2  1  0
  3  4  1  0
  4  5  1  0
  5  6  1  0
  6  7  1  0
  7  8  1  0
  8  9  1  0
  9 10  2  0
  9 11  1  0
 11 12  1  0
 12 13  1  0
 13 14  1  0
 14 15  1  0
 15 16  1  0
 16 17  1  0
  7  3  1  0
 15 11  1  0
M  END
