CVD-0000100|dock_bobby27042020.42|mol2|39|dock3
     RDKit          3D

 27 28  0  0  0  0  0  0  0  0999 V2000
   12.7985    4.4220   24.0069 C   0  0  0  0  0  0  0  0  0  0  0  0
   12.5125    4.9722   22.6204 C   0  0  0  0  0  0  0  0  0  0  0  0
   13.4973    6.0778   22.2821 C   0  0  0  0  0  0  0  0  0  0  0  0
   12.5977    3.8731   21.5998 C   0  0  0  0  0  0  0  0  0  0  0  0
   11.6947    2.7142   21.8930 C   0  0  0  0  0  0  0  0  0  0  0  0
   12.0925    1.4493   21.8588 C   0  0  0  0  0  0  0  0  0  0  0  0
   11.3600    0.2769   22.1090 N   0  0  0  0  0  0  0  0  0  0  0  0
   10.7157   -0.0530   23.2759 C   0  0  0  0  0  0  0  0  0  0  0  0
   10.7166    0.6316   24.2906 O   0  0  0  0  0  0  0  0  0  0  0  0
   10.0263   -1.2300   23.3005 N   0  0  0  0  0  0  0  0  0  0  0  0
    9.9652   -2.2457   22.2441 C   0  0  0  0  0  0  0  0  0  0  0  0
    9.3094   -1.8094   21.0367 N   0  0  0  0  0  0  0  0  0  0  0  0
    8.0448   -1.3876   21.0295 C   0  0  0  0  0  0  0  0  0  0  0  0
    7.3542   -1.3414   22.0440 O   0  0  0  0  0  0  0  0  0  0  0  0
    7.5040   -0.9644   19.6806 C   0  0  0  0  0  0  0  0  0  0  0  0
    6.8199    0.3790   19.7831 C   0  0  0  0  0  0  0  0  0  0  0  0
    6.1905    0.7766   18.4520 C   0  0  0  0  0  0  0  0  0  0  0  0
    5.2369   -0.2795   17.9572 C   0  0  0  0  0  0  0  0  0  0  0  0
    5.9089   -1.6296   17.8721 C   0  0  0  0  0  0  0  0  0  0  0  0
    6.5433   -2.0303   19.1972 C   0  0  0  0  0  0  0  0  0  0  0  0
    9.2465   -1.5822   24.4745 C   0  0  0  0  0  0  0  0  0  0  0  0
    9.7149   -2.8517   25.1124 C   0  0  0  0  0  0  0  0  0  0  0  0
    9.0779   -3.6062   26.1029 C   0  0  0  0  0  0  0  0  0  0  0  0
    9.8884   -4.6443   26.3389 C   0  0  0  0  0  0  0  0  0  0  0  0
    9.8384   -5.8229   27.2549 C   0  0  0  0  0  0  0  0  0  0  0  0
   10.9740   -4.5551   25.5471 O   0  0  0  0  0  0  0  0  0  0  0  0
   10.8453   -3.3862   24.7574 N   0  0  0  0  0  0  0  0  0  0  0  0
  1  2  1  0
  2  3  1  0
  2  4  1  0
  4  5  1  0
  5  6  2  0
  6  7  1  0
  7  8  1  0
  8  9  2  0
  8 10  1  0
 10 11  1  0
 11 12  1  0
 12 13  1  0
 13 14  2  0
 13 15  1  0
 15 16  1  0
 16 17  1  0
 17 18  1  0
 18 19  1  0
 19 20  1  0
 10 21  1  0
 21 22  1  0
 22 23  1  0
 23 24  2  0
 24 25  1  0
 24 26  1  0
 26 27  1  0
 20 15  1  0
 27 22  2  0
M  END
