CVD-0003391|dock_bobby27042020.16|mol2|40|dock2
     RDKit          3D

 20 22  0  0  0  0  0  0  0  0999 V2000
    9.2841    0.0447   23.2444 O   0  0  0  0  0  0  0  0  0  0  0  0
    9.4729   -0.5399   22.1835 C   0  0  0  0  0  0  0  0  0  0  0  0
   10.7829   -1.2344   21.8740 C   0  0  0  0  0  0  0  0  0  0  0  0
   11.8706   -1.1209   22.9499 C   0  0  0  0  0  0  0  0  0  0  0  0
   13.2475   -1.5427   22.3971 C   0  0  0  0  0  0  0  0  0  0  0  0
   14.3393   -1.5099   23.4649 C   0  0  0  0  0  0  0  0  0  0  0  0
   13.9514   -2.3419   24.6803 C   0  0  0  0  0  0  0  0  0  0  0  0
   12.6071   -1.9010   25.2415 C   0  0  0  0  0  0  0  0  0  0  0  0
   11.5150   -1.9744   24.1792 C   0  0  0  0  0  0  0  0  0  0  0  0
    8.5722   -0.6461   21.1757 N   0  0  0  0  0  0  0  0  0  0  0  0
    7.2504   -0.1628   21.0313 C   0  0  0  0  0  0  0  0  0  0  0  0
    6.3412   -0.1032   22.0831 C   0  0  0  0  0  0  0  0  0  0  0  0
    5.0889    0.3509   21.9618 N   0  0  0  0  0  0  0  0  0  0  0  0
    4.6710    0.7721   20.7831 C   0  0  0  0  0  0  0  0  0  0  0  0
    5.4801    0.7706   19.6295 C   0  0  0  0  0  0  0  0  0  0  0  0
    4.9738    1.2243   18.4408 N   0  0  0  0  0  0  0  0  0  0  0  0
    5.8058    1.1828   17.4230 C   0  0  0  0  0  0  0  0  0  0  0  0
    7.0672    0.7603   17.3976 N   0  0  0  0  0  0  0  0  0  0  0  0
    7.5559    0.3229   18.5430 C   0  0  0  0  0  0  0  0  0  0  0  0
    6.8078    0.2921   19.7456 C   0  0  0  0  0  0  0  0  0  0  0  0
  1  2  2  0
  2  3  1  0
  3  4  1  0
  4  5  1  0
  5  6  1  0
  6  7  1  0
  7  8  1  0
  8  9  1  0
  2 10  1  0
 10 11  1  0
 11 12  2  0
 12 13  1  0
 13 14  2  0
 14 15  1  0
 15 16  2  0
 16 17  1  0
 17 18  2  0
 18 19  1  0
 19 20  2  0
  9  4  1  0
 20 11  1  0
 20 15  1  0
M  END
