CVD-0002493|dock_bobby27042020.5|mol2|27|dock2
     RDKit          3D

 27 28  0  0  0  0  0  0  0  0999 V2000
   13.9099    6.1220   21.9640 C   0  0  0  0  0  0  0  0  0  0  0  0
   13.1311    4.8682   22.2114 C   0  0  0  0  0  0  0  0  0  0  0  0
   11.7061    5.0891   21.9487 N   0  0  0  0  0  0  0  0  0  0  0  0
   10.7028    4.5244   22.7912 C   0  0  0  0  0  0  0  0  0  0  0  0
   10.5391    3.0386   22.7125 C   0  0  0  0  0  0  0  0  0  0  0  0
   11.7936    2.3896   22.9674 O   0  0  0  0  0  0  0  0  0  0  0  0
   11.9521    1.0471   22.7277 C   0  0  0  0  0  0  0  0  0  0  0  0
   13.2375    0.5334   22.7237 C   0  0  0  0  0  0  0  0  0  0  0  0
   13.4331   -0.8163   22.4859 C   0  0  0  0  0  0  0  0  0  0  0  0
   12.3503   -1.6457   22.2521 C   0  0  0  0  0  0  0  0  0  0  0  0
   11.0611   -1.1383   22.2497 C   0  0  0  0  0  0  0  0  0  0  0  0
    9.8791   -2.0431   21.9970 C   0  0  0  0  0  0  0  0  0  0  0  0
    9.0990   -2.3328   23.2087 N   0  0  0  0  0  0  0  0  0  0  0  0
    9.9492   -2.9510   24.2303 C   0  0  0  0  0  0  0  0  0  0  0  0
    9.1489   -3.2102   25.4931 C   0  0  0  0  0  0  0  0  0  0  0  0
    7.9998   -4.0705   25.2030 N   0  0  0  0  0  0  0  0  0  0  0  0
    7.1602   -3.5077   24.1408 C   0  0  0  0  0  0  0  0  0  0  0  0
    7.9918   -3.2343   22.9007 C   0  0  0  0  0  0  0  0  0  0  0  0
    7.7569   -5.2218   25.8728 C   0  0  0  0  0  0  0  0  0  0  0  0
    6.7910   -5.9252   25.6041 O   0  0  0  0  0  0  0  0  0  0  0  0
    8.7081   -5.6285   26.9821 C   0  0  0  0  0  0  0  0  0  0  0  0
   10.3016   -6.0809   26.3628 Cl  0  0  0  0  0  0  0  0  0  0  0  0
   10.8661    0.2164   22.4882 C   0  0  0  0  0  0  0  0  0  0  0  0
    9.4007    5.0235   22.5320 O   0  0  0  0  0  0  0  0  0  0  0  0
    9.1597    6.4303   22.6380 C   0  0  0  0  0  0  0  0  0  0  0  0
    7.9827    6.9604   21.9374 C   0  0  0  0  0  0  0  0  0  0  0  0
    7.0929    7.3779   21.3677 N   0  0  0  0  0  0  0  0  0  0  0  0
  1  2  1  0
  2  3  1  0
  3  4  1  0
  4  5  1  0
  5  6  1  0
  6  7  1  0
  7  8  2  0
  8  9  1  0
  9 10  2  0
 10 11  1  0
 11 12  1  0
 12 13  1  0
 13 14  1  0
 14 15  1  0
 15 16  1  0
 16 17  1  0
 17 18  1  0
 16 19  1  0
 19 20  2  0
 19 21  1  0
 21 22  1  0
 11 23  2  0
  4 24  1  0
 24 25  1  0
 25 26  1  0
 26 27  3  0
 23  7  1  0
 18 13  1  0
M  END
