CVD-0002615|dock_bobby27042020.33|mol2|33|dock1
     RDKit          3D

 25 27  0  0  0  0  0  0  0  0999 V2000
   13.6338   -2.1749   25.4411 C   0  0  0  0  0  0  0  0  0  0  0  0
   12.9392   -1.8061   24.1329 C   0  0  0  0  0  0  0  0  0  0  0  0
   13.4162   -0.4736   23.5985 C   0  0  0  0  0  0  0  0  0  0  0  0
   12.7156   -0.1492   22.2822 C   0  0  0  0  0  0  0  0  0  0  0  0
   11.2079   -0.1652   22.4157 C   0  0  0  0  0  0  0  0  0  0  0  0
   10.8255    0.9339   23.2530 O   0  0  0  0  0  0  0  0  0  0  0  0
   10.5483    2.1610   22.5749 C   0  0  0  0  0  0  0  0  0  0  0  0
   11.7793    3.0178   22.5531 C   0  0  0  0  0  0  0  0  0  0  0  0
   12.3021    3.6599   21.4041 C   0  0  0  0  0  0  0  0  0  0  0  0
   13.4364    4.3800   21.6289 C   0  0  0  0  0  0  0  0  0  0  0  0
   13.8696    4.2699   23.2677 S   0  0  0  0  0  0  0  0  0  0  0  0
   12.5492    3.2682   23.6479 C   0  0  0  0  0  0  0  0  0  0  0  0
   10.6791   -1.4540   23.0353 C   0  0  0  0  0  0  0  0  0  0  0  0
    9.1635   -1.4186   23.2318 C   0  0  0  0  0  0  0  0  0  0  0  0
    8.5678   -2.6640   23.7353 N   0  0  0  0  0  0  0  0  0  0  0  0
    7.3015   -2.3865   24.4196 C   0  0  0  0  0  0  0  0  0  0  0  0
    6.7114   -3.6702   24.9732 C   0  0  0  0  0  0  0  0  0  0  0  0
    6.5030   -4.6428   23.8981 N   0  0  0  0  0  0  0  0  0  0  0  0
    7.7408   -4.8972   23.1545 C   0  0  0  0  0  0  0  0  0  0  0  0
    8.3217   -3.5941   22.6363 C   0  0  0  0  0  0  0  0  0  0  0  0
    5.3080   -5.2365   23.6664 C   0  0  0  0  0  0  0  0  0  0  0  0
    4.3280   -4.9915   24.3587 O   0  0  0  0  0  0  0  0  0  0  0  0
    5.1970   -6.2177   22.5149 C   0  0  0  0  0  0  0  0  0  0  0  0
    3.5564   -6.8637   22.3805 Cl  0  0  0  0  0  0  0  0  0  0  0  0
   11.4366   -1.8009   24.3190 C   0  0  0  0  0  0  0  0  0  0  0  0
  1  2  1  0
  2  3  1  0
  3  4  1  0
  4  5  1  0
  5  6  1  0
  6  7  1  0
  7  8  1  0
  8  9  1  0
  9 10  2  0
 10 11  1  0
 11 12  1  0
  5 13  1  0
 13 14  1  0
 14 15  1  0
 15 16  1  0
 16 17  1  0
 17 18  1  0
 18 19  1  0
 19 20  1  0
 18 21  1  0
 21 22  2  0
 21 23  1  0
 23 24  1  0
 13 25  1  0
 25  2  1  0
 12  8  2  0
 20 15  1  0
M  END
