CVD-0002640|dock_bobby27042020.76|mol2|29|dock3
     RDKit          3D

 23 24  0  0  0  0  0  0  0  0999 V2000
    7.1631   -3.9750   21.9613 C   0  0  0  0  0  0  0  0  0  0  0  0
    6.4366   -3.3211   20.8227 C   0  0  0  0  0  0  0  0  0  0  0  0
    5.5835   -3.9314   20.1877 O   0  0  0  0  0  0  0  0  0  0  0  0
    6.8074   -2.0323   20.6047 N   0  0  0  0  0  0  0  0  0  0  0  0
    6.3544   -1.0793   19.6514 C   0  0  0  0  0  0  0  0  0  0  0  0
    5.9613   -1.4018   18.3528 C   0  0  0  0  0  0  0  0  0  0  0  0
    5.5459   -0.5035   17.4544 N   0  0  0  0  0  0  0  0  0  0  0  0
    5.5220    0.7747   17.8223 C   0  0  0  0  0  0  0  0  0  0  0  0
    5.8835    1.2054   19.0796 C   0  0  0  0  0  0  0  0  0  0  0  0
    6.2949    0.2747   20.0277 C   0  0  0  0  0  0  0  0  0  0  0  0
    6.6323    0.8008   21.4072 C   0  0  0  0  0  0  0  0  0  0  0  0
    8.0814    1.2185   21.6328 C   0  0  0  0  0  0  0  0  0  0  0  0
    8.5146    1.3381   23.0812 C   0  0  0  0  0  0  0  0  0  0  0  0
    9.8824    0.8506   23.2797 N   0  0  0  0  0  0  0  0  0  0  0  0
   10.9840    1.5565   23.1311 C   0  0  0  0  0  0  0  0  0  0  0  0
   11.0157    2.8412   22.7539 N   0  0  0  0  0  0  0  0  0  0  0  0
   12.1816    0.9938   23.3630 N   0  0  0  0  0  0  0  0  0  0  0  0
   12.3846   -0.3921   23.7842 C   0  0  0  0  0  0  0  0  0  0  0  0
   12.9841   -0.4611   25.2036 C   0  0  0  0  0  0  0  0  0  0  0  0
   13.2755   -1.8943   25.6443 C   0  0  0  0  0  0  0  0  0  0  0  0
   14.1577   -2.6167   24.6342 C   0  0  0  0  0  0  0  0  0  0  0  0
   13.5463   -2.5733   23.2411 C   0  0  0  0  0  0  0  0  0  0  0  0
   13.2951   -1.1371   22.7932 C   0  0  0  0  0  0  0  0  0  0  0  0
  1  2  1  0
  2  3  2  0
  2  4  1  0
  4  5  1  0
  5  6  2  0
  6  7  1  0
  7  8  2  0
  8  9  1  0
  9 10  2  0
 10 11  1  0
 11 12  1  0
 12 13  1  0
 13 14  1  0
 14 15  2  0
 15 16  1  0
 15 17  1  0
 17 18  1  0
 18 19  1  0
 19 20  1  0
 20 21  1  0
 21 22  1  0
 22 23  1  0
 10  5  1  0
 23 18  1  0
M  END
