CVD-0002244|dock_bobby27042020.92|mol2|15|dock2
     RDKit          3D

 43 48  0  0  0  0  0  0  0  0999 V2000
    5.6454   -0.1223   26.0085 C   0  0  0  0  0  0  0  0  0  0  0  0
    6.3905    1.1372   25.9160 N   0  0  0  0  0  0  0  0  0  0  0  0
    7.6929    1.0826   25.3486 C   0  0  0  0  0  0  0  0  0  0  0  0
    8.7041    0.2474   26.5481 Cl  0  0  0  0  0  0  0  0  0  0  0  0
    8.2223    2.4764   25.1244 C   0  0  0  0  0  0  0  0  0  0  0  0
    7.4482    3.3960   25.3115 O   0  0  0  0  0  0  0  0  0  0  0  0
    9.4961    2.7371   24.7435 N   0  0  0  0  0  0  0  0  0  0  0  0
   10.4539    1.6576   24.3984 C   0  0  0  0  0  0  0  0  0  0  0  0
   11.2060    1.9804   23.1501 C   0  0  0  0  0  0  0  0  0  0  0  0
   12.1695    0.8456   22.8238 C   0  0  0  0  0  0  0  0  0  0  0  0
   11.9543    0.0184   21.7298 C   0  0  0  0  0  0  0  0  0  0  0  0
   12.8344   -1.0094   21.4348 C   0  0  0  0  0  0  0  0  0  0  0  0
   13.9394   -1.2248   22.2300 C   0  0  0  0  0  0  0  0  0  0  0  0
   14.1653   -0.4121   23.3200 C   0  0  0  0  0  0  0  0  0  0  0  0
   13.2870    0.6173   23.6146 C   0  0  0  0  0  0  0  0  0  0  0  0
   11.9291    3.2929   23.3157 C   0  0  0  0  0  0  0  0  0  0  0  0
   13.1784    3.5142   22.7345 C   0  0  0  0  0  0  0  0  0  0  0  0
   13.8408    4.7213   22.8728 C   0  0  0  0  0  0  0  0  0  0  0  0
   13.2615    5.7365   23.6003 C   0  0  0  0  0  0  0  0  0  0  0  0
   12.0238    5.5378   24.1846 C   0  0  0  0  0  0  0  0  0  0  0  0
   11.3508    4.3273   24.0504 C   0  0  0  0  0  0  0  0  0  0  0  0
   10.0087    4.1217   24.7583 C   0  0  0  0  0  0  0  0  0  0  0  0
    7.6353    0.2818   24.0658 C   0  0  0  0  0  0  0  0  0  0  0  0
    6.8747    0.6135   22.9207 C   0  0  0  0  0  0  0  0  0  0  0  0
    7.0392   -0.3447   21.9394 C   0  0  0  0  0  0  0  0  0  0  0  0
    6.3831   -0.3281   20.6092 C   0  0  0  0  0  0  0  0  0  0  0  0
    7.0971   -0.8968   19.5527 C   0  0  0  0  0  0  0  0  0  0  0  0
    6.5527   -0.9741   18.2819 C   0  0  0  0  0  0  0  0  0  0  0  0
    5.2905   -0.4828   18.0339 C   0  0  0  0  0  0  0  0  0  0  0  0
    4.5715    0.1184   19.0512 C   0  0  0  0  0  0  0  0  0  0  0  0
    5.1398    0.2071   20.2999 C   0  0  0  0  0  0  0  0  0  0  0  0
    4.4325    0.8673   21.2416 F   0  0  0  0  0  0  0  0  0  0  0  0
    7.9524   -1.2937   22.4758 N   0  0  0  0  0  0  0  0  0  0  0  0
    8.2970   -0.8997   23.7634 C   0  0  0  0  0  0  0  0  0  0  0  0
    8.6474   -2.7096   21.8489 S   0  0  0  0  0  0  0  0  0  0  0  0
    7.5458   -3.4643   21.3375 O   0  0  0  0  0  0  0  0  0  0  0  0
    9.6915   -2.3137   20.9557 O   0  0  0  0  0  0  0  0  0  0  0  0
    9.3167   -3.6146   23.2016 C   0  0  0  0  0  0  0  0  0  0  0  0
    8.5634   -4.5862   23.8377 C   0  0  0  0  0  0  0  0  0  0  0  0
    9.1317   -5.2733   24.8964 C   0  0  0  0  0  0  0  0  0  0  0  0
   10.4202   -4.9659   25.2707 C   0  0  0  0  0  0  0  0  0  0  0  0
   11.1587   -4.0350   24.6650 N   0  0  0  0  0  0  0  0  0  0  0  0
   10.6036   -3.3744   23.6448 C   0  0  0  0  0  0  0  0  0  0  0  0
  1  2  1  0
  2  3  1  0
  3  4  1  0
  3  5  1  0
  5  6  2  0
  5  7  1  0
  7  8  1  0
  8  9  1  0
  9 10  1  0
 10 11  2  0
 11 12  1  0
 12 13  2  0
 13 14  1  0
 14 15  2  0
  9 16  1  0
 16 17  2  0
 17 18  1  0
 18 19  2  0
 19 20  1  0
 20 21  2  0
 21 22  1  0
  3 23  1  0
 23 24  1  0
 24 25  2  0
 25 26  1  0
 26 27  2  0
 27 28  1  0
 28 29  2  0
 29 30  1  0
 30 31  2  0
 31 32  1  0
 25 33  1  0
 33 34  1  0
 33 35  1  0
 35 36  2  0
 35 37  2  0
 35 38  1  0
 38 39  2  0
 39 40  1  0
 40 41  2  0
 41 42  1  0
 42 43  2  0
 22  7  1  0
 34 23  2  0
 43 38  1  0
 15 10  1  0
 21 16  1  0
 31 26  1  0
M  END
