CVD-0002192|dock_bobby27042020.21|mol2|14|dock3
     RDKit          3D

 22 24  0  0  0  0  0  0  0  0999 V2000
    5.8133   -0.3577   17.9724 F   0  0  0  0  0  0  0  0  0  0  0  0
    5.6797   -1.1582   19.0468 C   0  0  0  0  0  0  0  0  0  0  0  0
    6.8553   -1.0793   19.8378 N   0  0  0  0  0  0  0  0  0  0  0  0
    7.1630   -2.0385   20.7269 C   0  0  0  0  0  0  0  0  0  0  0  0
    6.2378   -2.9982   20.9273 N   0  0  0  0  0  0  0  0  0  0  0  0
    6.5188   -3.9666   21.8062 C   0  0  0  0  0  0  0  0  0  0  0  0
    7.7090   -4.0348   22.5202 C   0  0  0  0  0  0  0  0  0  0  0  0
    8.6550   -3.0391   22.3057 C   0  0  0  0  0  0  0  0  0  0  0  0
    8.4011   -2.0143   21.4017 C   0  0  0  0  0  0  0  0  0  0  0  0
    9.4490   -0.9383   21.1800 C   0  0  0  0  0  0  0  0  0  0  0  0
   10.6869   -1.0895   22.0403 C   0  0  0  0  0  0  0  0  0  0  0  0
   11.8439   -1.6627   21.5287 C   0  0  0  0  0  0  0  0  0  0  0  0
   12.9785   -1.8067   22.3113 C   0  0  0  0  0  0  0  0  0  0  0  0
   12.9667   -1.3724   23.6325 C   0  0  0  0  0  0  0  0  0  0  0  0
   14.0407   -1.4082   24.6802 C   0  0  0  0  0  0  0  0  0  0  0  0
   13.3669   -0.7928   25.8031 N   0  0  0  0  0  0  0  0  0  0  0  0
   12.0931   -0.4331   25.5610 C   0  0  0  0  0  0  0  0  0  0  0  0
   11.3461    0.1081   26.3699 O   0  0  0  0  0  0  0  0  0  0  0  0
   11.8206   -0.7997   24.1541 C   0  0  0  0  0  0  0  0  0  0  0  0
   10.6822   -0.6573   23.3628 C   0  0  0  0  0  0  0  0  0  0  0  0
    7.9602   -5.1029   23.4559 C   0  0  0  0  0  0  0  0  0  0  0  0
    8.1910   -5.9496   24.1873 N   0  0  0  0  0  0  0  0  0  0  0  0
  1  2  1  0
  2  3  1  0
  3  4  1  0
  4  5  2  0
  5  6  1  0
  6  7  2  0
  7  8  1  0
  8  9  2  0
  9 10  1  0
 10 11  1  0
 11 12  2  0
 12 13  1  0
 13 14  2  0
 14 15  1  0
 15 16  1  0
 16 17  1  0
 17 18  2  0
 17 19  1  0
 19 20  2  0
  7 21  1  0
 21 22  3  0
  9  4  1  0
 20 11  1  0
 19 14  1  0
M  END
