CVD-0001405|dock_bobby27042020.52|mol2|40|dock3
     RDKit          3D

 18 19  0  0  0  0  0  0  0  0999 V2000
    4.5254    1.5191   19.0546 Cl  0  0  0  0  0  0  0  0  0  0  0  0
    5.6044    0.4702   18.1254 C   0  0  0  0  0  0  0  0  0  0  0  0
    6.1301   -0.6940   18.9360 C   0  0  0  0  0  0  0  0  0  0  0  0
    5.6864   -1.8240   18.7623 O   0  0  0  0  0  0  0  0  0  0  0  0
    7.0886   -0.3436   19.8282 N   0  0  0  0  0  0  0  0  0  0  0  0
    7.8226   -1.1103   20.7674 C   0  0  0  0  0  0  0  0  0  0  0  0
    7.3504   -2.3046   21.3054 C   0  0  0  0  0  0  0  0  0  0  0  0
    8.1181   -3.0050   22.2196 C   0  0  0  0  0  0  0  0  0  0  0  0
    9.3577   -2.5290   22.6077 C   0  0  0  0  0  0  0  0  0  0  0  0
    9.8353   -1.3400   22.0755 C   0  0  0  0  0  0  0  0  0  0  0  0
    9.0698   -0.6313   21.1573 C   0  0  0  0  0  0  0  0  0  0  0  0
   11.1254   -0.8169   22.4597 N   0  0  0  0  0  0  0  0  0  0  0  0
   11.4299    0.5768   22.8446 C   0  0  0  0  0  0  0  0  0  0  0  0
   12.5053    0.4394   23.9264 C   0  0  0  0  0  0  0  0  0  0  0  0
   13.5089   -0.5723   23.3925 C   0  0  0  0  0  0  0  0  0  0  0  0
   12.5266   -1.7028   22.4121 S   0  0  0  0  0  0  0  0  0  0  0  0
   13.0142   -1.7454   21.0702 O   0  0  0  0  0  0  0  0  0  0  0  0
   12.3627   -2.9475   23.0935 O   0  0  0  0  0  0  0  0  0  0  0  0
  1  2  1  0
  2  3  1  0
  3  4  2  0
  3  5  1  0
  5  6  1  0
  6  7  2  0
  7  8  1  0
  8  9  2  0
  9 10  1  0
 10 11  2  0
 10 12  1  0
 12 13  1  0
 13 14  1  0
 14 15  1  0
 15 16  1  0
 16 17  2  0
 16 18  2  0
 11  6  1  0
 16 12  1  0
M  END
