CVD-0002468|dock_bobby27042020.20|mol2|6|dock3
     RDKit          3D

 45 50  0  0  0  0  0  0  0  0999 V2000
    1.9767   -5.7235   23.1081 C   0  0  0  0  0  0  0  0  0  0  0  0
    3.3642   -6.0432   23.4392 N   0  0  0  0  0  0  0  0  0  0  0  0
    3.4312   -6.7965   24.6949 C   0  0  0  0  0  0  0  0  0  0  0  0
    4.8694   -7.1611   25.0126 C   0  0  0  0  0  0  0  0  0  0  0  0
    5.6954   -5.9549   25.1014 N   0  0  0  0  0  0  0  0  0  0  0  0
    5.6026   -5.1474   23.8811 C   0  0  0  0  0  0  0  0  0  0  0  0
    4.1525   -4.8209   23.5740 C   0  0  0  0  0  0  0  0  0  0  0  0
    6.4576   -5.6682   26.1761 C   0  0  0  0  0  0  0  0  0  0  0  0
    6.5132   -6.4071   27.1511 O   0  0  0  0  0  0  0  0  0  0  0  0
    7.2625   -4.3799   26.1305 C   0  0  0  0  0  0  0  0  0  0  0  0
    8.1601   -4.3975   25.0239 O   0  0  0  0  0  0  0  0  0  0  0  0
    8.8971   -3.2847   24.6985 C   0  0  0  0  0  0  0  0  0  0  0  0
    9.1037   -2.2526   25.5999 C   0  0  0  0  0  0  0  0  0  0  0  0
    9.8532   -1.1511   25.2257 C   0  0  0  0  0  0  0  0  0  0  0  0
   10.4150   -1.0465   23.9561 C   0  0  0  0  0  0  0  0  0  0  0  0
   10.1908   -2.0951   23.0685 C   0  0  0  0  0  0  0  0  0  0  0  0
    9.4404   -3.1997   23.4293 C   0  0  0  0  0  0  0  0  0  0  0  0
   11.2234    0.1391   23.5612 C   0  0  0  0  0  0  0  0  0  0  0  0
   12.6028    0.0488   23.3959 C   0  0  0  0  0  0  0  0  0  0  0  0
   13.3543    1.1505   23.0303 C   0  0  0  0  0  0  0  0  0  0  0  0
   12.7489    2.3859   22.8116 C   0  0  0  0  0  0  0  0  0  0  0  0
   13.5672    3.5522   22.4178 C   0  0  0  0  0  0  0  0  0  0  0  0
   14.7819    3.4580   22.2795 O   0  0  0  0  0  0  0  0  0  0  0  0
   12.8528    4.8372   22.1985 C   0  0  0  0  0  0  0  0  0  0  0  0
   13.7204    6.0078   21.8028 C   0  0  0  0  0  0  0  0  0  0  0  0
   13.7059    7.1438   22.7789 C   0  0  0  0  0  0  0  0  0  0  0  0
   13.0731    7.1373   23.9316 C   0  0  0  0  0  0  0  0  0  0  0  0
   13.1111    8.2174   24.7649 O   0  0  0  0  0  0  0  0  0  0  0  0
   12.3597    8.0840   26.0103 C   0  0  0  0  0  0  0  0  0  0  0  0
   12.0963    9.4087   26.7160 C   0  0  0  0  0  0  0  0  0  0  0  0
   11.4364    9.2300   28.0691 C   0  0  0  0  0  0  0  0  0  0  0  0
   12.2229    8.3562   28.9479 N   0  0  0  0  0  0  0  0  0  0  0  0
   11.5940    8.2406   30.2655 C   0  0  0  0  0  0  0  0  0  0  0  0
   12.3764    7.3960   31.2391 C   0  0  0  0  0  0  0  0  0  0  0  0
   11.8132    6.4225   32.1004 C   0  0  0  0  0  0  0  0  0  0  0  0
   12.7133    5.7856   32.9001 C   0  0  0  0  0  0  0  0  0  0  0  0
   14.2730    6.3846   32.5964 S   0  0  0  0  0  0  0  0  0  0  0  0
   13.7245    7.4772   31.4148 C   0  0  0  0  0  0  0  0  0  0  0  0
   12.3736    7.0431   28.3154 C   0  0  0  0  0  0  0  0  0  0  0  0
   13.0881    7.1592   26.9792 C   0  0  0  0  0  0  0  0  0  0  0  0
   11.5233    4.9125   22.3618 C   0  0  0  0  0  0  0  0  0  0  0  0
   10.6932    3.7977   22.7450 C   0  0  0  0  0  0  0  0  0  0  0  0
    9.4704    3.9157   22.8813 O   0  0  0  0  0  0  0  0  0  0  0  0
   11.3624    2.5005   22.9707 C   0  0  0  0  0  0  0  0  0  0  0  0
   10.6203    1.3799   23.3445 C   0  0  0  0  0  0  0  0  0  0  0  0
  1  2  1  0
  2  3  1  0
  3  4  1  0
  4  5  1  0
  5  6  1  0
  6  7  1  0
  5  8  1  0
  8  9  2  0
  8 10  1  0
 10 11  1  0
 11 12  1  0
 12 13  2  0
 13 14  1  0
 14 15  2  0
 15 16  1  0
 16 17  2  0
 15 18  1  0
 18 19  2  0
 19 20  1  0
 20 21  2  0
 21 22  1  0
 22 23  2  0
 22 24  1  0
 24 25  1  0
 25 26  1  0
 26 27  2  0
 27 28  1  0
 28 29  1  0
 29 30  1  0
 30 31  1  0
 31 32  1  0
 32 33  1  0
 33 34  1  0
 34 35  1  0
 35 36  2  0
 36 37  1  0
 37 38  1  0
 32 39  1  0
 39 40  1  0
 24 41  2  0
 41 42  1  0
 42 43  2  0
 42 44  1  0
 44 45  2  0
  7  2  1  0
 17 12  1  0
 45 18  1  0
 44 21  1  0
 40 29  1  0
 38 34  2  0
M  END
