CVD-0002546|dock_bobby27042020.19|mol2|26|dock1
     RDKit          3D

 32 33  0  0  0  0  0  0  0  0999 V2000
   12.6356    6.0811   24.0341 C   0  0  0  0  0  0  0  0  0  0  0  0
   13.8260    5.5491   22.8650 S   0  0  0  0  0  0  0  0  0  0  0  0
   14.6727    4.5871   23.5001 O   0  0  0  0  0  0  0  0  0  0  0  0
   14.4268    6.7097   22.2838 O   0  0  0  0  0  0  0  0  0  0  0  0
   13.0462    4.7856   21.6904 N   0  0  0  0  0  0  0  0  0  0  0  0
   13.0504    3.3180   21.6533 C   0  0  0  0  0  0  0  0  0  0  0  0
   11.9961    2.7426   22.5837 C   0  0  0  0  0  0  0  0  0  0  0  0
   11.9794    1.2280   22.6046 C   0  0  0  0  0  0  0  0  0  0  0  0
   13.1112    0.6194   23.1416 C   0  0  0  0  0  0  0  0  0  0  0  0
   13.2238   -0.7545   23.2335 C   0  0  0  0  0  0  0  0  0  0  0  0
   12.2000   -1.5497   22.7766 C   0  0  0  0  0  0  0  0  0  0  0  0
   11.0656   -0.9771   22.2281 C   0  0  0  0  0  0  0  0  0  0  0  0
   10.9218    0.4137   22.1427 C   0  0  0  0  0  0  0  0  0  0  0  0
    9.6488    0.9794   21.5584 C   0  0  0  0  0  0  0  0  0  0  0  0
    9.2531    0.6207   20.4537 O   0  0  0  0  0  0  0  0  0  0  0  0
    8.9468    1.8859   22.2646 N   0  0  0  0  0  0  0  0  0  0  0  0
    7.7090    2.4883   21.7842 C   0  0  0  0  0  0  0  0  0  0  0  0
    6.4944    1.6106   22.1294 C   0  0  0  0  0  0  0  0  0  0  0  0
    6.2751    0.4862   21.1466 C   0  0  0  0  0  0  0  0  0  0  0  0
    5.7801    0.7393   19.8768 C   0  0  0  0  0  0  0  0  0  0  0  0
    5.5736   -0.2869   18.9721 C   0  0  0  0  0  0  0  0  0  0  0  0
    5.8627   -1.5932   19.3325 C   0  0  0  0  0  0  0  0  0  0  0  0
    5.6619   -2.6099   18.4450 O   0  0  0  0  0  0  0  0  0  0  0  0
    6.3569   -1.8615   20.5988 C   0  0  0  0  0  0  0  0  0  0  0  0
    6.5585   -0.8256   21.4936 C   0  0  0  0  0  0  0  0  0  0  0  0
    7.4995    3.9091   22.3072 C   0  0  0  0  0  0  0  0  0  0  0  0
    6.5133    4.2017   22.9786 O   0  0  0  0  0  0  0  0  0  0  0  0
    8.4434    4.7968   21.9948 N   0  0  0  0  0  0  0  0  0  0  0  0
    8.3606    6.1836   22.4334 C   0  0  0  0  0  0  0  0  0  0  0  0
    7.4292    6.9781   21.6240 C   0  0  0  0  0  0  0  0  0  0  0  0
    6.6756    7.6606   21.0136 C   0  0  0  0  0  0  0  0  0  0  0  0
    5.5353    8.7402   20.1317 Br  0  0  0  0  0  0  0  0  0  0  0  0
  1  2  1  0
  2  3  2  0
  2  4  2  0
  2  5  1  0
  5  6  1  0
  6  7  1  0
  7  8  1  0
  8  9  2  0
  9 10  1  0
 10 11  2  0
 11 12  1  0
 12 13  2  0
 13 14  1  0
 14 15  2  0
 14 16  1  0
 16 17  1  0
 17 18  1  0
 18 19  1  0
 19 20  2  0
 20 21  1  0
 21 22  2  0
 22 23  1  0
 22 24  1  0
 24 25  2  0
 17 26  1  0
 26 27  2  0
 26 28  1  0
 28 29  1  0
 29 30  1  0
 30 31  3  0
 31 32  1  0
 13  8  1  0
 25 19  1  0
M  END
