CVD-0003469|dock_bobby27042020.2|mol2|4|dock2
     RDKit          3D

 28 30  0  0  0  0  0  0  0  0999 V2000
    6.9672   -6.1156   28.5679 C   0  0  0  0  0  0  0  0  0  0  0  0
    6.6933   -5.2410   27.4290 N   0  0  0  0  0  0  0  0  0  0  0  0
    7.8188   -4.3575   27.1247 C   0  0  0  0  0  0  0  0  0  0  0  0
    7.4821   -3.4522   25.9715 C   0  0  0  0  0  0  0  0  0  0  0  0
    7.1448   -4.2337   24.7782 N   0  0  0  0  0  0  0  0  0  0  0  0
    6.8694   -3.3546   23.6333 C   0  0  0  0  0  0  0  0  0  0  0  0
    7.1651   -4.0067   22.2929 C   0  0  0  0  0  0  0  0  0  0  0  0
    6.4188   -3.3412   21.1623 C   0  0  0  0  0  0  0  0  0  0  0  0
    5.4916   -3.9163   20.6024 O   0  0  0  0  0  0  0  0  0  0  0  0
    6.8844   -2.1013   20.8706 N   0  0  0  0  0  0  0  0  0  0  0  0
    6.4612   -1.1605   19.8903 C   0  0  0  0  0  0  0  0  0  0  0  0
    5.5850   -1.4828   18.8503 C   0  0  0  0  0  0  0  0  0  0  0  0
    5.2177   -0.5133   17.9339 C   0  0  0  0  0  0  0  0  0  0  0  0
    5.7290    0.7524   18.0725 C   0  0  0  0  0  0  0  0  0  0  0  0
    6.5681    1.0951   19.0537 N   0  0  0  0  0  0  0  0  0  0  0  0
    6.9348    0.1663   19.9498 C   0  0  0  0  0  0  0  0  0  0  0  0
    7.8831    0.6418   21.0261 C   0  0  0  0  0  0  0  0  0  0  0  0
    9.1803   -0.0130   20.9447 N   0  0  0  0  0  0  0  0  0  0  0  0
   10.1395    0.2063   21.8658 C   0  0  0  0  0  0  0  0  0  0  0  0
    9.9721    0.9652   22.8170 O   0  0  0  0  0  0  0  0  0  0  0  0
   11.2969   -0.4636   21.6736 N   0  0  0  0  0  0  0  0  0  0  0  0
   12.4709   -0.2792   22.5268 C   0  0  0  0  0  0  0  0  0  0  0  0
   13.6567   -0.8304   21.8329 C   0  0  0  0  0  0  0  0  0  0  0  0
   14.1031   -1.9711   22.5593 C   0  0  0  0  0  0  0  0  0  0  0  0
   13.3070   -2.1424   23.6917 C   0  0  0  0  0  0  0  0  0  0  0  0
   12.3183   -1.1184   23.7368 C   0  0  0  0  0  0  0  0  0  0  0  0
    6.0192   -5.1172   25.0825 C   0  0  0  0  0  0  0  0  0  0  0  0
    6.3560   -6.0225   26.2357 C   0  0  0  0  0  0  0  0  0  0  0  0
  1  2  1  0
  2  3  1  0
  3  4  1  0
  4  5  1  0
  5  6  1  0
  6  7  1  0
  7  8  1  0
  8  9  2  0
  8 10  1  0
 10 11  1  0
 11 12  2  0
 12 13  1  0
 13 14  2  0
 14 15  1  0
 15 16  2  0
 16 17  1  0
 17 18  1  0
 18 19  1  0
 19 20  2  0
 19 21  1  0
 21 22  1  0
 22 23  1  0
 23 24  1  0
 24 25  1  0
 25 26  1  0
  5 27  1  0
 27 28  1  0
 28  2  1  0
 16 11  1  0
 26 22  1  0
M  END
