CVD-0003884|dock_bobby27042020.29|mol2|26|dock3
     RDKit          3D

 21 23  0  0  0  0  0  0  0  0999 V2000
   13.0439    5.9130   23.2381 N   0  0  0  0  0  0  0  0  0  0  0  0
   13.5734    4.7228   22.3075 S   0  0  0  0  0  0  0  0  0  0  0  0
   13.3247    5.1044   20.9497 O   0  0  0  0  0  0  0  0  0  0  0  0
   14.9174    4.4361   22.7105 O   0  0  0  0  0  0  0  0  0  0  0  0
   12.6049    3.2816   22.6365 C   0  0  0  0  0  0  0  0  0  0  0  0
   11.2250    3.3690   22.6649 C   0  0  0  0  0  0  0  0  0  0  0  0
   10.4726    2.2374   22.9251 C   0  0  0  0  0  0  0  0  0  0  0  0
   11.0739    1.0014   23.1452 C   0  0  0  0  0  0  0  0  0  0  0  0
   12.4638    0.9400   23.1021 C   0  0  0  0  0  0  0  0  0  0  0  0
   13.2281    2.0669   22.8568 C   0  0  0  0  0  0  0  0  0  0  0  0
   10.3120   -0.1343   23.3997 N   0  0  0  0  0  0  0  0  0  0  0  0
   10.4609   -1.3533   22.6202 C   0  0  0  0  0  0  0  0  0  0  0  0
   10.4933   -2.5632   23.5397 C   0  0  0  0  0  0  0  0  0  0  0  0
    9.3330   -2.6122   24.4836 C   0  0  0  0  0  0  0  0  0  0  0  0
    9.2263   -1.2989   25.2425 C   0  0  0  0  0  0  0  0  0  0  0  0
    9.1538   -0.1130   24.2848 C   0  0  0  0  0  0  0  0  0  0  0  0
    9.4309   -3.7611   25.4286 C   0  0  0  0  0  0  0  0  0  0  0  0
    9.0346   -3.9632   26.6916 C   0  0  0  0  0  0  0  0  0  0  0  0
    9.4239   -5.2790   27.0383 C   0  0  0  0  0  0  0  0  0  0  0  0
   10.0269   -5.7898   25.9744 C   0  0  0  0  0  0  0  0  0  0  0  0
   10.0528   -4.8800   24.9521 O   0  0  0  0  0  0  0  0  0  0  0  0
  1  2  1  0
  2  3  2  0
  2  4  2  0
  2  5  1  0
  5  6  2  0
  6  7  1  0
  7  8  2  0
  8  9  1  0
  9 10  2  0
  8 11  1  0
 11 12  1  0
 12 13  1  0
 13 14  1  0
 14 15  1  0
 15 16  1  0
 14 17  1  0
 17 18  2  0
 18 19  1  0
 19 20  2  0
 20 21  1  0
 10  5  1  0
 16 11  1  0
 21 17  1  0
M  END
