CVD-0000266|dock_bobby27042020.13|mol2|30|dock3
     RDKit          3D

 24 26  0  0  0  0  0  0  0  0999 V2000
    6.3796   -4.3691   19.0363 O   0  0  0  0  0  0  0  0  0  0  0  0
    6.1825   -3.2684   19.5415 C   0  0  0  0  0  0  0  0  0  0  0  0
    5.6104   -2.1307   18.7300 C   0  0  0  0  0  0  0  0  0  0  0  0
    6.6383   -1.0475   18.4512 C   0  0  0  0  0  0  0  0  0  0  0  0
    6.0127    0.2309   18.1050 N   0  0  0  0  0  0  0  0  0  0  0  0
    5.2108    1.0046   18.8574 C   0  0  0  0  0  0  0  0  0  0  0  0
    4.9220    2.0658   18.0730 C   0  0  0  0  0  0  0  0  0  0  0  0
    5.5446    1.9172   16.8864 N   0  0  0  0  0  0  0  0  0  0  0  0
    6.2208    0.7909   16.9017 N   0  0  0  0  0  0  0  0  0  0  0  0
    6.4606   -3.0210   20.8262 N   0  0  0  0  0  0  0  0  0  0  0  0
    7.0170   -3.9959   21.7653 C   0  0  0  0  0  0  0  0  0  0  0  0
    7.5321   -3.2898   23.0348 C   0  0  0  0  0  0  0  0  0  0  0  0
    8.3599   -4.1306   23.9098 N   0  0  0  0  0  0  0  0  0  0  0  0
    7.8649   -4.1087   25.2889 C   0  0  0  0  0  0  0  0  0  0  0  0
    8.7268   -4.9742   26.1483 C   0  0  0  0  0  0  0  0  0  0  0  0
   10.0809   -4.5369   26.1421 O   0  0  0  0  0  0  0  0  0  0  0  0
   10.5770   -4.5441   24.8140 C   0  0  0  0  0  0  0  0  0  0  0  0
    9.7520   -3.6837   23.9045 C   0  0  0  0  0  0  0  0  0  0  0  0
    5.9981   -5.0547   22.1415 C   0  0  0  0  0  0  0  0  0  0  0  0
    4.6600   -4.7204   22.2977 C   0  0  0  0  0  0  0  0  0  0  0  0
    3.7249   -5.6817   22.6433 C   0  0  0  0  0  0  0  0  0  0  0  0
    4.1153   -6.9892   22.8378 C   0  0  0  0  0  0  0  0  0  0  0  0
    5.4408   -7.3361   22.6874 C   0  0  0  0  0  0  0  0  0  0  0  0
    6.3765   -6.3754   22.3417 C   0  0  0  0  0  0  0  0  0  0  0  0
  1  2  2  0
  2  3  1  0
  3  4  1  0
  4  5  1  0
  5  6  1  0
  6  7  2  0
  7  8  1  0
  8  9  2  0
  2 10  1  0
 10 11  1  0
 11 12  1  0
 12 13  1  0
 13 14  1  0
 14 15  1  0
 15 16  1  0
 16 17  1  0
 17 18  1  0
 11 19  1  0
 19 20  2  0
 20 21  1  0
 21 22  2  0
 22 23  1  0
 23 24  2  0
  9  5  1  0
 18 13  1  0
 24 19  1  0
M  END
