CVD-0002394|dock_bobby27042020.63|mol2|27|dock3
     RDKit          3D

 26 29  0  0  0  0  0  0  0  0999 V2000
    6.5891   -6.4366   23.0115 F   0  0  0  0  0  0  0  0  0  0  0  0
    7.1920   -5.2623   22.7158 C   0  0  0  0  0  0  0  0  0  0  0  0
    6.5984   -4.4114   21.8223 C   0  0  0  0  0  0  0  0  0  0  0  0
    7.2094   -3.1953   21.5184 C   0  0  0  0  0  0  0  0  0  0  0  0
    8.4156   -2.8445   22.1428 C   0  0  0  0  0  0  0  0  0  0  0  0
    9.0131   -3.7413   23.0276 C   0  0  0  0  0  0  0  0  0  0  0  0
    8.3926   -4.9420   23.3160 C   0  0  0  0  0  0  0  0  0  0  0  0
    9.1359   -6.0374   24.4346 Cl  0  0  0  0  0  0  0  0  0  0  0  0
    8.9822   -1.5831   21.8298 N   0  0  0  0  0  0  0  0  0  0  0  0
   10.1937   -1.1397   22.4823 C   0  0  0  0  0  0  0  0  0  0  0  0
   10.1484   -0.3350   23.6136 C   0  0  0  0  0  0  0  0  0  0  0  0
   11.3355    0.0584   24.1993 C   0  0  0  0  0  0  0  0  0  0  0  0
   12.5391   -0.2894   23.7432 N   0  0  0  0  0  0  0  0  0  0  0  0
   12.5706   -1.0627   22.6576 C   0  0  0  0  0  0  0  0  0  0  0  0
   11.4421   -1.5093   21.9988 C   0  0  0  0  0  0  0  0  0  0  0  0
    8.4179   -0.7081   20.8962 C   0  0  0  0  0  0  0  0  0  0  0  0
    8.9559    0.3587   20.6430 O   0  0  0  0  0  0  0  0  0  0  0  0
    7.2232   -1.1054   20.2754 N   0  0  0  0  0  0  0  0  0  0  0  0
    6.6249   -0.2048   19.3062 C   0  0  0  0  0  0  0  0  0  0  0  0
    5.3428    0.3032   19.4769 C   0  0  0  0  0  0  0  0  0  0  0  0
    4.8124    1.1581   18.5269 C   0  0  0  0  0  0  0  0  0  0  0  0
    5.5786    1.4801   17.4313 C   0  0  0  0  0  0  0  0  0  0  0  0
    6.8103    1.0081   17.2404 N   0  0  0  0  0  0  0  0  0  0  0  0
    7.3124    0.1855   18.1667 C   0  0  0  0  0  0  0  0  0  0  0  0
    6.5569   -2.3184   20.5397 C   0  0  0  0  0  0  0  0  0  0  0  0
    5.5039   -2.6276   20.0084 O   0  0  0  0  0  0  0  0  0  0  0  0
  1  2  1  0
  2  3  2  0
  3  4  1  0
  4  5  2  0
  5  6  1  0
  6  7  2  0
  7  8  1  0
  5  9  1  0
  9 10  1  0
 10 11  2  0
 11 12  1  0
 12 13  2  0
 13 14  1  0
 14 15  2  0
  9 16  1  0
 16 17  2  0
 16 18  1  0
 18 19  1  0
 19 20  2  0
 20 21  1  0
 21 22  2  0
 22 23  1  0
 23 24  2  0
 18 25  1  0
 25 26  2  0
  7  2  1  0
 15 10  1  0
 24 19  1  0
 25  4  1  0
M  END
