CVD-0001924|dock_bobby27042020.8|mol2|5|dock1
     RDKit          3D

 24 26  0  0  0  0  0  0  0  0999 V2000
   12.0406   -1.4624   21.6526 N   0  0  0  0  0  0  0  0  0  0  0  0
   10.7661   -0.7466   21.8826 C   0  0  0  0  0  0  0  0  0  0  0  0
   10.7450    0.1469   23.1181 C   0  0  0  0  0  0  0  0  0  0  0  0
    9.3985    0.4308   23.4795 O   0  0  0  0  0  0  0  0  0  0  0  0
    8.7805    1.4345   22.6476 C   0  0  0  0  0  0  0  0  0  0  0  0
    9.4615    2.7812   23.0100 C   0  0  0  0  0  0  0  0  0  0  0  0
   10.9461    2.6389   22.7284 C   0  0  0  0  0  0  0  0  0  0  0  0
   11.7481    3.7524   22.4354 C   0  0  0  0  0  0  0  0  0  0  0  0
   11.2248    5.0112   22.3219 O   0  0  0  0  0  0  0  0  0  0  0  0
   13.1314    3.6199   22.3269 C   0  0  0  0  0  0  0  0  0  0  0  0
   13.8782    4.7164   22.0348 O   0  0  0  0  0  0  0  0  0  0  0  0
   13.7373    2.3858   22.5065 C   0  0  0  0  0  0  0  0  0  0  0  0
   12.9544    1.2849   22.7952 C   0  0  0  0  0  0  0  0  0  0  0  0
   11.5683    1.3935   22.9084 C   0  0  0  0  0  0  0  0  0  0  0  0
    7.2802    1.3682   22.9298 C   0  0  0  0  0  0  0  0  0  0  0  0
    6.5079    2.3700   22.0567 C   0  0  0  0  0  0  0  0  0  0  0  0
    6.5850    1.9749   20.5844 C   0  0  0  0  0  0  0  0  0  0  0  0
    6.0501    0.5611   20.3684 C   0  0  0  0  0  0  0  0  0  0  0  0
    6.7508   -0.4516   21.2574 C   0  0  0  0  0  0  0  0  0  0  0  0
    6.2567   -1.8794   21.0307 C   0  0  0  0  0  0  0  0  0  0  0  0
    7.0371   -2.9724   21.7654 C   0  0  0  0  0  0  0  0  0  0  0  0
    6.6776   -4.3437   21.3790 C   0  0  0  0  0  0  0  0  0  0  0  0
    5.8072   -4.6345   20.6141 O   0  0  0  0  0  0  0  0  0  0  0  0
    6.7139   -0.0357   22.7322 C   0  0  0  0  0  0  0  0  0  0  0  0
  1  2  1  0
  2  3  1  0
  3  4  1  0
  4  5  1  0
  5  6  1  0
  6  7  1  0
  7  8  2  0
  8  9  1  0
  8 10  1  0
 10 11  1  0
 10 12  2  0
 12 13  1  0
 13 14  2  0
  5 15  1  0
 15 16  1  0
 16 17  1  0
 17 18  1  0
 18 19  1  0
 19 20  1  0
 20 21  1  0
 21 22  1  0
 22 23  2  0
 19 24  1  0
 14  3  1  0
 24 15  1  0
 14  7  1  0
M  END
