CVD-0000211|dock_bobby27042020.28|mol2|9|dock1
     RDKit          3D

 28 30  0  0  0  0  0  0  0  0999 V2000
    6.0453    1.3081   17.8385 O   0  0  0  0  0  0  0  0  0  0  0  0
    6.0735    0.0967   18.4656 C   0  0  0  0  0  0  0  0  0  0  0  0
    5.6290   -1.0372   17.8044 C   0  0  0  0  0  0  0  0  0  0  0  0
    5.6606   -2.2619   18.4467 C   0  0  0  0  0  0  0  0  0  0  0  0
    6.1362   -2.3543   19.7488 C   0  0  0  0  0  0  0  0  0  0  0  0
    6.1641   -3.5606   20.3727 O   0  0  0  0  0  0  0  0  0  0  0  0
    6.5878   -1.2206   20.4273 C   0  0  0  0  0  0  0  0  0  0  0  0
    7.1020   -1.3161   21.8444 C   0  0  0  0  0  0  0  0  0  0  0  0
    8.3388   -2.1028   21.9479 N   0  0  0  0  0  0  0  0  0  0  0  0
    9.4245   -1.4571   21.1573 C   0  0  0  0  0  0  0  0  0  0  0  0
   10.8141   -1.6621   21.7346 C   0  0  0  0  0  0  0  0  0  0  0  0
   11.0256   -1.1328   23.0738 N   0  0  0  0  0  0  0  0  0  0  0  0
   10.7520   -2.0482   24.1785 C   0  0  0  0  0  0  0  0  0  0  0  0
    9.6737   -3.0594   23.8415 C   0  0  0  0  0  0  0  0  0  0  0  0
    8.3283   -2.5222   23.3830 C   0  0  0  0  0  0  0  0  0  0  0  0
    9.4899   -3.9238   25.0787 C   0  0  0  0  0  0  0  0  0  0  0  0
    9.8679   -5.2676   25.0606 C   0  0  0  0  0  0  0  0  0  0  0  0
    9.7447   -6.0630   26.1906 C   0  0  0  0  0  0  0  0  0  0  0  0
   10.1293   -7.3712   26.1429 O   0  0  0  0  0  0  0  0  0  0  0  0
    9.2349   -5.5366   27.3642 C   0  0  0  0  0  0  0  0  0  0  0  0
    8.8371   -4.2145   27.3983 C   0  0  0  0  0  0  0  0  0  0  0  0
    8.9487   -3.4131   26.2686 C   0  0  0  0  0  0  0  0  0  0  0  0
    8.5114   -2.1277   26.3756 O   0  0  0  0  0  0  0  0  0  0  0  0
   11.5138    0.1082   23.2883 C   0  0  0  0  0  0  0  0  0  0  0  0
   11.7894    0.8694   22.3693 O   0  0  0  0  0  0  0  0  0  0  0  0
   11.7025    0.5296   24.7326 C   0  0  0  0  0  0  0  0  0  0  0  0
   10.1537    0.9360   25.4833 Cl  0  0  0  0  0  0  0  0  0  0  0  0
    6.5480    0.0024   19.7663 C   0  0  0  0  0  0  0  0  0  0  0  0
  1  2  1  0
  2  3  2  0
  3  4  1  0
  4  5  2  0
  5  6  1  0
  5  7  1  0
  7  8  1  0
  8  9  1  0
  9 10  1  0
 10 11  1  0
 11 12  1  0
 12 13  1  0
 13 14  1  0
 14 15  1  0
 14 16  1  0
 16 17  2  0
 17 18  1  0
 18 19  1  0
 18 20  2  0
 20 21  1  0
 21 22  2  0
 22 23  1  0
 12 24  1  0
 24 25  2  0
 24 26  1  0
 26 27  1  0
  7 28  2  0
 28  2  1  0
 15  9  1  0
 22 16  1  0
M  END
