CVD-0000057|dock_bobby27042020.43|mol2|4|dock1
     RDKit          3D

 19 20  0  0  0  0  0  0  0  0999 V2000
   13.7665   -3.1331   25.7604 Cl  0  0  0  0  0  0  0  0  0  0  0  0
   12.9553   -1.9013   24.8345 C   0  0  0  0  0  0  0  0  0  0  0  0
   13.0662   -0.5839   25.2215 C   0  0  0  0  0  0  0  0  0  0  0  0
   12.4169    0.3861   24.4767 C   0  0  0  0  0  0  0  0  0  0  0  0
   11.6717    0.0299   23.3650 C   0  0  0  0  0  0  0  0  0  0  0  0
   11.5624   -1.2974   22.9808 C   0  0  0  0  0  0  0  0  0  0  0  0
   10.7520   -1.6868   21.7653 C   0  0  0  0  0  0  0  0  0  0  0  0
    9.4161   -0.9726   21.7095 C   0  0  0  0  0  0  0  0  0  0  0  0
    8.9166   -0.5021   22.7260 O   0  0  0  0  0  0  0  0  0  0  0  0
    8.8790   -0.9383   20.4647 N   0  0  0  0  0  0  0  0  0  0  0  0
    7.6535   -0.3803   20.0042 C   0  0  0  0  0  0  0  0  0  0  0  0
    7.5339    0.2705   18.7747 C   0  0  0  0  0  0  0  0  0  0  0  0
    6.3054    0.7798   18.3948 C   0  0  0  0  0  0  0  0  0  0  0  0
    5.2335    0.6194   19.2376 C   0  0  0  0  0  0  0  0  0  0  0  0
    5.3067   -0.0017   20.4194 N   0  0  0  0  0  0  0  0  0  0  0  0
    6.5037   -0.4899   20.8236 C   0  0  0  0  0  0  0  0  0  0  0  0
    6.4644   -1.1137   22.1548 C   0  0  0  0  0  0  0  0  0  0  0  0
    6.8695   -2.3206   22.4202 C   0  0  0  0  0  0  0  0  0  0  0  0
   12.2158   -2.2682   23.7289 C   0  0  0  0  0  0  0  0  0  0  0  0
  1  2  1  0
  2  3  2  0
  3  4  1  0
  4  5  2  0
  5  6  1  0
  6  7  1  0
  7  8  1  0
  8  9  2  0
  8 10  1  0
 10 11  1  0
 11 12  2  0
 12 13  1  0
 13 14  2  0
 14 15  1  0
 15 16  2  0
 16 17  1  0
 17 18  2  0
  6 19  2  0
 19  2  1  0
 16 11  1  0
M  END
