CVD-0001122|dock_bobby27042020.10|mol2|39|dock3
     RDKit          3D

 23 24  0  0  0  0  0  0  0  0999 V2000
   11.8122    6.7310   25.5761 C   0  0  0  0  0  0  0  0  0  0  0  0
   12.7265    6.4621   24.4170 C   0  0  0  0  0  0  0  0  0  0  0  0
   13.2958    7.3674   23.8155 O   0  0  0  0  0  0  0  0  0  0  0  0
   12.8716    5.1823   24.0680 N   0  0  0  0  0  0  0  0  0  0  0  0
   13.7103    4.7626   22.9543 C   0  0  0  0  0  0  0  0  0  0  0  0
   12.8905    4.2042   21.8083 C   0  0  0  0  0  0  0  0  0  0  0  0
   11.9520    3.1140   22.2353 C   0  0  0  0  0  0  0  0  0  0  0  0
   10.6055    3.2103   22.4331 C   0  0  0  0  0  0  0  0  0  0  0  0
   10.0906    2.0026   22.8197 N   0  0  0  0  0  0  0  0  0  0  0  0
   11.1159    1.0912   22.8784 C   0  0  0  0  0  0  0  0  0  0  0  0
   11.0877   -0.2632   23.2211 C   0  0  0  0  0  0  0  0  0  0  0  0
    9.8026   -0.9593   23.6104 C   0  0  0  0  0  0  0  0  0  0  0  0
    9.2770   -1.8682   22.5139 C   0  0  0  0  0  0  0  0  0  0  0  0
    9.2791   -1.1741   21.2205 N   0  0  0  0  0  0  0  0  0  0  0  0
    8.2654    0.0429   20.9721 S   0  0  0  0  0  0  0  0  0  0  0  0
    7.2245   -0.3975   19.6346 C   0  0  0  0  0  0  0  0  0  0  0  0
    7.4555    0.1597   22.1452 O   0  0  0  0  0  0  0  0  0  0  0  0
    9.0520    1.1680   20.5705 O   0  0  0  0  0  0  0  0  0  0  0  0
   12.2876   -0.9649   23.2007 C   0  0  0  0  0  0  0  0  0  0  0  0
   13.4414   -0.3052   22.8459 C   0  0  0  0  0  0  0  0  0  0  0  0
   14.6024   -1.0141   22.8328 F   0  0  0  0  0  0  0  0  0  0  0  0
   13.4954    1.0263   22.5035 C   0  0  0  0  0  0  0  0  0  0  0  0
   12.3044    1.7517   22.5179 C   0  0  0  0  0  0  0  0  0  0  0  0
  1  2  1  0
  2  3  2  0
  2  4  1  0
  4  5  1  0
  5  6  1  0
  6  7  1  0
  7  8  2  0
  8  9  1  0
  9 10  1  0
 10 11  2  0
 11 12  1  0
 12 13  1  0
 13 14  1  0
 14 15  1  0
 15 16  1  0
 15 17  2  0
 15 18  2  0
 11 19  1  0
 19 20  2  0
 20 21  1  0
 20 22  1  0
 22 23  2  0
 23  7  1  0
 23 10  1  0
M  END
