CVD-0003975|dock_bobby27042020.86|mol2|13|dock2
     RDKit          3D

 20 20  0  0  0  0  0  0  0  0999 V2000
   12.4239    2.4956   22.7350 C   0  0  0  0  0  0  0  0  0  0  0  0
   12.3834    1.0054   22.9587 C   0  0  0  0  0  0  0  0  0  0  0  0
   11.3296    0.1853   23.0872 C   0  0  0  0  0  0  0  0  0  0  0  0
    9.8993    0.6696   23.1328 C   0  0  0  0  0  0  0  0  0  0  0  0
    9.3043    0.7865   21.7451 C   0  0  0  0  0  0  0  0  0  0  0  0
    9.3148    1.8363   21.1387 O   0  0  0  0  0  0  0  0  0  0  0  0
    8.7263   -0.4729   21.1344 C   0  0  0  0  0  0  0  0  0  0  0  0
    7.3373   -0.3666   20.5280 C   0  0  0  0  0  0  0  0  0  0  0  0
    6.3272   -0.4928   21.2093 O   0  0  0  0  0  0  0  0  0  0  0  0
    7.1858   -0.1048   19.0828 C   0  0  0  0  0  0  0  0  0  0  0  0
    8.0860    0.1901   18.3305 O   0  0  0  0  0  0  0  0  0  0  0  0
    5.5876   -0.2226   18.4078 S   0  0  0  0  0  0  0  0  0  0  0  0
    5.3033   -1.7487   18.0970 N   0  0  0  0  0  0  0  0  0  0  0  0
    4.6909    0.1923   19.4365 O   0  0  0  0  0  0  0  0  0  0  0  0
    5.6282    0.4797   17.1671 O   0  0  0  0  0  0  0  0  0  0  0  0
   11.5079   -1.2621   23.1946 C   0  0  0  0  0  0  0  0  0  0  0  0
   10.5409   -2.0446   23.6991 O   0  0  0  0  0  0  0  0  0  0  0  0
   12.6473   -1.7917   22.7898 C   0  0  0  0  0  0  0  0  0  0  0  0
   13.7534   -0.9305   22.2965 C   0  0  0  0  0  0  0  0  0  0  0  0
   13.7946    0.4154   23.0254 C   0  0  0  0  0  0  0  0  0  0  0  0
  1  2  1  0
  2  3  2  0
  3  4  1  0
  4  5  1  0
  5  6  2  0
  5  7  1  0
  7  8  1  0
  8  9  2  0
  8 10  1  0
 10 11  2  0
 10 12  1  0
 12 13  1  0
 12 14  2  0
 12 15  2  0
  3 16  1  0
 16 17  1  0
 16 18  2  0
 18 19  1  0
 19 20  1  0
 20  2  1  0
M  END
