CVD-0002828|dock_bobby27042020.75|mol2|42|dock2
     RDKit          3D

 27 30  0  0  0  0  0  0  0  0999 V2000
   13.6795    4.2088   22.4362 Cl  0  0  0  0  0  0  0  0  0  0  0  0
   12.1022    3.4589   22.1585 C   0  0  0  0  0  0  0  0  0  0  0  0
   12.1560    1.9738   22.4642 C   0  0  0  0  0  0  0  0  0  0  0  0
   13.2157    1.5132   22.8703 O   0  0  0  0  0  0  0  0  0  0  0  0
   11.0828    1.1518   22.2985 N   0  0  0  0  0  0  0  0  0  0  0  0
    9.7701    1.6660   21.9019 C   0  0  0  0  0  0  0  0  0  0  0  0
    8.7246    1.3095   22.9423 C   0  0  0  0  0  0  0  0  0  0  0  0
    8.6654   -0.1438   23.1246 N   0  0  0  0  0  0  0  0  0  0  0  0
    7.6086   -0.5346   24.0683 C   0  0  0  0  0  0  0  0  0  0  0  0
    7.4732   -2.0293   24.2705 C   0  0  0  0  0  0  0  0  0  0  0  0
    7.7706   -2.5888   25.4857 C   0  0  0  0  0  0  0  0  0  0  0  0
    7.6653   -3.9523   25.7014 C   0  0  0  0  0  0  0  0  0  0  0  0
    7.2597   -4.7859   24.7028 C   0  0  0  0  0  0  0  0  0  0  0  0
    6.9354   -4.2709   23.4249 C   0  0  0  0  0  0  0  0  0  0  0  0
    6.5098   -5.0995   22.3590 C   0  0  0  0  0  0  0  0  0  0  0  0
    6.2036   -4.5678   21.1419 C   0  0  0  0  0  0  0  0  0  0  0  0
    6.3002   -3.2101   20.9220 C   0  0  0  0  0  0  0  0  0  0  0  0
    6.7052   -2.3706   21.9165 C   0  0  0  0  0  0  0  0  0  0  0  0
    7.0412   -2.8658   23.2036 C   0  0  0  0  0  0  0  0  0  0  0  0
    9.9715   -0.6219   23.5707 C   0  0  0  0  0  0  0  0  0  0  0  0
   11.0429   -0.2926   22.5472 C   0  0  0  0  0  0  0  0  0  0  0  0
   12.3284   -1.0108   22.9158 C   0  0  0  0  0  0  0  0  0  0  0  0
   12.9739   -0.7247   24.1098 C   0  0  0  0  0  0  0  0  0  0  0  0
   14.1520   -1.3733   24.4361 C   0  0  0  0  0  0  0  0  0  0  0  0
   14.6585   -2.2967   23.5507 C   0  0  0  0  0  0  0  0  0  0  0  0
   14.0668   -2.5970   22.3942 N   0  0  0  0  0  0  0  0  0  0  0  0
   12.9277   -1.9619   22.1022 C   0  0  0  0  0  0  0  0  0  0  0  0
  1  2  1  0
  2  3  1  0
  3  4  2  0
  3  5  1  0
  5  6  1  0
  6  7  1  0
  7  8  1  0
  8  9  1  0
  9 10  1  0
 10 11  2  0
 11 12  1  0
 12 13  2  0
 13 14  1  0
 14 15  2  0
 15 16  1  0
 16 17  2  0
 17 18  1  0
 18 19  2  0
  8 20  1  0
 20 21  1  0
 21 22  1  0
 22 23  2  0
 23 24  1  0
 24 25  2  0
 25 26  1  0
 26 27  2  0
 21  5  1  0
 27 22  1  0
 19 10  1  0
 19 14  1  0
M  END
