CVD-0001743|dock_bobby27042020.94|mol2|20|dock1
     RDKit          3D

 29 31  0  0  0  0  0  0  0  0999 V2000
    7.7517   -3.1443   27.5504 C   0  0  0  0  0  0  0  0  0  0  0  0
    7.3414   -3.9114   26.3324 C   0  0  0  0  0  0  0  0  0  0  0  0
    7.4101   -3.0879   25.1369 N   0  0  0  0  0  0  0  0  0  0  0  0
    7.0630   -3.5406   23.9214 C   0  0  0  0  0  0  0  0  0  0  0  0
    6.6445   -4.8214   23.8643 N   0  0  0  0  0  0  0  0  0  0  0  0
    6.3521   -5.3535   22.6734 C   0  0  0  0  0  0  0  0  0  0  0  0
    6.4344   -4.6533   21.4778 C   0  0  0  0  0  0  0  0  0  0  0  0
    6.8282   -3.3218   21.5269 C   0  0  0  0  0  0  0  0  0  0  0  0
    7.1310   -2.7390   22.7539 C   0  0  0  0  0  0  0  0  0  0  0  0
    7.5078   -1.3438   22.7671 N   0  0  0  0  0  0  0  0  0  0  0  0
    6.4091   -0.3986   22.5882 C   0  0  0  0  0  0  0  0  0  0  0  0
    6.0692   -0.2220   21.1931 N   0  0  0  0  0  0  0  0  0  0  0  0
    4.9735    0.7287   21.0051 C   0  0  0  0  0  0  0  0  0  0  0  0
    4.6296    0.8555   19.5461 C   0  0  0  0  0  0  0  0  0  0  0  0
    5.7936    1.3006   18.7744 N   0  0  0  0  0  0  0  0  0  0  0  0
    5.4501    1.4791   17.3646 C   0  0  0  0  0  0  0  0  0  0  0  0
    6.8893    0.3499   18.9624 C   0  0  0  0  0  0  0  0  0  0  0  0
    7.2333    0.2232   20.4213 C   0  0  0  0  0  0  0  0  0  0  0  0
    8.8063   -0.8390   22.8972 C   0  0  0  0  0  0  0  0  0  0  0  0
    8.9820    0.3608   22.7299 O   0  0  0  0  0  0  0  0  0  0  0  0
    9.8299   -1.6998   23.2138 N   0  0  0  0  0  0  0  0  0  0  0  0
   11.2127   -1.4449   23.4067 C   0  0  0  0  0  0  0  0  0  0  0  0
   11.7693   -0.1972   23.6767 C   0  0  0  0  0  0  0  0  0  0  0  0
   13.1386   -0.0874   23.8488 C   0  0  0  0  0  0  0  0  0  0  0  0
   13.9151   -1.2179   23.7442 C   0  0  0  0  0  0  0  0  0  0  0  0
   13.4137   -2.4243   23.4826 N   0  0  0  0  0  0  0  0  0  0  0  0
   12.0910   -2.5195   23.3204 C   0  0  0  0  0  0  0  0  0  0  0  0
    6.1198   -5.2835   20.2193 C   0  0  0  0  0  0  0  0  0  0  0  0
    5.8474   -5.7592   19.2172 N   0  0  0  0  0  0  0  0  0  0  0  0
  1  2  1  0
  2  3  1  0
  3  4  1  0
  4  5  2  0
  5  6  1  0
  6  7  2  0
  7  8  1  0
  8  9  2  0
  9 10  1  0
 10 11  1  0
 11 12  1  0
 12 13  1  0
 13 14  1  0
 14 15  1  0
 15 16  1  0
 15 17  1  0
 17 18  1  0
 10 19  1  0
 19 20  2  0
 19 21  1  0
 21 22  1  0
 22 23  2  0
 23 24  1  0
 24 25  2  0
 25 26  1  0
 26 27  2  0
  7 28  1  0
 28 29  3  0
  9  4  1  0
 18 12  1  0
 27 22  1  0
M  END
