CVD-0000616|dock_bobby27042020.98|mol2|4|dock2
     RDKit          3D

 21 23  0  0  0  0  0  0  0  0999 V2000
    8.2124   -0.1131   21.9832 O   0  0  0  0  0  0  0  0  0  0  0  0
    8.8205   -0.6550   21.0662 C   0  0  0  0  0  0  0  0  0  0  0  0
    8.0892   -1.1955   19.8557 C   0  0  0  0  0  0  0  0  0  0  0  0
    6.5554   -1.1170   19.9701 C   0  0  0  0  0  0  0  0  0  0  0  0
    5.8605   -1.4255   18.6250 C   0  0  0  0  0  0  0  0  0  0  0  0
    5.5125    0.0427   18.4616 C   0  0  0  0  0  0  0  0  0  0  0  0
    6.0058    0.3185   19.8842 C   0  0  0  0  0  0  0  0  0  0  0  0
    6.0793   -1.9319   21.0853 O   0  0  0  0  0  0  0  0  0  0  0  0
    5.9573   -3.3359   21.1394 C   0  0  0  0  0  0  0  0  0  0  0  0
    6.3685   -4.1260   20.0798 C   0  0  0  0  0  0  0  0  0  0  0  0
    6.2352   -5.5019   20.1641 C   0  0  0  0  0  0  0  0  0  0  0  0
    5.7024   -6.0823   21.2951 C   0  0  0  0  0  0  0  0  0  0  0  0
    5.3001   -5.2912   22.3498 C   0  0  0  0  0  0  0  0  0  0  0  0
    5.4256   -3.9139   22.2791 C   0  0  0  0  0  0  0  0  0  0  0  0
   10.1625   -0.8350   21.0140 N   0  0  0  0  0  0  0  0  0  0  0  0
   11.1864   -0.4812   21.9273 C   0  0  0  0  0  0  0  0  0  0  0  0
   10.9950    0.3546   23.0228 C   0  0  0  0  0  0  0  0  0  0  0  0
   12.0656    0.6363   23.8540 C   0  0  0  0  0  0  0  0  0  0  0  0
   13.2911    0.0789   23.5702 C   0  0  0  0  0  0  0  0  0  0  0  0
   13.5046   -0.7249   22.5287 N   0  0  0  0  0  0  0  0  0  0  0  0
   12.4651   -0.9907   21.7325 C   0  0  0  0  0  0  0  0  0  0  0  0
  1  2  2  0
  2  3  1  0
  3  4  1  0
  4  5  1  0
  5  6  1  0
  6  7  1  0
  4  8  1  0
  8  9  1  0
  9 10  2  0
 10 11  1  0
 11 12  2  0
 12 13  1  0
 13 14  2  0
  2 15  1  0
 15 16  1  0
 16 17  2  0
 17 18  1  0
 18 19  2  0
 19 20  1  0
 20 21  2  0
  7  4  1  0
 14  9  1  0
 21 16  1  0
M  END
