CVD-0001159|dock_bobby27042020.68|mol2|2|dock2
     RDKit          3D

 34 39  0  0  0  0  0  0  0  0999 V2000
    2.2403    2.5670   20.7548 Cl  0  0  0  0  0  0  0  0  0  0  0  0
    3.7770    1.7503   20.6915 C   0  0  0  0  0  0  0  0  0  0  0  0
    4.3999    1.3889   21.8659 C   0  0  0  0  0  0  0  0  0  0  0  0
    5.6206    0.7400   21.8077 C   0  0  0  0  0  0  0  0  0  0  0  0
    6.2211    0.4499   20.5907 C   0  0  0  0  0  0  0  0  0  0  0  0
    5.5692    0.8281   19.4255 C   0  0  0  0  0  0  0  0  0  0  0  0
    4.3482    1.4775   19.4679 C   0  0  0  0  0  0  0  0  0  0  0  0
    7.5648   -0.2607   20.5355 C   0  0  0  0  0  0  0  0  0  0  0  0
    7.4890   -1.6632   21.0005 N   0  0  0  0  0  0  0  0  0  0  0  0
    8.2546   -2.1051   22.1923 C   0  0  0  0  0  0  0  0  0  0  0  0
    9.6701   -1.5043   22.2217 C   0  0  0  0  0  0  0  0  0  0  0  0
    9.5655   -0.0230   22.0522 C   0  0  0  0  0  0  0  0  0  0  0  0
    8.5330    0.5167   21.3623 C   0  0  0  0  0  0  0  0  0  0  0  0
    8.5874    1.8939   21.4285 N   0  0  0  0  0  0  0  0  0  0  0  0
    9.6884    2.2521   22.1836 C   0  0  0  0  0  0  0  0  0  0  0  0
   10.1868    3.5011   22.5381 C   0  0  0  0  0  0  0  0  0  0  0  0
   11.3364    3.5634   23.3094 C   0  0  0  0  0  0  0  0  0  0  0  0
   11.9752    2.4105   23.7185 C   0  0  0  0  0  0  0  0  0  0  0  0
   11.4826    1.1635   23.3680 C   0  0  0  0  0  0  0  0  0  0  0  0
   10.3280    1.0648   22.5928 C   0  0  0  0  0  0  0  0  0  0  0  0
    8.3251   -3.6153   22.3554 C   0  0  0  0  0  0  0  0  0  0  0  0
    9.1527   -4.0727   23.1263 O   0  0  0  0  0  0  0  0  0  0  0  0
    7.4297   -4.3741   21.7197 N   0  0  0  0  0  0  0  0  0  0  0  0
    7.4499   -5.8287   21.9069 C   0  0  0  0  0  0  0  0  0  0  0  0
    6.1318   -6.3733   22.4283 C   0  0  0  0  0  0  0  0  0  0  0  0
    5.7289   -5.7519   23.7540 C   0  0  0  0  0  0  0  0  0  0  0  0
    4.7722   -6.5879   24.4916 N   0  0  0  0  0  0  0  0  0  0  0  0
    4.7866   -6.8543   25.8322 C   0  0  0  0  0  0  0  0  0  0  0  0
    3.7404   -7.6765   26.0632 C   0  0  0  0  0  0  0  0  0  0  0  0
    3.0744   -7.9384   24.8961 N   0  0  0  0  0  0  0  0  0  0  0  0
    3.7321   -7.2684   23.9758 C   0  0  0  0  0  0  0  0  0  0  0  0
    6.3534   -3.8145   20.9405 C   0  0  0  0  0  0  0  0  0  0  0  0
    6.6350   -2.4688   20.3403 C   0  0  0  0  0  0  0  0  0  0  0  0
    5.8765   -2.0391   19.4726 O   0  0  0  0  0  0  0  0  0  0  0  0
  1  2  1  0
  2  3  2  0
  3  4  1  0
  4  5  2  0
  5  6  1  0
  6  7  2  0
  8  5  1  0
  8  9  1  0
  9 10  1  0
 10 11  1  0
 11 12  1  0
 12 13  2  0
 13 14  1  0
 14 15  1  0
 15 16  2  0
 16 17  1  0
 17 18  2  0
 18 19  1  0
 19 20  2  0
 10 21  1  0
 21 22  2  0
 21 23  1  0
 23 24  1  0
 24 25  1  0
 25 26  1  0
 26 27  1  0
 27 28  1  0
 28 29  2  0
 29 30  1  0
 30 31  2  0
 23 32  1  0
 32 33  1  0
 33 34  2  0
  7  2  1  0
 13  8  1  0
 20 15  1  0
 31 27  1  0
 33  9  1  0
 20 12  1  0
M  END
