CVD-0002659|dock_bobby27042020.5|mol2|2|dock2
     RDKit          3D

 30 32  0  0  0  0  0  0  0  0999 V2000
    9.3110    2.6391   22.7860 C   0  0  0  0  0  0  0  0  0  0  0  0
   10.8045    2.4651   23.0678 C   0  0  0  0  0  0  0  0  0  0  0  0
   11.6947    3.4457   22.2805 C   0  0  0  0  0  0  0  0  0  0  0  0
   13.1464    3.2369   22.7108 C   0  0  0  0  0  0  0  0  0  0  0  0
   13.5838    1.7923   22.5809 C   0  0  0  0  0  0  0  0  0  0  0  0
   12.6876    0.8254   23.3597 C   0  0  0  0  0  0  0  0  0  0  0  0
   13.1669   -0.5470   23.2390 N   0  0  0  0  0  0  0  0  0  0  0  0
   13.9181   -1.1391   24.1739 C   0  0  0  0  0  0  0  0  0  0  0  0
   14.3109   -2.5611   23.9000 C   0  0  0  0  0  0  0  0  0  0  0  0
   14.2778   -0.5501   25.1885 O   0  0  0  0  0  0  0  0  0  0  0  0
   11.2470    1.0012   22.8767 C   0  0  0  0  0  0  0  0  0  0  0  0
   10.2887    0.0615   23.6216 C   0  0  0  0  0  0  0  0  0  0  0  0
   10.0160   -1.2551   22.9110 C   0  0  0  0  0  0  0  0  0  0  0  0
    9.4436   -1.0504   21.5882 N   0  0  0  0  0  0  0  0  0  0  0  0
    8.1929   -0.5767   21.4218 C   0  0  0  0  0  0  0  0  0  0  0  0
    7.4689   -0.2924   22.3723 O   0  0  0  0  0  0  0  0  0  0  0  0
    7.7883   -0.4355   20.1405 N   0  0  0  0  0  0  0  0  0  0  0  0
    6.4342   -0.0162   19.7782 C   0  0  0  0  0  0  0  0  0  0  0  0
    6.0974    1.3626   20.3821 C   0  0  0  0  0  0  0  0  0  0  0  0
    4.7161    1.8614   19.9618 C   0  0  0  0  0  0  0  0  0  0  0  0
    4.5666    1.8686   18.4461 C   0  0  0  0  0  0  0  0  0  0  0  0
    4.8690    0.4979   17.8578 C   0  0  0  0  0  0  0  0  0  0  0  0
    6.2650    0.0249   18.2498 C   0  0  0  0  0  0  0  0  0  0  0  0
   11.2422    4.8158   22.3799 O   0  0  0  0  0  0  0  0  0  0  0  0
   11.4046    5.5455   23.5392 C   0  0  0  0  0  0  0  0  0  0  0  0
   10.3937    5.6780   24.4656 C   0  0  0  0  0  0  0  0  0  0  0  0
   10.5699    6.3878   25.5831 N   0  0  0  0  0  0  0  0  0  0  0  0
   11.7673    6.9495   25.7290 C   0  0  0  0  0  0  0  0  0  0  0  0
   12.8019    6.8855   24.8951 N   0  0  0  0  0  0  0  0  0  0  0  0
   12.6059    6.1691   23.7854 C   0  0  0  0  0  0  0  0  0  0  0  0
  1  2  1  0
  2  3  1  0
  3  4  1  0
  4  5  1  0
  5  6  1  0
  6  7  1  0
  7  8  1  0
  8  9  1  0
  8 10  2  0
  6 11  1  0
 11 12  1  0
 12 13  1  0
 13 14  1  0
 14 15  1  0
 15 16  2  0
 15 17  1  0
 17 18  1  0
 18 19  1  0
 19 20  1  0
 20 21  1  0
 21 22  1  0
 22 23  1  0
  3 24  1  0
 24 25  1  0
 25 26  2  0
 26 27  1  0
 27 28  2  0
 28 29  1  0
 29 30  2  0
 11  2  1  0
 23 18  1  0
 30 25  1  0
M  END
