CVD-0001201|dock_bobby27042020.67|mol2|47|dock3
     RDKit          3D

 28 31  0  0  0  0  0  0  0  0999 V2000
    6.8668    0.4355   18.7875 C   0  0  0  0  0  0  0  0  0  0  0  0
    7.0296    0.1907   20.2133 N   0  0  0  0  0  0  0  0  0  0  0  0
    5.9720   -0.5967   20.8437 C   0  0  0  0  0  0  0  0  0  0  0  0
    6.4244   -1.9310   21.3879 C   0  0  0  0  0  0  0  0  0  0  0  0
    7.0324   -2.0159   22.6324 C   0  0  0  0  0  0  0  0  0  0  0  0
    7.4544   -3.2286   23.1518 C   0  0  0  0  0  0  0  0  0  0  0  0
    7.2649   -4.3902   22.4096 C   0  0  0  0  0  0  0  0  0  0  0  0
    7.5618   -5.6971   22.6394 N   0  0  0  0  0  0  0  0  0  0  0  0
    7.1769   -6.4919   21.5988 N   0  0  0  0  0  0  0  0  0  0  0  0
    6.6339   -5.6884   20.7052 C   0  0  0  0  0  0  0  0  0  0  0  0
    6.6532   -4.3413   21.1472 C   0  0  0  0  0  0  0  0  0  0  0  0
    6.2394   -3.0966   20.6548 C   0  0  0  0  0  0  0  0  0  0  0  0
    8.0316    0.8303   20.9950 C   0  0  0  0  0  0  0  0  0  0  0  0
    7.8471    2.1513   21.4092 C   0  0  0  0  0  0  0  0  0  0  0  0
    8.8387    2.7828   22.1175 C   0  0  0  0  0  0  0  0  0  0  0  0
    8.6289    4.0729   22.4944 F   0  0  0  0  0  0  0  0  0  0  0  0
   10.0263    2.1979   22.4684 C   0  0  0  0  0  0  0  0  0  0  0  0
   10.2261    0.8711   22.1011 C   0  0  0  0  0  0  0  0  0  0  0  0
   11.3188   -0.0327   22.3129 C   0  0  0  0  0  0  0  0  0  0  0  0
   12.6087    0.2781   23.0139 C   0  0  0  0  0  0  0  0  0  0  0  0
   12.5955   -0.1092   24.4792 C   0  0  0  0  0  0  0  0  0  0  0  0
   11.3387    0.2443   25.1234 N   0  0  0  0  0  0  0  0  0  0  0  0
   10.2881   -0.5779   25.1519 C   0  0  0  0  0  0  0  0  0  0  0  0
    9.0601   -0.0570   25.8391 C   0  0  0  0  0  0  0  0  0  0  0  0
   10.3194   -1.6894   24.6329 O   0  0  0  0  0  0  0  0  0  0  0  0
   10.9436   -1.2152   21.7573 C   0  0  0  0  0  0  0  0  0  0  0  0
    9.6975   -1.1064   21.2062 N   0  0  0  0  0  0  0  0  0  0  0  0
    9.2257    0.1797   21.3799 C   0  0  0  0  0  0  0  0  0  0  0  0
  1  2  1  0
  2  3  1  0
  3  4  1  0
  4  5  2  0
  5  6  1  0
  6  7  2  0
  7  8  1  0
  8  9  1  0
  9 10  2  0
 10 11  1  0
 11 12  2  0
  2 13  1  0
 13 14  2  0
 14 15  1  0
 15 16  1  0
 15 17  2  0
 17 18  1  0
 18 19  1  0
 19 20  1  0
 20 21  1  0
 21 22  1  0
 22 23  1  0
 23 24  1  0
 23 25  2  0
 19 26  2  0
 26 27  1  0
 27 28  1  0
 12  4  1  0
 28 13  1  0
 11  7  1  0
 28 18  2  0
M  END
