CVD-0003503|dock_bobby27042020.16|mol2|24|dock2
     RDKit          3D

 27 30  0  0  0  0  0  0  0  0999 V2000
   14.2622   -2.6078   25.5028 C   0  0  0  0  0  0  0  0  0  0  0  0
   13.3787   -1.5409   24.9723 C   0  0  0  0  0  0  0  0  0  0  0  0
   12.4916   -1.6085   24.0401 N   0  0  0  0  0  0  0  0  0  0  0  0
   11.9623   -0.3355   23.9586 C   0  0  0  0  0  0  0  0  0  0  0  0
   12.5603    0.4488   24.8701 C   0  0  0  0  0  0  0  0  0  0  0  0
   13.4844   -0.3090   25.5393 O   0  0  0  0  0  0  0  0  0  0  0  0
   10.9062   -0.0876   22.9710 C   0  0  0  0  0  0  0  0  0  0  0  0
   10.0056   -0.9834   22.4467 C   0  0  0  0  0  0  0  0  0  0  0  0
    9.9261   -2.3728   22.7659 C   0  0  0  0  0  0  0  0  0  0  0  0
    9.8467   -3.4753   23.0621 N   0  0  0  0  0  0  0  0  0  0  0  0
    9.1629   -0.3179   21.5702 N   0  0  0  0  0  0  0  0  0  0  0  0
    8.0680   -0.8791   20.8017 C   0  0  0  0  0  0  0  0  0  0  0  0
    7.7608   -0.4387   19.5194 C   0  0  0  0  0  0  0  0  0  0  0  0
    6.7129   -1.0228   18.8298 C   0  0  0  0  0  0  0  0  0  0  0  0
    5.9880   -2.0140   19.4480 C   0  0  0  0  0  0  0  0  0  0  0  0
    6.2479   -2.4419   20.6829 N   0  0  0  0  0  0  0  0  0  0  0  0
    7.2774   -1.8881   21.3309 C   0  0  0  0  0  0  0  0  0  0  0  0
    9.5316    1.0293   21.5317 C   0  0  0  0  0  0  0  0  0  0  0  0
    9.0196    1.9147   20.8638 O   0  0  0  0  0  0  0  0  0  0  0  0
   10.6263    1.1628   22.3902 N   0  0  0  0  0  0  0  0  0  0  0  0
   11.3214    2.4207   22.5661 C   0  0  0  0  0  0  0  0  0  0  0  0
   12.7091    2.4852   22.5558 C   0  0  0  0  0  0  0  0  0  0  0  0
   13.3605    3.6968   22.7179 C   0  0  0  0  0  0  0  0  0  0  0  0
   12.6373    4.8642   22.8889 C   0  0  0  0  0  0  0  0  0  0  0  0
   11.2730    4.7762   22.8898 C   0  0  0  0  0  0  0  0  0  0  0  0
   10.5493    5.9162   23.0546 F   0  0  0  0  0  0  0  0  0  0  0  0
   10.5927    3.5939   22.7326 C   0  0  0  0  0  0  0  0  0  0  0  0
  1  2  1  0
  2  3  2  0
  3  4  1  0
  4  5  2  0
  5  6  1  0
  4  7  1  0
  7  8  2  0
  8  9  1  0
  9 10  3  0
  8 11  1  0
 11 12  1  0
 12 13  2  0
 13 14  1  0
 14 15  2  0
 15 16  1  0
 16 17  2  0
 11 18  1  0
 18 19  2  0
 18 20  1  0
 20 21  1  0
 21 22  2  0
 22 23  1  0
 23 24  2  0
 24 25  1  0
 25 26  1  0
 25 27  2  0
  6  2  1  0
 20  7  1  0
 27 21  1  0
 17 12  1  0
M  END
