CVD-0002789|dock_bobby27042020.62|mol2|1|dock1
     RDKit          3D

 35 39  0  0  0  0  0  0  0  0999 V2000
   13.4506   -2.4548   22.6092 C   0  0  0  0  0  0  0  0  0  0  0  0
   12.1155   -2.1676   21.9395 C   0  0  0  0  0  0  0  0  0  0  0  0
   11.4676   -0.9186   22.4547 C   0  0  0  0  0  0  0  0  0  0  0  0
   12.1246    0.2441   22.3409 N   0  0  0  0  0  0  0  0  0  0  0  0
   11.3928    1.2399   22.9540 N   0  0  0  0  0  0  0  0  0  0  0  0
   11.7668    2.6151   22.8322 C   0  0  0  0  0  0  0  0  0  0  0  0
   13.1013    3.0044   22.7557 C   0  0  0  0  0  0  0  0  0  0  0  0
   13.4404    4.3417   22.6333 C   0  0  0  0  0  0  0  0  0  0  0  0
   12.4606    5.3165   22.5934 C   0  0  0  0  0  0  0  0  0  0  0  0
   11.1439    4.9277   22.6738 C   0  0  0  0  0  0  0  0  0  0  0  0
    9.8962    6.1418   22.6293 Cl  0  0  0  0  0  0  0  0  0  0  0  0
   10.7831    3.6009   22.7881 C   0  0  0  0  0  0  0  0  0  0  0  0
   10.2012    0.7047   23.4120 C   0  0  0  0  0  0  0  0  0  0  0  0
    9.3226    1.3649   23.9526 O   0  0  0  0  0  0  0  0  0  0  0  0
   10.2513   -0.6986   23.0892 C   0  0  0  0  0  0  0  0  0  0  0  0
    9.2123   -1.7246   23.3567 C   0  0  0  0  0  0  0  0  0  0  0  0
    8.0744   -2.1612   22.6589 C   0  0  0  0  0  0  0  0  0  0  0  0
    7.4722   -1.6891   21.4240 N   0  0  0  0  0  0  0  0  0  0  0  0
    8.2603   -0.7912   20.7412 C   0  0  0  0  0  0  0  0  0  0  0  0
    7.8213   -0.2673   19.5860 C   0  0  0  0  0  0  0  0  0  0  0  0
    6.4809   -0.6401   19.0152 C   0  0  0  0  0  0  0  0  0  0  0  0
    5.7143   -1.6270   19.8741 C   0  0  0  0  0  0  0  0  0  0  0  0
    6.2376   -2.1015   21.0190 C   0  0  0  0  0  0  0  0  0  0  0  0
    7.5254   -3.2936   23.4691 C   0  0  0  0  0  0  0  0  0  0  0  0
    6.5526   -4.0104   23.2719 O   0  0  0  0  0  0  0  0  0  0  0  0
    8.3348   -3.4271   24.6090 N   0  0  0  0  0  0  0  0  0  0  0  0
    9.3641   -2.4792   24.5871 C   0  0  0  0  0  0  0  0  0  0  0  0
   10.2288   -2.3446   25.4454 O   0  0  0  0  0  0  0  0  0  0  0  0
    8.1411   -4.4005   25.6678 C   0  0  0  0  0  0  0  0  0  0  0  0
    9.2301   -5.0245   26.2665 C   0  0  0  0  0  0  0  0  0  0  0  0
    9.0369   -5.9550   27.2732 C   0  0  0  0  0  0  0  0  0  0  0  0
    7.7595   -6.2648   27.7037 C   0  0  0  0  0  0  0  0  0  0  0  0
    6.6570   -5.6552   27.1294 C   0  0  0  0  0  0  0  0  0  0  0  0
    5.2603   -5.9877   27.5948 C   0  0  0  0  0  0  0  0  0  0  0  0
    6.8639   -4.7369   26.1111 C   0  0  0  0  0  0  0  0  0  0  0  0
  1  2  1  0
  2  3  1  0
  3  4  1  0
  4  5  1  0
  5  6  1  0
  6  7  2  0
  7  8  1  0
  8  9  2  0
  9 10  1  0
 10 11  1  0
 10 12  2  0
  5 13  1  0
 13 14  2  0
 13 15  1  0
 15 16  1  0
 16 17  2  0
 17 18  1  0
 18 19  1  0
 19 20  2  0
 20 21  1  0
 21 22  1  0
 22 23  2  0
 17 24  1  0
 24 25  2  0
 24 26  1  0
 26 27  1  0
 27 28  2  0
 26 29  1  0
 29 30  2  0
 30 31  1  0
 31 32  2  0
 32 33  1  0
 33 34  1  0
 33 35  2  0
 15  3  2  0
 27 16  1  0
 35 29  1  0
 12  6  1  0
 23 18  1  0
M  END
