CVD-0001018|dock_bobby27042020.96|mol2|37|dock3
     RDKit          3D

 17 18  0  0  0  0  0  0  0  0999 V2000
    6.1114   -6.2123   21.2620 C   0  0  0  0  0  0  0  0  0  0  0  0
    6.8684   -5.0633   21.7106 O   0  0  0  0  0  0  0  0  0  0  0  0
    6.3810   -3.8751   21.3344 C   0  0  0  0  0  0  0  0  0  0  0  0
    5.4405   -3.7324   20.5914 O   0  0  0  0  0  0  0  0  0  0  0  0
    7.0683   -2.8516   21.8848 N   0  0  0  0  0  0  0  0  0  0  0  0
    6.7973   -1.4265   21.6703 C   0  0  0  0  0  0  0  0  0  0  0  0
    8.0504   -0.7035   21.2194 C   0  0  0  0  0  0  0  0  0  0  0  0
    9.2285   -0.9409   22.1618 C   0  0  0  0  0  0  0  0  0  0  0  0
   10.5290   -0.3020   21.6590 C   0  0  0  0  0  0  0  0  0  0  0  0
   11.7393   -0.5898   22.5139 C   0  0  0  0  0  0  0  0  0  0  0  0
   12.6008   -1.6282   22.1962 C   0  0  0  0  0  0  0  0  0  0  0  0
   13.7129   -1.8906   22.9787 C   0  0  0  0  0  0  0  0  0  0  0  0
   13.9768   -1.1165   24.0881 C   0  0  0  0  0  0  0  0  0  0  0  0
   13.1290   -0.0800   24.4146 C   0  0  0  0  0  0  0  0  0  0  0  0
   12.0171    0.1819   23.6317 C   0  0  0  0  0  0  0  0  0  0  0  0
    9.3956   -2.4336   22.4154 C   0  0  0  0  0  0  0  0  0  0  0  0
    8.1127   -3.0910   22.8742 C   0  0  0  0  0  0  0  0  0  0  0  0
  1  2  1  0
  2  3  1  0
  3  4  2  0
  3  5  1  0
  5  6  1  0
  6  7  1  0
  7  8  1  0
  8  9  1  0
  9 10  1  0
 10 11  2  0
 11 12  1  0
 12 13  2  0
 13 14  1  0
 14 15  2  0
  8 16  1  0
 16 17  1  0
 17  5  1  0
 15 10  1  0
M  END
