CVD-0001020|dock_bobby27042020.68|mol2|24|dock1
     RDKit          3D

 16 17  0  0  0  0  0  0  0  0999 V2000
    6.1140   -0.1297   18.3072 N   0  0  0  0  0  0  0  0  0  0  0  0
    6.2323   -1.2493   19.0658 C   0  0  0  0  0  0  0  0  0  0  0  0
    5.6324   -2.3492   18.6570 N   0  0  0  0  0  0  0  0  0  0  0  0
    6.9803   -1.1929   20.2448 N   0  0  0  0  0  0  0  0  0  0  0  0
    6.6627   -1.9984   21.4278 C   0  0  0  0  0  0  0  0  0  0  0  0
    7.8854   -2.6422   22.0177 C   0  0  0  0  0  0  0  0  0  0  0  0
    8.9494   -1.5928   22.3581 C   0  0  0  0  0  0  0  0  0  0  0  0
   10.2036   -2.2345   22.9644 C   0  0  0  0  0  0  0  0  0  0  0  0
   11.4114   -1.3301   23.0037 C   0  0  0  0  0  0  0  0  0  0  0  0
   11.5079   -0.3172   23.9452 C   0  0  0  0  0  0  0  0  0  0  0  0
   12.6146    0.5148   23.9794 C   0  0  0  0  0  0  0  0  0  0  0  0
   13.6374    0.3440   23.0714 C   0  0  0  0  0  0  0  0  0  0  0  0
   13.5532   -0.6583   22.1292 C   0  0  0  0  0  0  0  0  0  0  0  0
   12.4464   -1.4901   22.0955 C   0  0  0  0  0  0  0  0  0  0  0  0
    9.2508   -0.7895   21.1181 C   0  0  0  0  0  0  0  0  0  0  0  0
    8.0160   -0.1659   20.5032 C   0  0  0  0  0  0  0  0  0  0  0  0
  1  2  1  0
  2  3  2  0
  2  4  1  0
  4  5  1  0
  5  6  1  0
  6  7  1  0
  7  8  1  0
  8  9  1  0
  9 10  2  0
 10 11  1  0
 11 12  2  0
 12 13  1  0
 13 14  2  0
  7 15  1  0
 15 16  1  0
 16  4  1  0
 14  9  1  0
M  END
