CVD-0003957|dock_bobby27042020.58|mol2|10|dock1
     RDKit          3D

 22 23  0  0  0  0  0  0  0  0999 V2000
   10.9575    0.4041   22.3579 C   0  0  0  0  0  0  0  0  0  0  0  0
   11.3102   -0.9741   22.6569 N   0  0  0  0  0  0  0  0  0  0  0  0
   10.3405   -2.0001   22.2583 C   0  0  0  0  0  0  0  0  0  0  0  0
    8.9076   -1.5250   22.2014 C   0  0  0  0  0  0  0  0  0  0  0  0
    8.1490   -1.4090   23.3609 C   0  0  0  0  0  0  0  0  0  0  0  0
    6.8465   -0.9762   23.2699 C   0  0  0  0  0  0  0  0  0  0  0  0
    6.1281   -0.8712   24.4203 F   0  0  0  0  0  0  0  0  0  0  0  0
    6.2245   -0.6427   22.0891 C   0  0  0  0  0  0  0  0  0  0  0  0
    6.9631   -0.7517   20.9114 C   0  0  0  0  0  0  0  0  0  0  0  0
    6.6868   -0.5084   19.5243 C   0  0  0  0  0  0  0  0  0  0  0  0
    5.3888   -0.0232   18.9485 C   0  0  0  0  0  0  0  0  0  0  0  0
    5.4367    1.4302   18.5212 C   0  0  0  0  0  0  0  0  0  0  0  0
    4.1079    2.0216   18.4575 N   0  0  0  0  0  0  0  0  0  0  0  0
    3.4702    2.4767   19.5379 C   0  0  0  0  0  0  0  0  0  0  0  0
    2.0990    3.0403   19.3070 C   0  0  0  0  0  0  0  0  0  0  0  0
    3.9703    2.4232   20.6572 O   0  0  0  0  0  0  0  0  0  0  0  0
    7.8336   -0.8057   18.8475 C   0  0  0  0  0  0  0  0  0  0  0  0
    8.8082   -1.2182   19.7151 N   0  0  0  0  0  0  0  0  0  0  0  0
    8.2966   -1.1929   20.9891 C   0  0  0  0  0  0  0  0  0  0  0  0
   12.4360   -1.3092   23.3122 C   0  0  0  0  0  0  0  0  0  0  0  0
   13.3611   -0.2039   23.7304 C   0  0  0  0  0  0  0  0  0  0  0  0
   12.6982   -2.4827   23.5507 O   0  0  0  0  0  0  0  0  0  0  0  0
  1  2  1  0
  2  3  1  0
  3  4  1  0
  4  5  2  0
  5  6  1  0
  6  7  1  0
  6  8  2  0
  8  9  1  0
  9 10  1  0
 10 11  1  0
 11 12  1  0
 12 13  1  0
 13 14  1  0
 14 15  1  0
 14 16  2  0
 10 17  2  0
 17 18  1  0
 18 19  1  0
  2 20  1  0
 20 21  1  0
 20 22  2  0
 19  4  1  0
 19  9  2  0
M  END
