CVD-0000569|dock_bobby27042020.98|mol2|11|dock1
     RDKit          3D

 25 27  0  0  0  0  0  0  0  0999 V2000
    7.5361    0.2526   18.2177 C   0  0  0  0  0  0  0  0  0  0  0  0
    6.6590    0.3234   19.4414 C   0  0  0  0  0  0  0  0  0  0  0  0
    5.3347    0.7214   19.2843 C   0  0  0  0  0  0  0  0  0  0  0  0
    4.5075    0.7931   20.3822 C   0  0  0  0  0  0  0  0  0  0  0  0
    4.9101    0.4963   21.6142 N   0  0  0  0  0  0  0  0  0  0  0  0
    6.1798    0.1117   21.7776 C   0  0  0  0  0  0  0  0  0  0  0  0
    7.1052    0.0032   20.7385 C   0  0  0  0  0  0  0  0  0  0  0  0
    8.4590   -0.4063   20.9027 N   0  0  0  0  0  0  0  0  0  0  0  0
    9.3454   -0.1179   21.9137 C   0  0  0  0  0  0  0  0  0  0  0  0
    9.1097    0.5770   22.8977 O   0  0  0  0  0  0  0  0  0  0  0  0
   10.5529   -0.6970   21.7133 N   0  0  0  0  0  0  0  0  0  0  0  0
   11.7004   -0.5780   22.5970 C   0  0  0  0  0  0  0  0  0  0  0  0
   11.2112   -0.9965   23.9811 C   0  0  0  0  0  0  0  0  0  0  0  0
   12.3625   -1.0803   24.9635 C   0  0  0  0  0  0  0  0  0  0  0  0
   13.4442   -2.0294   24.4711 C   0  0  0  0  0  0  0  0  0  0  0  0
   13.9302   -1.6275   23.0881 C   0  0  0  0  0  0  0  0  0  0  0  0
   12.7779   -1.5295   22.0963 C   0  0  0  0  0  0  0  0  0  0  0  0
   12.1392    0.8238   22.7547 C   0  0  0  0  0  0  0  0  0  0  0  0
   12.4630    1.9725   22.7824 C   0  0  0  0  0  0  0  0  0  0  0  0
   12.7658    3.3787   22.8244 C   0  0  0  0  0  0  0  0  0  0  0  0
   11.8508    4.2770   23.3644 C   0  0  0  0  0  0  0  0  0  0  0  0
   12.1850    5.6198   23.3836 C   0  0  0  0  0  0  0  0  0  0  0  0
   13.3987    6.0269   22.8742 C   0  0  0  0  0  0  0  0  0  0  0  0
   14.2429    5.0693   22.3592 C   0  0  0  0  0  0  0  0  0  0  0  0
   13.9556    3.7610   22.3227 N   0  0  0  0  0  0  0  0  0  0  0  0
  1  2  1  0
  2  3  2  0
  3  4  1  0
  4  5  2  0
  5  6  1  0
  6  7  2  0
  7  8  1  0
  8  9  1  0
  9 10  2  0
  9 11  1  0
 11 12  1  0
 12 13  1  0
 13 14  1  0
 14 15  1  0
 15 16  1  0
 16 17  1  0
 12 18  1  0
 18 19  3  0
 19 20  1  0
 20 21  2  0
 21 22  1  0
 22 23  2  0
 23 24  1  0
 24 25  2  0
  7  2  1  0
 17 12  1  0
 25 20  1  0
M  END
