CVD-0003200|dock_bobby27042020.60|mol2|30|dock2
     RDKit          3D

 27 28  0  0  0  0  0  0  0  0999 V2000
    9.3554   -2.4511   22.7346 C   0  0  0  0  0  0  0  0  0  0  0  0
    9.9147   -1.1003   22.3691 C   0  0  0  0  0  0  0  0  0  0  0  0
    8.8481   -0.0873   22.1803 N   0  0  0  0  0  0  0  0  0  0  0  0
    7.5476   -0.4387   21.9628 C   0  0  0  0  0  0  0  0  0  0  0  0
    6.7620    0.6530   21.8001 C   0  0  0  0  0  0  0  0  0  0  0  0
    5.2834    0.6876   21.5461 C   0  0  0  0  0  0  0  0  0  0  0  0
    4.9176    1.4331   20.2781 C   0  0  0  0  0  0  0  0  0  0  0  0
    5.9715    1.2927   19.2661 N   0  0  0  0  0  0  0  0  0  0  0  0
    5.6626    0.5065   17.9034 S   0  0  0  0  0  0  0  0  0  0  0  0
    5.9025   -1.2011   18.2094 C   0  0  0  0  0  0  0  0  0  0  0  0
    4.2794    0.7138   17.6044 O   0  0  0  0  0  0  0  0  0  0  0  0
    6.6388    0.9273   16.9464 O   0  0  0  0  0  0  0  0  0  0  0  0
    7.6282    1.7873   21.9182 C   0  0  0  0  0  0  0  0  0  0  0  0
    7.4143    3.1608   21.8547 C   0  0  0  0  0  0  0  0  0  0  0  0
    8.4889    4.0311   22.0096 C   0  0  0  0  0  0  0  0  0  0  0  0
    9.7755    3.5367   22.2205 C   0  0  0  0  0  0  0  0  0  0  0  0
   10.0343    2.1657   22.2819 C   0  0  0  0  0  0  0  0  0  0  0  0
   11.4499    1.6605   22.4942 C   0  0  0  0  0  0  0  0  0  0  0  0
   12.5620    2.6770   22.2963 C   0  0  0  0  0  0  0  0  0  0  0  0
   12.4865    3.7464   23.2997 N   0  0  0  0  0  0  0  0  0  0  0  0
   13.3654    5.0749   23.1146 S   0  0  0  0  0  0  0  0  0  0  0  0
   13.0342    6.1238   24.4773 C   0  0  0  0  0  0  0  0  0  0  0  0
   14.7385    4.6803   23.1828 O   0  0  0  0  0  0  0  0  0  0  0  0
   12.9019    5.7280   21.9295 O   0  0  0  0  0  0  0  0  0  0  0  0
    8.9296    1.3034   22.1398 C   0  0  0  0  0  0  0  0  0  0  0  0
    8.2703    5.4553   21.9513 C   0  0  0  0  0  0  0  0  0  0  0  0
    8.0653    6.5778   21.8974 N   0  0  0  0  0  0  0  0  0  0  0  0
  1  2  1  0
  2  3  1  0
  3  4  1  0
  4  5  2  0
  5  6  1  0
  6  7  1  0
  7  8  1  0
  8  9  1  0
  9 10  1  0
  9 11  2  0
  9 12  2  0
  5 13  1  0
 13 14  2  0
 14 15  1  0
 15 16  2  0
 16 17  1  0
 17 18  1  0
 18 19  1  0
 19 20  1  0
 20 21  1  0
 21 22  1  0
 21 23  2  0
 21 24  2  0
 17 25  2  0
 15 26  1  0
 26 27  3  0
 25  3  1  0
 25 13  1  0
M  END
