CVD-0002565|dock_bobby27042020.77|mol2|1|dock1
     RDKit          3D

 34 38  0  0  0  0  0  0  0  0999 V2000
    8.8491    1.0873   21.1160 O   0  0  0  0  0  0  0  0  0  0  0  0
    9.4257    0.1656   20.5480 C   0  0  0  0  0  0  0  0  0  0  0  0
    8.8559   -0.6171   19.5702 N   0  0  0  0  0  0  0  0  0  0  0  0
    7.5589   -0.5788   18.9986 C   0  0  0  0  0  0  0  0  0  0  0  0
    6.8114   -1.7048   18.6667 C   0  0  0  0  0  0  0  0  0  0  0  0
    5.5531   -1.5433   18.1124 C   0  0  0  0  0  0  0  0  0  0  0  0
    5.0767   -0.2695   17.9052 C   0  0  0  0  0  0  0  0  0  0  0  0
    5.7684    0.8273   18.2126 N   0  0  0  0  0  0  0  0  0  0  0  0
    6.9816    0.6607   18.7469 C   0  0  0  0  0  0  0  0  0  0  0  0
   10.7221   -0.2200   20.8040 N   0  0  0  0  0  0  0  0  0  0  0  0
   11.6815    0.2897   21.7158 C   0  0  0  0  0  0  0  0  0  0  0  0
   12.6732   -0.4901   22.3012 C   0  0  0  0  0  0  0  0  0  0  0  0
   13.5724    0.0909   23.1752 C   0  0  0  0  0  0  0  0  0  0  0  0
   13.4996    1.4405   23.4688 C   0  0  0  0  0  0  0  0  0  0  0  0
   12.5116    2.2388   22.9021 C   0  0  0  0  0  0  0  0  0  0  0  0
   11.6043    1.6443   22.0267 C   0  0  0  0  0  0  0  0  0  0  0  0
   12.4252    3.5954   23.1978 N   0  0  0  0  0  0  0  0  0  0  0  0
   11.7222    4.0266   24.4151 C   0  0  0  0  0  0  0  0  0  0  0  0
   11.2980    5.4866   24.3014 C   0  0  0  0  0  0  0  0  0  0  0  0
   12.4082    6.3507   23.9309 N   0  0  0  0  0  0  0  0  0  0  0  0
   13.1360    5.8760   22.7445 C   0  0  0  0  0  0  0  0  0  0  0  0
   13.6073    4.4621   22.9582 C   0  0  0  0  0  0  0  0  0  0  0  0
   12.7948    7.5154   24.5011 C   0  0  0  0  0  0  0  0  0  0  0  0
   13.7595    8.1425   24.0815 O   0  0  0  0  0  0  0  0  0  0  0  0
   12.0122    8.0550   25.6858 C   0  0  0  0  0  0  0  0  0  0  0  0
   12.5846    9.3163   26.2602 C   0  0  0  0  0  0  0  0  0  0  0  0
   12.1545   10.5919   26.0400 C   0  0  0  0  0  0  0  0  0  0  0  0
   12.9238   11.4862   26.7358 N   0  0  0  0  0  0  0  0  0  0  0  0
   13.8760   10.7954   27.4261 C   0  0  0  0  0  0  0  0  0  0  0  0
   14.8274   11.3003   28.2296 N   0  0  0  0  0  0  0  0  0  0  0  0
   15.6531   10.4128   28.8008 C   0  0  0  0  0  0  0  0  0  0  0  0
   15.5707    9.0505   28.6058 C   0  0  0  0  0  0  0  0  0  0  0  0
   14.5833    8.5466   27.7740 C   0  0  0  0  0  0  0  0  0  0  0  0
   13.6989    9.4281   27.1556 C   0  0  0  0  0  0  0  0  0  0  0  0
  1  2  2  0
  2  3  1  0
  3  4  1  0
  4  5  2  0
  5  6  1  0
  6  7  2  0
  7  8  1  0
  8  9  2  0
  2 10  1  0
 10 11  1  0
 11 12  2  0
 12 13  1  0
 13 14  2  0
 14 15  1  0
 15 16  2  0
 15 17  1  0
 17 18  1  0
 18 19  1  0
 19 20  1  0
 20 21  1  0
 21 22  1  0
 20 23  1  0
 23 24  2  0
 23 25  1  0
 25 26  1  0
 26 27  2  0
 27 28  1  0
 28 29  1  0
 29 30  2  0
 30 31  1  0
 31 32  2  0
 32 33  1  0
 33 34  2  0
  9  4  1  0
 16 11  1  0
 22 17  1  0
 34 26  1  0
 34 29  1  0
M  END
