CVD-0000703|dock_bobby27042020.26|mol2|27|dock1
     RDKit          3D

 20 22  0  0  0  0  0  0  0  0999 V2000
   13.7019    3.6770   22.7460 Cl  0  0  0  0  0  0  0  0  0  0  0  0
   13.0240    2.0942   22.4856 C   0  0  0  0  0  0  0  0  0  0  0  0
   13.7865    0.9826   22.7641 C   0  0  0  0  0  0  0  0  0  0  0  0
   13.2380   -0.2703   22.5534 C   0  0  0  0  0  0  0  0  0  0  0  0
   11.9463   -0.4032   22.0715 C   0  0  0  0  0  0  0  0  0  0  0  0
   11.1829    0.7281   21.7931 C   0  0  0  0  0  0  0  0  0  0  0  0
    9.8561    0.6642   21.2988 N   0  0  0  0  0  0  0  0  0  0  0  0
    9.1903   -0.3135   20.6371 C   0  0  0  0  0  0  0  0  0  0  0  0
    9.6493   -1.4058   20.3205 O   0  0  0  0  0  0  0  0  0  0  0  0
    7.7557    0.0391   20.3049 C   0  0  0  0  0  0  0  0  0  0  0  0
    7.0154   -1.0180   19.5418 C   0  0  0  0  0  0  0  0  0  0  0  0
    6.3087   -0.8584   18.3861 C   0  0  0  0  0  0  0  0  0  0  0  0
    5.7686   -2.0508   17.9832 N   0  0  0  0  0  0  0  0  0  0  0  0
    6.1214   -3.0135   18.8830 C   0  0  0  0  0  0  0  0  0  0  0  0
    5.7949   -4.3167   18.8524 N   0  0  0  0  0  0  0  0  0  0  0  0
    6.2647   -5.0691   19.8569 C   0  0  0  0  0  0  0  0  0  0  0  0
    7.0419   -4.5797   20.8849 C   0  0  0  0  0  0  0  0  0  0  0  0
    7.3693   -3.2330   20.9010 C   0  0  0  0  0  0  0  0  0  0  0  0
    6.9055   -2.4074   19.8789 C   0  0  0  0  0  0  0  0  0  0  0  0
   11.7353    1.9873   22.0050 C   0  0  0  0  0  0  0  0  0  0  0  0
  1  2  1  0
  2  3  2  0
  3  4  1  0
  4  5  2  0
  5  6  1  0
  6  7  1  0
  7  8  1  0
  8  9  2  0
  8 10  1  0
 10 11  1  0
 11 12  2  0
 12 13  1  0
 13 14  1  0
 14 15  2  0
 15 16  1  0
 16 17  2  0
 17 18  1  0
 18 19  2  0
  6 20  2  0
 20  2  1  0
 19 11  1  0
 19 14  1  0
M  END
