CVD-0003874|dock_bobby27042020.72|mol2|27|dock2
     RDKit          3D

 23 25  0  0  0  0  0  0  0  0999 V2000
   13.3538    5.3056   21.2322 N   0  0  0  0  0  0  0  0  0  0  0  0
   13.2725    4.8503   22.7649 S   0  0  0  0  0  0  0  0  0  0  0  0
   12.3587    5.7361   23.4219 O   0  0  0  0  0  0  0  0  0  0  0  0
   14.6164    4.7577   23.2511 O   0  0  0  0  0  0  0  0  0  0  0  0
   12.5745    3.2281   22.8310 C   0  0  0  0  0  0  0  0  0  0  0  0
   13.3993    2.1192   22.7777 C   0  0  0  0  0  0  0  0  0  0  0  0
   12.8454    0.8520   22.8177 C   0  0  0  0  0  0  0  0  0  0  0  0
   11.4703    0.6640   22.9236 C   0  0  0  0  0  0  0  0  0  0  0  0
   10.6637    1.7972   22.9808 C   0  0  0  0  0  0  0  0  0  0  0  0
   11.2040    3.0699   22.9275 C   0  0  0  0  0  0  0  0  0  0  0  0
   10.9236   -0.6144   22.9698 N   0  0  0  0  0  0  0  0  0  0  0  0
   10.2542   -1.2352   21.8228 C   0  0  0  0  0  0  0  0  0  0  0  0
    8.9611   -1.8939   22.2122 C   0  0  0  0  0  0  0  0  0  0  0  0
    9.1825   -2.9269   23.3226 C   0  0  0  0  0  0  0  0  0  0  0  0
    7.8746   -3.6088   23.7283 C   0  0  0  0  0  0  0  0  0  0  0  0
    8.0788   -5.4050   23.8251 S   0  0  0  0  0  0  0  0  0  0  0  0
    8.7411   -5.6004   25.4493 C   0  0  0  0  0  0  0  0  0  0  0  0
   10.0020   -5.5867   25.9232 C   0  0  0  0  0  0  0  0  0  0  0  0
    9.9308   -5.7957   27.3186 C   0  0  0  0  0  0  0  0  0  0  0  0
    8.6399   -5.9220   27.6044 C   0  0  0  0  0  0  0  0  0  0  0  0
    7.8616   -5.8081   26.4790 O   0  0  0  0  0  0  0  0  0  0  0  0
    9.8680   -2.2504   24.4829 C   0  0  0  0  0  0  0  0  0  0  0  0
   11.1551   -1.5587   24.0874 C   0  0  0  0  0  0  0  0  0  0  0  0
  1  2  1  0
  2  3  2  0
  2  4  2  0
  2  5  1  0
  5  6  2  0
  6  7  1  0
  7  8  2  0
  8  9  1  0
  9 10  2  0
  8 11  1  0
 11 12  1  0
 12 13  1  0
 13 14  1  0
 14 15  1  0
 15 16  1  0
 16 17  1  0
 17 18  2  0
 18 19  1  0
 19 20  2  0
 20 21  1  0
 14 22  1  0
 22 23  1  0
 10  5  1  0
 23 11  1  0
 21 17  1  0
M  END
