CVD-0002961|dock_bobby27042020.18|mol2|10|dock1
     RDKit          3D

 25 28  0  0  0  0  0  0  0  0999 V2000
   10.3238   -0.5550   22.1911 O   0  0  0  0  0  0  0  0  0  0  0  0
    9.4616   -1.2343   21.6465 C   0  0  0  0  0  0  0  0  0  0  0  0
    8.6956   -0.8538   20.5683 N   0  0  0  0  0  0  0  0  0  0  0  0
    7.8470   -1.8726   20.2513 C   0  0  0  0  0  0  0  0  0  0  0  0
    6.9269   -1.8631   19.2327 N   0  0  0  0  0  0  0  0  0  0  0  0
    6.7465   -0.6968   18.3613 C   0  0  0  0  0  0  0  0  0  0  0  0
    5.7349    0.2902   18.8926 C   0  0  0  0  0  0  0  0  0  0  0  0
    5.2463    0.1771   20.1848 C   0  0  0  0  0  0  0  0  0  0  0  0
    4.3160    1.0803   20.6711 C   0  0  0  0  0  0  0  0  0  0  0  0
    3.8631    2.1065   19.8700 C   0  0  0  0  0  0  0  0  0  0  0  0
    4.3401    2.2292   18.5826 C   0  0  0  0  0  0  0  0  0  0  0  0
    5.2704    1.3257   18.0966 C   0  0  0  0  0  0  0  0  0  0  0  0
    6.1254   -2.9724   19.0319 C   0  0  0  0  0  0  0  0  0  0  0  0
    5.2758   -3.0193   18.1507 O   0  0  0  0  0  0  0  0  0  0  0  0
    6.3477   -4.0263   19.8871 N   0  0  0  0  0  0  0  0  0  0  0  0
    7.2614   -4.1281   20.9261 C   0  0  0  0  0  0  0  0  0  0  0  0
    7.3141   -5.1844   21.5531 O   0  0  0  0  0  0  0  0  0  0  0  0
    8.0365   -2.9309   21.0963 C   0  0  0  0  0  0  0  0  0  0  0  0
    9.0460   -2.5245   21.9872 N   0  0  0  0  0  0  0  0  0  0  0  0
    9.5987   -3.2742   23.0940 C   0  0  0  0  0  0  0  0  0  0  0  0
    8.7978   -4.0554   23.9143 C   0  0  0  0  0  0  0  0  0  0  0  0
    9.3798   -4.7791   24.9401 C   0  0  0  0  0  0  0  0  0  0  0  0
   10.7379   -4.6739   25.1314 C   0  0  0  0  0  0  0  0  0  0  0  0
   11.5235   -3.9046   24.3777 N   0  0  0  0  0  0  0  0  0  0  0  0
   10.9548   -3.2283   23.3748 C   0  0  0  0  0  0  0  0  0  0  0  0
  1  2  2  0
  2  3  1  0
  3  4  1  0
  4  5  1  0
  5  6  1  0
  6  7  1  0
  7  8  2  0
  8  9  1  0
  9 10  2  0
 10 11  1  0
 11 12  2  0
  5 13  1  0
 13 14  2  0
 13 15  1  0
 15 16  1  0
 16 17  2  0
 16 18  1  0
 18 19  1  0
 19 20  1  0
 20 21  2  0
 21 22  1  0
 22 23  2  0
 23 24  1  0
 24 25  2  0
 19  2  1  0
 25 20  1  0
 18  4  2  0
 12  7  1  0
M  END
