CVD-0000028|dock_bobby27042020.57|mol2|29|dock1
     RDKit          3D

 36 39  0  0  0  0  0  0  0  0999 V2000
    7.6868   -5.1863   22.0845 C   0  0  0  0  0  0  0  0  0  0  0  0
    6.9489   -4.8388   23.3767 C   0  0  0  0  0  0  0  0  0  0  0  0
    5.5378   -5.4230   23.3271 C   0  0  0  0  0  0  0  0  0  0  0  0
    6.9039   -3.3448   23.5833 C   0  0  0  0  0  0  0  0  0  0  0  0
    6.5712   -2.7903   24.8048 C   0  0  0  0  0  0  0  0  0  0  0  0
    6.5640   -1.4129   24.8571 C   0  0  0  0  0  0  0  0  0  0  0  0
    6.8551   -0.6309   23.8100 N   0  0  0  0  0  0  0  0  0  0  0  0
    7.1640   -1.2546   22.6664 C   0  0  0  0  0  0  0  0  0  0  0  0
    7.1985   -2.5884   22.5155 N   0  0  0  0  0  0  0  0  0  0  0  0
    7.4677   -0.5114   21.5726 N   0  0  0  0  0  0  0  0  0  0  0  0
    6.8668   -0.9471   20.3037 C   0  0  0  0  0  0  0  0  0  0  0  0
    5.9875    0.1137   19.6872 C   0  0  0  0  0  0  0  0  0  0  0  0
    6.2908    0.6740   18.4574 C   0  0  0  0  0  0  0  0  0  0  0  0
    5.4467    1.6419   17.9411 C   0  0  0  0  0  0  0  0  0  0  0  0
    4.3275    2.0246   18.6591 C   0  0  0  0  0  0  0  0  0  0  0  0
    4.0964    1.4111   19.8860 C   0  0  0  0  0  0  0  0  0  0  0  0
    4.9083    0.4677   20.4018 N   0  0  0  0  0  0  0  0  0  0  0  0
    2.9454    1.7681   20.6815 C   0  0  0  0  0  0  0  0  0  0  0  0
    1.9872    2.0821   21.2901 C   0  0  0  0  0  0  0  0  0  0  0  0
    8.3209    0.5982   21.4965 C   0  0  0  0  0  0  0  0  0  0  0  0
    8.4649    1.1799   20.4282 O   0  0  0  0  0  0  0  0  0  0  0  0
    8.9749    1.0191   22.6250 N   0  0  0  0  0  0  0  0  0  0  0  0
    9.8694    2.1407   22.6929 C   0  0  0  0  0  0  0  0  0  0  0  0
    9.4279    3.4624   22.8762 C   0  0  0  0  0  0  0  0  0  0  0  0
    7.9836    3.8695   22.8517 C   0  0  0  0  0  0  0  0  0  0  0  0
   10.3056    4.4503   23.0609 N   0  0  0  0  0  0  0  0  0  0  0  0
   11.6144    4.1955   22.9527 C   0  0  0  0  0  0  0  0  0  0  0  0
   12.1234    2.9428   22.6887 C   0  0  0  0  0  0  0  0  0  0  0  0
   11.2399    1.8776   22.5577 C   0  0  0  0  0  0  0  0  0  0  0  0
   11.7654    0.4876   22.2807 C   0  0  0  0  0  0  0  0  0  0  0  0
   11.8214   -0.3595   23.4807 N   0  0  0  0  0  0  0  0  0  0  0  0
   12.9280    0.0669   24.3460 C   0  0  0  0  0  0  0  0  0  0  0  0
   12.9929   -0.7648   25.6017 C   0  0  0  0  0  0  0  0  0  0  0  0
   13.1212   -2.2327   25.2900 C   0  0  0  0  0  0  0  0  0  0  0  0
   12.0240   -2.6547   24.3316 C   0  0  0  0  0  0  0  0  0  0  0  0
   12.0038   -1.7709   23.1136 C   0  0  0  0  0  0  0  0  0  0  0  0
  1  2  1  0
  2  3  1  0
  2  4  1  0
  4  5  2  0
  5  6  1  0
  6  7  2  0
  7  8  1  0
  8  9  2  0
  8 10  1  0
 10 11  1  0
 11 12  1  0
 12 13  2  0
 13 14  1  0
 14 15  2  0
 15 16  1  0
 16 17  2  0
 16 18  1  0
 18 19  3  0
 10 20  1  0
 20 21  2  0
 20 22  1  0
 22 23  1  0
 23 24  2  0
 24 25  1  0
 24 26  1  0
 26 27  2  0
 27 28  1  0
 28 29  2  0
 29 30  1  0
 30 31  1  0
 31 32  1  0
 32 33  1  0
 33 34  1  0
 34 35  1  0
 35 36  1  0
  9  4  1  0
 17 12  1  0
 29 23  1  0
 36 31  1  0
M  END
