CVD-0000545|dock_bobby27042020.55|mol2|35|dock3
     RDKit          3D

 26 28  0  0  0  0  0  0  0  0999 V2000
    4.0316    1.6407   20.9604 C   0  0  0  0  0  0  0  0  0  0  0  0
    4.8044    1.2470   19.7278 C   0  0  0  0  0  0  0  0  0  0  0  0
    4.7056    2.0554   18.5994 C   0  0  0  0  0  0  0  0  0  0  0  0
    5.3964    1.7219   17.4565 C   0  0  0  0  0  0  0  0  0  0  0  0
    6.1712    0.6451   17.3660 N   0  0  0  0  0  0  0  0  0  0  0  0
    6.2735   -0.1397   18.4433 C   0  0  0  0  0  0  0  0  0  0  0  0
    5.6195    0.1003   19.6527 C   0  0  0  0  0  0  0  0  0  0  0  0
    5.7204   -0.7294   20.8057 N   0  0  0  0  0  0  0  0  0  0  0  0
    6.7566   -1.5320   21.2231 C   0  0  0  0  0  0  0  0  0  0  0  0
    7.8243   -1.6717   20.6357 O   0  0  0  0  0  0  0  0  0  0  0  0
    6.4591   -2.1668   22.3837 N   0  0  0  0  0  0  0  0  0  0  0  0
    7.3567   -3.0733   23.0576 C   0  0  0  0  0  0  0  0  0  0  0  0
    6.6471   -4.2467   23.7696 C   0  0  0  0  0  0  0  0  0  0  0  0
    7.5340   -5.2357   23.0357 C   0  0  0  0  0  0  0  0  0  0  0  0
    8.0892   -4.0991   22.1738 C   0  0  0  0  0  0  0  0  0  0  0  0
    8.2161   -2.3664   23.9332 O   0  0  0  0  0  0  0  0  0  0  0  0
    9.1926   -1.4883   23.4235 C   0  0  0  0  0  0  0  0  0  0  0  0
    8.8617   -0.1753   23.1374 C   0  0  0  0  0  0  0  0  0  0  0  0
    9.8344    0.6778   22.6436 C   0  0  0  0  0  0  0  0  0  0  0  0
   11.1258    0.2244   22.4311 C   0  0  0  0  0  0  0  0  0  0  0  0
   11.4362   -1.0948   22.7189 C   0  0  0  0  0  0  0  0  0  0  0  0
   10.4765   -1.9641   23.2147 C   0  0  0  0  0  0  0  0  0  0  0  0
   13.0776   -1.6884   22.4424 S   0  0  0  0  0  0  0  0  0  0  0  0
   13.2687   -1.9390   20.8728 N   0  0  0  0  0  0  0  0  0  0  0  0
   13.9799   -0.6411   22.8170 O   0  0  0  0  0  0  0  0  0  0  0  0
   13.1872   -2.9606   23.0907 O   0  0  0  0  0  0  0  0  0  0  0  0
  1  2  1  0
  2  3  2  0
  3  4  1  0
  4  5  2  0
  5  6  1  0
  6  7  2  0
  7  8  1  0
  8  9  1  0
  9 10  2  0
  9 11  1  0
 11 12  1  0
 12 13  1  0
 13 14  1  0
 14 15  1  0
 12 16  1  0
 16 17  1  0
 17 18  2  0
 18 19  1  0
 19 20  2  0
 20 21  1  0
 21 22  2  0
 21 23  1  0
 23 24  1  0
 23 25  2  0
 23 26  2  0
  7  2  1  0
 15 12  1  0
 22 17  1  0
M  END
