CVD-0002299|dock_bobby27042020.64|mol2|2|dock2
     RDKit          3D

 40 43  0  0  0  0  0  0  0  0999 V2000
    7.2047    7.0619   21.2221 C   0  0  0  0  0  0  0  0  0  0  0  0
    6.9767    6.5173   22.6243 C   0  0  0  0  0  0  0  0  0  0  0  0
    7.7195    7.3188   23.6827 C   0  0  0  0  0  0  0  0  0  0  0  0
    7.2963    5.0681   22.7090 N   0  0  0  0  0  0  0  0  0  0  0  0
    6.1453    4.1772   22.5686 C   0  0  0  0  0  0  0  0  0  0  0  0
    8.5782    4.6520   22.9016 C   0  0  0  0  0  0  0  0  0  0  0  0
    9.4836    5.4574   23.0031 O   0  0  0  0  0  0  0  0  0  0  0  0
    8.9722    3.1869   23.0053 C   0  0  0  0  0  0  0  0  0  0  0  0
   10.1636    2.9168   23.9254 C   0  0  0  0  0  0  0  0  0  0  0  0
   10.4461    1.4273   24.0921 C   0  0  0  0  0  0  0  0  0  0  0  0
   10.7169    0.7242   22.7620 C   0  0  0  0  0  0  0  0  0  0  0  0
    9.5373    1.0122   21.8319 C   0  0  0  0  0  0  0  0  0  0  0  0
    9.2450    2.5026   21.6725 C   0  0  0  0  0  0  0  0  0  0  0  0
   10.8304   -0.7306   22.9804 N   0  0  0  0  0  0  0  0  0  0  0  0
   10.8772   -1.5927   21.7993 C   0  0  0  0  0  0  0  0  0  0  0  0
    9.5717   -2.3218   21.6189 C   0  0  0  0  0  0  0  0  0  0  0  0
    9.0635   -3.3061   22.4837 C   0  0  0  0  0  0  0  0  0  0  0  0
    7.8370   -3.7611   22.0306 C   0  0  0  0  0  0  0  0  0  0  0  0
    6.9862   -4.7980   22.6772 C   0  0  0  0  0  0  0  0  0  0  0  0
    6.2437   -5.7059   21.9170 C   0  0  0  0  0  0  0  0  0  0  0  0
    5.4472   -6.6678   22.5154 C   0  0  0  0  0  0  0  0  0  0  0  0
    5.3560   -6.7469   23.8856 C   0  0  0  0  0  0  0  0  0  0  0  0
    6.0707   -5.8632   24.6714 C   0  0  0  0  0  0  0  0  0  0  0  0
    6.8658   -4.9241   24.0581 C   0  0  0  0  0  0  0  0  0  0  0  0
    7.5550   -4.1027   24.8827 F   0  0  0  0  0  0  0  0  0  0  0  0
    7.5830   -3.0300   20.8334 N   0  0  0  0  0  0  0  0  0  0  0  0
    8.6418   -2.1601   20.6047 C   0  0  0  0  0  0  0  0  0  0  0  0
    6.3068   -3.0365   19.7142 S   0  0  0  0  0  0  0  0  0  0  0  0
    6.7076   -3.8517   18.6094 O   0  0  0  0  0  0  0  0  0  0  0  0
    5.1558   -3.4157   20.4731 O   0  0  0  0  0  0  0  0  0  0  0  0
    6.0611   -1.3742   19.1912 C   0  0  0  0  0  0  0  0  0  0  0  0
    5.6234   -0.4153   20.0887 C   0  0  0  0  0  0  0  0  0  0  0  0
    5.4483    0.8809   19.6359 C   0  0  0  0  0  0  0  0  0  0  0  0
    5.7169    1.1633   18.3156 C   0  0  0  0  0  0  0  0  0  0  0  0
    6.1407    0.2502   17.4407 N   0  0  0  0  0  0  0  0  0  0  0  0
    6.3079   -0.9991   17.8843 C   0  0  0  0  0  0  0  0  0  0  0  0
   12.0246    1.1980   22.0896 C   0  0  0  0  0  0  0  0  0  0  0  0
   11.9781    1.8563   21.0758 O   0  0  0  0  0  0  0  0  0  0  0  0
   13.3443    0.8064   22.7389 C   0  0  0  0  0  0  0  0  0  0  0  0
   13.9338   -0.7467   22.1324 Cl  0  0  0  0  0  0  0  0  0  0  0  0
  1  2  1  0
  2  3  1  0
  2  4  1  0
  4  5  1  0
  4  6  1  0
  6  7  2  0
  6  8  1  0
  8  9  1  0
  9 10  1  0
 10 11  1  0
 11 12  1  0
 12 13  1  0
 11 14  1  0
 14 15  1  0
 15 16  1  0
 16 17  1  0
 17 18  2  0
 18 19  1  0
 19 20  2  0
 20 21  1  0
 21 22  2  0
 22 23  1  0
 23 24  2  0
 24 25  1  0
 18 26  1  0
 26 27  1  0
 26 28  1  0
 28 29  2  0
 28 30  2  0
 28 31  1  0
 31 32  2  0
 32 33  1  0
 33 34  2  0
 34 35  1  0
 35 36  2  0
 11 37  1  0
 37 38  2  0
 37 39  1  0
 39 40  1  0
 13  8  1  0
 27 16  2  0
 36 31  1  0
 24 19  1  0
M  END
