CVD-0000498|dock_bobby27042020.27|mol2|4|dock1
     RDKit          3D

 34 35  0  0  0  0  0  0  0  0999 V2000
   13.3108   -1.8640   20.7159 N   0  0  0  0  0  0  0  0  0  0  0  0
   13.0825   -1.5697   21.9861 C   0  0  0  0  0  0  0  0  0  0  0  0
   13.9921   -1.3837   22.7996 O   0  0  0  0  0  0  0  0  0  0  0  0
   11.6353   -1.4705   22.4009 C   0  0  0  0  0  0  0  0  0  0  0  0
   11.4404   -1.2747   23.8978 C   0  0  0  0  0  0  0  0  0  0  0  0
   11.8089    0.1291   24.3446 C   0  0  0  0  0  0  0  0  0  0  0  0
   10.9185    1.1552   23.7891 N   0  0  0  0  0  0  0  0  0  0  0  0
   11.5167    2.0212   22.7641 C   0  0  0  0  0  0  0  0  0  0  0  0
   12.1169    3.2909   23.3337 C   0  0  0  0  0  0  0  0  0  0  0  0
   12.4049    4.2433   22.2545 N   0  0  0  0  0  0  0  0  0  0  0  0
   13.6260    5.4179   22.4948 S   0  0  0  0  0  0  0  0  0  0  0  0
   13.1625    6.4100   23.5636 N   0  0  0  0  0  0  0  0  0  0  0  0
   13.8019    6.1641   21.2306 O   0  0  0  0  0  0  0  0  0  0  0  0
   14.8308    4.7311   23.0071 O   0  0  0  0  0  0  0  0  0  0  0  0
    9.6245    1.2268   24.1614 C   0  0  0  0  0  0  0  0  0  0  0  0
    9.1880    0.4551   24.9938 O   0  0  0  0  0  0  0  0  0  0  0  0
    8.7058    2.2783   23.5277 C   0  0  0  0  0  0  0  0  0  0  0  0
    7.4625    2.5111   24.4043 C   0  0  0  0  0  0  0  0  0  0  0  0
    7.7912    3.0961   25.7563 C   0  0  0  0  0  0  0  0  0  0  0  0
    7.8527    2.2907   26.8828 C   0  0  0  0  0  0  0  0  0  0  0  0
    8.1502    2.8208   28.1256 C   0  0  0  0  0  0  0  0  0  0  0  0
    8.3913    4.1789   28.2568 C   0  0  0  0  0  0  0  0  0  0  0  0
    8.6857    4.7082   29.4793 O   0  0  0  0  0  0  0  0  0  0  0  0
    8.3320    4.9966   27.1397 C   0  0  0  0  0  0  0  0  0  0  0  0
    8.0333    4.4530   25.9030 C   0  0  0  0  0  0  0  0  0  0  0  0
    8.3617    1.9166   22.1565 N   0  0  0  0  0  0  0  0  0  0  0  0
    7.8792    0.7052   21.7880 C   0  0  0  0  0  0  0  0  0  0  0  0
    7.8730   -0.2799   22.5215 O   0  0  0  0  0  0  0  0  0  0  0  0
    7.3783    0.6406   20.4854 N   0  0  0  0  0  0  0  0  0  0  0  0
    6.8309   -0.4492   19.8477 C   0  0  0  0  0  0  0  0  0  0  0  0
    6.6295   -1.6290   20.4196 N   0  0  0  0  0  0  0  0  0  0  0  0
    6.0733   -2.4096   19.4337 C   0  0  0  0  0  0  0  0  0  0  0  0
    5.9453   -1.7024   18.2887 C   0  0  0  0  0  0  0  0  0  0  0  0
    6.4293   -0.4541   18.5577 N   0  0  0  0  0  0  0  0  0  0  0  0
  1  2  1  0
  2  3  2  0
  2  4  1  0
  4  5  1  0
  5  6  1  0
  6  7  1  0
  7  8  1  0
  8  9  1  0
  9 10  1  0
 10 11  1  0
 11 12  1  0
 11 13  2  0
 11 14  2  0
  7 15  1  0
 15 16  2  0
 15 17  1  0
 17 18  1  0
 18 19  1  0
 19 20  2  0
 20 21  1  0
 21 22  2  0
 22 23  1  0
 22 24  1  0
 24 25  2  0
 17 26  1  0
 26 27  1  0
 27 28  2  0
 27 29  1  0
 29 30  1  0
 30 31  2  0
 31 32  1  0
 32 33  2  0
 33 34  1  0
 25 19  1  0
 34 30  1  0
M  END
