CVD-0002401|dock_bobby27042020.77|mol2|26|dock1
     RDKit          3D

 26 29  0  0  0  0  0  0  0  0999 V2000
    7.5105   -6.0151   25.7319 F   0  0  0  0  0  0  0  0  0  0  0  0
    8.0561   -5.0950   24.9044 C   0  0  0  0  0  0  0  0  0  0  0  0
    7.2600   -4.4551   23.9929 C   0  0  0  0  0  0  0  0  0  0  0  0
    7.8140   -3.5114   23.1272 C   0  0  0  0  0  0  0  0  0  0  0  0
    6.9237   -2.8994   22.1249 C   0  0  0  0  0  0  0  0  0  0  0  0
    5.7238   -3.1163   22.1402 O   0  0  0  0  0  0  0  0  0  0  0  0
    7.5003   -2.0176   21.2072 N   0  0  0  0  0  0  0  0  0  0  0  0
    8.8403   -1.6601   21.1899 C   0  0  0  0  0  0  0  0  0  0  0  0
    9.3087   -0.9191   20.3463 O   0  0  0  0  0  0  0  0  0  0  0  0
    9.7903   -2.1769   22.2525 C   0  0  0  0  0  0  0  0  0  0  0  0
   10.2948   -0.9687   23.0328 C   0  0  0  0  0  0  0  0  0  0  0  0
    9.5247   -0.4010   24.0382 C   0  0  0  0  0  0  0  0  0  0  0  0
    9.9823    0.6986   24.7449 C   0  0  0  0  0  0  0  0  0  0  0  0
   11.2143    1.2444   24.4548 C   0  0  0  0  0  0  0  0  0  0  0  0
   11.9894    0.6916   23.4580 C   0  0  0  0  0  0  0  0  0  0  0  0
   11.5327   -0.4081   22.7507 C   0  0  0  0  0  0  0  0  0  0  0  0
    9.1786   -3.2102   23.1805 C   0  0  0  0  0  0  0  0  0  0  0  0
    9.9519   -3.8855   24.1240 C   0  0  0  0  0  0  0  0  0  0  0  0
    9.4052   -4.8192   24.9806 C   0  0  0  0  0  0  0  0  0  0  0  0
   10.4040   -5.5902   26.1687 Cl  0  0  0  0  0  0  0  0  0  0  0  0
    6.6405   -1.4389   20.1903 C   0  0  0  0  0  0  0  0  0  0  0  0
    6.6248   -0.0708   19.9480 C   0  0  0  0  0  0  0  0  0  0  0  0
    5.7930    0.4421   18.9685 C   0  0  0  0  0  0  0  0  0  0  0  0
    4.9999   -0.4281   18.2579 C   0  0  0  0  0  0  0  0  0  0  0  0
    4.9928   -1.7442   18.4687 N   0  0  0  0  0  0  0  0  0  0  0  0
    5.7987   -2.2270   19.4195 C   0  0  0  0  0  0  0  0  0  0  0  0
  1  2  1  0
  2  3  2  0
  3  4  1  0
  4  5  1  0
  5  6  2  0
  5  7  1  0
  7  8  1  0
  8  9  2  0
  8 10  1  0
 10 11  1  0
 11 12  2  0
 12 13  1  0
 13 14  2  0
 14 15  1  0
 15 16  2  0
 10 17  1  0
 17 18  1  0
 18 19  2  0
 19 20  1  0
  7 21  1  0
 21 22  2  0
 22 23  1  0
 23 24  2  0
 24 25  1  0
 25 26  2  0
 19  2  1  0
 26 21  1  0
 17  4  2  0
 16 11  1  0
M  END
