CVD-0002258|dock_bobby27042020.92|mol2|13|dock2
     RDKit          3D

 25 27  0  0  0  0  0  0  0  0999 V2000
   13.6404   -1.0255   22.7815 C   0  0  0  0  0  0  0  0  0  0  0  0
   13.0982    0.3800   22.8072 C   0  0  0  0  0  0  0  0  0  0  0  0
   13.9753    1.4530   22.6786 C   0  0  0  0  0  0  0  0  0  0  0  0
   13.4861    2.7413   22.7032 C   0  0  0  0  0  0  0  0  0  0  0  0
   12.1946    3.0310   22.8458 N   0  0  0  0  0  0  0  0  0  0  0  0
   11.3432    2.0083   22.9713 C   0  0  0  0  0  0  0  0  0  0  0  0
   11.7322    0.6718   22.9618 C   0  0  0  0  0  0  0  0  0  0  0  0
   10.8236   -0.3528   23.0977 N   0  0  0  0  0  0  0  0  0  0  0  0
    9.5858   -0.2493   23.8461 C   0  0  0  0  0  0  0  0  0  0  0  0
    8.7049   -1.4420   23.5134 C   0  0  0  0  0  0  0  0  0  0  0  0
    8.3297   -2.2120   24.3884 O   0  0  0  0  0  0  0  0  0  0  0  0
    8.3573   -1.6039   22.2208 N   0  0  0  0  0  0  0  0  0  0  0  0
    7.5172   -2.7212   21.8220 C   0  0  0  0  0  0  0  0  0  0  0  0
    6.3432   -2.2414   21.0280 C   0  0  0  0  0  0  0  0  0  0  0  0
    6.8274   -1.4592   19.8816 N   0  0  0  0  0  0  0  0  0  0  0  0
    7.6067   -0.2883   20.3101 C   0  0  0  0  0  0  0  0  0  0  0  0
    8.7892   -0.7528   21.1076 C   0  0  0  0  0  0  0  0  0  0  0  0
    5.8230   -1.2945   18.6211 S   0  0  0  0  0  0  0  0  0  0  0  0
    6.6283   -1.1989   17.4443 O   0  0  0  0  0  0  0  0  0  0  0  0
    4.8400   -2.3270   18.7225 O   0  0  0  0  0  0  0  0  0  0  0  0
    4.9930    0.2249   18.8019 C   0  0  0  0  0  0  0  0  0  0  0  0
    4.3316    0.6704   19.9965 C   0  0  0  0  0  0  0  0  0  0  0  0
    3.7646    1.9083   19.8674 C   0  0  0  0  0  0  0  0  0  0  0  0
    4.0205    2.5476   18.3129 S   0  0  0  0  0  0  0  0  0  0  0  0
    4.8814    1.1617   17.8529 C   0  0  0  0  0  0  0  0  0  0  0  0
  1  2  1  0
  2  3  2  0
  3  4  1  0
  4  5  2  0
  5  6  1  0
  6  7  2  0
  7  8  1  0
  8  9  1  0
  9 10  1  0
 10 11  2  0
 10 12  1  0
 12 13  1  0
 13 14  1  0
 14 15  1  0
 15 16  1  0
 16 17  1  0
 15 18  1  0
 18 19  2  0
 18 20  2  0
 18 21  1  0
 21 22  1  0
 22 23  2  0
 23 24  1  0
 24 25  1  0
  7  2  1  0
 17 12  1  0
 25 21  2  0
M  END
