CVD-0000738|dock_bobby27042020.97|mol2|34|dock1
     RDKit          3D

 21 23  0  0  0  0  0  0  0  0999 V2000
    9.9940   -1.9753   21.2036 N   0  0  0  0  0  0  0  0  0  0  0  0
    9.1681   -1.0352   21.6359 C   0  0  0  0  0  0  0  0  0  0  0  0
    8.9087   -0.0289   20.9722 O   0  0  0  0  0  0  0  0  0  0  0  0
    8.5535   -1.2404   23.0072 C   0  0  0  0  0  0  0  0  0  0  0  0
    7.8722   -2.5897   23.0028 C   0  0  0  0  0  0  0  0  0  0  0  0
    8.5251   -3.3395   24.1393 C   0  0  0  0  0  0  0  0  0  0  0  0
    8.1572   -4.7693   24.4528 C   0  0  0  0  0  0  0  0  0  0  0  0
    8.4967   -5.1771   25.8437 C   0  0  0  0  0  0  0  0  0  0  0  0
    7.8516   -5.4849   26.9738 C   0  0  0  0  0  0  0  0  0  0  0  0
    8.7535   -5.7920   27.9637 N   0  0  0  0  0  0  0  0  0  0  0  0
    9.8796   -5.6603   27.4045 C   0  0  0  0  0  0  0  0  0  0  0  0
    9.8326   -5.2856   26.1029 O   0  0  0  0  0  0  0  0  0  0  0  0
    9.4155   -2.5768   24.7847 C   0  0  0  0  0  0  0  0  0  0  0  0
    9.5574   -1.2202   24.1371 C   0  0  0  0  0  0  0  0  0  0  0  0
   10.9643   -0.8860   23.6679 C   0  0  0  0  0  0  0  0  0  0  0  0
   11.9046   -1.8873   23.4700 C   0  0  0  0  0  0  0  0  0  0  0  0
   13.1863   -1.5799   23.0456 C   0  0  0  0  0  0  0  0  0  0  0  0
   13.5462   -0.2630   22.8135 C   0  0  0  0  0  0  0  0  0  0  0  0
   12.6079    0.7258   23.0134 C   0  0  0  0  0  0  0  0  0  0  0  0
   13.0463    2.3864   22.7261 Cl  0  0  0  0  0  0  0  0  0  0  0  0
   11.3275    0.4322   23.4361 C   0  0  0  0  0  0  0  0  0  0  0  0
  1  2  1  0
  2  3  2  0
  4  2  1  0
  4  5  1  0
  5  6  1  0
  6  7  1  0
  7  8  1  0
  8  9  2  0
  9 10  1  0
 10 11  2  0
 11 12  1  0
  6 13  2  0
 13 14  1  0
 14 15  1  0
 15 16  2  0
 16 17  1  0
 17 18  2  0
 18 19  1  0
 19 20  1  0
 19 21  2  0
 14  4  1  0
 21 15  1  0
 12  8  1  0
M  END
