CVD-0003180|dock_bobby27042020.46|mol2|9|dock2
     RDKit          3D

 24 26  0  0  0  0  0  0  0  0999 V2000
    4.1000    2.0009   19.1851 C   0  0  0  0  0  0  0  0  0  0  0  0
    5.2368    1.1416   19.4972 N   0  0  0  0  0  0  0  0  0  0  0  0
    5.8529    0.6829   18.2574 C   0  0  0  0  0  0  0  0  0  0  0  0
    4.8301    0.0026   20.3246 C   0  0  0  0  0  0  0  0  0  0  0  0
    5.9873   -0.5775   21.0706 C   0  0  0  0  0  0  0  0  0  0  0  0
    7.0139    0.1140   21.5271 C   0  0  0  0  0  0  0  0  0  0  0  0
    8.1165   -0.5507   22.2571 C   0  0  0  0  0  0  0  0  0  0  0  0
    8.0254   -1.7407   22.5551 O   0  0  0  0  0  0  0  0  0  0  0  0
    9.2209    0.1586   22.5939 N   0  0  0  0  0  0  0  0  0  0  0  0
   10.3291   -0.5071   23.3219 C   0  0  0  0  0  0  0  0  0  0  0  0
   11.6460   -0.1893   22.6954 C   0  0  0  0  0  0  0  0  0  0  0  0
   12.7549   -0.9394   23.4230 C   0  0  0  0  0  0  0  0  0  0  0  0
   13.1960   -0.5195   24.6702 C   0  0  0  0  0  0  0  0  0  0  0  0
   14.2021   -1.2032   25.3321 C   0  0  0  0  0  0  0  0  0  0  0  0
   14.7789   -2.3147   24.7561 C   0  0  0  0  0  0  0  0  0  0  0  0
   14.3500   -2.7437   23.5183 C   0  0  0  0  0  0  0  0  0  0  0  0
   13.3438   -2.0607   22.8555 C   0  0  0  0  0  0  0  0  0  0  0  0
   11.8670    1.3027   22.6988 C   0  0  0  0  0  0  0  0  0  0  0  0
   13.1320    1.8747   22.8432 C   0  0  0  0  0  0  0  0  0  0  0  0
   13.3276    3.2422   22.7772 C   0  0  0  0  0  0  0  0  0  0  0  0
   12.2504    4.0744   22.5629 C   0  0  0  0  0  0  0  0  0  0  0  0
   10.9875    3.5301   22.4168 C   0  0  0  0  0  0  0  0  0  0  0  0
   10.7896    2.1549   22.4831 C   0  0  0  0  0  0  0  0  0  0  0  0
    9.4031    1.5690   22.2016 C   0  0  0  0  0  0  0  0  0  0  0  0
  1  2  1  0
  2  3  1  0
  2  4  1  0
  4  5  1  0
  5  6  2  0
  6  7  1  0
  7  8  2  0
  7  9  1  0
  9 10  1  0
 10 11  1  0
 11 12  1  0
 12 13  2  0
 13 14  1  0
 14 15  2  0
 15 16  1  0
 16 17  2  0
 11 18  1  0
 18 19  2  0
 19 20  1  0
 20 21  2  0
 21 22  1  0
 22 23  2  0
 23 24  1  0
 24  9  1  0
 17 12  1  0
 23 18  1  0
M  END
