CVD-0000653|dock_bobby27042020.55|mol2|19|dock3
     RDKit          3D

 25 26  0  0  0  0  0  0  0  0999 V2000
   13.2724   -1.7227   21.8632 C   0  0  0  0  0  0  0  0  0  0  0  0
   12.6689   -1.1593   23.1422 C   0  0  0  0  0  0  0  0  0  0  0  0
   12.4185    0.3334   22.9818 C   0  0  0  0  0  0  0  0  0  0  0  0
   13.6111   -1.4026   24.3127 C   0  0  0  0  0  0  0  0  0  0  0  0
   11.3802   -1.8361   23.4088 N   0  0  0  0  0  0  0  0  0  0  0  0
   10.5128   -1.5275   24.3810 C   0  0  0  0  0  0  0  0  0  0  0  0
   10.7077   -0.6384   25.2054 O   0  0  0  0  0  0  0  0  0  0  0  0
    9.2338   -2.3586   24.4147 C   0  0  0  0  0  0  0  0  0  0  0  0
    9.5594   -3.7746   24.8520 C   0  0  0  0  0  0  0  0  0  0  0  0
    8.3398   -4.5829   24.9178 N   0  0  0  0  0  0  0  0  0  0  0  0
    7.6137   -4.5673   23.6442 C   0  0  0  0  0  0  0  0  0  0  0  0
    7.3257   -3.1388   23.2191 C   0  0  0  0  0  0  0  0  0  0  0  0
    8.5638   -2.3715   23.1110 N   0  0  0  0  0  0  0  0  0  0  0  0
    8.2766   -1.0239   22.6006 C   0  0  0  0  0  0  0  0  0  0  0  0
    7.6451   -1.0255   21.2290 C   0  0  0  0  0  0  0  0  0  0  0  0
    6.3235   -0.6448   21.0569 C   0  0  0  0  0  0  0  0  0  0  0  0
    5.7441   -0.6492   19.7990 C   0  0  0  0  0  0  0  0  0  0  0  0
    6.4810   -1.0368   18.6925 C   0  0  0  0  0  0  0  0  0  0  0  0
    7.7937   -1.4153   18.8698 C   0  0  0  0  0  0  0  0  0  0  0  0
    8.7336   -1.9058   17.4883 Cl  0  0  0  0  0  0  0  0  0  0  0  0
    8.3819   -1.4150   20.1179 C   0  0  0  0  0  0  0  0  0  0  0  0
    7.9321   -5.2821   26.0006 C   0  0  0  0  0  0  0  0  0  0  0  0
    6.8944   -5.9320   25.9774 O   0  0  0  0  0  0  0  0  0  0  0  0
    8.7963   -5.2509   27.2467 C   0  0  0  0  0  0  0  0  0  0  0  0
   10.3934   -5.9436   26.9362 Cl  0  0  0  0  0  0  0  0  0  0  0  0
  1  2  1  0
  2  3  1  0
  2  4  1  0
  2  5  1  0
  5  6  1  0
  6  7  2  0
  8  6  1  0
  8  9  1  0
  9 10  1  0
 10 11  1  0
 11 12  1  0
 12 13  1  0
 13 14  1  0
 14 15  1  0
 15 16  2  0
 16 17  1  0
 17 18  2  0
 18 19  1  0
 19 20  1  0
 19 21  2  0
 10 22  1  0
 22 23  2  0
 22 24  1  0
 24 25  1  0
 13  8  1  0
 21 15  1  0
M  END
