CVD-0001293|dock_bobby27042020.81|mol2|31|dock1
     RDKit          3D

 20 21  0  0  0  0  0  0  0  0999 V2000
   13.1339   -1.4041   24.9733 C   0  0  0  0  0  0  0  0  0  0  0  0
   12.1483   -2.0367   24.1159 N   0  0  0  0  0  0  0  0  0  0  0  0
   11.0337   -1.4112   23.7715 C   0  0  0  0  0  0  0  0  0  0  0  0
   10.7150   -0.2915   24.1119 O   0  0  0  0  0  0  0  0  0  0  0  0
   10.2941   -2.2075   22.9718 O   0  0  0  0  0  0  0  0  0  0  0  0
    9.0195   -1.6942   22.4693 C   0  0  0  0  0  0  0  0  0  0  0  0
    8.1731   -2.8124   21.8644 C   0  0  0  0  0  0  0  0  0  0  0  0
    6.9041   -2.2972   21.2326 C   0  0  0  0  0  0  0  0  0  0  0  0
    7.2324   -1.2927   20.2058 N   0  0  0  0  0  0  0  0  0  0  0  0
    7.9311   -0.1367   20.8041 C   0  0  0  0  0  0  0  0  0  0  0  0
    9.2233   -0.5988   21.4244 C   0  0  0  0  0  0  0  0  0  0  0  0
    6.2794   -1.1021   18.8969 S   0  0  0  0  0  0  0  0  0  0  0  0
    5.4660   -2.2751   18.8135 O   0  0  0  0  0  0  0  0  0  0  0  0
    7.1448   -0.7564   17.8123 O   0  0  0  0  0  0  0  0  0  0  0  0
    5.2264    0.2712   19.2143 C   0  0  0  0  0  0  0  0  0  0  0  0
    4.6052    0.3865   20.4473 C   0  0  0  0  0  0  0  0  0  0  0  0
    3.7820    1.4736   20.6891 C   0  0  0  0  0  0  0  0  0  0  0  0
    3.5844    2.4296   19.7156 C   0  0  0  0  0  0  0  0  0  0  0  0
    4.2080    2.3080   18.4922 C   0  0  0  0  0  0  0  0  0  0  0  0
    5.0349    1.2283   18.2310 C   0  0  0  0  0  0  0  0  0  0  0  0
  1  2  1  0
  2  3  1  0
  3  4  2  0
  3  5  1  0
  5  6  1  0
  6  7  1  0
  7  8  1  0
  8  9  1  0
  9 10  1  0
 10 11  1  0
  9 12  1  0
 12 13  2  0
 12 14  2  0
 12 15  1  0
 15 16  2  0
 16 17  1  0
 17 18  2  0
 18 19  1  0
 19 20  2  0
 11  6  1  0
 20 15  1  0
M  END
