CVD-0002923|dock_bobby27042020.4|mol2|7|dock3
     RDKit          3D

 25 27  0  0  0  0  0  0  0  0999 V2000
   11.1836    6.0816   25.0859 C   0  0  0  0  0  0  0  0  0  0  0  0
   12.3992    5.6783   24.3044 C   0  0  0  0  0  0  0  0  0  0  0  0
   13.4423    6.3187   24.3721 O   0  0  0  0  0  0  0  0  0  0  0  0
   12.3075    4.5875   23.5052 N   0  0  0  0  0  0  0  0  0  0  0  0
   13.4213    4.1092   22.6833 C   0  0  0  0  0  0  0  0  0  0  0  0
   13.7025    2.6461   22.9712 C   0  0  0  0  0  0  0  0  0  0  0  0
   12.5044    1.8401   22.7189 N   0  0  0  0  0  0  0  0  0  0  0  0
   12.7815    0.4227   22.9571 C   0  0  0  0  0  0  0  0  0  0  0  0
   11.7738   -0.4711   22.3067 C   0  0  0  0  0  0  0  0  0  0  0  0
   10.7030   -0.1621   21.5218 C   0  0  0  0  0  0  0  0  0  0  0  0
   10.1393   -1.3483   21.2089 N   0  0  0  0  0  0  0  0  0  0  0  0
   10.8322   -2.3637   21.7776 N   0  0  0  0  0  0  0  0  0  0  0  0
   11.8266   -1.8214   22.4447 N   0  0  0  0  0  0  0  0  0  0  0  0
    8.9862   -1.6164   20.4084 C   0  0  0  0  0  0  0  0  0  0  0  0
    8.6100   -0.7313   19.4082 C   0  0  0  0  0  0  0  0  0  0  0  0
    7.4922   -0.9962   18.6349 C   0  0  0  0  0  0  0  0  0  0  0  0
    6.7428   -2.1405   18.8518 C   0  0  0  0  0  0  0  0  0  0  0  0
    7.1243   -3.0178   19.8537 C   0  0  0  0  0  0  0  0  0  0  0  0
    8.2422   -2.7672   20.6347 C   0  0  0  0  0  0  0  0  0  0  0  0
    6.1825   -4.4856   20.1392 S   0  0  0  0  0  0  0  0  0  0  0  0
    7.1643   -5.6162   20.7056 N   0  0  0  0  0  0  0  0  0  0  0  0
    5.7022   -4.9395   18.8686 O   0  0  0  0  0  0  0  0  0  0  0  0
    5.2348   -4.1915   21.1720 O   0  0  0  0  0  0  0  0  0  0  0  0
   11.4263    2.3036   23.5886 C   0  0  0  0  0  0  0  0  0  0  0  0
   11.1089    3.7634   23.3203 C   0  0  0  0  0  0  0  0  0  0  0  0
  1  2  1  0
  2  3  2  0
  2  4  1  0
  4  5  1  0
  5  6  1  0
  6  7  1  0
  7  8  1  0
  8  9  1  0
  9 10  2  0
 10 11  1  0
 11 12  1  0
 12 13  2  0
 11 14  1  0
 14 15  2  0
 15 16  1  0
 16 17  2  0
 17 18  1  0
 18 19  2  0
 18 20  1  0
 20 21  1  0
 20 22  2  0
 20 23  2  0
  7 24  1  0
 24 25  1  0
 25  4  1  0
 13  9  1  0
 19 14  1  0
M  END
