CVD-0003753|dock_bobby27042020.1|mol2|7|dock2
     RDKit          3D

 22 24  0  0  0  0  0  0  0  0999 V2000
    6.5152   -1.8380   18.0491 Cl  0  0  0  0  0  0  0  0  0  0  0  0
    5.4887   -0.5430   18.6788 C   0  0  0  0  0  0  0  0  0  0  0  0
    6.3182    0.5403   19.3397 C   0  0  0  0  0  0  0  0  0  0  0  0
    6.4858    1.6326   18.8119 O   0  0  0  0  0  0  0  0  0  0  0  0
    6.8624    0.2329   20.5342 N   0  0  0  0  0  0  0  0  0  0  0  0
    6.7334   -1.0444   21.2424 C   0  0  0  0  0  0  0  0  0  0  0  0
    8.0732   -1.5079   21.7519 C   0  0  0  0  0  0  0  0  0  0  0  0
    8.6849   -0.4883   22.6198 N   0  0  0  0  0  0  0  0  0  0  0  0
    8.8593    0.7285   21.8253 C   0  0  0  0  0  0  0  0  0  0  0  0
    7.5297    1.2543   21.3391 C   0  0  0  0  0  0  0  0  0  0  0  0
    9.9906   -0.9588   23.1677 C   0  0  0  0  0  0  0  0  0  0  0  0
   10.7702    0.2213   23.7743 C   0  0  0  0  0  0  0  0  0  0  0  0
   12.2125   -0.1084   24.1405 C   0  0  0  0  0  0  0  0  0  0  0  0
   12.9405   -0.7080   22.9715 C   0  0  0  0  0  0  0  0  0  0  0  0
   12.2510   -1.9536   22.4658 C   0  0  0  0  0  0  0  0  0  0  0  0
   10.8067   -1.6665   22.0698 C   0  0  0  0  0  0  0  0  0  0  0  0
    9.6282   -1.9417   24.2805 C   0  0  0  0  0  0  0  0  0  0  0  0
    8.9064   -1.5247   25.3924 C   0  0  0  0  0  0  0  0  0  0  0  0
    8.5771   -2.4293   26.3863 C   0  0  0  0  0  0  0  0  0  0  0  0
    8.9827   -3.7358   26.2420 C   0  0  0  0  0  0  0  0  0  0  0  0
    9.6792   -4.1689   25.1908 N   0  0  0  0  0  0  0  0  0  0  0  0
    9.9867   -3.2768   24.2440 C   0  0  0  0  0  0  0  0  0  0  0  0
  1  2  1  0
  2  3  1  0
  3  4  2  0
  3  5  1  0
  5  6  1  0
  6  7  1  0
  7  8  1  0
  8  9  1  0
  9 10  1  0
  8 11  1  0
 11 12  1  0
 12 13  1  0
 13 14  1  0
 14 15  1  0
 15 16  1  0
 11 17  1  0
 17 18  2  0
 18 19  1  0
 19 20  2  0
 20 21  1  0
 21 22  2  0
 10  5  1  0
 16 11  1  0
 22 17  1  0
M  END
