CVD-0003849|dock_bobby27042020.29|mol2|31|dock3
     RDKit          3D

 16 17  0  0  0  0  0  0  0  0999 V2000
   10.8755    6.1837   22.5783 N   0  0  0  0  0  0  0  0  0  0  0  0
   12.3463    5.6492   22.9162 S   0  0  0  0  0  0  0  0  0  0  0  0
   13.2036    6.0634   21.8464 O   0  0  0  0  0  0  0  0  0  0  0  0
   12.6531    6.0691   24.2506 O   0  0  0  0  0  0  0  0  0  0  0  0
   12.3144    3.8823   22.9130 C   0  0  0  0  0  0  0  0  0  0  0  0
   13.4945    3.1719   22.7771 C   0  0  0  0  0  0  0  0  0  0  0  0
   13.4596    1.7889   22.7686 C   0  0  0  0  0  0  0  0  0  0  0  0
   12.2627    1.0881   22.8967 C   0  0  0  0  0  0  0  0  0  0  0  0
   11.0923    1.8311   23.0318 C   0  0  0  0  0  0  0  0  0  0  0  0
   11.1084    3.2145   23.0382 C   0  0  0  0  0  0  0  0  0  0  0  0
   12.2354   -0.3999   22.8894 C   0  0  0  0  0  0  0  0  0  0  0  0
   11.2198   -1.1082   22.2537 C   0  0  0  0  0  0  0  0  0  0  0  0
   11.2371   -2.4887   22.2761 C   0  0  0  0  0  0  0  0  0  0  0  0
   12.1838   -3.2100   22.8755 N   0  0  0  0  0  0  0  0  0  0  0  0
   13.1563   -2.5300   23.4818 C   0  0  0  0  0  0  0  0  0  0  0  0
   13.2243   -1.1512   23.5179 C   0  0  0  0  0  0  0  0  0  0  0  0
  1  2  1  0
  2  3  2  0
  2  4  2  0
  2  5  1  0
  5  6  2  0
  6  7  1  0
  7  8  2  0
  8  9  1  0
  9 10  2  0
  8 11  1  0
 11 12  2  0
 12 13  1  0
 13 14  2  0
 14 15  1  0
 15 16  2  0
 10  5  1  0
 16 11  1  0
M  END
