CVD-0002552|dock_bobby27042020.5|mol2|18|dock2
     RDKit          3D

 32 33  0  0  0  0  0  0  0  0999 V2000
    6.2919   -5.4799   21.0044 C   0  0  0  0  0  0  0  0  0  0  0  0
    7.1546   -4.3086   20.6364 C   0  0  0  0  0  0  0  0  0  0  0  0
    7.1660   -3.8426   19.5014 O   0  0  0  0  0  0  0  0  0  0  0  0
    7.8967   -3.7934   21.6227 N   0  0  0  0  0  0  0  0  0  0  0  0
    8.7646   -2.6466   21.4098 C   0  0  0  0  0  0  0  0  0  0  0  0
    9.3976   -2.2042   22.7379 C   0  0  0  0  0  0  0  0  0  0  0  0
   10.6802   -1.4288   22.5595 C   0  0  0  0  0  0  0  0  0  0  0  0
   10.6563   -0.0824   22.2309 C   0  0  0  0  0  0  0  0  0  0  0  0
   11.8282    0.6337   22.0626 C   0  0  0  0  0  0  0  0  0  0  0  0
   13.0513    0.0027   22.2224 C   0  0  0  0  0  0  0  0  0  0  0  0
   14.2108    0.7028   22.0584 O   0  0  0  0  0  0  0  0  0  0  0  0
   13.0908   -1.3431   22.5495 C   0  0  0  0  0  0  0  0  0  0  0  0
   11.9111   -2.0469   22.7147 C   0  0  0  0  0  0  0  0  0  0  0  0
    7.9860   -1.4847   20.7999 C   0  0  0  0  0  0  0  0  0  0  0  0
    6.9316   -1.1094   21.3055 O   0  0  0  0  0  0  0  0  0  0  0  0
    8.5119   -0.9179   19.7102 N   0  0  0  0  0  0  0  0  0  0  0  0
    7.8636    0.1808   19.0567 C   0  0  0  0  0  0  0  0  0  0  0  0
    7.5220    1.2486   20.0073 C   0  0  0  0  0  0  0  0  0  0  0  0
    7.2979    2.0898   20.7977 C   0  0  0  0  0  0  0  0  0  0  0  0
    7.0040    3.3626   22.0374 Br  0  0  0  0  0  0  0  0  0  0  0  0
    6.3733   -0.3424   18.2527 S   0  0  0  0  0  0  0  0  0  0  0  0
    6.4805   -1.7632   18.0836 O   0  0  0  0  0  0  0  0  0  0  0  0
    6.2234    0.4901   17.0938 O   0  0  0  0  0  0  0  0  0  0  0  0
    5.1172   -0.0590   19.2244 N   0  0  0  0  0  0  0  0  0  0  0  0
    4.2647    1.1138   18.9953 C   0  0  0  0  0  0  0  0  0  0  0  0
    3.6816    1.6160   20.3038 C   0  0  0  0  0  0  0  0  0  0  0  0
    2.3246    2.2544   20.1316 C   0  0  0  0  0  0  0  0  0  0  0  0
    2.1159    3.2291   19.1678 C   0  0  0  0  0  0  0  0  0  0  0  0
    0.8704    3.8128   19.0074 C   0  0  0  0  0  0  0  0  0  0  0  0
   -0.1829    3.4281   19.8086 C   0  0  0  0  0  0  0  0  0  0  0  0
    0.0098    2.4593   20.7698 C   0  0  0  0  0  0  0  0  0  0  0  0
    1.2558    1.8762   20.9296 C   0  0  0  0  0  0  0  0  0  0  0  0
  1  2  1  0
  2  3  2  0
  2  4  1  0
  4  5  1  0
  5  6  1  0
  6  7  1  0
  7  8  2  0
  8  9  1  0
  9 10  2  0
 10 11  1  0
 10 12  1  0
 12 13  2  0
  5 14  1  0
 14 15  2  0
 14 16  1  0
 16 17  1  0
 17 18  1  0
 18 19  3  0
 19 20  1  0
 17 21  1  0
 21 22  2  0
 21 23  2  0
 21 24  1  0
 24 25  1  0
 25 26  1  0
 26 27  1  0
 27 28  2  0
 28 29  1  0
 29 30  2  0
 30 31  1  0
 31 32  2  0
 13  7  1  0
 32 27  1  0
M  END
