CVD-0000315|dock_bobby27042020.13|mol2|23|dock2
     RDKit          3D

 33 35  0  0  0  0  0  0  0  0999 V2000
    7.3885    6.4773   21.9249 C   0  0  0  0  0  0  0  0  0  0  0  0
    8.3894    6.0956   22.9702 C   0  0  0  0  0  0  0  0  0  0  0  0
    9.0660    4.8549   22.6310 N   0  0  0  0  0  0  0  0  0  0  0  0
   10.3918    4.6893   22.7725 C   0  0  0  0  0  0  0  0  0  0  0  0
   11.0897    5.7866   23.1274 N   0  0  0  0  0  0  0  0  0  0  0  0
   12.4082    5.6616   23.3104 C   0  0  0  0  0  0  0  0  0  0  0  0
   13.0942    4.4646   23.1494 C   0  0  0  0  0  0  0  0  0  0  0  0
   12.3674    3.3420   22.7701 C   0  0  0  0  0  0  0  0  0  0  0  0
   10.9944    3.4302   22.5599 C   0  0  0  0  0  0  0  0  0  0  0  0
   10.2283    2.1983   22.1197 C   0  0  0  0  0  0  0  0  0  0  0  0
    9.2869    1.6497   23.1781 C   0  0  0  0  0  0  0  0  0  0  0  0
    9.5420    0.2260   23.4273 N   0  0  0  0  0  0  0  0  0  0  0  0
    9.2357   -0.6878   22.3443 C   0  0  0  0  0  0  0  0  0  0  0  0
   10.4450   -1.4707   21.8546 C   0  0  0  0  0  0  0  0  0  0  0  0
   10.8609   -2.4419   22.8498 N   0  0  0  0  0  0  0  0  0  0  0  0
    9.7938   -3.3857   23.1801 C   0  0  0  0  0  0  0  0  0  0  0  0
    8.5983   -2.6607   23.7126 C   0  0  0  0  0  0  0  0  0  0  0  0
    8.1879   -1.6548   22.7402 N   0  0  0  0  0  0  0  0  0  0  0  0
    6.6382   -1.1529   22.7306 S   0  0  0  0  0  0  0  0  0  0  0  0
    6.6206    0.1331   23.3556 O   0  0  0  0  0  0  0  0  0  0  0  0
    5.8627   -2.2206   23.2817 O   0  0  0  0  0  0  0  0  0  0  0  0
    6.1532   -0.9401   21.0527 C   0  0  0  0  0  0  0  0  0  0  0  0
    6.2374   -2.0071   20.1731 C   0  0  0  0  0  0  0  0  0  0  0  0
    5.8574   -1.8269   18.8536 C   0  0  0  0  0  0  0  0  0  0  0  0
    5.3996   -0.5955   18.4154 C   0  0  0  0  0  0  0  0  0  0  0  0
    5.3278    0.4491   19.3108 C   0  0  0  0  0  0  0  0  0  0  0  0
    4.7534    1.9992   18.7633 Cl  0  0  0  0  0  0  0  0  0  0  0  0
    5.6991    0.3003   20.6313 C   0  0  0  0  0  0  0  0  0  0  0  0
   12.0436   -2.4452   23.5185 C   0  0  0  0  0  0  0  0  0  0  0  0
   13.0437   -1.3544   23.2667 C   0  0  0  0  0  0  0  0  0  0  0  0
   12.2814   -3.3308   24.3319 O   0  0  0  0  0  0  0  0  0  0  0  0
   14.5174    4.3832   23.3675 C   0  0  0  0  0  0  0  0  0  0  0  0
   15.6459    4.2926   23.5193 N   0  0  0  0  0  0  0  0  0  0  0  0
  1  2  1  0
  2  3  1  0
  3  4  1  0
  4  5  2  0
  5  6  1  0
  6  7  2  0
  7  8  1  0
  8  9  2  0
  9 10  1  0
 10 11  1  0
 11 12  1  0
 13 12  1  0
 13 14  1  0
 14 15  1  0
 15 16  1  0
 16 17  1  0
 17 18  1  0
 18 19  1  0
 19 20  2  0
 19 21  2  0
 19 22  1  0
 22 23  2  0
 23 24  1  0
 24 25  2  0
 25 26  1  0
 26 27  1  0
 26 28  2  0
 15 29  1  0
 29 30  1  0
 29 31  2  0
  7 32  1  0
 32 33  3  0
  9  4  1  0
 18 13  1  0
 28 22  1  0
M  END
