CVD-0002589|dock_bobby27042020.19|mol2|19|dock3
     RDKit          3D

 37 40  0  0  0  0  0  0  0  0999 V2000
    4.1091   -5.9194   22.8521 C   0  0  0  0  0  0  0  0  0  0  0  0
    5.0647   -7.0230   22.7259 N   0  0  0  0  0  0  0  0  0  0  0  0
    6.1547   -6.7767   21.7756 C   0  0  0  0  0  0  0  0  0  0  0  0
    7.1421   -5.7722   22.3087 C   0  0  0  0  0  0  0  0  0  0  0  0
    7.3723   -4.4939   21.7676 C   0  0  0  0  0  0  0  0  0  0  0  0
    8.3447   -3.8412   22.5010 C   0  0  0  0  0  0  0  0  0  0  0  0
    8.8665   -2.4775   22.2405 C   0  0  0  0  0  0  0  0  0  0  0  0
    7.9430   -1.5252   21.8085 C   0  0  0  0  0  0  0  0  0  0  0  0
    8.3019   -0.2072   21.5940 C   0  0  0  0  0  0  0  0  0  0  0  0
    9.6122    0.1889   21.7979 C   0  0  0  0  0  0  0  0  0  0  0  0
   10.0272    1.5272   21.6220 O   0  0  0  0  0  0  0  0  0  0  0  0
    9.6953    2.5316   22.4789 C   0  0  0  0  0  0  0  0  0  0  0  0
    8.6759    2.5960   23.1464 O   0  0  0  0  0  0  0  0  0  0  0  0
   10.7402    3.6017   22.5213 C   0  0  0  0  0  0  0  0  0  0  0  0
   10.6421    4.6296   23.4524 C   0  0  0  0  0  0  0  0  0  0  0  0
   11.5953    5.6305   23.5123 C   0  0  0  0  0  0  0  0  0  0  0  0
   12.6638    5.6060   22.6314 C   0  0  0  0  0  0  0  0  0  0  0  0
   12.7801    4.5925   21.6945 C   0  0  0  0  0  0  0  0  0  0  0  0
   11.8206    3.5968   21.6440 C   0  0  0  0  0  0  0  0  0  0  0  0
   13.8830    6.8837   22.6965 S   0  0  0  0  0  0  0  0  0  0  0  0
   13.4508    7.9405   23.8188 N   0  0  0  0  0  0  0  0  0  0  0  0
   15.1089    6.2834   23.1299 O   0  0  0  0  0  0  0  0  0  0  0  0
   13.8542    7.5668   21.4381 O   0  0  0  0  0  0  0  0  0  0  0  0
   10.5623   -0.7372   22.1930 C   0  0  0  0  0  0  0  0  0  0  0  0
   10.1798   -2.0430   22.3698 C   0  0  0  0  0  0  0  0  0  0  0  0
   11.1649   -2.9193   22.6636 F   0  0  0  0  0  0  0  0  0  0  0  0
    8.7125   -4.7341   23.5425 N   0  0  0  0  0  0  0  0  0  0  0  0
    7.9772   -5.9051   23.4091 C   0  0  0  0  0  0  0  0  0  0  0  0
    9.8155   -4.5687   24.8182 S   0  0  0  0  0  0  0  0  0  0  0  0
   10.0907   -3.1708   24.9421 O   0  0  0  0  0  0  0  0  0  0  0  0
   10.8653   -5.5090   24.5754 O   0  0  0  0  0  0  0  0  0  0  0  0
    8.9283   -5.0866   26.2467 C   0  0  0  0  0  0  0  0  0  0  0  0
    8.1214   -4.1942   26.9315 C   0  0  0  0  0  0  0  0  0  0  0  0
    7.4455   -4.6426   28.0530 C   0  0  0  0  0  0  0  0  0  0  0  0
    7.6035   -5.9538   28.4415 C   0  0  0  0  0  0  0  0  0  0  0  0
    8.3789   -6.8238   27.7927 N   0  0  0  0  0  0  0  0  0  0  0  0
    9.0288   -6.3843   26.7110 C   0  0  0  0  0  0  0  0  0  0  0  0
  1  2  1  0
  2  3  1  0
  3  4  1  0
  4  5  1  0
  5  6  2  0
  6  7  1  0
  7  8  2  0
  8  9  1  0
  9 10  2  0
 10 11  1  0
 11 12  1  0
 12 13  2  0
 12 14  1  0
 14 15  2  0
 15 16  1  0
 16 17  2  0
 17 18  1  0
 18 19  2  0
 17 20  1  0
 20 21  1  0
 20 22  2  0
 20 23  2  0
 10 24  1  0
 24 25  2  0
 25 26  1  0
  6 27  1  0
 27 28  1  0
 27 29  1  0
 29 30  2  0
 29 31  2  0
 29 32  1  0
 32 33  2  0
 33 34  1  0
 34 35  2  0
 35 36  1  0
 36 37  2  0
 28  4  2  0
 37 32  1  0
 25  7  1  0
 19 14  1  0
M  END
