CVD-0003390|dock_bobby27042020.31|mol2|8|dock1
     RDKit          3D

 19 21  0  0  0  0  0  0  0  0999 V2000
    8.6197   -0.8610   23.3542 O   0  0  0  0  0  0  0  0  0  0  0  0
    9.1320   -1.1220   22.2711 C   0  0  0  0  0  0  0  0  0  0  0  0
   10.5170   -1.7240   22.1873 C   0  0  0  0  0  0  0  0  0  0  0  0
   11.2956   -1.6425   23.5053 C   0  0  0  0  0  0  0  0  0  0  0  0
   12.5207   -2.5795   23.4877 C   0  0  0  0  0  0  0  0  0  0  0  0
   13.3588   -2.4673   24.7599 C   0  0  0  0  0  0  0  0  0  0  0  0
   13.7678   -1.0250   25.0291 C   0  0  0  0  0  0  0  0  0  0  0  0
   12.5529   -0.1095   25.0772 C   0  0  0  0  0  0  0  0  0  0  0  0
   11.7436   -0.1983   23.7874 C   0  0  0  0  0  0  0  0  0  0  0  0
    8.5565   -0.9118   21.0630 N   0  0  0  0  0  0  0  0  0  0  0  0
    7.2873   -0.3679   20.7447 C   0  0  0  0  0  0  0  0  0  0  0  0
    6.2098   -0.2076   21.6169 C   0  0  0  0  0  0  0  0  0  0  0  0
    5.0235    0.3116   21.2785 N   0  0  0  0  0  0  0  0  0  0  0  0
    4.8280    0.7140   20.0224 C   0  0  0  0  0  0  0  0  0  0  0  0
    5.8242    0.6045   19.0690 C   0  0  0  0  0  0  0  0  0  0  0  0
    5.8921    0.9277   17.7512 N   0  0  0  0  0  0  0  0  0  0  0  0
    7.1149    0.6223   17.2289 N   0  0  0  0  0  0  0  0  0  0  0  0
    7.8198    0.1059   18.2177 C   0  0  0  0  0  0  0  0  0  0  0  0
    7.0719    0.0599   19.4189 C   0  0  0  0  0  0  0  0  0  0  0  0
  1  2  2  0
  2  3  1  0
  3  4  1  0
  4  5  1  0
  5  6  1  0
  6  7  1  0
  7  8  1  0
  8  9  1  0
  2 10  1  0
 10 11  1  0
 11 12  2  0
 12 13  1  0
 13 14  2  0
 14 15  1  0
 15 16  1  0
 16 17  1  0
 17 18  2  0
 18 19  1  0
  9  4  1  0
 19 11  1  0
 19 15  2  0
M  END
