CVD-0002727|dock_bobby27042020.47|mol2|30|dock1
     RDKit          3D

 25 26  0  0  0  0  0  0  0  0999 V2000
    8.3065   -0.3900   18.0712 Cl  0  0  0  0  0  0  0  0  0  0  0  0
    6.9986    0.1731   19.0594 C   0  0  0  0  0  0  0  0  0  0  0  0
    5.9924    0.9059   18.4532 C   0  0  0  0  0  0  0  0  0  0  0  0
    4.9373    1.3701   19.2197 C   0  0  0  0  0  0  0  0  0  0  0  0
    4.8980    1.1011   20.5709 C   0  0  0  0  0  0  0  0  0  0  0  0
    5.9115    0.3661   21.1630 C   0  0  0  0  0  0  0  0  0  0  0  0
    6.9845   -0.1161   20.4179 C   0  0  0  0  0  0  0  0  0  0  0  0
    8.0781   -0.9134   21.0901 C   0  0  0  0  0  0  0  0  0  0  0  0
    8.8511   -0.1390   22.0655 N   0  0  0  0  0  0  0  0  0  0  0  0
    8.9862   -0.7489   23.3955 C   0  0  0  0  0  0  0  0  0  0  0  0
   10.0874   -1.7947   23.4619 C   0  0  0  0  0  0  0  0  0  0  0  0
   11.4372   -1.2221   23.3645 N   0  0  0  0  0  0  0  0  0  0  0  0
   12.2998   -1.7118   24.4432 C   0  0  0  0  0  0  0  0  0  0  0  0
   13.6600   -1.1089   24.3148 C   0  0  0  0  0  0  0  0  0  0  0  0
   14.2615   -1.4325   23.0664 O   0  0  0  0  0  0  0  0  0  0  0  0
   13.4376   -0.9725   22.0082 C   0  0  0  0  0  0  0  0  0  0  0  0
   12.0571   -1.5524   22.0822 C   0  0  0  0  0  0  0  0  0  0  0  0
    9.3965    1.0610   21.7680 C   0  0  0  0  0  0  0  0  0  0  0  0
    9.2664    1.5755   20.6644 O   0  0  0  0  0  0  0  0  0  0  0  0
   10.1856    1.7754   22.8535 C   0  0  0  0  0  0  0  0  0  0  0  0
   10.9154    2.8987   22.3063 N   0  0  0  0  0  0  0  0  0  0  0  0
   12.1299    3.2192   22.7601 C   0  0  0  0  0  0  0  0  0  0  0  0
   12.6889    2.5797   23.6626 O   0  0  0  0  0  0  0  0  0  0  0  0
   12.7595    4.3907   22.1096 C   0  0  0  0  0  0  0  0  0  0  0  0
   13.8567    4.9355   22.5643 C   0  0  0  0  0  0  0  0  0  0  0  0
  1  2  1  0
  2  3  2  0
  3  4  1  0
  4  5  2  0
  5  6  1  0
  6  7  2  0
  7  8  1  0
  8  9  1  0
  9 10  1  0
 10 11  1  0
 11 12  1  0
 12 13  1  0
 13 14  1  0
 14 15  1  0
 15 16  1  0
 16 17  1  0
  9 18  1  0
 18 19  2  0
 18 20  1  0
 20 21  1  0
 21 22  1  0
 22 23  2  0
 22 24  1  0
 24 25  2  0
  7  2  1  0
 17 12  1  0
M  END
