CVD-0002845|dock_bobby27042020.18|mol2|27|dock2
     RDKit          3D

 21 23  0  0  0  0  0  0  0  0999 V2000
    8.7988   -0.8928   20.1163 O   0  0  0  0  0  0  0  0  0  0  0  0
    9.2692   -0.4375   21.3731 C   0  0  0  0  0  0  0  0  0  0  0  0
    9.4646   -1.5710   22.3513 C   0  0  0  0  0  0  0  0  0  0  0  0
    8.3275   -2.1157   22.9412 C   0  0  0  0  0  0  0  0  0  0  0  0
    8.4483   -3.1711   23.8206 C   0  0  0  0  0  0  0  0  0  0  0  0
    9.6146   -3.7147   24.1599 N   0  0  0  0  0  0  0  0  0  0  0  0
   10.7107   -3.1741   23.6221 C   0  0  0  0  0  0  0  0  0  0  0  0
   10.7139   -2.1222   22.7002 C   0  0  0  0  0  0  0  0  0  0  0  0
   12.0062   -1.6414   22.1469 C   0  0  0  0  0  0  0  0  0  0  0  0
   12.6101   -2.2968   21.0790 N   0  0  0  0  0  0  0  0  0  0  0  0
   13.7177   -1.6194   20.8280 C   0  0  0  0  0  0  0  0  0  0  0  0
   13.8740   -0.5769   21.6580 N   0  0  0  0  0  0  0  0  0  0  0  0
   12.7973   -0.5757   22.5091 C   0  0  0  0  0  0  0  0  0  0  0  0
   12.7023    0.4817   23.5743 C   0  0  0  0  0  0  0  0  0  0  0  0
   12.2992    1.8526   23.0891 C   0  0  0  0  0  0  0  0  0  0  0  0
   13.2413    2.7974   22.7185 C   0  0  0  0  0  0  0  0  0  0  0  0
   12.7967    4.0275   22.2818 C   0  0  0  0  0  0  0  0  0  0  0  0
   13.9542    5.2395   21.8089 Cl  0  0  0  0  0  0  0  0  0  0  0  0
   11.4507    4.3089   22.2150 C   0  0  0  0  0  0  0  0  0  0  0  0
   10.5870    3.3044   22.6039 C   0  0  0  0  0  0  0  0  0  0  0  0
   10.9830    2.0986   23.0328 N   0  0  0  0  0  0  0  0  0  0  0  0
  1  2  1  0
  2  3  1  0
  3  4  2  0
  4  5  1  0
  5  6  2  0
  6  7  1  0
  7  8  2  0
  8  9  1  0
  9 10  1  0
 10 11  2  0
 11 12  1  0
 12 13  1  0
 13 14  1  0
 14 15  1  0
 15 16  2  0
 16 17  1  0
 17 18  1  0
 17 19  2  0
 19 20  1  0
 20 21  2  0
  8  3  1  0
 13  9  2  0
 21 15  1  0
M  END
