CVD-0002166|dock_bobby27042020.35|mol2|23|dock2
     RDKit          3D

 26 28  0  0  0  0  0  0  0  0999 V2000
    9.3899   -0.3874   22.8259 O   0  0  0  0  0  0  0  0  0  0  0  0
    9.7545   -0.8324   21.7428 C   0  0  0  0  0  0  0  0  0  0  0  0
   10.9492   -1.4832   21.5340 N   0  0  0  0  0  0  0  0  0  0  0  0
   12.0033   -1.7964   22.4295 C   0  0  0  0  0  0  0  0  0  0  0  0
   11.6893   -2.0653   23.7556 C   0  0  0  0  0  0  0  0  0  0  0  0
   12.6973   -2.3738   24.6517 C   0  0  0  0  0  0  0  0  0  0  0  0
   13.9948   -2.4054   24.1970 C   0  0  0  0  0  0  0  0  0  0  0  0
   14.3301   -2.1527   22.9320 N   0  0  0  0  0  0  0  0  0  0  0  0
   13.3495   -1.8556   22.0736 C   0  0  0  0  0  0  0  0  0  0  0  0
    9.0232   -0.7460   20.5799 N   0  0  0  0  0  0  0  0  0  0  0  0
    7.7530   -0.1703   20.3216 C   0  0  0  0  0  0  0  0  0  0  0  0
    7.2200   -0.3371   19.0486 C   0  0  0  0  0  0  0  0  0  0  0  0
    5.9845    0.1998   18.7302 C   0  0  0  0  0  0  0  0  0  0  0  0
    5.2684    0.9081   19.6786 C   0  0  0  0  0  0  0  0  0  0  0  0
    5.7777    1.0868   20.9541 C   0  0  0  0  0  0  0  0  0  0  0  0
    5.0017    1.8617   21.9916 C   0  0  0  0  0  0  0  0  0  0  0  0
    5.2316    3.2920   21.9516 N   0  0  0  0  0  0  0  0  0  0  0  0
    6.4537    3.8586   22.1445 C   0  0  0  0  0  0  0  0  0  0  0  0
    6.6475    5.2211   21.9246 C   0  0  0  0  0  0  0  0  0  0  0  0
    7.9082    5.7496   22.1349 C   0  0  0  0  0  0  0  0  0  0  0  0
    8.9416    4.9204   22.5559 C   0  0  0  0  0  0  0  0  0  0  0  0
    8.6483    3.5736   22.7479 C   0  0  0  0  0  0  0  0  0  0  0  0
    7.4350    3.0462   22.5492 N   0  0  0  0  0  0  0  0  0  0  0  0
   10.2685    5.4367   22.7851 C   0  0  0  0  0  0  0  0  0  0  0  0
   11.3169    5.8636   22.9387 N   0  0  0  0  0  0  0  0  0  0  0  0
    7.0188    0.5462   21.2661 C   0  0  0  0  0  0  0  0  0  0  0  0
  1  2  2  0
  2  3  1  0
  3  4  1  0
  4  5  2  0
  5  6  1  0
  6  7  2  0
  7  8  1  0
  8  9  2  0
  2 10  1  0
 10 11  1  0
 11 12  2  0
 12 13  1  0
 13 14  2  0
 14 15  1  0
 15 16  1  0
 16 17  1  0
 17 18  1  0
 18 19  2  0
 19 20  1  0
 20 21  2  0
 21 22  1  0
 22 23  2  0
 21 24  1  0
 24 25  3  0
 15 26  2  0
  9  4  1  0
 26 11  1  0
 23 18  1  0
M  END
