CVD-0002013|dock_bobby27042020.65|mol2|13|dock2
     RDKit          3D

 19 21  0  0  0  0  0  0  0  0999 V2000
    4.8122    0.5245   20.9717 C   0  0  0  0  0  0  0  0  0  0  0  0
    5.9986    0.8562   20.0693 C   0  0  0  0  0  0  0  0  0  0  0  0
    5.8041    0.1939   18.7059 C   0  0  0  0  0  0  0  0  0  0  0  0
    5.2433   -0.9684   18.7437 O   0  0  0  0  0  0  0  0  0  0  0  0
    6.2977    0.9686   17.3485 S   0  0  0  0  0  0  0  0  0  0  0  0
    7.3374    0.4081   20.6429 C   0  0  0  0  0  0  0  0  0  0  0  0
    7.6517   -0.9459   20.6822 C   0  0  0  0  0  0  0  0  0  0  0  0
    8.8570   -1.4012   21.1871 C   0  0  0  0  0  0  0  0  0  0  0  0
    9.7820   -0.4788   21.6686 C   0  0  0  0  0  0  0  0  0  0  0  0
    9.4644    0.8913   21.6292 C   0  0  0  0  0  0  0  0  0  0  0  0
    8.2505    1.3408   21.1216 C   0  0  0  0  0  0  0  0  0  0  0  0
   10.5220    1.6104   22.1547 N   0  0  0  0  0  0  0  0  0  0  0  0
   11.5194    0.7306   22.5340 C   0  0  0  0  0  0  0  0  0  0  0  0
   12.7609    0.9835   23.1068 C   0  0  0  0  0  0  0  0  0  0  0  0
   13.5967   -0.0807   23.4002 C   0  0  0  0  0  0  0  0  0  0  0  0
   13.1900   -1.3698   23.1226 C   0  0  0  0  0  0  0  0  0  0  0  0
   14.2584   -2.6920   23.5005 Cl  0  0  0  0  0  0  0  0  0  0  0  0
   11.9621   -1.6463   22.5542 C   0  0  0  0  0  0  0  0  0  0  0  0
   11.1089   -0.5868   22.2526 C   0  0  0  0  0  0  0  0  0  0  0  0
  2  1  1  0
  2  3  1  0
  3  4  1  0
  3  5  2  0
  2  6  1  0
  6  7  2  0
  7  8  1  0
  8  9  2  0
  9 10  1  0
 10 11  2  0
 10 12  1  0
 12 13  1  0
 13 14  2  0
 14 15  1  0
 15 16  2  0
 16 17  1  0
 16 18  1  0
 18 19  2  0
 11  6  1  0
 19 13  1  0
 19  9  1  0
M  END
