CVD-0002290|dock_bobby27042020.6|mol2|24|dock1
     RDKit          3D

 40 43  0  0  0  0  0  0  0  0999 V2000
   12.5609   -1.8504   21.7496 C   0  0  0  0  0  0  0  0  0  0  0  0
   13.5590   -0.9229   22.2887 N   0  0  0  0  0  0  0  0  0  0  0  0
   13.2087   -0.3431   23.5897 C   0  0  0  0  0  0  0  0  0  0  0  0
   11.9700    0.5096   23.5043 C   0  0  0  0  0  0  0  0  0  0  0  0
   10.6620    0.0704   23.7812 C   0  0  0  0  0  0  0  0  0  0  0  0
    9.7716    1.1110   23.5979 C   0  0  0  0  0  0  0  0  0  0  0  0
    8.3016    1.0620   23.7803 C   0  0  0  0  0  0  0  0  0  0  0  0
    7.8037    1.7206   24.9062 C   0  0  0  0  0  0  0  0  0  0  0  0
    6.4417    1.7960   25.1415 C   0  0  0  0  0  0  0  0  0  0  0  0
    5.5574    1.2132   24.2628 C   0  0  0  0  0  0  0  0  0  0  0  0
    6.0358    0.5212   23.1649 C   0  0  0  0  0  0  0  0  0  0  0  0
    7.4023    0.4023   22.9219 C   0  0  0  0  0  0  0  0  0  0  0  0
    7.8571   -0.4516   21.7615 C   0  0  0  0  0  0  0  0  0  0  0  0
    6.8420   -1.4059   21.3021 N   0  0  0  0  0  0  0  0  0  0  0  0
    6.3798   -1.0902   19.9223 C   0  0  0  0  0  0  0  0  0  0  0  0
    7.4592   -1.0714   18.8531 C   0  0  0  0  0  0  0  0  0  0  0  0
    5.4642    0.1249   19.8870 C   0  0  0  0  0  0  0  0  0  0  0  0
    6.4963   -2.4478   22.1015 C   0  0  0  0  0  0  0  0  0  0  0  0
    5.6999   -3.2517   21.6555 O   0  0  0  0  0  0  0  0  0  0  0  0
    6.9624   -2.7718   23.5153 C   0  0  0  0  0  0  0  0  0  0  0  0
    8.2455   -3.5933   23.4906 C   0  0  0  0  0  0  0  0  0  0  0  0
    8.6804   -3.9440   24.8985 C   0  0  0  0  0  0  0  0  0  0  0  0
    7.6143   -4.6700   25.5836 N   0  0  0  0  0  0  0  0  0  0  0  0
    6.3789   -3.9000   25.6793 C   0  0  0  0  0  0  0  0  0  0  0  0
    5.8843   -3.5322   24.2844 C   0  0  0  0  0  0  0  0  0  0  0  0
    7.7708   -5.7942   26.3148 C   0  0  0  0  0  0  0  0  0  0  0  0
    6.8214   -6.3560   26.8464 O   0  0  0  0  0  0  0  0  0  0  0  0
    9.1807   -6.3346   26.4599 C   0  0  0  0  0  0  0  0  0  0  0  0
   10.2502   -5.1784   27.2642 Cl  0  0  0  0  0  0  0  0  0  0  0  0
   10.5524    2.2339   23.2193 N   0  0  0  0  0  0  0  0  0  0  0  0
   11.8866    1.8521   23.1610 C   0  0  0  0  0  0  0  0  0  0  0  0
   10.1038    3.8334   22.8828 S   0  0  0  0  0  0  0  0  0  0  0  0
    9.1530    3.7756   21.8162 O   0  0  0  0  0  0  0  0  0  0  0  0
    9.7720    4.4401   24.1344 O   0  0  0  0  0  0  0  0  0  0  0  0
   11.5710    4.5901   22.2744 C   0  0  0  0  0  0  0  0  0  0  0  0
   12.1793    5.6103   22.9855 C   0  0  0  0  0  0  0  0  0  0  0  0
   13.3292    6.1807   22.4676 C   0  0  0  0  0  0  0  0  0  0  0  0
   13.8192    5.7126   21.2693 C   0  0  0  0  0  0  0  0  0  0  0  0
   13.2427    4.7321   20.5729 N   0  0  0  0  0  0  0  0  0  0  0  0
   12.1329    4.1859   21.0782 C   0  0  0  0  0  0  0  0  0  0  0  0
  1  2  1  0
  2  3  1  0
  3  4  1  0
  4  5  1  0
  5  6  2  0
  6  7  1  0
  7  8  2  0
  8  9  1  0
  9 10  2  0
 10 11  1  0
 11 12  2  0
 12 13  1  0
 13 14  1  0
 14 15  1  0
 15 16  1  0
 15 17  1  0
 14 18  1  0
 18 19  2  0
 18 20  1  0
 20 21  1  0
 21 22  1  0
 22 23  1  0
 23 24  1  0
 24 25  1  0
 23 26  1  0
 26 27  2  0
 26 28  1  0
 28 29  1  0
  6 30  1  0
 30 31  1  0
 30 32  1  0
 32 33  2  0
 32 34  2  0
 32 35  1  0
 35 36  2  0
 36 37  1  0
 37 38  2  0
 38 39  1  0
 39 40  2  0
 31  4  2  0
 40 35  1  0
 12  7  1  0
 25 20  1  0
M  END
