CVD-0001759|dock_bobby27042020.66|mol2|12|dock1
     RDKit          3D

 26 28  0  0  0  0  0  0  0  0999 V2000
    8.7941   -0.9909   20.3711 O   0  0  0  0  0  0  0  0  0  0  0  0
    7.8095   -1.6009   20.7640 C   0  0  0  0  0  0  0  0  0  0  0  0
    6.5368   -1.2638   20.3725 N   0  0  0  0  0  0  0  0  0  0  0  0
    6.0870   -0.2334   19.5063 C   0  0  0  0  0  0  0  0  0  0  0  0
    4.9481    0.5433   19.7054 C   0  0  0  0  0  0  0  0  0  0  0  0
    4.6251    1.5242   18.7834 C   0  0  0  0  0  0  0  0  0  0  0  0
    5.4384    1.7015   17.6884 C   0  0  0  0  0  0  0  0  0  0  0  0
    6.5302    0.9707   17.4659 N   0  0  0  0  0  0  0  0  0  0  0  0
    6.8343    0.0291   18.3634 C   0  0  0  0  0  0  0  0  0  0  0  0
    8.0102   -2.6830   21.6284 N   0  0  0  0  0  0  0  0  0  0  0  0
    9.3948   -2.8940   22.0891 C   0  0  0  0  0  0  0  0  0  0  0  0
    9.8849   -1.7761   22.9983 C   0  0  0  0  0  0  0  0  0  0  0  0
   11.2450   -1.9771   23.5150 N   0  0  0  0  0  0  0  0  0  0  0  0
   11.4684   -1.1235   24.6883 C   0  0  0  0  0  0  0  0  0  0  0  0
   12.8476   -1.3298   25.2607 C   0  0  0  0  0  0  0  0  0  0  0  0
   13.9192   -1.0797   24.2324 C   0  0  0  0  0  0  0  0  0  0  0  0
   13.6429   -1.9022   22.9884 C   0  0  0  0  0  0  0  0  0  0  0  0
   12.2450   -1.6633   22.4845 C   0  0  0  0  0  0  0  0  0  0  0  0
    7.0448   -3.6258   22.1355 C   0  0  0  0  0  0  0  0  0  0  0  0
    7.0235   -4.9512   21.7138 C   0  0  0  0  0  0  0  0  0  0  0  0
    6.0834   -5.8417   22.2049 C   0  0  0  0  0  0  0  0  0  0  0  0
    5.1401   -5.4237   23.1254 C   0  0  0  0  0  0  0  0  0  0  0  0
    5.1414   -4.1019   23.5520 C   0  0  0  0  0  0  0  0  0  0  0  0
    6.0878   -3.2071   23.0575 C   0  0  0  0  0  0  0  0  0  0  0  0
    4.1625   -3.6490   24.5093 C   0  0  0  0  0  0  0  0  0  0  0  0
    3.3642   -3.2903   25.2433 N   0  0  0  0  0  0  0  0  0  0  0  0
  1  2  2  0
  2  3  1  0
  3  4  1  0
  4  5  2  0
  5  6  1  0
  6  7  2  0
  7  8  1  0
  8  9  2  0
  2 10  1  0
 10 11  1  0
 11 12  1  0
 12 13  1  0
 13 14  1  0
 14 15  1  0
 15 16  1  0
 16 17  1  0
 17 18  1  0
 10 19  1  0
 19 20  2  0
 20 21  1  0
 21 22  2  0
 22 23  1  0
 23 24  2  0
 23 25  1  0
 25 26  3  0
  9  4  1  0
 18 13  1  0
 24 19  1  0
M  END
