CVD-0000797|dock_bobby27042020.54|mol2|40|dock3
     RDKit          3D

 31 34  0  0  0  0  0  0  0  0999 V2000
    4.5323   -6.3479   22.6329 C   0  0  0  0  0  0  0  0  0  0  0  0
    5.7475   -6.6375   21.7910 C   0  0  0  0  0  0  0  0  0  0  0  0
    6.7719   -5.5195   21.8017 C   0  0  0  0  0  0  0  0  0  0  0  0
    6.7787   -4.5514   20.8110 C   0  0  0  0  0  0  0  0  0  0  0  0
    7.7044   -3.5163   20.8066 C   0  0  0  0  0  0  0  0  0  0  0  0
    7.6888   -2.5586   19.8251 O   0  0  0  0  0  0  0  0  0  0  0  0
    6.5612   -1.6764   19.5961 C   0  0  0  0  0  0  0  0  0  0  0  0
    6.2550   -0.7507   20.7672 C   0  0  0  0  0  0  0  0  0  0  0  0
    5.1622    0.2514   20.4511 C   0  0  0  0  0  0  0  0  0  0  0  0
    5.4852    1.0542   19.2655 N   0  0  0  0  0  0  0  0  0  0  0  0
    4.4430    2.0483   19.0107 C   0  0  0  0  0  0  0  0  0  0  0  0
    5.6633    0.1659   18.1137 C   0  0  0  0  0  0  0  0  0  0  0  0
    6.7929   -0.8216   18.3550 C   0  0  0  0  0  0  0  0  0  0  0  0
    8.6816   -3.4202   21.8189 C   0  0  0  0  0  0  0  0  0  0  0  0
    9.7432   -2.5368   22.1326 N   0  0  0  0  0  0  0  0  0  0  0  0
   10.3368   -3.0215   23.2902 C   0  0  0  0  0  0  0  0  0  0  0  0
    9.7296   -4.1402   23.7401 C   0  0  0  0  0  0  0  0  0  0  0  0
   10.0941   -4.9402   24.9646 C   0  0  0  0  0  0  0  0  0  0  0  0
    9.5675   -4.3876   26.2182 N   0  0  0  0  0  0  0  0  0  0  0  0
    9.9213   -5.2462   27.3426 C   0  0  0  0  0  0  0  0  0  0  0  0
    8.1202   -4.2199   26.1634 C   0  0  0  0  0  0  0  0  0  0  0  0
    8.6680   -4.4148   22.8230 C   0  0  0  0  0  0  0  0  0  0  0  0
    7.7209   -5.4352   22.8040 C   0  0  0  0  0  0  0  0  0  0  0  0
   10.1795   -1.3939   21.4258 C   0  0  0  0  0  0  0  0  0  0  0  0
    9.7455   -1.1311   20.3216 O   0  0  0  0  0  0  0  0  0  0  0  0
   11.2029   -0.4207   21.9448 C   0  0  0  0  0  0  0  0  0  0  0  0
   12.4794   -0.9089   22.2060 C   0  0  0  0  0  0  0  0  0  0  0  0
   13.4772   -0.0814   22.6929 C   0  0  0  0  0  0  0  0  0  0  0  0
   13.2210    1.2519   22.9242 C   0  0  0  0  0  0  0  0  0  0  0  0
   11.9688    1.7596   22.6567 C   0  0  0  0  0  0  0  0  0  0  0  0
   10.9711    0.9364   22.1614 C   0  0  0  0  0  0  0  0  0  0  0  0
  1  2  1  0
  2  3  1  0
  3  4  2  0
  4  5  1  0
  5  6  1  0
  6  7  1  0
  7  8  1  0
  8  9  1  0
  9 10  1  0
 10 11  1  0
 10 12  1  0
 12 13  1  0
  5 14  2  0
 14 15  1  0
 15 16  1  0
 16 17  2  0
 17 18  1  0
 18 19  1  0
 19 20  1  0
 19 21  1  0
 17 22  1  0
 22 23  2  0
 15 24  1  0
 24 25  2  0
 24 26  1  0
 26 27  2  0
 27 28  1  0
 28 29  2  0
 29 30  1  0
 30 31  2  0
 23  3  1  0
 31 26  1  0
 13  7  1  0
 22 14  1  0
M  END
