CVD-0003859|dock_bobby27042020.86|mol2|30|dock1
     RDKit          3D

 28 31  0  0  0  0  0  0  0  0999 V2000
   13.8040    5.6564   21.4849 N   0  0  0  0  0  0  0  0  0  0  0  0
   13.5176    5.1361   22.9716 S   0  0  0  0  0  0  0  0  0  0  0  0
   12.7033    6.1224   23.6160 O   0  0  0  0  0  0  0  0  0  0  0  0
   14.7819    4.7961   23.5522 O   0  0  0  0  0  0  0  0  0  0  0  0
   12.5664    3.6501   22.8713 C   0  0  0  0  0  0  0  0  0  0  0  0
   13.2054    2.4254   22.8032 C   0  0  0  0  0  0  0  0  0  0  0  0
   12.4557    1.2653   22.7256 C   0  0  0  0  0  0  0  0  0  0  0  0
   11.0639    1.3040   22.7115 C   0  0  0  0  0  0  0  0  0  0  0  0
   10.4444    2.5497   22.7682 C   0  0  0  0  0  0  0  0  0  0  0  0
   11.1850    3.7154   22.8525 C   0  0  0  0  0  0  0  0  0  0  0  0
   10.3332    0.1245   22.6402 N   0  0  0  0  0  0  0  0  0  0  0  0
    9.5101   -0.2326   21.4808 C   0  0  0  0  0  0  0  0  0  0  0  0
    8.1571   -0.7456   21.8852 C   0  0  0  0  0  0  0  0  0  0  0  0
    8.2838   -1.9406   22.8365 C   0  0  0  0  0  0  0  0  0  0  0  0
    6.9174   -2.4749   23.2542 C   0  0  0  0  0  0  0  0  0  0  0  0
    6.9072   -3.7673   23.9530 N   0  0  0  0  0  0  0  0  0  0  0  0
    6.2511   -4.8003   23.1665 C   0  0  0  0  0  0  0  0  0  0  0  0
    6.3320   -6.1841   23.8911 C   0  0  0  0  0  0  0  0  0  0  0  0
    5.8141   -6.1010   25.3377 C   0  0  0  0  0  0  0  0  0  0  0  0
    6.4798   -4.9340   26.0651 C   0  0  0  0  0  0  0  0  0  0  0  0
    6.3082   -3.6427   25.2798 C   0  0  0  0  0  0  0  0  0  0  0  0
    7.9282   -5.2215   26.3091 C   0  0  0  0  0  0  0  0  0  0  0  0
    8.9551   -5.1302   25.3250 C   0  0  0  0  0  0  0  0  0  0  0  0
   10.1977   -5.4473   25.7851 C   0  0  0  0  0  0  0  0  0  0  0  0
   10.1185   -5.8614   27.4304 S   0  0  0  0  0  0  0  0  0  0  0  0
    8.4380   -5.6175   27.5102 C   0  0  0  0  0  0  0  0  0  0  0  0
    9.1319   -1.5331   24.0148 C   0  0  0  0  0  0  0  0  0  0  0  0
   10.4837   -0.9860   23.6089 C   0  0  0  0  0  0  0  0  0  0  0  0
  1  2  1  0
  2  3  2  0
  2  4  2  0
  2  5  1  0
  5  6  2  0
  6  7  1  0
  7  8  2  0
  8  9  1  0
  9 10  2  0
  8 11  1  0
 11 12  1  0
 12 13  1  0
 13 14  1  0
 14 15  1  0
 15 16  1  0
 16 17  1  0
 17 18  1  0
 18 19  1  0
 19 20  1  0
 20 21  1  0
 20 22  1  0
 22 23  1  0
 23 24  2  0
 24 25  1  0
 25 26  1  0
 14 27  1  0
 27 28  1  0
 10  5  1  0
 28 11  1  0
 21 16  1  0
 26 22  2  0
M  END
