CVD-0000470|dock_bobby27042020.27|mol2|8|dock1
     RDKit          3D

 28 31  0  0  0  0  0  0  0  0999 V2000
   14.4716   -1.5455   26.5575 F   0  0  0  0  0  0  0  0  0  0  0  0
   13.9702   -1.4449   25.2969 C   0  0  0  0  0  0  0  0  0  0  0  0
   14.4251   -2.3148   24.3470 C   0  0  0  0  0  0  0  0  0  0  0  0
   13.9019   -2.2013   23.0728 C   0  0  0  0  0  0  0  0  0  0  0  0
   12.9644   -1.2234   22.7865 C   0  0  0  0  0  0  0  0  0  0  0  0
   12.5199   -0.3302   23.7606 C   0  0  0  0  0  0  0  0  0  0  0  0
   13.0308   -0.4730   25.0525 C   0  0  0  0  0  0  0  0  0  0  0  0
   11.5150    0.7079   23.3267 C   0  0  0  0  0  0  0  0  0  0  0  0
   11.8810    1.8655   23.4368 O   0  0  0  0  0  0  0  0  0  0  0  0
   10.2689    0.4575   22.8522 N   0  0  0  0  0  0  0  0  0  0  0  0
    9.2820    1.4692   22.4790 C   0  0  0  0  0  0  0  0  0  0  0  0
    7.9731    1.2142   23.1953 C   0  0  0  0  0  0  0  0  0  0  0  0
    7.5196   -0.1517   22.9427 N   0  0  0  0  0  0  0  0  0  0  0  0
    8.5067   -1.1634   23.3159 C   0  0  0  0  0  0  0  0  0  0  0  0
    9.8156   -0.9084   22.5997 C   0  0  0  0  0  0  0  0  0  0  0  0
    6.2807   -0.4008   22.4710 C   0  0  0  0  0  0  0  0  0  0  0  0
    5.9053   -1.5464   22.2543 O   0  0  0  0  0  0  0  0  0  0  0  0
    5.2645    0.7152   22.1905 C   0  0  0  0  0  0  0  0  0  0  0  0
    4.6207    1.2051   23.1135 O   0  0  0  0  0  0  0  0  0  0  0  0
    5.0506    1.1722   20.8376 C   0  0  0  0  0  0  0  0  0  0  0  0
    3.9768    1.9222   20.4137 C   0  0  0  0  0  0  0  0  0  0  0  0
    4.0714    2.1748   19.0742 N   0  0  0  0  0  0  0  0  0  0  0  0
    5.2143    1.5971   18.5771 C   0  0  0  0  0  0  0  0  0  0  0  0
    5.7741    1.5328   17.3081 C   0  0  0  0  0  0  0  0  0  0  0  0
    6.9330    0.9177   17.0560 N   0  0  0  0  0  0  0  0  0  0  0  0
    7.5722    0.3618   18.0853 C   0  0  0  0  0  0  0  0  0  0  0  0
    7.1015    0.3654   19.3834 C   0  0  0  0  0  0  0  0  0  0  0  0
    5.8779    0.9769   19.6570 C   0  0  0  0  0  0  0  0  0  0  0  0
  1  2  1  0
  2  3  2  0
  3  4  1  0
  4  5  2  0
  5  6  1  0
  6  7  2  0
  6  8  1  0
  8  9  2  0
  8 10  1  0
 10 11  1  0
 11 12  1  0
 12 13  1  0
 13 14  1  0
 14 15  1  0
 13 16  1  0
 16 17  2  0
 16 18  1  0
 18 19  2  0
 18 20  1  0
 20 21  2  0
 21 22  1  0
 22 23  1  0
 23 24  2  0
 24 25  1  0
 25 26  2  0
 26 27  1  0
 27 28  2  0
  7  2  1  0
 15 10  1  0
 28 20  1  0
 28 23  1  0
M  END
