CVD-0003142|dock_bobby27042020.88|mol2|47|dock1
     RDKit          3D

 18 21  0  0  0  0  0  0  0  0999 V2000
    8.7424   -2.9073   23.2877 O   0  0  0  0  0  0  0  0  0  0  0  0
    8.9875   -2.8072   22.0893 C   0  0  0  0  0  0  0  0  0  0  0  0
   10.1375   -2.2657   21.6760 N   0  0  0  0  0  0  0  0  0  0  0  0
   11.1211   -1.7552   22.6224 C   0  0  0  0  0  0  0  0  0  0  0  0
   12.2222   -0.9971   21.9270 C   0  0  0  0  0  0  0  0  0  0  0  0
   13.6243   -1.5192   21.8209 C   0  0  0  0  0  0  0  0  0  0  0  0
   13.3592   -0.2765   22.6148 C   0  0  0  0  0  0  0  0  0  0  0  0
   13.6364    0.2955   23.9681 C   0  0  0  0  0  0  0  0  0  0  0  0
   13.8535    1.1293   22.7374 C   0  0  0  0  0  0  0  0  0  0  0  0
    7.9787   -3.3011   21.0893 C   0  0  0  0  0  0  0  0  0  0  0  0
    7.3686   -4.5559   21.2118 C   0  0  0  0  0  0  0  0  0  0  0  0
    6.4454   -4.9655   20.2628 C   0  0  0  0  0  0  0  0  0  0  0  0
    6.0713   -4.2392   19.1999 N   0  0  0  0  0  0  0  0  0  0  0  0
    6.6660   -3.0410   19.1011 C   0  0  0  0  0  0  0  0  0  0  0  0
    6.5132   -2.0839   18.1656 N   0  0  0  0  0  0  0  0  0  0  0  0
    7.3077   -1.0351   18.4530 N   0  0  0  0  0  0  0  0  0  0  0  0
    7.9764   -1.2836   19.5539 N   0  0  0  0  0  0  0  0  0  0  0  0
    7.5940   -2.5321   19.9805 C   0  0  0  0  0  0  0  0  0  0  0  0
  1  2  2  0
  2  3  1  0
  3  4  1  0
  5  4  1  0
  5  6  1  0
  6  7  1  0
  7  8  1  0
  8  9  1  0
  2 10  1  0
 10 11  2  0
 11 12  1  0
 12 13  2  0
 13 14  1  0
 14 15  1  0
 15 16  1  0
 16 17  2  0
 17 18  1  0
  7  5  1  0
  9  7  1  0
 18 10  1  0
 18 14  2  0
M  END
