CVD-0002097|dock_bobby27042020.64|mol2|38|dock3
     RDKit          3D

 21 23  0  0  0  0  0  0  0  0999 V2000
    6.5379    2.0719   23.4379 N   0  0  0  0  0  0  0  0  0  0  0  0
    6.6060    0.7007   23.9906 C   0  0  0  0  0  0  0  0  0  0  0  0
    7.3289   -0.2701   23.0672 C   0  0  0  0  0  0  0  0  0  0  0  0
    8.7325   -0.0980   23.2814 O   0  0  0  0  0  0  0  0  0  0  0  0
    9.4979   -0.9698   22.4365 C   0  0  0  0  0  0  0  0  0  0  0  0
    9.3542   -0.5558   20.9971 C   0  0  0  0  0  0  0  0  0  0  0  0
    7.9467   -0.1645   20.6289 C   0  0  0  0  0  0  0  0  0  0  0  0
    7.5887    0.0830   19.2941 C   0  0  0  0  0  0  0  0  0  0  0  0
    8.4789   -0.0610   18.2645 O   0  0  0  0  0  0  0  0  0  0  0  0
    6.2695    0.3933   18.9639 C   0  0  0  0  0  0  0  0  0  0  0  0
    5.9392    0.5737   17.6587 O   0  0  0  0  0  0  0  0  0  0  0  0
    5.2968    0.4608   19.9509 C   0  0  0  0  0  0  0  0  0  0  0  0
    5.6518    0.2167   21.2640 C   0  0  0  0  0  0  0  0  0  0  0  0
    6.9677   -0.0949   21.6096 C   0  0  0  0  0  0  0  0  0  0  0  0
   10.9334   -0.9125   22.9251 C   0  0  0  0  0  0  0  0  0  0  0  0
   11.9103   -1.7102   22.0576 C   0  0  0  0  0  0  0  0  0  0  0  0
   13.3529   -1.5362   22.5208 C   0  0  0  0  0  0  0  0  0  0  0  0
   13.5094   -1.9377   23.9768 C   0  0  0  0  0  0  0  0  0  0  0  0
   12.5282   -1.1751   24.8640 C   0  0  0  0  0  0  0  0  0  0  0  0
   11.1028   -1.3482   24.3758 C   0  0  0  0  0  0  0  0  0  0  0  0
   10.2388   -0.5177   25.1535 O   0  0  0  0  0  0  0  0  0  0  0  0
  1  2  1  0
  2  3  1  0
  3  4  1  0
  4  5  1  0
  5  6  1  0
  6  7  1  0
  7  8  2  0
  8  9  1  0
  8 10  1  0
 10 11  1  0
 10 12  2  0
 12 13  1  0
 13 14  2  0
  5 15  1  0
 15 16  1  0
 16 17  1  0
 17 18  1  0
 18 19  1  0
 19 20  1  0
 20 21  1  0
 14  3  1  0
 20 15  1  0
 14  7  1  0
M  END
