CVD-0001810|dock_bobby27042020.37|mol2|8|dock1
     RDKit          3D

 20 21  0  0  0  0  0  0  0  0999 V2000
   13.5339   -1.6723   21.5265 C   0  0  0  0  0  0  0  0  0  0  0  0
   13.4688   -1.7031   23.0214 C   0  0  0  0  0  0  0  0  0  0  0  0
   12.4412   -0.8075   23.5266 N   0  0  0  0  0  0  0  0  0  0  0  0
   12.3647    0.5302   23.2061 C   0  0  0  0  0  0  0  0  0  0  0  0
   13.5208    1.2561   22.9153 C   0  0  0  0  0  0  0  0  0  0  0  0
   13.4462    2.6018   22.6030 C   0  0  0  0  0  0  0  0  0  0  0  0
   12.2195    3.2233   22.5784 C   0  0  0  0  0  0  0  0  0  0  0  0
   12.1240    4.9180   22.1894 Cl  0  0  0  0  0  0  0  0  0  0  0  0
   11.0634    2.5276   22.8562 C   0  0  0  0  0  0  0  0  0  0  0  0
   11.1153    1.1738   23.1702 C   0  0  0  0  0  0  0  0  0  0  0  0
    9.8215    0.4451   23.4568 C   0  0  0  0  0  0  0  0  0  0  0  0
    9.4350   -0.4987   22.3976 N   0  0  0  0  0  0  0  0  0  0  0  0
    8.7166    0.1984   21.3268 C   0  0  0  0  0  0  0  0  0  0  0  0
    8.3564   -0.7723   20.2175 C   0  0  0  0  0  0  0  0  0  0  0  0
    7.5411   -1.8697   20.7427 N   0  0  0  0  0  0  0  0  0  0  0  0
    8.2077   -2.5505   21.8571 C   0  0  0  0  0  0  0  0  0  0  0  0
    8.5796   -1.5521   22.9382 C   0  0  0  0  0  0  0  0  0  0  0  0
    6.3366   -2.2058   20.2199 C   0  0  0  0  0  0  0  0  0  0  0  0
    5.8214   -1.3988   19.0646 C   0  0  0  0  0  0  0  0  0  0  0  0
    5.6873   -3.1336   20.6896 O   0  0  0  0  0  0  0  0  0  0  0  0
  1  2  1  0
  2  3  1  0
  3  4  1  0
  4  5  2  0
  5  6  1  0
  6  7  2  0
  7  8  1  0
  7  9  1  0
  9 10  2  0
 10 11  1  0
 11 12  1  0
 12 13  1  0
 13 14  1  0
 14 15  1  0
 15 16  1  0
 16 17  1  0
 15 18  1  0
 18 19  1  0
 18 20  2  0
 10  4  1  0
 17 12  1  0
M  END
