CVD-0000226|dock_bobby27042020.13|mol2|36|dock2
     RDKit          3D

 23 24  0  0  0  0  0  0  0  0999 V2000
    5.7967    3.3686   21.1516 C   0  0  0  0  0  0  0  0  0  0  0  0
    4.5748    2.9745   21.8356 N   0  0  0  0  0  0  0  0  0  0  0  0
    4.6750    1.8020   22.7091 C   0  0  0  0  0  0  0  0  0  0  0  0
    4.4228    0.4979   21.9638 C   0  0  0  0  0  0  0  0  0  0  0  0
    5.4175    0.2823   20.8489 C   0  0  0  0  0  0  0  0  0  0  0  0
    5.0457    0.4312   19.5235 C   0  0  0  0  0  0  0  0  0  0  0  0
    5.9650    0.2280   18.5093 C   0  0  0  0  0  0  0  0  0  0  0  0
    7.2705   -0.1282   18.8043 C   0  0  0  0  0  0  0  0  0  0  0  0
    7.6659   -0.2848   20.1310 C   0  0  0  0  0  0  0  0  0  0  0  0
    8.9794   -0.6475   20.5243 N   0  0  0  0  0  0  0  0  0  0  0  0
    9.6697   -0.4060   21.6906 C   0  0  0  0  0  0  0  0  0  0  0  0
    9.2170    0.2114   22.6486 O   0  0  0  0  0  0  0  0  0  0  0  0
   10.9344   -0.9470   21.6432 N   0  0  0  0  0  0  0  0  0  0  0  0
   11.9800   -0.9451   22.6013 C   0  0  0  0  0  0  0  0  0  0  0  0
   13.0222   -1.8504   22.4474 C   0  0  0  0  0  0  0  0  0  0  0  0
   14.0558   -1.8712   23.3669 C   0  0  0  0  0  0  0  0  0  0  0  0
   14.0196   -0.9847   24.4177 C   0  0  0  0  0  0  0  0  0  0  0  0
   13.0350   -0.1039   24.5943 N   0  0  0  0  0  0  0  0  0  0  0  0
   12.0408   -0.0911   23.7009 C   0  0  0  0  0  0  0  0  0  0  0  0
    6.7278   -0.0762   21.1368 C   0  0  0  0  0  0  0  0  0  0  0  0
    3.3978    3.6659   21.7441 C   0  0  0  0  0  0  0  0  0  0  0  0
    3.2860    4.6850   20.8809 N   0  0  0  0  0  0  0  0  0  0  0  0
    2.4432    3.3407   22.4639 O   0  0  0  0  0  0  0  0  0  0  0  0
  1  2  1  0
  2  3  1  0
  3  4  1  0
  4  5  1  0
  5  6  2  0
  6  7  1  0
  7  8  2  0
  8  9  1  0
  9 10  1  0
 10 11  1  0
 11 12  2  0
 11 13  1  0
 13 14  1  0
 14 15  2  0
 15 16  1  0
 16 17  2  0
 17 18  1  0
 18 19  2  0
  9 20  2  0
  2 21  1  0
 21 22  1  0
 21 23  2  0
 20  5  1  0
 19 14  1  0
M  END
