CVD-0002696|dock_bobby27042020.4|mol2|40|dock1
     RDKit          3D

 17 18  0  0  0  0  0  0  0  0999 V2000
    8.5384    3.2023   23.0924 N   0  0  0  0  0  0  0  0  0  0  0  0
    9.8230    3.5605   23.0032 C   0  0  0  0  0  0  0  0  0  0  0  0
   10.0959    4.8826   23.1078 N   0  0  0  0  0  0  0  0  0  0  0  0
   11.3653    5.2933   23.0249 C   0  0  0  0  0  0  0  0  0  0  0  0
   12.4330    4.4234   22.8353 C   0  0  0  0  0  0  0  0  0  0  0  0
   12.1610    3.0628   22.7273 C   0  0  0  0  0  0  0  0  0  0  0  0
   10.8543    2.5928   22.8069 C   0  0  0  0  0  0  0  0  0  0  0  0
   10.5747    1.1125   22.6919 C   0  0  0  0  0  0  0  0  0  0  0  0
   11.7949    0.2926   22.6749 N   0  0  0  0  0  0  0  0  0  0  0  0
   12.2894    0.0645   24.0381 C   0  0  0  0  0  0  0  0  0  0  0  0
   13.5783   -0.7337   24.0431 C   0  0  0  0  0  0  0  0  0  0  0  0
   13.4462   -2.0693   23.3213 C   0  0  0  0  0  0  0  0  0  0  0  0
   14.6780   -2.7855   23.1999 O   0  0  0  0  0  0  0  0  0  0  0  0
   12.8363   -1.8152   21.9472 C   0  0  0  0  0  0  0  0  0  0  0  0
   11.5571   -0.9985   22.0242 C   0  0  0  0  0  0  0  0  0  0  0  0
   13.7873    4.9119   22.7523 C   0  0  0  0  0  0  0  0  0  0  0  0
   14.8485    5.3272   22.6729 N   0  0  0  0  0  0  0  0  0  0  0  0
  1  2  1  0
  2  3  2  0
  3  4  1  0
  4  5  2  0
  5  6  1  0
  6  7  2  0
  7  8  1  0
  8  9  1  0
  9 10  1  0
 10 11  1  0
 11 12  1  0
 12 13  1  0
 12 14  1  0
 14 15  1  0
  5 16  1  0
 16 17  3  0
  7  2  1  0
 15  9  1  0
M  END
