CVD-0002180|dock_bobby27042020.35|mol2|21|dock2
     RDKit          3D

 25 27  0  0  0  0  0  0  0  0999 V2000
   11.4233   -1.4729   24.0340 O   0  0  0  0  0  0  0  0  0  0  0  0
   11.5870   -0.0853   23.7379 C   0  0  0  0  0  0  0  0  0  0  0  0
   13.0553    0.2657   23.5023 C   0  0  0  0  0  0  0  0  0  0  0  0
   13.2693    1.7111   23.0955 C   0  0  0  0  0  0  0  0  0  0  0  0
   12.4624    2.0686   21.9192 N   0  0  0  0  0  0  0  0  0  0  0  0
   12.7080    3.4707   21.5747 C   0  0  0  0  0  0  0  0  0  0  0  0
   12.3972    4.4373   22.6896 C   0  0  0  0  0  0  0  0  0  0  0  0
   13.3411    4.9193   23.6296 C   0  0  0  0  0  0  0  0  0  0  0  0
   12.8307    5.7798   24.5538 C   0  0  0  0  0  0  0  0  0  0  0  0
   11.1712    6.0044   24.2717 S   0  0  0  0  0  0  0  0  0  0  0  0
   11.1615    4.9551   22.9339 C   0  0  0  0  0  0  0  0  0  0  0  0
   11.0501    1.8320   22.2135 C   0  0  0  0  0  0  0  0  0  0  0  0
   10.8238    0.3476   22.4839 C   0  0  0  0  0  0  0  0  0  0  0  0
    9.0804   -0.0215   22.6657 S   0  0  0  0  0  0  0  0  0  0  0  0
    8.9818   -1.4247   22.9483 O   0  0  0  0  0  0  0  0  0  0  0  0
    8.5357    0.9078   23.6136 O   0  0  0  0  0  0  0  0  0  0  0  0
    8.3305    0.2327   21.2598 N   0  0  0  0  0  0  0  0  0  0  0  0
    8.0332   -0.8956   20.3690 C   0  0  0  0  0  0  0  0  0  0  0  0
    6.5512   -1.2238   20.3978 C   0  0  0  0  0  0  0  0  0  0  0  0
    5.6972   -0.1190   19.8244 C   0  0  0  0  0  0  0  0  0  0  0  0
    4.8008    0.5729   20.6242 C   0  0  0  0  0  0  0  0  0  0  0  0
    4.0148    1.5845   20.0980 C   0  0  0  0  0  0  0  0  0  0  0  0
    4.1150    1.9161   18.7642 C   0  0  0  0  0  0  0  0  0  0  0  0
    5.0009    1.2357   17.9570 C   0  0  0  0  0  0  0  0  0  0  0  0
    5.7865    0.2243   18.4842 C   0  0  0  0  0  0  0  0  0  0  0  0
  1  2  1  0
  2  3  1  0
  3  4  1  0
  4  5  1  0
  5  6  1  0
  6  7  1  0
  7  8  1  0
  8  9  2  0
  9 10  1  0
 10 11  1  0
  5 12  1  0
 12 13  1  0
 13 14  1  0
 14 15  2  0
 14 16  2  0
 14 17  1  0
 17 18  1  0
 18 19  1  0
 19 20  1  0
 20 21  2  0
 21 22  1  0
 22 23  2  0
 23 24  1  0
 24 25  2  0
 13  2  1  0
 25 20  1  0
 11  7  2  0
M  END
