CVD-0001626|dock_bobby27042020.80|mol2|30|dock1
     RDKit          3D

 20 22  0  0  0  0  0  0  0  0999 V2000
   13.6659    3.3867   22.2252 C   0  0  0  0  0  0  0  0  0  0  0  0
   12.7581    2.3141   22.0301 O   0  0  0  0  0  0  0  0  0  0  0  0
   12.9662    1.2603   22.9466 C   0  0  0  0  0  0  0  0  0  0  0  0
   11.9736    0.1650   22.7156 C   0  0  0  0  0  0  0  0  0  0  0  0
   10.6349    0.2333   23.1630 C   0  0  0  0  0  0  0  0  0  0  0  0
    9.8800   -0.8592   22.8665 C   0  0  0  0  0  0  0  0  0  0  0  0
   10.8036   -2.0399   22.0059 S   0  0  0  0  0  0  0  0  0  0  0  0
   12.1854   -1.0133   22.0803 C   0  0  0  0  0  0  0  0  0  0  0  0
   13.7882   -1.5906   21.3100 Br  0  0  0  0  0  0  0  0  0  0  0  0
    8.4116   -1.0886   23.2077 C   0  0  0  0  0  0  0  0  0  0  0  0
    7.9174   -2.2131   24.0918 C   0  0  0  0  0  0  0  0  0  0  0  0
    7.9742   -0.8216   24.6399 C   0  0  0  0  0  0  0  0  0  0  0  0
    7.5018   -0.5438   22.1632 N   0  0  0  0  0  0  0  0  0  0  0  0
    7.9978    0.7187   21.6188 C   0  0  0  0  0  0  0  0  0  0  0  0
    6.9890    1.3142   20.6673 C   0  0  0  0  0  0  0  0  0  0  0  0
    6.6425    0.3674   19.6053 N   0  0  0  0  0  0  0  0  0  0  0  0
    6.2737   -0.9603   20.1028 C   0  0  0  0  0  0  0  0  0  0  0  0
    7.3200   -1.4755   21.0549 C   0  0  0  0  0  0  0  0  0  0  0  0
    6.3977    0.7184   18.3534 C   0  0  0  0  0  0  0  0  0  0  0  0
    6.1948    0.9827   17.2562 N   0  0  0  0  0  0  0  0  0  0  0  0
  1  2  1  0
  2  3  1  0
  3  4  1  0
  4  5  1  0
  5  6  2  0
  6  7  1  0
  7  8  1  0
  8  9  1  0
  6 10  1  0
 10 11  1  0
 11 12  1  0
 10 13  1  0
 13 14  1  0
 14 15  1  0
 15 16  1  0
 16 17  1  0
 17 18  1  0
 16 19  1  0
 19 20  3  0
  8  4  2  0
 12 10  1  0
 18 13  1  0
M  END
