CVD-0001174|dock_bobby27042020.53|mol2|30|dock2
     RDKit          3D

 24 27  0  0  0  0  0  0  0  0999 V2000
   11.8934    0.1039   24.4949 O   0  0  0  0  0  0  0  0  0  0  0  0
   11.4013    0.5286   23.4635 C   0  0  0  0  0  0  0  0  0  0  0  0
   10.4129   -0.2443   22.8209 N   0  0  0  0  0  0  0  0  0  0  0  0
    9.7958   -0.0956   21.4991 C   0  0  0  0  0  0  0  0  0  0  0  0
    8.2993   -0.3862   21.4810 C   0  0  0  0  0  0  0  0  0  0  0  0
    7.8384   -0.6818   20.0560 C   0  0  0  0  0  0  0  0  0  0  0  0
    6.5087   -1.2969   19.9788 N   0  0  0  0  0  0  0  0  0  0  0  0
    5.8316   -1.2607   18.6800 C   0  0  0  0  0  0  0  0  0  0  0  0
    5.4348    0.1240   18.2802 C   0  0  0  0  0  0  0  0  0  0  0  0
    4.5117    0.9589   18.8209 C   0  0  0  0  0  0  0  0  0  0  0  0
    4.5390    2.1051   18.0834 N   0  0  0  0  0  0  0  0  0  0  0  0
    5.4620    1.9395   17.1300 C   0  0  0  0  0  0  0  0  0  0  0  0
    6.0367    0.7496   17.2063 N   0  0  0  0  0  0  0  0  0  0  0  0
    8.0146   -1.5330   22.3684 N   0  0  0  0  0  0  0  0  0  0  0  0
    7.7309   -1.0400   23.7167 C   0  0  0  0  0  0  0  0  0  0  0  0
    8.9937   -1.3022   24.5556 C   0  0  0  0  0  0  0  0  0  0  0  0
   10.0394   -1.5233   23.4457 C   0  0  0  0  0  0  0  0  0  0  0  0
    9.2044   -2.3672   22.4997 C   0  0  0  0  0  0  0  0  0  0  0  0
   11.9104    1.8615   22.9869 C   0  0  0  0  0  0  0  0  0  0  0  0
   13.2812    1.9885   22.7823 C   0  0  0  0  0  0  0  0  0  0  0  0
   13.8352    3.1847   22.3591 C   0  0  0  0  0  0  0  0  0  0  0  0
   13.0304    4.2781   22.1285 C   0  0  0  0  0  0  0  0  0  0  0  0
   11.6693    4.1694   22.3087 C   0  0  0  0  0  0  0  0  0  0  0  0
   11.1096    2.9715   22.7214 C   0  0  0  0  0  0  0  0  0  0  0  0
  1  2  2  0
  2  3  1  0
  3  4  1  0
  4  5  1  0
  5  6  1  0
  6  7  1  0
  7  8  1  0
  8  9  1  0
  9 10  2  0
 10 11  1  0
 11 12  1  0
 12 13  2  0
  5 14  1  0
 14 15  1  0
 15 16  1  0
 17 16  1  0
 17 18  1  0
  2 19  1  0
 19 20  2  0
 20 21  1  0
 21 22  2  0
 22 23  1  0
 23 24  2  0
 17  3  1  0
 24 19  1  0
 13  9  1  0
 18 14  1  0
M  END
