CVD-0003808|dock_bobby27042020.15|mol2|26|dock3
     RDKit          3D

 29 32  0  0  0  0  0  0  0  0999 V2000
    6.1337   -4.2902   26.7612 C   0  0  0  0  0  0  0  0  0  0  0  0
    7.4682   -4.9192   26.4574 C   0  0  0  0  0  0  0  0  0  0  0  0
    8.2444   -5.2193   27.5754 C   0  0  0  0  0  0  0  0  0  0  0  0
    9.5216   -5.7286   27.4657 C   0  0  0  0  0  0  0  0  0  0  0  0
   10.0471   -5.9376   26.2155 C   0  0  0  0  0  0  0  0  0  0  0  0
    9.2889   -5.6715   25.0888 C   0  0  0  0  0  0  0  0  0  0  0  0
    7.9772   -5.2027   25.1628 C   0  0  0  0  0  0  0  0  0  0  0  0
    7.1694   -4.9994   23.8968 C   0  0  0  0  0  0  0  0  0  0  0  0
    5.6459   -5.2612   24.0695 C   0  0  0  0  0  0  0  0  0  0  0  0
    5.2169   -6.0990   22.9091 C   0  0  0  0  0  0  0  0  0  0  0  0
    6.4048   -6.4880   22.1615 C   0  0  0  0  0  0  0  0  0  0  0  0
    7.6339   -5.9557   22.7753 C   0  0  0  0  0  0  0  0  0  0  0  0
    7.4196   -3.5996   23.4835 N   0  0  0  0  0  0  0  0  0  0  0  0
    8.7585   -3.0204   23.2030 C   0  0  0  0  0  0  0  0  0  0  0  0
    8.7120   -2.0265   22.0373 C   0  0  0  0  0  0  0  0  0  0  0  0
   10.0732   -1.4517   21.7641 C   0  0  0  0  0  0  0  0  0  0  0  0
   10.6517   -0.8167   22.9521 N   0  0  0  0  0  0  0  0  0  0  0  0
   10.7123   -1.7224   24.1227 C   0  0  0  0  0  0  0  0  0  0  0  0
    9.3548   -2.3302   24.4039 C   0  0  0  0  0  0  0  0  0  0  0  0
   11.2698    0.4290   22.9167 C   0  0  0  0  0  0  0  0  0  0  0  0
   10.5270    1.5985   22.7810 C   0  0  0  0  0  0  0  0  0  0  0  0
   11.1364    2.8404   22.7535 C   0  0  0  0  0  0  0  0  0  0  0  0
   12.5131    2.9294   22.8495 C   0  0  0  0  0  0  0  0  0  0  0  0
   13.2757    1.7826   22.9759 C   0  0  0  0  0  0  0  0  0  0  0  0
   12.6531    0.5477   23.0161 C   0  0  0  0  0  0  0  0  0  0  0  0
   13.3001    4.5109   22.8001 S   0  0  0  0  0  0  0  0  0  0  0  0
   12.8577    5.2559   21.4539 N   0  0  0  0  0  0  0  0  0  0  0  0
   14.7116    4.2837   22.7139 O   0  0  0  0  0  0  0  0  0  0  0  0
   12.7885    5.2777   23.8962 O   0  0  0  0  0  0  0  0  0  0  0  0
  1  2  1  0
  2  3  2  0
  3  4  1  0
  4  5  2  0
  5  6  1  0
  6  7  2  0
  7  8  1  0
  8  9  1  0
  9 10  1  0
 10 11  1  0
 11 12  1  0
  8 13  1  0
 13 14  1  0
 14 15  1  0
 15 16  1  0
 16 17  1  0
 17 18  1  0
 18 19  1  0
 17 20  1  0
 20 21  2  0
 21 22  1  0
 22 23  2  0
 23 24  1  0
 24 25  2  0
 23 26  1  0
 26 27  1  0
 26 28  2  0
 26 29  2  0
  7  2  1  0
 12  8  1  0
 19 14  1  0
 25 20  1  0
M  END
