CVD-0000790|dock_bobby27042020.54|mol2|41|dock2
     RDKit          3D

 29 32  0  0  0  0  0  0  0  0999 V2000
   13.6948    5.1696   21.7910 C   0  0  0  0  0  0  0  0  0  0  0  0
   13.0599    4.6967   23.0729 C   0  0  0  0  0  0  0  0  0  0  0  0
   11.9315    3.7064   22.8602 C   0  0  0  0  0  0  0  0  0  0  0  0
   10.6281    4.1518   22.6730 C   0  0  0  0  0  0  0  0  0  0  0  0
    9.5850    3.2598   22.4764 C   0  0  0  0  0  0  0  0  0  0  0  0
    8.2805    3.6409   22.2869 O   0  0  0  0  0  0  0  0  0  0  0  0
    7.7241    4.8121   22.9352 C   0  0  0  0  0  0  0  0  0  0  0  0
    6.3419    4.5062   23.5476 C   0  0  0  0  0  0  0  0  0  0  0  0
    5.6965    5.7402   24.1756 C   0  0  0  0  0  0  0  0  0  0  0  0
    5.6200    6.8923   23.1821 C   0  0  0  0  0  0  0  0  0  0  0  0
    6.9915    7.2112   22.6044 C   0  0  0  0  0  0  0  0  0  0  0  0
    7.6116    5.9837   21.9449 C   0  0  0  0  0  0  0  0  0  0  0  0
    9.8448    1.8860   22.4689 C   0  0  0  0  0  0  0  0  0  0  0  0
    9.0271    0.7759   22.2945 N   0  0  0  0  0  0  0  0  0  0  0  0
    7.5818    0.7419   22.0859 C   0  0  0  0  0  0  0  0  0  0  0  0
    7.2103    0.8498   20.6132 C   0  0  0  0  0  0  0  0  0  0  0  0
    5.6882    1.0236   20.4335 C   0  0  0  0  0  0  0  0  0  0  0  0
    5.2753    1.0622   18.9633 C   0  0  0  0  0  0  0  0  0  0  0  0
    5.7864   -0.1600   18.2115 C   0  0  0  0  0  0  0  0  0  0  0  0
    7.2931   -0.3092   18.3655 C   0  0  0  0  0  0  0  0  0  0  0  0
    7.6927   -0.3866   19.8354 C   0  0  0  0  0  0  0  0  0  0  0  0
    9.8068   -0.3386   22.3982 C   0  0  0  0  0  0  0  0  0  0  0  0
   11.1056   -0.0111   22.6176 C   0  0  0  0  0  0  0  0  0  0  0  0
   12.2792   -0.9421   22.7830 C   0  0  0  0  0  0  0  0  0  0  0  0
   13.1049   -0.6510   23.9601 N   0  0  0  0  0  0  0  0  0  0  0  0
   14.1204   -1.6821   24.1465 C   0  0  0  0  0  0  0  0  0  0  0  0
   12.2694   -0.5819   25.1535 C   0  0  0  0  0  0  0  0  0  0  0  0
   11.1557    1.4213   22.6648 C   0  0  0  0  0  0  0  0  0  0  0  0
   12.1841    2.3410   22.8553 C   0  0  0  0  0  0  0  0  0  0  0  0
  1  2  1  0
  2  3  1  0
  3  4  2  0
  4  5  1  0
  5  6  1  0
  6  7  1  0
  7  8  1  0
  8  9  1  0
  9 10  1  0
 10 11  1  0
 11 12  1  0
  5 13  2  0
 13 14  1  0
 14 15  1  0
 15 16  1  0
 16 17  1  0
 17 18  1  0
 18 19  1  0
 19 20  1  0
 20 21  1  0
 14 22  1  0
 22 23  2  0
 23 24  1  0
 24 25  1  0
 25 26  1  0
 25 27  1  0
 23 28  1  0
 28 29  2  0
 29  3  1  0
 12  7  1  0
 28 13  1  0
 21 16  1  0
M  END
