CVD-0001798|dock_bobby27042020.8|mol2|24|dock1
     RDKit          3D

 18 19  0  0  0  0  0  0  0  0999 V2000
   13.3802   -2.7474   25.6075 C   0  0  0  0  0  0  0  0  0  0  0  0
   12.6808   -2.7358   24.2802 C   0  0  0  0  0  0  0  0  0  0  0  0
   12.1588   -3.7475   23.8254 O   0  0  0  0  0  0  0  0  0  0  0  0
   12.6541   -1.5717   23.5865 N   0  0  0  0  0  0  0  0  0  0  0  0
   12.0166   -1.4436   22.2742 C   0  0  0  0  0  0  0  0  0  0  0  0
   11.0078   -0.3101   22.2833 C   0  0  0  0  0  0  0  0  0  0  0  0
   11.6620    0.9484   22.6535 N   0  0  0  0  0  0  0  0  0  0  0  0
   10.6976    2.0567   22.6252 C   0  0  0  0  0  0  0  0  0  0  0  0
   11.3454    3.4068   22.8169 C   0  0  0  0  0  0  0  0  0  0  0  0
   12.6861    3.5936   22.5053 C   0  0  0  0  0  0  0  0  0  0  0  0
   13.2802    4.8351   22.6788 C   0  0  0  0  0  0  0  0  0  0  0  0
   14.5981    5.0058   22.3699 O   0  0  0  0  0  0  0  0  0  0  0  0
   12.5414    5.9037   23.1645 C   0  0  0  0  0  0  0  0  0  0  0  0
   11.2104    5.7074   23.4695 C   0  0  0  0  0  0  0  0  0  0  0  0
   10.2714    7.0412   24.0796 Cl  0  0  0  0  0  0  0  0  0  0  0  0
   10.6064    4.4782   23.3021 C   0  0  0  0  0  0  0  0  0  0  0  0
   12.2427    0.8096   23.9866 C   0  0  0  0  0  0  0  0  0  0  0  0
   13.2674   -0.3099   24.0129 C   0  0  0  0  0  0  0  0  0  0  0  0
  1  2  1  0
  2  3  2  0
  2  4  1  0
  4  5  1  0
  5  6  1  0
  6  7  1  0
  7  8  1  0
  8  9  1  0
  9 10  2  0
 10 11  1  0
 11 12  1  0
 11 13  2  0
 13 14  1  0
 14 15  1  0
 14 16  2  0
  7 17  1  0
 17 18  1  0
 18  4  1  0
 16  9  1  0
M  END
