CVD-0002030|dock_bobby27042020.22|mol2|2|dock3
     RDKit          3D

 34 38  0  0  0  0  0  0  0  0999 V2000
   14.3723   -1.6522   23.8427 C   0  0  0  0  0  0  0  0  0  0  0  0
   12.9689   -1.2883   23.6532 N   0  0  0  0  0  0  0  0  0  0  0  0
   12.6939    0.0828   24.0925 C   0  0  0  0  0  0  0  0  0  0  0  0
   11.2175    0.3977   23.9380 C   0  0  0  0  0  0  0  0  0  0  0  0
   10.7992    0.2188   22.5458 N   0  0  0  0  0  0  0  0  0  0  0  0
   11.1158   -1.1268   22.0569 C   0  0  0  0  0  0  0  0  0  0  0  0
   12.5920   -1.4235   22.2486 C   0  0  0  0  0  0  0  0  0  0  0  0
   10.3057   -2.1949   22.7865 C   0  0  0  0  0  0  0  0  0  0  0  0
   10.8522   -2.9870   23.5495 O   0  0  0  0  0  0  0  0  0  0  0  0
    8.9955   -2.2061   22.5420 N   0  0  0  0  0  0  0  0  0  0  0  0
    8.0905   -3.1638   23.1613 C   0  0  0  0  0  0  0  0  0  0  0  0
    6.8585   -3.4077   22.3127 C   0  0  0  0  0  0  0  0  0  0  0  0
    6.1627   -4.6949   22.6455 C   0  0  0  0  0  0  0  0  0  0  0  0
    5.9730   -5.7699   21.8281 C   0  0  0  0  0  0  0  0  0  0  0  0
    5.2943   -6.7568   22.4896 N   0  0  0  0  0  0  0  0  0  0  0  0
    5.0277   -6.3321   23.7682 C   0  0  0  0  0  0  0  0  0  0  0  0
    4.3704   -6.9589   24.8210 C   0  0  0  0  0  0  0  0  0  0  0  0
    4.2406   -6.2885   26.0248 C   0  0  0  0  0  0  0  0  0  0  0  0
    4.7651   -5.0277   26.1382 C   0  0  0  0  0  0  0  0  0  0  0  0
    4.6305   -4.3801   27.3268 F   0  0  0  0  0  0  0  0  0  0  0  0
    5.4211   -4.3747   25.1218 C   0  0  0  0  0  0  0  0  0  0  0  0
    5.5604   -5.0362   23.9025 C   0  0  0  0  0  0  0  0  0  0  0  0
   10.2174    1.1748   21.7890 C   0  0  0  0  0  0  0  0  0  0  0  0
    9.9216    0.9542   20.6213 O   0  0  0  0  0  0  0  0  0  0  0  0
    9.9312    2.5340   22.4036 C   0  0  0  0  0  0  0  0  0  0  0  0
   11.1634    3.3436   22.6768 C   0  0  0  0  0  0  0  0  0  0  0  0
   12.4349    3.0748   22.2624 C   0  0  0  0  0  0  0  0  0  0  0  0
   13.2999    4.0403   22.7044 N   0  0  0  0  0  0  0  0  0  0  0  0
   12.5936    4.9613   23.4209 C   0  0  0  0  0  0  0  0  0  0  0  0
   13.0690    6.0637   24.0243 N   0  0  0  0  0  0  0  0  0  0  0  0
   12.1714    6.8184   24.6728 C   0  0  0  0  0  0  0  0  0  0  0  0
   10.8271    6.5219   24.7447 C   0  0  0  0  0  0  0  0  0  0  0  0
   10.3534    5.3807   24.1167 C   0  0  0  0  0  0  0  0  0  0  0  0
   11.2465    4.5619   23.4286 C   0  0  0  0  0  0  0  0  0  0  0  0
  1  2  1  0
  2  3  1  0
  3  4  1  0
  4  5  1  0
  5  6  1  0
  6  7  1  0
  6  8  1  0
  8  9  2  0
  8 10  1  0
 10 11  1  0
 11 12  1  0
 12 13  1  0
 13 14  2  0
 14 15  1  0
 15 16  1  0
 16 17  2  0
 17 18  1  0
 18 19  2  0
 19 20  1  0
 19 21  1  0
 21 22  2  0
  5 23  1  0
 23 24  2  0
 23 25  1  0
 25 26  1  0
 26 27  2  0
 27 28  1  0
 28 29  1  0
 29 30  2  0
 30 31  1  0
 31 32  2  0
 32 33  1  0
 33 34  2  0
  7  2  1  0
 22 13  1  0
 34 26  1  0
 22 16  1  0
 34 29  1  0
M  END
