CVD-0003898|dock_bobby27042020.15|mol2|13|dock1
     RDKit          3D

 28 31  0  0  0  0  0  0  0  0999 V2000
    8.2282    3.0173   22.5114 C   0  0  0  0  0  0  0  0  0  0  0  0
    9.2002    4.0876   22.6990 N   0  0  0  0  0  0  0  0  0  0  0  0
    8.8616    5.4195   22.7513 C   0  0  0  0  0  0  0  0  0  0  0  0
    9.9646    6.1849   22.9051 C   0  0  0  0  0  0  0  0  0  0  0  0
   11.0882    5.3032   22.9477 C   0  0  0  0  0  0  0  0  0  0  0  0
   12.4734    5.4800   23.0885 C   0  0  0  0  0  0  0  0  0  0  0  0
   13.3235    4.3888   23.0837 C   0  0  0  0  0  0  0  0  0  0  0  0
   12.8110    3.1105   22.9385 C   0  0  0  0  0  0  0  0  0  0  0  0
   11.4445    2.8780   22.7965 C   0  0  0  0  0  0  0  0  0  0  0  0
   10.9944    1.4411   22.6481 C   0  0  0  0  0  0  0  0  0  0  0  0
   10.7442    0.7517   24.0056 C   0  0  0  0  0  0  0  0  0  0  0  0
   10.5692   -0.7423   23.8792 C   0  0  0  0  0  0  0  0  0  0  0  0
   11.6220   -1.6140   24.1045 C   0  0  0  0  0  0  0  0  0  0  0  0
   11.4085   -2.9716   23.9716 C   0  0  0  0  0  0  0  0  0  0  0  0
   10.2296   -3.5094   23.6327 N   0  0  0  0  0  0  0  0  0  0  0  0
    9.2129   -2.6660   23.4150 C   0  0  0  0  0  0  0  0  0  0  0  0
    9.3420   -1.2867   23.5257 C   0  0  0  0  0  0  0  0  0  0  0  0
    7.8985   -3.2960   23.0307 C   0  0  0  0  0  0  0  0  0  0  0  0
    7.7843   -3.4728   21.5275 C   0  0  0  0  0  0  0  0  0  0  0  0
    6.4629   -4.1504   21.1881 C   0  0  0  0  0  0  0  0  0  0  0  0
    6.3301   -5.4619   21.9351 C   0  0  0  0  0  0  0  0  0  0  0  0
    6.4656   -5.2360   23.3808 N   0  0  0  0  0  0  0  0  0  0  0  0
    7.7338   -4.6135   23.7724 C   0  0  0  0  0  0  0  0  0  0  0  0
    5.6661   -5.7734   24.3263 C   0  0  0  0  0  0  0  0  0  0  0  0
    5.8161   -5.5347   25.5181 O   0  0  0  0  0  0  0  0  0  0  0  0
    4.5664   -6.6989   23.8433 C   0  0  0  0  0  0  0  0  0  0  0  0
    3.7278   -7.4599   25.2014 Cl  0  0  0  0  0  0  0  0  0  0  0  0
   10.5798    3.9890   22.8066 C   0  0  0  0  0  0  0  0  0  0  0  0
  1  2  1  0
  2  3  1  0
  3  4  2  0
  4  5  1  0
  5  6  2  0
  6  7  1  0
  7  8  2  0
  8  9  1  0
  9 10  1  0
 10 11  1  0
 11 12  1  0
 12 13  2  0
 13 14  1  0
 14 15  2  0
 15 16  1  0
 16 17  2  0
 16 18  1  0
 18 19  1  0
 19 20  1  0
 20 21  1  0
 21 22  1  0
 22 23  1  0
 22 24  1  0
 24 25  2  0
 24 26  1  0
 26 27  1  0
  9 28  2  0
 28  2  1  0
 28  5  1  0
 17 12  1  0
 23 18  1  0
M  END
