CVD-0001390|dock_bobby27042020.95|mol2|28|dock2
     RDKit          3D

 18 20  0  0  0  0  0  0  0  0999 V2000
    9.2941    0.3027   24.8327 O   0  0  0  0  0  0  0  0  0  0  0  0
    9.8643   -0.2326   23.8809 C   0  0  0  0  0  0  0  0  0  0  0  0
    9.2446   -0.3147   22.6424 N   0  0  0  0  0  0  0  0  0  0  0  0
    9.8217   -0.8793   21.6027 C   0  0  0  0  0  0  0  0  0  0  0  0
    9.1192   -0.9024   20.4333 N   0  0  0  0  0  0  0  0  0  0  0  0
    7.8390   -0.4133   20.0667 C   0  0  0  0  0  0  0  0  0  0  0  0
    6.7801   -0.2259   20.9490 C   0  0  0  0  0  0  0  0  0  0  0  0
    5.5628    0.2228   20.4668 C   0  0  0  0  0  0  0  0  0  0  0  0
    5.4449    0.5052   19.1256 C   0  0  0  0  0  0  0  0  0  0  0  0
    6.4518    0.3758   18.2622 N   0  0  0  0  0  0  0  0  0  0  0  0
    7.6165   -0.0755   18.7364 C   0  0  0  0  0  0  0  0  0  0  0  0
   11.0731   -1.4074   21.6953 N   0  0  0  0  0  0  0  0  0  0  0  0
   11.8062   -1.3964   22.8781 C   0  0  0  0  0  0  0  0  0  0  0  0
   13.0818   -1.9476   22.9518 C   0  0  0  0  0  0  0  0  0  0  0  0
   13.7631   -1.9077   24.1579 C   0  0  0  0  0  0  0  0  0  0  0  0
   13.1908   -1.3311   25.2730 C   0  0  0  0  0  0  0  0  0  0  0  0
   11.9220   -0.7796   25.2077 C   0  0  0  0  0  0  0  0  0  0  0  0
   11.2174   -0.8073   24.0057 C   0  0  0  0  0  0  0  0  0  0  0  0
  1  2  2  0
  2  3  1  0
  3  4  2  0
  4  5  1  0
  5  6  1  0
  6  7  2  0
  7  8  1  0
  8  9  2  0
  9 10  1  0
 10 11  2  0
  4 12  1  0
 12 13  1  0
 13 14  2  0
 14 15  1  0
 15 16  2  0
 16 17  1  0
 17 18  2  0
 18  2  1  0
 11  6  1  0
 18 13  1  0
M  END
