CVD-0001111|dock_bobby27042020.68|mol2|10|dock1
     RDKit          3D

 20 21  0  0  0  0  0  0  0  0999 V2000
   14.2790   -2.7078   25.2085 C   0  0  0  0  0  0  0  0  0  0  0  0
   13.7254   -1.1542   24.6093 S   0  0  0  0  0  0  0  0  0  0  0  0
   14.7192   -0.6445   23.7161 O   0  0  0  0  0  0  0  0  0  0  0  0
   13.3433   -0.3573   25.7337 O   0  0  0  0  0  0  0  0  0  0  0  0
   12.3879   -1.4162   23.7318 N   0  0  0  0  0  0  0  0  0  0  0  0
   11.1638   -1.8189   24.4138 C   0  0  0  0  0  0  0  0  0  0  0  0
   10.2979   -2.5652   23.4486 C   0  0  0  0  0  0  0  0  0  0  0  0
   10.0475   -1.7588   22.2546 N   0  0  0  0  0  0  0  0  0  0  0  0
   11.2753   -1.3977   21.5699 C   0  0  0  0  0  0  0  0  0  0  0  0
   12.1969   -0.6212   22.4985 C   0  0  0  0  0  0  0  0  0  0  0  0
   11.6944    0.7723   22.8171 C   0  0  0  0  0  0  0  0  0  0  0  0
   10.3818    0.9848   23.2153 C   0  0  0  0  0  0  0  0  0  0  0  0
    9.9287    2.2604   23.5082 C   0  0  0  0  0  0  0  0  0  0  0  0
   10.7814    3.3386   23.4077 C   0  0  0  0  0  0  0  0  0  0  0  0
   12.0879    3.1422   23.0148 C   0  0  0  0  0  0  0  0  0  0  0  0
   12.5420    1.8672   22.7216 C   0  0  0  0  0  0  0  0  0  0  0  0
    8.8063   -1.3270   21.9421 C   0  0  0  0  0  0  0  0  0  0  0  0
    7.8331   -1.5809   22.6408 O   0  0  0  0  0  0  0  0  0  0  0  0
    8.6625   -0.4983   20.6796 C   0  0  0  0  0  0  0  0  0  0  0  0
    6.9779   -0.0892   20.3294 Cl  0  0  0  0  0  0  0  0  0  0  0  0
  1  2  1  0
  2  3  2  0
  2  4  2  0
  2  5  1  0
  5  6  1  0
  6  7  1  0
  7  8  1  0
  8  9  1  0
  9 10  1  0
 10 11  1  0
 11 12  2  0
 12 13  1  0
 13 14  2  0
 14 15  1  0
 15 16  2  0
  8 17  1  0
 17 18  2  0
 17 19  1  0
 19 20  1  0
 10  5  1  0
 16 11  1  0
M  END
