CVD-0000286|dock_bobby27042020.27|mol2|36|dock1
     RDKit          3D

 26 28  0  0  0  0  0  0  0  0999 V2000
   14.3167    6.1032   21.7967 C   0  0  0  0  0  0  0  0  0  0  0  0
   13.0952    5.3083   22.2381 C   0  0  0  0  0  0  0  0  0  0  0  0
   13.4630    3.9156   22.4390 N   0  0  0  0  0  0  0  0  0  0  0  0
   12.5769    2.9240   22.2003 C   0  0  0  0  0  0  0  0  0  0  0  0
   11.5249    3.1354   21.6040 O   0  0  0  0  0  0  0  0  0  0  0  0
   12.9960    1.7119   22.6922 N   0  0  0  0  0  0  0  0  0  0  0  0
   12.3799    0.4357   22.6585 C   0  0  0  0  0  0  0  0  0  0  0  0
   13.0548   -0.6259   23.2499 C   0  0  0  0  0  0  0  0  0  0  0  0
   12.5018   -1.8951   23.2478 C   0  0  0  0  0  0  0  0  0  0  0  0
   11.2711   -2.1167   22.6558 C   0  0  0  0  0  0  0  0  0  0  0  0
   10.5810   -1.0740   22.0604 C   0  0  0  0  0  0  0  0  0  0  0  0
    9.2444   -1.3102   21.4174 C   0  0  0  0  0  0  0  0  0  0  0  0
    8.8808   -0.2843   20.4871 O   0  0  0  0  0  0  0  0  0  0  0  0
    7.5159   -0.2132   20.0419 C   0  0  0  0  0  0  0  0  0  0  0  0
    6.6470    0.4833   21.0837 C   0  0  0  0  0  0  0  0  0  0  0  0
    5.1892    0.4816   20.6303 C   0  0  0  0  0  0  0  0  0  0  0  0
    5.0366    1.1003   19.2436 C   0  0  0  0  0  0  0  0  0  0  0  0
    5.9641    0.4672   18.2108 C   0  0  0  0  0  0  0  0  0  0  0  0
    5.4908   -0.9653   17.9873 C   0  0  0  0  0  0  0  0  0  0  0  0
    7.4172    0.4855   18.6972 C   0  0  0  0  0  0  0  0  0  0  0  0
   11.1408    0.1974   22.0660 C   0  0  0  0  0  0  0  0  0  0  0  0
   12.5079    5.8721   23.5032 C   0  0  0  0  0  0  0  0  0  0  0  0
   11.2564    6.3678   23.7595 C   0  0  0  0  0  0  0  0  0  0  0  0
   11.2663    6.7513   25.0966 C   0  0  0  0  0  0  0  0  0  0  0  0
   12.4472    6.5152   25.6552 N   0  0  0  0  0  0  0  0  0  0  0  0
   13.1940    5.9730   24.6502 N   0  0  0  0  0  0  0  0  0  0  0  0
  1  2  1  0
  2  3  1  0
  3  4  1  0
  4  5  2  0
  4  6  1  0
  6  7  1  0
  7  8  2  0
  8  9  1  0
  9 10  2  0
 10 11  1  0
 11 12  1  0
 12 13  1  0
 13 14  1  0
 14 15  1  0
 15 16  1  0
 16 17  1  0
 17 18  1  0
 18 19  1  0
 18 20  1  0
 11 21  2  0
  2 22  1  0
 22 23  2  0
 23 24  1  0
 24 25  2  0
 25 26  1  0
 21  7  1  0
 26 22  1  0
 20 14  1  0
M  END
