CVD-0003147|dock_bobby27042020.17|mol2|21|dock2
     RDKit          3D

 26 30  0  0  0  0  0  0  0  0999 V2000
    9.8780   -6.5355   23.9398 N   0  0  0  0  0  0  0  0  0  0  0  0
    9.2042   -5.6510   24.8973 C   0  0  0  0  0  0  0  0  0  0  0  0
    9.1948   -6.2350   26.3075 C   0  0  0  0  0  0  0  0  0  0  0  0
    8.3908   -5.3812   27.2741 C   0  0  0  0  0  0  0  0  0  0  0  0
    8.6666   -3.9561   27.0522 N   0  0  0  0  0  0  0  0  0  0  0  0
    8.1009   -2.9936   27.8363 N   0  0  0  0  0  0  0  0  0  0  0  0
    8.4010   -1.8491   27.2517 C   0  0  0  0  0  0  0  0  0  0  0  0
    9.1655   -2.0123   26.0763 C   0  0  0  0  0  0  0  0  0  0  0  0
    9.9131   -0.9165   25.3730 C   0  0  0  0  0  0  0  0  0  0  0  0
   10.9128   -0.5000   25.9468 O   0  0  0  0  0  0  0  0  0  0  0  0
    9.5819   -0.3889   24.1748 N   0  0  0  0  0  0  0  0  0  0  0  0
    8.5190   -0.7162   23.2017 C   0  0  0  0  0  0  0  0  0  0  0  0
    9.0144   -0.0693   21.9023 C   0  0  0  0  0  0  0  0  0  0  0  0
    9.4640    1.2493   22.5536 C   0  0  0  0  0  0  0  0  0  0  0  0
   10.4526    2.2217   21.9098 C   0  0  0  0  0  0  0  0  0  0  0  0
   11.0134    2.9156   23.1509 C   0  0  0  0  0  0  0  0  0  0  0  0
   10.7193    1.9821   24.3266 C   0  0  0  0  0  0  0  0  0  0  0  0
   10.4096    0.6780   23.5955 C   0  0  0  0  0  0  0  0  0  0  0  0
    7.9947    0.0441   20.7870 C   0  0  0  0  0  0  0  0  0  0  0  0
    6.9208    0.9170   20.8925 C   0  0  0  0  0  0  0  0  0  0  0  0
    5.9906    1.0227   19.8718 C   0  0  0  0  0  0  0  0  0  0  0  0
    6.1227    0.2577   18.7329 C   0  0  0  0  0  0  0  0  0  0  0  0
    7.1848   -0.6127   18.6136 C   0  0  0  0  0  0  0  0  0  0  0  0
    8.1153   -0.7189   19.6338 C   0  0  0  0  0  0  0  0  0  0  0  0
    9.3076   -3.3960   25.9956 C   0  0  0  0  0  0  0  0  0  0  0  0
    9.8856   -4.2750   24.9332 C   0  0  0  0  0  0  0  0  0  0  0  0
  2  1  1  0
  2  3  1  0
  3  4  1  0
  4  5  1  0
  5  6  1  0
  6  7  2  0
  7  8  1  0
  8  9  1  0
  9 10  2  0
  9 11  1  0
 11 12  1  0
 12 13  1  0
 13 14  1  0
 14 15  1  0
 15 16  1  0
 16 17  1  0
 18 17  1  0
 13 19  1  0
 19 20  2  0
 20 21  1  0
 21 22  2  0
 22 23  1  0
 23 24  2  0
  8 25  2  0
 25 26  1  0
 26  2  1  0
 25  5  1  0
 18 11  1  0
 24 19  1  0
 18 14  1  0
M  END
