CVD-0001467|dock_bobby27042020.9|mol2|35|dock3
     RDKit          3D

 24 27  0  0  0  0  0  0  0  0999 V2000
    2.5558    3.9044   17.6439 C   0  0  0  0  0  0  0  0  0  0  0  0
    3.0957    3.1171   18.5412 C   0  0  0  0  0  0  0  0  0  0  0  0
    4.3280    2.2808   18.3816 C   0  0  0  0  0  0  0  0  0  0  0  0
    4.8986    2.3262   17.2931 O   0  0  0  0  0  0  0  0  0  0  0  0
    4.8551    1.4727   19.3364 N   0  0  0  0  0  0  0  0  0  0  0  0
    4.3026    1.3063   20.6723 C   0  0  0  0  0  0  0  0  0  0  0  0
    5.1487    0.2127   21.3226 C   0  0  0  0  0  0  0  0  0  0  0  0
    6.0283    0.6754   22.4646 C   0  0  0  0  0  0  0  0  0  0  0  0
    7.1662   -0.2332   22.4071 N   0  0  0  0  0  0  0  0  0  0  0  0
    8.2754    0.2339   23.2412 C   0  0  0  0  0  0  0  0  0  0  0  0
    9.5115   -0.6115   23.1371 C   0  0  0  0  0  0  0  0  0  0  0  0
    9.6205   -1.9610   22.8719 C   0  0  0  0  0  0  0  0  0  0  0  0
   10.9021   -2.3175   22.7360 N   0  0  0  0  0  0  0  0  0  0  0  0
   11.7219   -1.1163   22.6096 C   0  0  0  0  0  0  0  0  0  0  0  0
   13.1710   -0.9834   22.9648 C   0  0  0  0  0  0  0  0  0  0  0  0
   13.6445    0.2592   23.0770 C   0  0  0  0  0  0  0  0  0  0  0  0
   12.7620    1.3900   22.8977 C   0  0  0  0  0  0  0  0  0  0  0  0
   11.4309    1.2525   23.0379 C   0  0  0  0  0  0  0  0  0  0  0  0
   10.9199   -0.1052   23.4180 C   0  0  0  0  0  0  0  0  0  0  0  0
   13.3078    2.6801   22.5768 C   0  0  0  0  0  0  0  0  0  0  0  0
   13.7249    3.7210   22.3479 N   0  0  0  0  0  0  0  0  0  0  0  0
    7.5099   -0.1253   20.9895 C   0  0  0  0  0  0  0  0  0  0  0  0
    6.1733   -0.2411   20.2726 C   0  0  0  0  0  0  0  0  0  0  0  0
    6.0330    0.7007   19.0831 C   0  0  0  0  0  0  0  0  0  0  0  0
  1  2  2  0
  2  3  1  0
  3  4  2  0
  3  5  1  0
  5  6  1  0
  7  6  1  0
  7  8  1  0
  8  9  1  0
  9 10  1  0
 10 11  1  0
 11 12  2  0
 12 13  1  0
 13 14  1  0
 14 15  1  0
 15 16  2  0
 16 17  1  0
 17 18  2  0
 18 19  1  0
 17 20  1  0
 20 21  3  0
  9 22  1  0
 23 22  1  0
 23 24  1  0
 24  5  1  0
 23  7  1  0
 19 11  1  0
 19 14  1  0
M  END
