CVD-0003684|dock_bobby27042020.44|mol2|32|dock3
     RDKit          3D

 19 20  0  0  0  0  0  0  0  0999 V2000
    7.6941   -0.0220   18.7206 C   0  0  0  0  0  0  0  0  0  0  0  0
    6.4416   -0.8313   19.0402 C   0  0  0  0  0  0  0  0  0  0  0  0
    5.3397    0.0604   19.6027 C   0  0  0  0  0  0  0  0  0  0  0  0
    5.9595   -1.3977   17.8062 O   0  0  0  0  0  0  0  0  0  0  0  0
    6.7762   -1.9458   20.0371 C   0  0  0  0  0  0  0  0  0  0  0  0
    6.1122   -3.1636   20.0181 C   0  0  0  0  0  0  0  0  0  0  0  0
    6.3814   -4.1465   20.8817 N   0  0  0  0  0  0  0  0  0  0  0  0
    7.3307   -3.9040   21.7901 C   0  0  0  0  0  0  0  0  0  0  0  0
    7.5792   -4.9170   22.7046 N   0  0  0  0  0  0  0  0  0  0  0  0
    8.1821   -4.9444   23.9790 C   0  0  0  0  0  0  0  0  0  0  0  0
    7.9878   -3.8519   24.8182 C   0  0  0  0  0  0  0  0  0  0  0  0
    8.5414   -3.8330   26.0899 C   0  0  0  0  0  0  0  0  0  0  0  0
    8.3375   -2.7548   26.9006 O   0  0  0  0  0  0  0  0  0  0  0  0
    9.2992   -4.9010   26.5440 C   0  0  0  0  0  0  0  0  0  0  0  0
    9.5082   -5.9839   25.7042 C   0  0  0  0  0  0  0  0  0  0  0  0
   10.2561   -7.0394   26.1377 O   0  0  0  0  0  0  0  0  0  0  0  0
    8.9666   -6.0051   24.4270 C   0  0  0  0  0  0  0  0  0  0  0  0
    8.0379   -2.6815   21.7930 C   0  0  0  0  0  0  0  0  0  0  0  0
    7.7420   -1.7031   20.9286 N   0  0  0  0  0  0  0  0  0  0  0  0
  1  2  1  0
  2  3  1  0
  2  4  1  0
  2  5  1  0
  5  6  2  0
  6  7  1  0
  7  8  2  0
  8  9  1  0
  9 10  1  0
 10 11  2  0
 11 12  1  0
 12 13  1  0
 12 14  2  0
 14 15  1  0
 15 16  1  0
 15 17  2  0
  8 18  1  0
 18 19  2  0
 19  5  1  0
 17 10  1  0
M  END
