CVD-0001375|dock_bobby27042020.67|mol2|21|dock3
     RDKit          3D

 31 33  0  0  0  0  0  0  0  0999 V2000
    5.7301   -6.9116   28.0628 C   0  0  0  0  0  0  0  0  0  0  0  0
    6.8812   -6.0142   28.4685 C   0  0  0  0  0  0  0  0  0  0  0  0
    8.2011   -6.6484   28.0782 C   0  0  0  0  0  0  0  0  0  0  0  0
    6.8283   -5.7372   29.9575 C   0  0  0  0  0  0  0  0  0  0  0  0
    6.7258   -4.7359   27.7351 O   0  0  0  0  0  0  0  0  0  0  0  0
    6.6970   -4.6577   26.3924 C   0  0  0  0  0  0  0  0  0  0  0  0
    6.5386   -5.5853   25.6286 O   0  0  0  0  0  0  0  0  0  0  0  0
    6.8795   -3.3376   26.0499 N   0  0  0  0  0  0  0  0  0  0  0  0
    6.9184   -2.8031   24.7416 C   0  0  0  0  0  0  0  0  0  0  0  0
    7.3665   -3.3830   23.5866 C   0  0  0  0  0  0  0  0  0  0  0  0
    7.3253   -2.6879   22.3584 C   0  0  0  0  0  0  0  0  0  0  0  0
    6.8421   -1.4102   22.2615 C   0  0  0  0  0  0  0  0  0  0  0  0
    6.3895   -0.8208   23.4260 N   0  0  0  0  0  0  0  0  0  0  0  0
    6.3884   -1.4203   24.6733 C   0  0  0  0  0  0  0  0  0  0  0  0
    5.9679   -0.8229   25.6630 O   0  0  0  0  0  0  0  0  0  0  0  0
    6.7625   -0.6333   21.0067 C   0  0  0  0  0  0  0  0  0  0  0  0
    5.5394   -0.0146   20.7345 C   0  0  0  0  0  0  0  0  0  0  0  0
    5.3285    0.6611   19.5476 C   0  0  0  0  0  0  0  0  0  0  0  0
    6.3296    0.7332   18.6089 C   0  0  0  0  0  0  0  0  0  0  0  0
    7.5684    0.1710   18.8603 C   0  0  0  0  0  0  0  0  0  0  0  0
    7.8152   -0.4870   20.0678 C   0  0  0  0  0  0  0  0  0  0  0  0
    9.1030   -0.9967   20.3848 N   0  0  0  0  0  0  0  0  0  0  0  0
    9.7455   -1.0311   21.6019 C   0  0  0  0  0  0  0  0  0  0  0  0
    9.2686   -0.6070   22.6498 O   0  0  0  0  0  0  0  0  0  0  0  0
   10.9952   -1.5963   21.4896 N   0  0  0  0  0  0  0  0  0  0  0  0
   11.9984   -1.8291   22.4644 C   0  0  0  0  0  0  0  0  0  0  0  0
   11.6054   -2.1576   23.7556 C   0  0  0  0  0  0  0  0  0  0  0  0
   12.5629   -2.3903   24.7271 C   0  0  0  0  0  0  0  0  0  0  0  0
   13.8898   -2.2881   24.3809 C   0  0  0  0  0  0  0  0  0  0  0  0
   14.3003   -1.9750   23.1521 N   0  0  0  0  0  0  0  0  0  0  0  0
   13.3683   -1.7518   22.2202 C   0  0  0  0  0  0  0  0  0  0  0  0
  1  2  1  0
  2  3  1  0
  2  4  1  0
  2  5  1  0
  5  6  1  0
  6  7  2  0
  6  8  1  0
  8  9  1  0
  9 10  2  0
 10 11  1  0
 11 12  2  0
 12 13  1  0
 13 14  1  0
 14 15  2  0
 12 16  1  0
 16 17  2  0
 17 18  1  0
 18 19  2  0
 19 20  1  0
 20 21  2  0
 21 22  1  0
 22 23  1  0
 23 24  2  0
 23 25  1  0
 25 26  1  0
 26 27  2  0
 27 28  1  0
 28 29  2  0
 29 30  1  0
 30 31  2  0
 14  9  1  0
 21 16  1  0
 31 26  1  0
M  END
