CVD-0001390|dock_bobby27042020.81|mol2|16|dock2
     RDKit          3D

 18 20  0  0  0  0  0  0  0  0999 V2000
    9.3887    0.4963   24.8035 O   0  0  0  0  0  0  0  0  0  0  0  0
    9.9309   -0.0934   23.8676 C   0  0  0  0  0  0  0  0  0  0  0  0
    9.2922   -0.2088   22.6414 N   0  0  0  0  0  0  0  0  0  0  0  0
    9.8396   -0.8310   21.6186 C   0  0  0  0  0  0  0  0  0  0  0  0
    9.1197   -0.8843   20.4608 N   0  0  0  0  0  0  0  0  0  0  0  0
    7.8406   -0.3911   20.0961 C   0  0  0  0  0  0  0  0  0  0  0  0
    6.7694   -0.2435   20.9710 C   0  0  0  0  0  0  0  0  0  0  0  0
    5.5777    0.2851   20.5061 C   0  0  0  0  0  0  0  0  0  0  0  0
    5.4757    0.6192   19.1755 C   0  0  0  0  0  0  0  0  0  0  0  0
    6.4694    0.4515   18.3034 N   0  0  0  0  0  0  0  0  0  0  0  0
    7.6207   -0.0426   18.7682 C   0  0  0  0  0  0  0  0  0  0  0  0
   11.0700   -1.4043   21.7223 N   0  0  0  0  0  0  0  0  0  0  0  0
   11.8219   -1.3599   22.8924 C   0  0  0  0  0  0  0  0  0  0  0  0
   13.0806   -1.9479   22.9745 C   0  0  0  0  0  0  0  0  0  0  0  0
   13.7827   -1.8703   24.1667 C   0  0  0  0  0  0  0  0  0  0  0  0
   13.2474   -1.2213   25.2601 C   0  0  0  0  0  0  0  0  0  0  0  0
   11.9949   -0.6345   25.1868 C   0  0  0  0  0  0  0  0  0  0  0  0
   11.2694   -0.6997   23.9988 C   0  0  0  0  0  0  0  0  0  0  0  0
  1  2  2  0
  2  3  1  0
  3  4  2  0
  4  5  1  0
  5  6  1  0
  6  7  2  0
  7  8  1  0
  8  9  2  0
  9 10  1  0
 10 11  2  0
  4 12  1  0
 12 13  1  0
 13 14  2  0
 14 15  1  0
 15 16  2  0
 16 17  1  0
 17 18  2  0
 18  2  1  0
 11  6  1  0
 18 13  1  0
M  END
