CVD-0003309|dock_bobby27042020.88|mol2|23|dock3
     RDKit          3D

 20 21  0  0  0  0  0  0  0  0999 V2000
   12.6401    5.9424   23.9433 C   0  0  0  0  0  0  0  0  0  0  0  0
   13.2685    5.0741   22.5585 S   0  0  0  0  0  0  0  0  0  0  0  0
   13.3269    5.9817   21.4546 O   0  0  0  0  0  0  0  0  0  0  0  0
   14.4693    4.4084   22.9595 O   0  0  0  0  0  0  0  0  0  0  0  0
   12.2062    3.9361   22.1752 N   0  0  0  0  0  0  0  0  0  0  0  0
   12.2830    2.6188   22.8152 C   0  0  0  0  0  0  0  0  0  0  0  0
   10.9112    2.1208   23.2375 C   0  0  0  0  0  0  0  0  0  0  0  0
    9.8858    2.1729   22.1033 C   0  0  0  0  0  0  0  0  0  0  0  0
    8.8069    1.1712   22.5296 C   0  0  0  0  0  0  0  0  0  0  0  0
    9.6338   -0.0007   23.0538 C   0  0  0  0  0  0  0  0  0  0  0  0
   10.7873    0.6458   23.8394 C   0  0  0  0  0  0  0  0  0  0  0  0
   11.9894   -0.2644   23.9310 C   0  0  0  0  0  0  0  0  0  0  0  0
   12.6054   -0.7456   22.7841 C   0  0  0  0  0  0  0  0  0  0  0  0
   13.7070   -1.5807   22.8685 C   0  0  0  0  0  0  0  0  0  0  0  0
   14.2065   -1.9455   24.1002 C   0  0  0  0  0  0  0  0  0  0  0  0
   13.6050   -1.4758   25.2478 C   0  0  0  0  0  0  0  0  0  0  0  0
   12.5034   -0.6406   25.1642 C   0  0  0  0  0  0  0  0  0  0  0  0
    8.8533   -0.9693   23.9181 C   0  0  0  0  0  0  0  0  0  0  0  0
    9.3800   -2.1745   24.0633 N   0  0  0  0  0  0  0  0  0  0  0  0
    7.7907   -0.6366   24.4478 O   0  0  0  0  0  0  0  0  0  0  0  0
  1  2  1  0
  2  3  2  0
  2  4  2  0
  2  5  1  0
  5  6  1  0
  6  7  1  0
  7  8  1  0
  8  9  1  0
  9 10  1  0
 10 11  1  0
 11 12  1  0
 12 13  2  0
 13 14  1  0
 14 15  2  0
 15 16  1  0
 16 17  2  0
 10 18  1  0
 18 19  1  0
 18 20  2  0
 11  7  1  0
 17 12  1  0
M  END
