CVD-0001991|dock_bobby27042020.93|mol2|21|dock1
     RDKit          3D

 20 22  0  0  0  0  0  0  0  0999 V2000
   13.6062   -1.9180   21.1619 C   0  0  0  0  0  0  0  0  0  0  0  0
   13.8021   -1.0073   22.3714 C   0  0  0  0  0  0  0  0  0  0  0  0
   13.7881   -1.8255   23.6485 C   0  0  0  0  0  0  0  0  0  0  0  0
   14.1279   -1.1365   24.7083 O   0  0  0  0  0  0  0  0  0  0  0  0
   13.4931   -3.0000   23.6776 O   0  0  0  0  0  0  0  0  0  0  0  0
   12.7118    0.0514   22.4684 C   0  0  0  0  0  0  0  0  0  0  0  0
   11.3719   -0.3187   22.4459 C   0  0  0  0  0  0  0  0  0  0  0  0
   10.3578    0.6194   22.5263 C   0  0  0  0  0  0  0  0  0  0  0  0
   10.6899    1.9674   22.6319 C   0  0  0  0  0  0  0  0  0  0  0  0
   12.0439    2.3377   22.6601 C   0  0  0  0  0  0  0  0  0  0  0  0
   13.0593    1.3921   22.5755 C   0  0  0  0  0  0  0  0  0  0  0  0
   12.1310    3.7136   22.7796 N   0  0  0  0  0  0  0  0  0  0  0  0
   13.3690    4.4895   22.7819 C   0  0  0  0  0  0  0  0  0  0  0  0
   10.8511    4.2401   22.8071 C   0  0  0  0  0  0  0  0  0  0  0  0
   10.4380    5.5644   22.8977 C   0  0  0  0  0  0  0  0  0  0  0  0
    9.0818    5.8436   22.9150 C   0  0  0  0  0  0  0  0  0  0  0  0
    8.1664    4.8134   22.8428 C   0  0  0  0  0  0  0  0  0  0  0  0
    6.4665    5.1906   22.8705 Cl  0  0  0  0  0  0  0  0  0  0  0  0
    8.5549    3.4917   22.7488 C   0  0  0  0  0  0  0  0  0  0  0  0
    9.9158    3.1943   22.7268 C   0  0  0  0  0  0  0  0  0  0  0  0
  2  1  1  0
  2  3  1  0
  3  4  1  0
  3  5  2  0
  2  6  1  0
  6  7  2  0
  7  8  1  0
  8  9  2  0
  9 10  1  0
 10 11  2  0
 10 12  1  0
 12 13  1  0
 12 14  1  0
 14 15  2  0
 15 16  1  0
 16 17  2  0
 17 18  1  0
 17 19  1  0
 19 20  2  0
 11  6  1  0
 20 14  1  0
 20  9  1  0
M  END
