CVD-0000070|dock_bobby27042020.28|mol2|31|dock3
     RDKit          3D

 17 17  0  0  0  0  0  0  0  0999 V2000
   13.3529   -2.1361   21.4040 C   0  0  0  0  0  0  0  0  0  0  0  0
   12.8570   -1.4022   22.6233 C   0  0  0  0  0  0  0  0  0  0  0  0
   13.7378   -1.2050   23.6827 C   0  0  0  0  0  0  0  0  0  0  0  0
   13.3141   -0.5354   24.8085 C   0  0  0  0  0  0  0  0  0  0  0  0
   12.0822   -0.0537   24.9456 N   0  0  0  0  0  0  0  0  0  0  0  0
   11.2274   -0.2359   23.9342 C   0  0  0  0  0  0  0  0  0  0  0  0
   11.5478   -0.8983   22.7486 C   0  0  0  0  0  0  0  0  0  0  0  0
   10.6435   -1.0955   21.6673 N   0  0  0  0  0  0  0  0  0  0  0  0
    9.2733   -0.9898   21.6440 C   0  0  0  0  0  0  0  0  0  0  0  0
    8.5493   -0.6940   22.5898 O   0  0  0  0  0  0  0  0  0  0  0  0
    8.7591   -1.2528   20.4262 N   0  0  0  0  0  0  0  0  0  0  0  0
    7.3267   -1.2000   20.1714 C   0  0  0  0  0  0  0  0  0  0  0  0
    6.8282    0.2215   20.0027 C   0  0  0  0  0  0  0  0  0  0  0  0
    5.3485    0.2656   19.6473 C   0  0  0  0  0  0  0  0  0  0  0  0
    4.8924    1.6596   19.2346 C   0  0  0  0  0  0  0  0  0  0  0  0
    3.5228    1.7354   19.2166 N   0  0  0  0  0  0  0  0  0  0  0  0
    5.3879    1.9847   17.9975 N   0  0  0  0  0  0  0  0  0  0  0  0
  1  2  1  0
  2  3  2  0
  3  4  1  0
  4  5  2  0
  5  6  1  0
  6  7  2  0
  7  8  1  0
  8  9  1  0
  9 10  2  0
  9 11  1  0
 11 12  1  0
 12 13  1  0
 13 14  1  0
 14 15  1  0
 15 16  1  0
 15 17  1  0
  7  2  1  0
M  END
