CVD-0001980|dock_bobby27042020.50|mol2|37|dock1
     RDKit          3D

 11 11  0  0  0  0  0  0  0  0999 V2000
   14.3148   -2.3419   25.6356 C   0  0  0  0  0  0  0  0  0  0  0  0
   13.8227   -1.4735   24.4824 C   0  0  0  0  0  0  0  0  0  0  0  0
   12.8354   -0.4303   24.9682 C   0  0  0  0  0  0  0  0  0  0  0  0
   12.2637    0.3609   23.8015 C   0  0  0  0  0  0  0  0  0  0  0  0
   11.6394   -0.5385   22.7724 C   0  0  0  0  0  0  0  0  0  0  0  0
   10.3645   -0.3825   22.3295 C   0  0  0  0  0  0  0  0  0  0  0  0
    9.6421   -1.1947   21.2857 C   0  0  0  0  0  0  0  0  0  0  0  0
    9.4293    0.6852   22.8369 C   0  0  0  0  0  0  0  0  0  0  0  0
   12.5033   -1.6652   22.3388 C   0  0  0  0  0  0  0  0  0  0  0  0
   12.6674   -2.0077   21.1755 O   0  0  0  0  0  0  0  0  0  0  0  0
   13.1767   -2.4012   23.4778 C   0  0  0  0  0  0  0  0  0  0  0  0
  1  2  1  0
  2  3  1  0
  3  4  1  0
  4  5  1  0
  5  6  2  3
  6  7  1  0
  6  8  1  0
  5  9  1  0
  9 10  2  0
  9 11  1  0
 11  2  1  0
M  END
