CVD-0000078|dock_bobby27042020.99|mol2|42|dock3
     RDKit          3D

 17 18  0  0  0  0  0  0  0  0999 V2000
   13.6692    5.7428   22.2562 C   0  0  0  0  0  0  0  0  0  0  0  0
   12.4937    4.8510   22.4819 C   0  0  0  0  0  0  0  0  0  0  0  0
   11.4175    5.2218   23.0911 N   0  0  0  0  0  0  0  0  0  0  0  0
   10.4675    4.2059   23.1832 N   0  0  0  0  0  0  0  0  0  0  0  0
   10.8669    3.1070   22.6391 C   0  0  0  0  0  0  0  0  0  0  0  0
   10.0342    1.8593   22.6096 C   0  0  0  0  0  0  0  0  0  0  0  0
   10.5553    0.8861   23.6459 C   0  0  0  0  0  0  0  0  0  0  0  0
    9.9417    0.7139   24.6935 O   0  0  0  0  0  0  0  0  0  0  0  0
   11.7170    0.2832   23.2917 N   0  0  0  0  0  0  0  0  0  0  0  0
   12.5124   -0.6669   23.9914 C   0  0  0  0  0  0  0  0  0  0  0  0
   12.5648   -0.7743   25.3815 C   0  0  0  0  0  0  0  0  0  0  0  0
   13.3141   -1.6666   26.0364 N   0  0  0  0  0  0  0  0  0  0  0  0
   14.0535   -2.5025   25.3131 C   0  0  0  0  0  0  0  0  0  0  0  0
   14.0775   -2.4858   23.9366 C   0  0  0  0  0  0  0  0  0  0  0  0
   13.3015   -1.5619   23.2430 C   0  0  0  0  0  0  0  0  0  0  0  0
   13.3532   -1.5670   21.7366 C   0  0  0  0  0  0  0  0  0  0  0  0
   12.4636    3.1987   21.9584 S   0  0  0  0  0  0  0  0  0  0  0  0
  1  2  1  0
  2  3  2  0
  3  4  1  0
  4  5  2  0
  5  6  1  0
  6  7  1  0
  7  8  2  0
  7  9  1  0
  9 10  1  0
 10 11  2  0
 11 12  1  0
 12 13  2  0
 13 14  1  0
 14 15  2  0
 15 16  1  0
  5 17  1  0
 17  2  1  0
 15 10  1  0
M  END
