CVD-0002274|dock_bobby27042020.35|mol2|6|dock2
     RDKit          3D

 40 43  0  0  0  0  0  0  0  0999 V2000
    5.1914    0.9461   17.5534 C   0  0  0  0  0  0  0  0  0  0  0  0
    6.3411    0.4463   18.3120 N   0  0  0  0  0  0  0  0  0  0  0  0
    6.1472   -0.8820   18.9033 C   0  0  0  0  0  0  0  0  0  0  0  0
    7.1153   -1.1375   20.0285 C   0  0  0  0  0  0  0  0  0  0  0  0
    8.3941   -0.5646   20.1453 C   0  0  0  0  0  0  0  0  0  0  0  0
    9.0163   -1.0197   21.2949 C   0  0  0  0  0  0  0  0  0  0  0  0
   10.3674   -0.6615   21.7993 C   0  0  0  0  0  0  0  0  0  0  0  0
   11.3023   -1.6854   21.9686 C   0  0  0  0  0  0  0  0  0  0  0  0
   12.5731   -1.4292   22.4528 C   0  0  0  0  0  0  0  0  0  0  0  0
   12.9356   -0.1461   22.7879 C   0  0  0  0  0  0  0  0  0  0  0  0
   12.0269    0.8824   22.6259 C   0  0  0  0  0  0  0  0  0  0  0  0
   10.7467    0.6574   22.1253 C   0  0  0  0  0  0  0  0  0  0  0  0
    9.8695    1.8797   21.9690 C   0  0  0  0  0  0  0  0  0  0  0  0
    9.4140    2.4605   23.3176 C   0  0  0  0  0  0  0  0  0  0  0  0
    9.0546    1.3656   24.3107 C   0  0  0  0  0  0  0  0  0  0  0  0
    8.2985    3.4396   23.1547 N   0  0  0  0  0  0  0  0  0  0  0  0
    6.9788    2.8596   22.9206 C   0  0  0  0  0  0  0  0  0  0  0  0
    8.5153    4.7761   23.2177 C   0  0  0  0  0  0  0  0  0  0  0  0
    9.6342    5.2186   23.3879 O   0  0  0  0  0  0  0  0  0  0  0  0
    7.3318    5.7217   23.0927 C   0  0  0  0  0  0  0  0  0  0  0  0
    7.5384    6.9679   23.9447 C   0  0  0  0  0  0  0  0  0  0  0  0
    6.3728    7.9219   23.7842 C   0  0  0  0  0  0  0  0  0  0  0  0
    6.2102    8.2783   22.3772 N   0  0  0  0  0  0  0  0  0  0  0  0
    5.9559    7.1197   21.5278 C   0  0  0  0  0  0  0  0  0  0  0  0
    7.1103    6.1291   21.6378 C   0  0  0  0  0  0  0  0  0  0  0  0
    6.0167    9.5293   21.8965 C   0  0  0  0  0  0  0  0  0  0  0  0
    5.9039    9.7416   20.6955 O   0  0  0  0  0  0  0  0  0  0  0  0
    5.9482   10.6817   22.8805 C   0  0  0  0  0  0  0  0  0  0  0  0
    5.5388   12.2098   22.0901 Cl  0  0  0  0  0  0  0  0  0  0  0  0
    8.0898   -1.9119   21.9041 N   0  0  0  0  0  0  0  0  0  0  0  0
    6.9420   -1.9692   21.1240 C   0  0  0  0  0  0  0  0  0  0  0  0
    8.1644   -2.8491   23.3172 S   0  0  0  0  0  0  0  0  0  0  0  0
    9.4789   -3.4121   23.3168 O   0  0  0  0  0  0  0  0  0  0  0  0
    7.7578   -2.0348   24.4196 O   0  0  0  0  0  0  0  0  0  0  0  0
    7.0272   -4.1738   23.0928 C   0  0  0  0  0  0  0  0  0  0  0  0
    7.3856   -5.2861   22.3505 C   0  0  0  0  0  0  0  0  0  0  0  0
    6.4586   -6.3022   22.1953 C   0  0  0  0  0  0  0  0  0  0  0  0
    5.2211   -6.1654   22.7827 C   0  0  0  0  0  0  0  0  0  0  0  0
    4.8618   -5.0990   23.4987 N   0  0  0  0  0  0  0  0  0  0  0  0
    5.7612   -4.1216   23.6445 C   0  0  0  0  0  0  0  0  0  0  0  0
  1  2  1  0
  2  3  1  0
  3  4  1  0
  4  5  1  0
  5  6  2  0
  6  7  1  0
  7  8  2  0
  8  9  1  0
  9 10  2  0
 10 11  1  0
 11 12  2  0
 12 13  1  0
 13 14  1  0
 14 15  1  0
 14 16  1  0
 16 17  1  0
 16 18  1  0
 18 19  2  0
 18 20  1  0
 20 21  1  0
 21 22  1  0
 22 23  1  0
 23 24  1  0
 24 25  1  0
 23 26  1  0
 26 27  2  0
 26 28  1  0
 28 29  1  0
  6 30  1  0
 30 31  1  0
 30 32  1  0
 32 33  2  0
 32 34  2  0
 32 35  1  0
 35 36  2  0
 36 37  1  0
 37 38  2  0
 38 39  1  0
 39 40  2  0
 31  4  2  0
 40 35  1  0
 12  7  1  0
 25 20  1  0
M  END
