CVD-0004039|dock_bobby27042020.57|mol2|39|dock2
     RDKit          3D

 23 26  0  0  0  0  0  0  0  0999 V2000
   12.1040    5.4966   22.1479 C   0  0  0  0  0  0  0  0  0  0  0  0
   12.1159    4.0099   22.3731 C   0  0  0  0  0  0  0  0  0  0  0  0
   13.3367    3.3461   22.6601 C   0  0  0  0  0  0  0  0  0  0  0  0
   13.3814    2.0177   22.8707 C   0  0  0  0  0  0  0  0  0  0  0  0
   12.2172    1.2766   22.8076 N   0  0  0  0  0  0  0  0  0  0  0  0
   11.9726   -0.0892   22.9860 C   0  0  0  0  0  0  0  0  0  0  0  0
   13.0388   -1.0529   23.3005 C   0  0  0  0  0  0  0  0  0  0  0  0
   13.6268   -1.3985   24.5537 C   0  0  0  0  0  0  0  0  0  0  0  0
   14.5741   -2.3657   24.2454 C   0  0  0  0  0  0  0  0  0  0  0  0
   14.6142   -2.6360   22.9470 N   0  0  0  0  0  0  0  0  0  0  0  0
   13.6791   -1.8257   22.3768 N   0  0  0  0  0  0  0  0  0  0  0  0
   13.4653   -1.9468   20.9396 C   0  0  0  0  0  0  0  0  0  0  0  0
   10.6014   -0.2350   22.8150 C   0  0  0  0  0  0  0  0  0  0  0  0
   10.0123    0.9864   22.5462 N   0  0  0  0  0  0  0  0  0  0  0  0
   10.9962    1.8794   22.5423 C   0  0  0  0  0  0  0  0  0  0  0  0
   10.9682    3.2739   22.3218 C   0  0  0  0  0  0  0  0  0  0  0  0
    9.7156   -1.4170   22.8648 C   0  0  0  0  0  0  0  0  0  0  0  0
    8.4998   -1.3909   22.1900 C   0  0  0  0  0  0  0  0  0  0  0  0
    7.6347   -2.4697   22.2323 C   0  0  0  0  0  0  0  0  0  0  0  0
    8.0044   -3.5705   22.9550 C   0  0  0  0  0  0  0  0  0  0  0  0
    7.1530   -4.6301   23.0109 F   0  0  0  0  0  0  0  0  0  0  0  0
    9.1955   -3.6503   23.6226 C   0  0  0  0  0  0  0  0  0  0  0  0
   10.0582   -2.5701   23.5634 C   0  0  0  0  0  0  0  0  0  0  0  0
  1  2  1  0
  2  3  1  0
  3  4  2  0
  4  5  1  0
  5  6  1  0
  6  7  1  0
  7  8  2  0
  8  9  1  0
  9 10  2  0
 10 11  1  0
 11 12  1  0
  6 13  2  0
 13 14  1  0
 14 15  2  0
 15 16  1  0
 13 17  1  0
 17 18  2  0
 18 19  1  0
 19 20  2  0
 20 21  1  0
 20 22  1  0
 22 23  2  0
 16  2  2  0
 23 17  1  0
 15  5  1  0
 11  7  1  0
M  END
