CVD-0001207|dock_bobby27042020.81|mol2|44|dock1
     RDKit          3D

 26 29  0  0  0  0  0  0  0  0999 V2000
    9.7848    6.4935   23.1083 C   0  0  0  0  0  0  0  0  0  0  0  0
   11.1941    5.9907   22.9968 C   0  0  0  0  0  0  0  0  0  0  0  0
   12.0477    6.2597   23.8363 O   0  0  0  0  0  0  0  0  0  0  0  0
   11.4611    5.2203   21.9404 N   0  0  0  0  0  0  0  0  0  0  0  0
   12.7761    4.6426   21.7024 C   0  0  0  0  0  0  0  0  0  0  0  0
   13.1161    3.5723   22.7203 C   0  0  0  0  0  0  0  0  0  0  0  0
   12.1133    2.4564   22.7552 C   0  0  0  0  0  0  0  0  0  0  0  0
   10.7678    2.5578   22.9573 C   0  0  0  0  0  0  0  0  0  0  0  0
   10.1837    1.3207   22.9207 N   0  0  0  0  0  0  0  0  0  0  0  0
   11.1610    0.3843   22.6902 C   0  0  0  0  0  0  0  0  0  0  0  0
   11.0545   -1.0042   22.5711 C   0  0  0  0  0  0  0  0  0  0  0  0
    9.7250   -1.7140   22.6886 C   0  0  0  0  0  0  0  0  0  0  0  0
    8.6850   -1.2151   21.7423 C   0  0  0  0  0  0  0  0  0  0  0  0
    7.4859   -0.7935   22.0986 N   0  0  0  0  0  0  0  0  0  0  0  0
    6.8721   -0.4270   20.9050 C   0  0  0  0  0  0  0  0  0  0  0  0
    5.5997    0.0868   20.6584 C   0  0  0  0  0  0  0  0  0  0  0  0
    5.2377    0.3698   19.3498 C   0  0  0  0  0  0  0  0  0  0  0  0
    6.1126    0.1507   18.3033 C   0  0  0  0  0  0  0  0  0  0  0  0
    7.3808   -0.3595   18.5319 C   0  0  0  0  0  0  0  0  0  0  0  0
    7.7448   -0.6435   19.8426 C   0  0  0  0  0  0  0  0  0  0  0  0
    8.8999   -1.1479   20.4087 N   0  0  0  0  0  0  0  0  0  0  0  0
   12.2197   -1.7245   22.3328 C   0  0  0  0  0  0  0  0  0  0  0  0
   13.4146   -1.0511   22.2274 C   0  0  0  0  0  0  0  0  0  0  0  0
   14.5389   -1.7808   21.9950 F   0  0  0  0  0  0  0  0  0  0  0  0
   13.5443    0.3136   22.3421 C   0  0  0  0  0  0  0  0  0  0  0  0
   12.3903    1.0592   22.5798 C   0  0  0  0  0  0  0  0  0  0  0  0
  1  2  1  0
  2  3  2  0
  2  4  1  0
  4  5  1  0
  5  6  1  0
  6  7  1  0
  7  8  2  0
  8  9  1  0
  9 10  1  0
 10 11  2  0
 11 12  1  0
 12 13  1  0
 13 14  2  0
 14 15  1  0
 15 16  2  0
 16 17  1  0
 17 18  2  0
 18 19  1  0
 19 20  2  0
 20 21  1  0
 11 22  1  0
 22 23  2  0
 23 24  1  0
 23 25  1  0
 25 26  2  0
 26  7  1  0
 26 10  1  0
 21 13  1  0
 20 15  1  0
M  END
