CVD-0001109|dock_bobby27042020.96|mol2|23|dock1
     RDKit          3D

 26 28  0  0  0  0  0  0  0  0999 V2000
    5.3860    1.2794   18.2175 C   0  0  0  0  0  0  0  0  0  0  0  0
    6.6546    0.1365   18.6063 S   0  0  0  0  0  0  0  0  0  0  0  0
    6.3614   -1.0953   17.9413 O   0  0  0  0  0  0  0  0  0  0  0  0
    7.9132    0.7670   18.3526 O   0  0  0  0  0  0  0  0  0  0  0  0
    6.5830   -0.1517   20.1818 N   0  0  0  0  0  0  0  0  0  0  0  0
    7.5998    0.4218   21.0718 C   0  0  0  0  0  0  0  0  0  0  0  0
    8.8883   -0.3700   20.9721 C   0  0  0  0  0  0  0  0  0  0  0  0
    9.0267   -1.3635   22.0470 N   0  0  0  0  0  0  0  0  0  0  0  0
    8.1183   -2.3814   22.0821 C   0  0  0  0  0  0  0  0  0  0  0  0
    7.2283   -2.4298   21.2422 O   0  0  0  0  0  0  0  0  0  0  0  0
    8.2021   -3.4659   23.1415 C   0  0  0  0  0  0  0  0  0  0  0  0
    7.1524   -4.5378   22.9535 C   0  0  0  0  0  0  0  0  0  0  0  0
    7.4894   -5.8105   22.5240 C   0  0  0  0  0  0  0  0  0  0  0  0
    6.5017   -6.7658   22.3595 C   0  0  0  0  0  0  0  0  0  0  0  0
    5.1991   -6.4142   22.6312 C   0  0  0  0  0  0  0  0  0  0  0  0
    4.8432   -5.1971   23.0449 N   0  0  0  0  0  0  0  0  0  0  0  0
    5.8141   -4.2913   23.1963 C   0  0  0  0  0  0  0  0  0  0  0  0
   10.1174   -1.1880   22.9743 C   0  0  0  0  0  0  0  0  0  0  0  0
    9.8227   -0.8827   24.3027 C   0  0  0  0  0  0  0  0  0  0  0  0
   10.8495   -0.6702   25.2096 C   0  0  0  0  0  0  0  0  0  0  0  0
   12.1742   -0.7646   24.8206 C   0  0  0  0  0  0  0  0  0  0  0  0
   12.5092   -1.0998   23.5006 C   0  0  0  0  0  0  0  0  0  0  0  0
   13.7297   -1.2937   22.7810 C   0  0  0  0  0  0  0  0  0  0  0  0
   13.3940   -1.6390   21.5145 C   0  0  0  0  0  0  0  0  0  0  0  0
   12.0273   -1.6695   21.3783 N   0  0  0  0  0  0  0  0  0  0  0  0
   11.4595   -1.3238   22.5814 C   0  0  0  0  0  0  0  0  0  0  0  0
  1  2  1  0
  2  3  2  0
  2  4  2  0
  2  5  1  0
  5  6  1  0
  6  7  1  0
  7  8  1  0
  8  9  1  0
  9 10  2  0
  9 11  1  0
 11 12  1  0
 12 13  2  0
 13 14  1  0
 14 15  2  0
 15 16  1  0
 16 17  2  0
  8 18  1  0
 18 19  2  0
 19 20  1  0
 20 21  2  0
 21 22  1  0
 22 23  1  0
 23 24  2  0
 24 25  1  0
 25 26  1  0
 17 12  1  0
 26 18  1  0
 26 22  2  0
M  END
