CVD-0002636|dock_bobby27042020.33|mol2|30|dock1
     RDKit          3D

 30 32  0  0  0  0  0  0  0  0999 V2000
    8.9563    1.9477   22.7124 C   0  0  0  0  0  0  0  0  0  0  0  0
    7.8954    1.8068   21.6606 C   0  0  0  0  0  0  0  0  0  0  0  0
    6.9748    2.6129   21.5760 O   0  0  0  0  0  0  0  0  0  0  0  0
    8.0545    0.7255   20.8551 N   0  0  0  0  0  0  0  0  0  0  0  0
    7.2629    0.2612   19.7737 C   0  0  0  0  0  0  0  0  0  0  0  0
    6.2943    1.0199   19.1222 C   0  0  0  0  0  0  0  0  0  0  0  0
    5.5026    0.5361   18.1601 N   0  0  0  0  0  0  0  0  0  0  0  0
    5.6282   -0.7498   17.8364 C   0  0  0  0  0  0  0  0  0  0  0  0
    6.5788   -1.5878   18.3797 C   0  0  0  0  0  0  0  0  0  0  0  0
    7.4464   -1.0609   19.3268 C   0  0  0  0  0  0  0  0  0  0  0  0
    8.4873   -1.8517   19.8229 O   0  0  0  0  0  0  0  0  0  0  0  0
    8.3731   -2.6347   20.9759 C   0  0  0  0  0  0  0  0  0  0  0  0
    7.1996   -3.3440   21.1981 C   0  0  0  0  0  0  0  0  0  0  0  0
    7.0335   -4.0519   22.3746 C   0  0  0  0  0  0  0  0  0  0  0  0
    8.0281   -4.0543   23.3269 C   0  0  0  0  0  0  0  0  0  0  0  0
    9.2228   -3.3892   23.1052 C   0  0  0  0  0  0  0  0  0  0  0  0
    9.4289   -2.7099   21.9044 C   0  0  0  0  0  0  0  0  0  0  0  0
   10.6463   -2.1337   21.6264 N   0  0  0  0  0  0  0  0  0  0  0  0
   11.6930   -1.9145   22.6115 C   0  0  0  0  0  0  0  0  0  0  0  0
   12.8629   -1.1667   22.0091 C   0  0  0  0  0  0  0  0  0  0  0  0
   12.5443    0.2369   21.7896 N   0  0  0  0  0  0  0  0  0  0  0  0
   13.1070    1.2157   22.5255 C   0  0  0  0  0  0  0  0  0  0  0  0
   13.9166    0.9799   23.4186 O   0  0  0  0  0  0  0  0  0  0  0  0
   12.7219    2.4731   22.2158 N   0  0  0  0  0  0  0  0  0  0  0  0
   13.1667    3.6466   22.9677 C   0  0  0  0  0  0  0  0  0  0  0  0
   12.2026    3.9623   24.1296 C   0  0  0  0  0  0  0  0  0  0  0  0
   12.6004    5.2259   24.8902 C   0  0  0  0  0  0  0  0  0  0  0  0
   12.7451    6.4162   23.9508 C   0  0  0  0  0  0  0  0  0  0  0  0
   13.7215    6.1111   22.8239 C   0  0  0  0  0  0  0  0  0  0  0  0
   13.2953    4.8708   22.0452 C   0  0  0  0  0  0  0  0  0  0  0  0
  1  2  1  0
  2  3  2  0
  2  4  1  0
  4  5  1  0
  5  6  2  0
  6  7  1  0
  7  8  2  0
  8  9  1  0
  9 10  2  0
 10 11  1  0
 11 12  1  0
 12 13  2  0
 13 14  1  0
 14 15  2  0
 15 16  1  0
 16 17  2  0
 17 18  1  0
 18 19  1  0
 19 20  1  0
 20 21  1  0
 21 22  1  0
 22 23  2  0
 22 24  1  0
 24 25  1  0
 25 26  1  0
 26 27  1  0
 27 28  1  0
 28 29  1  0
 29 30  1  0
 10  5  1  0
 17 12  1  0
 30 25  1  0
M  END
