CVD-0000130|dock_bobby27042020.85|mol2|25|dock2
     RDKit          3D

 16 17  0  0  0  0  0  0  0  0999 V2000
    5.9532    1.2562   21.0873 C   0  0  0  0  0  0  0  0  0  0  0  0
    7.2385    0.5663   20.9920 N   0  0  0  0  0  0  0  0  0  0  0  0
    7.0574   -0.8579   21.3108 C   0  0  0  0  0  0  0  0  0  0  0  0
    8.3733   -1.6012   21.2321 C   0  0  0  0  0  0  0  0  0  0  0  0
    9.3218   -1.0374   22.1823 N   0  0  0  0  0  0  0  0  0  0  0  0
    9.5263    0.3733   21.8559 C   0  0  0  0  0  0  0  0  0  0  0  0
    8.2210    1.1337   21.9230 C   0  0  0  0  0  0  0  0  0  0  0  0
   10.5764   -1.7770   22.3448 C   0  0  0  0  0  0  0  0  0  0  0  0
   11.4983   -1.4458   21.3354 O   0  0  0  0  0  0  0  0  0  0  0  0
   11.2371   -1.4886   23.6785 C   0  0  0  0  0  0  0  0  0  0  0  0
   12.6599   -0.9526   23.5373 C   0  0  0  0  0  0  0  0  0  0  0  0
   13.6307   -2.0873   23.1800 C   0  0  0  0  0  0  0  0  0  0  0  0
   13.8747   -3.0307   24.2725 N   0  0  0  0  0  0  0  0  0  0  0  0
   14.2713   -2.3742   25.5111 C   0  0  0  0  0  0  0  0  0  0  0  0
   13.3361   -1.2929   25.9197 N   0  0  0  0  0  0  0  0  0  0  0  0
   13.1750   -0.3145   24.8281 C   0  0  0  0  0  0  0  0  0  0  0  0
  1  2  1  0
  2  3  1  0
  3  4  1  0
  4  5  1  0
  5  6  1  0
  6  7  1  0
  5  8  1  0
  8  9  1  0
  8 10  1  0
 10 11  1  0
 11 12  1  0
 12 13  1  0
 13 14  1  0
 14 15  1  0
 15 16  1  0
  7  2  1  0
 16 11  1  0
M  END
