CVD-0002911|dock_bobby27042020.75|mol2|30|dock3
     RDKit          3D

 29 32  0  0  0  0  0  0  0  0999 V2000
   13.9684   -1.3665   22.7716 C   0  0  0  0  0  0  0  0  0  0  0  0
   12.5634   -1.0106   22.5813 N   0  0  0  0  0  0  0  0  0  0  0  0
   11.7070   -2.1912   22.7285 C   0  0  0  0  0  0  0  0  0  0  0  0
   10.2549   -1.8194   22.4920 C   0  0  0  0  0  0  0  0  0  0  0  0
    9.8366   -0.7713   23.4256 N   0  0  0  0  0  0  0  0  0  0  0  0
   10.7117    0.4023   23.3451 C   0  0  0  0  0  0  0  0  0  0  0  0
   10.5652    1.0833   21.9974 C   0  0  0  0  0  0  0  0  0  0  0  0
   11.2529    2.3573   22.0252 O   0  0  0  0  0  0  0  0  0  0  0  0
   10.7138    3.3588   22.7250 C   0  0  0  0  0  0  0  0  0  0  0  0
    9.5855    3.3555   23.1880 O   0  0  0  0  0  0  0  0  0  0  0  0
   11.6505    4.5119   22.8990 C   0  0  0  0  0  0  0  0  0  0  0  0
   11.4421    5.4663   23.8900 C   0  0  0  0  0  0  0  0  0  0  0  0
   12.3196    6.5277   24.0369 C   0  0  0  0  0  0  0  0  0  0  0  0
   13.4096    6.6495   23.2019 C   0  0  0  0  0  0  0  0  0  0  0  0
   13.6267    5.7105   22.2166 C   0  0  0  0  0  0  0  0  0  0  0  0
   12.7537    4.6464   22.0635 C   0  0  0  0  0  0  0  0  0  0  0  0
   12.1587   -0.0034   23.5587 C   0  0  0  0  0  0  0  0  0  0  0  0
    8.7638   -0.8275   24.2532 C   0  0  0  0  0  0  0  0  0  0  0  0
    8.4637    0.1065   24.9866 O   0  0  0  0  0  0  0  0  0  0  0  0
    7.8985   -2.0757   24.2671 C   0  0  0  0  0  0  0  0  0  0  0  0
    7.2117   -2.3450   22.9618 C   0  0  0  0  0  0  0  0  0  0  0  0
    6.7158   -1.4246   22.0856 C   0  0  0  0  0  0  0  0  0  0  0  0
    6.1573   -2.0454   21.0000 N   0  0  0  0  0  0  0  0  0  0  0  0
    6.2842   -3.3943   21.1578 C   0  0  0  0  0  0  0  0  0  0  0  0
    5.8671   -4.3561   20.3174 N   0  0  0  0  0  0  0  0  0  0  0  0
    6.1086   -5.6190   20.6951 C   0  0  0  0  0  0  0  0  0  0  0  0
    6.7448   -5.9614   21.8691 C   0  0  0  0  0  0  0  0  0  0  0  0
    7.1686   -4.9566   22.7247 C   0  0  0  0  0  0  0  0  0  0  0  0
    6.9415   -3.6264   22.3778 C   0  0  0  0  0  0  0  0  0  0  0  0
  1  2  1  0
  2  3  1  0
  3  4  1  0
  4  5  1  0
  5  6  1  0
  6  7  1  0
  7  8  1  0
  8  9  1  0
  9 10  2  0
  9 11  1  0
 11 12  2  0
 12 13  1  0
 13 14  2  0
 14 15  1  0
 15 16  2  0
  6 17  1  0
  5 18  1  0
 18 19  2  0
 18 20  1  0
 20 21  1  0
 21 22  2  0
 22 23  1  0
 23 24  1  0
 24 25  2  0
 25 26  1  0
 26 27  2  0
 27 28  1  0
 28 29  2  0
 17  2  1  0
 29 21  1  0
 16 11  1  0
 29 24  1  0
M  END
