CVD-0003112|dock_bobby27042020.32|mol2|6|dock2
     RDKit          3D

 17 19  0  0  0  0  0  0  0  0999 V2000
    7.2637    0.9173   21.7169 C   0  0  0  0  0  0  0  0  0  0  0  0
    6.1536    0.1497   21.0065 C   0  0  0  0  0  0  0  0  0  0  0  0
    6.7173   -0.5522   19.8502 N   0  0  0  0  0  0  0  0  0  0  0  0
    6.8672    0.3401   18.6869 C   0  0  0  0  0  0  0  0  0  0  0  0
    5.5306    0.8774   18.2165 C   0  0  0  0  0  0  0  0  0  0  0  0
    4.7278    1.4581   19.3565 C   0  0  0  0  0  0  0  0  0  0  0  0
    3.6932    2.3576   19.1126 C   0  0  0  0  0  0  0  0  0  0  0  0
    2.9454    2.8896   20.1488 C   0  0  0  0  0  0  0  0  0  0  0  0
    3.2236    2.5275   21.4485 C   0  0  0  0  0  0  0  0  0  0  0  0
    4.2491    1.6342   21.7074 C   0  0  0  0  0  0  0  0  0  0  0  0
    5.0097    1.0910   20.6732 C   0  0  0  0  0  0  0  0  0  0  0  0
    6.2223   -1.7886   19.5570 C   0  0  0  0  0  0  0  0  0  0  0  0
    5.6701   -2.0664   18.3974 N   0  0  0  0  0  0  0  0  0  0  0  0
    5.3045   -3.3705   18.4640 N   0  0  0  0  0  0  0  0  0  0  0  0
    5.6252   -3.8867   19.6099 N   0  0  0  0  0  0  0  0  0  0  0  0
    6.1987   -2.8947   20.3290 N   0  0  0  0  0  0  0  0  0  0  0  0
    6.6953   -3.1745   21.6709 C   0  0  0  0  0  0  0  0  0  0  0  0
  2  1  1  0
  2  3  1  0
  3  4  1  0
  4  5  1  0
  5  6  1  0
  6  7  2  0
  7  8  1  0
  8  9  2  0
  9 10  1  0
 10 11  2  0
  3 12  1  0
 12 13  2  0
 13 14  1  0
 14 15  2  0
 15 16  1  0
 16 17  1  0
 11  2  1  0
 16 12  1  0
 11  6  1  0
M  END
