CVD-0000265|dock_bobby27042020.28|mol2|1|dock2
     RDKit          3D

 26 28  0  0  0  0  0  0  0  0999 V2000
   14.4609   -2.5371   24.5722 C   0  0  0  0  0  0  0  0  0  0  0  0
   13.2655   -1.6898   24.1481 C   0  0  0  0  0  0  0  0  0  0  0  0
   12.6132   -0.9994   25.3478 C   0  0  0  0  0  0  0  0  0  0  0  0
   11.3918   -0.1747   24.9078 C   0  0  0  0  0  0  0  0  0  0  0  0
   11.7675    1.0712   24.1126 C   0  0  0  0  0  0  0  0  0  0  0  0
   10.4156   -1.0475   24.1299 C   0  0  0  0  0  0  0  0  0  0  0  0
   11.0966   -1.6897   22.9984 N   0  0  0  0  0  0  0  0  0  0  0  0
   12.2372   -2.5159   23.3536 C   0  0  0  0  0  0  0  0  0  0  0  0
   10.5424   -1.6349   21.7622 C   0  0  0  0  0  0  0  0  0  0  0  0
   11.1037   -2.1571   20.8139 O   0  0  0  0  0  0  0  0  0  0  0  0
    9.2310   -0.9413   21.4693 C   0  0  0  0  0  0  0  0  0  0  0  0
    9.2118    0.4532   21.3864 C   0  0  0  0  0  0  0  0  0  0  0  0
    8.0466    1.1334   21.0908 C   0  0  0  0  0  0  0  0  0  0  0  0
    6.8838    0.4353   20.8697 C   0  0  0  0  0  0  0  0  0  0  0  0
    6.8637   -0.9465   20.9463 C   0  0  0  0  0  0  0  0  0  0  0  0
    8.0271   -1.6601   21.2517 C   0  0  0  0  0  0  0  0  0  0  0  0
    8.0452   -3.0810   21.3559 N   0  0  0  0  0  0  0  0  0  0  0  0
    7.0054   -3.9795   21.4029 C   0  0  0  0  0  0  0  0  0  0  0  0
    5.8065   -3.7199   21.3625 O   0  0  0  0  0  0  0  0  0  0  0  0
    7.4372   -5.2523   21.5032 N   0  0  0  0  0  0  0  0  0  0  0  0
    6.4956   -6.3492   21.5660 C   0  0  0  0  0  0  0  0  0  0  0  0
    5.5013   -6.1668   22.6824 C   0  0  0  0  0  0  0  0  0  0  0  0
    5.7557   -5.5591   23.9351 C   0  0  0  0  0  0  0  0  0  0  0  0
    4.6144   -5.5911   24.6269 C   0  0  0  0  0  0  0  0  0  0  0  0
    3.6309   -6.1845   23.8932 O   0  0  0  0  0  0  0  0  0  0  0  0
    4.2075   -6.5238   22.7041 C   0  0  0  0  0  0  0  0  0  0  0  0
  1  2  1  0
  2  3  1  0
  3  4  1  0
  4  5  1  0
  4  6  1  0
  6  7  1  0
  7  8  1  0
  7  9  1  0
  9 10  2  0
  9 11  1  0
 11 12  2  0
 12 13  1  0
 13 14  2  0
 14 15  1  0
 15 16  2  0
 16 17  1  0
 17 18  1  0
 18 19  2  0
 18 20  1  0
 20 21  1  0
 21 22  1  0
 22 23  1  0
 23 24  2  0
 24 25  1  0
 25 26  1  0
  8  2  1  0
 16 11  1  0
 26 22  2  0
M  END
