CVD-0001113|dock_bobby27042020.39|mol2|18|dock2
     RDKit          3D

 26 28  0  0  0  0  0  0  0  0999 V2000
    2.1979    3.2931   19.0268 C   0  0  0  0  0  0  0  0  0  0  0  0
    3.5119    2.6613   19.3811 C   0  0  0  0  0  0  0  0  0  0  0  0
    3.9992    2.7616   20.5028 O   0  0  0  0  0  0  0  0  0  0  0  0
    4.1281    1.9979   18.4008 N   0  0  0  0  0  0  0  0  0  0  0  0
    5.4169    1.3459   18.5834 C   0  0  0  0  0  0  0  0  0  0  0  0
    5.2780    0.0006   19.2678 C   0  0  0  0  0  0  0  0  0  0  0  0
    6.5806   -0.5272   19.7936 C   0  0  0  0  0  0  0  0  0  0  0  0
    7.7555   -0.6603   19.1131 C   0  0  0  0  0  0  0  0  0  0  0  0
    8.7244   -1.1789   19.9285 N   0  0  0  0  0  0  0  0  0  0  0  0
    8.1802   -1.3930   21.1709 C   0  0  0  0  0  0  0  0  0  0  0  0
    8.7768   -1.9069   22.3258 C   0  0  0  0  0  0  0  0  0  0  0  0
   10.2274   -2.3266   22.3584 C   0  0  0  0  0  0  0  0  0  0  0  0
   11.0886   -1.3532   23.0464 N   0  0  0  0  0  0  0  0  0  0  0  0
   10.6482    0.0148   22.7582 C   0  0  0  0  0  0  0  0  0  0  0  0
   11.5144    1.0135   23.5030 C   0  0  0  0  0  0  0  0  0  0  0  0
   12.9215    0.8463   23.1331 N   0  0  0  0  0  0  0  0  0  0  0  0
   13.3768   -0.5298   23.3538 C   0  0  0  0  0  0  0  0  0  0  0  0
   12.4769   -1.5071   22.6194 C   0  0  0  0  0  0  0  0  0  0  0  0
   13.6863    1.8656   22.6747 C   0  0  0  0  0  0  0  0  0  0  0  0
   14.8597    1.6960   22.3674 O   0  0  0  0  0  0  0  0  0  0  0  0
   13.0573    3.2391   22.5376 C   0  0  0  0  0  0  0  0  0  0  0  0
   14.2416    4.4288   21.9814 Cl  0  0  0  0  0  0  0  0  0  0  0  0
    7.9776   -2.0139   23.4607 C   0  0  0  0  0  0  0  0  0  0  0  0
    6.6453   -1.6281   23.4415 C   0  0  0  0  0  0  0  0  0  0  0  0
    6.0682   -1.1211   22.2868 C   0  0  0  0  0  0  0  0  0  0  0  0
    6.8316   -0.9948   21.1272 C   0  0  0  0  0  0  0  0  0  0  0  0
  1  2  1  0
  2  3  2  0
  2  4  1  0
  4  5  1  0
  5  6  1  0
  6  7  1  0
  7  8  2  0
  8  9  1  0
  9 10  1  0
 10 11  2  0
 11 12  1  0
 12 13  1  0
 13 14  1  0
 14 15  1  0
 15 16  1  0
 16 17  1  0
 17 18  1  0
 16 19  1  0
 19 20  2  0
 19 21  1  0
 21 22  1  0
 11 23  1  0
 23 24  2  0
 24 25  1  0
 25 26  2  0
 26  7  1  0
 26 10  1  0
 18 13  1  0
M  END
