CVD-0002097|dock_bobby27042020.93|mol2|4|dock3
     RDKit          3D

 21 23  0  0  0  0  0  0  0  0999 V2000
   11.6790   -1.9236   21.4386 N   0  0  0  0  0  0  0  0  0  0  0  0
   10.8683   -0.8976   22.1322 C   0  0  0  0  0  0  0  0  0  0  0  0
    9.4917   -1.3510   22.6096 C   0  0  0  0  0  0  0  0  0  0  0  0
    8.6162   -1.3258   21.4788 O   0  0  0  0  0  0  0  0  0  0  0  0
    7.2944   -1.7561   21.8366 C   0  0  0  0  0  0  0  0  0  0  0  0
    7.3011   -3.2205   22.1822 C   0  0  0  0  0  0  0  0  0  0  0  0
    8.4957   -3.6339   23.0006 C   0  0  0  0  0  0  0  0  0  0  0  0
    8.5803   -4.9232   23.5505 C   0  0  0  0  0  0  0  0  0  0  0  0
    7.6182   -5.8725   23.3351 O   0  0  0  0  0  0  0  0  0  0  0  0
    9.6654   -5.2807   24.3483 C   0  0  0  0  0  0  0  0  0  0  0  0
    9.7309   -6.5390   24.8553 O   0  0  0  0  0  0  0  0  0  0  0  0
   10.6724   -4.3633   24.6060 C   0  0  0  0  0  0  0  0  0  0  0  0
   10.5864   -3.0947   24.0632 C   0  0  0  0  0  0  0  0  0  0  0  0
    9.5061   -2.7177   23.2607 C   0  0  0  0  0  0  0  0  0  0  0  0
    6.3868   -1.4290   20.6626 C   0  0  0  0  0  0  0  0  0  0  0  0
    6.9853   -1.8109   19.3010 C   0  0  0  0  0  0  0  0  0  0  0  0
    6.0471   -1.4588   18.1422 C   0  0  0  0  0  0  0  0  0  0  0  0
    5.6427    0.0100   18.1786 C   0  0  0  0  0  0  0  0  0  0  0  0
    5.0073    0.3573   19.5159 C   0  0  0  0  0  0  0  0  0  0  0  0
    5.9505    0.0418   20.6817 C   0  0  0  0  0  0  0  0  0  0  0  0
    7.0910    0.9044   20.6493 O   0  0  0  0  0  0  0  0  0  0  0  0
  1  2  1  0
  2  3  1  0
  3  4  1  0
  4  5  1  0
  5  6  1  0
  6  7  1  0
  7  8  2  0
  8  9  1  0
  8 10  1  0
 10 11  1  0
 10 12  2  0
 12 13  1  0
 13 14  2  0
  5 15  1  0
 15 16  1  0
 16 17  1  0
 17 18  1  0
 18 19  1  0
 19 20  1  0
 20 21  1  0
 14  3  1  0
 20 15  1  0
 14  7  1  0
M  END
