CVD-0001774|dock_bobby27042020.51|mol2|24|dock2
     RDKit          3D

 30 32  0  0  0  0  0  0  0  0999 V2000
    5.2603   -2.8597   18.2397 O   0  0  0  0  0  0  0  0  0  0  0  0
    6.1700   -2.0681   18.8650 C   0  0  0  0  0  0  0  0  0  0  0  0
    6.3368   -0.7433   18.4899 C   0  0  0  0  0  0  0  0  0  0  0  0
    7.2699    0.0387   19.1430 C   0  0  0  0  0  0  0  0  0  0  0  0
    8.0463   -0.4822   20.1731 C   0  0  0  0  0  0  0  0  0  0  0  0
    7.8739   -1.8155   20.5473 C   0  0  0  0  0  0  0  0  0  0  0  0
    6.9361   -2.6186   19.8972 C   0  0  0  0  0  0  0  0  0  0  0  0
    6.6639   -3.9823   20.1781 N   0  0  0  0  0  0  0  0  0  0  0  0
    6.5805   -4.6386   21.3662 C   0  0  0  0  0  0  0  0  0  0  0  0
    6.7466   -4.0803   22.4590 O   0  0  0  0  0  0  0  0  0  0  0  0
    6.2752   -6.0947   21.3398 C   0  0  0  0  0  0  0  0  0  0  0  0
    6.4646   -6.9557   22.3089 C   0  0  0  0  0  0  0  0  0  0  0  0
    9.0406    0.4285   20.8358 C   0  0  0  0  0  0  0  0  0  0  0  0
    8.7176    1.5871   21.0799 O   0  0  0  0  0  0  0  0  0  0  0  0
   10.2576   -0.0242   21.1515 N   0  0  0  0  0  0  0  0  0  0  0  0
   11.2454    0.8317   21.7960 C   0  0  0  0  0  0  0  0  0  0  0  0
   11.1653    0.7632   23.3261 C   0  0  0  0  0  0  0  0  0  0  0  0
   12.5294    1.2269   23.8764 C   0  0  0  0  0  0  0  0  0  0  0  0
   12.8406    2.6743   23.5822 C   0  0  0  0  0  0  0  0  0  0  0  0
   13.8591    3.0162   22.7060 C   0  0  0  0  0  0  0  0  0  0  0  0
   14.1469    4.3441   22.4383 C   0  0  0  0  0  0  0  0  0  0  0  0
   13.4199    5.3459   23.0446 C   0  0  0  0  0  0  0  0  0  0  0  0
   12.4055    5.0196   23.9188 C   0  0  0  0  0  0  0  0  0  0  0  0
   12.1180    3.6916   24.1862 C   0  0  0  0  0  0  0  0  0  0  0  0
   10.8440   -0.6322   23.7968 C   0  0  0  0  0  0  0  0  0  0  0  0
    9.7624   -0.8777   24.6256 C   0  0  0  0  0  0  0  0  0  0  0  0
    9.5154   -2.1805   25.0221 C   0  0  0  0  0  0  0  0  0  0  0  0
   10.3433   -3.1918   24.5860 C   0  0  0  0  0  0  0  0  0  0  0  0
   11.3946   -2.8573   23.7630 C   0  0  0  0  0  0  0  0  0  0  0  0
   11.6560   -1.6053   23.3643 N   0  0  0  0  0  0  0  0  0  0  0  0
  1  2  1  0
  2  3  2  0
  3  4  1  0
  4  5  2  0
  5  6  1  0
  6  7  2  0
  7  8  1  0
  8  9  1  0
  9 10  2  0
  9 11  1  0
 11 12  2  0
  5 13  1  0
 13 14  2  0
 13 15  1  0
 15 16  1  0
 17 16  1  0
 17 18  1  0
 18 19  1  0
 19 20  2  0
 20 21  1  0
 21 22  2  0
 22 23  1  0
 23 24  2  0
 17 25  1  0
 25 26  2  0
 26 27  1  0
 27 28  2  0
 28 29  1  0
 29 30  2  0
  7  2  1  0
 24 19  1  0
 30 25  1  0
M  END
