CVD-0001519|dock_bobby27042020.37|mol2|50|dock2
     RDKit          3D

 33 37  0  0  0  0  0  0  0  0999 V2000
   11.0850    1.8781   23.2009 Cl  0  0  0  0  0  0  0  0  0  0  0  0
   10.3095    0.3771   22.6796 C   0  0  0  0  0  0  0  0  0  0  0  0
    9.6243    0.5188   21.3320 C   0  0  0  0  0  0  0  0  0  0  0  0
    9.6648    1.5979   20.7543 O   0  0  0  0  0  0  0  0  0  0  0  0
    8.9779   -0.5470   20.7948 N   0  0  0  0  0  0  0  0  0  0  0  0
    8.9158   -1.8504   21.4706 C   0  0  0  0  0  0  0  0  0  0  0  0
    7.4410   -2.2339   21.7015 C   0  0  0  0  0  0  0  0  0  0  0  0
    6.7091   -2.0729   20.3986 C   0  0  0  0  0  0  0  0  0  0  0  0
    6.0345   -3.2131   20.1006 C   0  0  0  0  0  0  0  0  0  0  0  0
    6.4609   -4.2660   21.0416 C   0  0  0  0  0  0  0  0  0  0  0  0
    7.2022   -3.6990   21.9915 C   0  0  0  0  0  0  0  0  0  0  0  0
    7.8038   -4.3424   23.2323 C   0  0  0  0  0  0  0  0  0  0  0  0
    7.3777   -5.7642   23.3734 C   0  0  0  0  0  0  0  0  0  0  0  0
    5.9278   -5.8509   23.6764 N   0  0  0  0  0  0  0  0  0  0  0  0
    5.3927   -4.9523   24.7166 C   0  0  0  0  0  0  0  0  0  0  0  0
    6.3641   -3.8869   25.2312 C   0  0  0  0  0  0  0  0  0  0  0  0
    6.0726   -3.1863   26.3969 C   0  0  0  0  0  0  0  0  0  0  0  0
    6.9021   -2.1739   26.8439 C   0  0  0  0  0  0  0  0  0  0  0  0
    8.0338   -1.8541   26.1250 C   0  0  0  0  0  0  0  0  0  0  0  0
    8.3251   -2.5498   24.9658 C   0  0  0  0  0  0  0  0  0  0  0  0
    7.5026   -3.5750   24.4958 C   0  0  0  0  0  0  0  0  0  0  0  0
    5.0604   -6.6634   23.0316 C   0  0  0  0  0  0  0  0  0  0  0  0
    5.4403   -7.4832   22.2048 O   0  0  0  0  0  0  0  0  0  0  0  0
    3.5850   -6.5259   23.3577 C   0  0  0  0  0  0  0  0  0  0  0  0
    2.6308   -7.8226   22.6258 Cl  0  0  0  0  0  0  0  0  0  0  0  0
    6.8553   -0.8103   19.6257 C   0  0  0  0  0  0  0  0  0  0  0  0
    8.3468   -0.5502   19.4831 C   0  0  0  0  0  0  0  0  0  0  0  0
    6.1293    0.3798   20.2264 C   0  0  0  0  0  0  0  0  0  0  0  0
    6.5002    0.9248   21.4486 C   0  0  0  0  0  0  0  0  0  0  0  0
    5.8181    2.0069   21.9796 C   0  0  0  0  0  0  0  0  0  0  0  0
    4.7587    2.5627   21.2956 C   0  0  0  0  0  0  0  0  0  0  0  0
    4.3811    2.0362   20.0794 C   0  0  0  0  0  0  0  0  0  0  0  0
    5.0617    0.9530   19.5492 C   0  0  0  0  0  0  0  0  0  0  0  0
  1  2  1  0
  2  3  1  0
  3  4  2  0
  3  5  1  0
  5  6  1  0
  6  7  1  0
  7  8  1  0
  8  9  2  0
  9 10  1  0
 10 11  2  0
 11 12  1  0
 12 13  1  0
 13 14  1  0
 14 15  1  0
 15 16  1  0
 16 17  2  0
 17 18  1  0
 18 19  2  0
 19 20  1  0
 20 21  2  0
 14 22  1  0
 22 23  2  0
 22 24  1  0
 24 25  1  0
  8 26  1  0
 26 27  1  0
 26 28  1  0
 28 29  2  0
 29 30  1  0
 30 31  2  0
 31 32  1  0
 32 33  2  0
 27  5  1  0
 33 28  1  0
 11  7  1  0
 21 12  1  0
 21 16  1  0
M  END
