CVD-0003769|dock_bobby27042020.72|mol2|42|dock1
     RDKit          3D

 27 30  0  0  0  0  0  0  0  0999 V2000
    4.9922   -6.3847   21.7898 N   0  0  0  0  0  0  0  0  0  0  0  0
    6.1587   -5.5843   21.0404 S   0  0  0  0  0  0  0  0  0  0  0  0
    7.3548   -6.3617   21.1674 O   0  0  0  0  0  0  0  0  0  0  0  0
    5.6779   -5.2639   19.7299 O   0  0  0  0  0  0  0  0  0  0  0  0
    6.4275   -4.0591   21.8915 C   0  0  0  0  0  0  0  0  0  0  0  0
    6.6356   -4.0686   23.2596 C   0  0  0  0  0  0  0  0  0  0  0  0
    6.8424   -2.8652   23.9086 C   0  0  0  0  0  0  0  0  0  0  0  0
    6.8355   -1.6787   23.1958 C   0  0  0  0  0  0  0  0  0  0  0  0
    6.6173   -1.6585   21.8211 C   0  0  0  0  0  0  0  0  0  0  0  0
    6.4172   -2.8740   21.1707 C   0  0  0  0  0  0  0  0  0  0  0  0
    6.5934   -0.3399   21.0388 C   0  0  0  0  0  0  0  0  0  0  0  0
    7.9317   -0.4579   20.2580 C   0  0  0  0  0  0  0  0  0  0  0  0
    9.1848   -0.6562   21.0763 C   0  0  0  0  0  0  0  0  0  0  0  0
    9.5802   -1.9297   21.4583 C   0  0  0  0  0  0  0  0  0  0  0  0
   10.7051   -2.1324   22.1991 C   0  0  0  0  0  0  0  0  0  0  0  0
   11.5120   -1.0440   22.6069 C   0  0  0  0  0  0  0  0  0  0  0  0
   12.6900   -1.1975   23.3764 C   0  0  0  0  0  0  0  0  0  0  0  0
   13.4278   -0.1101   23.7402 C   0  0  0  0  0  0  0  0  0  0  0  0
   13.0435    1.1611   23.3673 C   0  0  0  0  0  0  0  0  0  0  0  0
   11.9168    1.3598   22.6259 C   0  0  0  0  0  0  0  0  0  0  0  0
   11.1181    0.2629   22.2239 C   0  0  0  0  0  0  0  0  0  0  0  0
    9.9422    0.4208   21.4549 C   0  0  0  0  0  0  0  0  0  0  0  0
    6.6380    0.9176   21.9061 C   0  0  0  0  0  0  0  0  0  0  0  0
    6.6578    2.1742   21.0538 C   0  0  0  0  0  0  0  0  0  0  0  0
    5.4857    2.2165   20.0950 C   0  0  0  0  0  0  0  0  0  0  0  0
    5.4455    0.9720   19.2238 C   0  0  0  0  0  0  0  0  0  0  0  0
    5.4183   -0.2931   20.0676 C   0  0  0  0  0  0  0  0  0  0  0  0
  1  2  1  0
  2  3  2  0
  2  4  2  0
  2  5  1  0
  5  6  2  0
  6  7  1  0
  7  8  2  0
  8  9  1  0
  9 10  2  0
  9 11  1  0
 11 12  1  0
 12 13  1  0
 13 14  2  0
 14 15  1  0
 15 16  2  0
 16 17  1  0
 17 18  2  0
 18 19  1  0
 19 20  2  0
 20 21  1  0
 21 22  2  0
 11 23  1  0
 23 24  1  0
 24 25  1  0
 25 26  1  0
 26 27  1  0
 10  5  1  0
 27 11  1  0
 22 13  1  0
 21 16  1  0
M  END
