CVD-0001507|dock_bobby27042020.23|mol2|37|dock1
     RDKit          3D

 19 20  0  0  0  0  0  0  0  0999 V2000
   13.7966   -2.2281   22.3460 C   0  0  0  0  0  0  0  0  0  0  0  0
   12.3762   -2.0366   22.7771 C   0  0  0  0  0  0  0  0  0  0  0  0
   11.6414   -1.2091   21.8349 N   0  0  0  0  0  0  0  0  0  0  0  0
   11.2955    0.0622   22.0962 C   0  0  0  0  0  0  0  0  0  0  0  0
   12.2947    0.9037   22.4288 N   0  0  0  0  0  0  0  0  0  0  0  0
   11.9795    2.1757   22.6946 C   0  0  0  0  0  0  0  0  0  0  0  0
   10.6818    2.6694   22.6461 C   0  0  0  0  0  0  0  0  0  0  0  0
    9.6622    1.7892   22.3021 C   0  0  0  0  0  0  0  0  0  0  0  0
    9.9443    0.4581   22.0165 C   0  0  0  0  0  0  0  0  0  0  0  0
    8.8027   -0.4597   21.6523 C   0  0  0  0  0  0  0  0  0  0  0  0
    8.6326   -0.6268   20.2166 N   0  0  0  0  0  0  0  0  0  0  0  0
    7.5918   -0.0998   19.5544 C   0  0  0  0  0  0  0  0  0  0  0  0
    6.5222    0.6428   19.9268 C   0  0  0  0  0  0  0  0  0  0  0  0
    5.7963    0.8754   18.7570 C   0  0  0  0  0  0  0  0  0  0  0  0
    4.6639    1.5674   18.6577 O   0  0  0  0  0  0  0  0  0  0  0  0
    6.3781    0.3136   17.7262 N   0  0  0  0  0  0  0  0  0  0  0  0
    7.5434   -0.3211   18.2340 O   0  0  0  0  0  0  0  0  0  0  0  0
   10.3955    4.0513   22.9424 C   0  0  0  0  0  0  0  0  0  0  0  0
   10.1989    5.1543   23.1656 N   0  0  0  0  0  0  0  0  0  0  0  0
  1  2  1  0
  2  3  1  0
  3  4  1  0
  4  5  2  0
  5  6  1  0
  6  7  2  0
  7  8  1  0
  8  9  2  0
  9 10  1  0
 10 11  1  0
 11 12  1  0
 12 13  2  0
 13 14  1  0
 14 15  1  0
 14 16  2  0
 16 17  1  0
  7 18  1  0
 18 19  3  0
  9  4  1  0
 17 12  1  0
M  END
