CVD-0002122|dock_bobby27042020.92|mol2|37|dock1
     RDKit          3D

 20 21  0  0  0  0  0  0  0  0999 V2000
   13.6722   -1.9159   20.7589 N   0  0  0  0  0  0  0  0  0  0  0  0
   13.6326   -1.6087   22.3299 S   0  0  0  0  0  0  0  0  0  0  0  0
   14.4562   -2.5835   22.9864 O   0  0  0  0  0  0  0  0  0  0  0  0
   13.9349   -0.2176   22.5107 O   0  0  0  0  0  0  0  0  0  0  0  0
   11.9565   -1.8625   22.9049 C   0  0  0  0  0  0  0  0  0  0  0  0
   10.9595   -1.0614   22.1388 C   0  0  0  0  0  0  0  0  0  0  0  0
    9.8456   -1.4598   21.4628 C   0  0  0  0  0  0  0  0  0  0  0  0
    9.3213   -0.3331   20.9534 N   0  0  0  0  0  0  0  0  0  0  0  0
    8.1097   -0.1678   20.1635 C   0  0  0  0  0  0  0  0  0  0  0  0
    7.0350    0.5898   20.9426 C   0  0  0  0  0  0  0  0  0  0  0  0
    7.3171    1.0702   22.0333 O   0  0  0  0  0  0  0  0  0  0  0  0
    5.7942    0.7071   20.4144 N   0  0  0  0  0  0  0  0  0  0  0  0
    5.3632    0.1749   19.1177 C   0  0  0  0  0  0  0  0  0  0  0  0
    4.7322    1.2636   18.2733 C   0  0  0  0  0  0  0  0  0  0  0  0
    3.6105    1.9927   19.0099 C   0  0  0  0  0  0  0  0  0  0  0  0
    3.0754    3.0866   18.2599 O   0  0  0  0  0  0  0  0  0  0  0  0
    4.0962    2.4359   20.3839 C   0  0  0  0  0  0  0  0  0  0  0  0
    4.7029    1.3005   21.1785 C   0  0  0  0  0  0  0  0  0  0  0  0
   10.0565    0.7343   21.3076 N   0  0  0  0  0  0  0  0  0  0  0  0
   11.0650    0.2873   22.0227 N   0  0  0  0  0  0  0  0  0  0  0  0
  1  2  1  0
  2  3  2  0
  2  4  2  0
  2  5  1  0
  5  6  1  0
  6  7  2  0
  7  8  1  0
  8  9  1  0
  9 10  1  0
 10 11  2  0
 10 12  1  0
 12 13  1  0
 13 14  1  0
 14 15  1  0
 15 16  1  0
 15 17  1  0
 17 18  1  0
  8 19  1  0
 19 20  2  0
 20  6  1  0
 18 12  1  0
M  END
