CVD-0001828|dock_bobby27042020.66|mol2|2|dock3
     RDKit          3D

 26 29  0  0  0  0  0  0  0  0999 V2000
    8.2904   -5.4873   24.3597 C   0  0  0  0  0  0  0  0  0  0  0  0
    8.2694   -4.0462   23.9653 C   0  0  0  0  0  0  0  0  0  0  0  0
    8.5471   -3.7068   22.6591 N   0  0  0  0  0  0  0  0  0  0  0  0
    8.4913   -2.4152   22.4708 C   0  0  0  0  0  0  0  0  0  0  0  0
    8.7454   -1.7678   21.1422 C   0  0  0  0  0  0  0  0  0  0  0  0
    8.9415   -0.3262   21.2179 N   0  0  0  0  0  0  0  0  0  0  0  0
    7.9919    0.5763   20.8303 C   0  0  0  0  0  0  0  0  0  0  0  0
    8.4233    1.8018   21.0270 N   0  0  0  0  0  0  0  0  0  0  0  0
    9.7026    1.7196   21.5716 N   0  0  0  0  0  0  0  0  0  0  0  0
    9.9916    0.4411   21.6816 C   0  0  0  0  0  0  0  0  0  0  0  0
   11.1875   -0.0085   22.1959 N   0  0  0  0  0  0  0  0  0  0  0  0
   12.0991    0.9999   22.7171 C   0  0  0  0  0  0  0  0  0  0  0  0
   12.8734    0.4811   23.9081 C   0  0  0  0  0  0  0  0  0  0  0  0
   13.5712   -0.7541   23.5648 N   0  0  0  0  0  0  0  0  0  0  0  0
   12.8786   -1.7481   22.9664 C   0  0  0  0  0  0  0  0  0  0  0  0
   13.2526   -2.9162   23.0029 O   0  0  0  0  0  0  0  0  0  0  0  0
   11.6085   -1.4014   22.2203 C   0  0  0  0  0  0  0  0  0  0  0  0
    6.6308    0.2744   20.2597 C   0  0  0  0  0  0  0  0  0  0  0  0
    5.7148    1.4974   20.3627 C   0  0  0  0  0  0  0  0  0  0  0  0
    5.1408    1.6405   18.9550 C   0  0  0  0  0  0  0  0  0  0  0  0
    5.9936    0.8340   18.0743 C   0  0  0  0  0  0  0  0  0  0  0  0
    6.1117    0.8412   16.8529 O   0  0  0  0  0  0  0  0  0  0  0  0
    6.6812   -0.0118   18.8400 N   0  0  0  0  0  0  0  0  0  0  0  0
    8.0848   -1.5182   23.9042 S   0  0  0  0  0  0  0  0  0  0  0  0
    7.9951   -3.0009   24.7913 C   0  0  0  0  0  0  0  0  0  0  0  0
    7.6538   -2.9823   26.2512 C   0  0  0  0  0  0  0  0  0  0  0  0
  1  2  1  0
  2  3  1  0
  3  4  2  0
  4  5  1  0
  5  6  1  0
  6  7  1  0
  7  8  2  0
  8  9  1  0
  9 10  2  0
 10 11  1  0
 11 12  1  0
 12 13  1  0
 13 14  1  0
 14 15  1  0
 15 16  2  0
 15 17  1  0
  7 18  1  0
 18 19  1  0
 19 20  1  0
 20 21  1  0
 21 22  2  0
 21 23  1  0
  4 24  1  0
 24 25  1  0
 25 26  1  0
 25  2  2  0
 10  6  1  0
 17 11  1  0
 23 18  1  0
M  END
