CVD-0001923|dock_bobby27042020.65|mol2|29|dock2
     RDKit          3D

 22 24  0  0  0  0  0  0  0  0999 V2000
   13.9700   -3.0590   25.6851 C   0  0  0  0  0  0  0  0  0  0  0  0
   12.8559   -2.1808   25.3213 N   0  0  0  0  0  0  0  0  0  0  0  0
   13.2827   -0.8327   24.8755 C   0  0  0  0  0  0  0  0  0  0  0  0
   14.0547   -0.9073   23.5484 C   0  0  0  0  0  0  0  0  0  0  0  0
   13.1368   -1.3554   22.4142 C   0  0  0  0  0  0  0  0  0  0  0  0
   11.9380   -0.4196   22.2781 C   0  0  0  0  0  0  0  0  0  0  0  0
   11.1810   -0.2749   23.5870 C   0  0  0  0  0  0  0  0  0  0  0  0
   12.1077    0.1321   24.7380 C   0  0  0  0  0  0  0  0  0  0  0  0
    9.9549    0.6284   23.4642 C   0  0  0  0  0  0  0  0  0  0  0  0
    8.9343    0.6760   24.6313 C   0  0  0  0  0  0  0  0  0  0  0  0
    8.4415   -0.7400   24.8831 C   0  0  0  0  0  0  0  0  0  0  0  0
    8.0045   -1.1847   26.1372 C   0  0  0  0  0  0  0  0  0  0  0  0
    8.3583   -0.5129   27.2793 O   0  0  0  0  0  0  0  0  0  0  0  0
    7.3451   -2.4032   26.2760 C   0  0  0  0  0  0  0  0  0  0  0  0
    6.9876   -2.8275   27.5159 O   0  0  0  0  0  0  0  0  0  0  0  0
    7.1093   -3.2035   25.1650 C   0  0  0  0  0  0  0  0  0  0  0  0
    7.5369   -2.7741   23.9230 C   0  0  0  0  0  0  0  0  0  0  0  0
    8.1984   -1.5545   23.7758 C   0  0  0  0  0  0  0  0  0  0  0  0
    8.8322   -1.2119   22.4512 C   0  0  0  0  0  0  0  0  0  0  0  0
    7.9555   -1.5366   21.2475 C   0  0  0  0  0  0  0  0  0  0  0  0
    8.3200   -0.7796   20.0277 N   0  0  0  0  0  0  0  0  0  0  0  0
    9.2049    0.1510   22.3265 O   0  0  0  0  0  0  0  0  0  0  0  0
  1  2  1  0
  2  3  1  0
  3  4  1  0
  4  5  1  0
  5  6  1  0
  6  7  1  0
  7  8  1  0
  7  9  1  0
  9 10  1  0
 10 11  1  0
 11 12  2  0
 12 13  1  0
 12 14  1  0
 14 15  1  0
 14 16  2  0
 16 17  1  0
 17 18  2  0
 18 19  1  0
 19 20  1  0
 20 21  1  0
 19 22  1  0
  8  3  1  0
 22  9  1  0
 18 11  1  0
M  END
