CVD-0002584|dock_bobby27042020.91|mol2|2|dock1
     RDKit          3D

 37 40  0  0  0  0  0  0  0  0999 V2000
    3.2444   -6.2958   22.8993 C   0  0  0  0  0  0  0  0  0  0  0  0
    4.5206   -7.0059   22.7817 N   0  0  0  0  0  0  0  0  0  0  0  0
    5.5250   -6.3181   21.9633 C   0  0  0  0  0  0  0  0  0  0  0  0
    6.1153   -5.1347   22.6840 C   0  0  0  0  0  0  0  0  0  0  0  0
    6.0516   -4.9130   24.0706 C   0  0  0  0  0  0  0  0  0  0  0  0
    6.6972   -3.7345   24.3949 C   0  0  0  0  0  0  0  0  0  0  0  0
    6.8222   -3.2012   25.7743 C   0  0  0  0  0  0  0  0  0  0  0  0
    7.9992   -2.5081   26.0643 C   0  0  0  0  0  0  0  0  0  0  0  0
    8.2397   -2.0027   27.3308 C   0  0  0  0  0  0  0  0  0  0  0  0
    7.3129   -2.1703   28.3349 C   0  0  0  0  0  0  0  0  0  0  0  0
    6.1225   -2.8234   28.0725 C   0  0  0  0  0  0  0  0  0  0  0  0
    5.8940   -3.2984   26.8026 C   0  0  0  0  0  0  0  0  0  0  0  0
    4.6915   -3.8686   26.5787 F   0  0  0  0  0  0  0  0  0  0  0  0
    7.1622   -3.1954   23.1601 N   0  0  0  0  0  0  0  0  0  0  0  0
    6.8000   -4.0613   22.1353 C   0  0  0  0  0  0  0  0  0  0  0  0
    7.9634   -1.7919   22.8251 S   0  0  0  0  0  0  0  0  0  0  0  0
    7.4847   -0.8025   23.7647 O   0  0  0  0  0  0  0  0  0  0  0  0
    9.6096   -1.8183   22.7581 C   0  0  0  0  0  0  0  0  0  0  0  0
   10.2353   -0.5635   22.7152 O   0  0  0  0  0  0  0  0  0  0  0  0
   11.5961   -0.5285   22.6591 C   0  0  0  0  0  0  0  0  0  0  0  0
   12.3000   -1.5245   22.6441 O   0  0  0  0  0  0  0  0  0  0  0  0
   12.1395    0.8645   22.6178 C   0  0  0  0  0  0  0  0  0  0  0  0
   13.5054    1.1022   22.5017 C   0  0  0  0  0  0  0  0  0  0  0  0
   14.0000    2.3940   22.4636 C   0  0  0  0  0  0  0  0  0  0  0  0
   13.1227    3.4631   22.5407 C   0  0  0  0  0  0  0  0  0  0  0  0
   11.7595    3.2478   22.6586 C   0  0  0  0  0  0  0  0  0  0  0  0
   11.2767    1.9520   22.6958 C   0  0  0  0  0  0  0  0  0  0  0  0
   13.7486    5.1153   22.4987 S   0  0  0  0  0  0  0  0  0  0  0  0
   13.0378    5.9567   23.6605 N   0  0  0  0  0  0  0  0  0  0  0  0
   15.1440    5.0521   22.8148 O   0  0  0  0  0  0  0  0  0  0  0  0
   13.3474    5.6930   21.2512 O   0  0  0  0  0  0  0  0  0  0  0  0
    7.4679   -1.2470   21.2118 C   0  0  0  0  0  0  0  0  0  0  0  0
    6.1432   -0.9389   20.9543 C   0  0  0  0  0  0  0  0  0  0  0  0
    5.8048   -0.4953   19.6876 C   0  0  0  0  0  0  0  0  0  0  0  0
    6.7970   -0.3740   18.7411 C   0  0  0  0  0  0  0  0  0  0  0  0
    8.0783   -0.6594   18.9783 N   0  0  0  0  0  0  0  0  0  0  0  0
    8.3989   -1.0862   20.2034 C   0  0  0  0  0  0  0  0  0  0  0  0
  1  2  1  0
  2  3  1  0
  3  4  1  0
  4  5  1  0
  5  6  2  0
  6  7  1  0
  7  8  2  0
  8  9  1  0
  9 10  2  0
 10 11  1  0
 11 12  2  0
 12 13  1  0
  6 14  1  0
 14 15  1  0
 14 16  1  0
 16 17  2  0
 16 18  2  0
 18 19  1  0
 19 20  1  0
 20 21  2  0
 20 22  1  0
 22 23  2  0
 23 24  1  0
 24 25  2  0
 25 26  1  0
 26 27  2  0
 25 28  1  0
 28 29  1  0
 28 30  2  0
 28 31  2  0
 16 32  1  0
 32 33  2  0
 33 34  1  0
 34 35  2  0
 35 36  1  0
 36 37  2  0
 15  4  2  0
 27 22  1  0
 37 32  1  0
 12  7  1  0
M  END
