CVD-0002287|dock_bobby27042020.49|mol2|21|dock2
     RDKit          3D

 40 43  0  0  0  0  0  0  0  0999 V2000
   13.4470    5.2277   21.7586 C   0  0  0  0  0  0  0  0  0  0  0  0
   12.0346    5.5267   22.0089 N   0  0  0  0  0  0  0  0  0  0  0  0
   11.4873    4.9035   23.2187 C   0  0  0  0  0  0  0  0  0  0  0  0
   11.4186    3.4045   23.0908 C   0  0  0  0  0  0  0  0  0  0  0  0
   12.3762    2.5023   23.5879 C   0  0  0  0  0  0  0  0  0  0  0  0
   12.0003    1.2062   23.2907 C   0  0  0  0  0  0  0  0  0  0  0  0
   12.7580   -0.0181   23.6444 C   0  0  0  0  0  0  0  0  0  0  0  0
   13.0993   -0.1842   24.9878 C   0  0  0  0  0  0  0  0  0  0  0  0
   13.7579   -1.3229   25.4206 C   0  0  0  0  0  0  0  0  0  0  0  0
   14.0948   -2.3148   24.5268 C   0  0  0  0  0  0  0  0  0  0  0  0
   13.8049   -2.1618   23.1829 C   0  0  0  0  0  0  0  0  0  0  0  0
   13.1753   -1.0117   22.7694 C   0  0  0  0  0  0  0  0  0  0  0  0
   12.9860   -0.8663   21.4400 F   0  0  0  0  0  0  0  0  0  0  0  0
   10.7576    1.3055   22.6073 N   0  0  0  0  0  0  0  0  0  0  0  0
   10.4221    2.6487   22.4899 C   0  0  0  0  0  0  0  0  0  0  0  0
    9.7020    0.1315   21.9862 S   0  0  0  0  0  0  0  0  0  0  0  0
   10.5408   -0.9703   21.6292 O   0  0  0  0  0  0  0  0  0  0  0  0
    8.8990    0.7516   20.9790 O   0  0  0  0  0  0  0  0  0  0  0  0
    8.6947   -0.3878   23.3329 C   0  0  0  0  0  0  0  0  0  0  0  0
    7.5355    0.2950   23.6524 C   0  0  0  0  0  0  0  0  0  0  0  0
    6.7576   -0.1410   24.7112 C   0  0  0  0  0  0  0  0  0  0  0  0
    7.1578   -1.2766   25.4161 C   0  0  0  0  0  0  0  0  0  0  0  0
    8.2891   -1.9205   25.1182 N   0  0  0  0  0  0  0  0  0  0  0  0
    9.0315   -1.4865   24.0951 C   0  0  0  0  0  0  0  0  0  0  0  0
    6.4255   -1.8440   26.5061 N   0  0  0  0  0  0  0  0  0  0  0  0
    5.3250   -2.8081   26.2113 C   0  0  0  0  0  0  0  0  0  0  0  0
    5.5734   -3.4853   24.8725 C   0  0  0  0  0  0  0  0  0  0  0  0
    3.9370   -2.1786   26.2510 C   0  0  0  0  0  0  0  0  0  0  0  0
    6.7542   -1.5179   27.8088 C   0  0  0  0  0  0  0  0  0  0  0  0
    6.1699   -2.0151   28.7521 O   0  0  0  0  0  0  0  0  0  0  0  0
    7.8575   -0.5154   28.1228 C   0  0  0  0  0  0  0  0  0  0  0  0
    8.5556   -0.8664   29.4309 C   0  0  0  0  0  0  0  0  0  0  0  0
    9.6245    0.1568   29.7553 C   0  0  0  0  0  0  0  0  0  0  0  0
    9.0333    1.4904   29.8259 N   0  0  0  0  0  0  0  0  0  0  0  0
    8.3982    1.8926   28.5755 C   0  0  0  0  0  0  0  0  0  0  0  0
    7.2979    0.9028   28.2075 C   0  0  0  0  0  0  0  0  0  0  0  0
    9.2619    2.4041   30.7956 C   0  0  0  0  0  0  0  0  0  0  0  0
    8.7059    3.4949   30.7778 O   0  0  0  0  0  0  0  0  0  0  0  0
   10.2196    2.0438   31.9153 C   0  0  0  0  0  0  0  0  0  0  0  0
   11.8319    1.6991   31.2755 Cl  0  0  0  0  0  0  0  0  0  0  0  0
  1  2  1  0
  2  3  1  0
  3  4  1  0
  4  5  1  0
  5  6  2  0
  6  7  1  0
  7  8  2  0
  8  9  1  0
  9 10  2  0
 10 11  1  0
 11 12  2  0
 12 13  1  0
  6 14  1  0
 14 15  1  0
 14 16  1  0
 16 17  2  0
 16 18  2  0
 16 19  1  0
 19 20  2  0
 20 21  1  0
 21 22  2  0
 22 23  1  0
 23 24  2  0
 22 25  1  0
 25 26  1  0
 26 27  1  0
 26 28  1  0
 25 29  1  0
 29 30  2  0
 29 31  1  0
 31 32  1  0
 32 33  1  0
 33 34  1  0
 34 35  1  0
 35 36  1  0
 34 37  1  0
 37 38  2  0
 37 39  1  0
 39 40  1  0
 15  4  2  0
 24 19  1  0
 36 31  1  0
 12  7  1  0
M  END
