CVD-0003586|dock_bobby27042020.87|mol2|26|dock1
     RDKit          3D

 30 33  0  0  0  0  0  0  0  0999 V2000
   15.0151   -2.1847   25.0904 Cl  0  0  0  0  0  0  0  0  0  0  0  0
   13.7098   -1.1437   24.5075 C   0  0  0  0  0  0  0  0  0  0  0  0
   12.7296   -1.9215   23.6513 C   0  0  0  0  0  0  0  0  0  0  0  0
   12.7980   -3.1405   23.5558 O   0  0  0  0  0  0  0  0  0  0  0  0
   11.7837   -1.2042   23.0093 N   0  0  0  0  0  0  0  0  0  0  0  0
   10.7372   -1.8040   22.1449 C   0  0  0  0  0  0  0  0  0  0  0  0
    9.3828   -1.2992   22.5150 C   0  0  0  0  0  0  0  0  0  0  0  0
    9.0114   -1.7998   23.9039 C   0  0  0  0  0  0  0  0  0  0  0  0
    8.8427   -0.9096   24.9548 C   0  0  0  0  0  0  0  0  0  0  0  0
    8.5029   -1.3677   26.2163 C   0  0  0  0  0  0  0  0  0  0  0  0
    8.3278   -2.7233   26.4363 C   0  0  0  0  0  0  0  0  0  0  0  0
    8.4886   -3.6309   25.4014 C   0  0  0  0  0  0  0  0  0  0  0  0
    8.3023   -5.1107   25.6346 C   0  0  0  0  0  0  0  0  0  0  0  0
    7.1194   -5.4242   26.4227 N   0  0  0  0  0  0  0  0  0  0  0  0
    5.8335   -5.4813   26.8044 C   0  0  0  0  0  0  0  0  0  0  0  0
    4.9353   -4.9550   26.1590 O   0  0  0  0  0  0  0  0  0  0  0  0
    5.5636   -6.1561   27.9528 N   0  0  0  0  0  0  0  0  0  0  0  0
    6.6120   -6.6182   28.8700 C   0  0  0  0  0  0  0  0  0  0  0  0
    6.3449   -8.0530   29.2774 C   0  0  0  0  0  0  0  0  0  0  0  0
    5.0598   -8.2105   29.8442 O   0  0  0  0  0  0  0  0  0  0  0  0
    4.0570   -7.8226   28.9047 C   0  0  0  0  0  0  0  0  0  0  0  0
    4.2192   -6.3756   28.4949 C   0  0  0  0  0  0  0  0  0  0  0  0
    8.8310   -3.1543   24.1422 C   0  0  0  0  0  0  0  0  0  0  0  0
    9.3454    0.2046   22.4106 C   0  0  0  0  0  0  0  0  0  0  0  0
    8.1968    0.8893   22.0083 C   0  0  0  0  0  0  0  0  0  0  0  0
    8.1653    2.2695   21.9157 C   0  0  0  0  0  0  0  0  0  0  0  0
    9.2911    2.9990   22.2261 C   0  0  0  0  0  0  0  0  0  0  0  0
   10.4402    2.3424   22.6268 C   0  0  0  0  0  0  0  0  0  0  0  0
   10.4776    0.9550   22.7218 C   0  0  0  0  0  0  0  0  0  0  0  0
   11.7540    0.2589   23.2028 C   0  0  0  0  0  0  0  0  0  0  0  0
  1  2  1  0
  2  3  1  0
  3  4  2  0
  3  5  1  0
  5  6  1  0
  6  7  1  0
  7  8  1  0
  8  9  2  0
  9 10  1  0
 10 11  2  0
 11 12  1  0
 12 13  1  0
 13 14  1  0
 14 15  1  0
 15 16  2  0
 15 17  1  0
 17 18  1  0
 18 19  1  0
 19 20  1  0
 20 21  1  0
 21 22  1  0
 12 23  2  0
  7 24  1  0
 24 25  2  0
 25 26  1  0
 26 27  2  0
 27 28  1  0
 28 29  2  0
 29 30  1  0
 30  5  1  0
 23  8  1  0
 29 24  1  0
 22 17  1  0
M  END
