CVD-0000292|dock_bobby27042020.42|mol2|10|dock3
     RDKit          3D

 22 23  0  0  0  0  0  0  0  0999 V2000
   14.7201    4.4443   21.6484 F   0  0  0  0  0  0  0  0  0  0  0  0
   13.6102    4.5914   22.4185 C   0  0  0  0  0  0  0  0  0  0  0  0
   14.0269    4.7385   23.7034 F   0  0  0  0  0  0  0  0  0  0  0  0
   12.6818    3.4391   22.2703 C   0  0  0  0  0  0  0  0  0  0  0  0
   13.4019    2.2576   22.6456 O   0  0  0  0  0  0  0  0  0  0  0  0
   12.7772    1.0692   22.4623 C   0  0  0  0  0  0  0  0  0  0  0  0
   13.5908   -0.0594   22.3937 C   0  0  0  0  0  0  0  0  0  0  0  0
   12.9644   -1.2796   22.2067 C   0  0  0  0  0  0  0  0  0  0  0  0
   11.5855   -1.3410   22.0963 C   0  0  0  0  0  0  0  0  0  0  0  0
   10.8710   -0.1474   22.1797 C   0  0  0  0  0  0  0  0  0  0  0  0
    9.4713   -0.0909   22.0812 N   0  0  0  0  0  0  0  0  0  0  0  0
    8.5703   -0.7568   21.2885 C   0  0  0  0  0  0  0  0  0  0  0  0
    8.8628   -1.6008   20.4449 O   0  0  0  0  0  0  0  0  0  0  0  0
    7.2932   -0.3947   21.5211 N   0  0  0  0  0  0  0  0  0  0  0  0
    6.1994   -0.8926   20.7000 C   0  0  0  0  0  0  0  0  0  0  0  0
    5.8987   -0.0139   19.5099 C   0  0  0  0  0  0  0  0  0  0  0  0
    4.8118    0.8442   19.4953 C   0  0  0  0  0  0  0  0  0  0  0  0
    4.5748    1.6349   18.3846 C   0  0  0  0  0  0  0  0  0  0  0  0
    5.4395    1.5414   17.3178 C   0  0  0  0  0  0  0  0  0  0  0  0
    6.4949    0.7258   17.3031 N   0  0  0  0  0  0  0  0  0  0  0  0
    6.7039   -0.0281   18.3866 C   0  0  0  0  0  0  0  0  0  0  0  0
   11.4573    1.0424   22.3603 N   0  0  0  0  0  0  0  0  0  0  0  0
  1  2  1  0
  2  3  1  0
  2  4  1  0
  4  5  1  0
  5  6  1  0
  6  7  2  0
  7  8  1  0
  8  9  2  0
  9 10  1  0
 10 11  1  0
 11 12  1  0
 12 13  2  0
 12 14  1  0
 14 15  1  0
 15 16  1  0
 16 17  2  0
 17 18  1  0
 18 19  2  0
 19 20  1  0
 20 21  2  0
 10 22  2  0
 22  6  1  0
 21 16  1  0
M  END
