CVD-0000784|dock_bobby27042020.40|mol2|26|dock3
     RDKit          3D

 25 28  0  0  0  0  0  0  0  0999 V2000
   14.4309   -2.7492   25.5823 Cl  0  0  0  0  0  0  0  0  0  0  0  0
   13.2743   -1.5355   25.0188 C   0  0  0  0  0  0  0  0  0  0  0  0
   12.4572   -2.0454   23.8457 C   0  0  0  0  0  0  0  0  0  0  0  0
   12.4615   -3.2383   23.5683 O   0  0  0  0  0  0  0  0  0  0  0  0
   11.7293   -1.1540   23.1334 N   0  0  0  0  0  0  0  0  0  0  0  0
   10.8808   -1.5494   21.9819 C   0  0  0  0  0  0  0  0  0  0  0  0
    9.5000   -1.0010   22.1198 C   0  0  0  0  0  0  0  0  0  0  0  0
    9.5506    0.5011   22.2381 C   0  0  0  0  0  0  0  0  0  0  0  0
    8.5484    1.3161   21.7082 C   0  0  0  0  0  0  0  0  0  0  0  0
    8.5918    2.6940   21.8251 C   0  0  0  0  0  0  0  0  0  0  0  0
    9.6472    3.2886   22.4800 C   0  0  0  0  0  0  0  0  0  0  0  0
   10.6511    2.5008   23.0127 C   0  0  0  0  0  0  0  0  0  0  0  0
   10.6132    1.1148   22.8985 C   0  0  0  0  0  0  0  0  0  0  0  0
   11.7222    0.2680   23.5301 C   0  0  0  0  0  0  0  0  0  0  0  0
    8.7694   -1.6774   23.2855 C   0  0  0  0  0  0  0  0  0  0  0  0
    8.6607   -0.9717   24.4562 C   0  0  0  0  0  0  0  0  0  0  0  0
    8.0140   -1.5120   25.5485 C   0  0  0  0  0  0  0  0  0  0  0  0
    7.9058   -0.5710   27.0098 Cl  0  0  0  0  0  0  0  0  0  0  0  0
    7.4599   -2.7549   25.5167 C   0  0  0  0  0  0  0  0  0  0  0  0
    7.5438   -3.5277   24.3359 C   0  0  0  0  0  0  0  0  0  0  0  0
    6.9793   -4.8238   24.2648 C   0  0  0  0  0  0  0  0  0  0  0  0
    7.0670   -5.5600   23.1220 C   0  0  0  0  0  0  0  0  0  0  0  0
    7.7099   -5.0560   22.0123 C   0  0  0  0  0  0  0  0  0  0  0  0
    8.2699   -3.8132   22.0339 C   0  0  0  0  0  0  0  0  0  0  0  0
    8.2098   -2.9930   23.1928 C   0  0  0  0  0  0  0  0  0  0  0  0
  1  2  1  0
  2  3  1  0
  3  4  2  0
  3  5  1  0
  5  6  1  0
  6  7  1  0
  7  8  1  0
  8  9  2  0
  9 10  1  0
 10 11  2  0
 11 12  1  0
 12 13  2  0
 13 14  1  0
  7 15  1  0
 15 16  2  0
 16 17  1  0
 17 18  1  0
 17 19  2  0
 19 20  1  0
 20 21  2  0
 21 22  1  0
 22 23  2  0
 23 24  1  0
 24 25  2  0
 14  5  1  0
 25 15  1  0
 13  8  1  0
 25 20  1  0
M  END
