CVD-0001545|dock_bobby27042020.66|mol2|43|dock3
     RDKit          3D

 13 13  0  0  0  0  0  0  0  0999 V2000
   12.9792   -2.3502   22.5709 C   0  0  0  0  0  0  0  0  0  0  0  0
   12.4221   -1.0218   22.3855 N   0  0  0  0  0  0  0  0  0  0  0  0
   11.1820   -0.9332   21.7135 N   0  0  0  0  0  0  0  0  0  0  0  0
   13.1350    0.0768   22.8293 C   0  0  0  0  0  0  0  0  0  0  0  0
   14.2434   -0.1238   23.2951 O   0  0  0  0  0  0  0  0  0  0  0  0
   12.6179    1.5045   22.7691 C   0  0  0  0  0  0  0  0  0  0  0  0
   13.5377    2.4778   22.6290 N   0  0  0  0  0  0  0  0  0  0  0  0
   13.1274    3.7260   22.5722 C   0  0  0  0  0  0  0  0  0  0  0  0
   14.1019    4.6523   22.4312 F   0  0  0  0  0  0  0  0  0  0  0  0
   11.7933    4.0947   22.6493 C   0  0  0  0  0  0  0  0  0  0  0  0
   10.8683    3.1454   22.7882 N   0  0  0  0  0  0  0  0  0  0  0  0
   11.2390    1.8279   22.8532 C   0  0  0  0  0  0  0  0  0  0  0  0
   10.2886    0.9682   22.9884 O   0  0  0  0  0  0  0  0  0  0  0  0
  1  2  1  0
  2  3  1  0
  2  4  1  0
  4  5  2  0
  4  6  1  0
  6  7  2  0
  7  8  1  0
  8  9  1  0
  8 10  2  0
 10 11  1  0
 11 12  2  0
 12 13  1  0
 12  6  1  0
M  END
