CVD-0002078|dock_bobby27042020.21|mol2|37|dock1
     RDKit          3D

 23 24  0  0  0  0  0  0  0  0999 V2000
    2.5099    2.6663   20.1772 C   0  0  0  0  0  0  0  0  0  0  0  0
    3.8632    1.9981   20.1790 C   0  0  0  0  0  0  0  0  0  0  0  0
    4.5936    1.8760   21.3471 C   0  0  0  0  0  0  0  0  0  0  0  0
    5.8357    1.2703   21.3681 C   0  0  0  0  0  0  0  0  0  0  0  0
    6.3916    0.7607   20.1946 C   0  0  0  0  0  0  0  0  0  0  0  0
    7.6752    0.1383   20.2359 N   0  0  0  0  0  0  0  0  0  0  0  0
    8.5776   -0.0345   21.5793 S   0  0  0  0  0  0  0  0  0  0  0  0
    7.7813   -0.7478   22.5264 O   0  0  0  0  0  0  0  0  0  0  0  0
    9.1015    1.2555   21.8976 O   0  0  0  0  0  0  0  0  0  0  0  0
    9.8401   -0.9751   21.2342 N   0  0  0  0  0  0  0  0  0  0  0  0
   10.6334   -1.5301   22.3374 C   0  0  0  0  0  0  0  0  0  0  0  0
   12.0918   -1.1304   22.2022 C   0  0  0  0  0  0  0  0  0  0  0  0
   12.8829   -1.3718   23.4650 C   0  0  0  0  0  0  0  0  0  0  0  0
   12.9090   -0.4255   24.4780 C   0  0  0  0  0  0  0  0  0  0  0  0
   13.6319   -0.6479   25.6381 C   0  0  0  0  0  0  0  0  0  0  0  0
   14.3375   -1.8207   25.7999 C   0  0  0  0  0  0  0  0  0  0  0  0
   14.3193   -2.7707   24.8017 C   0  0  0  0  0  0  0  0  0  0  0  0
   13.5961   -2.5474   23.6420 C   0  0  0  0  0  0  0  0  0  0  0  0
    5.6564    0.8803   18.9946 C   0  0  0  0  0  0  0  0  0  0  0  0
    4.4076    1.4964   19.0086 C   0  0  0  0  0  0  0  0  0  0  0  0
    6.1369    0.3856   17.7081 N   0  0  0  0  0  0  0  0  0  0  0  0
    6.2280    1.1476   16.7480 O   0  0  0  0  0  0  0  0  0  0  0  0
    6.4408   -0.7918   17.6180 O   0  0  0  0  0  0  0  0  0  0  0  0
  1  2  1  0
  2  3  2  0
  3  4  1  0
  4  5  2  0
  5  6  1  0
  6  7  1  0
  7  8  2  0
  7  9  2  0
  7 10  1  0
 10 11  1  0
 11 12  1  0
 12 13  1  0
 13 14  2  0
 14 15  1  0
 15 16  2  0
 16 17  1  0
 17 18  2  0
  5 19  1  0
 19 20  2  0
 19 21  1  0
 21 22  1  0
 21 23  2  0
 20  2  1  0
 18 13  1  0
M  CHG  2  21   1  22  -1
M  END
