CVD-0002658|dock_bobby27042020.19|mol2|9|dock2
     RDKit          3D

 36 39  0  0  0  0  0  0  0  0999 V2000
   10.9649    7.4391   26.5986 C   0  0  0  0  0  0  0  0  0  0  0  0
   12.0467    6.9350   25.6894 C   0  0  0  0  0  0  0  0  0  0  0  0
   13.2276    7.0276   26.0063 O   0  0  0  0  0  0  0  0  0  0  0  0
   11.5804    6.3778   24.5411 N   0  0  0  0  0  0  0  0  0  0  0  0
   12.2658    5.7814   23.4462 C   0  0  0  0  0  0  0  0  0  0  0  0
   13.4836    6.2421   22.9466 C   0  0  0  0  0  0  0  0  0  0  0  0
   14.1283    5.6820   21.9183 N   0  0  0  0  0  0  0  0  0  0  0  0
   13.5692    4.6227   21.3395 C   0  0  0  0  0  0  0  0  0  0  0  0
   12.3698    4.0835   21.7490 C   0  0  0  0  0  0  0  0  0  0  0  0
   11.6938    4.6591   22.8193 C   0  0  0  0  0  0  0  0  0  0  0  0
   10.3716    4.0488   23.2512 C   0  0  0  0  0  0  0  0  0  0  0  0
   10.2188    2.5832   22.8987 C   0  0  0  0  0  0  0  0  0  0  0  0
   11.0525    1.6243   23.4483 C   0  0  0  0  0  0  0  0  0  0  0  0
   10.9012    0.2899   23.1199 C   0  0  0  0  0  0  0  0  0  0  0  0
    9.9158   -0.1337   22.2324 C   0  0  0  0  0  0  0  0  0  0  0  0
    9.8085   -1.6156   21.9442 C   0  0  0  0  0  0  0  0  0  0  0  0
    9.5932   -2.4405   23.2004 C   0  0  0  0  0  0  0  0  0  0  0  0
    8.7931   -3.6284   22.9384 N   0  0  0  0  0  0  0  0  0  0  0  0
    7.4539   -3.6294   23.0897 C   0  0  0  0  0  0  0  0  0  0  0  0
    6.8385   -2.6314   23.4555 O   0  0  0  0  0  0  0  0  0  0  0  0
    6.8392   -4.8007   22.8115 N   0  0  0  0  0  0  0  0  0  0  0  0
    5.4021   -5.0111   23.0015 C   0  0  0  0  0  0  0  0  0  0  0  0
    5.0406   -5.0700   24.4999 C   0  0  0  0  0  0  0  0  0  0  0  0
    3.5590   -5.3610   24.7311 C   0  0  0  0  0  0  0  0  0  0  0  0
    3.1226   -6.6272   24.0054 C   0  0  0  0  0  0  0  0  0  0  0  0
    3.4527   -6.5512   22.5216 C   0  0  0  0  0  0  0  0  0  0  0  0
    4.9406   -6.2996   22.2994 C   0  0  0  0  0  0  0  0  0  0  0  0
    9.0691    0.8280   21.6564 C   0  0  0  0  0  0  0  0  0  0  0  0
    9.2379    2.1684   22.0078 C   0  0  0  0  0  0  0  0  0  0  0  0
    7.9928    0.4778   20.6760 C   0  0  0  0  0  0  0  0  0  0  0  0
    8.3556   -0.1663   19.4913 C   0  0  0  0  0  0  0  0  0  0  0  0
    7.4027   -0.5016   18.5439 C   0  0  0  0  0  0  0  0  0  0  0  0
    6.0752   -0.2014   18.7571 C   0  0  0  0  0  0  0  0  0  0  0  0
    5.6873    0.4323   19.9245 C   0  0  0  0  0  0  0  0  0  0  0  0
    6.6409    0.7607   20.8732 C   0  0  0  0  0  0  0  0  0  0  0  0
    6.0900    1.5355   22.3233 Cl  0  0  0  0  0  0  0  0  0  0  0  0
  1  2  1  0
  2  3  2  0
  2  4  1  0
  4  5  1  0
  5  6  2  0
  6  7  1  0
  7  8  2  0
  8  9  1  0
  9 10  2  0
 10 11  1  0
 11 12  1  0
 12 13  2  0
 13 14  1  0
 14 15  2  0
 15 16  1  0
 16 17  1  0
 17 18  1  0
 18 19  1  0
 19 20  2  0
 19 21  1  0
 21 22  1  0
 22 23  1  0
 23 24  1  0
 24 25  1  0
 25 26  1  0
 26 27  1  0
 15 28  1  0
 28 29  2  0
 28 30  1  0
 30 31  2  0
 31 32  1  0
 32 33  2  0
 33 34  1  0
 34 35  2  0
 35 36  1  0
 10  5  1  0
 29 12  1  0
 35 30  1  0
 27 22  1  0
M  END
