CVD-0002456|dock_bobby27042020.91|mol2|22|dock3
     RDKit          3D

 17 18  0  0  0  0  0  0  0  0999 V2000
    4.4639    1.4796   18.7648 C   0  0  0  0  0  0  0  0  0  0  0  0
    5.5495    0.8199   19.5799 C   0  0  0  0  0  0  0  0  0  0  0  0
    6.7581    0.4632   19.0041 C   0  0  0  0  0  0  0  0  0  0  0  0
    7.7615   -0.1395   19.7422 C   0  0  0  0  0  0  0  0  0  0  0  0
    7.5601   -0.3992   21.0888 C   0  0  0  0  0  0  0  0  0  0  0  0
    8.5274   -0.9971   21.8584 O   0  0  0  0  0  0  0  0  0  0  0  0
    9.8821   -1.0929   21.3922 C   0  0  0  0  0  0  0  0  0  0  0  0
   10.7239   -1.7717   22.4451 C   0  0  0  0  0  0  0  0  0  0  0  0
   12.2095   -1.4589   22.3085 C   0  0  0  0  0  0  0  0  0  0  0  0
   12.7341   -2.1947   21.2071 O   0  0  0  0  0  0  0  0  0  0  0  0
   12.9853   -1.8154   23.5488 C   0  0  0  0  0  0  0  0  0  0  0  0
   12.6917   -2.8648   24.4680 C   0  0  0  0  0  0  0  0  0  0  0  0
   13.5702   -2.9651   25.5046 C   0  0  0  0  0  0  0  0  0  0  0  0
   14.7698   -1.7715   25.3640 S   0  0  0  0  0  0  0  0  0  0  0  0
   14.1082   -1.1418   23.9304 C   0  0  0  0  0  0  0  0  0  0  0  0
    6.3611   -0.0456   21.6825 C   0  0  0  0  0  0  0  0  0  0  0  0
    5.3705    0.5576   20.9283 C   0  0  0  0  0  0  0  0  0  0  0  0
  1  2  1  0
  2  3  2  0
  3  4  1  0
  4  5  2  0
  5  6  1  0
  6  7  1  0
  7  8  1  0
  8  9  1  0
  9 10  1  0
  9 11  1  0
 11 12  1  0
 12 13  2  0
 13 14  1  0
 14 15  1  0
  5 16  1  0
 16 17  2  0
 17  2  1  0
 15 11  2  0
M  END
