CVD-0002236|dock_bobby27042020.35|mol2|12|dock1
     RDKit          3D

 43 48  0  0  0  0  0  0  0  0999 V2000
    6.0798   -4.6265   24.9270 F   0  0  0  0  0  0  0  0  0  0  0  0
    7.3072   -5.0370   25.3202 C   0  0  0  0  0  0  0  0  0  0  0  0
    7.3707   -5.6541   26.5470 C   0  0  0  0  0  0  0  0  0  0  0  0
    8.5923   -6.1159   26.9983 C   0  0  0  0  0  0  0  0  0  0  0  0
    9.7145   -5.9456   26.2213 C   0  0  0  0  0  0  0  0  0  0  0  0
    9.6314   -5.3094   24.9941 C   0  0  0  0  0  0  0  0  0  0  0  0
    8.4134   -4.8337   24.5003 C   0  0  0  0  0  0  0  0  0  0  0  0
    8.3287   -4.1449   23.1831 C   0  0  0  0  0  0  0  0  0  0  0  0
    8.8595   -2.9054   22.8690 C   0  0  0  0  0  0  0  0  0  0  0  0
    8.5891   -2.5813   21.5285 C   0  0  0  0  0  0  0  0  0  0  0  0
    9.0086   -1.3106   20.8373 C   0  0  0  0  0  0  0  0  0  0  0  0
    9.6868   -0.3682   21.7064 N   0  0  0  0  0  0  0  0  0  0  0  0
   11.0415   -0.3873   21.9773 C   0  0  0  0  0  0  0  0  0  0  0  0
   11.7083   -1.6112   21.9581 C   0  0  0  0  0  0  0  0  0  0  0  0
   13.0625   -1.6530   22.2343 C   0  0  0  0  0  0  0  0  0  0  0  0
   13.7342   -0.4845   22.5244 C   0  0  0  0  0  0  0  0  0  0  0  0
   13.0705    0.7347   22.5436 C   0  0  0  0  0  0  0  0  0  0  0  0
   13.8565    1.9964   22.9142 C   0  0  0  0  0  0  0  0  0  0  0  0
   13.1900    3.2744   22.6023 N   0  0  0  0  0  0  0  0  0  0  0  0
   11.9470    3.2209   21.7940 C   0  0  0  0  0  0  0  0  0  0  0  0
   11.0319    2.1635   22.3099 C   0  0  0  0  0  0  0  0  0  0  0  0
   10.4742    2.5014   23.6870 C   0  0  0  0  0  0  0  0  0  0  0  0
   10.8584    1.7992   24.8239 C   0  0  0  0  0  0  0  0  0  0  0  0
   10.3302    2.1113   26.0657 C   0  0  0  0  0  0  0  0  0  0  0  0
    9.4137    3.1316   26.1945 C   0  0  0  0  0  0  0  0  0  0  0  0
    9.0267    3.8426   25.0800 C   0  0  0  0  0  0  0  0  0  0  0  0
    9.5538    3.5320   23.8377 C   0  0  0  0  0  0  0  0  0  0  0  0
   11.7080    0.8136   22.2705 C   0  0  0  0  0  0  0  0  0  0  0  0
   13.7531    4.4041   23.0846 C   0  0  0  0  0  0  0  0  0  0  0  0
   14.7854    4.3688   23.7424 O   0  0  0  0  0  0  0  0  0  0  0  0
   13.0713    5.7241   22.7797 C   0  0  0  0  0  0  0  0  0  0  0  0
   11.5808    5.9336   23.7080 Cl  0  0  0  0  0  0  0  0  0  0  0  0
    7.8671   -3.6381   20.9981 C   0  0  0  0  0  0  0  0  0  0  0  0
    7.6963   -4.5976   21.9883 N   0  0  0  0  0  0  0  0  0  0  0  0
    6.8267   -6.0001   21.5912 S   0  0  0  0  0  0  0  0  0  0  0  0
    6.4469   -5.8210   20.2243 O   0  0  0  0  0  0  0  0  0  0  0  0
    7.6384   -7.1238   21.9432 O   0  0  0  0  0  0  0  0  0  0  0  0
    5.3496   -5.9881   22.5478 C   0  0  0  0  0  0  0  0  0  0  0  0
    4.9824   -7.1022   23.2829 C   0  0  0  0  0  0  0  0  0  0  0  0
    3.8101   -7.0510   24.0171 C   0  0  0  0  0  0  0  0  0  0  0  0
    3.0585   -5.8981   23.9856 C   0  0  0  0  0  0  0  0  0  0  0  0
    3.3991   -4.8183   23.2807 N   0  0  0  0  0  0  0  0  0  0  0  0
    4.5317   -4.8744   22.5740 C   0  0  0  0  0  0  0  0  0  0  0  0
  1  2  1  0
  2  3  2  0
  3  4  1  0
  4  5  2  0
  5  6  1  0
  6  7  2  0
  7  8  1  0
  8  9  2  0
  9 10  1  0
 10 11  1  0
 11 12  1  0
 12 13  1  0
 13 14  2  0
 14 15  1  0
 15 16  2  0
 16 17  1  0
 17 18  1  0
 18 19  1  0
 19 20  1  0
 20 21  1  0
 21 22  1  0
 22 23  2  0
 23 24  1  0
 24 25  2  0
 25 26  1  0
 26 27  2  0
 21 28  1  0
 19 29  1  0
 29 30  2  0
 29 31  1  0
 31 32  1  0
 10 33  2  0
 33 34  1  0
 34 35  1  0
 35 36  2  0
 35 37  2  0
 35 38  1  0
 38 39  2  0
 39 40  1  0
 40 41  2  0
 41 42  1  0
 42 43  2  0
  7  2  1  0
 34  8  1  0
 43 38  1  0
 28 13  1  0
 28 17  2  0
 27 22  1  0
M  END
