CVD-0000448|dock_bobby27042020.13|mol2|3|dock3
     RDKit          3D

 28 31  0  0  0  0  0  0  0  0999 V2000
   13.3481   -2.0870   20.7832 N   0  0  0  0  0  0  0  0  0  0  0  0
   13.0706   -1.3824   21.8720 C   0  0  0  0  0  0  0  0  0  0  0  0
   13.8673   -1.3336   22.8160 O   0  0  0  0  0  0  0  0  0  0  0  0
   11.7603   -0.6243   21.9668 C   0  0  0  0  0  0  0  0  0  0  0  0
   10.6105   -1.3735   21.8303 C   0  0  0  0  0  0  0  0  0  0  0  0
    9.3366   -0.8102   21.8689 C   0  0  0  0  0  0  0  0  0  0  0  0
    9.2031    0.5358   22.0927 C   0  0  0  0  0  0  0  0  0  0  0  0
   10.3364    1.3614   22.2539 C   0  0  0  0  0  0  0  0  0  0  0  0
   10.1455    2.6782   22.4679 N   0  0  0  0  0  0  0  0  0  0  0  0
   11.2322    3.4597   22.6123 C   0  0  0  0  0  0  0  0  0  0  0  0
   11.1011    4.8768   22.8421 C   0  0  0  0  0  0  0  0  0  0  0  0
   12.2455    5.6344   22.9826 C   0  0  0  0  0  0  0  0  0  0  0  0
   13.5035    5.0592   22.9070 C   0  0  0  0  0  0  0  0  0  0  0  0
   13.6661    3.7257   22.6918 C   0  0  0  0  0  0  0  0  0  0  0  0
   12.5365    2.8926   22.5395 C   0  0  0  0  0  0  0  0  0  0  0  0
   12.7265    1.5751   22.3282 N   0  0  0  0  0  0  0  0  0  0  0  0
   11.6396    0.7933   22.1866 C   0  0  0  0  0  0  0  0  0  0  0  0
    9.8064    5.6483   22.9493 C   0  0  0  0  0  0  0  0  0  0  0  0
    8.6793    4.9900   22.8290 O   0  0  0  0  0  0  0  0  0  0  0  0
    9.8035    6.8519   23.1427 O   0  0  0  0  0  0  0  0  0  0  0  0
    8.0860   -1.6143   21.6899 C   0  0  0  0  0  0  0  0  0  0  0  0
    7.1364   -1.0565   21.1611 O   0  0  0  0  0  0  0  0  0  0  0  0
    7.8922   -3.0416   22.0978 C   0  0  0  0  0  0  0  0  0  0  0  0
    8.6128   -3.6691   23.1119 C   0  0  0  0  0  0  0  0  0  0  0  0
    8.3667   -4.9910   23.4445 C   0  0  0  0  0  0  0  0  0  0  0  0
    7.4135   -5.7151   22.7628 C   0  0  0  0  0  0  0  0  0  0  0  0
    6.7053   -5.1174   21.7439 C   0  0  0  0  0  0  0  0  0  0  0  0
    6.9430   -3.7940   21.4131 C   0  0  0  0  0  0  0  0  0  0  0  0
  1  2  1  0
  2  3  2  0
  2  4  1  0
  4  5  2  0
  5  6  1  0
  6  7  2  0
  7  8  1  0
  8  9  2  0
  9 10  1  0
 10 11  2  0
 11 12  1  0
 12 13  2  0
 13 14  1  0
 14 15  2  0
 15 16  1  0
 16 17  2  0
 11 18  1  0
 18 19  1  0
 18 20  2  0
  6 21  1  0
 21 22  2  0
 21 23  1  0
 23 24  2  0
 24 25  1  0
 25 26  2  0
 26 27  1  0
 27 28  2  0
 17  4  1  0
 28 23  1  0
 17  8  1  0
 15 10  1  0
M  END
