CVD-0002009|dock_bobby27042020.22|mol2|5|dock1
     RDKit          3D

 19 21  0  0  0  0  0  0  0  0999 V2000
   13.8305   -1.9732   23.5907 C   0  0  0  0  0  0  0  0  0  0  0  0
   12.8811   -1.7599   22.4145 C   0  0  0  0  0  0  0  0  0  0  0  0
   13.6411   -1.8590   21.1057 C   0  0  0  0  0  0  0  0  0  0  0  0
   14.3758   -0.8056   20.8528 O   0  0  0  0  0  0  0  0  0  0  0  0
   13.5692   -2.8193   20.3708 O   0  0  0  0  0  0  0  0  0  0  0  0
   12.2014   -0.3984   22.4724 C   0  0  0  0  0  0  0  0  0  0  0  0
   10.8292   -0.2802   22.2910 C   0  0  0  0  0  0  0  0  0  0  0  0
   10.1522    0.8737   22.3281 N   0  0  0  0  0  0  0  0  0  0  0  0
   10.8796    1.9745   22.5596 C   0  0  0  0  0  0  0  0  0  0  0  0
   12.2700    1.9649   22.7572 C   0  0  0  0  0  0  0  0  0  0  0  0
   12.9446    0.7508   22.7126 C   0  0  0  0  0  0  0  0  0  0  0  0
   12.7192    3.2570   22.9714 N   0  0  0  0  0  0  0  0  0  0  0  0
   11.6332    4.1142   22.9154 C   0  0  0  0  0  0  0  0  0  0  0  0
   11.5331    5.4921   23.0609 C   0  0  0  0  0  0  0  0  0  0  0  0
   10.2812    6.0729   22.9492 C   0  0  0  0  0  0  0  0  0  0  0  0
    9.2078    5.2443   22.6995 C   0  0  0  0  0  0  0  0  0  0  0  0
    7.6246    5.9479   22.5547 Cl  0  0  0  0  0  0  0  0  0  0  0  0
    9.2455    3.9246   22.5519 N   0  0  0  0  0  0  0  0  0  0  0  0
   10.4635    3.3785   22.6629 C   0  0  0  0  0  0  0  0  0  0  0  0
  2  1  1  0
  2  3  1  0
  3  4  1  0
  3  5  2  0
  2  6  1  0
  6  7  2  0
  7  8  1  0
  8  9  2  0
  9 10  1  0
 10 11  2  0
 10 12  1  0
 12 13  1  0
 13 14  2  0
 14 15  1  0
 15 16  2  0
 16 17  1  0
 16 18  1  0
 18 19  2  0
 11  6  1  0
 19 13  1  0
 19  9  1  0
M  END
