CVD-0003380|dock_bobby27042020.74|mol2|8|dock3
     RDKit          3D

 20 22  0  0  0  0  0  0  0  0999 V2000
   14.5131   -1.9418   25.6735 C   0  0  0  0  0  0  0  0  0  0  0  0
   13.7112   -1.3280   24.6167 N   0  0  0  0  0  0  0  0  0  0  0  0
   12.3097   -1.2215   25.0328 C   0  0  0  0  0  0  0  0  0  0  0  0
   11.4899   -0.5464   23.9490 C   0  0  0  0  0  0  0  0  0  0  0  0
   11.5893   -1.2925   22.6927 N   0  0  0  0  0  0  0  0  0  0  0  0
   12.9851   -1.4683   22.2797 C   0  0  0  0  0  0  0  0  0  0  0  0
   13.7859   -2.1205   23.3921 C   0  0  0  0  0  0  0  0  0  0  0  0
   10.5090   -1.7241   22.0112 C   0  0  0  0  0  0  0  0  0  0  0  0
   10.6111   -2.3582   20.9686 O   0  0  0  0  0  0  0  0  0  0  0  0
    9.1439   -1.3865   22.5834 C   0  0  0  0  0  0  0  0  0  0  0  0
    7.9984   -1.8807   21.7492 C   0  0  0  0  0  0  0  0  0  0  0  0
    7.1568   -1.1573   20.9440 C   0  0  0  0  0  0  0  0  0  0  0  0
    7.1160    0.1510   20.6795 F   0  0  0  0  0  0  0  0  0  0  0  0
    6.2529   -1.9832   20.3629 N   0  0  0  0  0  0  0  0  0  0  0  0
    6.4880   -3.2646   20.7791 C   0  0  0  0  0  0  0  0  0  0  0  0
    5.8044   -4.3653   20.4239 N   0  0  0  0  0  0  0  0  0  0  0  0
    6.2232   -5.5180   20.9651 C   0  0  0  0  0  0  0  0  0  0  0  0
    7.2862   -5.6173   21.8380 C   0  0  0  0  0  0  0  0  0  0  0  0
    7.9791   -4.4701   22.1924 C   0  0  0  0  0  0  0  0  0  0  0  0
    7.5818   -3.2474   21.6562 C   0  0  0  0  0  0  0  0  0  0  0  0
  1  2  1  0
  2  3  1  0
  3  4  1  0
  4  5  1  0
  5  6  1  0
  6  7  1  0
  5  8  1  0
  8  9  2  0
  8 10  1  0
 10 11  1  0
 11 12  2  0
 12 13  1  0
 12 14  1  0
 14 15  1  0
 15 16  2  0
 16 17  1  0
 17 18  2  0
 18 19  1  0
 19 20  2  0
  7  2  1  0
 20 11  1  0
 20 15  1  0
M  END
