CVD-0000048|dock_bobby27042020.99|mol2|47|dock2
     RDKit          3D

 21 22  0  0  0  0  0  0  0  0999 V2000
    3.9180    1.3171   20.5450 C   0  0  0  0  0  0  0  0  0  0  0  0
    4.7669    1.0306   19.3340 C   0  0  0  0  0  0  0  0  0  0  0  0
    4.9704    2.0173   18.3743 C   0  0  0  0  0  0  0  0  0  0  0  0
    5.7521    1.7423   17.2724 C   0  0  0  0  0  0  0  0  0  0  0  0
    6.3394    0.5650   17.0634 N   0  0  0  0  0  0  0  0  0  0  0  0
    6.1536   -0.3914   17.9789 C   0  0  0  0  0  0  0  0  0  0  0  0
    5.3825   -0.2123   19.1243 C   0  0  0  0  0  0  0  0  0  0  0  0
    5.2220   -1.2733   20.0660 N   0  0  0  0  0  0  0  0  0  0  0  0
    5.8912   -2.7438   19.9140 S   0  0  0  0  0  0  0  0  0  0  0  0
    5.7427   -3.1347   18.5433 O   0  0  0  0  0  0  0  0  0  0  0  0
    5.3333   -3.5694   20.9440 O   0  0  0  0  0  0  0  0  0  0  0  0
    7.6103   -2.5755   20.2380 C   0  0  0  0  0  0  0  0  0  0  0  0
    8.1244   -1.3900   20.6098 C   0  0  0  0  0  0  0  0  0  0  0  0
    9.4641   -1.0944   20.9072 N   0  0  0  0  0  0  0  0  0  0  0  0
    9.9744   -0.3379   21.9166 C   0  0  0  0  0  0  0  0  0  0  0  0
    9.2766    0.2241   22.7582 O   0  0  0  0  0  0  0  0  0  0  0  0
   11.4425   -0.2037   21.9788 C   0  0  0  0  0  0  0  0  0  0  0  0
   12.4451   -1.0961   21.6641 C   0  0  0  0  0  0  0  0  0  0  0  0
   13.7247   -0.5306   21.8810 C   0  0  0  0  0  0  0  0  0  0  0  0
   13.6819    0.7320   22.3387 C   0  0  0  0  0  0  0  0  0  0  0  0
   12.0805    1.2915   22.5272 S   0  0  0  0  0  0  0  0  0  0  0  0
  1  2  1  0
  2  3  2  0
  3  4  1  0
  4  5  2  0
  5  6  1  0
  6  7  2  0
  7  8  1  0
  8  9  1  0
  9 10  2  0
  9 11  2  0
  9 12  1  0
 12 13  2  0
 13 14  1  0
 14 15  1  0
 15 16  2  0
 15 17  1  0
 17 18  2  0
 18 19  1  0
 19 20  2  0
 20 21  1  0
  7  2  1  0
 21 17  1  0
M  END
