CVD-0000888|dock_bobby27042020.68|mol2|45|dock1
     RDKit          3D

 28 31  0  0  0  0  0  0  0  0999 V2000
    4.3790    0.1356   18.6213 N   0  0  0  0  0  0  0  0  0  0  0  0
    5.7200   -0.7529   18.5530 S   0  0  0  0  0  0  0  0  0  0  0  0
    6.3799   -0.4138   17.3270 O   0  0  0  0  0  0  0  0  0  0  0  0
    5.3163   -2.1122   18.7608 O   0  0  0  0  0  0  0  0  0  0  0  0
    6.8195   -0.2764   19.8855 C   0  0  0  0  0  0  0  0  0  0  0  0
    7.1786    1.2025   19.7863 C   0  0  0  0  0  0  0  0  0  0  0  0
    7.9665    1.6152   21.0117 C   0  0  0  0  0  0  0  0  0  0  0  0
    9.0655    0.6485   21.3786 C   0  0  0  0  0  0  0  0  0  0  0  0
   10.0261    1.0330   22.3093 C   0  0  0  0  0  0  0  0  0  0  0  0
   11.0140    0.1670   22.7539 C   0  0  0  0  0  0  0  0  0  0  0  0
   11.0289   -1.1222   22.2419 C   0  0  0  0  0  0  0  0  0  0  0  0
   10.0811   -1.5209   21.3156 C   0  0  0  0  0  0  0  0  0  0  0  0
    9.0916   -0.6463   20.8734 C   0  0  0  0  0  0  0  0  0  0  0  0
    8.0932   -1.0934   19.8401 C   0  0  0  0  0  0  0  0  0  0  0  0
   12.0334    0.6093   23.7928 C   0  0  0  0  0  0  0  0  0  0  0  0
   11.5187    0.3343   25.1653 C   0  0  0  0  0  0  0  0  0  0  0  0
   10.3553    1.2016   25.4753 N   0  0  0  0  0  0  0  0  0  0  0  0
   10.4671    2.6361   25.1507 C   0  0  0  0  0  0  0  0  0  0  0  0
   11.7005    3.0342   24.3362 C   0  0  0  0  0  0  0  0  0  0  0  0
   12.0536    4.3750   24.2234 C   0  0  0  0  0  0  0  0  0  0  0  0
   13.1270    4.7629   23.4426 C   0  0  0  0  0  0  0  0  0  0  0  0
   13.8561    3.8081   22.7678 C   0  0  0  0  0  0  0  0  0  0  0  0
   13.5055    2.4747   22.8797 C   0  0  0  0  0  0  0  0  0  0  0  0
   12.4262    2.0588   23.6616 C   0  0  0  0  0  0  0  0  0  0  0  0
    9.1770    0.7743   25.9826 C   0  0  0  0  0  0  0  0  0  0  0  0
    8.2579    1.5523   26.2054 O   0  0  0  0  0  0  0  0  0  0  0  0
    9.0226   -0.7059   26.2772 C   0  0  0  0  0  0  0  0  0  0  0  0
    7.4602   -1.0357   27.0372 Cl  0  0  0  0  0  0  0  0  0  0  0  0
  1  2  1  0
  2  3  2  0
  2  4  2  0
  2  5  1  0
  5  6  1  0
  6  7  1  0
  7  8  1  0
  8  9  2  0
  9 10  1  0
 10 11  2  0
 11 12  1  0
 12 13  2  0
 13 14  1  0
 10 15  1  0
 15 16  1  0
 16 17  1  0
 17 18  1  0
 18 19  1  0
 19 20  2  0
 20 21  1  0
 21 22  2  0
 22 23  1  0
 23 24  2  0
 17 25  1  0
 25 26  2  0
 25 27  1  0
 27 28  1  0
 14  5  1  0
 24 15  1  0
 13  8  1  0
 24 19  1  0
M  END
