CVD-0001098|dock_bobby27042020.96|mol2|25|dock2
     RDKit          3D

 20 22  0  0  0  0  0  0  0  0999 V2000
   14.2926    4.2942   22.5168 N   0  0  0  0  0  0  0  0  0  0  0  0
   13.0402    4.1405   22.1168 C   0  0  0  0  0  0  0  0  0  0  0  0
   12.6076    4.6495   21.0804 O   0  0  0  0  0  0  0  0  0  0  0  0
   12.1458    3.2934   22.9993 C   0  0  0  0  0  0  0  0  0  0  0  0
   12.6652    1.8622   23.2625 C   0  0  0  0  0  0  0  0  0  0  0  0
   11.6000    0.9751   22.7935 N   0  0  0  0  0  0  0  0  0  0  0  0
   10.3582    1.7423   22.9386 C   0  0  0  0  0  0  0  0  0  0  0  0
   10.7708    3.0751   22.3568 C   0  0  0  0  0  0  0  0  0  0  0  0
    9.8091    4.2271   22.5686 C   0  0  0  0  0  0  0  0  0  0  0  0
    8.4406    4.0455   22.4251 C   0  0  0  0  0  0  0  0  0  0  0  0
    7.5623    5.0991   22.6158 C   0  0  0  0  0  0  0  0  0  0  0  0
    8.0409    6.3475   22.9513 C   0  0  0  0  0  0  0  0  0  0  0  0
    9.3976    6.5429   23.0961 C   0  0  0  0  0  0  0  0  0  0  0  0
   10.2765    5.4897   22.9056 C   0  0  0  0  0  0  0  0  0  0  0  0
   11.6206   -0.3986   23.3397 C   0  0  0  0  0  0  0  0  0  0  0  0
   10.6485   -1.2922   22.5790 C   0  0  0  0  0  0  0  0  0  0  0  0
   10.7015   -2.6953   23.1715 C   0  0  0  0  0  0  0  0  0  0  0  0
   12.0099   -3.2306   23.1338 O   0  0  0  0  0  0  0  0  0  0  0  0
   12.9155   -2.4369   23.9005 C   0  0  0  0  0  0  0  0  0  0  0  0
   13.0138   -1.0135   23.3523 C   0  0  0  0  0  0  0  0  0  0  0  0
  1  2  1  0
  2  3  2  0
  4  2  1  0
  4  5  1  0
  5  6  1  0
  6  7  1  0
  7  8  1  0
  8  9  1  0
  9 10  2  0
 10 11  1  0
 11 12  2  0
 12 13  1  0
 13 14  2  0
  6 15  1  0
 15 16  1  0
 16 17  1  0
 17 18  1  0
 18 19  1  0
 19 20  1  0
  8  4  1  0
 14  9  1  0
 20 15  1  0
M  END
