CVD-0001265|dock_bobby27042020.95|mol2|47|dock3
     RDKit          3D

 28 31  0  0  0  0  0  0  0  0999 V2000
    7.2396    6.9594   22.0036 O   0  0  0  0  0  0  0  0  0  0  0  0
    6.8251    5.7285   22.1529 C   0  0  0  0  0  0  0  0  0  0  0  0
    5.6389    5.4703   22.2439 O   0  0  0  0  0  0  0  0  0  0  0  0
    7.8863    4.6829   22.2036 C   0  0  0  0  0  0  0  0  0  0  0  0
    9.2052    5.0679   22.2885 C   0  0  0  0  0  0  0  0  0  0  0  0
   10.2721    4.2329   22.3537 N   0  0  0  0  0  0  0  0  0  0  0  0
   11.5659    4.8624   22.3919 C   0  0  0  0  0  0  0  0  0  0  0  0
   11.8961    5.8130   23.3516 C   0  0  0  0  0  0  0  0  0  0  0  0
   13.1499    6.3974   23.3744 C   0  0  0  0  0  0  0  0  0  0  0  0
   14.0632    6.0169   22.4308 C   0  0  0  0  0  0  0  0  0  0  0  0
   15.2971    6.5894   22.4481 F   0  0  0  0  0  0  0  0  0  0  0  0
   13.7862    5.0840   21.4703 C   0  0  0  0  0  0  0  0  0  0  0  0
   12.5294    4.5054   21.4562 C   0  0  0  0  0  0  0  0  0  0  0  0
   10.0456    2.8301   22.3747 C   0  0  0  0  0  0  0  0  0  0  0  0
   11.0774    1.9078   22.5578 C   0  0  0  0  0  0  0  0  0  0  0  0
   10.8745    0.5300   22.5008 C   0  0  0  0  0  0  0  0  0  0  0  0
   11.9480   -0.3802   22.6874 N   0  0  0  0  0  0  0  0  0  0  0  0
   12.7386   -0.4494   23.9265 C   0  0  0  0  0  0  0  0  0  0  0  0
   14.2115   -0.6420   23.6121 C   0  0  0  0  0  0  0  0  0  0  0  0
   14.4024   -1.8381   22.7959 N   0  0  0  0  0  0  0  0  0  0  0  0
   13.7040   -1.6531   21.5307 C   0  0  0  0  0  0  0  0  0  0  0  0
   12.2182   -1.5002   21.7775 C   0  0  0  0  0  0  0  0  0  0  0  0
    9.5492    0.1158   22.2478 C   0  0  0  0  0  0  0  0  0  0  0  0
    9.2562   -1.1941   22.0787 F   0  0  0  0  0  0  0  0  0  0  0  0
    8.5033    0.9933   22.1481 C   0  0  0  0  0  0  0  0  0  0  0  0
    8.7291    2.3647   22.2264 C   0  0  0  0  0  0  0  0  0  0  0  0
    7.5718    3.2795   22.1559 C   0  0  0  0  0  0  0  0  0  0  0  0
    6.4341    2.8314   22.0614 O   0  0  0  0  0  0  0  0  0  0  0  0
  1  2  1  0
  2  3  2  0
  2  4  1  0
  4  5  2  0
  5  6  1  0
  6  7  1  0
  7  8  2  0
  8  9  1  0
  9 10  2  0
 10 11  1  0
 10 12  1  0
 12 13  2  0
  6 14  1  0
 14 15  2  0
 15 16  1  0
 16 17  1  0
 17 18  1  0
 18 19  1  0
 19 20  1  0
 20 21  1  0
 21 22  1  0
 16 23  2  0
 23 24  1  0
 23 25  1  0
 25 26  2  0
 26 27  1  0
 27 28  2  0
 27  4  1  0
 13  7  1  0
 26 14  1  0
 22 17  1  0
M  END
