CVD-0000626|dock_bobby27042020.55|mol2|23|dock2
     RDKit          3D

 24 26  0  0  0  0  0  0  0  0999 V2000
   14.2161    3.8109   22.4479 N   0  0  0  0  0  0  0  0  0  0  0  0
   12.6934    4.1400   22.0785 S   0  0  0  0  0  0  0  0  0  0  0  0
   12.3730    5.3975   22.6844 O   0  0  0  0  0  0  0  0  0  0  0  0
   12.5631    4.0030   20.6589 O   0  0  0  0  0  0  0  0  0  0  0  0
   11.6593    2.9162   22.8240 C   0  0  0  0  0  0  0  0  0  0  0  0
   10.5207    3.3076   23.5084 C   0  0  0  0  0  0  0  0  0  0  0  0
    9.7189    2.3369   24.0826 C   0  0  0  0  0  0  0  0  0  0  0  0
   10.0568    0.9995   23.9681 C   0  0  0  0  0  0  0  0  0  0  0  0
   11.1970    0.6016   23.2802 C   0  0  0  0  0  0  0  0  0  0  0  0
   12.0028    1.5776   22.7037 C   0  0  0  0  0  0  0  0  0  0  0  0
   11.5668   -0.8777   23.1569 C   0  0  0  0  0  0  0  0  0  0  0  0
   10.9204   -1.4791   21.8772 C   0  0  0  0  0  0  0  0  0  0  0  0
    9.4791   -1.0795   21.6413 C   0  0  0  0  0  0  0  0  0  0  0  0
    8.7354   -0.8063   22.5777 O   0  0  0  0  0  0  0  0  0  0  0  0
    9.1294   -1.0619   20.3322 N   0  0  0  0  0  0  0  0  0  0  0  0
    7.9147   -0.7039   19.6968 C   0  0  0  0  0  0  0  0  0  0  0  0
    6.7518   -0.3625   20.3801 C   0  0  0  0  0  0  0  0  0  0  0  0
    5.6177   -0.0281   19.6604 C   0  0  0  0  0  0  0  0  0  0  0  0
    5.6749   -0.0435   18.2858 C   0  0  0  0  0  0  0  0  0  0  0  0
    6.7739   -0.3661   17.6040 N   0  0  0  0  0  0  0  0  0  0  0  0
    7.8633   -0.6873   18.3077 C   0  0  0  0  0  0  0  0  0  0  0  0
   13.0806   -1.1811   23.2874 C   0  0  0  0  0  0  0  0  0  0  0  0
   12.8402   -1.7466   24.6959 C   0  0  0  0  0  0  0  0  0  0  0  0
   11.3325   -1.6042   24.4989 C   0  0  0  0  0  0  0  0  0  0  0  0
  1  2  1  0
  2  3  2  0
  2  4  2  0
  2  5  1  0
  5  6  2  0
  6  7  1  0
  7  8  2  0
  8  9  1  0
  9 10  2  0
  9 11  1  0
 11 12  1  0
 12 13  1  0
 13 14  2  0
 13 15  1  0
 15 16  1  0
 16 17  2  0
 17 18  1  0
 18 19  2  0
 19 20  1  0
 20 21  2  0
 11 22  1  0
 22 23  1  0
 23 24  1  0
 10  5  1  0
 24 11  1  0
 21 16  1  0
M  END
