CVD-0000987|dock_bobby27042020.11|mol2|13|dock3
     RDKit          3D

 34 38  0  0  0  0  0  0  0  0999 V2000
    4.2751   -7.7944   34.5571 C   0  0  0  0  0  0  0  0  0  0  0  0
    5.2280   -8.5887   33.8530 O   0  0  0  0  0  0  0  0  0  0  0  0
    5.8097   -8.1163   32.7028 C   0  0  0  0  0  0  0  0  0  0  0  0
    5.5814   -6.8303   32.2412 C   0  0  0  0  0  0  0  0  0  0  0  0
    6.1917   -6.4021   31.0762 C   0  0  0  0  0  0  0  0  0  0  0  0
    7.0417   -7.2293   30.3369 C   0  0  0  0  0  0  0  0  0  0  0  0
    7.6395   -6.6660   29.1067 C   0  0  0  0  0  0  0  0  0  0  0  0
    8.2853   -7.2995   28.1698 N   0  0  0  0  0  0  0  0  0  0  0  0
    8.6306   -6.3146   27.2508 C   0  0  0  0  0  0  0  0  0  0  0  0
    9.3242   -6.3599   26.0441 C   0  0  0  0  0  0  0  0  0  0  0  0
    9.5202   -5.1879   25.3289 C   0  0  0  0  0  0  0  0  0  0  0  0
    9.0347   -3.9638   25.7970 C   0  0  0  0  0  0  0  0  0  0  0  0
    9.2111   -2.7418   25.1007 N   0  0  0  0  0  0  0  0  0  0  0  0
   10.0730   -2.3880   24.1152 C   0  0  0  0  0  0  0  0  0  0  0  0
   10.9220   -3.1141   23.6069 O   0  0  0  0  0  0  0  0  0  0  0  0
    9.9088   -0.9547   23.6570 C   0  0  0  0  0  0  0  0  0  0  0  0
   10.4757    0.0501   24.6569 C   0  0  0  0  0  0  0  0  0  0  0  0
   10.2225    1.4611   24.1548 C   0  0  0  0  0  0  0  0  0  0  0  0
   10.8530    1.6717   22.8557 N   0  0  0  0  0  0  0  0  0  0  0  0
   10.6854    3.0667   22.4168 C   0  0  0  0  0  0  0  0  0  0  0  0
   11.3562    4.0924   23.3014 C   0  0  0  0  0  0  0  0  0  0  0  0
   12.6931    4.4184   23.1285 C   0  0  0  0  0  0  0  0  0  0  0  0
   13.3071    5.3539   23.9445 C   0  0  0  0  0  0  0  0  0  0  0  0
   12.5919    5.9745   24.9458 C   0  0  0  0  0  0  0  0  0  0  0  0
   11.2633    5.6586   25.1312 C   0  0  0  0  0  0  0  0  0  0  0  0
   10.6502    4.7230   24.3147 C   0  0  0  0  0  0  0  0  0  0  0  0
   10.2557    0.7470   21.8860 C   0  0  0  0  0  0  0  0  0  0  0  0
   10.5047   -0.7004   22.2803 C   0  0  0  0  0  0  0  0  0  0  0  0
    8.3418   -3.9248   27.0045 C   0  0  0  0  0  0  0  0  0  0  0  0
    8.1610   -5.1061   27.6959 C   0  0  0  0  0  0  0  0  0  0  0  0
    7.5153   -5.3120   28.8977 O   0  0  0  0  0  0  0  0  0  0  0  0
    7.2513   -8.5193   30.8285 C   0  0  0  0  0  0  0  0  0  0  0  0
    8.3705   -9.7830   29.9635 Br  0  0  0  0  0  0  0  0  0  0  0  0
    6.6467   -8.9588   31.9922 C   0  0  0  0  0  0  0  0  0  0  0  0
  1  2  1  0
  2  3  1  0
  3  4  2  0
  4  5  1  0
  5  6  2  0
  6  7  1  0
  7  8  2  0
  8  9  1  0
  9 10  2  0
 10 11  1  0
 11 12  2  0
 12 13  1  0
 13 14  1  0
 14 15  2  0
 14 16  1  0
 16 17  1  0
 17 18  1  0
 18 19  1  0
 19 20  1  0
 20 21  1  0
 21 22  2  0
 22 23  1  0
 23 24  2  0
 24 25  1  0
 25 26  2  0
 19 27  1  0
 27 28  1  0
 12 29  1  0
 29 30  2  0
 30 31  1  0
  6 32  1  0
 32 33  1  0
 32 34  2  0
 34  3  1  0
 31  7  1  0
 30  9  1  0
 28 16  1  0
 26 21  1  0
M  END
