CVD-0000826|dock_bobby27042020.11|mol2|38|dock2
     RDKit          3D

 26 28  0  0  0  0  0  0  0  0999 V2000
   13.0366    5.3404   21.6132 N   0  0  0  0  0  0  0  0  0  0  0  0
   13.4282    4.4684   22.8975 S   0  0  0  0  0  0  0  0  0  0  0  0
   12.9403    5.1671   24.0486 O   0  0  0  0  0  0  0  0  0  0  0  0
   14.8284    4.1822   22.8041 O   0  0  0  0  0  0  0  0  0  0  0  0
   12.5677    2.9274   22.8115 C   0  0  0  0  0  0  0  0  0  0  0  0
   11.1837    2.9230   22.7481 C   0  0  0  0  0  0  0  0  0  0  0  0
   10.5063    1.7432   22.6875 C   0  0  0  0  0  0  0  0  0  0  0  0
   11.1856    0.4965   22.6922 C   0  0  0  0  0  0  0  0  0  0  0  0
   10.5086   -0.7546   22.6362 C   0  0  0  0  0  0  0  0  0  0  0  0
    8.9954   -0.7925   22.5828 C   0  0  0  0  0  0  0  0  0  0  0  0
    8.4082   -0.0321   21.4694 N   0  0  0  0  0  0  0  0  0  0  0  0
    8.1787   -0.9069   20.3158 C   0  0  0  0  0  0  0  0  0  0  0  0
    7.6112   -0.1092   19.1564 C   0  0  0  0  0  0  0  0  0  0  0  0
    6.3628    0.5476   19.5498 N   0  0  0  0  0  0  0  0  0  0  0  0
    6.5461    1.3848   20.7394 C   0  0  0  0  0  0  0  0  0  0  0  0
    7.1390    0.5677   21.8728 C   0  0  0  0  0  0  0  0  0  0  0  0
    5.2068    0.4010   18.8598 C   0  0  0  0  0  0  0  0  0  0  0  0
    5.1474   -0.2936   17.8529 O   0  0  0  0  0  0  0  0  0  0  0  0
    3.9665    1.1142   19.3638 C   0  0  0  0  0  0  0  0  0  0  0  0
    4.1560    2.8690   19.2555 Cl  0  0  0  0  0  0  0  0  0  0  0  0
   11.2503   -1.9152   22.6349 C   0  0  0  0  0  0  0  0  0  0  0  0
   12.6208   -1.8605   22.6935 C   0  0  0  0  0  0  0  0  0  0  0  0
   13.3038   -3.0370   22.6896 F   0  0  0  0  0  0  0  0  0  0  0  0
   13.3221   -0.7038   22.7548 C   0  0  0  0  0  0  0  0  0  0  0  0
   12.6106    0.5181   22.7554 C   0  0  0  0  0  0  0  0  0  0  0  0
   13.2774    1.7634   22.8167 C   0  0  0  0  0  0  0  0  0  0  0  0
  1  2  1  0
  2  3  2  0
  2  4  2  0
  2  5  1  0
  5  6  2  0
  6  7  1  0
  7  8  2  0
  8  9  1  0
  9 10  1  0
 10 11  1  0
 11 12  1  0
 12 13  1  0
 13 14  1  0
 14 15  1  0
 15 16  1  0
 14 17  1  0
 17 18  2  0
 17 19  1  0
 19 20  1  0
  9 21  2  0
 21 22  1  0
 22 23  1  0
 22 24  2  0
 24 25  1  0
 25 26  2  0
 26  5  1  0
 25  8  1  0
 16 11  1  0
M  END
