CVD-0001342|dock_bobby27042020.38|mol2|27|dock3
     RDKit          3D

 29 31  0  0  0  0  0  0  0  0999 V2000
   13.8358   -1.6538   20.3953 N   0  0  0  0  0  0  0  0  0  0  0  0
   13.3828   -1.3964   21.7689 C   0  0  0  0  0  0  0  0  0  0  0  0
   12.2257   -0.4698   21.9416 C   0  0  0  0  0  0  0  0  0  0  0  0
   12.1017    0.6463   22.7148 C   0  0  0  0  0  0  0  0  0  0  0  0
   10.7847    1.1776   22.5228 C   0  0  0  0  0  0  0  0  0  0  0  0
   10.0561    2.2761   23.0140 C   0  0  0  0  0  0  0  0  0  0  0  0
   10.6670    3.1167   23.9111 N   0  0  0  0  0  0  0  0  0  0  0  0
   10.3732    4.5308   24.0385 C   0  0  0  0  0  0  0  0  0  0  0  0
   11.5895    5.3388   24.3437 C   0  0  0  0  0  0  0  0  0  0  0  0
   11.6834    5.9487   25.3897 O   0  0  0  0  0  0  0  0  0  0  0  0
   12.6268    5.3749   23.3601 C   0  0  0  0  0  0  0  0  0  0  0  0
   13.4793    5.4400   22.5499 C   0  0  0  0  0  0  0  0  0  0  0  0
    8.7474    2.4900   22.5886 C   0  0  0  0  0  0  0  0  0  0  0  0
    8.1490    1.6296   21.6835 C   0  0  0  0  0  0  0  0  0  0  0  0
    8.8408    0.5314   21.1780 C   0  0  0  0  0  0  0  0  0  0  0  0
    8.2703   -0.3370   20.2809 N   0  0  0  0  0  0  0  0  0  0  0  0
    7.2359    0.0383   19.3312 C   0  0  0  0  0  0  0  0  0  0  0  0
    5.8620   -0.3926   19.8044 C   0  0  0  0  0  0  0  0  0  0  0  0
    5.7211   -1.8942   19.8605 C   0  0  0  0  0  0  0  0  0  0  0  0
    5.2923   -2.5224   18.8984 O   0  0  0  0  0  0  0  0  0  0  0  0
    6.1077   -2.4297   21.0438 N   0  0  0  0  0  0  0  0  0  0  0  0
    6.1350   -3.7707   21.5012 C   0  0  0  0  0  0  0  0  0  0  0  0
    6.1271   -4.0146   22.8684 C   0  0  0  0  0  0  0  0  0  0  0  0
    6.1534   -5.3180   23.3321 C   0  0  0  0  0  0  0  0  0  0  0  0
    6.1867   -6.3423   22.4148 C   0  0  0  0  0  0  0  0  0  0  0  0
    6.1952   -6.1415   21.0969 N   0  0  0  0  0  0  0  0  0  0  0  0
    6.1697   -4.8792   20.6581 C   0  0  0  0  0  0  0  0  0  0  0  0
   10.1584    0.3138   21.6030 C   0  0  0  0  0  0  0  0  0  0  0  0
   11.0505   -0.6784   21.2635 N   0  0  0  0  0  0  0  0  0  0  0  0
  1  2  1  0
  2  3  1  0
  3  4  2  0
  4  5  1  0
  5  6  2  0
  6  7  1  0
  7  8  1  0
  8  9  1  0
  9 10  2  0
  9 11  1  0
 11 12  3  0
  6 13  1  0
 13 14  2  0
 14 15  1  0
 15 16  1  0
 16 17  1  0
 17 18  1  0
 18 19  1  0
 19 20  2  0
 19 21  1  0
 21 22  1  0
 22 23  2  0
 23 24  1  0
 24 25  2  0
 25 26  1  0
 26 27  2  0
 15 28  2  0
 28 29  1  0
 29  3  1  0
 28  5  1  0
 27 22  1  0
M  END
