CVD-0002375|dock_bobby27042020.34|mol2|31|dock2
     RDKit          3D

 38 42  0  0  0  0  0  0  0  0999 V2000
    8.3918    6.4587   22.6379 C   0  0  0  0  0  0  0  0  0  0  0  0
    8.6362    5.0263   22.7564 N   0  0  0  0  0  0  0  0  0  0  0  0
    7.4134    4.2356   22.7206 C   0  0  0  0  0  0  0  0  0  0  0  0
    7.6802    2.7786   23.0340 C   0  0  0  0  0  0  0  0  0  0  0  0
    8.8948    2.2052   22.3073 C   0  0  0  0  0  0  0  0  0  0  0  0
   10.0910    3.0856   22.5287 C   0  0  0  0  0  0  0  0  0  0  0  0
   11.3780    2.5583   22.5241 C   0  0  0  0  0  0  0  0  0  0  0  0
   12.4826    3.3650   22.7146 C   0  0  0  0  0  0  0  0  0  0  0  0
   12.2971    4.7214   22.9131 C   0  0  0  0  0  0  0  0  0  0  0  0
   11.0284    5.2827   22.9240 C   0  0  0  0  0  0  0  0  0  0  0  0
    9.9132    4.4668   22.7314 C   0  0  0  0  0  0  0  0  0  0  0  0
   13.7021    5.7690   23.1402 S   0  0  0  0  0  0  0  0  0  0  0  0
   14.1882    6.2840   21.7044 N   0  0  0  0  0  0  0  0  0  0  0  0
   13.2649    6.9173   23.8761 O   0  0  0  0  0  0  0  0  0  0  0  0
   14.7550    4.9616   23.6793 O   0  0  0  0  0  0  0  0  0  0  0  0
    7.8910    2.5601   24.4767 N   0  0  0  0  0  0  0  0  0  0  0  0
    6.9361    1.6411   25.0858 C   0  0  0  0  0  0  0  0  0  0  0  0
    7.2809    0.2046   24.7926 C   0  0  0  0  0  0  0  0  0  0  0  0
    7.6194   -0.7626   25.7553 C   0  0  0  0  0  0  0  0  0  0  0  0
    7.8726   -1.9741   25.1403 C   0  0  0  0  0  0  0  0  0  0  0  0
    8.2521   -3.2235   25.8446 C   0  0  0  0  0  0  0  0  0  0  0  0
    9.3739   -3.8963   25.3565 C   0  0  0  0  0  0  0  0  0  0  0  0
    9.7849   -5.0972   25.9099 C   0  0  0  0  0  0  0  0  0  0  0  0
    9.0931   -5.6513   26.9633 C   0  0  0  0  0  0  0  0  0  0  0  0
    7.9988   -4.9920   27.4932 C   0  0  0  0  0  0  0  0  0  0  0  0
    7.6220   -3.7885   26.9454 C   0  0  0  0  0  0  0  0  0  0  0  0
    6.5959   -3.1475   27.5443 F   0  0  0  0  0  0  0  0  0  0  0  0
    7.7077   -1.7452   23.7452 N   0  0  0  0  0  0  0  0  0  0  0  0
    7.3431   -0.4180   23.5547 C   0  0  0  0  0  0  0  0  0  0  0  0
    7.8877   -2.7409   22.3827 S   0  0  0  0  0  0  0  0  0  0  0  0
    7.0716   -3.8836   22.6528 O   0  0  0  0  0  0  0  0  0  0  0  0
    9.2890   -2.9252   22.1654 O   0  0  0  0  0  0  0  0  0  0  0  0
    7.1629   -1.8925   21.0219 C   0  0  0  0  0  0  0  0  0  0  0  0
    7.9623   -1.2621   20.0839 C   0  0  0  0  0  0  0  0  0  0  0  0
    7.3505   -0.6100   19.0272 C   0  0  0  0  0  0  0  0  0  0  0  0
    5.9759   -0.6158   18.9518 C   0  0  0  0  0  0  0  0  0  0  0  0
    5.1937   -1.2200   19.8473 N   0  0  0  0  0  0  0  0  0  0  0  0
    5.7907   -1.8478   20.8647 C   0  0  0  0  0  0  0  0  0  0  0  0
  1  2  1  0
  2  3  1  0
  3  4  1  0
  4  5  1  0
  5  6  1  0
  6  7  2  0
  7  8  1  0
  8  9  2  0
  9 10  1  0
 10 11  2  0
  9 12  1  0
 12 13  1  0
 12 14  2  0
 12 15  2  0
  4 16  1  0
 16 17  1  0
 17 18  1  0
 18 19  1  0
 19 20  2  0
 20 21  1  0
 21 22  2  0
 22 23  1  0
 23 24  2  0
 24 25  1  0
 25 26  2  0
 26 27  1  0
 20 28  1  0
 28 29  1  0
 28 30  1  0
 30 31  2  0
 30 32  2  0
 30 33  1  0
 33 34  2  0
 34 35  1  0
 35 36  2  0
 36 37  1  0
 37 38  2  0
 11  2  1  0
 29 18  2  0
 38 33  1  0
 11  6  1  0
 26 21  1  0
M  END
