CVD-0001154|dock_bobby27042020.53|mol2|33|dock1
     RDKit          3D

 24 27  0  0  0  0  0  0  0  0999 V2000
    9.5039   -5.0989   27.0831 C   0  0  0  0  0  0  0  0  0  0  0  0
    9.2794   -4.2191   25.9561 O   0  0  0  0  0  0  0  0  0  0  0  0
   10.1026   -4.3770   24.9231 C   0  0  0  0  0  0  0  0  0  0  0  0
   10.9353   -5.2430   24.8506 O   0  0  0  0  0  0  0  0  0  0  0  0
    9.8568   -3.3283   23.8517 C   0  0  0  0  0  0  0  0  0  0  0  0
    8.5933   -3.5881   23.0285 C   0  0  0  0  0  0  0  0  0  0  0  0
    8.4274   -2.4545   22.0588 C   0  0  0  0  0  0  0  0  0  0  0  0
    9.0384   -1.2639   22.2589 C   0  0  0  0  0  0  0  0  0  0  0  0
    8.7141   -0.3795   21.2494 N   0  0  0  0  0  0  0  0  0  0  0  0
    7.8639   -1.0292   20.3710 C   0  0  0  0  0  0  0  0  0  0  0  0
    7.2539   -0.5876   19.2016 C   0  0  0  0  0  0  0  0  0  0  0  0
    6.4354   -1.4631   18.5064 C   0  0  0  0  0  0  0  0  0  0  0  0
    6.2274   -2.7490   18.9627 C   0  0  0  0  0  0  0  0  0  0  0  0
    6.8321   -3.1948   20.1268 C   0  0  0  0  0  0  0  0  0  0  0  0
    7.6619   -2.3400   20.8512 C   0  0  0  0  0  0  0  0  0  0  0  0
    9.9025   -0.9233   23.4284 C   0  0  0  0  0  0  0  0  0  0  0  0
    9.8713   -1.9843   24.4570 N   0  0  0  0  0  0  0  0  0  0  0  0
   11.3501   -0.6008   23.0666 C   0  0  0  0  0  0  0  0  0  0  0  0
   11.9766   -1.1728   21.9578 C   0  0  0  0  0  0  0  0  0  0  0  0
   13.2855   -0.8654   21.6265 C   0  0  0  0  0  0  0  0  0  0  0  0
   14.0055    0.0182   22.4000 C   0  0  0  0  0  0  0  0  0  0  0  0
   13.4195    0.5946   23.5131 C   0  0  0  0  0  0  0  0  0  0  0  0
   12.1104    0.2776   23.8343 C   0  0  0  0  0  0  0  0  0  0  0  0
   11.4301    1.0161   25.2474 Cl  0  0  0  0  0  0  0  0  0  0  0  0
  1  2  1  0
  2  3  1  0
  3  4  2  0
  5  3  1  0
  5  6  1  0
  6  7  1  0
  7  8  2  0
  8  9  1  0
  9 10  1  0
 10 11  2  0
 11 12  1  0
 12 13  2  0
 13 14  1  0
 14 15  2  0
  8 16  1  0
 16 17  1  0
 16 18  1  0
 18 19  2  0
 19 20  1  0
 20 21  2  0
 21 22  1  0
 22 23  2  0
 23 24  1  0
 17  5  1  0
 23 18  1  0
 15  7  1  0
 15 10  1  0
M  END
