CVD-0001610|dock_bobby27042020.9|mol2|13|dock1
     RDKit          3D

 18 19  0  0  0  0  0  0  0  0999 V2000
    5.2894    1.9950   17.4416 Br  0  0  0  0  0  0  0  0  0  0  0  0
    5.6615    0.4436   18.4201 C   0  0  0  0  0  0  0  0  0  0  0  0
    5.3296   -0.8193   18.0975 C   0  0  0  0  0  0  0  0  0  0  0  0
    5.7642   -1.7335   19.0543 C   0  0  0  0  0  0  0  0  0  0  0  0
    6.4253   -1.1641   20.1210 C   0  0  0  0  0  0  0  0  0  0  0  0
    6.5159    0.5555   19.9027 S   0  0  0  0  0  0  0  0  0  0  0  0
    7.0177   -1.8765   21.2889 C   0  0  0  0  0  0  0  0  0  0  0  0
    6.3258   -2.7807   21.7430 O   0  0  0  0  0  0  0  0  0  0  0  0
    8.2172   -1.5931   21.8458 N   0  0  0  0  0  0  0  0  0  0  0  0
    8.6511   -1.9972   23.1820 C   0  0  0  0  0  0  0  0  0  0  0  0
    9.1295   -0.7929   23.9645 C   0  0  0  0  0  0  0  0  0  0  0  0
   10.1639   -0.0844   23.2139 N   0  0  0  0  0  0  0  0  0  0  0  0
    9.7301    0.3196   21.8778 C   0  0  0  0  0  0  0  0  0  0  0  0
    9.2517   -0.8847   21.0952 C   0  0  0  0  0  0  0  0  0  0  0  0
   11.3705    0.2007   23.7741 C   0  0  0  0  0  0  0  0  0  0  0  0
   11.5781   -0.1425   24.9369 O   0  0  0  0  0  0  0  0  0  0  0  0
   12.4802    0.9164   23.0715 C   0  0  0  0  0  0  0  0  0  0  0  0
   13.7423    0.5729   23.1034 C   0  0  0  0  0  0  0  0  0  0  0  0
  1  2  1  0
  2  3  2  0
  3  4  1  0
  4  5  2  0
  5  6  1  0
  5  7  1  0
  7  8  2  0
  7  9  1  0
  9 10  1  0
 10 11  1  0
 11 12  1  0
 12 13  1  0
 13 14  1  0
 12 15  1  0
 15 16  2  0
 15 17  1  0
 17 18  2  0
  6  2  1  0
 14  9  1  0
M  END
