CVD-0000245|dock_bobby27042020.42|mol2|17|dock3
     RDKit          3D

 25 27  0  0  0  0  0  0  0  0999 V2000
    8.7302   -3.2501   21.1306 O   0  0  0  0  0  0  0  0  0  0  0  0
    8.8214   -3.4342   22.3405 C   0  0  0  0  0  0  0  0  0  0  0  0
    7.8473   -4.3150   23.0840 C   0  0  0  0  0  0  0  0  0  0  0  0
    6.7941   -4.9155   22.1706 C   0  0  0  0  0  0  0  0  0  0  0  0
    5.6645   -5.5741   22.8996 C   0  0  0  0  0  0  0  0  0  0  0  0
    5.3599   -6.8708   23.1453 C   0  0  0  0  0  0  0  0  0  0  0  0
    4.2123   -6.8672   23.8564 N   0  0  0  0  0  0  0  0  0  0  0  0
    3.7742   -5.6643   24.0750 N   0  0  0  0  0  0  0  0  0  0  0  0
    4.6793   -4.8595   23.4788 N   0  0  0  0  0  0  0  0  0  0  0  0
    9.7790   -2.8756   23.0839 N   0  0  0  0  0  0  0  0  0  0  0  0
   10.8076   -1.9950   22.5356 C   0  0  0  0  0  0  0  0  0  0  0  0
   10.1711   -0.6559   22.1496 C   0  0  0  0  0  0  0  0  0  0  0  0
    9.2786   -0.7802   21.0043 N   0  0  0  0  0  0  0  0  0  0  0  0
    8.0148   -0.3575   21.0267 C   0  0  0  0  0  0  0  0  0  0  0  0
    7.5098    0.1681   22.0152 O   0  0  0  0  0  0  0  0  0  0  0  0
    7.2309   -0.5657   19.7486 C   0  0  0  0  0  0  0  0  0  0  0  0
    5.8667    0.1106   19.5572 C   0  0  0  0  0  0  0  0  0  0  0  0
    6.2236    0.2609   18.0732 C   0  0  0  0  0  0  0  0  0  0  0  0
    7.7053    0.0302   18.4184 C   0  0  0  0  0  0  0  0  0  0  0  0
   11.9463   -1.7900   23.5167 C   0  0  0  0  0  0  0  0  0  0  0  0
   13.1844   -2.3834   23.3083 C   0  0  0  0  0  0  0  0  0  0  0  0
   14.2194   -2.1981   24.2098 C   0  0  0  0  0  0  0  0  0  0  0  0
   14.0315   -1.4175   25.3299 C   0  0  0  0  0  0  0  0  0  0  0  0
   12.8086   -0.8212   25.5495 C   0  0  0  0  0  0  0  0  0  0  0  0
   11.7727   -1.0057   24.6489 C   0  0  0  0  0  0  0  0  0  0  0  0
  1  2  2  0
  2  3  1  0
  3  4  1  0
  4  5  1  0
  5  6  2  0
  6  7  1  0
  7  8  2  0
  8  9  1  0
  2 10  1  0
 10 11  1  0
 11 12  1  0
 12 13  1  0
 13 14  1  0
 14 15  2  0
 14 16  1  0
 16 17  1  0
 17 18  1  0
 18 19  1  0
 11 20  1  0
 20 21  2  0
 21 22  1  0
 22 23  2  0
 23 24  1  0
 24 25  2  0
  9  5  1  0
 19 16  1  0
 25 20  1  0
M  END
