CVD-0000580|dock_bobby27042020.41|mol2|7|dock1
     RDKit          3D

 24 26  0  0  0  0  0  0  0  0999 V2000
    6.8391    2.1298   21.5573 C   0  0  0  0  0  0  0  0  0  0  0  0
    6.9172    1.4066   20.2373 C   0  0  0  0  0  0  0  0  0  0  0  0
    6.0206    1.7605   19.2336 C   0  0  0  0  0  0  0  0  0  0  0  0
    6.0653    1.1154   18.0182 C   0  0  0  0  0  0  0  0  0  0  0  0
    6.9366    0.1499   17.7411 N   0  0  0  0  0  0  0  0  0  0  0  0
    7.8023   -0.1995   18.6978 C   0  0  0  0  0  0  0  0  0  0  0  0
    7.8474    0.3848   19.9641 C   0  0  0  0  0  0  0  0  0  0  0  0
    8.7652    0.0182   20.9887 N   0  0  0  0  0  0  0  0  0  0  0  0
    9.3337   -1.2038   21.2586 C   0  0  0  0  0  0  0  0  0  0  0  0
    9.1418   -2.2434   20.6352 O   0  0  0  0  0  0  0  0  0  0  0  0
   10.1631   -1.1506   22.3257 N   0  0  0  0  0  0  0  0  0  0  0  0
   11.0873   -1.5450   23.3747 C   0  0  0  0  0  0  0  0  0  0  0  0
   12.3709   -2.1260   22.7306 C   0  0  0  0  0  0  0  0  0  0  0  0
   13.5032   -1.4558   23.3287 C   0  0  0  0  0  0  0  0  0  0  0  0
   13.0575   -0.4232   24.2537 C   0  0  0  0  0  0  0  0  0  0  0  0
   11.5719   -0.3526   24.2081 C   0  0  0  0  0  0  0  0  0  0  0  0
   10.4391   -2.5793   24.2064 C   0  0  0  0  0  0  0  0  0  0  0  0
    9.9780   -3.3844   24.9575 C   0  0  0  0  0  0  0  0  0  0  0  0
    9.4954   -4.3690   25.8854 C   0  0  0  0  0  0  0  0  0  0  0  0
    8.3691   -4.1352   26.6661 C   0  0  0  0  0  0  0  0  0  0  0  0
    7.9384   -5.1117   27.5475 C   0  0  0  0  0  0  0  0  0  0  0  0
    8.6445   -6.2909   27.6231 C   0  0  0  0  0  0  0  0  0  0  0  0
    9.7281   -6.5453   26.8881 N   0  0  0  0  0  0  0  0  0  0  0  0
   10.1348   -5.5956   26.0406 C   0  0  0  0  0  0  0  0  0  0  0  0
  1  2  1  0
  2  3  2  0
  3  4  1  0
  4  5  2  0
  5  6  1  0
  6  7  2  0
  7  8  1  0
  8  9  1  0
  9 10  2  0
  9 11  1  0
 11 12  1  0
 12 13  1  0
 13 14  1  0
 14 15  1  0
 15 16  1  0
 12 17  1  0
 17 18  3  0
 18 19  1  0
 19 20  2  0
 20 21  1  0
 21 22  2  0
 22 23  1  0
 23 24  2  0
  7  2  1  0
 16 12  1  0
 24 19  1  0
M  END
