CVD-0001035|dock_bobby27042020.39|mol2|30|dock3
     RDKit          3D

 36 40  0  0  0  0  0  0  0  0999 V2000
   13.4502    9.0880   24.9455 C   0  0  0  0  0  0  0  0  0  0  0  0
   13.6174    8.4152   23.6991 O   0  0  0  0  0  0  0  0  0  0  0  0
   13.4190    7.0597   23.6125 C   0  0  0  0  0  0  0  0  0  0  0  0
   13.8543    6.4056   22.4726 C   0  0  0  0  0  0  0  0  0  0  0  0
   13.6746    5.0401   22.3436 C   0  0  0  0  0  0  0  0  0  0  0  0
   13.0582    4.3073   23.3499 C   0  0  0  0  0  0  0  0  0  0  0  0
   12.6256    4.9744   24.4894 C   0  0  0  0  0  0  0  0  0  0  0  0
   12.8015    6.3403   24.6261 C   0  0  0  0  0  0  0  0  0  0  0  0
   12.8674    2.8549   23.2121 C   0  0  0  0  0  0  0  0  0  0  0  0
   13.5065    2.0538   22.4103 N   0  0  0  0  0  0  0  0  0  0  0  0
   12.9539    0.8040   22.6705 C   0  0  0  0  0  0  0  0  0  0  0  0
   13.2074   -0.4591   22.1417 C   0  0  0  0  0  0  0  0  0  0  0  0
   12.4838   -1.5479   22.6047 C   0  0  0  0  0  0  0  0  0  0  0  0
   11.5055   -1.4008   23.5919 C   0  0  0  0  0  0  0  0  0  0  0  0
   10.7414   -2.4832   24.0958 N   0  0  0  0  0  0  0  0  0  0  0  0
    9.9445   -2.5871   25.1886 C   0  0  0  0  0  0  0  0  0  0  0  0
    9.7244   -1.6939   26.0012 O   0  0  0  0  0  0  0  0  0  0  0  0
    9.3122   -3.9551   25.3414 C   0  0  0  0  0  0  0  0  0  0  0  0
    8.0160   -4.0586   24.6006 C   0  0  0  0  0  0  0  0  0  0  0  0
    7.3192   -5.3939   24.8056 C   0  0  0  0  0  0  0  0  0  0  0  0
    7.1848   -5.6771   26.2259 N   0  0  0  0  0  0  0  0  0  0  0  0
    8.4356   -5.6528   26.9746 C   0  0  0  0  0  0  0  0  0  0  0  0
    9.0982   -4.2880   26.8095 C   0  0  0  0  0  0  0  0  0  0  0  0
    5.7972   -6.2443   26.8665 S   0  0  0  0  0  0  0  0  0  0  0  0
    4.7692   -5.3271   26.4836 O   0  0  0  0  0  0  0  0  0  0  0  0
    5.7054   -7.6186   26.4820 O   0  0  0  0  0  0  0  0  0  0  0  0
    5.9651   -6.1770   28.6166 C   0  0  0  0  0  0  0  0  0  0  0  0
    5.6558   -5.0091   29.2938 C   0  0  0  0  0  0  0  0  0  0  0  0
    5.7867   -4.9700   30.6706 C   0  0  0  0  0  0  0  0  0  0  0  0
    6.2185   -6.0744   31.3882 C   0  0  0  0  0  0  0  0  0  0  0  0
    6.3610   -6.0171   32.8897 C   0  0  0  0  0  0  0  0  0  0  0  0
    6.5210   -7.2311   30.6872 C   0  0  0  0  0  0  0  0  0  0  0  0
    6.3980   -7.2948   29.3105 C   0  0  0  0  0  0  0  0  0  0  0  0
   11.2558   -0.1353   24.1173 C   0  0  0  0  0  0  0  0  0  0  0  0
   11.9901    0.9315   23.6390 C   0  0  0  0  0  0  0  0  0  0  0  0
   11.9169    2.2598   24.0065 O   0  0  0  0  0  0  0  0  0  0  0  0
  1  2  1  0
  2  3  1  0
  3  4  2  0
  4  5  1  0
  5  6  2  0
  6  7  1  0
  7  8  2  0
  6  9  1  0
  9 10  2  0
 10 11  1  0
 11 12  2  0
 12 13  1  0
 13 14  2  0
 14 15  1  0
 15 16  1  0
 16 17  2  0
 16 18  1  0
 18 19  1  0
 19 20  1  0
 20 21  1  0
 21 22  1  0
 22 23  1  0
 21 24  1  0
 24 25  2  0
 24 26  2  0
 24 27  1  0
 27 28  2  0
 28 29  1  0
 29 30  2  0
 30 31  1  0
 30 32  1  0
 32 33  2  0
 14 34  1  0
 34 35  2  0
 35 36  1  0
  8  3  1  0
 36  9  1  0
 35 11  1  0
 23 18  1  0
 33 27  1  0
M  END
