CVD-0003052|dock_bobby27042020.32|mol2|15|dock1
     RDKit          3D

 38 41  0  0  0  0  0  0  0  0999 V2000
    1.6406    2.7752   19.5726 C   0  0  0  0  0  0  0  0  0  0  0  0
    2.9517    2.7882   18.8429 C   0  0  0  0  0  0  0  0  0  0  0  0
    3.1882    3.5924   17.9469 O   0  0  0  0  0  0  0  0  0  0  0  0
    3.8519    1.8853   19.2367 N   0  0  0  0  0  0  0  0  0  0  0  0
    5.1755    1.7840   18.6385 C   0  0  0  0  0  0  0  0  0  0  0  0
    5.5992    0.3417   18.4445 C   0  0  0  0  0  0  0  0  0  0  0  0
    6.8636   -0.0016   19.1761 C   0  0  0  0  0  0  0  0  0  0  0  0
    7.9861   -0.5812   18.6616 C   0  0  0  0  0  0  0  0  0  0  0  0
    8.9331   -0.7374   19.6367 N   0  0  0  0  0  0  0  0  0  0  0  0
    8.4279   -0.2521   20.8177 C   0  0  0  0  0  0  0  0  0  0  0  0
    9.0181   -0.1921   22.0902 C   0  0  0  0  0  0  0  0  0  0  0  0
    8.2534    0.3616   23.1161 C   0  0  0  0  0  0  0  0  0  0  0  0
    6.9689    0.8326   22.8910 C   0  0  0  0  0  0  0  0  0  0  0  0
    6.4010    0.7663   21.6283 C   0  0  0  0  0  0  0  0  0  0  0  0
    7.1254    0.2208   20.5697 C   0  0  0  0  0  0  0  0  0  0  0  0
   10.4196   -0.7033   22.3539 C   0  0  0  0  0  0  0  0  0  0  0  0
   10.4307   -1.9370   23.2628 C   0  0  0  0  0  0  0  0  0  0  0  0
    9.2268   -2.8501   23.0402 C   0  0  0  0  0  0  0  0  0  0  0  0
    8.9449   -3.7564   24.2141 C   0  0  0  0  0  0  0  0  0  0  0  0
    7.6631   -3.8789   24.7278 C   0  0  0  0  0  0  0  0  0  0  0  0
    7.4024   -4.7065   25.8054 C   0  0  0  0  0  0  0  0  0  0  0  0
    8.4218   -5.4378   26.4013 C   0  0  0  0  0  0  0  0  0  0  0  0
    9.7070   -5.3142   25.8896 C   0  0  0  0  0  0  0  0  0  0  0  0
    9.9618   -4.4849   24.8118 C   0  0  0  0  0  0  0  0  0  0  0  0
    8.1437   -6.3306   27.5680 C   0  0  0  0  0  0  0  0  0  0  0  0
    8.5556   -7.5779   27.3712 F   0  0  0  0  0  0  0  0  0  0  0  0
    6.8496   -6.4147   27.8549 F   0  0  0  0  0  0  0  0  0  0  0  0
    8.7388   -5.9214   28.6827 F   0  0  0  0  0  0  0  0  0  0  0  0
   11.3367    0.3227   22.9025 N   0  0  0  0  0  0  0  0  0  0  0  0
   11.1244    1.6275   22.2547 C   0  0  0  0  0  0  0  0  0  0  0  0
   12.0268    2.6756   22.8521 C   0  0  0  0  0  0  0  0  0  0  0  0
   13.4315    2.2672   22.7527 N   0  0  0  0  0  0  0  0  0  0  0  0
   13.6710    0.9431   23.3234 C   0  0  0  0  0  0  0  0  0  0  0  0
   12.7341   -0.0588   22.6918 C   0  0  0  0  0  0  0  0  0  0  0  0
   14.4570    3.0354   22.3337 C   0  0  0  0  0  0  0  0  0  0  0  0
   15.6033    2.6095   22.2703 O   0  0  0  0  0  0  0  0  0  0  0  0
   14.1163    4.4616   21.9484 C   0  0  0  0  0  0  0  0  0  0  0  0
   13.4462    5.3455   23.3256 Cl  0  0  0  0  0  0  0  0  0  0  0  0
  1  2  1  0
  2  3  2  0
  2  4  1  0
  4  5  1  0
  5  6  1  0
  6  7  1  0
  7  8  2  0
  8  9  1  0
  9 10  1  0
 10 11  2  0
 11 12  1  0
 12 13  2  0
 13 14  1  0
 14 15  2  0
 11 16  1  0
 16 17  1  0
 17 18  1  0
 18 19  1  0
 19 20  2  0
 20 21  1  0
 21 22  2  0
 22 23  1  0
 23 24  2  0
 22 25  1  0
 25 26  1  0
 25 27  1  0
 25 28  1  0
 16 29  1  0
 29 30  1  0
 30 31  1  0
 31 32  1  0
 32 33  1  0
 33 34  1  0
 32 35  1  0
 35 36  2  0
 35 37  1  0
 37 38  1  0
 15  7  1  0
 24 19  1  0
 34 29  1  0
 15 10  1  0
M  END
