CVD-0000521|dock_bobby27042020.98|mol2|18|dock1
     RDKit          3D

 27 28  0  0  0  0  0  0  0  0999 V2000
    7.8624   -6.1382   28.1537 C   0  0  0  0  0  0  0  0  0  0  0  0
    7.8062   -6.3894   26.7154 N   0  0  0  0  0  0  0  0  0  0  0  0
    9.1189   -6.0228   25.8372 S   0  0  0  0  0  0  0  0  0  0  0  0
   10.1356   -6.9510   26.2178 O   0  0  0  0  0  0  0  0  0  0  0  0
    8.6893   -5.9410   24.4774 O   0  0  0  0  0  0  0  0  0  0  0  0
    9.6608   -4.5585   26.2366 N   0  0  0  0  0  0  0  0  0  0  0  0
    9.0246   -3.3795   25.6365 C   0  0  0  0  0  0  0  0  0  0  0  0
    9.6872   -3.0178   24.3219 C   0  0  0  0  0  0  0  0  0  0  0  0
    9.1907   -1.7037   23.7440 C   0  0  0  0  0  0  0  0  0  0  0  0
    9.6275   -1.4939   22.3045 C   0  0  0  0  0  0  0  0  0  0  0  0
    8.9381   -0.3806   21.6372 N   0  0  0  0  0  0  0  0  0  0  0  0
    7.6108   -0.7604   21.0920 C   0  0  0  0  0  0  0  0  0  0  0  0
    7.6435   -0.7720   19.5814 C   0  0  0  0  0  0  0  0  0  0  0  0
    6.2632   -1.0713   19.0056 C   0  0  0  0  0  0  0  0  0  0  0  0
    5.2315   -0.1000   19.5168 C   0  0  0  0  0  0  0  0  0  0  0  0
    5.2079   -0.0681   21.0267 C   0  0  0  0  0  0  0  0  0  0  0  0
    6.5843    0.2259   21.6079 C   0  0  0  0  0  0  0  0  0  0  0  0
    9.4840    0.8813   21.5460 C   0  0  0  0  0  0  0  0  0  0  0  0
    9.0605    1.6659   20.7170 O   0  0  0  0  0  0  0  0  0  0  0  0
   10.5002    1.2259   22.4105 N   0  0  0  0  0  0  0  0  0  0  0  0
   11.2189    2.4520   22.5212 C   0  0  0  0  0  0  0  0  0  0  0  0
   10.6563    3.7237   22.3930 C   0  0  0  0  0  0  0  0  0  0  0  0
   11.3387    4.8655   22.5239 N   0  0  0  0  0  0  0  0  0  0  0  0
   12.6443    4.7816   22.7599 C   0  0  0  0  0  0  0  0  0  0  0  0
   13.3074    3.5822   22.8874 C   0  0  0  0  0  0  0  0  0  0  0  0
   12.6038    2.3868   22.7748 C   0  0  0  0  0  0  0  0  0  0  0  0
   13.3629    1.0952   22.9405 C   0  0  0  0  0  0  0  0  0  0  0  0
  1  2  1  0
  2  3  1  0
  3  4  2  0
  3  5  2  0
  3  6  1  0
  6  7  1  0
  7  8  1  0
  8  9  1  0
  9 10  1  0
 10 11  1  0
 11 12  1  0
 12 13  1  0
 13 14  1  0
 14 15  1  0
 15 16  1  0
 16 17  1  0
 11 18  1  0
 18 19  2  0
 18 20  1  0
 20 21  1  0
 21 22  2  0
 22 23  1  0
 23 24  2  0
 24 25  1  0
 25 26  2  0
 26 27  1  0
 17 12  1  0
 26 21  1  0
M  END
