CVD-0000851|dock_bobby27042020.11|mol2|34|dock2
     RDKit          3D

 19 21  0  0  0  0  0  0  0  0999 V2000
    8.8574    1.3176   21.3053 O   0  0  0  0  0  0  0  0  0  0  0  0
    8.3422    0.2549   21.5952 C   0  0  0  0  0  0  0  0  0  0  0  0
    8.9478   -0.5290   22.7380 C   0  0  0  0  0  0  0  0  0  0  0  0
    8.4630   -1.8509   22.7986 O   0  0  0  0  0  0  0  0  0  0  0  0
    7.0351   -1.8939   22.7687 C   0  0  0  0  0  0  0  0  0  0  0  0
    6.5723   -1.4760   21.3746 C   0  0  0  0  0  0  0  0  0  0  0  0
    7.2793   -0.2612   20.9640 N   0  0  0  0  0  0  0  0  0  0  0  0
    6.7672    0.3382   19.7567 C   0  0  0  0  0  0  0  0  0  0  0  0
    5.6080    1.1070   19.7958 C   0  0  0  0  0  0  0  0  0  0  0  0
    5.1255    1.6772   18.6309 C   0  0  0  0  0  0  0  0  0  0  0  0
    5.8032    1.4542   17.4562 C   0  0  0  0  0  0  0  0  0  0  0  0
    6.9122    0.7198   17.3871 N   0  0  0  0  0  0  0  0  0  0  0  0
    7.3878    0.1983   18.5220 C   0  0  0  0  0  0  0  0  0  0  0  0
   10.4566   -0.5590   22.6400 C   0  0  0  0  0  0  0  0  0  0  0  0
   11.0949   -1.4766   21.8176 C   0  0  0  0  0  0  0  0  0  0  0  0
   12.4766   -1.5013   21.7259 C   0  0  0  0  0  0  0  0  0  0  0  0
   13.2349   -0.6092   22.4537 C   0  0  0  0  0  0  0  0  0  0  0  0
   12.6131    0.3083   23.2733 C   0  0  0  0  0  0  0  0  0  0  0  0
   11.2316    0.3343   23.3661 C   0  0  0  0  0  0  0  0  0  0  0  0
  1  2  2  0
  2  3  1  0
  3  4  1  0
  4  5  1  0
  5  6  1  0
  6  7  1  0
  7  8  1  0
  8  9  2  0
  9 10  1  0
 10 11  2  0
 11 12  1  0
 12 13  2  0
  3 14  1  0
 14 15  2  0
 15 16  1  0
 16 17  2  0
 17 18  1  0
 18 19  2  0
  7  2  1  0
 13  8  1  0
 19 14  1  0
M  END
