CVD-0003297|dock_bobby27042020.60|mol2|16|dock2
     RDKit          3D

 16 17  0  0  0  0  0  0  0  0999 V2000
   13.5157    4.0727   22.5563 C   0  0  0  0  0  0  0  0  0  0  0  0
   12.0238    4.0615   22.5424 C   0  0  0  0  0  0  0  0  0  0  0  0
   11.3221    4.9675   22.1855 O   0  0  0  0  0  0  0  0  0  0  0  0
   11.5314    2.8940   22.9642 O   0  0  0  0  0  0  0  0  0  0  0  0
   10.0865    2.7503   22.9423 C   0  0  0  0  0  0  0  0  0  0  0  0
    9.7486    1.3565   23.4095 C   0  0  0  0  0  0  0  0  0  0  0  0
   10.4738    0.2772   22.6605 C   0  0  0  0  0  0  0  0  0  0  0  0
   10.1443   -0.2563   21.4495 C   0  0  0  0  0  0  0  0  0  0  0  0
   11.0472   -1.2203   21.0926 N   0  0  0  0  0  0  0  0  0  0  0  0
   11.9935   -1.3306   22.0820 C   0  0  0  0  0  0  0  0  0  0  0  0
   13.1072   -2.1555   22.1936 C   0  0  0  0  0  0  0  0  0  0  0  0
   13.9053   -2.0560   23.3198 C   0  0  0  0  0  0  0  0  0  0  0  0
   13.5701   -1.1464   24.2883 C   0  0  0  0  0  0  0  0  0  0  0  0
   14.3631   -1.0590   25.3901 F   0  0  0  0  0  0  0  0  0  0  0  0
   12.4784   -0.3141   24.2150 C   0  0  0  0  0  0  0  0  0  0  0  0
   11.6641   -0.4017   23.0869 C   0  0  0  0  0  0  0  0  0  0  0  0
  1  2  1  0
  2  3  2  0
  2  4  1  0
  4  5  1  0
  5  6  1  0
  6  7  1  0
  7  8  2  0
  8  9  1  0
  9 10  1  0
 10 11  2  0
 11 12  1  0
 12 13  2  0
 13 14  1  0
 13 15  1  0
 15 16  2  0
 16  7  1  0
 16 10  1  0
M  END
