CVD-0003377|dock_bobby27042020.16|mol2|42|dock2
     RDKit          3D

 20 22  0  0  0  0  0  0  0  0999 V2000
   14.6753   -2.1440   25.6426 C   0  0  0  0  0  0  0  0  0  0  0  0
   14.0009   -1.3911   24.5864 N   0  0  0  0  0  0  0  0  0  0  0  0
   12.9560   -0.5345   25.1547 C   0  0  0  0  0  0  0  0  0  0  0  0
   12.2872    0.2751   24.0592 C   0  0  0  0  0  0  0  0  0  0  0  0
   11.7170   -0.6121   23.0431 N   0  0  0  0  0  0  0  0  0  0  0  0
   12.7264   -1.5245   22.4969 C   0  0  0  0  0  0  0  0  0  0  0  0
   13.3964   -2.3004   23.6162 C   0  0  0  0  0  0  0  0  0  0  0  0
   10.4087   -0.5495   22.6550 C   0  0  0  0  0  0  0  0  0  0  0  0
    9.7707    0.4699   22.8701 O   0  0  0  0  0  0  0  0  0  0  0  0
    9.8521   -1.6707   22.0211 N   0  0  0  0  0  0  0  0  0  0  0  0
    8.5648   -1.8250   21.4678 C   0  0  0  0  0  0  0  0  0  0  0  0
    7.6542   -0.9967   20.8375 C   0  0  0  0  0  0  0  0  0  0  0  0
    7.7162    0.6687   20.4419 Cl  0  0  0  0  0  0  0  0  0  0  0  0
    6.5432   -1.7010   20.5054 N   0  0  0  0  0  0  0  0  0  0  0  0
    6.6821   -3.0019   20.9008 C   0  0  0  0  0  0  0  0  0  0  0  0
    5.8184   -4.0194   20.7622 N   0  0  0  0  0  0  0  0  0  0  0  0
    6.2451   -5.1897   21.2568 C   0  0  0  0  0  0  0  0  0  0  0  0
    7.4814   -5.3348   21.8630 C   0  0  0  0  0  0  0  0  0  0  0  0
    8.3488   -4.3207   22.0040 N   0  0  0  0  0  0  0  0  0  0  0  0
    7.9489   -3.1360   21.5182 C   0  0  0  0  0  0  0  0  0  0  0  0
  1  2  1  0
  2  3  1  0
  3  4  1  0
  4  5  1  0
  5  6  1  0
  6  7  1  0
  5  8  1  0
  8  9  2  0
  8 10  1  0
 10 11  1  0
 11 12  2  0
 12 13  1  0
 12 14  1  0
 14 15  1  0
 15 16  2  0
 16 17  1  0
 17 18  2  0
 18 19  1  0
 19 20  2  0
  7  2  1  0
 20 11  1  0
 20 15  1  0
M  END
