CVD-0002853|dock_bobby27042020.4|mol2|17|dock3
     RDKit          3D

 27 29  0  0  0  0  0  0  0  0999 V2000
    0.5620    3.8456   19.9172 C   0  0  0  0  0  0  0  0  0  0  0  0
    1.7618    2.9301   19.9090 C   0  0  0  0  0  0  0  0  0  0  0  0
    2.4851    2.7104   18.7482 C   0  0  0  0  0  0  0  0  0  0  0  0
    3.5827    1.8687   18.7316 C   0  0  0  0  0  0  0  0  0  0  0  0
    3.9765    1.2248   19.8918 C   0  0  0  0  0  0  0  0  0  0  0  0
    5.0703    0.3951   19.8425 O   0  0  0  0  0  0  0  0  0  0  0  0
    6.1055    0.6096   18.8871 C   0  0  0  0  0  0  0  0  0  0  0  0
    7.4382    0.1331   19.4096 C   0  0  0  0  0  0  0  0  0  0  0  0
    8.2713   -0.3189   18.6303 O   0  0  0  0  0  0  0  0  0  0  0  0
    7.6430    0.2378   20.7199 N   0  0  0  0  0  0  0  0  0  0  0  0
    8.8846   -0.1769   21.3602 C   0  0  0  0  0  0  0  0  0  0  0  0
    9.5060    0.9490   22.1940 C   0  0  0  0  0  0  0  0  0  0  0  0
    9.2387    2.2703   21.6128 N   0  0  0  0  0  0  0  0  0  0  0  0
    9.7874    3.3242   22.4771 C   0  0  0  0  0  0  0  0  0  0  0  0
   11.2814    3.2950   22.3695 C   0  0  0  0  0  0  0  0  0  0  0  0
   11.8333    1.9029   22.5291 C   0  0  0  0  0  0  0  0  0  0  0  0
   13.1903    1.7107   22.7755 C   0  0  0  0  0  0  0  0  0  0  0  0
   13.7362    0.4466   22.9015 C   0  0  0  0  0  0  0  0  0  0  0  0
   12.9076   -0.6550   22.7786 C   0  0  0  0  0  0  0  0  0  0  0  0
   11.5542   -0.4881   22.5334 C   0  0  0  0  0  0  0  0  0  0  0  0
   11.0014    0.7846   22.4059 C   0  0  0  0  0  0  0  0  0  0  0  0
   13.5696   -2.2848   22.9463 S   0  0  0  0  0  0  0  0  0  0  0  0
   14.6024   -2.2895   24.1694 N   0  0  0  0  0  0  0  0  0  0  0  0
   12.4868   -3.1517   23.3030 O   0  0  0  0  0  0  0  0  0  0  0  0
   14.3186   -2.5665   21.7585 O   0  0  0  0  0  0  0  0  0  0  0  0
    3.2674    1.4340   21.0650 C   0  0  0  0  0  0  0  0  0  0  0  0
    2.1712    2.2785   21.0612 C   0  0  0  0  0  0  0  0  0  0  0  0
  1  2  1  0
  2  3  2  0
  3  4  1  0
  4  5  2  0
  5  6  1  0
  6  7  1  0
  7  8  1  0
  8  9  2  0
  8 10  1  0
 10 11  1  0
 11 12  1  0
 12 13  1  0
 13 14  1  0
 14 15  1  0
 15 16  1  0
 16 17  2  0
 17 18  1  0
 18 19  2  0
 19 20  1  0
 20 21  2  0
 19 22  1  0
 22 23  1  0
 22 24  2  0
 22 25  2  0
  5 26  1  0
 26 27  2  0
 27  2  1  0
 21 12  1  0
 21 16  1  0
M  END
