CVD-0003062|dock_bobby27042020.75|mol2|7|dock2
     RDKit          3D

 39 42  0  0  0  0  0  0  0  0999 V2000
   10.9129    0.2967   24.9172 Cl  0  0  0  0  0  0  0  0  0  0  0  0
   10.2548    0.0753   23.2908 C   0  0  0  0  0  0  0  0  0  0  0  0
    9.3317   -1.1255   23.2224 C   0  0  0  0  0  0  0  0  0  0  0  0
    9.0547   -1.7770   24.2217 O   0  0  0  0  0  0  0  0  0  0  0  0
    8.8402   -1.4375   22.0058 N   0  0  0  0  0  0  0  0  0  0  0  0
    7.9636   -2.5854   21.8417 C   0  0  0  0  0  0  0  0  0  0  0  0
    6.7059   -2.1916   21.1332 C   0  0  0  0  0  0  0  0  0  0  0  0
    7.0548   -1.5579   19.8538 N   0  0  0  0  0  0  0  0  0  0  0  0
    7.8743   -0.3525   20.0476 C   0  0  0  0  0  0  0  0  0  0  0  0
    9.1409   -0.7308   20.7568 C   0  0  0  0  0  0  0  0  0  0  0  0
    5.9067   -1.5345   18.6969 S   0  0  0  0  0  0  0  0  0  0  0  0
    4.9701   -2.5610   19.0344 O   0  0  0  0  0  0  0  0  0  0  0  0
    6.5932   -1.5804   17.4434 O   0  0  0  0  0  0  0  0  0  0  0  0
    5.0825    0.0158   18.8117 C   0  0  0  0  0  0  0  0  0  0  0  0
    5.0409    0.8578   17.7129 C   0  0  0  0  0  0  0  0  0  0  0  0
    4.3924    2.0742   17.8230 C   0  0  0  0  0  0  0  0  0  0  0  0
    3.7996    2.4320   19.0217 C   0  0  0  0  0  0  0  0  0  0  0  0
    2.9971    3.9658   19.1105 Cl  0  0  0  0  0  0  0  0  0  0  0  0
    3.8327    1.6040   20.1366 C   0  0  0  0  0  0  0  0  0  0  0  0
    3.1908    1.9707   21.4546 C   0  0  0  0  0  0  0  0  0  0  0  0
    4.1845    2.4490   22.5013 C   0  0  0  0  0  0  0  0  0  0  0  0
    5.3675    3.1435   21.8844 C   0  0  0  0  0  0  0  0  0  0  0  0
    6.3379    3.4750   22.9266 N   0  0  0  0  0  0  0  0  0  0  0  0
    6.6982    2.3329   23.7641 C   0  0  0  0  0  0  0  0  0  0  0  0
    5.4585    1.6701   24.2870 C   0  0  0  0  0  0  0  0  0  0  0  0
    4.5771    1.3012   23.2397 O   0  0  0  0  0  0  0  0  0  0  0  0
    6.8902    4.6987   23.1707 C   0  0  0  0  0  0  0  0  0  0  0  0
    7.4035    4.9086   24.2629 O   0  0  0  0  0  0  0  0  0  0  0  0
    6.8750    5.6610   22.2310 N   0  0  0  0  0  0  0  0  0  0  0  0
    7.4738    6.9589   22.5058 C   0  0  0  0  0  0  0  0  0  0  0  0
    8.7184    6.8740   23.3561 C   0  0  0  0  0  0  0  0  0  0  0  0
    9.7895    6.0832   22.9698 C   0  0  0  0  0  0  0  0  0  0  0  0
   10.9320    5.9979   23.7454 C   0  0  0  0  0  0  0  0  0  0  0  0
   11.0230    6.7105   24.9363 C   0  0  0  0  0  0  0  0  0  0  0  0
    9.9517    7.5049   25.3309 C   0  0  0  0  0  0  0  0  0  0  0  0
    8.8156    7.5804   24.5449 C   0  0  0  0  0  0  0  0  0  0  0  0
   12.2106    6.6270   25.7501 C   0  0  0  0  0  0  0  0  0  0  0  0
   13.1450    6.5914   26.4062 N   0  0  0  0  0  0  0  0  0  0  0  0
    4.4875    0.3833   20.0091 C   0  0  0  0  0  0  0  0  0  0  0  0
  1  2  1  0
  2  3  1  0
  3  4  2  0
  3  5  1  0
  5  6  1  0
  6  7  1  0
  7  8  1  0
  8  9  1  0
  9 10  1  0
  8 11  1  0
 11 12  2  0
 11 13  2  0
 11 14  1  0
 14 15  2  0
 15 16  1  0
 16 17  2  0
 17 18  1  0
 17 19  1  0
 19 20  1  0
 21 20  1  0
 21 22  1  0
 22 23  1  0
 23 24  1  0
 24 25  1  0
 25 26  1  0
 23 27  1  0
 27 28  2  0
 27 29  1  0
 29 30  1  0
 30 31  1  0
 31 32  2  0
 32 33  1  0
 33 34  2  0
 34 35  1  0
 35 36  2  0
 34 37  1  0
 37 38  3  0
 19 39  2  0
 10  5  1  0
 39 14  1  0
 26 21  1  0
 36 31  1  0
M  END
