CVD-0002270|dock_bobby27042020.92|mol2|11|dock2
     RDKit          3D

 26 28  0  0  0  0  0  0  0  0999 V2000
   12.5321    5.9281   23.8087 C   0  0  0  0  0  0  0  0  0  0  0  0
   12.9525    4.4307   23.0037 S   0  0  0  0  0  0  0  0  0  0  0  0
   12.6251    4.5634   21.6177 O   0  0  0  0  0  0  0  0  0  0  0  0
   14.2967    4.0959   23.3601 O   0  0  0  0  0  0  0  0  0  0  0  0
   11.9998    3.2708   23.6065 N   0  0  0  0  0  0  0  0  0  0  0  0
   12.1002    1.8854   23.1525 C   0  0  0  0  0  0  0  0  0  0  0  0
   12.2165    0.9401   24.3579 C   0  0  0  0  0  0  0  0  0  0  0  0
   12.9783   -0.3264   24.0513 C   0  0  0  0  0  0  0  0  0  0  0  0
   13.1124   -0.7745   22.7463 C   0  0  0  0  0  0  0  0  0  0  0  0
   13.8089   -1.9380   22.4651 C   0  0  0  0  0  0  0  0  0  0  0  0
   14.3789   -2.6675   23.4862 C   0  0  0  0  0  0  0  0  0  0  0  0
   14.2519   -2.2338   24.7883 C   0  0  0  0  0  0  0  0  0  0  0  0
   13.5553   -1.0703   25.0689 C   0  0  0  0  0  0  0  0  0  0  0  0
   10.8943    1.5422   22.3211 C   0  0  0  0  0  0  0  0  0  0  0  0
   10.2900    2.4225   21.5955 N   0  0  0  0  0  0  0  0  0  0  0  0
    9.1969    1.8970   20.9075 N   0  0  0  0  0  0  0  0  0  0  0  0
    9.0113    0.6400   21.1332 C   0  0  0  0  0  0  0  0  0  0  0  0
    7.8892   -0.1260   20.4988 C   0  0  0  0  0  0  0  0  0  0  0  0
    6.9055    0.7490   19.8561 N   0  0  0  0  0  0  0  0  0  0  0  0
    6.1359    0.0293   18.8491 C   0  0  0  0  0  0  0  0  0  0  0  0
    5.1986    0.9240   18.0566 C   0  0  0  0  0  0  0  0  0  0  0  0
    4.4319    1.8008   18.9763 C   0  0  0  0  0  0  0  0  0  0  0  0
    4.7975    2.0107   20.2259 C   0  0  0  0  0  0  0  0  0  0  0  0
    4.1575    2.8110   21.1305 F   0  0  0  0  0  0  0  0  0  0  0  0
    5.9978    1.3691   20.8194 C   0  0  0  0  0  0  0  0  0  0  0  0
   10.1667   -0.0516   22.2328 S   0  0  0  0  0  0  0  0  0  0  0  0
  1  2  1  0
  2  3  2  0
  2  4  2  0
  2  5  1  0
  5  6  1  0
  6  7  1  0
  7  8  1  0
  8  9  2  0
  9 10  1  0
 10 11  2  0
 11 12  1  0
 12 13  2  0
  6 14  1  0
 14 15  2  0
 15 16  1  0
 16 17  2  0
 17 18  1  0
 18 19  1  0
 19 20  1  0
 20 21  1  0
 21 22  1  0
 22 23  2  0
 23 24  1  0
 23 25  1  0
 17 26  1  0
 13  8  1  0
 26 14  1  0
 25 19  1  0
M  END
