CVD-0001193|dock_bobby27042020.81|mol2|46|dock3
     RDKit          3D

 28 31  0  0  0  0  0  0  0  0999 V2000
    2.1760    5.3199   17.1648 C   0  0  0  0  0  0  0  0  0  0  0  0
    1.6861    4.7233   18.4515 C   0  0  0  0  0  0  0  0  0  0  0  0
    0.5004    4.4701   18.6397 O   0  0  0  0  0  0  0  0  0  0  0  0
    2.6126    4.4995   19.3855 N   0  0  0  0  0  0  0  0  0  0  0  0
    2.2918    3.9417   20.6915 C   0  0  0  0  0  0  0  0  0  0  0  0
    2.0226    2.4518   20.6192 C   0  0  0  0  0  0  0  0  0  0  0  0
    3.2555    1.6223   20.8279 C   0  0  0  0  0  0  0  0  0  0  0  0
    3.6042    0.9233   21.9465 C   0  0  0  0  0  0  0  0  0  0  0  0
    4.8018    0.2879   21.7601 N   0  0  0  0  0  0  0  0  0  0  0  0
    5.2535    0.5718   20.4948 C   0  0  0  0  0  0  0  0  0  0  0  0
    6.4218    0.1534   19.8518 C   0  0  0  0  0  0  0  0  0  0  0  0
    7.4339   -0.7476   20.5351 C   0  0  0  0  0  0  0  0  0  0  0  0
    8.5848   -0.0078   21.1862 C   0  0  0  0  0  0  0  0  0  0  0  0
    8.4754    1.3369   21.5039 C   0  0  0  0  0  0  0  0  0  0  0  0
    9.5303    2.0106   22.0958 C   0  0  0  0  0  0  0  0  0  0  0  0
   10.7098    1.3423   22.3759 C   0  0  0  0  0  0  0  0  0  0  0  0
   10.8408   -0.0059   22.0642 C   0  0  0  0  0  0  0  0  0  0  0  0
    9.7729   -0.6696   21.4699 C   0  0  0  0  0  0  0  0  0  0  0  0
   12.0894   -0.7207   22.3582 C   0  0  0  0  0  0  0  0  0  0  0  0
   12.9267   -0.6444   23.4545 C   0  0  0  0  0  0  0  0  0  0  0  0
   13.9553   -1.5432   23.1953 C   0  0  0  0  0  0  0  0  0  0  0  0
   13.7885   -2.1467   22.0248 N   0  0  0  0  0  0  0  0  0  0  0  0
   12.6314   -1.6291   21.5179 N   0  0  0  0  0  0  0  0  0  0  0  0
    6.6364    0.5970   18.5515 C   0  0  0  0  0  0  0  0  0  0  0  0
    5.7035    1.4156   17.9582 C   0  0  0  0  0  0  0  0  0  0  0  0
    5.9399    1.8330   16.6852 F   0  0  0  0  0  0  0  0  0  0  0  0
    4.5470    1.8387   18.5708 C   0  0  0  0  0  0  0  0  0  0  0  0
    4.3080    1.4095   19.8756 C   0  0  0  0  0  0  0  0  0  0  0  0
  1  2  1  0
  2  3  2  0
  2  4  1  0
  4  5  1  0
  5  6  1  0
  6  7  1  0
  7  8  2  0
  8  9  1  0
  9 10  1  0
 10 11  2  0
 11 12  1  0
 12 13  1  0
 13 14  2  0
 14 15  1  0
 15 16  2  0
 16 17  1  0
 17 18  2  0
 17 19  1  0
 19 20  2  0
 20 21  1  0
 21 22  2  0
 22 23  1  0
 11 24  1  0
 24 25  2  0
 25 26  1  0
 25 27  1  0
 27 28  2  0
 28  7  1  0
 28 10  1  0
 18 13  1  0
 23 19  1  0
M  END
