CVD-0001309|dock_bobby27042020.53|mol2|10|dock1
     RDKit          3D

 18 18  0  0  0  0  0  0  0  0999 V2000
   14.2123   -1.8245   25.2247 C   0  0  0  0  0  0  0  0  0  0  0  0
   12.8769   -2.4322   24.8379 C   0  0  0  0  0  0  0  0  0  0  0  0
   12.1706   -1.7981   23.6385 C   0  0  0  0  0  0  0  0  0  0  0  0
   12.9057   -1.9059   22.2993 C   0  0  0  0  0  0  0  0  0  0  0  0
   13.8595   -0.7804   21.9511 C   0  0  0  0  0  0  0  0  0  0  0  0
   10.8176   -2.4681   23.4973 C   0  0  0  0  0  0  0  0  0  0  0  0
   10.6750   -3.6151   23.8761 O   0  0  0  0  0  0  0  0  0  0  0  0
    9.7842   -1.7854   22.9648 N   0  0  0  0  0  0  0  0  0  0  0  0
    9.8663   -0.4707   22.3339 C   0  0  0  0  0  0  0  0  0  0  0  0
    9.0947   -0.4733   21.0303 C   0  0  0  0  0  0  0  0  0  0  0  0
    7.6424   -0.8681   21.2684 C   0  0  0  0  0  0  0  0  0  0  0  0
    7.5904   -2.2196   21.9774 C   0  0  0  0  0  0  0  0  0  0  0  0
    8.4124   -2.1838   23.2615 C   0  0  0  0  0  0  0  0  0  0  0  0
    6.8739   -0.9110   19.9667 C   0  0  0  0  0  0  0  0  0  0  0  0
    6.1888   -1.8389   19.6229 O   0  0  0  0  0  0  0  0  0  0  0  0
    7.0749    0.4966   18.9280 S   0  0  0  0  0  0  0  0  0  0  0  0
    5.5640    0.6662   18.0108 C   0  0  0  0  0  0  0  0  0  0  0  0
    4.4613    0.8802   18.8093 F   0  0  0  0  0  0  0  0  0  0  0  0
  1  2  1  0
  2  3  1  0
  3  4  1  0
  4  5  1  0
  3  6  1  0
  6  7  2  0
  6  8  1  0
  8  9  1  0
  9 10  1  0
 10 11  1  0
 11 12  1  0
 12 13  1  0
 11 14  1  0
 14 15  2  0
 14 16  1  0
 16 17  1  0
 17 18  1  0
 13  8  1  0
M  END
