CVD-0000730|dock_bobby27042020.12|mol2|8|dock3
     RDKit          3D

 31 34  0  0  0  0  0  0  0  0999 V2000
    8.5236    7.8457   25.4870 C   0  0  0  0  0  0  0  0  0  0  0  0
    9.6503    7.2578   24.7644 N   0  0  0  0  0  0  0  0  0  0  0  0
    9.2206    6.2650   23.7798 C   0  0  0  0  0  0  0  0  0  0  0  0
   10.4056    5.7122   23.0362 C   0  0  0  0  0  0  0  0  0  0  0  0
   11.3583    5.0933   23.9626 N   0  0  0  0  0  0  0  0  0  0  0  0
   12.4903    4.5026   23.2366 C   0  0  0  0  0  0  0  0  0  0  0  0
   12.0716    3.3735   22.3162 C   0  0  0  0  0  0  0  0  0  0  0  0
   10.9887    2.5888   22.8918 N   0  0  0  0  0  0  0  0  0  0  0  0
   10.1224    1.9047   22.1450 C   0  0  0  0  0  0  0  0  0  0  0  0
   10.1867    1.8957   20.9184 O   0  0  0  0  0  0  0  0  0  0  0  0
    9.0568    1.1488   22.9195 C   0  0  0  0  0  0  0  0  0  0  0  0
    7.9309    0.9413   21.9325 C   0  0  0  0  0  0  0  0  0  0  0  0
    7.7347   -0.5556   21.9020 C   0  0  0  0  0  0  0  0  0  0  0  0
    6.7230   -1.2203   20.9990 C   0  0  0  0  0  0  0  0  0  0  0  0
    6.2639   -0.3410   19.8578 C   0  0  0  0  0  0  0  0  0  0  0  0
    5.0501    0.3243   19.9025 C   0  0  0  0  0  0  0  0  0  0  0  0
    4.6603    1.1182   18.8383 C   0  0  0  0  0  0  0  0  0  0  0  0
    5.5033    1.2211   17.7551 C   0  0  0  0  0  0  0  0  0  0  0  0
    6.6772    0.5921   17.6820 N   0  0  0  0  0  0  0  0  0  0  0  0
    7.0322   -0.1691   18.7217 C   0  0  0  0  0  0  0  0  0  0  0  0
    8.5497   -1.1764   22.7631 C   0  0  0  0  0  0  0  0  0  0  0  0
    9.4750   -0.2025   23.4524 C   0  0  0  0  0  0  0  0  0  0  0  0
   10.9622   -0.4692   23.2771 C   0  0  0  0  0  0  0  0  0  0  0  0
   11.8610   -0.1830   24.2949 C   0  0  0  0  0  0  0  0  0  0  0  0
   13.2140   -0.4297   24.1338 C   0  0  0  0  0  0  0  0  0  0  0  0
   13.6875   -0.9683   22.9493 C   0  0  0  0  0  0  0  0  0  0  0  0
   12.7893   -1.2512   21.9437 C   0  0  0  0  0  0  0  0  0  0  0  0
   13.3703   -1.9295   20.4488 Cl  0  0  0  0  0  0  0  0  0  0  0  0
   11.4388   -1.0099   22.0922 C   0  0  0  0  0  0  0  0  0  0  0  0
   11.7880    6.0861   24.9472 C   0  0  0  0  0  0  0  0  0  0  0  0
   10.6030    6.6389   25.6908 C   0  0  0  0  0  0  0  0  0  0  0  0
  1  2  1  0
  2  3  1  0
  3  4  1  0
  4  5  1  0
  5  6  1  0
  6  7  1  0
  7  8  1  0
  8  9  1  0
  9 10  2  0
 11  9  1  0
 11 12  1  0
 12 13  1  0
 13 14  1  0
 14 15  1  0
 15 16  2  0
 16 17  1  0
 17 18  2  0
 18 19  1  0
 19 20  2  0
 13 21  2  0
 21 22  1  0
 22 23  1  0
 23 24  2  0
 24 25  1  0
 25 26  2  0
 26 27  1  0
 27 28  1  0
 27 29  2  0
  5 30  1  0
 30 31  1  0
 31  2  1  0
 22 11  1  0
 29 23  1  0
 20 15  1  0
M  END
