CVD-0002386|dock_bobby27042020.77|mol2|29|dock3
     RDKit          3D

 26 29  0  0  0  0  0  0  0  0999 V2000
   14.0717   -0.3440   24.7038 F   0  0  0  0  0  0  0  0  0  0  0  0
   13.0110   -0.4995   23.8789 C   0  0  0  0  0  0  0  0  0  0  0  0
   12.2841    0.6006   23.5025 C   0  0  0  0  0  0  0  0  0  0  0  0
   11.2015    0.4354   22.6386 C   0  0  0  0  0  0  0  0  0  0  0  0
   10.4188    1.5242   22.1786 N   0  0  0  0  0  0  0  0  0  0  0  0
   10.7602    2.8798   22.5467 C   0  0  0  0  0  0  0  0  0  0  0  0
   12.0114    3.4025   22.2402 C   0  0  0  0  0  0  0  0  0  0  0  0
   12.3314    4.7014   22.5983 C   0  0  0  0  0  0  0  0  0  0  0  0
   11.4138    5.4869   23.2615 C   0  0  0  0  0  0  0  0  0  0  0  0
   10.1716    4.9764   23.5699 C   0  0  0  0  0  0  0  0  0  0  0  0
    9.8410    3.6788   23.2166 C   0  0  0  0  0  0  0  0  0  0  0  0
    9.2974    1.3619   21.3595 C   0  0  0  0  0  0  0  0  0  0  0  0
    8.6416    2.3309   21.0086 O   0  0  0  0  0  0  0  0  0  0  0  0
    8.9672    0.0556   20.9656 N   0  0  0  0  0  0  0  0  0  0  0  0
    7.8079   -0.1309   20.1117 C   0  0  0  0  0  0  0  0  0  0  0  0
    6.5636    0.3777   20.4628 C   0  0  0  0  0  0  0  0  0  0  0  0
    5.4820    0.1834   19.6222 C   0  0  0  0  0  0  0  0  0  0  0  0
    5.6752   -0.5140   18.4528 C   0  0  0  0  0  0  0  0  0  0  0  0
    6.8562   -1.0146   18.0905 N   0  0  0  0  0  0  0  0  0  0  0  0
    7.8925   -0.8236   18.9129 C   0  0  0  0  0  0  0  0  0  0  0  0
    9.6942   -1.0927   21.3368 C   0  0  0  0  0  0  0  0  0  0  0  0
    9.4001   -2.2144   20.9595 O   0  0  0  0  0  0  0  0  0  0  0  0
   10.8508   -0.8528   22.2069 C   0  0  0  0  0  0  0  0  0  0  0  0
   11.6110   -1.9504   22.6086 C   0  0  0  0  0  0  0  0  0  0  0  0
   12.6842   -1.7580   23.4362 C   0  0  0  0  0  0  0  0  0  0  0  0
   13.4308   -2.8171   23.8242 F   0  0  0  0  0  0  0  0  0  0  0  0
  1  2  1  0
  2  3  2  0
  3  4  1  0
  4  5  1  0
  5  6  1  0
  6  7  2  0
  7  8  1  0
  8  9  2  0
  9 10  1  0
 10 11  2  0
  5 12  1  0
 12 13  2  0
 12 14  1  0
 14 15  1  0
 15 16  2  0
 16 17  1  0
 17 18  2  0
 18 19  1  0
 19 20  2  0
 14 21  1  0
 21 22  2  0
 21 23  1  0
 23 24  1  0
 24 25  2  0
 25 26  1  0
 25  2  1  0
 23  4  2  0
 11  6  1  0
 20 15  1  0
M  END
