CVD-0000079|dock_bobby27042020.85|mol2|33|dock2
     RDKit          3D

 16 17  0  0  0  0  0  0  0  0999 V2000
   13.9904   -2.3956   25.3255 C   0  0  0  0  0  0  0  0  0  0  0  0
   12.8053   -2.1698   24.4467 C   0  0  0  0  0  0  0  0  0  0  0  0
   11.5868   -2.1565   24.8739 N   0  0  0  0  0  0  0  0  0  0  0  0
   10.6509   -1.9350   23.8641 N   0  0  0  0  0  0  0  0  0  0  0  0
   11.2228   -1.7935   22.6978 C   0  0  0  0  0  0  0  0  0  0  0  0
   10.4840   -1.5652   21.5567 N   0  0  0  0  0  0  0  0  0  0  0  0
    9.2226   -0.9714   21.5429 C   0  0  0  0  0  0  0  0  0  0  0  0
    8.7012   -0.6142   22.5954 O   0  0  0  0  0  0  0  0  0  0  0  0
    8.6825   -0.8490   20.2863 N   0  0  0  0  0  0  0  0  0  0  0  0
    7.4408   -0.3067   19.8727 C   0  0  0  0  0  0  0  0  0  0  0  0
    6.3224   -0.2124   20.6946 C   0  0  0  0  0  0  0  0  0  0  0  0
    5.1560    0.3357   20.1894 C   0  0  0  0  0  0  0  0  0  0  0  0
    5.1381    0.7722   18.8847 C   0  0  0  0  0  0  0  0  0  0  0  0
    6.1933    0.6950   18.0739 N   0  0  0  0  0  0  0  0  0  0  0  0
    7.3143    0.1645   18.5709 C   0  0  0  0  0  0  0  0  0  0  0  0
   12.9478   -1.9191   22.7376 S   0  0  0  0  0  0  0  0  0  0  0  0
  1  2  1  0
  2  3  2  0
  3  4  1  0
  4  5  2  0
  5  6  1  0
  6  7  1  0
  7  8  2  0
  7  9  1  0
  9 10  1  0
 10 11  2  0
 11 12  1  0
 12 13  2  0
 13 14  1  0
 14 15  2  0
  5 16  1  0
 16  2  1  0
 15 10  1  0
M  END
