CVD-0002554|dock_bobby27042020.77|mol2|3|dock2
     RDKit          3D

 31 32  0  0  0  0  0  0  0  0999 V2000
    9.3952   -6.8256   26.1479 O   0  0  0  0  0  0  0  0  0  0  0  0
    8.7951   -5.9939   25.2481 C   0  0  0  0  0  0  0  0  0  0  0  0
    8.1566   -4.8432   25.6815 C   0  0  0  0  0  0  0  0  0  0  0  0
    7.5498   -4.0045   24.7636 C   0  0  0  0  0  0  0  0  0  0  0  0
    7.5665   -4.2940   23.4081 C   0  0  0  0  0  0  0  0  0  0  0  0
    6.9053   -3.3722   22.4123 C   0  0  0  0  0  0  0  0  0  0  0  0
    7.8889   -2.4097   21.7296 C   0  0  0  0  0  0  0  0  0  0  0  0
    8.5504   -1.5786   22.7220 N   0  0  0  0  0  0  0  0  0  0  0  0
    9.8724   -1.3498   22.7184 C   0  0  0  0  0  0  0  0  0  0  0  0
   10.6400   -1.8229   21.9059 O   0  0  0  0  0  0  0  0  0  0  0  0
   10.4119   -0.2761   24.0029 S   0  0  0  0  0  0  0  0  0  0  0  0
   11.8088   -0.5076   24.2030 O   0  0  0  0  0  0  0  0  0  0  0  0
    9.5032   -0.4199   25.0978 O   0  0  0  0  0  0  0  0  0  0  0  0
   10.2543    1.2258   23.4499 N   0  0  0  0  0  0  0  0  0  0  0  0
   11.4480    1.9357   22.9749 C   0  0  0  0  0  0  0  0  0  0  0  0
   11.0590    3.2065   22.2413 C   0  0  0  0  0  0  0  0  0  0  0  0
   12.1579    4.2416   22.2432 C   0  0  0  0  0  0  0  0  0  0  0  0
   13.1316    4.2447   21.2563 C   0  0  0  0  0  0  0  0  0  0  0  0
   14.1417    5.1921   21.2594 C   0  0  0  0  0  0  0  0  0  0  0  0
   14.1910    6.1482   22.2509 C   0  0  0  0  0  0  0  0  0  0  0  0
   13.2303    6.1561   23.2390 C   0  0  0  0  0  0  0  0  0  0  0  0
   12.2205    5.2083   23.2350 C   0  0  0  0  0  0  0  0  0  0  0  0
    7.1443   -1.5499   20.7124 C   0  0  0  0  0  0  0  0  0  0  0  0
    5.9411   -1.3385   20.8382 O   0  0  0  0  0  0  0  0  0  0  0  0
    7.8669   -1.0577   19.7064 N   0  0  0  0  0  0  0  0  0  0  0  0
    7.2674   -0.2233   18.6736 C   0  0  0  0  0  0  0  0  0  0  0  0
    6.0732    0.4885   19.1439 C   0  0  0  0  0  0  0  0  0  0  0  0
    5.1214    1.1076   19.4864 C   0  0  0  0  0  0  0  0  0  0  0  0
    3.6850    2.0270   20.0648 Br  0  0  0  0  0  0  0  0  0  0  0  0
    8.2102   -5.4479   22.9891 C   0  0  0  0  0  0  0  0  0  0  0  0
    8.8211   -6.2956   23.8961 C   0  0  0  0  0  0  0  0  0  0  0  0
  1  2  1  0
  2  3  2  0
  3  4  1  0
  4  5  2  0
  5  6  1  0
  6  7  1  0
  7  8  1  0
  8  9  1  0
  9 10  2  0
  9 11  1  0
 11 12  2  0
 11 13  2  0
 11 14  1  0
 14 15  1  0
 15 16  1  0
 16 17  1  0
 17 18  2  0
 18 19  1  0
 19 20  2  0
 20 21  1  0
 21 22  2  0
  7 23  1  0
 23 24  2  0
 23 25  1  0
 25 26  1  0
 26 27  1  0
 27 28  3  0
 28 29  1  0
  5 30  1  0
 30 31  2  0
 31  2  1  0
 22 17  1  0
M  END
