CVD-0003372|dock_bobby27042020.88|mol2|14|dock1
     RDKit          3D

 19 21  0  0  0  0  0  0  0  0999 V2000
   14.6445   -2.0131   25.6811 C   0  0  0  0  0  0  0  0  0  0  0  0
   13.9529   -1.3869   24.5556 N   0  0  0  0  0  0  0  0  0  0  0  0
   12.8871   -0.5029   25.0366 C   0  0  0  0  0  0  0  0  0  0  0  0
   12.1995    0.1758   23.8664 C   0  0  0  0  0  0  0  0  0  0  0  0
   11.6520   -0.8227   22.9456 N   0  0  0  0  0  0  0  0  0  0  0  0
   12.6837   -1.7607   22.4923 C   0  0  0  0  0  0  0  0  0  0  0  0
   13.3714   -2.4036   23.6830 C   0  0  0  0  0  0  0  0  0  0  0  0
   10.3444   -0.8314   22.5559 C   0  0  0  0  0  0  0  0  0  0  0  0
    9.6645    0.1818   22.6667 O   0  0  0  0  0  0  0  0  0  0  0  0
    9.8158   -2.0193   22.0332 N   0  0  0  0  0  0  0  0  0  0  0  0
    8.5139   -2.1729   21.5271 C   0  0  0  0  0  0  0  0  0  0  0  0
    7.6501   -1.2990   20.9534 C   0  0  0  0  0  0  0  0  0  0  0  0
    6.4932   -1.9704   20.6342 N   0  0  0  0  0  0  0  0  0  0  0  0
    6.5896   -3.2838   20.9947 C   0  0  0  0  0  0  0  0  0  0  0  0
    5.7012   -4.2812   20.8670 N   0  0  0  0  0  0  0  0  0  0  0  0
    6.1181   -5.4682   21.3306 C   0  0  0  0  0  0  0  0  0  0  0  0
    7.3685   -5.6513   21.8972 C   0  0  0  0  0  0  0  0  0  0  0  0
    8.2630   -4.6597   22.0289 N   0  0  0  0  0  0  0  0  0  0  0  0
    7.8696   -3.4616   21.5725 C   0  0  0  0  0  0  0  0  0  0  0  0
  1  2  1  0
  2  3  1  0
  3  4  1  0
  4  5  1  0
  5  6  1  0
  6  7  1  0
  5  8  1  0
  8  9  2  0
  8 10  1  0
 10 11  1  0
 11 12  2  0
 12 13  1  0
 13 14  1  0
 14 15  2  0
 15 16  1  0
 16 17  2  0
 17 18  1  0
 18 19  2  0
  7  2  1  0
 19 11  1  0
 19 14  1  0
M  END
