CVD-0000206|dock_bobby27042020.99|mol2|22|dock1
     RDKit          3D

 24 27  0  0  0  0  0  0  0  0999 V2000
    9.2935   -5.5434   27.5768 C   0  0  0  0  0  0  0  0  0  0  0  0
    9.6498   -4.7838   26.3425 C   0  0  0  0  0  0  0  0  0  0  0  0
    9.0643   -3.6828   25.9641 N   0  0  0  0  0  0  0  0  0  0  0  0
    9.5908   -3.2018   24.7771 C   0  0  0  0  0  0  0  0  0  0  0  0
   10.5814   -3.9659   24.2765 C   0  0  0  0  0  0  0  0  0  0  0  0
   10.8899   -5.3259   25.2729 S   0  0  0  0  0  0  0  0  0  0  0  0
    9.0492   -1.9332   24.1816 C   0  0  0  0  0  0  0  0  0  0  0  0
    9.8123   -0.7536   24.5297 N   0  0  0  0  0  0  0  0  0  0  0  0
   11.0267   -0.5611   23.8917 C   0  0  0  0  0  0  0  0  0  0  0  0
   12.0317    0.2144   24.4629 C   0  0  0  0  0  0  0  0  0  0  0  0
   13.2412    0.3636   23.8045 C   0  0  0  0  0  0  0  0  0  0  0  0
   13.4623   -0.2471   22.5888 C   0  0  0  0  0  0  0  0  0  0  0  0
   12.4739   -1.0212   22.0070 C   0  0  0  0  0  0  0  0  0  0  0  0
   11.2499   -1.1845   22.6522 C   0  0  0  0  0  0  0  0  0  0  0  0
   10.1479   -1.8896   21.9793 C   0  0  0  0  0  0  0  0  0  0  0  0
   10.2147   -2.2742   20.8248 O   0  0  0  0  0  0  0  0  0  0  0  0
    8.9941   -1.9920   22.7103 N   0  0  0  0  0  0  0  0  0  0  0  0
    7.9117   -2.8490   22.2225 C   0  0  0  0  0  0  0  0  0  0  0  0
    7.3978   -2.4967   20.8457 C   0  0  0  0  0  0  0  0  0  0  0  0
    7.5802   -1.2267   20.3238 C   0  0  0  0  0  0  0  0  0  0  0  0
    7.0999   -0.9221   19.0624 C   0  0  0  0  0  0  0  0  0  0  0  0
    6.4458   -1.9058   18.3564 C   0  0  0  0  0  0  0  0  0  0  0  0
    6.2532   -3.1371   18.8309 N   0  0  0  0  0  0  0  0  0  0  0  0
    6.7258   -3.4080   20.0514 C   0  0  0  0  0  0  0  0  0  0  0  0
  1  2  1  0
  2  3  2  0
  3  4  1  0
  4  5  2  0
  5  6  1  0
  4  7  1  0
  7  8  1  0
  8  9  1  0
  9 10  2  0
 10 11  1  0
 11 12  2  0
 12 13  1  0
 13 14  2  0
 14 15  1  0
 15 16  2  0
 15 17  1  0
 17 18  1  0
 18 19  1  0
 19 20  2  0
 20 21  1  0
 21 22  2  0
 22 23  1  0
 23 24  2  0
  6  2  1  0
 17  7  1  0
 24 19  1  0
 14  9  1  0
M  END
