CVD-0001567|dock_bobby27042020.52|mol2|16|dock2
     RDKit          3D

 17 19  0  0  0  0  0  0  0  0999 V2000
   14.5210   -1.8257   25.6850 C   0  0  0  0  0  0  0  0  0  0  0  0
   13.6411   -0.7771   25.2845 O   0  0  0  0  0  0  0  0  0  0  0  0
   12.9018   -0.8878   24.1328 C   0  0  0  0  0  0  0  0  0  0  0  0
   13.3187   -1.6881   23.0753 C   0  0  0  0  0  0  0  0  0  0  0  0
   12.5538   -1.7818   21.9252 C   0  0  0  0  0  0  0  0  0  0  0  0
   11.3625   -1.0681   21.8351 C   0  0  0  0  0  0  0  0  0  0  0  0
   10.4379   -1.0015   20.8011 N   0  0  0  0  0  0  0  0  0  0  0  0
    9.4285   -0.1684   21.1764 C   0  0  0  0  0  0  0  0  0  0  0  0
    8.2541    0.3299   20.6815 N   0  0  0  0  0  0  0  0  0  0  0  0
    7.6064    1.2299   21.6452 C   0  0  0  0  0  0  0  0  0  0  0  0
    8.5520    1.2340   22.8458 C   0  0  0  0  0  0  0  0  0  0  0  0
    9.6906    0.3168   22.4670 C   0  0  0  0  0  0  0  0  0  0  0  0
   10.9386   -0.2554   22.9086 C   0  0  0  0  0  0  0  0  0  0  0  0
   11.7152   -0.1718   24.0532 C   0  0  0  0  0  0  0  0  0  0  0  0
    7.6442    0.0814   19.4208 C   0  0  0  0  0  0  0  0  0  0  0  0
    6.3326    0.7384   19.1055 C   0  0  0  0  0  0  0  0  0  0  0  0
    8.1952   -0.6716   18.6258 O   0  0  0  0  0  0  0  0  0  0  0  0
  1  2  1  0
  2  3  1  0
  3  4  2  0
  4  5  1  0
  5  6  2  0
  6  7  1  0
  7  8  1  0
  8  9  1  0
  9 10  1  0
 10 11  1  0
 11 12  1  0
 12 13  1  0
 13 14  2  0
  9 15  1  0
 15 16  1  0
 15 17  2  0
 14  3  1  0
 13  6  1  0
 12  8  2  0
M  END
