CVD-0002071|dock_bobby27042020.79|mol2|2|dock1
     RDKit          3D

 25 25  0  0  0  0  0  0  0  0999 V2000
    2.4069    3.5582   19.3610 C   0  0  0  0  0  0  0  0  0  0  0  0
    3.6713    2.7503   19.3561 C   0  0  0  0  0  0  0  0  0  0  0  0
    4.4114    2.6966   20.3334 O   0  0  0  0  0  0  0  0  0  0  0  0
    3.9357    2.0800   18.2330 N   0  0  0  0  0  0  0  0  0  0  0  0
    5.1143    1.2388   18.0802 C   0  0  0  0  0  0  0  0  0  0  0  0
    5.2582    0.2410   19.2123 C   0  0  0  0  0  0  0  0  0  0  0  0
    6.1140   -0.9595   18.8340 C   0  0  0  0  0  0  0  0  0  0  0  0
    6.2620   -1.9577   19.9562 C   0  0  0  0  0  0  0  0  0  0  0  0
    5.6948   -3.0455   19.9259 O   0  0  0  0  0  0  0  0  0  0  0  0
    7.0398   -1.5822   20.9679 N   0  0  0  0  0  0  0  0  0  0  0  0
    7.2647   -2.4466   22.1062 C   0  0  0  0  0  0  0  0  0  0  0  0
    8.6048   -2.2124   22.7760 C   0  0  0  0  0  0  0  0  0  0  0  0
    8.6833   -2.0715   23.9925 O   0  0  0  0  0  0  0  0  0  0  0  0
    9.6640   -2.1790   21.9722 N   0  0  0  0  0  0  0  0  0  0  0  0
   10.9961   -1.9545   22.4749 C   0  0  0  0  0  0  0  0  0  0  0  0
   11.1514   -0.6007   23.0217 N   0  0  0  0  0  0  0  0  0  0  0  0
   10.4061    0.3678   22.2122 C   0  0  0  0  0  0  0  0  0  0  0  0
   10.5364    1.7586   22.8052 C   0  0  0  0  0  0  0  0  0  0  0  0
   11.9455    2.1484   22.8905 N   0  0  0  0  0  0  0  0  0  0  0  0
   12.7313    1.1668   23.6448 C   0  0  0  0  0  0  0  0  0  0  0  0
   12.5607   -0.2174   23.0459 C   0  0  0  0  0  0  0  0  0  0  0  0
   12.4219    3.2909   22.3551 C   0  0  0  0  0  0  0  0  0  0  0  0
   11.6944    4.0804   21.7659 O   0  0  0  0  0  0  0  0  0  0  0  0
   13.9053    3.5559   22.5230 C   0  0  0  0  0  0  0  0  0  0  0  0
   14.3714    5.0682   21.7337 Cl  0  0  0  0  0  0  0  0  0  0  0  0
  1  2  1  0
  2  3  2  0
  2  4  1  0
  4  5  1  0
  5  6  1  0
  6  7  1  0
  7  8  1  0
  8  9  2  0
  8 10  1  0
 10 11  1  0
 11 12  1  0
 12 13  2  0
 12 14  1  0
 14 15  1  0
 15 16  1  0
 16 17  1  0
 17 18  1  0
 18 19  1  0
 19 20  1  0
 20 21  1  0
 19 22  1  0
 22 23  2  0
 22 24  1  0
 24 25  1  0
 21 16  1  0
M  END
