CVD-0003414|dock_bobby27042020.88|mol2|8|dock3
     RDKit          3D

 20 22  0  0  0  0  0  0  0  0999 V2000
    6.6417   -1.6847   22.7876 Cl  0  0  0  0  0  0  0  0  0  0  0  0
    6.1688   -0.8410   21.3473 C   0  0  0  0  0  0  0  0  0  0  0  0
    4.8783   -0.5781   21.2551 N   0  0  0  0  0  0  0  0  0  0  0  0
    4.4406    0.0647   20.1691 C   0  0  0  0  0  0  0  0  0  0  0  0
    5.3105    0.4968   19.1795 C   0  0  0  0  0  0  0  0  0  0  0  0
    5.1358    1.1897   18.0057 N   0  0  0  0  0  0  0  0  0  0  0  0
    6.3587    1.3981   17.4185 C   0  0  0  0  0  0  0  0  0  0  0  0
    7.3352    0.8418   18.1731 C   0  0  0  0  0  0  0  0  0  0  0  0
    6.6907    0.2279   19.3025 C   0  0  0  0  0  0  0  0  0  0  0  0
    7.1410   -0.5144   20.4185 C   0  0  0  0  0  0  0  0  0  0  0  0
    8.5098   -0.9066   20.6098 N   0  0  0  0  0  0  0  0  0  0  0  0
    9.2623   -0.6722   21.7362 C   0  0  0  0  0  0  0  0  0  0  0  0
    8.8547   -0.0896   22.7352 O   0  0  0  0  0  0  0  0  0  0  0  0
   10.5368   -1.1654   21.5813 N   0  0  0  0  0  0  0  0  0  0  0  0
   11.6530   -1.1449   22.4557 C   0  0  0  0  0  0  0  0  0  0  0  0
   12.7479   -1.9347   22.1233 C   0  0  0  0  0  0  0  0  0  0  0  0
   13.8704   -1.9608   22.9335 C   0  0  0  0  0  0  0  0  0  0  0  0
   13.9152   -1.2021   24.0819 C   0  0  0  0  0  0  0  0  0  0  0  0
   12.8368   -0.4156   24.4225 C   0  0  0  0  0  0  0  0  0  0  0  0
   11.7082   -0.3813   23.6200 C   0  0  0  0  0  0  0  0  0  0  0  0
  1  2  1  0
  2  3  2  0
  3  4  1  0
  4  5  2  0
  5  6  1  0
  6  7  1  0
  7  8  2  0
  8  9  1  0
  9 10  2  0
 10 11  1  0
 11 12  1  0
 12 13  2  0
 12 14  1  0
 14 15  1  0
 15 16  2  0
 16 17  1  0
 17 18  2  0
 18 19  1  0
 19 20  2  0
 10  2  1  0
 20 15  1  0
  9  5  1  0
M  END
