CVD-0000740|dock_bobby27042020.69|mol2|20|dock3
     RDKit          3D

 15 16  0  0  0  0  0  0  0  0999 V2000
   10.0685    1.0020   22.9631 O   0  0  0  0  0  0  0  0  0  0  0  0
   11.2212    0.6824   22.6925 C   0  0  0  0  0  0  0  0  0  0  0  0
   11.5775   -0.7693   22.4517 C   0  0  0  0  0  0  0  0  0  0  0  0
   12.7020   -1.2091   23.3483 C   0  0  0  0  0  0  0  0  0  0  0  0
   13.0424   -0.5923   24.5769 C   0  0  0  0  0  0  0  0  0  0  0  0
   14.0945   -1.1680   25.2228 C   0  0  0  0  0  0  0  0  0  0  0  0
   14.6748   -2.4815   24.3156 S   0  0  0  0  0  0  0  0  0  0  0  0
   13.5200   -2.2656   23.0863 C   0  0  0  0  0  0  0  0  0  0  0  0
   12.2734    1.5303   22.5914 N   0  0  0  0  0  0  0  0  0  0  0  0
   12.3631    2.9354   22.7533 C   0  0  0  0  0  0  0  0  0  0  0  0
   13.5956    3.5537   22.5870 C   0  0  0  0  0  0  0  0  0  0  0  0
   13.7006    4.9247   22.7417 C   0  0  0  0  0  0  0  0  0  0  0  0
   12.5693    5.6399   23.0589 C   0  0  0  0  0  0  0  0  0  0  0  0
   11.3726    5.0765   23.2251 N   0  0  0  0  0  0  0  0  0  0  0  0
   11.2806    3.7516   23.0734 C   0  0  0  0  0  0  0  0  0  0  0  0
  1  2  2  0
  2  3  1  0
  3  4  1  0
  4  5  1  0
  5  6  2  0
  6  7  1  0
  7  8  1  0
  2  9  1  0
  9 10  1  0
 10 11  2  0
 11 12  1  0
 12 13  2  0
 13 14  1  0
 14 15  2  0
  8  4  2  0
 15 10  1  0
M  END
