CVD-0002510|dock_bobby27042020.63|mol2|9|dock3
     RDKit          3D

 18 19  0  0  0  0  0  0  0  0999 V2000
   13.7908   -1.8258   20.8581 C   0  0  0  0  0  0  0  0  0  0  0  0
   12.9910   -1.5303   22.1034 C   0  0  0  0  0  0  0  0  0  0  0  0
   13.4804   -0.6729   23.0765 C   0  0  0  0  0  0  0  0  0  0  0  0
   12.7421   -0.4022   24.2163 C   0  0  0  0  0  0  0  0  0  0  0  0
   11.5006   -0.9884   24.3939 C   0  0  0  0  0  0  0  0  0  0  0  0
   10.9878   -1.8471   23.4350 C   0  0  0  0  0  0  0  0  0  0  0  0
    9.6367   -2.4948   23.6176 C   0  0  0  0  0  0  0  0  0  0  0  0
    8.4701   -1.7298   22.9802 C   0  0  0  0  0  0  0  0  0  0  0  0
    8.8214   -1.1483   21.6125 C   0  0  0  0  0  0  0  0  0  0  0  0
    7.6326   -0.4864   20.9453 C   0  0  0  0  0  0  0  0  0  0  0  0
    6.4902   -1.4040   20.8902 N   0  0  0  0  0  0  0  0  0  0  0  0
    6.0709   -1.8726   22.2061 C   0  0  0  0  0  0  0  0  0  0  0  0
    7.2221   -2.5962   22.8690 C   0  0  0  0  0  0  0  0  0  0  0  0
    5.7944   -1.7289   19.7798 C   0  0  0  0  0  0  0  0  0  0  0  0
    4.8550   -2.5134   19.8209 O   0  0  0  0  0  0  0  0  0  0  0  0
    6.2151   -1.0798   18.4750 C   0  0  0  0  0  0  0  0  0  0  0  0
    6.0157    0.6766   18.5295 Cl  0  0  0  0  0  0  0  0  0  0  0  0
   11.7448   -2.1063   22.2997 C   0  0  0  0  0  0  0  0  0  0  0  0
  1  2  1  0
  2  3  2  0
  3  4  1  0
  4  5  2  0
  5  6  1  0
  6  7  1  0
  7  8  1  0
  8  9  1  0
  9 10  1  0
 10 11  1  0
 11 12  1  0
 12 13  1  0
 11 14  1  0
 14 15  2  0
 14 16  1  0
 16 17  1  0
  6 18  2  0
 18  2  1  0
 13  8  1  0
M  END
