CVD-0001100|dock_bobby27042020.68|mol2|12|dock2
     RDKit          3D

 17 18  0  0  0  0  0  0  0  0999 V2000
    7.9773   -0.8080   19.3083 C   0  0  0  0  0  0  0  0  0  0  0  0
    8.2416   -1.3108   20.6971 C   0  0  0  0  0  0  0  0  0  0  0  0
    7.3868   -1.2690   21.5765 O   0  0  0  0  0  0  0  0  0  0  0  0
    9.4657   -1.7908   20.9250 N   0  0  0  0  0  0  0  0  0  0  0  0
    9.8802   -2.2988   22.2249 C   0  0  0  0  0  0  0  0  0  0  0  0
    9.9780   -1.1945   23.2584 C   0  0  0  0  0  0  0  0  0  0  0  0
   11.1805   -0.3173   23.0675 C   0  0  0  0  0  0  0  0  0  0  0  0
   12.4877   -0.7023   23.0138 C   0  0  0  0  0  0  0  0  0  0  0  0
   13.2972    0.3852   22.8281 N   0  0  0  0  0  0  0  0  0  0  0  0
   12.5167    1.5130   22.7569 C   0  0  0  0  0  0  0  0  0  0  0  0
   12.8550    2.8502   22.5778 C   0  0  0  0  0  0  0  0  0  0  0  0
   11.8470    3.7981   22.5444 C   0  0  0  0  0  0  0  0  0  0  0  0
   10.5142    3.4200   22.6877 C   0  0  0  0  0  0  0  0  0  0  0  0
   10.1771    2.0792   22.8671 C   0  0  0  0  0  0  0  0  0  0  0  0
   11.1765    1.1084   22.9039 C   0  0  0  0  0  0  0  0  0  0  0  0
    9.4730    4.4170   22.6512 C   0  0  0  0  0  0  0  0  0  0  0  0
    8.6647    5.2225   22.5981 N   0  0  0  0  0  0  0  0  0  0  0  0
  1  2  1  0
  2  3  2  0
  2  4  1  0
  4  5  1  0
  5  6  1  0
  6  7  1  0
  7  8  2  0
  8  9  1  0
  9 10  1  0
 10 11  2  0
 11 12  1  0
 12 13  2  0
 13 14  1  0
 14 15  2  0
 13 16  1  0
 16 17  3  0
 15  7  1  0
 15 10  1  0
M  END
