CVD-0002660|dock_bobby27042020.90|mol2|33|dock1
     RDKit          3D

 26 28  0  0  0  0  0  0  0  0999 V2000
    9.4421   -6.1082   23.7369 O   0  0  0  0  0  0  0  0  0  0  0  0
    8.8414   -5.3767   24.8024 C   0  0  0  0  0  0  0  0  0  0  0  0
    8.6661   -3.9014   24.4524 C   0  0  0  0  0  0  0  0  0  0  0  0
   10.0434   -3.3326   24.1748 C   0  0  0  0  0  0  0  0  0  0  0  0
    9.9835   -1.8922   23.6944 C   0  0  0  0  0  0  0  0  0  0  0  0
    9.9702   -1.7986   22.2416 N   0  0  0  0  0  0  0  0  0  0  0  0
    8.8698   -1.4135   21.5655 C   0  0  0  0  0  0  0  0  0  0  0  0
    7.8213   -1.1212   22.1345 O   0  0  0  0  0  0  0  0  0  0  0  0
    8.9968   -1.3706   20.2210 N   0  0  0  0  0  0  0  0  0  0  0  0
    7.8805   -1.0573   19.3285 C   0  0  0  0  0  0  0  0  0  0  0  0
    6.7416   -2.0867   19.4780 C   0  0  0  0  0  0  0  0  0  0  0  0
    5.5305   -1.7462   18.6115 C   0  0  0  0  0  0  0  0  0  0  0  0
    5.0369   -0.3304   18.8800 C   0  0  0  0  0  0  0  0  0  0  0  0
    6.1565    0.6848   18.7002 C   0  0  0  0  0  0  0  0  0  0  0  0
    7.3458    0.3596   19.5980 C   0  0  0  0  0  0  0  0  0  0  0  0
    8.0043   -3.2225   25.5067 O   0  0  0  0  0  0  0  0  0  0  0  0
    8.7364   -3.2780   26.7423 C   0  0  0  0  0  0  0  0  0  0  0  0
    8.9740   -4.7097   27.1974 C   0  0  0  0  0  0  0  0  0  0  0  0
    9.6610   -5.4922   26.0764 C   0  0  0  0  0  0  0  0  0  0  0  0
    9.8167   -6.8618   26.4352 O   0  0  0  0  0  0  0  0  0  0  0  0
    7.6585   -5.3509   27.5909 C   0  0  0  0  0  0  0  0  0  0  0  0
    7.5873   -6.5598   28.2619 C   0  0  0  0  0  0  0  0  0  0  0  0
    6.4406   -7.1425   28.6216 N   0  0  0  0  0  0  0  0  0  0  0  0
    5.3369   -6.4795   28.2920 C   0  0  0  0  0  0  0  0  0  0  0  0
    5.2606   -5.3166   27.6527 N   0  0  0  0  0  0  0  0  0  0  0  0
    6.4318   -4.7721   27.3133 C   0  0  0  0  0  0  0  0  0  0  0  0
  1  2  1  0
  2  3  1  0
  3  4  1  0
  4  5  1  0
  5  6  1  0
  6  7  1  0
  7  8  2  0
  7  9  1  0
  9 10  1  0
 10 11  1  0
 11 12  1  0
 12 13  1  0
 13 14  1  0
 14 15  1  0
  3 16  1  0
 16 17  1  0
 17 18  1  0
 18 19  1  0
 19 20  1  0
 18 21  1  0
 21 22  2  0
 22 23  1  0
 23 24  2  0
 24 25  1  0
 25 26  2  0
 19  2  1  0
 26 21  1  0
 15 10  1  0
M  END
