CVD-0002352|dock_bobby27042020.6|mol2|15|dock3
     RDKit          3D

 15 15  0  0  0  0  0  0  0  0999 V2000
   11.6328    0.2885   25.1020 N   0  0  0  0  0  0  0  0  0  0  0  0
   11.2925   -0.0288   23.8533 C   0  0  0  0  0  0  0  0  0  0  0  0
   10.5340    1.0316   23.1035 C   0  0  0  0  0  0  0  0  0  0  0  0
   11.3378    2.2840   22.8364 C   0  0  0  0  0  0  0  0  0  0  0  0
   10.7283    3.5240   22.7378 C   0  0  0  0  0  0  0  0  0  0  0  0
   11.4834    4.6566   22.4964 C   0  0  0  0  0  0  0  0  0  0  0  0
   12.8594    4.5043   22.3592 C   0  0  0  0  0  0  0  0  0  0  0  0
   13.4804    3.3130   22.4511 N   0  0  0  0  0  0  0  0  0  0  0  0
   12.7115    2.2431   22.6857 C   0  0  0  0  0  0  0  0  0  0  0  0
   13.7060    5.6534   22.1046 C   0  0  0  0  0  0  0  0  0  0  0  0
   14.4036    6.5364   21.9083 N   0  0  0  0  0  0  0  0  0  0  0  0
   11.5981   -1.2271   23.2683 C   0  0  0  0  0  0  0  0  0  0  0  0
   12.3505   -2.3782   23.8982 C   0  0  0  0  0  0  0  0  0  0  0  0
   13.7068   -2.0553   24.1277 C   0  0  0  0  0  0  0  0  0  0  0  0
   14.4066   -2.1428   25.2185 C   0  0  0  0  0  0  0  0  0  0  0  0
  1  2  1  0
  2  3  1  0
  3  4  1  0
  4  5  2  0
  5  6  1  0
  6  7  2  0
  7  8  1  0
  8  9  2  0
  7 10  1  0
 10 11  3  0
  2 12  2  0
 12 13  1  0
 13 14  1  0
 14 15  2  0
  9  4  1  0
M  END
