CVD-0004043|dock_bobby27042020.0|mol2|6|dock2
     RDKit          3D

 23 26  0  0  0  0  0  0  0  0999 V2000
   13.4644    0.4843   24.0281 C   0  0  0  0  0  0  0  0  0  0  0  0
   12.4960   -0.2808   23.1826 C   0  0  0  0  0  0  0  0  0  0  0  0
   11.2516   -0.8132   23.5384 C   0  0  0  0  0  0  0  0  0  0  0  0
   10.7499   -1.4317   22.4101 C   0  0  0  0  0  0  0  0  0  0  0  0
   11.6857   -1.2397   21.4512 N   0  0  0  0  0  0  0  0  0  0  0  0
   12.7612   -0.5428   21.9047 N   0  0  0  0  0  0  0  0  0  0  0  0
    9.5107   -2.1487   22.1546 C   0  0  0  0  0  0  0  0  0  0  0  0
    8.8361   -3.1683   22.8199 C   0  0  0  0  0  0  0  0  0  0  0  0
    7.6914   -3.5199   22.1288 N   0  0  0  0  0  0  0  0  0  0  0  0
    7.6365   -2.7246   21.0666 C   0  0  0  0  0  0  0  0  0  0  0  0
    6.6807   -2.6429   20.0305 C   0  0  0  0  0  0  0  0  0  0  0  0
    6.8280   -1.7405   19.0182 C   0  0  0  0  0  0  0  0  0  0  0  0
    5.8163   -1.6329   17.9109 C   0  0  0  0  0  0  0  0  0  0  0  0
    7.9587   -0.8832   19.0315 C   0  0  0  0  0  0  0  0  0  0  0  0
    8.8787   -0.9465   20.0117 C   0  0  0  0  0  0  0  0  0  0  0  0
    8.7233   -1.8637   21.0340 N   0  0  0  0  0  0  0  0  0  0  0  0
    9.0975   -3.9059   24.0748 C   0  0  0  0  0  0  0  0  0  0  0  0
   10.3829   -4.2052   24.5155 C   0  0  0  0  0  0  0  0  0  0  0  0
   10.5899   -4.9223   25.6805 C   0  0  0  0  0  0  0  0  0  0  0  0
    9.4996   -5.3110   26.4090 C   0  0  0  0  0  0  0  0  0  0  0  0
    9.6982   -6.0171   27.5547 F   0  0  0  0  0  0  0  0  0  0  0  0
    8.2179   -5.0175   26.0330 C   0  0  0  0  0  0  0  0  0  0  0  0
    8.0230   -4.3100   24.8603 C   0  0  0  0  0  0  0  0  0  0  0  0
  1  2  1  0
  2  3  1  0
  3  4  2  0
  4  5  1  0
  5  6  1  0
  4  7  1  0
  7  8  2  0
  8  9  1  0
  9 10  2  0
 10 11  1  0
 11 12  2  0
 12 13  1  0
 12 14  1  0
 14 15  2  0
 15 16  1  0
  8 17  1  0
 17 18  2  0
 18 19  1  0
 19 20  2  0
 20 21  1  0
 20 22  1  0
 22 23  2  0
  6  2  2  0
 16  7  1  0
 23 17  1  0
 16 10  1  0
M  END
