CVD-0003583|dock_bobby27042020.30|mol2|27|dock1
     RDKit          3D

 28 29  0  0  0  0  0  0  0  0999 V2000
    5.2842   -4.3994   24.1351 C   0  0  0  0  0  0  0  0  0  0  0  0
    5.2799   -5.2000   22.9140 N   0  0  0  0  0  0  0  0  0  0  0  0
    4.1129   -6.0699   22.7910 C   0  0  0  0  0  0  0  0  0  0  0  0
    6.3174   -5.1153   22.0603 C   0  0  0  0  0  0  0  0  0  0  0  0
    6.2853   -5.7959   21.0495 O   0  0  0  0  0  0  0  0  0  0  0  0
    7.5275   -4.2354   22.2348 C   0  0  0  0  0  0  0  0  0  0  0  0
    8.6053   -4.5014   23.0785 C   0  0  0  0  0  0  0  0  0  0  0  0
    9.6503   -3.6027   23.1906 C   0  0  0  0  0  0  0  0  0  0  0  0
    9.6856   -2.4248   22.4522 C   0  0  0  0  0  0  0  0  0  0  0  0
   10.8444   -1.4703   22.6020 C   0  0  0  0  0  0  0  0  0  0  0  0
   11.8181   -1.6225   21.5146 N   0  0  0  0  0  0  0  0  0  0  0  0
   13.3862   -1.5481   21.8398 S   0  0  0  0  0  0  0  0  0  0  0  0
   13.6735   -0.0700   22.7339 C   0  0  0  0  0  0  0  0  0  0  0  0
   14.0697   -1.4490   20.5872 O   0  0  0  0  0  0  0  0  0  0  0  0
   13.6892   -2.6518   22.6975 O   0  0  0  0  0  0  0  0  0  0  0  0
    8.6309   -2.1603   21.5734 C   0  0  0  0  0  0  0  0  0  0  0  0
    8.6147   -0.9077   20.7294 C   0  0  0  0  0  0  0  0  0  0  0  0
    7.3387   -0.7087   20.0262 N   0  0  0  0  0  0  0  0  0  0  0  0
    6.3390   -0.1342   20.9313 C   0  0  0  0  0  0  0  0  0  0  0  0
    5.0129    0.0308   20.2122 C   0  0  0  0  0  0  0  0  0  0  0  0
    5.1739    0.8811   19.0307 N   0  0  0  0  0  0  0  0  0  0  0  0
    6.2115    0.3647   18.1327 C   0  0  0  0  0  0  0  0  0  0  0  0
    7.5177    0.1848   18.8847 C   0  0  0  0  0  0  0  0  0  0  0  0
    4.4200    1.9847   18.8120 C   0  0  0  0  0  0  0  0  0  0  0  0
    4.5810    2.6817   17.8179 O   0  0  0  0  0  0  0  0  0  0  0  0
    3.3522    2.3460   19.8269 C   0  0  0  0  0  0  0  0  0  0  0  0
    2.3639    3.7124   19.2945 Cl  0  0  0  0  0  0  0  0  0  0  0  0
    7.5779   -3.0649   21.4827 C   0  0  0  0  0  0  0  0  0  0  0  0
  1  2  1  0
  2  3  1  0
  2  4  1  0
  4  5  2  0
  4  6  1  0
  6  7  2  0
  7  8  1  0
  8  9  2  0
  9 10  1  0
 10 11  1  0
 11 12  1  0
 12 13  1  0
 12 14  2  0
 12 15  2  0
  9 16  1  0
 16 17  1  0
 17 18  1  0
 18 19  1  0
 19 20  1  0
 20 21  1  0
 21 22  1  0
 22 23  1  0
 21 24  1  0
 24 25  2  0
 24 26  1  0
 26 27  1  0
 16 28  2  0
 28  6  1  0
 23 18  1  0
M  END
