CVD-0003787|dock_bobby27042020.15|mol2|29|dock1
     RDKit          3D

 24 26  0  0  0  0  0  0  0  0999 V2000
   13.6686    5.7432   21.5509 N   0  0  0  0  0  0  0  0  0  0  0  0
   13.5500    5.0734   23.0002 S   0  0  0  0  0  0  0  0  0  0  0  0
   14.8829    4.8603   23.4786 O   0  0  0  0  0  0  0  0  0  0  0  0
   12.6602    5.8885   23.7718 O   0  0  0  0  0  0  0  0  0  0  0  0
   12.7926    3.4866   22.8235 C   0  0  0  0  0  0  0  0  0  0  0  0
   11.4163    3.3679   22.8904 C   0  0  0  0  0  0  0  0  0  0  0  0
   10.8278    2.1230   22.7555 C   0  0  0  0  0  0  0  0  0  0  0  0
   11.5972    0.9781   22.5650 C   0  0  0  0  0  0  0  0  0  0  0  0
   12.9805    1.1242   22.4992 C   0  0  0  0  0  0  0  0  0  0  0  0
   13.5782    2.3655   22.6265 C   0  0  0  0  0  0  0  0  0  0  0  0
   11.0215   -0.2802   22.4398 N   0  0  0  0  0  0  0  0  0  0  0  0
   11.6301   -1.4924   22.9960 C   0  0  0  0  0  0  0  0  0  0  0  0
   10.6270   -2.3487   23.7159 C   0  0  0  0  0  0  0  0  0  0  0  0
    9.4560   -2.7143   22.7972 C   0  0  0  0  0  0  0  0  0  0  0  0
    8.4388   -3.5790   23.5069 C   0  0  0  0  0  0  0  0  0  0  0  0
    7.5034   -4.0804   22.5244 O   0  0  0  0  0  0  0  0  0  0  0  0
    6.4998   -4.8913   22.9371 C   0  0  0  0  0  0  0  0  0  0  0  0
    6.1180   -5.2565   24.1811 C   0  0  0  0  0  0  0  0  0  0  0  0
    5.0213   -6.1186   24.1709 C   0  0  0  0  0  0  0  0  0  0  0  0
    4.5906   -6.3921   22.9235 C   0  0  0  0  0  0  0  0  0  0  0  0
    3.1577   -7.4936   22.4371 Br  0  0  0  0  0  0  0  0  0  0  0  0
    5.5116   -5.6045   21.7110 S   0  0  0  0  0  0  0  0  0  0  0  0
    8.8559   -1.4440   22.2494 C   0  0  0  0  0  0  0  0  0  0  0  0
    9.8706   -0.5640   21.5514 C   0  0  0  0  0  0  0  0  0  0  0  0
  1  2  1  0
  2  3  2  0
  2  4  2  0
  2  5  1  0
  5  6  2  0
  6  7  1  0
  7  8  2  0
  8  9  1  0
  9 10  2  0
  8 11  1  0
 11 12  1  0
 12 13  1  0
 13 14  1  0
 14 15  1  0
 15 16  1  0
 16 17  1  0
 17 18  2  0
 18 19  1  0
 19 20  2  0
 20 21  1  0
 20 22  1  0
 14 23  1  0
 23 24  1  0
 10  5  1  0
 24 11  1  0
 22 17  1  0
M  END
