CVD-0001182|dock_bobby27042020.39|mol2|7|dock1
     RDKit          3D

 21 23  0  0  0  0  0  0  0  0999 V2000
    6.6870   -1.4905   22.9052 O   0  0  0  0  0  0  0  0  0  0  0  0
    7.9263   -1.8690   22.7220 C   0  0  0  0  0  0  0  0  0  0  0  0
    8.5567   -2.5092   23.5343 O   0  0  0  0  0  0  0  0  0  0  0  0
    8.4986   -1.4389   21.3772 C   0  0  0  0  0  0  0  0  0  0  0  0
    8.3330    0.0664   21.1213 C   0  0  0  0  0  0  0  0  0  0  0  0
    7.1480    0.4182   20.3087 C   0  0  0  0  0  0  0  0  0  0  0  0
    7.2167    0.3863   18.9763 N   0  0  0  0  0  0  0  0  0  0  0  0
    6.0882    0.7279   18.2463 C   0  0  0  0  0  0  0  0  0  0  0  0
    6.1447    0.6992   17.0077 O   0  0  0  0  0  0  0  0  0  0  0  0
    4.8873    1.1050   18.9529 C   0  0  0  0  0  0  0  0  0  0  0  0
    4.8942    1.1165   20.2974 C   0  0  0  0  0  0  0  0  0  0  0  0
    6.0188    0.7756   20.9700 N   0  0  0  0  0  0  0  0  0  0  0  0
    9.9156   -1.8054   21.3231 N   0  0  0  0  0  0  0  0  0  0  0  0
   10.8334   -0.9882   22.1264 C   0  0  0  0  0  0  0  0  0  0  0  0
   12.0221   -1.7525   22.6880 C   0  0  0  0  0  0  0  0  0  0  0  0
   11.8062   -2.5305   24.0195 C   0  0  0  0  0  0  0  0  0  0  0  0
   12.9731   -2.0615   24.9330 C   0  0  0  0  0  0  0  0  0  0  0  0
   14.0742   -1.8359   23.8902 C   0  0  0  0  0  0  0  0  0  0  0  0
   13.2431   -0.8347   23.0834 C   0  0  0  0  0  0  0  0  0  0  0  0
   12.8020    0.0974   24.1987 C   0  0  0  0  0  0  0  0  0  0  0  0
   12.6447   -0.6377   25.2942 C   0  0  0  0  0  0  0  0  0  0  0  0
  1  2  1  0
  2  3  2  0
  2  4  1  0
  4  5  1  0
  5  6  1  0
  6  7  2  0
  7  8  1  0
  8  9  2  0
  8 10  1  0
 10 11  2  0
 11 12  1  0
  4 13  1  0
 13 14  1  0
 15 14  1  0
 15 16  1  0
 17 16  1  0
 17 18  1  0
 18 19  1  0
 19 20  1  0
 20 21  2  0
 12  6  1  0
 19 15  1  0
 21 17  1  0
M  END
