CVD-0001491|dock_bobby27042020.67|mol2|2|dock2
     RDKit          3D

 34 38  0  0  0  0  0  0  0  0999 V2000
   14.2531    0.4093   22.2618 O   0  0  0  0  0  0  0  0  0  0  0  0
   13.0029   -0.1186   22.4024 C   0  0  0  0  0  0  0  0  0  0  0  0
   12.8355   -1.4897   22.4168 C   0  0  0  0  0  0  0  0  0  0  0  0
   11.5667   -2.0156   22.5444 C   0  0  0  0  0  0  0  0  0  0  0  0
   10.4402   -1.1983   22.6435 C   0  0  0  0  0  0  0  0  0  0  0  0
    9.0644   -1.8431   22.7199 C   0  0  0  0  0  0  0  0  0  0  0  0
    8.7614   -2.6203   21.4583 C   0  0  0  0  0  0  0  0  0  0  0  0
    7.4820   -3.3138   21.5802 N   0  0  0  0  0  0  0  0  0  0  0  0
    7.3996   -4.2409   22.7089 C   0  0  0  0  0  0  0  0  0  0  0  0
    7.6177   -3.4906   24.0235 C   0  0  0  0  0  0  0  0  0  0  0  0
    7.6081   -4.4401   25.2200 C   0  0  0  0  0  0  0  0  0  0  0  0
    7.9009   -3.7323   26.5329 C   0  0  0  0  0  0  0  0  0  0  0  0
    9.2016   -2.9496   26.4621 C   0  0  0  0  0  0  0  0  0  0  0  0
    9.2080   -2.0014   25.2662 C   0  0  0  0  0  0  0  0  0  0  0  0
    8.9580   -2.7447   23.9499 C   0  0  0  0  0  0  0  0  0  0  0  0
    6.4466   -3.1263   20.7262 C   0  0  0  0  0  0  0  0  0  0  0  0
    5.3873   -3.7261   20.8617 O   0  0  0  0  0  0  0  0  0  0  0  0
    6.6137   -2.1421   19.5839 C   0  0  0  0  0  0  0  0  0  0  0  0
    5.1982   -2.1393   18.5241 Cl  0  0  0  0  0  0  0  0  0  0  0  0
   10.6249    0.1996   22.6601 C   0  0  0  0  0  0  0  0  0  0  0  0
    9.4892    1.0433   22.8135 N   0  0  0  0  0  0  0  0  0  0  0  0
    9.1993    2.2387   22.1994 C   0  0  0  0  0  0  0  0  0  0  0  0
    9.8956    2.8231   21.3740 O   0  0  0  0  0  0  0  0  0  0  0  0
    7.9730    2.7706   22.6046 N   0  0  0  0  0  0  0  0  0  0  0  0
    7.3768    3.9562   22.1793 C   0  0  0  0  0  0  0  0  0  0  0  0
    6.0471    4.3247   22.1517 C   0  0  0  0  0  0  0  0  0  0  0  0
    5.9987    5.6489   21.6202 C   0  0  0  0  0  0  0  0  0  0  0  0
    5.0163    6.6048   21.3232 C   0  0  0  0  0  0  0  0  0  0  0  0
    5.3941    7.8282   20.7934 C   0  0  0  0  0  0  0  0  0  0  0  0
    6.7333    8.0745   20.5711 C   0  0  0  0  0  0  0  0  0  0  0  0
    7.7137    7.1980   20.8362 N   0  0  0  0  0  0  0  0  0  0  0  0
    7.3320    6.0159   21.3495 C   0  0  0  0  0  0  0  0  0  0  0  0
    8.1408    4.9693   21.6992 N   0  0  0  0  0  0  0  0  0  0  0  0
   11.9123    0.7285   22.5328 C   0  0  0  0  0  0  0  0  0  0  0  0
  1  2  1  0
  2  3  2  0
  3  4  1  0
  4  5  2  0
  5  6  1  0
  6  7  1  0
  7  8  1  0
  8  9  1  0
  9 10  1  0
 10 11  1  0
 11 12  1  0
 12 13  1  0
 13 14  1  0
 14 15  1  0
  8 16  1  0
 16 17  2  0
 16 18  1  0
 18 19  1  0
  5 20  1  0
 20 21  1  0
 21 22  1  0
 22 23  2  0
 22 24  1  0
 24 25  1  0
 25 26  2  0
 26 27  1  0
 27 28  2  0
 28 29  1  0
 29 30  2  0
 30 31  1  0
 31 32  2  0
 32 33  1  0
 20 34  2  0
 34  2  1  0
 15  6  1  0
 33 25  1  0
 15 10  1  0
 32 27  1  0
M  END
