CVD-0001852|dock_bobby27042020.22|mol2|31|dock2
     RDKit          3D

 15 15  0  0  0  0  0  0  0  0999 V2000
   13.5448    5.6725   22.2284 C   0  0  0  0  0  0  0  0  0  0  0  0
   12.4318    5.1248   23.6010 Si  0  0  0  0  0  4  0  0  0  0  0  0
   12.3675    6.4163   24.9242 C   0  0  0  0  0  0  0  0  0  0  0  0
   10.7322    4.7929   22.9503 C   0  0  0  0  0  0  0  0  0  0  0  0
   13.0398    3.7176   24.2548 O   0  0  0  0  0  0  0  0  0  0  0  0
   13.1139    2.4307   23.7624 C   0  0  0  0  0  0  0  0  0  0  0  0
   12.2442    1.4829   24.2750 C   0  0  0  0  0  0  0  0  0  0  0  0
   12.2775    0.1790   23.8146 C   0  0  0  0  0  0  0  0  0  0  0  0
   13.1879   -0.1744   22.8338 C   0  0  0  0  0  0  0  0  0  0  0  0
   14.0630    0.7654   22.3164 C   0  0  0  0  0  0  0  0  0  0  0  0
   14.0256    2.0686   22.7804 C   0  0  0  0  0  0  0  0  0  0  0  0
   13.2406   -1.8399   22.2451 S   0  0  0  0  0  0  0  0  0  0  0  0
   13.4321   -1.8104   20.6559 N   0  0  0  0  0  0  0  0  0  0  0  0
   14.4092   -2.4533   22.8011 O   0  0  0  0  0  0  0  0  0  0  0  0
   11.9606   -2.4266   22.5065 O   0  0  0  0  0  0  0  0  0  0  0  0
  1  2  1  0
  2  3  1  0
  2  4  1  0
  2  5  1  0
  5  6  1  0
  6  7  2  0
  7  8  1  0
  8  9  2  0
  9 10  1  0
 10 11  2  0
  9 12  1  0
 12 13  1  0
 12 14  2  0
 12 15  2  0
 11  6  1  0
M  END
