CVD-0002834|dock_bobby27042020.90|mol2|6|dock2
     RDKit          3D

 22 24  0  0  0  0  0  0  0  0999 V2000
   13.9978   -1.6470   20.4003 N   0  0  0  0  0  0  0  0  0  0  0  0
   13.7634   -1.6498   21.8280 C   0  0  0  0  0  0  0  0  0  0  0  0
   12.5113   -0.9439   22.2866 C   0  0  0  0  0  0  0  0  0  0  0  0
   12.5849    0.2140   23.0412 C   0  0  0  0  0  0  0  0  0  0  0  0
   11.4288    0.8472   23.4588 C   0  0  0  0  0  0  0  0  0  0  0  0
   10.1892    0.3252   23.1300 C   0  0  0  0  0  0  0  0  0  0  0  0
   10.0877   -0.8371   22.3729 C   0  0  0  0  0  0  0  0  0  0  0  0
   11.2634   -1.4570   21.9564 C   0  0  0  0  0  0  0  0  0  0  0  0
    8.8189   -1.3749   22.0267 N   0  0  0  0  0  0  0  0  0  0  0  0
    7.8690   -0.5832   21.2409 C   0  0  0  0  0  0  0  0  0  0  0  0
    7.1211   -1.3296   20.2253 N   0  0  0  0  0  0  0  0  0  0  0  0
    6.2834   -2.3059   20.9257 C   0  0  0  0  0  0  0  0  0  0  0  0
    7.1141   -3.1355   21.8667 C   0  0  0  0  0  0  0  0  0  0  0  0
    6.6895   -4.4181   22.1920 C   0  0  0  0  0  0  0  0  0  0  0  0
    7.4771   -5.2370   22.9814 C   0  0  0  0  0  0  0  0  0  0  0  0
    8.6882   -4.7794   23.4478 C   0  0  0  0  0  0  0  0  0  0  0  0
    9.1309   -3.5025   23.1351 C   0  0  0  0  0  0  0  0  0  0  0  0
    8.3476   -2.6644   22.3396 C   0  0  0  0  0  0  0  0  0  0  0  0
    6.7119   -0.7711   19.0639 C   0  0  0  0  0  0  0  0  0  0  0  0
    6.1040   -1.4250   18.2258 O   0  0  0  0  0  0  0  0  0  0  0  0
    7.0223    0.6940   18.8227 C   0  0  0  0  0  0  0  0  0  0  0  0
    6.0444    1.3495   17.5033 Cl  0  0  0  0  0  0  0  0  0  0  0  0
  1  2  1  0
  2  3  1  0
  3  4  2  0
  4  5  1  0
  5  6  2  0
  6  7  1  0
  7  8  2  0
  7  9  1  0
  9 10  1  0
 10 11  1  0
 11 12  1  0
 12 13  1  0
 13 14  2  0
 14 15  1  0
 15 16  2  0
 16 17  1  0
 17 18  2  0
 11 19  1  0
 19 20  2  0
 19 21  1  0
 21 22  1  0
  8  3  1  0
 18  9  1  0
 18 13  1  0
M  END
