CVD-0001523|dock_bobby27042020.80|mol2|45|dock3
     RDKit          3D

 33 37  0  0  0  0  0  0  0  0999 V2000
   13.6870    6.8629   22.7596 C   0  0  0  0  0  0  0  0  0  0  0  0
   13.0571    5.5188   23.0170 C   0  0  0  0  0  0  0  0  0  0  0  0
   13.3435    4.4801   22.1355 C   0  0  0  0  0  0  0  0  0  0  0  0
   12.7533    3.2353   22.2405 C   0  0  0  0  0  0  0  0  0  0  0  0
   11.8346    2.9884   23.2541 C   0  0  0  0  0  0  0  0  0  0  0  0
   11.1636    1.7493   23.4061 N   0  0  0  0  0  0  0  0  0  0  0  0
   10.9780    0.7201   22.5442 C   0  0  0  0  0  0  0  0  0  0  0  0
   11.3841    0.6631   21.3883 O   0  0  0  0  0  0  0  0  0  0  0  0
   10.1756   -0.4258   23.1371 C   0  0  0  0  0  0  0  0  0  0  0  0
    9.4214   -1.1981   22.1478 N   0  0  0  0  0  0  0  0  0  0  0  0
    8.3961   -0.3847   21.4786 C   0  0  0  0  0  0  0  0  0  0  0  0
    7.8105   -1.1505   20.3006 C   0  0  0  0  0  0  0  0  0  0  0  0
    6.6166   -0.3823   19.7486 C   0  0  0  0  0  0  0  0  0  0  0  0
    6.7213    0.3381   18.5670 C   0  0  0  0  0  0  0  0  0  0  0  0
    5.6362    1.0383   18.0666 C   0  0  0  0  0  0  0  0  0  0  0  0
    4.4341    1.0272   18.7411 C   0  0  0  0  0  0  0  0  0  0  0  0
    4.3161    0.3166   19.9164 C   0  0  0  0  0  0  0  0  0  0  0  0
    5.4006   -0.3840   20.4176 C   0  0  0  0  0  0  0  0  0  0  0  0
    7.4727   -2.5873   20.6412 C   0  0  0  0  0  0  0  0  0  0  0  0
    6.7012   -3.3653   19.7773 C   0  0  0  0  0  0  0  0  0  0  0  0
    6.4420   -4.6962   20.0607 C   0  0  0  0  0  0  0  0  0  0  0  0
    6.9506   -5.2641   21.2101 C   0  0  0  0  0  0  0  0  0  0  0  0
    7.7164   -4.4986   22.0713 C   0  0  0  0  0  0  0  0  0  0  0  0
    7.9844   -3.1597   21.7982 C   0  0  0  0  0  0  0  0  0  0  0  0
    8.7242   -2.3125   22.8040 C   0  0  0  0  0  0  0  0  0  0  0  0
   11.5563    3.9982   24.1691 C   0  0  0  0  0  0  0  0  0  0  0  0
   12.1809    5.2393   24.0701 C   0  0  0  0  0  0  0  0  0  0  0  0
   11.8657    6.1996   25.0991 N   0  0  0  0  0  0  0  0  0  0  0  0
   12.8687    6.6285   26.0770 C   0  0  0  0  0  0  0  0  0  0  0  0
   12.1513    7.6464   26.9295 C   0  0  0  0  0  0  0  0  0  0  0  0
   10.6976    7.6155   26.5309 C   0  0  0  0  0  0  0  0  0  0  0  0
   10.6146    6.7176   25.3330 C   0  0  0  0  0  0  0  0  0  0  0  0
    9.6356    6.4492   24.6483 O   0  0  0  0  0  0  0  0  0  0  0  0
  1  2  1  0
  2  3  2  0
  3  4  1  0
  4  5  2  0
  5  6  1  0
  6  7  1  0
  7  8  2  0
  7  9  1  0
  9 10  1  0
 10 11  1  0
 11 12  1  0
 12 13  1  0
 13 14  2  0
 14 15  1  0
 15 16  2  0
 16 17  1  0
 17 18  2  0
 12 19  1  0
 19 20  2  0
 20 21  1  0
 21 22  2  0
 22 23  1  0
 23 24  2  0
 24 25  1  0
  5 26  1  0
 26 27  2  0
 27 28  1  0
 28 29  1  0
 29 30  1  0
 30 31  1  0
 31 32  1  0
 32 33  2  0
 27  2  1  0
 32 28  1  0
 25 10  1  0
 18 13  1  0
 24 19  1  0
M  END
