CVD-0001975|dock_bobby27042020.22|mol2|10|dock1
     RDKit          3D

 11 12  0  0  0  0  0  0  0  0999 V2000
    9.5009   -2.2586   21.9148 C   0  0  0  0  0  0  0  0  0  0  0  0
    9.8319   -1.0712   22.8172 C   0  0  0  0  0  0  0  0  0  0  0  0
    9.9805    0.3331   22.2124 C   0  0  0  0  0  0  0  0  0  0  0  0
   11.4113    0.3615   22.5659 O   0  0  0  0  0  0  0  0  0  0  0  0
   11.2728   -0.9101   23.2384 C   0  0  0  0  0  0  0  0  0  0  0  0
   11.5190   -0.7024   24.7243 C   0  0  0  0  0  0  0  0  0  0  0  0
   12.9722   -0.3072   25.0284 C   0  0  0  0  0  0  0  0  0  0  0  0
   13.9668   -1.3328   24.4772 C   0  0  0  0  0  0  0  0  0  0  0  0
   13.9449   -2.6440   25.2562 C   0  0  0  0  0  0  0  0  0  0  0  0
   13.7244   -1.5385   22.9980 C   0  0  0  0  0  0  0  0  0  0  0  0
   12.2814   -1.9120   22.6893 C   0  0  0  0  0  0  0  0  0  0  0  0
  1  2  1  0
  2  3  1  0
  3  4  1  0
  4  5  1  0
  5  6  1  0
  6  7  1  0
  7  8  1  0
  8  9  1  0
  8 10  1  0
 10 11  1  0
  5  2  1  0
 11  5  1  0
M  END
