CVD-0000685|dock_bobby27042020.83|mol2|35|dock3
     RDKit          3D

 28 30  0  0  0  0  0  0  0  0999 V2000
    8.6524   -1.0711   22.5958 O   0  0  0  0  0  0  0  0  0  0  0  0
    9.1862   -1.2873   21.5110 C   0  0  0  0  0  0  0  0  0  0  0  0
    8.5089   -1.2067   20.3486 N   0  0  0  0  0  0  0  0  0  0  0  0
    7.0963   -0.8566   20.3072 C   0  0  0  0  0  0  0  0  0  0  0  0
    6.8361    0.3405   19.4107 C   0  0  0  0  0  0  0  0  0  0  0  0
    5.8081    1.2884   19.9909 C   0  0  0  0  0  0  0  0  0  0  0  0
    4.4990    1.1598   19.5402 C   0  0  0  0  0  0  0  0  0  0  0  0
    3.5293    2.0019   20.0365 C   0  0  0  0  0  0  0  0  0  0  0  0
    3.7785    2.9476   20.9379 N   0  0  0  0  0  0  0  0  0  0  0  0
    5.0349    3.0776   21.3754 C   0  0  0  0  0  0  0  0  0  0  0  0
    6.0978    2.2827   20.9438 C   0  0  0  0  0  0  0  0  0  0  0  0
    7.4425    2.4065   21.3966 N   0  0  0  0  0  0  0  0  0  0  0  0
    8.1564    3.5360   21.7323 C   0  0  0  0  0  0  0  0  0  0  0  0
    7.7146    4.6790   21.6894 O   0  0  0  0  0  0  0  0  0  0  0  0
    9.4379    3.2193   22.1246 N   0  0  0  0  0  0  0  0  0  0  0  0
   10.5100    4.0447   22.5505 C   0  0  0  0  0  0  0  0  0  0  0  0
   11.8025    3.5776   22.3401 C   0  0  0  0  0  0  0  0  0  0  0  0
   12.8974    4.3299   22.7302 C   0  0  0  0  0  0  0  0  0  0  0  0
   12.7184    5.5547   23.3335 C   0  0  0  0  0  0  0  0  0  0  0  0
   11.4432    6.0293   23.5478 C   0  0  0  0  0  0  0  0  0  0  0  0
   10.3400    5.2855   23.1619 C   0  0  0  0  0  0  0  0  0  0  0  0
   10.4909   -1.6216   21.4040 N   0  0  0  0  0  0  0  0  0  0  0  0
   11.3937   -1.6710   22.5540 C   0  0  0  0  0  0  0  0  0  0  0  0
   12.8224   -2.0629   22.1246 C   0  0  0  0  0  0  0  0  0  0  0  0
   13.8059   -2.0526   23.2933 C   0  0  0  0  0  0  0  0  0  0  0  0
   13.7927   -0.7126   24.0175 C   0  0  0  0  0  0  0  0  0  0  0  0
   12.3858   -0.3454   24.4672 C   0  0  0  0  0  0  0  0  0  0  0  0
   11.4186   -0.3195   23.2882 C   0  0  0  0  0  0  0  0  0  0  0  0
  1  2  2  0
  2  3  1  0
  3  4  1  0
  4  5  1  0
  5  6  1  0
  6  7  2  0
  7  8  1  0
  8  9  2  0
  9 10  1  0
 10 11  2  0
 11 12  1  0
 12 13  1  0
 13 14  2  0
 13 15  1  0
 15 16  1  0
 16 17  2  0
 17 18  1  0
 18 19  2  0
 19 20  1  0
 20 21  2  0
  2 22  1  0
 22 23  1  0
 23 24  1  0
 24 25  1  0
 25 26  1  0
 26 27  1  0
 27 28  1  0
 11  6  1  0
 21 16  1  0
 28 23  1  0
M  END
