CVD-0003972|dock_bobby27042020.29|mol2|13|dock1
     RDKit          3D

 22 23  0  0  0  0  0  0  0  0999 V2000
   12.4494    3.5749   22.5615 C   0  0  0  0  0  0  0  0  0  0  0  0
   11.4738    2.5403   22.2921 O   0  0  0  0  0  0  0  0  0  0  0  0
   11.7590    1.2597   22.5858 C   0  0  0  0  0  0  0  0  0  0  0  0
   11.0820    0.1079   22.3214 C   0  0  0  0  0  0  0  0  0  0  0  0
   11.8373   -1.0497   22.9014 C   0  0  0  0  0  0  0  0  0  0  0  0
   13.0696   -0.6104   23.2930 C   0  0  0  0  0  0  0  0  0  0  0  0
   13.0355    0.9089   23.3448 C   0  0  0  0  0  0  0  0  0  0  0  0
    9.8199   -0.0666   21.5981 C   0  0  0  0  0  0  0  0  0  0  0  0
    9.3066   -1.2352   21.1233 C   0  0  0  0  0  0  0  0  0  0  0  0
    7.9895   -0.9341   20.4141 C   0  0  0  0  0  0  0  0  0  0  0  0
    7.9414    0.5855   20.3913 C   0  0  0  0  0  0  0  0  0  0  0  0
    7.0272    1.3281   19.5577 O   0  0  0  0  0  0  0  0  0  0  0  0
    6.0644    0.5695   18.5548 S   0  0  0  0  0  0  0  0  0  0  0  0
    6.8559    0.0765   17.4784 O   0  0  0  0  0  0  0  0  0  0  0  0
    5.2532   -0.3193   19.3162 O   0  0  0  0  0  0  0  0  0  0  0  0
    5.0265    1.8413   17.9235 C   0  0  0  0  0  0  0  0  0  0  0  0
    5.3017    2.3725   16.8668 O   0  0  0  0  0  0  0  0  0  0  0  0
    3.9674    2.1082   18.7107 N   0  0  0  0  0  0  0  0  0  0  0  0
    2.9370    3.0044   18.5737 C   0  0  0  0  0  0  0  0  0  0  0  0
    1.8864    3.0460   19.6456 C   0  0  0  0  0  0  0  0  0  0  0  0
    2.8713    3.7439   17.5967 O   0  0  0  0  0  0  0  0  0  0  0  0
    8.8807    1.0532   21.2652 C   0  0  0  0  0  0  0  0  0  0  0  0
  1  2  1  0
  2  3  1  0
  3  4  2  0
  4  5  1  0
  5  6  2  0
  6  7  1  0
  4  8  1  0
  8  9  2  0
  9 10  1  0
 10 11  1  0
 11 12  1  0
 12 13  1  0
 13 14  2  0
 13 15  2  0
 13 16  1  0
 16 17  2  0
 16 18  1  0
 18 19  1  0
 19 20  1  0
 19 21  2  0
 11 22  2  0
  7  3  1  0
 22  8  1  0
M  END
