CVD-0002103|dock_bobby27042020.64|mol2|36|dock3
     RDKit          3D

 23 25  0  0  0  0  0  0  0  0999 V2000
   13.5053    4.6262   22.1106 N   0  0  0  0  0  0  0  0  0  0  0  0
   12.8746    3.3341   22.4601 C   0  0  0  0  0  0  0  0  0  0  0  0
   11.8973    3.3911   23.6294 C   0  0  0  0  0  0  0  0  0  0  0  0
   11.7596    2.0949   24.1995 O   0  0  0  0  0  0  0  0  0  0  0  0
   10.9117    1.2166   23.4308 C   0  0  0  0  0  0  0  0  0  0  0  0
    9.4648    1.7539   23.5943 C   0  0  0  0  0  0  0  0  0  0  0  0
    9.4383    3.1783   23.0705 C   0  0  0  0  0  0  0  0  0  0  0  0
    8.2588    3.7590   22.5801 C   0  0  0  0  0  0  0  0  0  0  0  0
    7.0890    3.0555   22.4894 O   0  0  0  0  0  0  0  0  0  0  0  0
    8.2222    5.1109   22.2428 C   0  0  0  0  0  0  0  0  0  0  0  0
    7.0664    5.6406   21.7647 O   0  0  0  0  0  0  0  0  0  0  0  0
    9.3509    5.9035   22.3862 C   0  0  0  0  0  0  0  0  0  0  0  0
   10.5157    5.3387   22.8683 C   0  0  0  0  0  0  0  0  0  0  0  0
   10.5760    3.9882   23.2122 C   0  0  0  0  0  0  0  0  0  0  0  0
   11.1731   -0.1773   23.9737 C   0  0  0  0  0  0  0  0  0  0  0  0
   12.6720   -0.4290   24.0513 C   0  0  0  0  0  0  0  0  0  0  0  0
   13.3258   -0.5170   22.6635 C   0  0  0  0  0  0  0  0  0  0  0  0
   14.7278   -0.7764   22.7619 O   0  0  0  0  0  0  0  0  0  0  0  0
   12.6602   -1.6859   21.9216 C   0  0  0  0  0  0  0  0  0  0  0  0
   13.2566   -1.9141   20.6440 O   0  0  0  0  0  0  0  0  0  0  0  0
   11.1870   -1.3951   21.7395 C   0  0  0  0  0  0  0  0  0  0  0  0
   10.4689   -1.1671   23.0567 C   0  0  0  0  0  0  0  0  0  0  0  0
   10.4597   -2.3920   23.7930 O   0  0  0  0  0  0  0  0  0  0  0  0
  1  2  1  0
  2  3  1  0
  3  4  1  0
  4  5  1  0
  5  6  1  0
  6  7  1  0
  7  8  2  0
  8  9  1  0
  8 10  1  0
 10 11  1  0
 10 12  2  0
 12 13  1  0
 13 14  2  0
  5 15  1  0
 15 16  1  0
 16 17  1  0
 17 18  1  0
 17 19  1  0
 19 20  1  0
 19 21  1  0
 21 22  1  0
 22 23  1  0
 14  3  1  0
 22 15  1  0
 14  7  1  0
M  END
