CVD-0002556|dock_bobby27042020.34|mol2|3|dock2
     RDKit          3D

 20 21  0  0  0  0  0  0  0  0999 V2000
    1.2305    1.9050   20.8790 C   0  0  0  0  0  0  0  0  0  0  0  0
    2.2503    1.9185   19.8365 N   0  0  0  0  0  0  0  0  0  0  0  0
    2.1632    3.1652   19.0847 C   0  0  0  0  0  0  0  0  0  0  0  0
    3.5850    1.7576   20.4087 C   0  0  0  0  0  0  0  0  0  0  0  0
    4.6316    1.2994   19.4082 C   0  0  0  0  0  0  0  0  0  0  0  0
    5.9468    0.8941   20.0595 C   0  0  0  0  0  0  0  0  0  0  0  0
    7.0110    0.4319   19.0845 C   0  0  0  0  0  0  0  0  0  0  0  0
    6.8070   -1.0301   18.6036 C   0  0  0  0  0  0  0  0  0  0  0  0
    6.7921   -1.9230   19.8305 C   0  0  0  0  0  0  0  0  0  0  0  0
    6.1034   -3.1454   19.8444 C   0  0  0  0  0  0  0  0  0  0  0  0
    5.3735   -3.5765   18.7707 O   0  0  0  0  0  0  0  0  0  0  0  0
    6.2124   -4.0066   20.9350 C   0  0  0  0  0  0  0  0  0  0  0  0
    5.5793   -5.2079   20.8930 O   0  0  0  0  0  0  0  0  0  0  0  0
    7.0029   -3.6678   22.0227 C   0  0  0  0  0  0  0  0  0  0  0  0
    7.6836   -2.4655   22.0159 C   0  0  0  0  0  0  0  0  0  0  0  0
    7.5895   -1.5881   20.9358 C   0  0  0  0  0  0  0  0  0  0  0  0
    8.2349   -0.2272   21.0355 C   0  0  0  0  0  0  0  0  0  0  0  0
    9.6379   -0.3263   21.6265 C   0  0  0  0  0  0  0  0  0  0  0  0
   10.3992   -1.5493   21.2881 N   0  0  0  0  0  0  0  0  0  0  0  0
    8.2708    0.4548   19.7873 O   0  0  0  0  0  0  0  0  0  0  0  0
  1  2  1  0
  2  3  1  0
  2  4  1  0
  4  5  1  0
  5  6  1  0
  6  7  1  0
  7  8  1  0
  8  9  1  0
  9 10  2  0
 10 11  1  0
 10 12  1  0
 12 13  1  0
 12 14  2  0
 14 15  1  0
 15 16  2  0
 16 17  1  0
 17 18  1  0
 18 19  1  0
 17 20  1  0
 20  7  1  0
 16  9  1  0
M  END
