CVD-0003312|dock_bobby27042020.45|mol2|38|dock1
     RDKit          3D

 16 17  0  0  0  0  0  0  0  0999 V2000
   13.8114   -2.1628   20.4196 C   0  0  0  0  0  0  0  0  0  0  0  0
   13.1665   -1.7114   21.6969 C   0  0  0  0  0  0  0  0  0  0  0  0
   12.0641   -2.1205   22.0477 O   0  0  0  0  0  0  0  0  0  0  0  0
   13.8688   -0.8517   22.4377 N   0  0  0  0  0  0  0  0  0  0  0  0
   13.3622   -0.3562   23.6992 C   0  0  0  0  0  0  0  0  0  0  0  0
   12.1937    0.5781   23.5030 C   0  0  0  0  0  0  0  0  0  0  0  0
   10.8799    0.3138   23.7548 C   0  0  0  0  0  0  0  0  0  0  0  0
   10.1105    1.4050   23.4547 N   0  0  0  0  0  0  0  0  0  0  0  0
   10.9253    2.4111   22.9958 C   0  0  0  0  0  0  0  0  0  0  0  0
   10.6329    3.7015   22.5671 C   0  0  0  0  0  0  0  0  0  0  0  0
   11.6680    4.5201   22.1495 C   0  0  0  0  0  0  0  0  0  0  0  0
   12.9825    4.0598   22.1579 C   0  0  0  0  0  0  0  0  0  0  0  0
   13.2739    2.7662   22.5879 C   0  0  0  0  0  0  0  0  0  0  0  0
   12.2465    1.9255   23.0126 C   0  0  0  0  0  0  0  0  0  0  0  0
   14.0523    4.9223   21.7203 C   0  0  0  0  0  0  0  0  0  0  0  0
   14.8771    5.6252   21.3590 N   0  0  0  0  0  0  0  0  0  0  0  0
  1  2  1  0
  2  3  2  0
  2  4  1  0
  4  5  1  0
  5  6  1  0
  6  7  2  0
  7  8  1  0
  8  9  1  0
  9 10  2  0
 10 11  1  0
 11 12  2  0
 12 13  1  0
 13 14  2  0
 12 15  1  0
 15 16  3  0
 14  6  1  0
 14  9  1  0
M  END
