CVD-0002564|dock_bobby27042020.5|mol2|16|dock1
     RDKit          3D

 34 38  0  0  0  0  0  0  0  0999 V2000
    9.5577   -0.7644   22.9593 O   0  0  0  0  0  0  0  0  0  0  0  0
   10.1240   -1.0376   21.9057 C   0  0  0  0  0  0  0  0  0  0  0  0
   11.4618   -1.3408   21.7945 N   0  0  0  0  0  0  0  0  0  0  0  0
   12.4806   -1.4182   22.7779 C   0  0  0  0  0  0  0  0  0  0  0  0
   12.3298   -0.6454   23.9239 C   0  0  0  0  0  0  0  0  0  0  0  0
   13.2865   -0.6729   24.9243 C   0  0  0  0  0  0  0  0  0  0  0  0
   14.4027   -1.4690   24.7954 C   0  0  0  0  0  0  0  0  0  0  0  0
   14.5641   -2.2395   23.6650 C   0  0  0  0  0  0  0  0  0  0  0  0
   13.6138   -2.2203   22.6572 C   0  0  0  0  0  0  0  0  0  0  0  0
    9.5010   -1.0737   20.6791 N   0  0  0  0  0  0  0  0  0  0  0  0
    8.1392   -0.8157   20.3672 C   0  0  0  0  0  0  0  0  0  0  0  0
    7.7438   -0.2093   19.1743 C   0  0  0  0  0  0  0  0  0  0  0  0
    6.4123    0.1133   18.9843 C   0  0  0  0  0  0  0  0  0  0  0  0
    5.5178   -0.1395   19.9953 C   0  0  0  0  0  0  0  0  0  0  0  0
    5.8477   -0.7260   21.1511 N   0  0  0  0  0  0  0  0  0  0  0  0
    7.1121   -1.1511   21.2819 C   0  0  0  0  0  0  0  0  0  0  0  0
    7.3027   -1.9561   22.3879 N   0  0  0  0  0  0  0  0  0  0  0  0
    6.7351   -1.5517   23.6826 C   0  0  0  0  0  0  0  0  0  0  0  0
    7.4560   -2.2544   24.8275 C   0  0  0  0  0  0  0  0  0  0  0  0
    7.5085   -3.6958   24.6373 N   0  0  0  0  0  0  0  0  0  0  0  0
    8.0259   -4.0837   23.3166 C   0  0  0  0  0  0  0  0  0  0  0  0
    7.2131   -3.4302   22.2305 C   0  0  0  0  0  0  0  0  0  0  0  0
    7.1968   -4.6703   25.5170 C   0  0  0  0  0  0  0  0  0  0  0  0
    7.2848   -5.8552   25.2210 O   0  0  0  0  0  0  0  0  0  0  0  0
    6.7167   -4.2561   26.8969 C   0  0  0  0  0  0  0  0  0  0  0  0
    6.5229   -5.4078   27.8372 C   0  0  0  0  0  0  0  0  0  0  0  0
    7.2488   -5.6891   28.9573 C   0  0  0  0  0  0  0  0  0  0  0  0
    6.7792   -6.8241   29.5630 N   0  0  0  0  0  0  0  0  0  0  0  0
    5.7289   -7.3019   28.8358 C   0  0  0  0  0  0  0  0  0  0  0  0
    4.9912   -8.3957   29.0910 N   0  0  0  0  0  0  0  0  0  0  0  0
    4.0051   -8.6612   28.2233 C   0  0  0  0  0  0  0  0  0  0  0  0
    3.7249   -7.8865   27.1181 C   0  0  0  0  0  0  0  0  0  0  0  0
    4.4957   -6.7617   26.8696 C   0  0  0  0  0  0  0  0  0  0  0  0
    5.5338   -6.4416   27.7421 C   0  0  0  0  0  0  0  0  0  0  0  0
  1  2  2  0
  2  3  1  0
  3  4  1  0
  4  5  2  0
  5  6  1  0
  6  7  2  0
  7  8  1  0
  8  9  2  0
  2 10  1  0
 10 11  1  0
 11 12  2  0
 12 13  1  0
 13 14  2  0
 14 15  1  0
 15 16  2  0
 16 17  1  0
 17 18  1  0
 18 19  1  0
 19 20  1  0
 20 21  1  0
 21 22  1  0
 20 23  1  0
 23 24  2  0
 23 25  1  0
 25 26  1  0
 26 27  2  0
 27 28  1  0
 28 29  1  0
 29 30  2  0
 30 31  1  0
 31 32  2  0
 32 33  1  0
 33 34  2  0
  9  4  1  0
 16 11  1  0
 22 17  1  0
 34 26  1  0
 34 29  1  0
M  END
