CVD-0003089|dock_bobby27042020.75|mol2|3|dock3
     RDKit          3D

 21 22  0  0  0  0  0  0  0  0999 V2000
    5.6346   -1.4756   19.5644 C   0  0  0  0  0  0  0  0  0  0  0  0
    7.0445   -0.9943   18.6438 S   0  0  0  0  0  0  0  0  0  0  0  0
    6.7872    0.2944   18.0792 O   0  0  0  0  0  0  0  0  0  0  0  0
    7.3887   -2.0688   17.7647 O   0  0  0  0  0  0  0  0  0  0  0  0
    8.2614   -0.8217   19.6733 N   0  0  0  0  0  0  0  0  0  0  0  0
    8.1663    0.1717   20.7498 C   0  0  0  0  0  0  0  0  0  0  0  0
    8.6388   -0.4184   22.0663 C   0  0  0  0  0  0  0  0  0  0  0  0
   10.1482   -0.4299   22.1626 C   0  0  0  0  0  0  0  0  0  0  0  0
   10.8283   -1.6159   22.0668 C   0  0  0  0  0  0  0  0  0  0  0  0
   12.2096   -1.6703   22.1529 C   0  0  0  0  0  0  0  0  0  0  0  0
   12.9417   -0.5358   22.3380 C   0  0  0  0  0  0  0  0  0  0  0  0
   12.2984    0.7201   22.4460 C   0  0  0  0  0  0  0  0  0  0  0  0
   13.0212    1.9200   22.6388 C   0  0  0  0  0  0  0  0  0  0  0  0
   12.3645    3.1112   22.7371 C   0  0  0  0  0  0  0  0  0  0  0  0
   10.9826    3.1794   22.6550 C   0  0  0  0  0  0  0  0  0  0  0  0
   10.2529    2.0446   22.4695 C   0  0  0  0  0  0  0  0  0  0  0  0
   10.8769    0.7754   22.3574 C   0  0  0  0  0  0  0  0  0  0  0  0
   13.2930    4.5943   22.9842 S   0  0  0  0  0  0  0  0  0  0  0  0
   13.0482    5.5608   21.7316 N   0  0  0  0  0  0  0  0  0  0  0  0
   12.7528    5.2500   24.1370 O   0  0  0  0  0  0  0  0  0  0  0  0
   14.6798    4.2366   22.9782 O   0  0  0  0  0  0  0  0  0  0  0  0
  1  2  1  0
  2  3  2  0
  2  4  2  0
  2  5  1  0
  5  6  1  0
  6  7  1  0
  7  8  1  0
  8  9  2  0
  9 10  1  0
 10 11  2  0
 11 12  1  0
 12 13  2  0
 13 14  1  0
 14 15  2  0
 15 16  1  0
 16 17  2  0
 14 18  1  0
 18 19  1  0
 18 20  2  0
 18 21  2  0
 17  8  1  0
 17 12  1  0
M  END
