CVD-0003381|dock_bobby27042020.60|mol2|4|dock3
     RDKit          3D

 20 22  0  0  0  0  0  0  0  0999 V2000
   14.0472   -2.1636   25.2154 C   0  0  0  0  0  0  0  0  0  0  0  0
   13.4337   -1.4578   24.0918 N   0  0  0  0  0  0  0  0  0  0  0  0
   12.6446   -0.3192   24.5710 C   0  0  0  0  0  0  0  0  0  0  0  0
   12.0439    0.4341   23.3986 C   0  0  0  0  0  0  0  0  0  0  0  0
   11.2075   -0.4577   22.5922 N   0  0  0  0  0  0  0  0  0  0  0  0
   11.9531   -1.6390   22.1467 C   0  0  0  0  0  0  0  0  0  0  0  0
   12.5641   -2.3562   23.3368 C   0  0  0  0  0  0  0  0  0  0  0  0
    9.9227   -0.1811   22.2911 C   0  0  0  0  0  0  0  0  0  0  0  0
    9.3762    0.8483   22.6670 O   0  0  0  0  0  0  0  0  0  0  0  0
    9.1640   -1.2054   21.4664 C   0  0  0  0  0  0  0  0  0  0  0  0
    7.7384   -0.8256   21.1911 C   0  0  0  0  0  0  0  0  0  0  0  0
    6.6846   -0.7719   22.0675 C   0  0  0  0  0  0  0  0  0  0  0  0
    6.6270   -1.0338   23.3757 F   0  0  0  0  0  0  0  0  0  0  0  0
    5.5612   -0.3814   21.4164 N   0  0  0  0  0  0  0  0  0  0  0  0
    5.8613   -0.1721   20.0986 C   0  0  0  0  0  0  0  0  0  0  0  0
    5.0252    0.2215   19.1238 N   0  0  0  0  0  0  0  0  0  0  0  0
    5.6049    0.3423   17.9261 C   0  0  0  0  0  0  0  0  0  0  0  0
    6.8790    0.1219   17.6058 N   0  0  0  0  0  0  0  0  0  0  0  0
    7.6767   -0.2682   18.6054 C   0  0  0  0  0  0  0  0  0  0  0  0
    7.2232   -0.4406   19.9123 C   0  0  0  0  0  0  0  0  0  0  0  0
  1  2  1  0
  2  3  1  0
  3  4  1  0
  4  5  1  0
  5  6  1  0
  6  7  1  0
  5  8  1  0
  8  9  2  0
  8 10  1  0
 10 11  1  0
 11 12  2  0
 12 13  1  0
 12 14  1  0
 14 15  1  0
 15 16  2  0
 16 17  1  0
 17 18  2  0
 18 19  1  0
 19 20  2  0
  7  2  1  0
 20 11  1  0
 20 15  1  0
M  END
