CVD-0000817|dock_bobby27042020.69|mol2|9|dock2
     RDKit          3D

 31 34  0  0  0  0  0  0  0  0999 V2000
   14.0894    5.6505   21.9463 C   0  0  0  0  0  0  0  0  0  0  0  0
   13.3176    5.1617   23.1442 C   0  0  0  0  0  0  0  0  0  0  0  0
   12.2433    4.1485   22.8001 C   0  0  0  0  0  0  0  0  0  0  0  0
   12.5614    2.8022   22.6635 C   0  0  0  0  0  0  0  0  0  0  0  0
   11.5912    1.8630   22.3486 C   0  0  0  0  0  0  0  0  0  0  0  0
   11.8449    0.5226   22.2011 O   0  0  0  0  0  0  0  0  0  0  0  0
   12.8357   -0.1604   23.0094 C   0  0  0  0  0  0  0  0  0  0  0  0
   12.5171   -0.0266   24.5126 C   0  0  0  0  0  0  0  0  0  0  0  0
   13.5032   -0.7973   25.3885 C   0  0  0  0  0  0  0  0  0  0  0  0
   13.5928   -2.2587   24.9688 C   0  0  0  0  0  0  0  0  0  0  0  0
   13.9388   -2.3858   23.4921 C   0  0  0  0  0  0  0  0  0  0  0  0
   12.9270   -1.6464   22.6227 C   0  0  0  0  0  0  0  0  0  0  0  0
   10.2672    2.2733   22.1673 C   0  0  0  0  0  0  0  0  0  0  0  0
    9.1057    1.5800   21.8479 N   0  0  0  0  0  0  0  0  0  0  0  0
    8.9334    0.1401   21.6270 C   0  0  0  0  0  0  0  0  0  0  0  0
    8.0487   -0.4925   22.6882 C   0  0  0  0  0  0  0  0  0  0  0  0
    7.9838   -1.9558   22.5789 N   0  0  0  0  0  0  0  0  0  0  0  0
    7.5937   -2.5895   23.8384 C   0  0  0  0  0  0  0  0  0  0  0  0
    7.5740   -4.0865   23.6918 C   0  0  0  0  0  0  0  0  0  0  0  0
    6.6413   -4.4935   22.6369 N   0  0  0  0  0  0  0  0  0  0  0  0
    6.5767   -5.9498   22.5280 C   0  0  0  0  0  0  0  0  0  0  0  0
    7.0313   -3.8599   21.3774 C   0  0  0  0  0  0  0  0  0  0  0  0
    7.0509   -2.3628   21.5239 C   0  0  0  0  0  0  0  0  0  0  0  0
    8.0805    2.4796   21.8132 C   0  0  0  0  0  0  0  0  0  0  0  0
    8.5191    3.7359   22.0794 C   0  0  0  0  0  0  0  0  0  0  0  0
    7.7038    5.0015   22.1305 C   0  0  0  0  0  0  0  0  0  0  0  0
    8.1022    5.9042   23.2159 N   0  0  0  0  0  0  0  0  0  0  0  0
    7.9786    5.2313   24.5038 C   0  0  0  0  0  0  0  0  0  0  0  0
    7.2774    7.1074   23.2123 C   0  0  0  0  0  0  0  0  0  0  0  0
    9.9301    3.6292   22.3099 C   0  0  0  0  0  0  0  0  0  0  0  0
   10.9263    4.5509   22.6224 C   0  0  0  0  0  0  0  0  0  0  0  0
  1  2  1  0
  2  3  1  0
  3  4  2  0
  4  5  1  0
  5  6  1  0
  6  7  1  0
  7  8  1  0
  8  9  1  0
  9 10  1  0
 10 11  1  0
 11 12  1  0
  5 13  2  0
 13 14  1  0
 14 15  1  0
 15 16  1  0
 16 17  1  0
 17 18  1  0
 18 19  1  0
 19 20  1  0
 20 21  1  0
 20 22  1  0
 22 23  1  0
 14 24  1  0
 24 25  2  0
 25 26  1  0
 26 27  1  0
 27 28  1  0
 27 29  1  0
 25 30  1  0
 30 31  2  0
 31  3  1  0
 12  7  1  0
 30 13  1  0
 23 17  1  0
M  END
