CVD-0001618|dock_bobby27042020.94|mol2|38|dock1
     RDKit          3D

 20 22  0  0  0  0  0  0  0  0999 V2000
   13.9155    5.8889   21.7800 Cl  0  0  0  0  0  0  0  0  0  0  0  0
   13.1801    5.6608   23.3720 C   0  0  0  0  0  0  0  0  0  0  0  0
   11.9218    4.8187   23.2811 C   0  0  0  0  0  0  0  0  0  0  0  0
   10.8487    5.2758   23.6547 O   0  0  0  0  0  0  0  0  0  0  0  0
   12.0199    3.5617   22.7877 N   0  0  0  0  0  0  0  0  0  0  0  0
   13.2458    2.9074   22.3199 C   0  0  0  0  0  0  0  0  0  0  0  0
   13.3520    1.5130   22.8806 C   0  0  0  0  0  0  0  0  0  0  0  0
   12.1662    0.7152   22.5278 N   0  0  0  0  0  0  0  0  0  0  0  0
   10.9936    1.3819   23.0963 C   0  0  0  0  0  0  0  0  0  0  0  0
   10.8234    2.7665   22.5183 C   0  0  0  0  0  0  0  0  0  0  0  0
   12.2807   -0.6368   23.0215 C   0  0  0  0  0  0  0  0  0  0  0  0
   13.3694   -1.5393   22.4034 C   0  0  0  0  0  0  0  0  0  0  0  0
   13.9771   -1.5517   23.8073 C   0  0  0  0  0  0  0  0  0  0  0  0
   12.9063   -0.7003   24.3232 O   0  0  0  0  0  0  0  0  0  0  0  0
   10.9169   -1.3013   23.1286 C   0  0  0  0  0  0  0  0  0  0  0  0
   10.0449   -1.3780   24.1848 C   0  0  0  0  0  0  0  0  0  0  0  0
    8.8778   -2.0828   23.9001 C   0  0  0  0  0  0  0  0  0  0  0  0
    8.8638   -2.5409   22.6343 C   0  0  0  0  0  0  0  0  0  0  0  0
    7.5098   -3.5349   21.8086 Br  0  0  0  0  0  0  0  0  0  0  0  0
   10.2746   -2.1260   21.7510 S   0  0  0  0  0  0  0  0  0  0  0  0
  1  2  1  0
  2  3  1  0
  3  4  2  0
  3  5  1  0
  5  6  1  0
  6  7  1  0
  7  8  1  0
  8  9  1  0
  9 10  1  0
  8 11  1  0
 11 12  1  0
 12 13  1  0
 13 14  1  0
 11 15  1  0
 15 16  2  0
 16 17  1  0
 17 18  2  0
 18 19  1  0
 18 20  1  0
 10  5  1  0
 14 11  1  0
 20 15  1  0
M  END
