CVD-0003815|dock_bobby27042020.15|mol2|25|dock2
     RDKit          3D

 26 28  0  0  0  0  0  0  0  0999 V2000
    7.6376   -6.3428   22.4354 C   0  0  0  0  0  0  0  0  0  0  0  0
    7.6056   -5.1522   23.3861 C   0  0  0  0  0  0  0  0  0  0  0  0
    8.8902   -4.4387   23.2672 N   0  0  0  0  0  0  0  0  0  0  0  0
    8.8669   -2.9836   23.5196 C   0  0  0  0  0  0  0  0  0  0  0  0
   10.0537   -2.5399   24.3822 C   0  0  0  0  0  0  0  0  0  0  0  0
   10.0146   -1.0589   24.6324 C   0  0  0  0  0  0  0  0  0  0  0  0
    9.9765   -0.2901   23.3847 N   0  0  0  0  0  0  0  0  0  0  0  0
    8.8576   -0.6812   22.4961 C   0  0  0  0  0  0  0  0  0  0  0  0
    8.8646   -2.1743   22.2471 C   0  0  0  0  0  0  0  0  0  0  0  0
   10.7755    0.8265   23.1614 C   0  0  0  0  0  0  0  0  0  0  0  0
   10.2136    2.0613   22.8495 C   0  0  0  0  0  0  0  0  0  0  0  0
   11.0012    3.1780   22.6331 C   0  0  0  0  0  0  0  0  0  0  0  0
   12.3776    3.0706   22.7141 C   0  0  0  0  0  0  0  0  0  0  0  0
   12.9623    1.8536   23.0135 C   0  0  0  0  0  0  0  0  0  0  0  0
   12.1629    0.7475   23.2416 C   0  0  0  0  0  0  0  0  0  0  0  0
   13.3916    4.4886   22.4242 S   0  0  0  0  0  0  0  0  0  0  0  0
   12.8774    5.6802   23.3616 N   0  0  0  0  0  0  0  0  0  0  0  0
   13.1800    4.8956   21.0675 O   0  0  0  0  0  0  0  0  0  0  0  0
   14.7191    4.1589   22.8484 O   0  0  0  0  0  0  0  0  0  0  0  0
    7.3594   -5.5944   24.8159 C   0  0  0  0  0  0  0  0  0  0  0  0
    6.0716   -5.8078   25.2862 C   0  0  0  0  0  0  0  0  0  0  0  0
    5.8501   -6.2135   26.5903 C   0  0  0  0  0  0  0  0  0  0  0  0
    6.9033   -6.4193   27.4672 C   0  0  0  0  0  0  0  0  0  0  0  0
    6.6588   -6.8650   28.8883 C   0  0  0  0  0  0  0  0  0  0  0  0
    8.1887   -6.2078   26.9944 C   0  0  0  0  0  0  0  0  0  0  0  0
    8.4157   -5.8021   25.6912 C   0  0  0  0  0  0  0  0  0  0  0  0
  1  2  1  0
  2  3  1  0
  3  4  1  0
  4  5  1  0
  5  6  1  0
  6  7  1  0
  7  8  1  0
  8  9  1  0
  7 10  1  0
 10 11  2  0
 11 12  1  0
 12 13  2  0
 13 14  1  0
 14 15  2  0
 13 16  1  0
 16 17  1  0
 16 18  2  0
 16 19  2  0
  2 20  1  0
 20 21  2  0
 21 22  1  0
 22 23  2  0
 23 24  1  0
 23 25  1  0
 25 26  2  0
  9  4  1  0
 15 10  1  0
 26 20  1  0
M  END
