CVD-0002848|dock_bobby27042020.75|mol2|39|dock3
     RDKit          3D

 21 23  0  0  0  0  0  0  0  0999 V2000
    8.5875    0.1591   17.4005 O   0  0  0  0  0  0  0  0  0  0  0  0
    7.7097    0.5298   18.4499 C   0  0  0  0  0  0  0  0  0  0  0  0
    7.2269   -0.6427   19.2732 C   0  0  0  0  0  0  0  0  0  0  0  0
    6.3045   -1.5229   18.7097 C   0  0  0  0  0  0  0  0  0  0  0  0
    5.8718   -2.6181   19.4277 C   0  0  0  0  0  0  0  0  0  0  0  0
    6.2788   -2.8972   20.6634 N   0  0  0  0  0  0  0  0  0  0  0  0
    7.1334   -2.0376   21.2223 C   0  0  0  0  0  0  0  0  0  0  0  0
    7.6639   -0.9108   20.5864 C   0  0  0  0  0  0  0  0  0  0  0  0
    8.6419   -0.0618   21.3144 C   0  0  0  0  0  0  0  0  0  0  0  0
    8.4801    1.3184   21.3693 N   0  0  0  0  0  0  0  0  0  0  0  0
    9.4936    1.7629   22.0917 C   0  0  0  0  0  0  0  0  0  0  0  0
   10.2967    0.7698   22.5020 N   0  0  0  0  0  0  0  0  0  0  0  0
    9.7769   -0.4035   22.0137 C   0  0  0  0  0  0  0  0  0  0  0  0
   10.4541   -1.7146   22.2838 C   0  0  0  0  0  0  0  0  0  0  0  0
   11.9334   -1.7304   22.0414 C   0  0  0  0  0  0  0  0  0  0  0  0
   12.4782   -1.8365   20.7856 N   0  0  0  0  0  0  0  0  0  0  0  0
   13.8159   -1.8195   20.9312 C   0  0  0  0  0  0  0  0  0  0  0  0
   14.1904   -1.7095   22.1968 N   0  0  0  0  0  0  0  0  0  0  0  0
   12.9920   -1.6536   22.8930 C   0  0  0  0  0  0  0  0  0  0  0  0
   13.0431   -1.5262   24.3739 C   0  0  0  0  0  0  0  0  0  0  0  0
   14.1697   -2.7086   25.0518 Cl  0  0  0  0  0  0  0  0  0  0  0  0
  1  2  1  0
  2  3  1  0
  3  4  2  0
  4  5  1  0
  5  6  2  0
  6  7  1  0
  7  8  2  0
  8  9  1  0
  9 10  1  0
 10 11  2  0
 11 12  1  0
 12 13  1  0
 13 14  1  0
 14 15  1  0
 15 16  1  0
 16 17  1  0
 17 18  2  0
 18 19  1  0
 19 20  1  0
 20 21  1  0
  8  3  1  0
 13  9  2  0
 19 15  2  0
M  END
