CVD-0000118|dock_bobby27042020.71|mol2|23|dock1
     RDKit          3D

 13 14  0  0  0  0  0  0  0  0999 V2000
   10.1844   -1.4451   21.6544 O   0  0  0  0  0  0  0  0  0  0  0  0
   10.9707   -2.0774   22.6514 C   0  0  0  0  0  0  0  0  0  0  0  0
   12.3764   -1.5257   22.6698 C   0  0  0  0  0  0  0  0  0  0  0  0
   12.4157   -0.0735   22.8655 N   0  0  0  0  0  0  0  0  0  0  0  0
   10.9364    0.8432   23.5461 Se  0  0  0  0  0  2  0  0  0  0  0  0
   11.7337    2.2527   22.4827 C   0  0  0  0  0  0  0  0  0  0  0  0
   11.2569    3.6821   22.5636 C   0  0  0  0  0  0  0  0  0  0  0  0
   12.1092    4.6775   22.3199 C   0  0  0  0  0  0  0  0  0  0  0  0
   13.4608    4.4164   22.0069 C   0  0  0  0  0  0  0  0  0  0  0  0
   14.0094    3.2243   22.2464 C   0  0  0  0  0  0  0  0  0  0  0  0
   13.2025    2.1267   22.8833 C   0  0  0  0  0  0  0  0  0  0  0  0
   13.4958    0.6833   22.5170 C   0  0  0  0  0  0  0  0  0  0  0  0
   14.5075    0.2415   22.0070 O   0  0  0  0  0  0  0  0  0  0  0  0
  1  2  1  0
  2  3  1  0
  3  4  1  0
  4  5  1  0
  5  6  1  0
  6  7  1  0
  7  8  2  0
  8  9  1  0
  9 10  2  0
 10 11  1  0
 11 12  1  0
 12 13  2  0
 12  4  1  0
 11  6  1  0
M  END
