CVD-0001708|dock_bobby27042020.94|mol2|25|dock3
     RDKit          3D

 22 24  0  0  0  0  0  0  0  0999 V2000
   13.5339    4.4832   21.9392 C   0  0  0  0  0  0  0  0  0  0  0  0
   13.4418    3.1460   22.5272 C   0  0  0  0  0  0  0  0  0  0  0  0
   13.3520    2.0532   22.9841 C   0  0  0  0  0  0  0  0  0  0  0  0
   13.1150    0.6766   23.3792 C   0  0  0  0  0  0  0  0  0  0  0  0
   14.0435   -0.0522   23.7252 O   0  0  0  0  0  0  0  0  0  0  0  0
   11.8427    0.2517   23.3448 N   0  0  0  0  0  0  0  0  0  0  0  0
   10.7307    1.1080   22.9262 C   0  0  0  0  0  0  0  0  0  0  0  0
    9.9398    0.4438   21.8144 C   0  0  0  0  0  0  0  0  0  0  0  0
    9.4363   -0.8593   22.2585 N   0  0  0  0  0  0  0  0  0  0  0  0
    8.6356   -1.4895   21.1986 C   0  0  0  0  0  0  0  0  0  0  0  0
    7.5205   -0.6244   20.6499 C   0  0  0  0  0  0  0  0  0  0  0  0
    7.5291   -0.2327   19.3369 C   0  0  0  0  0  0  0  0  0  0  0  0
    6.5195    0.5554   18.8106 C   0  0  0  0  0  0  0  0  0  0  0  0
    5.4790    0.9671   19.5887 C   0  0  0  0  0  0  0  0  0  0  0  0
    5.4114    0.5951   20.9529 C   0  0  0  0  0  0  0  0  0  0  0  0
    4.3513    0.9972   21.8005 C   0  0  0  0  0  0  0  0  0  0  0  0
    4.3228    0.6176   23.1096 C   0  0  0  0  0  0  0  0  0  0  0  0
    5.3262   -0.1670   23.6383 C   0  0  0  0  0  0  0  0  0  0  0  0
    6.3685   -0.5796   22.8628 C   0  0  0  0  0  0  0  0  0  0  0  0
    6.4517   -0.2160   21.4940 C   0  0  0  0  0  0  0  0  0  0  0  0
   10.5678   -1.7097   22.6191 C   0  0  0  0  0  0  0  0  0  0  0  0
   11.3772   -1.0815   23.7389 C   0  0  0  0  0  0  0  0  0  0  0  0
  1  2  1  0
  2  3  3  0
  3  4  1  0
  4  5  2  0
  4  6  1  0
  6  7  1  0
  7  8  1  0
  8  9  1  0
  9 10  1  0
 10 11  1  0
 11 12  2  0
 12 13  1  0
 13 14  2  0
 14 15  1  0
 15 16  2  0
 16 17  1  0
 17 18  2  0
 18 19  1  0
 19 20  2  0
  9 21  1  0
 21 22  1  0
 22  6  1  0
 20 11  1  0
 20 15  1  0
M  END
