CVD-0002272|dock_bobby27042020.64|mol2|6|dock3
     RDKit          3D

 40 43  0  0  0  0  0  0  0  0999 V2000
    5.2725   -3.2394   26.4065 C   0  0  0  0  0  0  0  0  0  0  0  0
    5.8185   -4.4117   25.6047 C   0  0  0  0  0  0  0  0  0  0  0  0
    6.6958   -3.9198   24.4417 C   0  0  0  0  0  0  0  0  0  0  0  0
    7.3065   -4.9026   23.5396 N   0  0  0  0  0  0  0  0  0  0  0  0
    7.5312   -4.5045   22.1466 C   0  0  0  0  0  0  0  0  0  0  0  0
    8.1638   -3.1413   22.0425 C   0  0  0  0  0  0  0  0  0  0  0  0
    9.5178   -2.8533   22.2941 C   0  0  0  0  0  0  0  0  0  0  0  0
    9.7588   -1.5088   22.0850 C   0  0  0  0  0  0  0  0  0  0  0  0
   11.0628   -0.8201   22.2438 C   0  0  0  0  0  0  0  0  0  0  0  0
   12.1742   -1.4531   21.6840 C   0  0  0  0  0  0  0  0  0  0  0  0
   13.4462   -0.9267   21.8317 C   0  0  0  0  0  0  0  0  0  0  0  0
   13.6385    0.2417   22.5339 C   0  0  0  0  0  0  0  0  0  0  0  0
   12.5530    0.9150   23.0649 C   0  0  0  0  0  0  0  0  0  0  0  0
   11.2943    0.3927   22.8815 C   0  0  0  0  0  0  0  0  0  0  0  0
   10.2649    1.1371   23.3412 F   0  0  0  0  0  0  0  0  0  0  0  0
    8.5115   -0.9426   21.7098 N   0  0  0  0  0  0  0  0  0  0  0  0
    7.5541   -1.9486   21.6795 C   0  0  0  0  0  0  0  0  0  0  0  0
    8.0748    0.6527   21.3414 S   0  0  0  0  0  0  0  0  0  0  0  0
    7.3002    1.1296   22.4449 O   0  0  0  0  0  0  0  0  0  0  0  0
    9.2728    1.3211   20.9371 O   0  0  0  0  0  0  0  0  0  0  0  0
    7.0180    0.5159   19.9415 C   0  0  0  0  0  0  0  0  0  0  0  0
    5.7541    1.0804   19.9604 C   0  0  0  0  0  0  0  0  0  0  0  0
    4.9565    0.9501   18.8367 C   0  0  0  0  0  0  0  0  0  0  0  0
    5.4510    0.2666   17.7489 C   0  0  0  0  0  0  0  0  0  0  0  0
    6.6665   -0.2817   17.7166 N   0  0  0  0  0  0  0  0  0  0  0  0
    7.4314   -0.1522   18.8045 C   0  0  0  0  0  0  0  0  0  0  0  0
    4.7569   -5.3737   25.1771 N   0  0  0  0  0  0  0  0  0  0  0  0
    4.7225   -6.6315   25.9183 C   0  0  0  0  0  0  0  0  0  0  0  0
    3.8807   -5.1042   24.1789 C   0  0  0  0  0  0  0  0  0  0  0  0
    3.8972   -4.0543   23.5668 O   0  0  0  0  0  0  0  0  0  0  0  0
    2.8487   -6.1481   23.7992 C   0  0  0  0  0  0  0  0  0  0  0  0
    1.5543   -5.4907   23.3367 C   0  0  0  0  0  0  0  0  0  0  0  0
    0.5429   -6.5396   22.9226 C   0  0  0  0  0  0  0  0  0  0  0  0
    1.1010   -7.3819   21.8681 N   0  0  0  0  0  0  0  0  0  0  0  0
    2.3152   -8.0756   22.2839 C   0  0  0  0  0  0  0  0  0  0  0  0
    3.3783   -7.0635   22.6978 C   0  0  0  0  0  0  0  0  0  0  0  0
    0.4660   -7.7464   20.7290 C   0  0  0  0  0  0  0  0  0  0  0  0
    1.0152   -8.4464   19.8874 O   0  0  0  0  0  0  0  0  0  0  0  0
   -0.9535   -7.2614   20.5038 C   0  0  0  0  0  0  0  0  0  0  0  0
   -1.6781   -8.0166   19.0785 Cl  0  0  0  0  0  0  0  0  0  0  0  0
  1  2  1  0
  2  3  1  0
  3  4  1  0
  4  5  1  0
  5  6  1  0
  6  7  1  0
  7  8  2  0
  8  9  1  0
  9 10  2  0
 10 11  1  0
 11 12  2  0
 12 13  1  0
 13 14  2  0
 14 15  1  0
  8 16  1  0
 16 17  1  0
 16 18  1  0
 18 19  2  0
 18 20  2  0
 18 21  1  0
 21 22  2  0
 22 23  1  0
 23 24  2  0
 24 25  1  0
 25 26  2  0
  2 27  1  0
 27 28  1  0
 27 29  1  0
 29 30  2  0
 29 31  1  0
 31 32  1  0
 32 33  1  0
 33 34  1  0
 34 35  1  0
 35 36  1  0
 34 37  1  0
 37 38  2  0
 37 39  1  0
 39 40  1  0
 17  6  2  0
 26 21  1  0
 36 31  1  0
 14  9  1  0
M  END
