CVD-0002245|dock_bobby27042020.78|mol2|10|dock3
     RDKit          3D

 43 48  0  0  0  0  0  0  0  0999 V2000
    4.7237   -1.5539   26.4711 C   0  0  0  0  0  0  0  0  0  0  0  0
    5.5162   -0.4215   26.9170 N   0  0  0  0  0  0  0  0  0  0  0  0
    6.4954    0.1695   26.1924 C   0  0  0  0  0  0  0  0  0  0  0  0
    7.2297    1.2690   26.6850 C   0  0  0  0  0  0  0  0  0  0  0  0
    6.9592    1.8211   28.0390 C   0  0  0  0  0  0  0  0  0  0  0  0
    5.4545    2.7506   28.0773 Cl  0  0  0  0  0  0  0  0  0  0  0  0
    8.2334    1.9406   26.0285 N   0  0  0  0  0  0  0  0  0  0  0  0
    9.2469    1.0592   25.4201 C   0  0  0  0  0  0  0  0  0  0  0  0
    9.3578    1.4765   23.9386 C   0  0  0  0  0  0  0  0  0  0  0  0
   10.3823    0.6034   23.2258 C   0  0  0  0  0  0  0  0  0  0  0  0
   11.7312    0.6909   23.5407 C   0  0  0  0  0  0  0  0  0  0  0  0
   12.6619   -0.1052   22.8941 C   0  0  0  0  0  0  0  0  0  0  0  0
   12.2558   -0.9985   21.9261 C   0  0  0  0  0  0  0  0  0  0  0  0
   10.9191   -1.0967   21.6040 C   0  0  0  0  0  0  0  0  0  0  0  0
    9.9876   -0.3011   22.2499 C   0  0  0  0  0  0  0  0  0  0  0  0
    9.7225    2.9398   23.8374 C   0  0  0  0  0  0  0  0  0  0  0  0
   10.5518    3.4168   22.8225 C   0  0  0  0  0  0  0  0  0  0  0  0
   10.9090    4.7532   22.7558 C   0  0  0  0  0  0  0  0  0  0  0  0
   10.4409    5.6342   23.7055 C   0  0  0  0  0  0  0  0  0  0  0  0
    9.6168    5.1746   24.7189 C   0  0  0  0  0  0  0  0  0  0  0  0
    9.2497    3.8326   24.7978 C   0  0  0  0  0  0  0  0  0  0  0  0
    8.3568    3.3957   25.9277 C   0  0  0  0  0  0  0  0  0  0  0  0
    6.6511   -0.4589   24.9005 C   0  0  0  0  0  0  0  0  0  0  0  0
    6.2015    0.0853   23.6713 C   0  0  0  0  0  0  0  0  0  0  0  0
    6.5138   -0.7679   22.6276 C   0  0  0  0  0  0  0  0  0  0  0  0
    6.2157   -0.5501   21.1861 C   0  0  0  0  0  0  0  0  0  0  0  0
    5.9818   -1.6250   20.3240 C   0  0  0  0  0  0  0  0  0  0  0  0
    5.6977   -1.4254   18.9833 C   0  0  0  0  0  0  0  0  0  0  0  0
    5.6571   -0.1543   18.4587 C   0  0  0  0  0  0  0  0  0  0  0  0
    5.8968    0.9331   19.2773 C   0  0  0  0  0  0  0  0  0  0  0  0
    6.1623    0.7145   20.6084 C   0  0  0  0  0  0  0  0  0  0  0  0
    6.3712    1.8182   21.3623 F   0  0  0  0  0  0  0  0  0  0  0  0
    7.1674   -1.8801   23.2325 N   0  0  0  0  0  0  0  0  0  0  0  0
    7.2423   -1.6693   24.6041 C   0  0  0  0  0  0  0  0  0  0  0  0
    7.8176   -3.3181   22.6082 S   0  0  0  0  0  0  0  0  0  0  0  0
    6.6883   -4.1639   22.3760 O   0  0  0  0  0  0  0  0  0  0  0  0
    8.6722   -2.9820   21.5124 O   0  0  0  0  0  0  0  0  0  0  0  0
    8.7548   -4.0397   23.9117 C   0  0  0  0  0  0  0  0  0  0  0  0
    8.1897   -5.0023   24.7307 C   0  0  0  0  0  0  0  0  0  0  0  0
    8.9643   -5.5468   25.7403 C   0  0  0  0  0  0  0  0  0  0  0  0
   10.2618   -5.1114   25.8878 C   0  0  0  0  0  0  0  0  0  0  0  0
   10.8197   -4.1866   25.1053 N   0  0  0  0  0  0  0  0  0  0  0  0
   10.0666   -3.6652   24.1324 C   0  0  0  0  0  0  0  0  0  0  0  0
  1  2  1  0
  2  3  1  0
  3  4  2  0
  4  5  1  0
  5  6  1  0
  4  7  1  0
  7  8  1  0
  8  9  1  0
  9 10  1  0
 10 11  2  0
 11 12  1  0
 12 13  2  0
 13 14  1  0
 14 15  2  0
  9 16  1  0
 16 17  2  0
 17 18  1  0
 18 19  2  0
 19 20  1  0
 20 21  2  0
 21 22  1  0
  3 23  1  0
 23 24  1  0
 24 25  2  0
 25 26  1  0
 26 27  2  0
 27 28  1  0
 28 29  2  0
 29 30  1  0
 30 31  2  0
 31 32  1  0
 25 33  1  0
 33 34  1  0
 33 35  1  0
 35 36  2  0
 35 37  2  0
 35 38  1  0
 38 39  2  0
 39 40  1  0
 40 41  2  0
 41 42  1  0
 42 43  2  0
 22  7  1  0
 34 23  2  0
 43 38  1  0
 15 10  1  0
 21 16  1  0
 31 26  1  0
M  END
