CVD-0000260|dock_bobby27042020.13|mol2|31|dock2
     RDKit          3D

 22 24  0  0  0  0  0  0  0  0999 V2000
    8.7802    1.3796   20.7683 O   0  0  0  0  0  0  0  0  0  0  0  0
    8.7422    0.1738   20.9891 C   0  0  0  0  0  0  0  0  0  0  0  0
    7.5298   -0.6495   20.6022 C   0  0  0  0  0  0  0  0  0  0  0  0
    6.7185    0.0015   19.5048 C   0  0  0  0  0  0  0  0  0  0  0  0
    7.2228    0.2188   18.2372 C   0  0  0  0  0  0  0  0  0  0  0  0
    6.5244    0.7885   17.2517 N   0  0  0  0  0  0  0  0  0  0  0  0
    5.2828    1.1443   17.5648 C   0  0  0  0  0  0  0  0  0  0  0  0
    4.6778    0.9922   18.7382 N   0  0  0  0  0  0  0  0  0  0  0  0
    5.4147    0.4182   19.6925 C   0  0  0  0  0  0  0  0  0  0  0  0
    9.7202   -0.5516   21.5846 N   0  0  0  0  0  0  0  0  0  0  0  0
   10.9878   -0.1774   22.0966 C   0  0  0  0  0  0  0  0  0  0  0  0
   11.9858   -1.1435   22.1240 C   0  0  0  0  0  0  0  0  0  0  0  0
   13.2441   -0.8390   22.6126 C   0  0  0  0  0  0  0  0  0  0  0  0
   13.5282    0.4315   23.0812 C   0  0  0  0  0  0  0  0  0  0  0  0
   12.5349    1.3983   23.0554 C   0  0  0  0  0  0  0  0  0  0  0  0
   12.7598    2.6818   23.5091 O   0  0  0  0  0  0  0  0  0  0  0  0
   12.5829    3.7966   22.6510 C   0  0  0  0  0  0  0  0  0  0  0  0
   13.7818    3.9657   21.7016 C   0  0  0  0  0  0  0  0  0  0  0  0
   13.9583    5.3076   22.3917 C   0  0  0  0  0  0  0  0  0  0  0  0
   14.6744    6.2932   22.2446 O   0  0  0  0  0  0  0  0  0  0  0  0
   12.9227    5.0734   23.2363 N   0  0  0  0  0  0  0  0  0  0  0  0
   11.2713    1.1032   22.5679 C   0  0  0  0  0  0  0  0  0  0  0  0
  1  2  2  0
  2  3  1  0
  3  4  1  0
  4  5  2  0
  5  6  1  0
  6  7  2  0
  7  8  1  0
  8  9  2  0
  2 10  1  0
 10 11  1  0
 11 12  2  0
 12 13  1  0
 13 14  2  0
 14 15  1  0
 15 16  1  0
 16 17  1  0
 17 18  1  0
 18 19  1  0
 19 20  2  0
 19 21  1  0
 15 22  2  0
  9  4  1  0
 22 11  1  0
 21 17  1  0
M  END
