CVD-0003294|dock_bobby27042020.16|mol2|54|dock2
     RDKit          3D

 16 17  0  0  0  0  0  0  0  0999 V2000
    9.0383   -0.5696   21.7196 C   0  0  0  0  0  0  0  0  0  0  0  0
   10.2863    0.0189   22.1998 N   0  0  0  0  0  0  0  0  0  0  0  0
   10.5742    1.3717   22.2374 C   0  0  0  0  0  0  0  0  0  0  0  0
    9.7250    2.2999   21.8594 O   0  0  0  0  0  0  0  0  0  0  0  0
   11.8814    1.5149   22.7347 C   0  0  0  0  0  0  0  0  0  0  0  0
   12.5374    2.6530   22.9325 N   0  0  0  0  0  0  0  0  0  0  0  0
   12.0658    3.9985   22.6853 C   0  0  0  0  0  0  0  0  0  0  0  0
   13.0377    5.0937   23.0764 C   0  0  0  0  0  0  0  0  0  0  0  0
   13.8927    5.5106   22.1559 N   0  0  0  0  0  0  0  0  0  0  0  0
   12.9980    5.5603   24.2184 O   0  0  0  0  0  0  0  0  0  0  0  0
   12.3962    0.1744   22.9956 C   0  0  0  0  0  0  0  0  0  0  0  0
   13.5979   -0.3399   23.4816 C   0  0  0  0  0  0  0  0  0  0  0  0
   13.7596   -1.7109   23.6011 C   0  0  0  0  0  0  0  0  0  0  0  0
   12.7460   -2.5769   23.2440 C   0  0  0  0  0  0  0  0  0  0  0  0
   11.5394   -2.0978   22.7594 C   0  0  0  0  0  0  0  0  0  0  0  0
   11.3761   -0.7220   22.6427 C   0  0  0  0  0  0  0  0  0  0  0  0
  1  2  1  0
  2  3  1  0
  3  4  1  0
  3  5  2  0
  5  6  1  0
  6  7  1  0
  7  8  1  0
  8  9  1  0
  8 10  2  0
  5 11  1  0
 11 12  2  0
 12 13  1  0
 13 14  2  0
 14 15  1  0
 15 16  2  0
 16  2  1  0
 16 11  1  0
M  END
