CVD-0000632|dock_bobby27042020.69|mol2|36|dock3
     RDKit          3D

 22 24  0  0  0  0  0  0  0  0999 V2000
    7.0809   -4.1969   24.7308 C   0  0  0  0  0  0  0  0  0  0  0  0
    8.1141   -3.1323   24.5671 C   0  0  0  0  0  0  0  0  0  0  0  0
    8.2172   -2.0842   25.3584 N   0  0  0  0  0  0  0  0  0  0  0  0
    9.2621   -1.2852   24.9705 C   0  0  0  0  0  0  0  0  0  0  0  0
    9.9672   -1.7046   23.8915 C   0  0  0  0  0  0  0  0  0  0  0  0
    9.3053   -3.1910   23.3086 S   0  0  0  0  0  0  0  0  0  0  0  0
   11.1728   -1.0148   23.2501 C   0  0  0  0  0  0  0  0  0  0  0  0
   10.7043   -0.9584   21.7739 C   0  0  0  0  0  0  0  0  0  0  0  0
    9.3040   -0.4573   21.4767 C   0  0  0  0  0  0  0  0  0  0  0  0
    8.6410    0.1717   22.2936 O   0  0  0  0  0  0  0  0  0  0  0  0
    8.8850   -0.7814   20.2291 N   0  0  0  0  0  0  0  0  0  0  0  0
    7.6679   -0.5173   19.5532 C   0  0  0  0  0  0  0  0  0  0  0  0
    6.4628   -0.2487   20.1946 C   0  0  0  0  0  0  0  0  0  0  0  0
    5.3317   -0.0039   19.4351 C   0  0  0  0  0  0  0  0  0  0  0  0
    5.4335   -0.0338   18.0633 C   0  0  0  0  0  0  0  0  0  0  0  0
    6.5735   -0.2881   17.4211 N   0  0  0  0  0  0  0  0  0  0  0  0
    7.6594   -0.5231   18.1631 C   0  0  0  0  0  0  0  0  0  0  0  0
   12.4763   -1.8092   23.3235 C   0  0  0  0  0  0  0  0  0  0  0  0
   13.6080   -1.0761   22.6252 C   0  0  0  0  0  0  0  0  0  0  0  0
   13.7919    0.3223   23.1779 C   0  0  0  0  0  0  0  0  0  0  0  0
   12.4997    1.1179   23.0960 C   0  0  0  0  0  0  0  0  0  0  0  0
   11.3603    0.3960   23.7986 C   0  0  0  0  0  0  0  0  0  0  0  0
  1  2  1  0
  2  3  2  0
  3  4  1  0
  4  5  2  0
  5  6  1  0
  5  7  1  0
  7  8  1  0
  8  9  1  0
  9 10  2  0
  9 11  1  0
 11 12  1  0
 12 13  2  0
 13 14  1  0
 14 15  2  0
 15 16  1  0
 16 17  2  0
  7 18  1  0
 18 19  1  0
 19 20  1  0
 20 21  1  0
 21 22  1  0
  6  2  1  0
 22  7  1  0
 17 12  1  0
M  END
