CVD-0000636|dock_bobby27042020.12|mol2|22|dock3
     RDKit          3D

 26 28  0  0  0  0  0  0  0  0999 V2000
   13.7221    3.5318   22.2820 C   0  0  0  0  0  0  0  0  0  0  0  0
   14.3031    2.1597   22.4587 C   0  0  0  0  0  0  0  0  0  0  0  0
   15.4534    1.9072   22.1182 O   0  0  0  0  0  0  0  0  0  0  0  0
   13.5095    1.2008   22.9961 N   0  0  0  0  0  0  0  0  0  0  0  0
   12.1310    1.4560   23.4194 C   0  0  0  0  0  0  0  0  0  0  0  0
   11.1829    0.4725   22.7587 C   0  0  0  0  0  0  0  0  0  0  0  0
   11.5678   -0.9029   23.0889 N   0  0  0  0  0  0  0  0  0  0  0  0
   10.6310   -1.8565   22.4853 C   0  0  0  0  0  0  0  0  0  0  0  0
    9.2227   -1.3483   22.4039 C   0  0  0  0  0  0  0  0  0  0  0  0
    8.7877   -1.0107   21.1682 N   0  0  0  0  0  0  0  0  0  0  0  0
    7.5036   -0.5238   20.9194 C   0  0  0  0  0  0  0  0  0  0  0  0
    7.1186   -0.1927   19.6236 C   0  0  0  0  0  0  0  0  0  0  0  0
    5.8391    0.2919   19.3932 C   0  0  0  0  0  0  0  0  0  0  0  0
    4.9330    0.4502   20.4293 C   0  0  0  0  0  0  0  0  0  0  0  0
    5.3129    0.1215   21.7175 C   0  0  0  0  0  0  0  0  0  0  0  0
    6.5921   -0.3656   21.9782 C   0  0  0  0  0  0  0  0  0  0  0  0
    7.0062   -0.7192   23.3504 C   0  0  0  0  0  0  0  0  0  0  0  0
    6.2558   -0.6031   24.3131 O   0  0  0  0  0  0  0  0  0  0  0  0
    8.3798   -1.2202   23.4842 C   0  0  0  0  0  0  0  0  0  0  0  0
    8.8674   -1.6386   25.0827 Cl  0  0  0  0  0  0  0  0  0  0  0  0
    5.3590    0.7035   17.7429 S   0  0  0  0  0  0  0  0  0  0  0  0
    4.3665    1.9582   17.8013 N   0  0  0  0  0  0  0  0  0  0  0  0
    6.5373    1.1277   17.0479 O   0  0  0  0  0  0  0  0  0  0  0  0
    4.6120   -0.4037   17.2261 O   0  0  0  0  0  0  0  0  0  0  0  0
   12.9256   -1.1463   22.6089 C   0  0  0  0  0  0  0  0  0  0  0  0
   13.9057   -0.1863   23.2585 C   0  0  0  0  0  0  0  0  0  0  0  0
  1  2  1  0
  2  3  2  0
  2  4  1  0
  4  5  1  0
  5  6  1  0
  6  7  1  0
  7  8  1  0
  8  9  1  0
  9 10  1  0
 10 11  1  0
 11 12  2  0
 12 13  1  0
 13 14  2  0
 14 15  1  0
 15 16  2  0
 16 17  1  0
 17 18  2  0
 17 19  1  0
 19 20  1  0
 13 21  1  0
 21 22  1  0
 21 23  2  0
 21 24  2  0
  7 25  1  0
 25 26  1  0
 26  4  1  0
 19  9  2  0
 16 11  1  0
M  END
