CVD-0001977|dock_bobby27042020.93|mol2|23|dock1
     RDKit          3D

 14 14  0  0  0  0  0  0  0  0999 V2000
   13.7898    0.6573   22.7019 C   0  0  0  0  0  0  0  0  0  0  0  0
   12.8781   -0.5595   22.8296 C   0  0  0  0  0  0  0  0  0  0  0  0
   13.7023   -1.6752   23.4628 C   0  0  0  0  0  0  0  0  0  0  0  0
   11.5840   -0.3069   23.6363 C   0  0  0  0  0  0  0  0  0  0  0  0
   10.7037   -1.5766   23.7464 C   0  0  0  0  0  0  0  0  0  0  0  0
    9.9254   -1.8968   22.4689 C   0  0  0  0  0  0  0  0  0  0  0  0
    9.0842   -0.7071   22.0315 C   0  0  0  0  0  0  0  0  0  0  0  0
    8.2466   -1.0086   20.7934 C   0  0  0  0  0  0  0  0  0  0  0  0
    9.9994    0.4993   21.7885 C   0  0  0  0  0  0  0  0  0  0  0  0
   10.7652    0.8691   23.0477 C   0  0  0  0  0  0  0  0  0  0  0  0
   11.6116    2.0350   22.8274 O   0  0  0  0  0  0  0  0  0  0  0  0
   11.0398    3.2322   22.5774 C   0  0  0  0  0  0  0  0  0  0  0  0
   12.0785    4.2569   22.2651 C   0  0  0  0  0  0  0  0  0  0  0  0
    9.8561    3.4291   22.5963 O   0  0  0  0  0  0  0  0  0  0  0  0
  1  2  1  0
  2  3  1  0
  2  4  1  0
  4  5  1  0
  5  6  1  0
  6  7  1  0
  7  8  1  0
  7  9  1  0
  9 10  1  0
 10 11  1  0
 11 12  1  0
 12 13  1  0
 12 14  2  0
 10  4  1  0
M  END
