CVD-0002068|dock_bobby27042020.21|mol2|39|dock1
     RDKit          3D

 34 37  0  0  0  0  0  0  0  0999 V2000
   13.5782   -1.6860   21.3246 C   0  0  0  0  0  0  0  0  0  0  0  0
   12.2721   -1.1780   21.9004 C   0  0  0  0  0  0  0  0  0  0  0  0
   11.5413   -0.3882   21.1290 N   0  0  0  0  0  0  0  0  0  0  0  0
   10.2304    0.1705   21.4402 C   0  0  0  0  0  0  0  0  0  0  0  0
    9.1163   -0.7240   20.9636 C   0  0  0  0  0  0  0  0  0  0  0  0
    8.8425   -2.0125   21.4556 C   0  0  0  0  0  0  0  0  0  0  0  0
    7.7514   -2.5522   20.7984 C   0  0  0  0  0  0  0  0  0  0  0  0
    7.1457   -3.8935   21.0140 C   0  0  0  0  0  0  0  0  0  0  0  0
    6.6344   -4.6379   19.9457 C   0  0  0  0  0  0  0  0  0  0  0  0
    6.0451   -5.8744   20.1505 C   0  0  0  0  0  0  0  0  0  0  0  0
    5.9756   -6.4167   21.4131 C   0  0  0  0  0  0  0  0  0  0  0  0
    6.4958   -5.7218   22.4886 C   0  0  0  0  0  0  0  0  0  0  0  0
    7.0597   -4.4875   22.2686 C   0  0  0  0  0  0  0  0  0  0  0  0
    7.5404   -3.8463   23.3585 F   0  0  0  0  0  0  0  0  0  0  0  0
    7.3273   -1.5538   19.8784 N   0  0  0  0  0  0  0  0  0  0  0  0
    8.1688   -0.4528   19.9881 C   0  0  0  0  0  0  0  0  0  0  0  0
    6.0426   -1.5337   18.7711 S   0  0  0  0  0  0  0  0  0  0  0  0
    5.1180   -2.5369   19.1994 O   0  0  0  0  0  0  0  0  0  0  0  0
    6.6308   -1.5879   17.4688 O   0  0  0  0  0  0  0  0  0  0  0  0
    5.2732    0.0366   18.9673 C   0  0  0  0  0  0  0  0  0  0  0  0
    5.3291    0.9755   17.9515 C   0  0  0  0  0  0  0  0  0  0  0  0
    4.7058    2.1959   18.1463 C   0  0  0  0  0  0  0  0  0  0  0  0
    4.0565    2.4254   19.3382 C   0  0  0  0  0  0  0  0  0  0  0  0
    3.9931    1.5296   20.3244 N   0  0  0  0  0  0  0  0  0  0  0  0
    4.5966    0.3534   20.1300 C   0  0  0  0  0  0  0  0  0  0  0  0
   12.5582   -0.4740   23.1332 N   0  0  0  0  0  0  0  0  0  0  0  0
   11.6744   -0.3937   24.1681 C   0  0  0  0  0  0  0  0  0  0  0  0
   11.7350    0.6721   25.0644 C   0  0  0  0  0  0  0  0  0  0  0  0
   10.8193    0.7143   26.1000 C   0  0  0  0  0  0  0  0  0  0  0  0
    9.8707   -0.2947   26.2227 C   0  0  0  0  0  0  0  0  0  0  0  0
    9.8916   -1.3162   25.2777 C   0  0  0  0  0  0  0  0  0  0  0  0
   10.7699   -1.3725   24.2701 N   0  0  0  0  0  0  0  0  0  0  0  0
    8.9007   -0.2832   27.2898 C   0  0  0  0  0  0  0  0  0  0  0  0
    8.1116   -0.2570   28.1153 N   0  0  0  0  0  0  0  0  0  0  0  0
  1  2  1  0
  2  3  1  0
  3  4  1  0
  4  5  1  0
  5  6  1  0
  6  7  2  0
  7  8  1  0
  8  9  2  0
  9 10  1  0
 10 11  2  0
 11 12  1  0
 12 13  2  0
 13 14  1  0
  7 15  1  0
 15 16  1  0
 15 17  1  0
 17 18  2  0
 17 19  2  0
 17 20  1  0
 20 21  2  0
 21 22  1  0
 22 23  2  0
 23 24  1  0
 24 25  2  0
  2 26  1  0
 26 27  1  0
 27 28  2  0
 28 29  1  0
 29 30  2  0
 30 31  1  0
 31 32  2  0
 30 33  1  0
 33 34  3  0
 16  5  2  0
 25 20  1  0
 32 27  1  0
 13  8  1  0
M  END
