CVD-0003776|dock_bobby27042020.72|mol2|41|dock3
     RDKit          3D

 30 33  0  0  0  0  0  0  0  0999 V2000
    2.0499   -7.8726   22.3115 C   0  0  0  0  0  0  0  0  0  0  0  0
    2.6203   -8.0115   23.6993 C   0  0  0  0  0  0  0  0  0  0  0  0
    2.1682   -9.0684   24.4884 C   0  0  0  0  0  0  0  0  0  0  0  0
    2.6352   -9.2721   25.7751 C   0  0  0  0  0  0  0  0  0  0  0  0
    3.5733   -8.4152   26.3037 C   0  0  0  0  0  0  0  0  0  0  0  0
    4.0410   -7.3600   25.5409 C   0  0  0  0  0  0  0  0  0  0  0  0
    3.5842   -7.1391   24.2417 C   0  0  0  0  0  0  0  0  0  0  0  0
    4.1655   -5.9543   23.4873 C   0  0  0  0  0  0  0  0  0  0  0  0
    5.6726   -6.0749   23.2757 C   0  0  0  0  0  0  0  0  0  0  0  0
    6.1666   -4.8868   22.4685 C   0  0  0  0  0  0  0  0  0  0  0  0
    5.8796   -3.6336   23.1590 N   0  0  0  0  0  0  0  0  0  0  0  0
    6.4415   -2.4950   22.4216 C   0  0  0  0  0  0  0  0  0  0  0  0
    7.8481   -2.0680   22.8277 C   0  0  0  0  0  0  0  0  0  0  0  0
    8.6743   -1.6182   21.6176 C   0  0  0  0  0  0  0  0  0  0  0  0
   10.0574   -1.2036   22.0330 C   0  0  0  0  0  0  0  0  0  0  0  0
   10.0340   -0.1511   23.0532 N   0  0  0  0  0  0  0  0  0  0  0  0
    9.2374   -0.5179   24.2471 C   0  0  0  0  0  0  0  0  0  0  0  0
    7.8450   -0.9597   23.8502 C   0  0  0  0  0  0  0  0  0  0  0  0
   10.8452    0.9741   22.9936 C   0  0  0  0  0  0  0  0  0  0  0  0
   10.2960    2.2498   22.9073 C   0  0  0  0  0  0  0  0  0  0  0  0
   11.1016    3.3727   22.8416 C   0  0  0  0  0  0  0  0  0  0  0  0
   12.4775    3.2303   22.8665 C   0  0  0  0  0  0  0  0  0  0  0  0
   13.0462    1.9726   22.9590 C   0  0  0  0  0  0  0  0  0  0  0  0
   12.2315    0.8559   23.0196 C   0  0  0  0  0  0  0  0  0  0  0  0
   13.5122    4.6610   22.7910 S   0  0  0  0  0  0  0  0  0  0  0  0
   13.2118    5.4325   21.4208 N   0  0  0  0  0  0  0  0  0  0  0  0
   13.1202    5.5291   23.8605 O   0  0  0  0  0  0  0  0  0  0  0  0
   14.8686    4.2051   22.7319 O   0  0  0  0  0  0  0  0  0  0  0  0
    4.4259   -3.4948   23.2994 C   0  0  0  0  0  0  0  0  0  0  0  0
    3.8446   -4.6191   24.1424 C   0  0  0  0  0  0  0  0  0  0  0  0
  1  2  1  0
  2  3  2  0
  3  4  1  0
  4  5  2  0
  5  6  1  0
  6  7  2  0
  7  8  1  0
  8  9  1  0
  9 10  1  0
 10 11  1  0
 11 12  1  0
 12 13  1  0
 13 14  1  0
 14 15  1  0
 15 16  1  0
 16 17  1  0
 17 18  1  0
 16 19  1  0
 19 20  2  0
 20 21  1  0
 21 22  2  0
 22 23  1  0
 23 24  2  0
 22 25  1  0
 25 26  1  0
 25 27  2  0
 25 28  2  0
 11 29  1  0
 29 30  1  0
  7  2  1  0
 30  8  1  0
 18 13  1  0
 24 19  1  0
M  END
