CVD-0002483|dock_bobby27042020.48|mol2|24|dock3
     RDKit          3D

 19 20  0  0  0  0  0  0  0  0999 V2000
   12.9746   -0.3560   25.3344 C   0  0  0  0  0  0  0  0  0  0  0  0
   13.6183   -1.4485   24.5047 C   0  0  0  0  0  0  0  0  0  0  0  0
   13.4513   -2.9790   25.4524 Cl  0  0  0  0  0  0  0  0  0  0  0  0
   12.9310   -1.5417   23.1339 C   0  0  0  0  0  0  0  0  0  0  0  0
   13.1909   -2.8236   22.6230 O   0  0  0  0  0  0  0  0  0  0  0  0
   11.4799   -1.3129   23.1895 N   0  0  0  0  0  0  0  0  0  0  0  0
   10.9120   -0.5758   22.0695 C   0  0  0  0  0  0  0  0  0  0  0  0
    9.4629   -0.2421   22.3502 C   0  0  0  0  0  0  0  0  0  0  0  0
    8.6706   -1.4654   22.5468 N   0  0  0  0  0  0  0  0  0  0  0  0
    7.2726   -1.1061   22.8274 C   0  0  0  0  0  0  0  0  0  0  0  0
    6.5527   -0.5094   21.6416 C   0  0  0  0  0  0  0  0  0  0  0  0
    5.8430    0.6743   21.7633 C   0  0  0  0  0  0  0  0  0  0  0  0
    5.1852    1.2106   20.6698 C   0  0  0  0  0  0  0  0  0  0  0  0
    5.2324    0.5643   19.4462 C   0  0  0  0  0  0  0  0  0  0  0  0
    5.9335   -0.6224   19.2990 C   0  0  0  0  0  0  0  0  0  0  0  0
    5.9902   -1.3286   17.9662 C   0  0  0  0  0  0  0  0  0  0  0  0
    6.5870   -1.1428   20.4060 C   0  0  0  0  0  0  0  0  0  0  0  0
    9.2586   -2.2321   23.6514 C   0  0  0  0  0  0  0  0  0  0  0  0
   10.7123   -2.5437   23.3752 C   0  0  0  0  0  0  0  0  0  0  0  0
  1  2  1  0
  2  3  1  0
  2  4  1  0
  4  5  1  0
  4  6  1  0
  6  7  1  0
  7  8  1  0
  8  9  1  0
  9 10  1  0
 10 11  1  0
 11 12  2  0
 12 13  1  0
 13 14  2  0
 14 15  1  0
 15 16  1  0
 15 17  2  0
  9 18  1  0
 18 19  1  0
 19  6  1  0
 17 11  1  0
M  END
