CVD-0000832|dock_bobby27042020.11|mol2|37|dock1
     RDKit          3D

 29 31  0  0  0  0  0  0  0  0999 V2000
   10.0529   -5.1279   27.0702 C   0  0  0  0  0  0  0  0  0  0  0  0
    9.6425   -3.8005   26.7477 O   0  0  0  0  0  0  0  0  0  0  0  0
    9.9713   -3.2448   25.5361 C   0  0  0  0  0  0  0  0  0  0  0  0
   10.4883   -3.9879   24.4929 C   0  0  0  0  0  0  0  0  0  0  0  0
   10.8096   -3.4480   23.3111 N   0  0  0  0  0  0  0  0  0  0  0  0
   10.6284   -2.1329   23.1164 C   0  0  0  0  0  0  0  0  0  0  0  0
   11.0042   -1.5797   21.7625 C   0  0  0  0  0  0  0  0  0  0  0  0
    9.8628   -1.0016   21.0687 N   0  0  0  0  0  0  0  0  0  0  0  0
    8.8364   -1.7822   20.6845 C   0  0  0  0  0  0  0  0  0  0  0  0
    8.8280   -2.9795   20.9433 O   0  0  0  0  0  0  0  0  0  0  0  0
    7.7973   -1.2252   19.9993 N   0  0  0  0  0  0  0  0  0  0  0  0
    6.4762   -1.8573   19.9040 C   0  0  0  0  0  0  0  0  0  0  0  0
    5.9871   -1.8165   18.4705 C   0  0  0  0  0  0  0  0  0  0  0  0
    5.9653   -0.4998   17.9573 O   0  0  0  0  0  0  0  0  0  0  0  0
    7.2765    0.0643   17.9945 C   0  0  0  0  0  0  0  0  0  0  0  0
    7.8116    0.1165   19.4083 C   0  0  0  0  0  0  0  0  0  0  0  0
   10.1043   -1.2988   24.1272 C   0  0  0  0  0  0  0  0  0  0  0  0
    9.9004    0.1830   23.9150 C   0  0  0  0  0  0  0  0  0  0  0  0
   10.9998    0.8124   23.1696 N   0  0  0  0  0  0  0  0  0  0  0  0
   10.5982    2.1359   22.6839 C   0  0  0  0  0  0  0  0  0  0  0  0
   11.7219    2.7637   21.8804 C   0  0  0  0  0  0  0  0  0  0  0  0
   12.9351    2.8701   22.6939 N   0  0  0  0  0  0  0  0  0  0  0  0
   13.3298    1.5699   23.2449 C   0  0  0  0  0  0  0  0  0  0  0  0
   12.1790    0.9544   24.0198 C   0  0  0  0  0  0  0  0  0  0  0  0
   13.6010    4.0357   22.8701 C   0  0  0  0  0  0  0  0  0  0  0  0
   14.6099    4.0964   23.5619 O   0  0  0  0  0  0  0  0  0  0  0  0
   13.0755    5.2811   22.1819 C   0  0  0  0  0  0  0  0  0  0  0  0
   14.1601    6.6522   22.4478 Cl  0  0  0  0  0  0  0  0  0  0  0  0
    9.7807   -1.8878   25.3432 C   0  0  0  0  0  0  0  0  0  0  0  0
  1  2  1  0
  2  3  1  0
  3  4  2  0
  4  5  1  0
  5  6  2  0
  6  7  1  0
  7  8  1  0
  8  9  1  0
  9 10  2  0
  9 11  1  0
 11 12  1  0
 12 13  1  0
 13 14  1  0
 14 15  1  0
 15 16  1  0
  6 17  1  0
 17 18  1  0
 18 19  1  0
 19 20  1  0
 20 21  1  0
 21 22  1  0
 22 23  1  0
 23 24  1  0
 22 25  1  0
 25 26  2  0
 25 27  1  0
 27 28  1  0
 17 29  2  0
 29  3  1  0
 16 11  1  0
 24 19  1  0
M  END
