CVD-0000330|dock_bobby27042020.70|mol2|29|dock2
     RDKit          3D

 31 34  0  0  0  0  0  0  0  0999 V2000
    7.5452   -3.6473   24.8940 C   0  0  0  0  0  0  0  0  0  0  0  0
    8.3751   -4.5159   24.0209 C   0  0  0  0  0  0  0  0  0  0  0  0
    9.0764   -3.6648   23.1082 O   0  0  0  0  0  0  0  0  0  0  0  0
    8.3726   -2.8578   22.2469 C   0  0  0  0  0  0  0  0  0  0  0  0
    7.1043   -3.1394   21.7686 C   0  0  0  0  0  0  0  0  0  0  0  0
    6.4494   -2.3562   20.9044 N   0  0  0  0  0  0  0  0  0  0  0  0
    7.0500   -1.2401   20.4607 C   0  0  0  0  0  0  0  0  0  0  0  0
    8.3123   -0.8743   20.9151 C   0  0  0  0  0  0  0  0  0  0  0  0
    8.9982   -1.6747   21.8282 C   0  0  0  0  0  0  0  0  0  0  0  0
   10.3420   -1.1965   22.2742 C   0  0  0  0  0  0  0  0  0  0  0  0
   11.3732   -2.0713   22.6183 C   0  0  0  0  0  0  0  0  0  0  0  0
   12.5921   -1.5656   23.0191 C   0  0  0  0  0  0  0  0  0  0  0  0
   13.8688   -2.6740   23.4366 Cl  0  0  0  0  0  0  0  0  0  0  0  0
   12.8317   -0.2096   23.1001 C   0  0  0  0  0  0  0  0  0  0  0  0
   11.8139    0.6817   22.7692 C   0  0  0  0  0  0  0  0  0  0  0  0
   10.5847    0.1741   22.3621 C   0  0  0  0  0  0  0  0  0  0  0  0
   11.9774    2.1745   22.8300 C   0  0  0  0  0  0  0  0  0  0  0  0
   11.0031    2.8681   23.1059 O   0  0  0  0  0  0  0  0  0  0  0  0
   13.2114    2.7347   22.5763 N   0  0  0  0  0  0  0  0  0  0  0  0
   13.5129    4.0733   22.5944 C   0  0  0  0  0  0  0  0  0  0  0  0
   14.2332    4.9117   21.7661 C   0  0  0  0  0  0  0  0  0  0  0  0
   14.1503    6.1888   22.3691 C   0  0  0  0  0  0  0  0  0  0  0  0
   13.4227    6.0571   23.4701 C   0  0  0  0  0  0  0  0  0  0  0  0
   13.0074    4.7639   23.6485 O   0  0  0  0  0  0  0  0  0  0  0  0
    6.2621   -0.4488   19.4740 C   0  0  0  0  0  0  0  0  0  0  0  0
    6.7172   -0.4716   18.1576 C   0  0  0  0  0  0  0  0  0  0  0  0
    6.1290    0.1667   17.1426 N   0  0  0  0  0  0  0  0  0  0  0  0
    5.0294    0.8616   17.4302 C   0  0  0  0  0  0  0  0  0  0  0  0
    4.4991    0.9601   18.7005 C   0  0  0  0  0  0  0  0  0  0  0  0
    5.1162    0.3085   19.7656 C   0  0  0  0  0  0  0  0  0  0  0  0
    4.5349    0.4623   21.1470 C   0  0  0  0  0  0  0  0  0  0  0  0
  1  2  1  0
  2  3  1  0
  3  4  1  0
  4  5  2  0
  5  6  1  0
  6  7  2  0
  7  8  1  0
  8  9  2  0
  9 10  1  0
 10 11  2  0
 11 12  1  0
 12 13  1  0
 12 14  2  0
 14 15  1  0
 15 16  2  0
 15 17  1  0
 17 18  2  0
 17 19  1  0
 19 20  1  0
 20 21  2  0
 21 22  1  0
 22 23  2  0
 23 24  1  0
  7 25  1  0
 25 26  2  0
 26 27  1  0
 27 28  2  0
 28 29  1  0
 29 30  2  0
 30 31  1  0
  9  4  1  0
 16 10  1  0
 24 20  1  0
 30 25  1  0
M  END
