CVD-0002184|dock_bobby27042020.78|mol2|20|dock2
     RDKit          3D

 31 34  0  0  0  0  0  0  0  0999 V2000
   13.5561    4.0099   21.4948 F   0  0  0  0  0  0  0  0  0  0  0  0
   12.7890    4.8243   22.2686 C   0  0  0  0  0  0  0  0  0  0  0  0
   13.4110    5.8188   22.9767 C   0  0  0  0  0  0  0  0  0  0  0  0
   12.6426    6.6547   23.7679 C   0  0  0  0  0  0  0  0  0  0  0  0
   11.2671    6.4581   23.8183 C   0  0  0  0  0  0  0  0  0  0  0  0
   10.2843    7.1262   24.5068 N   0  0  0  0  0  0  0  0  0  0  0  0
    9.0761    6.5491   24.2247 C   0  0  0  0  0  0  0  0  0  0  0  0
    9.2385    5.5076   23.3596 C   0  0  0  0  0  0  0  0  0  0  0  0
    8.1722    4.6125   22.7993 C   0  0  0  0  0  0  0  0  0  0  0  0
    8.1302    3.2521   23.4662 C   0  0  0  0  0  0  0  0  0  0  0  0
    7.4618    2.2606   22.6355 N   0  0  0  0  0  0  0  0  0  0  0  0
    8.0210    1.8169   21.5039 C   0  0  0  0  0  0  0  0  0  0  0  0
    9.1699    2.1583   21.2386 O   0  0  0  0  0  0  0  0  0  0  0  0
    7.2455    0.9138   20.5728 C   0  0  0  0  0  0  0  0  0  0  0  0
    5.9606    1.3148   20.1902 C   0  0  0  0  0  0  0  0  0  0  0  0
    5.2018    0.5499   19.3263 C   0  0  0  0  0  0  0  0  0  0  0  0
    5.6934   -0.6396   18.8486 C   0  0  0  0  0  0  0  0  0  0  0  0
    6.9493   -1.0821   19.2219 C   0  0  0  0  0  0  0  0  0  0  0  0
    7.7535   -0.3172   20.0736 C   0  0  0  0  0  0  0  0  0  0  0  0
    9.0631   -0.7324   20.4526 N   0  0  0  0  0  0  0  0  0  0  0  0
    9.7361   -0.5925   21.6478 C   0  0  0  0  0  0  0  0  0  0  0  0
    9.2873   -0.0501   22.6519 O   0  0  0  0  0  0  0  0  0  0  0  0
   10.9942   -1.1481   21.5791 N   0  0  0  0  0  0  0  0  0  0  0  0
   12.0183   -1.2374   22.5558 C   0  0  0  0  0  0  0  0  0  0  0  0
   12.9715   -2.2503   22.6111 C   0  0  0  0  0  0  0  0  0  0  0  0
   13.9245   -2.2300   23.6149 C   0  0  0  0  0  0  0  0  0  0  0  0
   13.9019   -1.2053   24.5325 C   0  0  0  0  0  0  0  0  0  0  0  0
   13.0027   -0.2221   24.5058 N   0  0  0  0  0  0  0  0  0  0  0  0
   12.0873   -0.2509   23.5331 C   0  0  0  0  0  0  0  0  0  0  0  0
   10.6448    5.4311   23.0841 C   0  0  0  0  0  0  0  0  0  0  0  0
   11.4332    4.5978   22.2919 C   0  0  0  0  0  0  0  0  0  0  0  0
  1  2  1  0
  2  3  2  0
  3  4  1  0
  4  5  2  0
  5  6  1  0
  6  7  1  0
  7  8  2  0
  8  9  1  0
  9 10  1  0
 10 11  1  0
 11 12  1  0
 12 13  2  0
 12 14  1  0
 14 15  2  0
 15 16  1  0
 16 17  2  0
 17 18  1  0
 18 19  2  0
 19 20  1  0
 20 21  1  0
 21 22  2  0
 21 23  1  0
 23 24  1  0
 24 25  2  0
 25 26  1  0
 26 27  2  0
 27 28  1  0
 28 29  2  0
  8 30  1  0
 30 31  2  0
 31  2  1  0
 30  5  1  0
 19 14  1  0
 29 24  1  0
M  END
