CVD-0000137|dock_bobby27042020.71|mol2|20|dock3
     RDKit          3D

 18 19  0  0  0  0  0  0  0  0999 V2000
    8.6418    0.1583   22.3516 O   0  0  0  0  0  0  0  0  0  0  0  0
    9.1446   -0.4069   21.3863 C   0  0  0  0  0  0  0  0  0  0  0  0
   10.3717   -1.0304   21.4024 N   0  0  0  0  0  0  0  0  0  0  0  0
   11.3209   -1.1844   22.4447 C   0  0  0  0  0  0  0  0  0  0  0  0
   11.0452   -0.9386   23.7885 C   0  0  0  0  0  0  0  0  0  0  0  0
   12.0247   -1.1112   24.7509 C   0  0  0  0  0  0  0  0  0  0  0  0
   13.3003   -1.5328   24.3945 C   0  0  0  0  0  0  0  0  0  0  0  0
   13.5796   -1.7791   23.0558 C   0  0  0  0  0  0  0  0  0  0  0  0
   12.5991   -1.6058   22.0957 C   0  0  0  0  0  0  0  0  0  0  0  0
   14.3191   -1.7119   25.3995 C   0  0  0  0  0  0  0  0  0  0  0  0
   15.1088   -1.8336   26.2157 N   0  0  0  0  0  0  0  0  0  0  0  0
    8.5538   -0.4994   20.1467 N   0  0  0  0  0  0  0  0  0  0  0  0
    7.3086   -0.0121   19.6744 C   0  0  0  0  0  0  0  0  0  0  0  0
    7.2454    0.5116   18.3894 C   0  0  0  0  0  0  0  0  0  0  0  0
    6.0436    0.9942   17.9022 C   0  0  0  0  0  0  0  0  0  0  0  0
    4.9352    0.9403   18.7145 C   0  0  0  0  0  0  0  0  0  0  0  0
    4.9616    0.4445   19.9515 N   0  0  0  0  0  0  0  0  0  0  0  0
    6.1270   -0.0195   20.4134 C   0  0  0  0  0  0  0  0  0  0  0  0
  1  2  2  0
  2  3  1  0
  3  4  1  0
  4  5  2  0
  5  6  1  0
  6  7  2  0
  7  8  1  0
  8  9  2  0
  7 10  1  0
 10 11  3  0
  2 12  1  0
 12 13  1  0
 13 14  2  0
 14 15  1  0
 15 16  2  0
 16 17  1  0
 17 18  2  0
  9  4  1  0
 18 13  1  0
M  END
