CVD-0003434|dock_bobby27042020.2|mol2|9|dock1
     RDKit          3D

 18 19  0  0  0  0  0  0  0  0999 V2000
   12.7650   -0.3697   25.8647 N   0  0  0  0  0  0  0  0  0  0  0  0
   12.8652   -0.7449   24.5455 C   0  0  0  0  0  0  0  0  0  0  0  0
   14.0574   -1.2317   24.0287 C   0  0  0  0  0  0  0  0  0  0  0  0
   14.2017   -1.6074   22.7571 N   0  0  0  0  0  0  0  0  0  0  0  0
   13.1484   -1.5039   21.9674 C   0  0  0  0  0  0  0  0  0  0  0  0
   13.4544   -2.0209   20.3383 Cl  0  0  0  0  0  0  0  0  0  0  0  0
   11.8823   -1.0297   22.3531 C   0  0  0  0  0  0  0  0  0  0  0  0
   10.8221   -0.9658   21.4047 N   0  0  0  0  0  0  0  0  0  0  0  0
    9.5788   -0.3827   21.5158 C   0  0  0  0  0  0  0  0  0  0  0  0
    9.1710    0.2066   22.5109 O   0  0  0  0  0  0  0  0  0  0  0  0
    8.8457   -0.5455   20.3615 N   0  0  0  0  0  0  0  0  0  0  0  0
    7.5353   -0.1193   20.0253 C   0  0  0  0  0  0  0  0  0  0  0  0
    7.2979    0.2462   18.7049 C   0  0  0  0  0  0  0  0  0  0  0  0
    6.0428    0.6723   18.3049 C   0  0  0  0  0  0  0  0  0  0  0  0
    5.0105    0.7393   19.2137 C   0  0  0  0  0  0  0  0  0  0  0  0
    5.2321    0.3801   20.5249 C   0  0  0  0  0  0  0  0  0  0  0  0
    6.4835   -0.0477   20.9370 C   0  0  0  0  0  0  0  0  0  0  0  0
   11.7672   -0.6450   23.6916 C   0  0  0  0  0  0  0  0  0  0  0  0
  1  2  1  0
  2  3  2  0
  3  4  1  0
  4  5  2  0
  5  6  1  0
  5  7  1  0
  7  8  1  0
  8  9  1  0
  9 10  2  0
  9 11  1  0
 11 12  1  0
 12 13  2  0
 13 14  1  0
 14 15  2  0
 15 16  1  0
 16 17  2  0
  7 18  2  0
 18  2  1  0
 17 12  1  0
M  END
