CVD-0004002|dock_bobby27042020.0|mol2|13|dock1
     RDKit          3D

 24 25  0  0  0  0  0  0  0  0999 V2000
   13.6606   -1.5491   20.5810 N   0  0  0  0  0  0  0  0  0  0  0  0
   13.8122   -1.6090   22.1556 S   0  0  0  0  0  0  0  0  0  0  0  0
   14.6604   -0.5299   22.5434 O   0  0  0  0  0  0  0  0  0  0  0  0
   14.1749   -2.9452   22.4983 O   0  0  0  0  0  0  0  0  0  0  0  0
   12.2427   -1.3072   22.8915 C   0  0  0  0  0  0  0  0  0  0  0  0
   11.1855   -2.1694   22.6027 C   0  0  0  0  0  0  0  0  0  0  0  0
    9.9084   -1.9707   23.2986 C   0  0  0  0  0  0  0  0  0  0  0  0
    8.9137   -2.6587   23.0426 O   0  0  0  0  0  0  0  0  0  0  0  0
    9.7999   -0.9391   24.3186 C   0  0  0  0  0  0  0  0  0  0  0  0
    8.5397   -0.8914   25.1426 C   0  0  0  0  0  0  0  0  0  0  0  0
    7.4476   -0.0635   24.5166 C   0  0  0  0  0  0  0  0  0  0  0  0
    6.8830    0.8552   25.0820 O   0  0  0  0  0  0  0  0  0  0  0  0
    7.2031   -0.4858   23.2318 O   0  0  0  0  0  0  0  0  0  0  0  0
    6.2565    0.1195   22.4363 C   0  0  0  0  0  0  0  0  0  0  0  0
    5.5601    1.0534   22.7622 O   0  0  0  0  0  0  0  0  0  0  0  0
    6.1945   -0.5507   21.0606 C   0  0  0  0  0  0  0  0  0  0  0  0
    6.6385   -1.6918   20.9783 O   0  0  0  0  0  0  0  0  0  0  0  0
    5.6343    0.1167   19.8738 C   0  0  0  0  0  0  0  0  0  0  0  0
    5.8166   -0.2229   18.5459 C   0  0  0  0  0  0  0  0  0  0  0  0
    5.0915    0.7715   17.7100 C   0  0  0  0  0  0  0  0  0  0  0  0
    4.5088    1.6824   18.6160 C   0  0  0  0  0  0  0  0  0  0  0  0
    4.8257    1.2977   19.9183 C   0  0  0  0  0  0  0  0  0  0  0  0
   10.7981   -0.0559   24.5013 C   0  0  0  0  0  0  0  0  0  0  0  0
   12.1298   -0.1056   23.8011 C   0  0  0  0  0  0  0  0  0  0  0  0
  1  2  1  0
  2  3  2  0
  2  4  2  0
  2  5  1  0
  5  6  2  0
  6  7  1  0
  7  8  2  0
  7  9  1  0
  9 10  1  0
 10 11  1  0
 11 12  2  0
 11 13  1  0
 13 14  1  0
 14 15  2  0
 14 16  1  0
 16 17  2  0
 16 18  1  0
 18 19  2  0
 19 20  1  0
 20 21  1  0
 21 22  2  0
  9 23  2  0
 23 24  1  0
 24  5  1  0
 22 18  1  0
M  END
