CVD-0002381|dock_bobby27042020.49|mol2|7|dock3
     RDKit          3D

 38 42  0  0  0  0  0  0  0  0999 V2000
    7.3148   -3.2501   25.9048 C   0  0  0  0  0  0  0  0  0  0  0  0
    7.0090   -4.4662   25.0420 C   0  0  0  0  0  0  0  0  0  0  0  0
    7.8852   -4.5204   23.7939 C   0  0  0  0  0  0  0  0  0  0  0  0
    8.0015   -3.1977   23.0858 C   0  0  0  0  0  0  0  0  0  0  0  0
    7.2010   -2.7743   22.0090 C   0  0  0  0  0  0  0  0  0  0  0  0
    7.5789   -1.5073   21.6075 C   0  0  0  0  0  0  0  0  0  0  0  0
    6.9627   -0.7269   20.5077 C   0  0  0  0  0  0  0  0  0  0  0  0
    7.7683   -0.4474   19.4025 C   0  0  0  0  0  0  0  0  0  0  0  0
    7.2963    0.3224   18.3527 C   0  0  0  0  0  0  0  0  0  0  0  0
    6.0142    0.8241   18.3782 C   0  0  0  0  0  0  0  0  0  0  0  0
    5.1788    0.5321   19.4414 C   0  0  0  0  0  0  0  0  0  0  0  0
    5.6574   -0.2569   20.4606 C   0  0  0  0  0  0  0  0  0  0  0  0
    4.7837   -0.5857   21.4367 F   0  0  0  0  0  0  0  0  0  0  0  0
    8.6654   -1.1392   22.4466 N   0  0  0  0  0  0  0  0  0  0  0  0
    8.9043   -2.1751   23.3410 C   0  0  0  0  0  0  0  0  0  0  0  0
    9.6446    0.2452   22.5016 S   0  0  0  0  0  0  0  0  0  0  0  0
    9.1711    1.0757   23.5647 O   0  0  0  0  0  0  0  0  0  0  0  0
    9.6435    0.7541   21.1653 O   0  0  0  0  0  0  0  0  0  0  0  0
   11.2754   -0.3179   22.8499 C   0  0  0  0  0  0  0  0  0  0  0  0
   11.8474   -1.3210   22.0863 C   0  0  0  0  0  0  0  0  0  0  0  0
   13.1305   -1.7366   22.3973 C   0  0  0  0  0  0  0  0  0  0  0  0
   13.7836   -1.1380   23.4510 C   0  0  0  0  0  0  0  0  0  0  0  0
   13.2443   -0.1721   24.1959 N   0  0  0  0  0  0  0  0  0  0  0  0
   12.0053    0.2244   23.8905 C   0  0  0  0  0  0  0  0  0  0  0  0
    7.0117   -5.7440   25.7923 N   0  0  0  0  0  0  0  0  0  0  0  0
    8.1670   -6.0009   26.6817 C   0  0  0  0  0  0  0  0  0  0  0  0
    7.7867   -5.6823   28.1064 C   0  0  0  0  0  0  0  0  0  0  0  0
    6.6292   -6.5423   28.5403 C   0  0  0  0  0  0  0  0  0  0  0  0
    5.6048   -6.8164   27.4609 C   0  0  0  0  0  0  0  0  0  0  0  0
    4.4470   -7.5163   27.7854 C   0  0  0  0  0  0  0  0  0  0  0  0
    3.5036   -7.8408   26.8327 C   0  0  0  0  0  0  0  0  0  0  0  0
    3.7251   -7.4549   25.5230 C   0  0  0  0  0  0  0  0  0  0  0  0
    4.8674   -6.7557   25.1599 C   0  0  0  0  0  0  0  0  0  0  0  0
    5.8118   -6.4349   26.1344 C   0  0  0  0  0  0  0  0  0  0  0  0
    2.5139   -7.8203   24.2893 S   0  0  0  0  0  0  0  0  0  0  0  0
    3.0994   -7.3939   22.8616 N   0  0  0  0  0  0  0  0  0  0  0  0
    2.3401   -9.2417   24.2684 O   0  0  0  0  0  0  0  0  0  0  0  0
    1.3771   -6.9880   24.5464 O   0  0  0  0  0  0  0  0  0  0  0  0
  1  2  1  0
  2  3  1  0
  3  4  1  0
  4  5  1  0
  5  6  2  0
  6  7  1  0
  7  8  2  0
  8  9  1  0
  9 10  2  0
 10 11  1  0
 11 12  2  0
 12 13  1  0
  6 14  1  0
 14 15  1  0
 14 16  1  0
 16 17  2  0
 16 18  2  0
 16 19  1  0
 19 20  2  0
 20 21  1  0
 21 22  2  0
 22 23  1  0
 23 24  2  0
  2 25  1  0
 25 26  1  0
 26 27  1  0
 27 28  1  0
 28 29  1  0
 29 30  2  0
 30 31  1  0
 31 32  2  0
 32 33  1  0
 33 34  2  0
 32 35  1  0
 35 36  1  0
 35 37  2  0
 35 38  2  0
 15  4  2  0
 24 19  1  0
 34 25  1  0
 12  7  1  0
 34 29  1  0
M  END
