CVD-0000833|dock_bobby27042020.97|mol2|20|dock3
     RDKit          3D

 22 24  0  0  0  0  0  0  0  0999 V2000
    3.1108    1.4336   23.4876 F   0  0  0  0  0  0  0  0  0  0  0  0
    3.9386    0.9075   22.5449 C   0  0  0  0  0  0  0  0  0  0  0  0
    4.9282    0.0538   22.9659 C   0  0  0  0  0  0  0  0  0  0  0  0
    5.7931   -0.5075   22.0530 C   0  0  0  0  0  0  0  0  0  0  0  0
    6.8949   -1.4491   22.4904 C   0  0  0  0  0  0  0  0  0  0  0  0
    8.2502   -0.9684   22.1881 N   0  0  0  0  0  0  0  0  0  0  0  0
    9.2133   -2.0711   22.2610 C   0  0  0  0  0  0  0  0  0  0  0  0
   10.6041   -1.5778   21.9078 C   0  0  0  0  0  0  0  0  0  0  0  0
   11.0064   -0.4944   22.8074 N   0  0  0  0  0  0  0  0  0  0  0  0
   10.0307    0.6000   22.8026 C   0  0  0  0  0  0  0  0  0  0  0  0
    8.6459    0.0732   23.1323 C   0  0  0  0  0  0  0  0  0  0  0  0
   12.1537   -0.5199   23.5153 C   0  0  0  0  0  0  0  0  0  0  0  0
   12.4704    0.3925   24.2683 O   0  0  0  0  0  0  0  0  0  0  0  0
   13.0327   -1.7422   23.3365 C   0  0  0  0  0  0  0  0  0  0  0  0
   14.5105   -1.5953   24.2963 Cl  0  0  0  0  0  0  0  0  0  0  0  0
    5.6454   -0.1873   20.6745 C   0  0  0  0  0  0  0  0  0  0  0  0
    6.4916   -0.7170   19.6658 C   0  0  0  0  0  0  0  0  0  0  0  0
    6.3181   -0.3865   18.3546 C   0  0  0  0  0  0  0  0  0  0  0  0
    5.3117    0.4749   17.9717 C   0  0  0  0  0  0  0  0  0  0  0  0
    4.4684    1.0149   18.8966 C   0  0  0  0  0  0  0  0  0  0  0  0
    4.6073    0.7030   20.2702 C   0  0  0  0  0  0  0  0  0  0  0  0
    3.7457    1.2503   21.2488 C   0  0  0  0  0  0  0  0  0  0  0  0
  1  2  1  0
  2  3  2  0
  3  4  1  0
  4  5  1  0
  5  6  1  0
  6  7  1  0
  7  8  1  0
  8  9  1  0
  9 10  1  0
 10 11  1  0
  9 12  1  0
 12 13  2  0
 12 14  1  0
 14 15  1  0
  4 16  2  0
 16 17  1  0
 17 18  2  0
 18 19  1  0
 19 20  2  0
 20 21  1  0
 21 22  2  0
 22  2  1  0
 11  6  1  0
 21 16  1  0
M  END
