CVD-0000364|dock_bobby27042020.56|mol2|18|dock2
     RDKit          3D

 26 28  0  0  0  0  0  0  0  0999 V2000
    8.7336   -3.2206   23.2748 C   0  0  0  0  0  0  0  0  0  0  0  0
    8.5263   -2.6628   21.8758 C   0  0  0  0  0  0  0  0  0  0  0  0
    7.0444   -2.4112   21.6678 C   0  0  0  0  0  0  0  0  0  0  0  0
    6.7984   -1.8869   20.3226 N   0  0  0  0  0  0  0  0  0  0  0  0
    7.5901   -0.6807   20.0614 C   0  0  0  0  0  0  0  0  0  0  0  0
    9.0634   -0.9546   20.3031 C   0  0  0  0  0  0  0  0  0  0  0  0
    9.2850   -1.4259   21.6677 N   0  0  0  0  0  0  0  0  0  0  0  0
   10.7207   -1.4587   21.9809 C   0  0  0  0  0  0  0  0  0  0  0  0
   11.3029   -0.0853   22.2158 C   0  0  0  0  0  0  0  0  0  0  0  0
   10.4724    1.0127   22.3831 C   0  0  0  0  0  0  0  0  0  0  0  0
   11.0206    2.2530   22.5862 C   0  0  0  0  0  0  0  0  0  0  0  0
   10.1566    3.2847   22.7269 F   0  0  0  0  0  0  0  0  0  0  0  0
   12.3945    2.4896   22.6475 C   0  0  0  0  0  0  0  0  0  0  0  0
   13.1871    1.3529   22.4788 C   0  0  0  0  0  0  0  0  0  0  0  0
   14.5351    1.4580   22.5307 F   0  0  0  0  0  0  0  0  0  0  0  0
   12.6769    0.0986   22.2624 C   0  0  0  0  0  0  0  0  0  0  0  0
   12.9669    3.8577   22.8765 C   0  0  0  0  0  0  0  0  0  0  0  0
   12.6738    4.5925   24.0216 C   0  0  0  0  0  0  0  0  0  0  0  0
   13.2441    5.8470   24.1568 C   0  0  0  0  0  0  0  0  0  0  0  0
   12.9769    6.7040   25.3571 C   0  0  0  0  0  0  0  0  0  0  0  0
   14.0532    6.3448   23.2145 N   0  0  0  0  0  0  0  0  0  0  0  0
   14.2692    5.5609   22.1583 C   0  0  0  0  0  0  0  0  0  0  0  0
   13.7794    4.3436   21.9225 N   0  0  0  0  0  0  0  0  0  0  0  0
    5.9453   -2.4605   19.4387 C   0  0  0  0  0  0  0  0  0  0  0  0
    5.7746   -1.8013   18.1015 C   0  0  0  0  0  0  0  0  0  0  0  0
    5.3254   -3.4770   19.7305 O   0  0  0  0  0  0  0  0  0  0  0  0
  2  1  1  0
  2  3  1  0
  3  4  1  0
  4  5  1  0
  5  6  1  0
  6  7  1  0
  7  8  1  0
  8  9  1  0
  9 10  2  0
 10 11  1  0
 11 12  1  0
 11 13  2  0
 13 14  1  0
 14 15  1  0
 14 16  2  0
 13 17  1  0
 17 18  2  0
 18 19  1  0
 19 20  1  0
 19 21  2  0
 21 22  1  0
 22 23  2  0
  4 24  1  0
 24 25  1  0
 24 26  2  0
  7  2  1  0
 16  9  1  0
 23 17  1  0
M  END
