CVD-0001857|dock_bobby27042020.51|mol2|12|dock3
     RDKit          3D

 19 21  0  0  0  0  0  0  0  0999 V2000
   13.5835   -1.7292   20.6290 N   0  0  0  0  0  0  0  0  0  0  0  0
   13.3962   -1.6431   21.9362 C   0  0  0  0  0  0  0  0  0  0  0  0
   14.3059   -1.3796   22.7257 O   0  0  0  0  0  0  0  0  0  0  0  0
   11.9814   -1.8886   22.4302 C   0  0  0  0  0  0  0  0  0  0  0  0
   11.7463   -1.7141   23.9040 C   0  0  0  0  0  0  0  0  0  0  0  0
   10.2788   -1.4415   24.1009 C   0  0  0  0  0  0  0  0  0  0  0  0
    9.7035   -1.3096   22.6993 C   0  0  0  0  0  0  0  0  0  0  0  0
    8.5683   -0.2911   22.6741 C   0  0  0  0  0  0  0  0  0  0  0  0
    7.7443   -0.2740   21.4506 N   0  0  0  0  0  0  0  0  0  0  0  0
    7.3491    1.0971   21.0991 C   0  0  0  0  0  0  0  0  0  0  0  0
    6.3745    1.1711   19.9506 C   0  0  0  0  0  0  0  0  0  0  0  0
    6.6893    1.0783   18.5737 C   0  0  0  0  0  0  0  0  0  0  0  0
    5.5423    1.1834   17.8987 C   0  0  0  0  0  0  0  0  0  0  0  0
    4.4974    1.3380   18.7599 O   0  0  0  0  0  0  0  0  0  0  0  0
    5.0421    1.3235   20.0109 C   0  0  0  0  0  0  0  0  0  0  0  0
    6.5697   -1.1710   21.4680 C   0  0  0  0  0  0  0  0  0  0  0  0
    6.3130   -1.6675   20.0888 C   0  0  0  0  0  0  0  0  0  0  0  0
    6.7337   -2.6196   21.1368 C   0  0  0  0  0  0  0  0  0  0  0  0
   10.8985   -0.9998   21.8197 C   0  0  0  0  0  0  0  0  0  0  0  0
  1  2  1  0
  2  3  2  0
  4  2  1  0
  4  5  1  0
  5  6  1  0
  6  7  1  0
  7  8  1  0
  8  9  1  0
  9 10  1  0
 10 11  1  0
 11 12  1  0
 12 13  2  0
 13 14  1  0
 14 15  1  0
  9 16  1  0
 16 17  1  0
 17 18  1  0
  7 19  1  0
 19  4  1  0
 15 11  2  0
 18 16  1  0
M  END
