CVD-0003299|dock_bobby27042020.31|mol2|21|dock3
     RDKit          3D

 16 17  0  0  0  0  0  0  0  0999 V2000
   10.5546   -1.0650   22.0132 C   0  0  0  0  0  0  0  0  0  0  0  0
    9.5916   -2.1594   22.1183 N   0  0  0  0  0  0  0  0  0  0  0  0
    9.6795   -3.2387   22.9854 C   0  0  0  0  0  0  0  0  0  0  0  0
   10.6708   -3.3565   23.8411 O   0  0  0  0  0  0  0  0  0  0  0  0
    8.5906   -4.0353   22.7318 C   0  0  0  0  0  0  0  0  0  0  0  0
    8.2036   -5.2184   23.3143 O   0  0  0  0  0  0  0  0  0  0  0  0
    9.2621   -5.9242   23.9041 N   0  0  0  0  0  0  0  0  0  0  0  0
    9.1302   -6.2213   25.2851 C   0  0  0  0  0  0  0  0  0  0  0  0
   10.1308   -6.8892   25.8290 N   0  0  0  0  0  0  0  0  0  0  0  0
    7.7730   -5.7451   26.1684 S   0  0  0  0  0  0  0  0  0  0  0  0
    7.7998   -3.4463   21.6703 C   0  0  0  0  0  0  0  0  0  0  0  0
    6.6233   -3.7918   21.0099 C   0  0  0  0  0  0  0  0  0  0  0  0
    6.1431   -2.9688   20.0037 C   0  0  0  0  0  0  0  0  0  0  0  0
    6.8169   -1.8156   19.6516 C   0  0  0  0  0  0  0  0  0  0  0  0
    7.9886   -1.4474   20.2952 C   0  0  0  0  0  0  0  0  0  0  0  0
    8.4683   -2.2719   21.3068 C   0  0  0  0  0  0  0  0  0  0  0  0
  1  2  1  0
  2  3  1  0
  3  4  1  0
  3  5  2  0
  5  6  1  0
  6  7  1  0
  7  8  1  0
  8  9  1  0
  8 10  2  0
  5 11  1  0
 11 12  2  0
 12 13  1  0
 13 14  2  0
 14 15  1  0
 15 16  2  0
 16  2  1  0
 16 11  1  0
M  END
