CVD-0000921|dock_bobby27042020.97|mol2|7|dock2
     RDKit          3D

 36 40  0  0  0  0  0  0  0  0999 V2000
    5.5172   -0.1523   18.8528 C   0  0  0  0  0  0  0  0  0  0  0  0
    6.2903   -0.2882   20.1413 C   0  0  0  0  0  0  0  0  0  0  0  0
    7.3693    0.5294   20.4292 C   0  0  0  0  0  0  0  0  0  0  0  0
    8.0763    0.3912   21.6094 C   0  0  0  0  0  0  0  0  0  0  0  0
    7.7422   -0.5730   22.5652 C   0  0  0  0  0  0  0  0  0  0  0  0
    8.5057   -0.8114   23.8631 C   0  0  0  0  0  0  0  0  0  0  0  0
    9.8484   -1.5731   23.7063 C   0  0  0  0  0  0  0  0  0  0  0  0
   10.0401   -2.4342   22.4671 C   0  0  0  0  0  0  0  0  0  0  0  0
   10.8667   -1.3889   21.2645 S   0  0  0  0  0  0  0  0  0  0  0  0
   11.9902   -2.0741   20.6848 O   0  0  0  0  0  0  0  0  0  0  0  0
    9.8863   -0.8309   20.3727 O   0  0  0  0  0  0  0  0  0  0  0  0
   11.4077   -0.1334   22.4302 C   0  0  0  0  0  0  0  0  0  0  0  0
   11.0758   -0.6579   23.8110 C   0  0  0  0  0  0  0  0  0  0  0  0
   12.2521   -1.3194   24.3998 N   0  0  0  0  0  0  0  0  0  0  0  0
   12.6450   -2.7127   24.1154 C   0  0  0  0  0  0  0  0  0  0  0  0
   13.9254   -2.9200   24.8875 C   0  0  0  0  0  0  0  0  0  0  0  0
   14.1598   -1.6734   25.6864 C   0  0  0  0  0  0  0  0  0  0  0  0
   13.0656   -0.7359   25.2690 C   0  0  0  0  0  0  0  0  0  0  0  0
   12.9240    0.4133   25.6673 O   0  0  0  0  0  0  0  0  0  0  0  0
    7.5607   -1.1419   24.9263 N   0  0  0  0  0  0  0  0  0  0  0  0
    7.6133   -0.5861   26.2298 C   0  0  0  0  0  0  0  0  0  0  0  0
    6.9927   -1.0170   27.1871 O   0  0  0  0  0  0  0  0  0  0  0  0
    8.4978    0.6180   26.4962 C   0  0  0  0  0  0  0  0  0  0  0  0
    8.3597    1.1554   28.1752 Cl  0  0  0  0  0  0  0  0  0  0  0  0
    6.5329   -1.9833   24.7436 C   0  0  0  0  0  0  0  0  0  0  0  0
    5.8060   -2.4204   25.6140 O   0  0  0  0  0  0  0  0  0  0  0  0
    6.3016   -2.4313   23.3332 C   0  0  0  0  0  0  0  0  0  0  0  0
    7.0059   -3.7642   23.0830 C   0  0  0  0  0  0  0  0  0  0  0  0
    6.9579   -4.3461   21.8238 C   0  0  0  0  0  0  0  0  0  0  0  0
    7.5890   -5.5528   21.5730 C   0  0  0  0  0  0  0  0  0  0  0  0
    8.2813   -6.1995   22.5823 C   0  0  0  0  0  0  0  0  0  0  0  0
    8.3357   -5.6273   23.8429 C   0  0  0  0  0  0  0  0  0  0  0  0
    9.0148   -6.2549   24.8460 O   0  0  0  0  0  0  0  0  0  0  0  0
    7.7025   -4.4180   24.0917 C   0  0  0  0  0  0  0  0  0  0  0  0
    6.6554   -1.4021   22.2844 C   0  0  0  0  0  0  0  0  0  0  0  0
    5.9611   -1.2401   21.0866 C   0  0  0  0  0  0  0  0  0  0  0  0
  1  2  1  0
  2  3  2  0
  3  4  1  0
  4  5  2  0
  5  6  1  0
  6  7  1  0
  7  8  1  0
  8  9  1  0
  9 10  2  0
  9 11  2  0
  9 12  1  0
 12 13  1  0
 13 14  1  0
 14 15  1  0
 15 16  1  0
 16 17  1  0
 17 18  1  0
 18 19  2  0
  6 20  1  0
 20 21  1  0
 21 22  2  0
 21 23  1  0
 23 24  1  0
 20 25  1  0
 25 26  2  0
 25 27  1  0
 27 28  1  0
 28 29  2  0
 29 30  1  0
 30 31  2  0
 31 32  1  0
 32 33  1  0
 32 34  2  0
 27 35  1  0
 35 36  2  0
 36  2  1  0
 35  5  1  0
 13  7  1  0
 18 14  1  0
 34 28  1  0
M  END
