CVD-0000702|dock_bobby27042020.40|mol2|38|dock3
     RDKit          3D

 21 23  0  0  0  0  0  0  0  0999 V2000
    9.4137    1.2347   21.2978 O   0  0  0  0  0  0  0  0  0  0  0  0
    9.2415    0.0192   21.3070 C   0  0  0  0  0  0  0  0  0  0  0  0
    8.2910   -0.5819   20.4782 N   0  0  0  0  0  0  0  0  0  0  0  0
    7.4460    0.0773   19.5692 C   0  0  0  0  0  0  0  0  0  0  0  0
    7.6072    0.3892   18.2594 C   0  0  0  0  0  0  0  0  0  0  0  0
    6.4788    1.0403   17.8221 N   0  0  0  0  0  0  0  0  0  0  0  0
    5.5752    1.1585   18.8384 C   0  0  0  0  0  0  0  0  0  0  0  0
    4.3604    1.7316   18.8010 N   0  0  0  0  0  0  0  0  0  0  0  0
    3.6637    1.7155   19.9471 C   0  0  0  0  0  0  0  0  0  0  0  0
    4.1203    1.1572   21.1235 C   0  0  0  0  0  0  0  0  0  0  0  0
    5.3753    0.5693   21.1482 C   0  0  0  0  0  0  0  0  0  0  0  0
    6.1300    0.5653   19.9785 C   0  0  0  0  0  0  0  0  0  0  0  0
    9.9180   -0.8851   22.0891 N   0  0  0  0  0  0  0  0  0  0  0  0
   10.9432   -0.6951   23.0493 C   0  0  0  0  0  0  0  0  0  0  0  0
   11.3785    0.5622   23.4638 C   0  0  0  0  0  0  0  0  0  0  0  0
   12.3865    0.6759   24.4075 C   0  0  0  0  0  0  0  0  0  0  0  0
   12.9738   -0.4534   24.9503 C   0  0  0  0  0  0  0  0  0  0  0  0
   12.5478   -1.7121   24.5444 C   0  0  0  0  0  0  0  0  0  0  0  0
   11.5348   -1.8294   23.5961 C   0  0  0  0  0  0  0  0  0  0  0  0
   13.1502   -2.8983   25.1009 C   0  0  0  0  0  0  0  0  0  0  0  0
   13.6552   -3.8206   25.5472 N   0  0  0  0  0  0  0  0  0  0  0  0
  1  2  2  0
  2  3  1  0
  3  4  1  0
  4  5  2  0
  5  6  1  0
  6  7  1  0
  7  8  2  0
  8  9  1  0
  9 10  2  0
 10 11  1  0
 11 12  2  0
  2 13  1  0
 13 14  1  0
 14 15  2  0
 15 16  1  0
 16 17  2  0
 17 18  1  0
 18 19  2  0
 18 20  1  0
 20 21  3  0
 12  4  1  0
 19 14  1  0
 12  7  1  0
M  END
