CVD-0003568|dock_bobby27042020.44|mol2|49|dock1
     RDKit          3D

 31 34  0  0  0  0  0  0  0  0999 V2000
   12.7482    6.4411   26.0171 C   0  0  0  0  0  0  0  0  0  0  0  0
   12.5237    6.1772   24.5571 C   0  0  0  0  0  0  0  0  0  0  0  0
   11.3970    6.0889   24.0791 O   0  0  0  0  0  0  0  0  0  0  0  0
   13.6204    6.0277   23.8117 N   0  0  0  0  0  0  0  0  0  0  0  0
   13.5669    5.7500   22.3836 C   0  0  0  0  0  0  0  0  0  0  0  0
   13.6107    4.2637   22.0884 C   0  0  0  0  0  0  0  0  0  0  0  0
   12.5040    3.4929   22.7941 C   0  0  0  0  0  0  0  0  0  0  0  0
   12.5165    2.0167   22.5245 C   0  0  0  0  0  0  0  0  0  0  0  0
   13.5795    1.1744   22.5758 C   0  0  0  0  0  0  0  0  0  0  0  0
   13.1991   -0.1029   22.2725 N   0  0  0  0  0  0  0  0  0  0  0  0
   14.0833   -1.2596   22.2039 C   0  0  0  0  0  0  0  0  0  0  0  0
   11.8495   -0.1051   21.9951 C   0  0  0  0  0  0  0  0  0  0  0  0
   10.9975   -1.1396   21.6227 C   0  0  0  0  0  0  0  0  0  0  0  0
    9.6537   -0.8615   21.4082 C   0  0  0  0  0  0  0  0  0  0  0  0
    9.1873    0.4368   21.5703 C   0  0  0  0  0  0  0  0  0  0  0  0
   10.0362    1.4649   21.9373 C   0  0  0  0  0  0  0  0  0  0  0  0
   11.3882    1.2122   22.1538 C   0  0  0  0  0  0  0  0  0  0  0  0
    8.6964   -1.9748   21.0024 C   0  0  0  0  0  0  0  0  0  0  0  0
    7.9479   -2.4471   22.2044 C   0  0  0  0  0  0  0  0  0  0  0  0
    7.0121   -3.5454   21.8581 N   0  0  0  0  0  0  0  0  0  0  0  0
    6.1154   -3.3370   20.7036 C   0  0  0  0  0  0  0  0  0  0  0  0
    6.5057   -2.1826   19.7762 C   0  0  0  0  0  0  0  0  0  0  0  0
    5.6203   -1.7603   18.7893 C   0  0  0  0  0  0  0  0  0  0  0  0
    5.9256   -0.6936   17.9638 C   0  0  0  0  0  0  0  0  0  0  0  0
    7.1253   -0.0362   18.1185 C   0  0  0  0  0  0  0  0  0  0  0  0
    8.0119   -0.4497   19.0975 C   0  0  0  0  0  0  0  0  0  0  0  0
    7.7241   -1.5236   19.9416 C   0  0  0  0  0  0  0  0  0  0  0  0
    6.8822   -4.6885   22.5740 C   0  0  0  0  0  0  0  0  0  0  0  0
    7.5419   -4.8878   23.5865 O   0  0  0  0  0  0  0  0  0  0  0  0
    5.9009   -5.7409   22.0941 C   0  0  0  0  0  0  0  0  0  0  0  0
    5.6860   -7.0247   23.2912 Cl  0  0  0  0  0  0  0  0  0  0  0  0
  1  2  1  0
  2  3  2  0
  2  4  1  0
  4  5  1  0
  5  6  1  0
  6  7  1  0
  7  8  1  0
  8  9  2  0
  9 10  1  0
 10 11  1  0
 10 12  1  0
 12 13  2  0
 13 14  1  0
 14 15  2  0
 15 16  1  0
 16 17  2  0
 14 18  1  0
 18 19  1  0
 19 20  1  0
 20 21  1  0
 21 22  1  0
 22 23  2  0
 23 24  1  0
 24 25  2  0
 25 26  1  0
 26 27  2  0
 20 28  1  0
 28 29  2  0
 28 30  1  0
 30 31  1  0
 17  8  1  0
 27 18  1  0
 17 12  1  0
 27 22  1  0
M  END
