CVD-0002427|dock_bobby27042020.6|mol2|3|dock2
     RDKit          3D

 29 32  0  0  0  0  0  0  0  0999 V2000
    7.8520    2.4961   22.8835 C   0  0  0  0  0  0  0  0  0  0  0  0
    9.0799    1.7487   23.3820 C   0  0  0  0  0  0  0  0  0  0  0  0
    9.1913    0.3507   22.6891 C   0  0  0  0  0  0  0  0  0  0  0  0
   10.4611   -0.4016   23.1245 C   0  0  0  0  0  0  0  0  0  0  0  0
   11.6814    0.5064   22.9812 C   0  0  0  0  0  0  0  0  0  0  0  0
   11.4654    1.8183   23.7199 C   0  0  0  0  0  0  0  0  0  0  0  0
   10.2987    2.5189   23.1880 N   0  0  0  0  0  0  0  0  0  0  0  0
   10.2257    3.9040   23.6734 C   0  0  0  0  0  0  0  0  0  0  0  0
   11.4682    4.7102   23.3784 C   0  0  0  0  0  0  0  0  0  0  0  0
   12.1830    4.5067   22.2081 C   0  0  0  0  0  0  0  0  0  0  0  0
   13.3206    5.2483   21.9359 C   0  0  0  0  0  0  0  0  0  0  0  0
   13.7556    6.2022   22.8306 C   0  0  0  0  0  0  0  0  0  0  0  0
   13.0531    6.4151   23.9972 C   0  0  0  0  0  0  0  0  0  0  0  0
   11.9155    5.6735   24.2692 C   0  0  0  0  0  0  0  0  0  0  0  0
    9.1834    0.4892   21.2630 O   0  0  0  0  0  0  0  0  0  0  0  0
    8.5559   -0.5773   20.5423 C   0  0  0  0  0  0  0  0  0  0  0  0
    7.1265   -0.2320   20.2224 C   0  0  0  0  0  0  0  0  0  0  0  0
    7.0652    1.0126   19.3820 C   0  0  0  0  0  0  0  0  0  0  0  0
    5.6738    1.3262   19.0536 N   0  0  0  0  0  0  0  0  0  0  0  0
    4.8944    1.7634   20.2230 C   0  0  0  0  0  0  0  0  0  0  0  0
    3.5138    2.2858   19.8989 C   0  0  0  0  0  0  0  0  0  0  0  0
    2.4802    2.1699   20.8160 C   0  0  0  0  0  0  0  0  0  0  0  0
    1.2153    2.6529   20.5247 C   0  0  0  0  0  0  0  0  0  0  0  0
    0.9685    3.2600   19.3124 C   0  0  0  0  0  0  0  0  0  0  0  0
    1.9868    3.3846   18.3921 C   0  0  0  0  0  0  0  0  0  0  0  0
    3.2514    2.9013   18.6842 C   0  0  0  0  0  0  0  0  0  0  0  0
    5.0814    0.1805   18.3679 C   0  0  0  0  0  0  0  0  0  0  0  0
    5.1888   -1.0524   19.2264 C   0  0  0  0  0  0  0  0  0  0  0  0
    6.5354   -1.3395   19.5625 O   0  0  0  0  0  0  0  0  0  0  0  0
  1  2  1  0
  2  3  1  0
  3  4  1  0
  4  5  1  0
  5  6  1  0
  6  7  1  0
  7  8  1  0
  8  9  1  0
  9 10  2  0
 10 11  1  0
 11 12  2  0
 12 13  1  0
 13 14  2  0
  3 15  1  0
 15 16  1  0
 16 17  1  0
 17 18  1  0
 18 19  1  0
 19 20  1  0
 20 21  1  0
 21 22  2  0
 22 23  1  0
 23 24  2  0
 24 25  1  0
 25 26  2  0
 19 27  1  0
 27 28  1  0
 28 29  1  0
  7  2  1  0
 14  9  1  0
 29 17  1  0
 26 21  1  0
M  END
