CVD-0002242|dock_bobby27042020.21|mol2|6|dock1
     RDKit          3D

 43 48  0  0  0  0  0  0  0  0999 V2000
    7.3811   -0.1396   26.0435 C   0  0  0  0  0  0  0  0  0  0  0  0
    8.2677   -1.2428   25.6941 N   0  0  0  0  0  0  0  0  0  0  0  0
    9.6787   -0.9155   25.5765 C   0  0  0  0  0  0  0  0  0  0  0  0
    9.9223    0.4336   24.9553 C   0  0  0  0  0  0  0  0  0  0  0  0
   10.2935    1.6052   25.6391 C   0  0  0  0  0  0  0  0  0  0  0  0
   10.4166    2.6601   24.7528 C   0  0  0  0  0  0  0  0  0  0  0  0
   10.7852    4.0650   25.0729 C   0  0  0  0  0  0  0  0  0  0  0  0
    9.9646    4.8648   25.8753 C   0  0  0  0  0  0  0  0  0  0  0  0
   10.2943    6.1817   26.1498 C   0  0  0  0  0  0  0  0  0  0  0  0
   11.4589    6.7286   25.6623 C   0  0  0  0  0  0  0  0  0  0  0  0
   12.3078    5.9592   24.8891 C   0  0  0  0  0  0  0  0  0  0  0  0
   11.9546    4.6601   24.6113 C   0  0  0  0  0  0  0  0  0  0  0  0
   12.8154    3.9578   23.8392 F   0  0  0  0  0  0  0  0  0  0  0  0
   10.1214    2.1178   23.4720 N   0  0  0  0  0  0  0  0  0  0  0  0
    9.8159    0.7692   23.6137 C   0  0  0  0  0  0  0  0  0  0  0  0
   10.0984    2.8373   21.9362 S   0  0  0  0  0  0  0  0  0  0  0  0
   11.3187    3.5732   21.8164 O   0  0  0  0  0  0  0  0  0  0  0  0
    9.7732    1.8022   21.0047 O   0  0  0  0  0  0  0  0  0  0  0  0
    8.7616    3.9809   21.9695 C   0  0  0  0  0  0  0  0  0  0  0  0
    8.9922    5.3200   22.2346 C   0  0  0  0  0  0  0  0  0  0  0  0
    7.9123    6.1857   22.2460 C   0  0  0  0  0  0  0  0  0  0  0  0
    6.6565    5.6817   21.9928 C   0  0  0  0  0  0  0  0  0  0  0  0
    6.4200    4.3948   21.7341 N   0  0  0  0  0  0  0  0  0  0  0  0
    7.4669    3.5645   21.7244 C   0  0  0  0  0  0  0  0  0  0  0  0
    7.8261   -2.4887   25.5729 C   0  0  0  0  0  0  0  0  0  0  0  0
    8.0288   -3.4152   26.7085 C   0  0  0  0  0  0  0  0  0  0  0  0
    9.4777   -4.3884   26.4252 Cl  0  0  0  0  0  0  0  0  0  0  0  0
    7.2105   -2.9344   24.4566 N   0  0  0  0  0  0  0  0  0  0  0  0
    6.9790   -1.9863   23.3513 C   0  0  0  0  0  0  0  0  0  0  0  0
    7.6072   -2.6183   22.0915 C   0  0  0  0  0  0  0  0  0  0  0  0
    7.4259   -1.6827   20.9031 C   0  0  0  0  0  0  0  0  0  0  0  0
    8.5256   -1.1774   20.2236 C   0  0  0  0  0  0  0  0  0  0  0  0
    8.3601   -0.3277   19.1425 C   0  0  0  0  0  0  0  0  0  0  0  0
    7.0943    0.0268   18.7277 C   0  0  0  0  0  0  0  0  0  0  0  0
    5.9932   -0.4680   19.3931 C   0  0  0  0  0  0  0  0  0  0  0  0
    6.1575   -1.3178   20.4742 C   0  0  0  0  0  0  0  0  0  0  0  0
    6.9987   -3.9778   21.8344 C   0  0  0  0  0  0  0  0  0  0  0  0
    6.7822   -4.4462   20.5381 C   0  0  0  0  0  0  0  0  0  0  0  0
    6.1893   -5.6768   20.3087 C   0  0  0  0  0  0  0  0  0  0  0  0
    5.8032   -6.4590   21.3741 C   0  0  0  0  0  0  0  0  0  0  0  0
    6.0119   -6.0069   22.6661 C   0  0  0  0  0  0  0  0  0  0  0  0
    6.6072   -4.7710   22.9115 C   0  0  0  0  0  0  0  0  0  0  0  0
    6.7806   -4.3293   24.3394 C   0  0  0  0  0  0  0  0  0  0  0  0
  1  2  1  0
  2  3  1  0
  3  4  1  0
  4  5  1  0
  5  6  2  0
  6  7  1  0
  7  8  2  0
  8  9  1  0
  9 10  2  0
 10 11  1  0
 11 12  2  0
 12 13  1  0
  6 14  1  0
 14 15  1  0
 14 16  1  0
 16 17  2  0
 16 18  2  0
 16 19  1  0
 19 20  2  0
 20 21  1  0
 21 22  2  0
 22 23  1  0
 23 24  2  0
  2 25  2  0
 25 26  1  0
 26 27  1  0
 25 28  1  0
 28 29  1  0
 29 30  1  0
 30 31  1  0
 31 32  2  0
 32 33  1  0
 33 34  2  0
 34 35  1  0
 35 36  2  0
 30 37  1  0
 37 38  2  0
 38 39  1  0
 39 40  2  0
 40 41  1  0
 41 42  2  0
 42 43  1  0
 15  4  2  0
 24 19  1  0
 43 28  1  0
 12  7  1  0
 36 31  1  0
 42 37  1  0
M  CHG  1   2   1
M  END
