CVD-0003253|dock_bobby27042020.2|mol2|35|dock1
     RDKit          3D

 27 29  0  0  0  0  0  0  0  0999 V2000
   10.9692    6.4640   23.3208 F   0  0  0  0  0  0  0  0  0  0  0  0
   10.8534    5.1442   23.0121 C   0  0  0  0  0  0  0  0  0  0  0  0
   11.9930    4.4222   22.7865 C   0  0  0  0  0  0  0  0  0  0  0  0
   11.8754    3.0797   22.4728 C   0  0  0  0  0  0  0  0  0  0  0  0
   10.6216    2.4925   22.3968 C   0  0  0  0  0  0  0  0  0  0  0  0
   10.4693    1.1565   22.0879 O   0  0  0  0  0  0  0  0  0  0  0  0
   10.9866    0.1422   22.9346 C   0  0  0  0  0  0  0  0  0  0  0  0
    9.9289   -0.2772   23.9220 C   0  0  0  0  0  0  0  0  0  0  0  0
    8.7840   -0.8929   23.2349 N   0  0  0  0  0  0  0  0  0  0  0  0
    9.1929   -2.0349   22.4183 C   0  0  0  0  0  0  0  0  0  0  0  0
   10.2301   -1.6237   21.4092 C   0  0  0  0  0  0  0  0  0  0  0  0
   11.3686   -1.0025   22.0887 N   0  0  0  0  0  0  0  0  0  0  0  0
   12.6371   -1.4614   21.9573 C   0  0  0  0  0  0  0  0  0  0  0  0
   12.8766   -2.4168   21.2295 O   0  0  0  0  0  0  0  0  0  0  0  0
   13.7633   -0.7921   22.7221 C   0  0  0  0  0  0  0  0  0  0  0  0
   13.5997   -0.9865   24.4722 Cl  0  0  0  0  0  0  0  0  0  0  0  0
    7.2568   -0.3526   23.2433 S   0  0  0  0  0  0  0  0  0  0  0  0
    6.4669   -1.3377   23.9129 O   0  0  0  0  0  0  0  0  0  0  0  0
    7.2874    0.9833   23.7503 O   0  0  0  0  0  0  0  0  0  0  0  0
    6.6893   -0.2668   21.6003 C   0  0  0  0  0  0  0  0  0  0  0  0
    5.9326   -1.2166   20.9591 C   0  0  0  0  0  0  0  0  0  0  0  0
    5.6398   -0.8624   19.6447 C   0  0  0  0  0  0  0  0  0  0  0  0
    6.1741    0.3314   19.3157 C   0  0  0  0  0  0  0  0  0  0  0  0
    6.0492    1.1261   17.8010 Cl  0  0  0  0  0  0  0  0  0  0  0  0
    7.0526    1.0696   20.5898 S   0  0  0  0  0  0  0  0  0  0  0  0
    9.4882    3.2533   22.6281 C   0  0  0  0  0  0  0  0  0  0  0  0
    9.6024    4.5961   22.9404 C   0  0  0  0  0  0  0  0  0  0  0  0
  1  2  1  0
  2  3  2  0
  3  4  1  0
  4  5  2  0
  5  6  1  0
  7  6  1  0
  7  8  1  0
  8  9  1  0
  9 10  1  0
 10 11  1  0
 11 12  1  0
 12 13  1  0
 13 14  2  0
 13 15  1  0
 15 16  1  0
  9 17  1  0
 17 18  2  0
 17 19  2  0
 17 20  1  0
 20 21  2  0
 21 22  1  0
 22 23  2  0
 23 24  1  0
 23 25  1  0
  5 26  1  0
 26 27  2  0
 27  2  1  0
 12  7  1  0
 25 20  1  0
M  END
