CVD-0003102|dock_bobby27042020.89|mol2|7|dock2
     RDKit          3D

 26 27  0  0  0  0  0  0  0  0999 V2000
   13.9814   -2.5406   23.1624 C   0  0  0  0  0  0  0  0  0  0  0  0
   13.5047   -1.2107   22.8489 O   0  0  0  0  0  0  0  0  0  0  0  0
   13.0744   -0.4899   23.8828 C   0  0  0  0  0  0  0  0  0  0  0  0
   13.2805   -0.8236   25.0377 O   0  0  0  0  0  0  0  0  0  0  0  0
   12.3232    0.7529   23.4845 C   0  0  0  0  0  0  0  0  0  0  0  0
   13.0653    1.8790   23.1098 C   0  0  0  0  0  0  0  0  0  0  0  0
   12.4385    3.0558   22.7338 C   0  0  0  0  0  0  0  0  0  0  0  0
   11.0592    3.1417   22.7177 C   0  0  0  0  0  0  0  0  0  0  0  0
   10.3188    2.0352   23.0859 C   0  0  0  0  0  0  0  0  0  0  0  0
   10.9155    0.8368   23.4706 C   0  0  0  0  0  0  0  0  0  0  0  0
    9.9746   -0.2867   23.8503 C   0  0  0  0  0  0  0  0  0  0  0  0
   10.0547   -1.4668   22.8846 C   0  0  0  0  0  0  0  0  0  0  0  0
    9.5438   -1.1221   21.5070 C   0  0  0  0  0  0  0  0  0  0  0  0
   10.3247   -0.9033   20.5871 O   0  0  0  0  0  0  0  0  0  0  0  0
    8.1905   -1.0893   21.4297 N   0  0  0  0  0  0  0  0  0  0  0  0
    7.3368   -0.8086   20.3262 C   0  0  0  0  0  0  0  0  0  0  0  0
    7.6853   -1.0178   18.9915 C   0  0  0  0  0  0  0  0  0  0  0  0
    6.8818   -0.7527   17.9567 N   0  0  0  0  0  0  0  0  0  0  0  0
    5.6760   -0.2584   18.2215 C   0  0  0  0  0  0  0  0  0  0  0  0
    5.2285   -0.0129   19.5001 C   0  0  0  0  0  0  0  0  0  0  0  0
    6.0551   -0.2858   20.5860 C   0  0  0  0  0  0  0  0  0  0  0  0
    5.5366   -0.0026   21.9726 C   0  0  0  0  0  0  0  0  0  0  0  0
   13.4159    4.4505   22.2624 S   0  0  0  0  0  0  0  0  0  0  0  0
   12.8782    5.7364   23.0501 N   0  0  0  0  0  0  0  0  0  0  0  0
   13.1865    4.6818   20.8677 O   0  0  0  0  0  0  0  0  0  0  0  0
   14.7536    4.2071   22.7123 O   0  0  0  0  0  0  0  0  0  0  0  0
  1  2  1  0
  2  3  1  0
  3  4  2  0
  3  5  1  0
  5  6  2  0
  6  7  1  0
  7  8  2  0
  8  9  1  0
  9 10  2  0
 10 11  1  0
 11 12  1  0
 12 13  1  0
 13 14  2  0
 13 15  1  0
 15 16  1  0
 16 17  2  0
 17 18  1  0
 18 19  2  0
 19 20  1  0
 20 21  2  0
 21 22  1  0
  7 23  1  0
 23 24  1  0
 23 25  2  0
 23 26  2  0
 10  5  1  0
 21 16  1  0
M  END
