CVD-0001260|dock_bobby27042020.67|mol2|38|dock3
     RDKit          3D

 37 41  0  0  0  0  0  0  0  0999 V2000
    9.7907   -7.2719   25.7690 N   0  0  0  0  0  0  0  0  0  0  0  0
    9.5329   -5.7584   26.2228 S   0  0  0  0  0  0  0  0  0  0  0  0
    8.3601   -5.7567   27.0447 O   0  0  0  0  0  0  0  0  0  0  0  0
   10.7613   -5.2651   26.7694 O   0  0  0  0  0  0  0  0  0  0  0  0
    9.1712   -4.7966   24.7851 C   0  0  0  0  0  0  0  0  0  0  0  0
    8.4569   -5.3610   23.7407 C   0  0  0  0  0  0  0  0  0  0  0  0
    8.1721   -4.6021   22.6193 C   0  0  0  0  0  0  0  0  0  0  0  0
    8.6009   -3.2785   22.5444 C   0  0  0  0  0  0  0  0  0  0  0  0
    8.3518   -2.1596   21.2370 S   0  0  0  0  0  0  0  0  0  0  0  0
    9.2088   -0.9016   22.0810 C   0  0  0  0  0  0  0  0  0  0  0  0
    9.3871    0.4628   21.4694 C   0  0  0  0  0  0  0  0  0  0  0  0
    8.1199    1.2710   21.3202 C   0  0  0  0  0  0  0  0  0  0  0  0
    7.8527    2.3086   22.1158 C   0  0  0  0  0  0  0  0  0  0  0  0
    6.6286    2.9610   22.0298 N   0  0  0  0  0  0  0  0  0  0  0  0
    5.4583    2.1510   21.7040 C   0  0  0  0  0  0  0  0  0  0  0  0
    5.7783    1.1646   20.6097 C   0  0  0  0  0  0  0  0  0  0  0  0
    4.7843    0.7277   19.7399 C   0  0  0  0  0  0  0  0  0  0  0  0
    5.0796   -0.1264   18.6939 C   0  0  0  0  0  0  0  0  0  0  0  0
    6.3743   -0.5529   18.5072 C   0  0  0  0  0  0  0  0  0  0  0  0
    7.3803   -0.1305   19.3612 C   0  0  0  0  0  0  0  0  0  0  0  0
    7.0973    0.7336   20.4241 C   0  0  0  0  0  0  0  0  0  0  0  0
    6.3534    4.3279   22.1953 C   0  0  0  0  0  0  0  0  0  0  0  0
    5.2431    4.7904   22.4234 O   0  0  0  0  0  0  0  0  0  0  0  0
    7.5370    5.2704   22.0868 C   0  0  0  0  0  0  0  0  0  0  0  0
    7.0105    6.9116   21.6912 Cl  0  0  0  0  0  0  0  0  0  0  0  0
    8.8669    2.8721   23.0117 C   0  0  0  0  0  0  0  0  0  0  0  0
    8.7178    2.8311   24.2324 O   0  0  0  0  0  0  0  0  0  0  0  0
    9.9385    3.4064   22.3763 N   0  0  0  0  0  0  0  0  0  0  0  0
   11.1088    4.0255   22.8812 C   0  0  0  0  0  0  0  0  0  0  0  0
   11.2169    4.5585   24.1618 C   0  0  0  0  0  0  0  0  0  0  0  0
   12.4094    5.1427   24.5531 C   0  0  0  0  0  0  0  0  0  0  0  0
   13.4559    5.1782   23.6606 C   0  0  0  0  0  0  0  0  0  0  0  0
   13.3822    4.6756   22.4284 N   0  0  0  0  0  0  0  0  0  0  0  0
   12.2271    4.1142   22.0601 C   0  0  0  0  0  0  0  0  0  0  0  0
    9.6515   -1.3303   23.2887 C   0  0  0  0  0  0  0  0  0  0  0  0
    9.3250   -2.6911   23.5970 C   0  0  0  0  0  0  0  0  0  0  0  0
    9.6014   -3.4802   24.7228 C   0  0  0  0  0  0  0  0  0  0  0  0
  1  2  1  0
  2  3  2  0
  2  4  2  0
  2  5  1  0
  5  6  2  0
  6  7  1  0
  7  8  2  0
  8  9  1  0
  9 10  1  0
 10 11  1  0
 11 12  1  0
 12 13  2  0
 13 14  1  0
 14 15  1  0
 15 16  1  0
 16 17  2  0
 17 18  1  0
 18 19  2  0
 19 20  1  0
 20 21  2  0
 14 22  1  0
 22 23  2  0
 22 24  1  0
 24 25  1  0
 13 26  1  0
 26 27  2  0
 26 28  1  0
 28 29  1  0
 29 30  2  0
 30 31  1  0
 31 32  2  0
 32 33  1  0
 33 34  2  0
 10 35  2  0
 35 36  1  0
 36 37  2  0
 37  5  1  0
 36  8  1  0
 21 12  1  0
 34 29  1  0
 21 16  1  0
M  END
