CVD-0001489|dock_bobby27042020.95|mol2|12|dock3
     RDKit          3D

 33 35  0  0  0  0  0  0  0  0999 V2000
   14.4475    7.1650   22.9634 O   0  0  0  0  0  0  0  0  0  0  0  0
   13.6090    6.1619   23.0617 C   0  0  0  0  0  0  0  0  0  0  0  0
   13.0398    5.8701   24.0905 O   0  0  0  0  0  0  0  0  0  0  0  0
   13.4281    5.4152   21.7720 C   0  0  0  0  0  0  0  0  0  0  0  0
   12.7165    4.0768   21.9100 C   0  0  0  0  0  0  0  0  0  0  0  0
   13.3357    3.1670   22.9631 C   0  0  0  0  0  0  0  0  0  0  0  0
   13.1688    1.6960   22.6681 C   0  0  0  0  0  0  0  0  0  0  0  0
   14.1220    0.7642   23.0318 C   0  0  0  0  0  0  0  0  0  0  0  0
   14.0190   -0.5446   22.7894 N   0  0  0  0  0  0  0  0  0  0  0  0
   12.9241   -0.9716   22.1549 C   0  0  0  0  0  0  0  0  0  0  0  0
   11.8969   -0.1334   21.7374 C   0  0  0  0  0  0  0  0  0  0  0  0
   10.7844   -0.7079   21.0720 N   0  0  0  0  0  0  0  0  0  0  0  0
    9.6662   -0.1201   20.5255 C   0  0  0  0  0  0  0  0  0  0  0  0
    9.4517    1.0879   20.5355 O   0  0  0  0  0  0  0  0  0  0  0  0
    8.8239   -1.0620   19.9769 N   0  0  0  0  0  0  0  0  0  0  0  0
    7.5713   -0.8798   19.3261 C   0  0  0  0  0  0  0  0  0  0  0  0
    7.2747    0.2886   18.6187 C   0  0  0  0  0  0  0  0  0  0  0  0
    6.0512    0.4226   17.9798 C   0  0  0  0  0  0  0  0  0  0  0  0
    5.7639    1.5751   17.3086 O   0  0  0  0  0  0  0  0  0  0  0  0
    5.1236   -0.6004   18.0139 C   0  0  0  0  0  0  0  0  0  0  0  0
    5.4141   -1.7565   18.7085 C   0  0  0  0  0  0  0  0  0  0  0  0
    6.6171   -1.9150   19.3981 C   0  0  0  0  0  0  0  0  0  0  0  0
    6.8487   -3.1853   20.2034 C   0  0  0  0  0  0  0  0  0  0  0  0
    6.9484   -2.8360   21.6766 C   0  0  0  0  0  0  0  0  0  0  0  0
    7.2387   -4.0337   22.4679 N   0  0  0  0  0  0  0  0  0  0  0  0
    6.2481   -5.0886   22.2316 C   0  0  0  0  0  0  0  0  0  0  0  0
    6.1509   -5.3978   20.7488 C   0  0  0  0  0  0  0  0  0  0  0  0
    5.8091   -4.1968   19.9910 N   0  0  0  0  0  0  0  0  0  0  0  0
    8.2967   -4.1066   23.3104 C   0  0  0  0  0  0  0  0  0  0  0  0
    9.0678   -3.1667   23.4588 O   0  0  0  0  0  0  0  0  0  0  0  0
    8.5099   -5.3919   24.0870 C   0  0  0  0  0  0  0  0  0  0  0  0
    9.9351   -5.2772   25.1274 Cl  0  0  0  0  0  0  0  0  0  0  0  0
   12.0409    1.2256   22.0083 C   0  0  0  0  0  0  0  0  0  0  0  0
  1  2  1  0
  2  3  2  0
  2  4  1  0
  4  5  1  0
  5  6  1  0
  6  7  1  0
  7  8  2  0
  8  9  1  0
  9 10  2  0
 10 11  1  0
 11 12  1  0
 12 13  1  0
 13 14  2  0
 13 15  1  0
 15 16  1  0
 16 17  2  0
 17 18  1  0
 18 19  1  0
 18 20  2  0
 20 21  1  0
 21 22  2  0
 22 23  1  0
 23 24  1  0
 24 25  1  0
 25 26  1  0
 26 27  1  0
 27 28  1  0
 25 29  1  0
 29 30  2  0
 29 31  1  0
 31 32  1  0
 11 33  2  0
 33  7  1  0
 22 16  1  0
 28 23  1  0
M  END
