CVD-0000213|dock_bobby27042020.99|mol2|21|dock3
     RDKit          3D

 24 26  0  0  0  0  0  0  0  0999 V2000
    5.7081   -0.5044   18.2295 O   0  0  0  0  0  0  0  0  0  0  0  0
    6.9373   -0.6600   18.6464 C   0  0  0  0  0  0  0  0  0  0  0  0
    7.7447   -1.3887   18.0963 O   0  0  0  0  0  0  0  0  0  0  0  0
    7.2873    0.1295   19.8614 C   0  0  0  0  0  0  0  0  0  0  0  0
    6.4635    1.1652   20.2890 C   0  0  0  0  0  0  0  0  0  0  0  0
    6.7556    1.8684   21.4417 C   0  0  0  0  0  0  0  0  0  0  0  0
    7.8858    1.5378   22.1834 C   0  0  0  0  0  0  0  0  0  0  0  0
    8.2588    2.4637   23.6507 S   0  0  0  0  0  0  0  0  0  0  0  0
    9.8226    3.0937   23.0960 C   0  0  0  0  0  0  0  0  0  0  0  0
    9.9898    4.4657   22.9166 C   0  0  0  0  0  0  0  0  0  0  0  0
   11.1902    4.9690   22.4497 C   0  0  0  0  0  0  0  0  0  0  0  0
   12.2180    4.0990   22.1643 C   0  0  0  0  0  0  0  0  0  0  0  0
   13.7395    4.7307   21.6001 Cl  0  0  0  0  0  0  0  0  0  0  0  0
   12.0759    2.7370   22.3341 C   0  0  0  0  0  0  0  0  0  0  0  0
   10.8717    2.2119   22.8042 C   0  0  0  0  0  0  0  0  0  0  0  0
   10.7403    0.7375   22.9895 C   0  0  0  0  0  0  0  0  0  0  0  0
   11.8149    0.1423   23.6513 N   0  0  0  0  0  0  0  0  0  0  0  0
   12.7035   -0.8293   23.2726 C   0  0  0  0  0  0  0  0  0  0  0  0
   12.7291   -1.4106   22.1937 O   0  0  0  0  0  0  0  0  0  0  0  0
   13.7366   -1.1419   24.3326 C   0  0  0  0  0  0  0  0  0  0  0  0
   14.6222   -2.6325   23.9848 Cl  0  0  0  0  0  0  0  0  0  0  0  0
    9.7949   -0.0059   22.5280 N   0  0  0  0  0  0  0  0  0  0  0  0
    8.7263    0.4935   21.7624 C   0  0  0  0  0  0  0  0  0  0  0  0
    8.4188   -0.2085   20.5956 C   0  0  0  0  0  0  0  0  0  0  0  0
  1  2  1  0
  2  3  2  0
  2  4  1  0
  4  5  2  0
  5  6  1  0
  6  7  2  0
  7  8  1  0
  8  9  1  0
  9 10  2  0
 10 11  1  0
 11 12  2  0
 12 13  1  0
 12 14  1  0
 14 15  2  0
 15 16  1  0
 16 17  1  0
 17 18  1  0
 18 19  2  0
 18 20  1  0
 20 21  1  0
 16 22  2  0
 22 23  1  0
 23 24  2  0
 24  4  1  0
 23  7  1  0
 15  9  1  0
M  END
