CVD-0003281|dock_bobby27042020.2|mol2|31|dock1
     RDKit          3D

 25 28  0  0  0  0  0  0  0  0999 V2000
   13.8373    0.9885   23.6529 O   0  0  0  0  0  0  0  0  0  0  0  0
   12.9471    0.0718   23.0094 C   0  0  0  0  0  0  0  0  0  0  0  0
   12.9633   -1.2437   23.7478 C   0  0  0  0  0  0  0  0  0  0  0  0
   12.0128   -2.2421   23.0964 C   0  0  0  0  0  0  0  0  0  0  0  0
   10.6215   -1.6698   23.0331 C   0  0  0  0  0  0  0  0  0  0  0  0
    9.6689   -2.6508   22.3444 C   0  0  0  0  0  0  0  0  0  0  0  0
    8.2715   -2.1149   22.1908 C   0  0  0  0  0  0  0  0  0  0  0  0
    7.2998   -2.0995   23.1820 C   0  0  0  0  0  0  0  0  0  0  0  0
    7.5072   -2.5816   24.4617 N   0  0  0  0  0  0  0  0  0  0  0  0
    6.8687   -3.6585   25.0042 C   0  0  0  0  0  0  0  0  0  0  0  0
    6.0318   -4.3118   24.3889 O   0  0  0  0  0  0  0  0  0  0  0  0
    7.2442   -3.9974   26.4313 C   0  0  0  0  0  0  0  0  0  0  0  0
    8.5093   -4.7924   26.5421 C   0  0  0  0  0  0  0  0  0  0  0  0
    9.1557   -5.5455   25.6166 C   0  0  0  0  0  0  0  0  0  0  0  0
   10.2608   -6.0582   26.2285 N   0  0  0  0  0  0  0  0  0  0  0  0
   10.2576   -5.6110   27.4887 C   0  0  0  0  0  0  0  0  0  0  0  0
    9.2119   -4.8362   27.7302 N   0  0  0  0  0  0  0  0  0  0  0  0
    5.7782   -1.4250   22.7088 S   0  0  0  0  0  0  0  0  0  0  0  0
    6.3920   -1.1339   21.1208 C   0  0  0  0  0  0  0  0  0  0  0  0
    5.9462   -0.5925   19.8886 C   0  0  0  0  0  0  0  0  0  0  0  0
    7.0180   -0.6920   19.0402 C   0  0  0  0  0  0  0  0  0  0  0  0
    8.0787   -1.2619   19.6954 N   0  0  0  0  0  0  0  0  0  0  0  0
    7.7156   -1.5466   20.9923 C   0  0  0  0  0  0  0  0  0  0  0  0
   10.6054   -0.3541   22.2946 C   0  0  0  0  0  0  0  0  0  0  0  0
   11.5558    0.6442   22.9462 C   0  0  0  0  0  0  0  0  0  0  0  0
  1  2  1  0
  2  3  1  0
  3  4  1  0
  4  5  1  0
  5  6  1  0
  6  7  1  0
  7  8  2  0
  8  9  1  0
  9 10  1  0
 10 11  2  0
 10 12  1  0
 12 13  1  0
 13 14  2  0
 14 15  1  0
 15 16  1  0
 16 17  2  0
  8 18  1  0
 18 19  1  0
 19 20  1  0
 20 21  2  0
 21 22  1  0
 22 23  1  0
  5 24  1  0
 24 25  1  0
 25  2  1  0
 23  7  1  0
 17 13  1  0
 23 19  2  0
M  END
