CVD-0000686|dock_bobby27042020.69|mol2|28|dock2
     RDKit          3D

 27 29  0  0  0  0  0  0  0  0999 V2000
   13.9677    2.8703   22.0270 O   0  0  0  0  0  0  0  0  0  0  0  0
   12.7756    2.7770   22.2989 C   0  0  0  0  0  0  0  0  0  0  0  0
   11.8389    3.9491   22.0839 C   0  0  0  0  0  0  0  0  0  0  0  0
   11.7043    4.8122   23.3180 C   0  0  0  0  0  0  0  0  0  0  0  0
   12.7937    5.0424   24.1438 C   0  0  0  0  0  0  0  0  0  0  0  0
   12.6713    5.8354   25.2726 C   0  0  0  0  0  0  0  0  0  0  0  0
   11.4580    6.4083   25.5878 C   0  0  0  0  0  0  0  0  0  0  0  0
   10.3673    6.1886   24.7742 C   0  0  0  0  0  0  0  0  0  0  0  0
   10.4901    5.3954   23.6456 C   0  0  0  0  0  0  0  0  0  0  0  0
   12.1550    1.6774   22.7931 N   0  0  0  0  0  0  0  0  0  0  0  0
   12.6751    0.3939   23.1188 C   0  0  0  0  0  0  0  0  0  0  0  0
   14.0059    0.1478   23.4559 C   0  0  0  0  0  0  0  0  0  0  0  0
   14.4862   -1.0619   23.7607 N   0  0  0  0  0  0  0  0  0  0  0  0
   13.6400   -2.0884   23.7411 C   0  0  0  0  0  0  0  0  0  0  0  0
   12.3059   -1.9614   23.4232 C   0  0  0  0  0  0  0  0  0  0  0  0
   11.7993   -0.7064   23.1033 C   0  0  0  0  0  0  0  0  0  0  0  0
   10.3270   -0.6143   22.7637 C   0  0  0  0  0  0  0  0  0  0  0  0
   10.0861   -0.2407   21.3121 C   0  0  0  0  0  0  0  0  0  0  0  0
    8.7028   -0.4637   20.9168 N   0  0  0  0  0  0  0  0  0  0  0  0
    7.9958    0.5295   20.3479 C   0  0  0  0  0  0  0  0  0  0  0  0
    8.5047    1.6228   20.1335 O   0  0  0  0  0  0  0  0  0  0  0  0
    6.6946    0.3154   20.0041 N   0  0  0  0  0  0  0  0  0  0  0  0
    6.1301   -1.0268   19.8197 C   0  0  0  0  0  0  0  0  0  0  0  0
    5.3121   -1.0717   18.5452 C   0  0  0  0  0  0  0  0  0  0  0  0
    4.3024   -0.0829   18.5308 O   0  0  0  0  0  0  0  0  0  0  0  0
    4.8847    1.2164   18.6381 C   0  0  0  0  0  0  0  0  0  0  0  0
    5.6704    1.3612   19.9225 C   0  0  0  0  0  0  0  0  0  0  0  0
  1  2  2  0
  2  3  1  0
  3  4  1  0
  4  5  2  0
  5  6  1  0
  6  7  2  0
  7  8  1  0
  8  9  2  0
  2 10  1  0
 10 11  1  0
 11 12  2  0
 12 13  1  0
 13 14  2  0
 14 15  1  0
 15 16  2  0
 16 17  1  0
 17 18  1  0
 18 19  1  0
 19 20  1  0
 20 21  2  0
 20 22  1  0
 22 23  1  0
 23 24  1  0
 24 25  1  0
 25 26  1  0
 26 27  1  0
  9  4  1  0
 16 11  1  0
 27 22  1  0
M  END
