CVD-0003295|dock_bobby27042020.88|mol2|25|dock1
     RDKit          3D

 15 16  0  0  0  0  0  0  0  0999 V2000
    9.4639   -2.7518   22.0038 C   0  0  0  0  0  0  0  0  0  0  0  0
   10.7573   -2.4101   22.6833 C   0  0  0  0  0  0  0  0  0  0  0  0
   10.9415   -2.6290   23.8765 O   0  0  0  0  0  0  0  0  0  0  0  0
   11.7017   -1.8696   21.9108 N   0  0  0  0  0  0  0  0  0  0  0  0
   13.0150   -1.4998   22.4192 C   0  0  0  0  0  0  0  0  0  0  0  0
   12.9181   -0.5711   23.6130 C   0  0  0  0  0  0  0  0  0  0  0  0
   11.9628    0.5656   23.3958 C   0  0  0  0  0  0  0  0  0  0  0  0
   10.6114    0.5589   23.5775 C   0  0  0  0  0  0  0  0  0  0  0  0
   10.0848    1.7853   23.2763 N   0  0  0  0  0  0  0  0  0  0  0  0
   11.1016    2.6226   22.8874 C   0  0  0  0  0  0  0  0  0  0  0  0
   11.0832    3.9542   22.4867 C   0  0  0  0  0  0  0  0  0  0  0  0
   12.2817    4.5590   22.1441 C   0  0  0  0  0  0  0  0  0  0  0  0
   13.4674    3.8549   22.1998 C   0  0  0  0  0  0  0  0  0  0  0  0
   13.4880    2.5277   22.5989 C   0  0  0  0  0  0  0  0  0  0  0  0
   12.3007    1.8874   22.9506 C   0  0  0  0  0  0  0  0  0  0  0  0
  1  2  1  0
  2  3  2  0
  2  4  1  0
  4  5  1  0
  5  6  1  0
  6  7  1  0
  7  8  2  0
  8  9  1  0
  9 10  1  0
 10 11  2  0
 11 12  1  0
 12 13  2  0
 13 14  1  0
 14 15  2  0
 15  7  1  0
 15 10  1  0
M  END
