CVD-0003971|dock_bobby27042020.43|mol2|30|dock2
     RDKit          3D

 21 22  0  0  0  0  0  0  0  0999 V2000
   14.6830   -3.4793   25.4877 O   0  0  0  0  0  0  0  0  0  0  0  0
   14.0394   -2.4921   24.8817 C   0  0  0  0  0  0  0  0  0  0  0  0
   13.8907   -2.3192   23.5630 C   0  0  0  0  0  0  0  0  0  0  0  0
   13.0225   -1.1230   23.2541 C   0  0  0  0  0  0  0  0  0  0  0  0
   12.7017   -0.5364   24.6098 C   0  0  0  0  0  0  0  0  0  0  0  0
   13.3583   -1.3960   25.6657 C   0  0  0  0  0  0  0  0  0  0  0  0
   11.5393   -1.5675   22.3310 S   0  0  0  0  0  0  0  0  0  0  0  0
   11.9522   -1.9111   20.9980 O   0  0  0  0  0  0  0  0  0  0  0  0
   10.7942   -2.5441   23.0768 O   0  0  0  0  0  0  0  0  0  0  0  0
   10.5924   -0.0985   22.1981 C   0  0  0  0  0  0  0  0  0  0  0  0
   11.0476    1.0205   22.2600 O   0  0  0  0  0  0  0  0  0  0  0  0
    9.0665   -0.2391   22.0001 C   0  0  0  0  0  0  0  0  0  0  0  0
    8.2653    0.2691   22.7830 O   0  0  0  0  0  0  0  0  0  0  0  0
    8.6846   -0.9412   20.9344 N   0  0  0  0  0  0  0  0  0  0  0  0
    7.2844   -1.1481   20.6342 C   0  0  0  0  0  0  0  0  0  0  0  0
    6.7761   -0.1480   19.6292 C   0  0  0  0  0  0  0  0  0  0  0  0
    7.5008    0.1776   18.5211 C   0  0  0  0  0  0  0  0  0  0  0  0
    6.8985    0.8686   17.5343 O   0  0  0  0  0  0  0  0  0  0  0  0
    5.4623    0.7002   17.4738 C   0  0  0  0  0  0  0  0  0  0  0  0
    4.8415    1.0186   18.8097 C   0  0  0  0  0  0  0  0  0  0  0  0
    5.4828    0.5032   19.8855 C   0  0  0  0  0  0  0  0  0  0  0  0
  1  2  1  0
  2  3  2  0
  3  4  1  0
  4  5  1  0
  5  6  1  0
  4  7  1  0
  7  8  2  0
  7  9  2  0
  7 10  1  0
 10 11  2  0
 10 12  1  0
 12 13  2  0
 12 14  1  0
 14 15  1  0
 15 16  1  0
 16 17  2  0
 17 18  1  0
 18 19  1  0
 19 20  1  0
 20 21  2  0
  6  2  1  0
 21 16  1  0
M  END
