CVD-0001909|dock_bobby27042020.93|mol2|36|dock2
     RDKit          3D

 33 35  0  0  0  0  0  0  0  0999 V2000
    7.9963    4.3033   22.1556 C   0  0  0  0  0  0  0  0  0  0  0  0
    8.9086    4.0905   23.3361 C   0  0  0  0  0  0  0  0  0  0  0  0
   10.3917    4.0708   23.0380 C   0  0  0  0  0  0  0  0  0  0  0  0
   11.0919    5.2574   22.8256 C   0  0  0  0  0  0  0  0  0  0  0  0
   12.4488    5.2455   22.5616 C   0  0  0  0  0  0  0  0  0  0  0  0
   13.1334    4.0450   22.5384 C   0  0  0  0  0  0  0  0  0  0  0  0
   12.4852    2.8345   22.7700 C   0  0  0  0  0  0  0  0  0  0  0  0
   13.3201    1.5810   22.8237 C   0  0  0  0  0  0  0  0  0  0  0  0
   11.0944    2.8578   22.9642 C   0  0  0  0  0  0  0  0  0  0  0  0
   10.3217    1.6545   23.1048 N   0  0  0  0  0  0  0  0  0  0  0  0
    9.6041    1.0446   22.1253 C   0  0  0  0  0  0  0  0  0  0  0  0
    9.5246    1.4553   20.9707 O   0  0  0  0  0  0  0  0  0  0  0  0
    8.8337   -0.2399   22.5100 C   0  0  0  0  0  0  0  0  0  0  0  0
    9.7880   -1.3323   22.8518 N   0  0  0  0  0  0  0  0  0  0  0  0
   10.9580   -1.4514   22.0607 C   0  0  0  0  0  0  0  0  0  0  0  0
   11.1386   -0.6622   21.1345 O   0  0  0  0  0  0  0  0  0  0  0  0
   12.0329   -2.4653   22.2606 C   0  0  0  0  0  0  0  0  0  0  0  0
   13.1688   -2.3594   21.6236 C   0  0  0  0  0  0  0  0  0  0  0  0
    9.4604   -2.2054   23.9323 C   0  0  0  0  0  0  0  0  0  0  0  0
    9.1825   -3.5957   23.9934 C   0  0  0  0  0  0  0  0  0  0  0  0
    8.9506   -3.8785   25.2777 C   0  0  0  0  0  0  0  0  0  0  0  0
    9.0579   -2.7502   26.0097 O   0  0  0  0  0  0  0  0  0  0  0  0
    9.3688   -1.6855   25.1300 N   0  0  0  0  0  0  0  0  0  0  0  0
    8.6029   -5.1444   26.0459 C   0  0  0  0  0  0  0  0  0  0  0  0
    9.4813   -6.3006   25.5597 C   0  0  0  0  0  0  0  0  0  0  0  0
    7.1305   -5.4980   25.8176 C   0  0  0  0  0  0  0  0  0  0  0  0
    8.8429   -4.9222   27.5419 C   0  0  0  0  0  0  0  0  0  0  0  0
    7.7477   -0.6553   21.5220 C   0  0  0  0  0  0  0  0  0  0  0  0
    8.0306   -0.9235   20.1909 C   0  0  0  0  0  0  0  0  0  0  0  0
    7.0128   -1.2954   19.3300 C   0  0  0  0  0  0  0  0  0  0  0  0
    5.7331   -1.3885   19.8284 C   0  0  0  0  0  0  0  0  0  0  0  0
    5.4254   -1.1374   21.1018 N   0  0  0  0  0  0  0  0  0  0  0  0
    6.4245   -0.7800   21.9143 C   0  0  0  0  0  0  0  0  0  0  0  0
  1  2  1  0
  2  3  1  0
  3  4  2  0
  4  5  1  0
  5  6  2  0
  6  7  1  0
  7  8  1  0
  7  9  2  0
  9 10  1  0
 10 11  1  0
 11 12  2  0
 11 13  1  0
 13 14  1  0
 14 15  1  0
 15 16  2  0
 15 17  1  0
 17 18  2  0
 14 19  1  0
 19 20  1  0
 20 21  2  0
 21 22  1  0
 22 23  1  0
 21 24  1  0
 24 25  1  0
 24 26  1  0
 24 27  1  0
 13 28  1  0
 28 29  2  0
 29 30  1  0
 30 31  2  0
 31 32  1  0
 32 33  2  0
  9  3  1  0
 23 19  2  0
 33 28  1  0
M  END
