CVD-0003605|dock_bobby27042020.16|mol2|8|dock1
     RDKit          3D

 22 24  0  0  0  0  0  0  0  0999 V2000
   10.1174   -1.2222   23.7450 O   0  0  0  0  0  0  0  0  0  0  0  0
   10.5753   -1.4302   22.6257 C   0  0  0  0  0  0  0  0  0  0  0  0
   12.0602   -1.3139   22.3536 C   0  0  0  0  0  0  0  0  0  0  0  0
   12.6194    0.0659   22.5307 C   0  0  0  0  0  0  0  0  0  0  0  0
   13.9230    0.4062   22.7441 C   0  0  0  0  0  0  0  0  0  0  0  0
   14.0536    1.7648   22.8574 N   0  0  0  0  0  0  0  0  0  0  0  0
   12.8215    2.3330   22.7175 C   0  0  0  0  0  0  0  0  0  0  0  0
   12.5169    3.6409   22.7640 N   0  0  0  0  0  0  0  0  0  0  0  0
   11.2248    3.9548   22.5977 C   0  0  0  0  0  0  0  0  0  0  0  0
   10.2290    3.0248   22.3882 C   0  0  0  0  0  0  0  0  0  0  0  0
   10.5605    1.6798   22.3431 C   0  0  0  0  0  0  0  0  0  0  0  0
   11.8909    1.3008   22.5104 C   0  0  0  0  0  0  0  0  0  0  0  0
    9.8139   -1.7542   21.5843 N   0  0  0  0  0  0  0  0  0  0  0  0
    8.3684   -1.8886   21.6892 C   0  0  0  0  0  0  0  0  0  0  0  0
    7.6259   -1.0424   20.6860 C   0  0  0  0  0  0  0  0  0  0  0  0
    6.3267   -0.6217   20.9180 C   0  0  0  0  0  0  0  0  0  0  0  0
    5.6968    0.1498   19.9585 C   0  0  0  0  0  0  0  0  0  0  0  0
    6.3741    0.4835   18.7913 C   0  0  0  0  0  0  0  0  0  0  0  0
    7.6760    0.0133   18.6478 C   0  0  0  0  0  0  0  0  0  0  0  0
    8.2971   -0.7337   19.5675 N   0  0  0  0  0  0  0  0  0  0  0  0
    5.7511    1.2863   17.7679 C   0  0  0  0  0  0  0  0  0  0  0  0
    5.2846    1.9418   16.9571 N   0  0  0  0  0  0  0  0  0  0  0  0
  1  2  2  0
  2  3  1  0
  3  4  1  0
  4  5  2  0
  5  6  1  0
  6  7  1  0
  7  8  2  0
  8  9  1  0
  9 10  2  0
 10 11  1  0
 11 12  2  0
  2 13  1  0
 13 14  1  0
 14 15  1  0
 15 16  2  0
 16 17  1  0
 17 18  2  0
 18 19  1  0
 19 20  2  0
 18 21  1  0
 21 22  3  0
 12  4  1  0
 20 15  1  0
 12  7  1  0
M  END
