CVD-0000228|dock_bobby27042020.85|mol2|10|dock2
     RDKit          3D

 34 39  0  0  0  0  0  0  0  0999 V2000
    9.6569    6.2180   22.9184 C   0  0  0  0  0  0  0  0  0  0  0  0
    8.5694    5.2779   22.5007 C   0  0  0  0  0  0  0  0  0  0  0  0
    7.3256    5.8223   22.2666 N   0  0  0  0  0  0  0  0  0  0  0  0
    6.4727    4.9134   21.9081 C   0  0  0  0  0  0  0  0  0  0  0  0
    7.0918    3.3170   21.8171 S   0  0  0  0  0  0  0  0  0  0  0  0
    8.6359    3.9130   22.3107 C   0  0  0  0  0  0  0  0  0  0  0  0
    9.7823    3.0128   22.4808 C   0  0  0  0  0  0  0  0  0  0  0  0
   11.0213    3.4324   22.2921 N   0  0  0  0  0  0  0  0  0  0  0  0
   11.8363    2.3338   22.5289 C   0  0  0  0  0  0  0  0  0  0  0  0
   13.2233    2.2063   22.4735 C   0  0  0  0  0  0  0  0  0  0  0  0
   13.7886    0.9721   22.7558 C   0  0  0  0  0  0  0  0  0  0  0  0
   13.0018   -0.1143   23.0859 C   0  0  0  0  0  0  0  0  0  0  0  0
   11.6215   -0.0036   23.1476 C   0  0  0  0  0  0  0  0  0  0  0  0
   11.0565    1.2345   22.8667 C   0  0  0  0  0  0  0  0  0  0  0  0
    9.7345    1.6734   22.8451 N   0  0  0  0  0  0  0  0  0  0  0  0
    8.6221    0.7703   23.1222 C   0  0  0  0  0  0  0  0  0  0  0  0
    8.2305   -0.0485   21.9038 C   0  0  0  0  0  0  0  0  0  0  0  0
    8.5161    0.3640   20.7901 O   0  0  0  0  0  0  0  0  0  0  0  0
    7.5607   -1.1958   22.2388 N   0  0  0  0  0  0  0  0  0  0  0  0
    6.9772   -2.2733   21.5394 C   0  0  0  0  0  0  0  0  0  0  0  0
    6.2370   -2.2290   20.3692 C   0  0  0  0  0  0  0  0  0  0  0  0
    5.8007   -3.4749   19.9838 N   0  0  0  0  0  0  0  0  0  0  0  0
    6.2730   -4.3129   20.8912 C   0  0  0  0  0  0  0  0  0  0  0  0
    6.1135   -5.7146   20.9483 C   0  0  0  0  0  0  0  0  0  0  0  0
    6.6763   -6.4080   21.9759 C   0  0  0  0  0  0  0  0  0  0  0  0
    7.4024   -5.7265   22.9624 C   0  0  0  0  0  0  0  0  0  0  0  0
    7.5587   -4.3878   22.9116 C   0  0  0  0  0  0  0  0  0  0  0  0
    7.0038   -3.6457   21.8756 N   0  0  0  0  0  0  0  0  0  0  0  0
    5.8461   -1.1075   19.4857 C   0  0  0  0  0  0  0  0  0  0  0  0
    5.5602    0.1309   20.0477 C   0  0  0  0  0  0  0  0  0  0  0  0
    5.2268    1.2001   19.2354 C   0  0  0  0  0  0  0  0  0  0  0  0
    5.1926    1.0027   17.8746 C   0  0  0  0  0  0  0  0  0  0  0  0
    5.4473   -0.1746   17.3030 N   0  0  0  0  0  0  0  0  0  0  0  0
    5.7304   -1.2065   18.1042 C   0  0  0  0  0  0  0  0  0  0  0  0
  1  2  1  0
  2  3  1  0
  3  4  2  0
  4  5  1  0
  5  6  1  0
  6  7  1  0
  7  8  2  0
  8  9  1  0
  9 10  2  0
 10 11  1  0
 11 12  2  0
 12 13  1  0
 13 14  2  0
 14 15  1  0
 15 16  1  0
 16 17  1  0
 17 18  2  0
 17 19  1  0
 19 20  1  0
 20 21  2  0
 21 22  1  0
 22 23  2  0
 23 24  1  0
 24 25  2  0
 25 26  1  0
 26 27  2  0
 27 28  1  0
 21 29  1  0
 29 30  2  0
 30 31  1  0
 31 32  2  0
 32 33  1  0
 33 34  2  0
  6  2  2  0
 15  7  1  0
 28 20  1  0
 34 29  1  0
 14  9  1  0
 28 23  1  0
M  END
