CVD-0003699|dock_bobby27042020.30|mol2|10|dock3
     RDKit          3D

 31 35  0  0  0  0  0  0  0  0999 V2000
   12.6918   -2.4885   24.0510 O   0  0  0  0  0  0  0  0  0  0  0  0
   12.3028   -1.1193   24.1692 C   0  0  0  0  0  0  0  0  0  0  0  0
   13.5540   -0.2710   24.2140 C   0  0  0  0  0  0  0  0  0  0  0  0
   13.2250    1.0230   24.6257 F   0  0  0  0  0  0  0  0  0  0  0  0
   11.3838   -0.7185   22.9918 C   0  0  0  0  0  0  0  0  0  0  0  0
   10.2672   -1.7267   22.8316 C   0  0  0  0  0  0  0  0  0  0  0  0
    9.4086   -1.7251   24.0152 N   0  0  0  0  0  0  0  0  0  0  0  0
    8.7702   -0.4249   24.2926 C   0  0  0  0  0  0  0  0  0  0  0  0
    7.3455   -0.5305   23.7278 C   0  0  0  0  0  0  0  0  0  0  0  0
    6.9703   -1.9380   23.3317 C   0  0  0  0  0  0  0  0  0  0  0  0
    6.9062   -2.9485   24.2782 C   0  0  0  0  0  0  0  0  0  0  0  0
    6.5649   -4.2398   23.9124 C   0  0  0  0  0  0  0  0  0  0  0  0
    6.2829   -4.5388   22.5902 C   0  0  0  0  0  0  0  0  0  0  0  0
    6.3459   -3.5349   21.6372 C   0  0  0  0  0  0  0  0  0  0  0  0
    6.0708   -3.8172   20.3310 O   0  0  0  0  0  0  0  0  0  0  0  0
    6.6881   -2.2420   22.0062 C   0  0  0  0  0  0  0  0  0  0  0  0
    9.5188    0.7835   23.7530 C   0  0  0  0  0  0  0  0  0  0  0  0
    8.9425    2.0555   23.8741 C   0  0  0  0  0  0  0  0  0  0  0  0
    7.6054    2.2429   24.5441 C   0  0  0  0  0  0  0  0  0  0  0  0
    7.5257    3.6120   25.1830 C   0  0  0  0  0  0  0  0  0  0  0  0
    7.6801    4.6422   24.1576 N   0  0  0  0  0  0  0  0  0  0  0  0
    8.8914    4.5140   23.3307 C   0  0  0  0  0  0  0  0  0  0  0  0
    9.6309    3.1959   23.4537 C   0  0  0  0  0  0  0  0  0  0  0  0
   10.9166    3.0758   22.9034 C   0  0  0  0  0  0  0  0  0  0  0  0
   11.4696    1.8013   22.7929 C   0  0  0  0  0  0  0  0  0  0  0  0
   10.7982    0.6552   23.2057 C   0  0  0  0  0  0  0  0  0  0  0  0
   11.7686    4.3173   22.6451 C   0  0  0  0  0  0  0  0  0  0  0  0
   12.7313    4.2452   21.5683 C   0  0  0  0  0  0  0  0  0  0  0  0
   14.1347    4.4775   22.2087 C   0  0  0  0  0  0  0  0  0  0  0  0
   13.8231    4.7173   23.6500 N   0  0  0  0  0  0  0  0  0  0  0  0
   12.4087    4.6484   23.9269 C   0  0  0  0  0  0  0  0  0  0  0  0
  1  2  1  0
  2  3  1  0
  3  4  1  0
  2  5  1  0
  5  6  1  0
  6  7  1  0
  7  8  1  0
  8  9  1  0
  9 10  1  0
 10 11  2  0
 11 12  1  0
 12 13  2  0
 13 14  1  0
 14 15  1  0
 14 16  2  0
  8 17  1  0
 17 18  2  0
 18 19  1  0
 19 20  1  0
 20 21  1  0
 21 22  1  0
 22 23  1  0
 23 24  2  0
 24 25  1  0
 25 26  2  0
 24 27  1  0
 27 28  1  0
 28 29  1  0
 29 30  1  0
 30 31  1  0
 26  5  1  0
 31 27  1  0
 16 10  1  0
 26 17  1  0
 23 18  1  0
M  END
