CVD-0003513|dock_bobby27042020.73|mol2|32|dock1
     RDKit          3D

 30 32  0  0  0  0  0  0  0  0999 V2000
    5.2200   -0.0504   17.8956 Cl  0  0  0  0  0  0  0  0  0  0  0  0
    6.1380    0.4408   19.2915 C   0  0  0  0  0  0  0  0  0  0  0  0
    5.8035    1.6008   19.9500 C   0  0  0  0  0  0  0  0  0  0  0  0
    6.5452    1.9718   21.0555 C   0  0  0  0  0  0  0  0  0  0  0  0
    7.6142    1.2074   21.5176 C   0  0  0  0  0  0  0  0  0  0  0  0
    8.3719    1.6911   22.7313 C   0  0  0  0  0  0  0  0  0  0  0  0
    9.3013    2.7781   22.4002 N   0  0  0  0  0  0  0  0  0  0  0  0
   10.8902    2.5407   22.3966 S   0  0  0  0  0  0  0  0  0  0  0  0
   11.2628    2.1501   21.0754 O   0  0  0  0  0  0  0  0  0  0  0  0
   11.2051    1.7086   23.5123 O   0  0  0  0  0  0  0  0  0  0  0  0
   11.5273    4.0017   22.6782 N   0  0  0  0  0  0  0  0  0  0  0  0
   12.5930    4.5153   21.8138 C   0  0  0  0  0  0  0  0  0  0  0  0
   13.6195    5.2406   22.6472 C   0  0  0  0  0  0  0  0  0  0  0  0
   13.0256    6.2638   23.4379 O   0  0  0  0  0  0  0  0  0  0  0  0
   12.0737    5.6856   24.3288 C   0  0  0  0  0  0  0  0  0  0  0  0
   10.9585    5.0278   23.5575 C   0  0  0  0  0  0  0  0  0  0  0  0
    7.9421    0.0263   20.8319 C   0  0  0  0  0  0  0  0  0  0  0  0
    9.0811   -0.8759   21.2508 C   0  0  0  0  0  0  0  0  0  0  0  0
    8.8214   -1.5652   22.5228 N   0  0  0  0  0  0  0  0  0  0  0  0
    7.7993   -2.6009   22.3454 C   0  0  0  0  0  0  0  0  0  0  0  0
    7.5056   -3.2812   23.6696 C   0  0  0  0  0  0  0  0  0  0  0  0
    8.7274   -3.8662   24.2263 N   0  0  0  0  0  0  0  0  0  0  0  0
    9.7909   -2.8659   24.3603 C   0  0  0  0  0  0  0  0  0  0  0  0
   10.0442   -2.1839   23.0281 C   0  0  0  0  0  0  0  0  0  0  0  0
    8.8187   -5.1621   24.5875 C   0  0  0  0  0  0  0  0  0  0  0  0
    7.8758   -5.9360   24.4796 O   0  0  0  0  0  0  0  0  0  0  0  0
   10.1628   -5.6255   25.1362 C   0  0  0  0  0  0  0  0  0  0  0  0
   10.1090   -7.0238   25.5398 C   0  0  0  0  0  0  0  0  0  0  0  0
   10.0355   -8.1118   25.8581 N   0  0  0  0  0  0  0  0  0  0  0  0
    7.1902   -0.3406   19.7197 C   0  0  0  0  0  0  0  0  0  0  0  0
  1  2  1  0
  2  3  2  0
  3  4  1  0
  4  5  2  0
  5  6  1  0
  6  7  1  0
  7  8  1  0
  8  9  2  0
  8 10  2  0
  8 11  1  0
 11 12  1  0
 12 13  1  0
 13 14  1  0
 14 15  1  0
 15 16  1  0
  5 17  1  0
 17 18  1  0
 18 19  1  0
 19 20  1  0
 20 21  1  0
 21 22  1  0
 22 23  1  0
 23 24  1  0
 22 25  1  0
 25 26  2  0
 25 27  1  0
 27 28  1  0
 28 29  3  0
 17 30  2  0
 30  2  1  0
 16 11  1  0
 24 19  1  0
M  END
