CVD-0001769|dock_bobby27042020.22|mol2|43|dock1
     RDKit          3D

 20 21  0  0  0  0  0  0  0  0999 V2000
    8.0103   -2.3066   22.8821 C   0  0  0  0  0  0  0  0  0  0  0  0
    9.4359   -1.9789   22.5658 C   0  0  0  0  0  0  0  0  0  0  0  0
    9.7223   -0.5763   22.8784 N   0  0  0  0  0  0  0  0  0  0  0  0
   11.0013   -0.0712   22.4252 C   0  0  0  0  0  0  0  0  0  0  0  0
   11.0432    1.3727   22.5872 N   0  0  0  0  0  0  0  0  0  0  0  0
   12.2232    2.0169   22.5174 C   0  0  0  0  0  0  0  0  0  0  0  0
   13.2779    1.4258   22.3200 O   0  0  0  0  0  0  0  0  0  0  0  0
   12.2657    3.4402   22.6768 N   0  0  0  0  0  0  0  0  0  0  0  0
   13.4455    4.1269   22.4465 C   0  0  0  0  0  0  0  0  0  0  0  0
   13.5043    5.4345   22.5877 C   0  0  0  0  0  0  0  0  0  0  0  0
   12.4554    6.1963   22.9572 O   0  0  0  0  0  0  0  0  0  0  0  0
   11.3081    5.5241   23.1804 C   0  0  0  0  0  0  0  0  0  0  0  0
   11.1833    4.2190   23.0569 C   0  0  0  0  0  0  0  0  0  0  0  0
   12.1404   -0.7203   23.1863 C   0  0  0  0  0  0  0  0  0  0  0  0
   12.5962   -0.1815   24.3810 C   0  0  0  0  0  0  0  0  0  0  0  0
   13.6372   -0.7677   25.0790 C   0  0  0  0  0  0  0  0  0  0  0  0
   14.2587   -1.9213   24.5960 C   0  0  0  0  0  0  0  0  0  0  0  0
   15.2936   -2.5088   25.2854 N   0  0  0  0  0  0  0  0  0  0  0  0
   13.7990   -2.4613   23.3928 C   0  0  0  0  0  0  0  0  0  0  0  0
   12.7572   -1.8659   22.7041 C   0  0  0  0  0  0  0  0  0  0  0  0
  1  2  1  0
  2  3  1  0
  3  4  1  0
  4  5  1  0
  5  6  1  0
  6  7  2  0
  6  8  1  0
  8  9  1  0
  9 10  2  0
 10 11  1  0
 11 12  1  0
 12 13  2  0
  4 14  1  0
 14 15  2  0
 15 16  1  0
 16 17  2  0
 17 18  1  0
 17 19  1  0
 19 20  2  0
 13  8  1  0
 20 14  1  0
M  END
