CVD-0000143|dock_bobby27042020.42|mol2|32|dock2
     RDKit          3D

 17 18  0  0  0  0  0  0  0  0999 V2000
   14.6635    5.6340   21.5222 C   0  0  0  0  0  0  0  0  0  0  0  0
   13.8962    4.4523   21.6889 O   0  0  0  0  0  0  0  0  0  0  0  0
   12.9506    4.5686   22.7292 C   0  0  0  0  0  0  0  0  0  0  0  0
   12.0712    3.3492   22.7297 C   0  0  0  0  0  0  0  0  0  0  0  0
   12.7929    2.1641   23.1709 N   0  0  0  0  0  0  0  0  0  0  0  0
   12.3058    0.9320   23.0264 C   0  0  0  0  0  0  0  0  0  0  0  0
   11.2132    0.7115   22.5105 O   0  0  0  0  0  0  0  0  0  0  0  0
   13.1901   -0.1889   23.5391 C   0  0  0  0  0  0  0  0  0  0  0  0
   13.0596   -0.5477   25.0088 C   0  0  0  0  0  0  0  0  0  0  0  0
   13.9096   -1.7744   25.1343 C   0  0  0  0  0  0  0  0  0  0  0  0
   13.8055   -2.5275   23.7848 C   0  0  0  0  0  0  0  0  0  0  0  0
   13.0337   -1.5689   22.8321 C   0  0  0  0  0  0  0  0  0  0  0  0
   11.5954   -1.9578   22.5745 C   0  0  0  0  0  0  0  0  0  0  0  0
   10.7251   -2.5774   23.5191 C   0  0  0  0  0  0  0  0  0  0  0  0
    9.4724   -2.8252   23.0438 C   0  0  0  0  0  0  0  0  0  0  0  0
    9.3485   -2.2997   21.4334 S   0  0  0  0  0  0  0  0  0  0  0  0
   10.9563   -1.7492   21.3881 C   0  0  0  0  0  0  0  0  0  0  0  0
  1  2  1  0
  2  3  1  0
  3  4  1  0
  4  5  1  0
  5  6  1  0
  6  7  2  0
  8  6  1  0
  8  9  1  0
  9 10  1  0
 10 11  1  0
 11 12  1  0
 12 13  1  0
 13 14  1  0
 14 15  2  0
 15 16  1  0
 16 17  1  0
 12  8  1  0
 17 13  2  0
M  END
