CVD-0000901|dock_bobby27042020.83|mol2|3|dock2
     RDKit          3D

 22 22  0  0  0  0  0  0  0  0999 V2000
    9.5648   -0.2299   27.1633 C   0  0  0  0  0  0  0  0  0  0  0  0
    9.0409   -1.2044   26.1365 C   0  0  0  0  0  0  0  0  0  0  0  0
    7.6972   -0.8702   25.9116 O   0  0  0  0  0  0  0  0  0  0  0  0
    9.8093   -1.1676   24.8881 N   0  0  0  0  0  0  0  0  0  0  0  0
    9.8078   -2.4075   24.1274 C   0  0  0  0  0  0  0  0  0  0  0  0
    8.5832   -2.5199   23.1793 C   0  0  0  0  0  0  0  0  0  0  0  0
    8.3738   -1.2898   22.4122 N   0  0  0  0  0  0  0  0  0  0  0  0
    8.4560   -0.0357   23.1333 C   0  0  0  0  0  0  0  0  0  0  0  0
    9.6622    0.0210   24.0765 C   0  0  0  0  0  0  0  0  0  0  0  0
   10.9702    0.2989   23.3362 C   0  0  0  0  0  0  0  0  0  0  0  0
   11.1138    1.7419   22.8365 C   0  0  0  0  0  0  0  0  0  0  0  0
   12.5402    2.1949   22.6092 C   0  0  0  0  0  0  0  0  0  0  0  0
   12.7185    3.4880   22.3895 N   0  0  0  0  0  0  0  0  0  0  0  0
   13.4731    1.3869   22.6318 O   0  0  0  0  0  0  0  0  0  0  0  0
   12.0661    0.0228   24.2586 N   0  0  0  0  0  0  0  0  0  0  0  0
   13.0437   -0.8716   23.9880 C   0  0  0  0  0  0  0  0  0  0  0  0
   13.9800   -1.0157   24.9251 N   0  0  0  0  0  0  0  0  0  0  0  0
   13.0494   -1.5088   22.9258 O   0  0  0  0  0  0  0  0  0  0  0  0
    8.9007   -1.2428   21.0425 C   0  0  0  0  0  0  0  0  0  0  0  0
    9.6400   -2.3989   20.7303 O   0  0  0  0  0  0  0  0  0  0  0  0
    7.8225   -1.0523   19.9950 C   0  0  0  0  0  0  0  0  0  0  0  0
    8.3769   -1.4116   18.3344 Cl  0  0  0  0  0  0  0  0  0  0  0  0
  1  2  1  0
  2  3  1  0
  2  4  1  0
  4  5  1  0
  5  6  1  0
  6  7  1  0
  7  8  1  0
  8  9  1  0
  9 10  1  0
 10 11  1  0
 11 12  1  0
 12 13  1  0
 12 14  2  0
 10 15  1  0
 15 16  1  0
 16 17  1  0
 16 18  2  0
  7 19  1  0
 19 20  1  0
 19 21  1  0
 21 22  1  0
  9  4  1  0
M  END
