CVD-0003289|dock_bobby27042020.88|mol2|26|dock3
     RDKit          3D

 15 17  0  0  0  0  0  0  0  0999 V2000
   13.8487   -1.7604   25.2865 C   0  0  0  0  0  0  0  0  0  0  0  0
   12.4509   -1.3630   24.7964 C   0  0  0  0  0  0  0  0  0  0  0  0
   12.6422   -1.2464   23.2747 C   0  0  0  0  0  0  0  0  0  0  0  0
   11.3802   -1.5024   22.4500 C   0  0  0  0  0  0  0  0  0  0  0  0
   10.6830   -0.1411   22.4200 C   0  0  0  0  0  0  0  0  0  0  0  0
   11.7549    0.8148   22.6541 N   0  0  0  0  0  0  0  0  0  0  0  0
   13.0332    0.1973   22.9252 C   0  0  0  0  0  0  0  0  0  0  0  0
   11.5170    2.1774   22.7209 C   0  0  0  0  0  0  0  0  0  0  0  0
   12.5651    3.0868   22.7388 C   0  0  0  0  0  0  0  0  0  0  0  0
   12.2873    4.4407   22.8062 C   0  0  0  0  0  0  0  0  0  0  0  0
   10.9722    4.8409   22.8533 C   0  0  0  0  0  0  0  0  0  0  0  0
    9.9485    3.9869   22.8375 N   0  0  0  0  0  0  0  0  0  0  0  0
   10.2279    2.6814   22.7723 C   0  0  0  0  0  0  0  0  0  0  0  0
   13.7898   -2.2387   23.0538 C   0  0  0  0  0  0  0  0  0  0  0  0
   14.6695   -1.9566   24.1475 O   0  0  0  0  0  0  0  0  0  0  0  0
  1  2  1  0
  2  3  1  0
  3  4  1  0
  4  5  1  0
  5  6  1  0
  6  7  1  0
  6  8  1  0
  8  9  2  0
  9 10  1  0
 10 11  2  0
 11 12  1  0
 12 13  2  0
  3 14  1  0
 14 15  1  0
 15  1  1  0
  7  3  1  0
 13  8  1  0
M  END
