CVD-0002320|dock_bobby27042020.63|mol2|38|dock2
     RDKit          3D

 25 27  0  0  0  0  0  0  0  0999 V2000
   14.2623   -2.0020   25.5056 C   0  0  0  0  0  0  0  0  0  0  0  0
   13.9436   -1.2860   24.2261 C   0  0  0  0  0  0  0  0  0  0  0  0
   14.6577   -0.3811   23.8089 O   0  0  0  0  0  0  0  0  0  0  0  0
   12.8300   -1.6629   23.5507 N   0  0  0  0  0  0  0  0  0  0  0  0
   11.8956   -2.7225   23.9426 C   0  0  0  0  0  0  0  0  0  0  0  0
   10.4711   -2.2471   23.8221 C   0  0  0  0  0  0  0  0  0  0  0  0
   10.1889   -1.7805   22.4546 N   0  0  0  0  0  0  0  0  0  0  0  0
   11.0995   -0.6722   22.1636 C   0  0  0  0  0  0  0  0  0  0  0  0
   12.5395   -1.1230   22.2239 C   0  0  0  0  0  0  0  0  0  0  0  0
    8.7973   -1.3619   22.3163 C   0  0  0  0  0  0  0  0  0  0  0  0
    8.4864   -0.9557   20.8551 C   0  0  0  0  0  0  0  0  0  0  0  0
    9.2000   -1.3693   19.9462 O   0  0  0  0  0  0  0  0  0  0  0  0
    7.4116   -0.1376   20.7177 N   0  0  0  0  0  0  0  0  0  0  0  0
    6.8361    0.4420   19.5524 C   0  0  0  0  0  0  0  0  0  0  0  0
    7.4582    0.4720   18.3039 C   0  0  0  0  0  0  0  0  0  0  0  0
    6.9184    1.0196   17.2105 N   0  0  0  0  0  0  0  0  0  0  0  0
    5.7116    1.5664   17.3247 C   0  0  0  0  0  0  0  0  0  0  0  0
    5.0067    1.5912   18.5070 C   0  0  0  0  0  0  0  0  0  0  0  0
    5.5579    1.0251   19.6527 C   0  0  0  0  0  0  0  0  0  0  0  0
    4.7615    1.0731   20.9315 C   0  0  0  0  0  0  0  0  0  0  0  0
    7.8458   -2.4446   22.7593 C   0  0  0  0  0  0  0  0  0  0  0  0
    6.8897   -2.3065   23.8070 C   0  0  0  0  0  0  0  0  0  0  0  0
    6.1357   -3.4207   24.0228 C   0  0  0  0  0  0  0  0  0  0  0  0
    6.5926   -4.6483   22.9414 S   0  0  0  0  0  0  0  0  0  0  0  0
    7.7819   -3.6864   22.1996 C   0  0  0  0  0  0  0  0  0  0  0  0
  1  2  1  0
  2  3  2  0
  2  4  1  0
  4  5  1  0
  5  6  1  0
  6  7  1  0
  7  8  1  0
  8  9  1  0
  7 10  1  0
 10 11  1  0
 11 12  2  0
 11 13  1  0
 13 14  1  0
 14 15  2  0
 15 16  1  0
 16 17  2  0
 17 18  1  0
 18 19  2  0
 19 20  1  0
 10 21  1  0
 21 22  1  0
 22 23  2  0
 23 24  1  0
 24 25  1  0
  9  4  1  0
 19 14  1  0
 25 21  2  0
M  END
