CVD-0000596|dock_bobby27042020.98|mol2|7|dock1
     RDKit          3D

 20 21  0  0  0  0  0  0  0  0999 V2000
   15.2444   -2.4664   24.9139 O   0  0  0  0  0  0  0  0  0  0  0  0
   14.4396   -1.5762   25.1808 N   0  0  0  0  0  0  0  0  0  0  0  0
   14.5144   -0.8591   26.1642 O   0  0  0  0  0  0  0  0  0  0  0  0
   13.3174   -1.3628   24.2574 C   0  0  0  0  0  0  0  0  0  0  0  0
   12.1851   -0.6953   24.6855 C   0  0  0  0  0  0  0  0  0  0  0  0
   11.1227   -0.4922   23.8220 C   0  0  0  0  0  0  0  0  0  0  0  0
   11.1712   -0.9467   22.4993 C   0  0  0  0  0  0  0  0  0  0  0  0
   10.1139   -0.7624   21.5617 N   0  0  0  0  0  0  0  0  0  0  0  0
    8.8735   -0.2178   21.7211 C   0  0  0  0  0  0  0  0  0  0  0  0
    8.4635    0.2417   22.7816 O   0  0  0  0  0  0  0  0  0  0  0  0
    7.9352   -0.1613   20.5431 C   0  0  0  0  0  0  0  0  0  0  0  0
    7.9360   -1.2364   19.6573 C   0  0  0  0  0  0  0  0  0  0  0  0
    7.1013   -1.2575   18.5530 C   0  0  0  0  0  0  0  0  0  0  0  0
    6.2432   -0.2016   18.3063 C   0  0  0  0  0  0  0  0  0  0  0  0
    6.2417    0.8619   19.1796 C   0  0  0  0  0  0  0  0  0  0  0  0
    5.1669    2.1994   18.8824 Cl  0  0  0  0  0  0  0  0  0  0  0  0
    7.0671    0.9011   20.2851 C   0  0  0  0  0  0  0  0  0  0  0  0
   12.3355   -1.6204   22.0979 C   0  0  0  0  0  0  0  0  0  0  0  0
   12.5336   -2.2383   20.4887 Cl  0  0  0  0  0  0  0  0  0  0  0  0
   13.3952   -1.8305   22.9594 C   0  0  0  0  0  0  0  0  0  0  0  0
  1  2  1  0
  2  3  2  0
  2  4  1  0
  4  5  2  0
  5  6  1  0
  6  7  2  0
  7  8  1  0
  8  9  1  0
  9 10  2  0
  9 11  1  0
 11 12  2  0
 12 13  1  0
 13 14  2  0
 14 15  1  0
 15 16  1  0
 15 17  2  0
  7 18  1  0
 18 19  1  0
 18 20  2  0
 20  4  1  0
 17 11  1  0
M  CHG  2   1  -1   2   1
M  END
