CVD-0001556|dock_bobby27042020.9|mol2|21|dock1
     RDKit          3D

 31 32  0  0  0  0  0  0  0  0999 V2000
    9.0240    5.7957   23.8027 C   0  0  0  0  0  0  0  0  0  0  0  0
    9.0920    4.6480   22.8385 C   0  0  0  0  0  0  0  0  0  0  0  0
    8.4795    4.6563   21.7752 O   0  0  0  0  0  0  0  0  0  0  0  0
    9.8724    3.6236   23.1992 N   0  0  0  0  0  0  0  0  0  0  0  0
   10.0523    2.4484   22.3590 C   0  0  0  0  0  0  0  0  0  0  0  0
    8.8833    1.4885   22.6247 C   0  0  0  0  0  0  0  0  0  0  0  0
    8.2212    1.5803   23.6550 O   0  0  0  0  0  0  0  0  0  0  0  0
    8.6407    0.5702   21.6852 N   0  0  0  0  0  0  0  0  0  0  0  0
    7.5622   -0.3950   21.8217 C   0  0  0  0  0  0  0  0  0  0  0  0
    6.2014    0.3064   21.6932 C   0  0  0  0  0  0  0  0  0  0  0  0
    5.8468    0.6640   20.2703 C   0  0  0  0  0  0  0  0  0  0  0  0
    5.6236   -0.3169   19.3184 C   0  0  0  0  0  0  0  0  0  0  0  0
    5.3034    0.0408   18.0205 C   0  0  0  0  0  0  0  0  0  0  0  0
    5.2165    1.3793   17.7131 C   0  0  0  0  0  0  0  0  0  0  0  0
    5.4268    2.3475   18.6060 N   0  0  0  0  0  0  0  0  0  0  0  0
    5.7349    1.9771   19.8527 C   0  0  0  0  0  0  0  0  0  0  0  0
    7.6278   -1.1072   23.1601 C   0  0  0  0  0  0  0  0  0  0  0  0
    6.9884   -0.7011   24.1060 O   0  0  0  0  0  0  0  0  0  0  0  0
    8.5123   -2.3193   23.2419 C   0  0  0  0  0  0  0  0  0  0  0  0
    7.7619   -3.7514   22.5256 Cl  0  0  0  0  0  0  0  0  0  0  0  0
   11.3777    1.7710   22.6895 C   0  0  0  0  0  0  0  0  0  0  0  0
   11.3708    0.5117   23.2886 C   0  0  0  0  0  0  0  0  0  0  0  0
   12.5484   -0.1423   23.6057 C   0  0  0  0  0  0  0  0  0  0  0  0
   13.7566    0.4560   23.3263 C   0  0  0  0  0  0  0  0  0  0  0  0
   13.7824    1.7052   22.7310 C   0  0  0  0  0  0  0  0  0  0  0  0
   12.6072    2.3784   22.4058 C   0  0  0  0  0  0  0  0  0  0  0  0
   12.7548    3.7305   21.7566 C   0  0  0  0  0  0  0  0  0  0  0  0
   13.4674    4.8611   22.9016 S   0  0  0  0  0  0  0  0  0  0  0  0
   13.5618    6.1864   22.1778 F   0  0  0  0  0  0  0  0  0  0  0  0
   12.5684    5.0362   23.9860 O   0  0  0  0  0  0  0  0  0  0  0  0
   14.7927    4.4432   23.1905 O   0  0  0  0  0  0  0  0  0  0  0  0
  1  2  1  0
  2  3  2  0
  2  4  1  0
  4  5  1  0
  5  6  1  0
  6  7  2  0
  6  8  1  0
  8  9  1  0
  9 10  1  0
 10 11  1  0
 11 12  2  0
 12 13  1  0
 13 14  2  0
 14 15  1  0
 15 16  2  0
  9 17  1  0
 17 18  2  0
 17 19  1  0
 19 20  1  0
  5 21  1  0
 21 22  2  0
 22 23  1  0
 23 24  2  0
 24 25  1  0
 25 26  2  0
 26 27  1  0
 27 28  1  0
 28 29  1  0
 28 30  2  0
 28 31  2  0
 16 11  1  0
 26 21  1  0
M  END
