CVD-0003113|dock_bobby27042020.3|mol2|14|dock2
     RDKit          3D

 17 18  0  0  0  0  0  0  0  0999 V2000
    5.9708   -1.1638   18.7170 C   0  0  0  0  0  0  0  0  0  0  0  0
    6.7185   -1.0266   20.0181 C   0  0  0  0  0  0  0  0  0  0  0  0
    6.8564   -2.3136   20.7111 N   0  0  0  0  0  0  0  0  0  0  0  0
    5.8058   -3.1863   20.7054 N   0  0  0  0  0  0  0  0  0  0  0  0
    6.2350   -4.2170   21.4230 C   0  0  0  0  0  0  0  0  0  0  0  0
    7.5279   -4.0355   21.9031 C   0  0  0  0  0  0  0  0  0  0  0  0
    7.8975   -2.7938   21.4306 C   0  0  0  0  0  0  0  0  0  0  0  0
    9.0620   -2.0442   21.5714 N   0  0  0  0  0  0  0  0  0  0  0  0
    9.4216   -1.2998   22.7017 C   0  0  0  0  0  0  0  0  0  0  0  0
    8.7139   -1.2439   23.7002 O   0  0  0  0  0  0  0  0  0  0  0  0
   10.6194   -0.6046   22.6864 N   0  0  0  0  0  0  0  0  0  0  0  0
   11.1210    0.2129   23.7951 C   0  0  0  0  0  0  0  0  0  0  0  0
   12.5961    0.5424   23.6751 C   0  0  0  0  0  0  0  0  0  0  0  0
   13.5139   -0.6821   23.6150 C   0  0  0  0  0  0  0  0  0  0  0  0
   13.6529   -1.2485   22.2146 C   0  0  0  0  0  0  0  0  0  0  0  0
   12.3602   -1.7468   21.6103 C   0  0  0  0  0  0  0  0  0  0  0  0
   11.3692   -0.6865   21.5091 O   0  0  0  0  0  0  0  0  0  0  0  0
  1  2  1  0
  2  3  1  0
  3  4  1  0
  4  5  2  0
  5  6  1  0
  6  7  2  0
  7  8  1  0
  8  9  1  0
  9 10  2  0
  9 11  1  0
 11 12  1  0
 12 13  1  0
 13 14  1  0
 14 15  1  0
 15 16  1  0
 16 17  1  0
  7  3  1  0
 17 11  1  0
M  END
