CVD-0000669|dock_bobby27042020.26|mol2|32|dock3
     RDKit          3D

 25 26  0  0  0  0  0  0  0  0999 V2000
   14.1993   -2.9000   25.4306 C   0  0  0  0  0  0  0  0  0  0  0  0
   14.4613   -1.6577   24.7807 O   0  0  0  0  0  0  0  0  0  0  0  0
   13.4226   -0.8606   24.3685 C   0  0  0  0  0  0  0  0  0  0  0  0
   13.6140   -0.0534   23.2604 C   0  0  0  0  0  0  0  0  0  0  0  0
   12.5913    0.7639   22.8137 C   0  0  0  0  0  0  0  0  0  0  0  0
   11.3639    0.7924   23.4585 C   0  0  0  0  0  0  0  0  0  0  0  0
   11.1875   -0.0212   24.5680 C   0  0  0  0  0  0  0  0  0  0  0  0
   12.2011   -0.8441   25.0268 C   0  0  0  0  0  0  0  0  0  0  0  0
   10.2438    1.6948   22.9656 C   0  0  0  0  0  0  0  0  0  0  0  0
   10.7832    3.0583   22.5120 C   0  0  0  0  0  0  0  0  0  0  0  0
   11.8500    3.5781   23.3742 N   0  0  0  0  0  0  0  0  0  0  0  0
   12.3645    5.0852   23.1890 S   0  0  0  0  0  0  0  0  0  0  0  0
   13.6703    5.0610   22.0225 C   0  0  0  0  0  0  0  0  0  0  0  0
   11.2813    5.8317   22.6274 O   0  0  0  0  0  0  0  0  0  0  0  0
   12.9012    5.5022   24.4476 O   0  0  0  0  0  0  0  0  0  0  0  0
    9.5308    1.0171   21.7937 C   0  0  0  0  0  0  0  0  0  0  0  0
   10.0274    0.0534   21.2182 O   0  0  0  0  0  0  0  0  0  0  0  0
    8.3404    1.5957   21.4965 N   0  0  0  0  0  0  0  0  0  0  0  0
    7.3802    1.2768   20.4961 C   0  0  0  0  0  0  0  0  0  0  0  0
    7.6487    0.4885   19.3770 C   0  0  0  0  0  0  0  0  0  0  0  0
    6.7464    0.1897   18.4371 N   0  0  0  0  0  0  0  0  0  0  0  0
    5.5179    0.6776   18.5827 C   0  0  0  0  0  0  0  0  0  0  0  0
    5.1435    1.4660   19.6476 C   0  0  0  0  0  0  0  0  0  0  0  0
    6.0732    1.7832   20.6334 C   0  0  0  0  0  0  0  0  0  0  0  0
    5.6328    2.6510   21.7842 C   0  0  0  0  0  0  0  0  0  0  0  0
  1  2  1  0
  2  3  1  0
  3  4  2  0
  4  5  1  0
  5  6  2  0
  6  7  1  0
  7  8  2  0
  6  9  1  0
  9 10  1  0
 10 11  1  0
 11 12  1  0
 12 13  1  0
 12 14  2  0
 12 15  2  0
  9 16  1  0
 16 17  2  0
 16 18  1  0
 18 19  1  0
 19 20  2  0
 20 21  1  0
 21 22  2  0
 22 23  1  0
 23 24  2  0
 24 25  1  0
  8  3  1  0
 24 19  1  0
M  END
