CVD-0003958|dock_bobby27042020.43|mol2|32|dock1
     RDKit          3D

 18 18  0  0  0  0  0  0  0  0999 V2000
    8.5557   -2.9861   25.8986 C   0  0  0  0  0  0  0  0  0  0  0  0
    9.2916   -2.8976   24.5941 C   0  0  0  0  0  0  0  0  0  0  0  0
   10.3239   -3.5277   24.3871 O   0  0  0  0  0  0  0  0  0  0  0  0
    8.7467   -2.1046   23.6651 N   0  0  0  0  0  0  0  0  0  0  0  0
    9.3349   -1.9280   22.3397 C   0  0  0  0  0  0  0  0  0  0  0  0
    8.4460   -1.0003   21.5054 C   0  0  0  0  0  0  0  0  0  0  0  0
    8.6442   -1.1028   20.0559 N   0  0  0  0  0  0  0  0  0  0  0  0
    7.6923   -0.2835   19.0591 S   0  0  0  0  0  0  0  0  0  0  0  0
    6.4055   -1.3574   18.5515 C   0  0  0  0  0  0  0  0  0  0  0  0
    8.4753    0.0459   17.9085 O   0  0  0  0  0  0  0  0  0  0  0  0
    7.1096    0.7808   19.8164 O   0  0  0  0  0  0  0  0  0  0  0  0
   10.7449   -1.3791   22.4327 C   0  0  0  0  0  0  0  0  0  0  0  0
   11.0793   -0.4406   23.3987 C   0  0  0  0  0  0  0  0  0  0  0  0
   12.3670    0.0621   23.4800 C   0  0  0  0  0  0  0  0  0  0  0  0
   13.3398   -0.3679   22.5933 C   0  0  0  0  0  0  0  0  0  0  0  0
   13.0000   -1.2988   21.6363 C   0  0  0  0  0  0  0  0  0  0  0  0
   14.2132   -1.8481   20.5141 Cl  0  0  0  0  0  0  0  0  0  0  0  0
   11.7205   -1.8073   21.5448 C   0  0  0  0  0  0  0  0  0  0  0  0
  1  2  1  0
  2  3  2  0
  2  4  1  0
  4  5  1  0
  5  6  1  0
  6  7  1  0
  7  8  1  0
  8  9  1  0
  8 10  2  0
  8 11  2  0
  5 12  1  0
 12 13  2  0
 13 14  1  0
 14 15  2  0
 15 16  1  0
 16 17  1  0
 16 18  2  0
 18 12  1  0
M  END
