CVD-0001097|dock_bobby27042020.10|mol2|43|dock2
     RDKit          3D

 21 23  0  0  0  0  0  0  0  0999 V2000
   14.0209   -2.4758   23.8092 N   0  0  0  0  0  0  0  0  0  0  0  0
   13.4988   -1.5087   24.5465 C   0  0  0  0  0  0  0  0  0  0  0  0
   14.0162   -1.1142   25.5938 O   0  0  0  0  0  0  0  0  0  0  0  0
   12.2115   -0.8990   24.0314 C   0  0  0  0  0  0  0  0  0  0  0  0
   11.0435   -1.8823   23.9360 C   0  0  0  0  0  0  0  0  0  0  0  0
   10.1987   -1.2423   22.9242 N   0  0  0  0  0  0  0  0  0  0  0  0
    9.1075   -2.1214   22.4818 C   0  0  0  0  0  0  0  0  0  0  0  0
    8.1758   -1.4553   21.4982 C   0  0  0  0  0  0  0  0  0  0  0  0
    8.3749   -1.5592   20.1317 C   0  0  0  0  0  0  0  0  0  0  0  0
    7.5024   -0.9324   19.2595 C   0  0  0  0  0  0  0  0  0  0  0  0
    6.4519   -0.2161   19.7866 C   0  0  0  0  0  0  0  0  0  0  0  0
    6.2348   -0.0967   21.0973 N   0  0  0  0  0  0  0  0  0  0  0  0
    7.0905   -0.7106   21.9201 C   0  0  0  0  0  0  0  0  0  0  0  0
   11.1522   -0.9065   21.8675 C   0  0  0  0  0  0  0  0  0  0  0  0
   12.3095   -0.2544   22.6407 C   0  0  0  0  0  0  0  0  0  0  0  0
   12.1107    1.2464   22.7104 C   0  0  0  0  0  0  0  0  0  0  0  0
   13.1960    2.1099   22.6574 C   0  0  0  0  0  0  0  0  0  0  0  0
   13.0136    3.4815   22.7178 C   0  0  0  0  0  0  0  0  0  0  0  0
   11.7443    4.0069   22.8312 C   0  0  0  0  0  0  0  0  0  0  0  0
   10.6569    3.1615   22.8836 C   0  0  0  0  0  0  0  0  0  0  0  0
   10.8386    1.7899   22.8231 C   0  0  0  0  0  0  0  0  0  0  0  0
  1  2  1  0
  2  3  2  0
  4  2  1  0
  4  5  1  0
  5  6  1  0
  6  7  1  0
  7  8  1  0
  8  9  2  0
  9 10  1  0
 10 11  2  0
 11 12  1  0
 12 13  2  0
  6 14  1  0
 14 15  1  0
 15 16  1  0
 16 17  2  0
 17 18  1  0
 18 19  2  0
 19 20  1  0
 20 21  2  0
 15  4  1  0
 21 16  1  0
 13  8  1  0
M  END
