CVD-0002496|dock_bobby27042020.63|mol2|11|dock1
     RDKit          3D

 30 32  0  0  0  0  0  0  0  0999 V2000
   13.6245   -3.0181   25.4365 C   0  0  0  0  0  0  0  0  0  0  0  0
   12.7848   -1.9759   24.7027 C   0  0  0  0  0  0  0  0  0  0  0  0
   13.7043   -1.0274   23.9520 C   0  0  0  0  0  0  0  0  0  0  0  0
   12.9720   -0.0636   23.0191 C   0  0  0  0  0  0  0  0  0  0  0  0
   12.2334    1.0170   23.8007 C   0  0  0  0  0  0  0  0  0  0  0  0
   11.6341    2.0833   22.9891 N   0  0  0  0  0  0  0  0  0  0  0  0
   12.2222    3.3813   23.3329 C   0  0  0  0  0  0  0  0  0  0  0  0
   11.6290    4.4738   22.4628 C   0  0  0  0  0  0  0  0  0  0  0  0
   10.1737    4.5199   22.6209 N   0  0  0  0  0  0  0  0  0  0  0  0
    9.5599    3.2179   22.3417 C   0  0  0  0  0  0  0  0  0  0  0  0
   10.1908    2.1415   23.2062 C   0  0  0  0  0  0  0  0  0  0  0  0
    9.5070    5.6499   22.9556 C   0  0  0  0  0  0  0  0  0  0  0  0
   10.0960    6.7076   23.1407 O   0  0  0  0  0  0  0  0  0  0  0  0
    7.9977    5.5868   23.0925 C   0  0  0  0  0  0  0  0  0  0  0  0
    7.2352    5.2019   21.5441 Cl  0  0  0  0  0  0  0  0  0  0  0  0
   11.9954   -0.8079   22.1023 C   0  0  0  0  0  0  0  0  0  0  0  0
   11.0424   -1.7187   22.8806 C   0  0  0  0  0  0  0  0  0  0  0  0
   11.8405   -2.6890   23.7369 C   0  0  0  0  0  0  0  0  0  0  0  0
   10.1243   -2.4722   22.0058 N   0  0  0  0  0  0  0  0  0  0  0  0
    8.8127   -2.7734   22.5919 C   0  0  0  0  0  0  0  0  0  0  0  0
    7.8350   -1.6450   22.3430 C   0  0  0  0  0  0  0  0  0  0  0  0
    7.8284   -1.2533   20.9431 N   0  0  0  0  0  0  0  0  0  0  0  0
    6.9024   -0.4236   20.3885 C   0  0  0  0  0  0  0  0  0  0  0  0
    7.0610    0.0773   19.0966 C   0  0  0  0  0  0  0  0  0  0  0  0
    6.0844    0.9157   18.5904 C   0  0  0  0  0  0  0  0  0  0  0  0
    4.9794    1.2377   19.3700 C   0  0  0  0  0  0  0  0  0  0  0  0
    4.9114    0.6883   20.6467 C   0  0  0  0  0  0  0  0  0  0  0  0
    5.8466   -0.1240   21.1517 N   0  0  0  0  0  0  0  0  0  0  0  0
    3.9423    2.1086   18.8742 C   0  0  0  0  0  0  0  0  0  0  0  0
    3.1378    2.8245   18.4935 N   0  0  0  0  0  0  0  0  0  0  0  0
  1  2  1  0
  2  3  1  0
  3  4  1  0
  4  5  1  0
  5  6  1  0
  6  7  1  0
  7  8  1  0
  8  9  1  0
  9 10  1  0
 10 11  1  0
  9 12  1  0
 12 13  2  0
 12 14  1  0
 14 15  1  0
  4 16  1  0
 16 17  1  0
 17 18  1  0
 17 19  1  0
 19 20  1  0
 20 21  1  0
 21 22  1  0
 22 23  1  0
 23 24  2  0
 24 25  1  0
 25 26  2  0
 26 27  1  0
 27 28  2  0
 26 29  1  0
 29 30  3  0
 18  2  1  0
 28 23  1  0
 11  6  1  0
M  END
