CVD-0001927|dock_bobby27042020.22|mol2|18|dock3
     RDKit          3D

 24 26  0  0  0  0  0  0  0  0999 V2000
    7.5219    3.7453   23.4825 N   0  0  0  0  0  0  0  0  0  0  0  0
    7.4125    2.8771   22.2891 C   0  0  0  0  0  0  0  0  0  0  0  0
    8.0547    1.4980   22.4050 C   0  0  0  0  0  0  0  0  0  0  0  0
    8.0436    1.0589   23.7582 O   0  0  0  0  0  0  0  0  0  0  0  0
    8.4710   -0.3094   23.9211 C   0  0  0  0  0  0  0  0  0  0  0  0
    7.3411   -1.1920   23.3259 C   0  0  0  0  0  0  0  0  0  0  0  0
    7.1803   -0.8156   21.8646 C   0  0  0  0  0  0  0  0  0  0  0  0
    6.6926   -1.7282   20.9170 C   0  0  0  0  0  0  0  0  0  0  0  0
    6.3781   -3.0173   21.2499 O   0  0  0  0  0  0  0  0  0  0  0  0
    6.4300   -1.3193   19.6107 C   0  0  0  0  0  0  0  0  0  0  0  0
    5.9040   -2.2125   18.7325 O   0  0  0  0  0  0  0  0  0  0  0  0
    6.6473   -0.0043   19.2280 C   0  0  0  0  0  0  0  0  0  0  0  0
    7.1276    0.8996   20.1561 C   0  0  0  0  0  0  0  0  0  0  0  0
    7.3976    0.5130   21.4687 C   0  0  0  0  0  0  0  0  0  0  0  0
    9.8251   -0.4256   23.2222 C   0  0  0  0  0  0  0  0  0  0  0  0
   10.4534   -1.8225   23.3363 C   0  0  0  0  0  0  0  0  0  0  0  0
   11.7365   -1.9130   22.5241 C   0  0  0  0  0  0  0  0  0  0  0  0
   12.7381   -0.8271   22.9027 C   0  0  0  0  0  0  0  0  0  0  0  0
   12.0772    0.5329   22.7917 C   0  0  0  0  0  0  0  0  0  0  0  0
   10.8438    0.6265   23.6922 C   0  0  0  0  0  0  0  0  0  0  0  0
   13.0243    1.6125   23.1351 N   0  0  0  0  0  0  0  0  0  0  0  0
   12.6972    2.9471   22.6157 C   0  0  0  0  0  0  0  0  0  0  0  0
   13.8484    3.9066   22.7768 C   0  0  0  0  0  0  0  0  0  0  0  0
   13.5558    5.1685   22.1988 O   0  0  0  0  0  0  0  0  0  0  0  0
  1  2  1  0
  2  3  1  0
  3  4  1  0
  4  5  1  0
  5  6  1  0
  6  7  1  0
  7  8  2  0
  8  9  1  0
  8 10  1  0
 10 11  1  0
 10 12  2  0
 12 13  1  0
 13 14  2  0
  5 15  1  0
 15 16  1  0
 16 17  1  0
 17 18  1  0
 18 19  1  0
 19 20  1  0
 19 21  1  0
 21 22  1  0
 22 23  1  0
 23 24  1  0
 14  3  1  0
 20 15  1  0
 14  7  1  0
M  END
