CVD-0002021|dock_bobby27042020.50|mol2|31|dock2
     RDKit          3D

 34 38  0  0  0  0  0  0  0  0999 V2000
    6.0084   -7.0385   31.1883 C   0  0  0  0  0  0  0  0  0  0  0  0
    6.5595   -7.0845   29.7934 C   0  0  0  0  0  0  0  0  0  0  0  0
    7.0471   -8.1067   29.3212 O   0  0  0  0  0  0  0  0  0  0  0  0
    6.5038   -5.9445   29.1021 N   0  0  0  0  0  0  0  0  0  0  0  0
    7.0132   -5.8247   27.7434 C   0  0  0  0  0  0  0  0  0  0  0  0
    8.5049   -6.0841   27.6741 C   0  0  0  0  0  0  0  0  0  0  0  0
    9.1382   -5.5360   26.4289 C   0  0  0  0  0  0  0  0  0  0  0  0
    9.7663   -6.2339   25.4405 C   0  0  0  0  0  0  0  0  0  0  0  0
   10.2144   -5.3814   24.4685 N   0  0  0  0  0  0  0  0  0  0  0  0
    9.8821   -4.0937   24.8135 C   0  0  0  0  0  0  0  0  0  0  0  0
   10.1068   -2.8776   24.1805 C   0  0  0  0  0  0  0  0  0  0  0  0
    9.6694   -1.6698   24.7245 C   0  0  0  0  0  0  0  0  0  0  0  0
    9.9197   -0.4359   24.0643 N   0  0  0  0  0  0  0  0  0  0  0  0
   10.7362    0.5885   24.7321 C   0  0  0  0  0  0  0  0  0  0  0  0
   10.4691    1.9637   24.1306 C   0  0  0  0  0  0  0  0  0  0  0  0
   10.6038    1.9619   22.6820 N   0  0  0  0  0  0  0  0  0  0  0  0
    9.8254    0.8966   22.0328 C   0  0  0  0  0  0  0  0  0  0  0  0
   10.2035   -0.4431   22.6065 C   0  0  0  0  0  0  0  0  0  0  0  0
   11.2917    2.8212   21.9026 C   0  0  0  0  0  0  0  0  0  0  0  0
   11.3259    2.7021   20.6843 O   0  0  0  0  0  0  0  0  0  0  0  0
   12.0241    3.9609   22.5882 C   0  0  0  0  0  0  0  0  0  0  0  0
   11.1297    4.8439   23.4058 C   0  0  0  0  0  0  0  0  0  0  0  0
    9.7864    5.0250   23.2530 C   0  0  0  0  0  0  0  0  0  0  0  0
    9.3103    5.9078   24.1858 N   0  0  0  0  0  0  0  0  0  0  0  0
   10.3506    6.3173   24.9671 C   0  0  0  0  0  0  0  0  0  0  0  0
   10.3069    7.1806   25.9959 N   0  0  0  0  0  0  0  0  0  0  0  0
   11.4706    7.4262   26.6135 C   0  0  0  0  0  0  0  0  0  0  0  0
   12.6694    6.8504   26.2507 C   0  0  0  0  0  0  0  0  0  0  0  0
   12.6966    5.9621   25.1871 C   0  0  0  0  0  0  0  0  0  0  0  0
   11.5131    5.6729   24.5113 C   0  0  0  0  0  0  0  0  0  0  0  0
    8.9753   -1.7751   25.9555 C   0  0  0  0  0  0  0  0  0  0  0  0
    8.4789   -0.6753   26.5672 F   0  0  0  0  0  0  0  0  0  0  0  0
    8.7520   -2.9650   26.6027 C   0  0  0  0  0  0  0  0  0  0  0  0
    9.2011   -4.1562   26.0409 C   0  0  0  0  0  0  0  0  0  0  0  0
  1  2  1  0
  2  3  2  0
  2  4  1  0
  4  5  1  0
  5  6  1  0
  6  7  1  0
  7  8  2  0
  8  9  1  0
  9 10  1  0
 10 11  2  0
 11 12  1  0
 12 13  1  0
 13 14  1  0
 14 15  1  0
 15 16  1  0
 16 17  1  0
 17 18  1  0
 16 19  1  0
 19 20  2  0
 19 21  1  0
 21 22  1  0
 22 23  2  0
 23 24  1  0
 24 25  1  0
 25 26  2  0
 26 27  1  0
 27 28  2  0
 28 29  1  0
 29 30  2  0
 12 31  2  0
 31 32  1  0
 31 33  1  0
 33 34  2  0
 34  7  1  0
 34 10  1  0
 18 13  1  0
 30 22  1  0
 30 25  1  0
M  END
