CVD-0004018|dock_bobby27042020.43|mol2|23|dock2
     RDKit          3D

 45 47  0  0  0  0  0  0  0  0999 V2000
    5.6256    0.8118   18.0468 C   0  0  0  0  0  0  0  0  0  0  0  0
    6.1918    0.0332   19.2227 C   0  0  0  0  0  0  0  0  0  0  0  0
    5.1253   -0.8751   19.8095 C   0  0  0  0  0  0  0  0  0  0  0  0
    6.7578    0.9492   20.3075 C   0  0  0  0  0  0  0  0  0  0  0  0
    6.9510    0.3537   21.7053 C   0  0  0  0  0  0  0  0  0  0  0  0
    7.4410    1.3592   22.6456 N   0  0  0  0  0  0  0  0  0  0  0  0
    8.9322    1.9827   22.5020 S   0  0  0  0  0  0  0  0  0  0  0  0
    9.4845    2.0078   23.8189 O   0  0  0  0  0  0  0  0  0  0  0  0
    9.5781    1.2436   21.4644 O   0  0  0  0  0  0  0  0  0  0  0  0
    8.8702    3.5142   22.0032 N   0  0  0  0  0  0  0  0  0  0  0  0
    9.2401    4.5734   22.9497 C   0  0  0  0  0  0  0  0  0  0  0  0
   10.7175    4.8831   22.9128 C   0  0  0  0  0  0  0  0  0  0  0  0
   11.2215    5.9983   23.5645 C   0  0  0  0  0  0  0  0  0  0  0  0
   12.5760    6.2854   23.5347 C   0  0  0  0  0  0  0  0  0  0  0  0
   13.4437    5.4598   22.8529 C   0  0  0  0  0  0  0  0  0  0  0  0
   12.9567    4.3469   22.2021 C   0  0  0  0  0  0  0  0  0  0  0  0
   11.6021    4.0603   22.2328 C   0  0  0  0  0  0  0  0  0  0  0  0
    7.9379   -0.8076   21.6276 C   0  0  0  0  0  0  0  0  0  0  0  0
    8.2186   -1.3017   20.5390 O   0  0  0  0  0  0  0  0  0  0  0  0
    8.4532   -1.2228   22.7916 N   0  0  0  0  0  0  0  0  0  0  0  0
    9.4091   -2.3162   22.9182 C   0  0  0  0  0  0  0  0  0  0  0  0
   10.4550   -2.0254   23.9974 C   0  0  0  0  0  0  0  0  0  0  0  0
   11.6776   -1.2485   23.4935 C   0  0  0  0  0  0  0  0  0  0  0  0
   12.6724   -2.0812   22.6604 C   0  0  0  0  0  0  0  0  0  0  0  0
   14.0564   -1.6245   23.1031 C   0  0  0  0  0  0  0  0  0  0  0  0
   13.7981   -0.9837   24.3785 N   0  0  0  0  0  0  0  0  0  0  0  0
   12.5155   -0.7003   24.6191 C   0  0  0  0  0  0  0  0  0  0  0  0
   12.0909   -0.1226   25.6163 O   0  0  0  0  0  0  0  0  0  0  0  0
    8.7030   -3.6447   23.1853 C   0  0  0  0  0  0  0  0  0  0  0  0
    8.9059   -4.6219   22.4876 O   0  0  0  0  0  0  0  0  0  0  0  0
    7.7521   -3.6438   24.3939 C   0  0  0  0  0  0  0  0  0  0  0  0
    8.2871   -3.3393   25.4535 O   0  0  0  0  0  0  0  0  0  0  0  0
    6.4388   -3.9472   24.3538 N   0  0  0  0  0  0  0  0  0  0  0  0
    5.5468   -4.0250   25.5077 C   0  0  0  0  0  0  0  0  0  0  0  0
    4.7049   -5.2816   25.4268 C   0  0  0  0  0  0  0  0  0  0  0  0
    3.9101   -5.3111   24.1272 C   0  0  0  0  0  0  0  0  0  0  0  0
    4.8637   -5.1730   22.9425 C   0  0  0  0  0  0  0  0  0  0  0  0
    5.7186   -3.9182   23.0854 C   0  0  0  0  0  0  0  0  0  0  0  0
    3.0923   -6.5872   24.0199 C   0  0  0  0  0  0  0  0  0  0  0  0
    3.5400   -7.6317   24.4533 O   0  0  0  0  0  0  0  0  0  0  0  0
    1.8620   -6.5717   23.4511 N   0  0  0  0  0  0  0  0  0  0  0  0
    1.2975   -5.3418   22.8990 C   0  0  0  0  0  0  0  0  0  0  0  0
    1.0461   -7.8077   23.3427 C   0  0  0  0  0  0  0  0  0  0  0  0
    1.6514   -8.7641   22.3272 C   0  0  0  0  0  0  0  0  0  0  0  0
    0.9241   -8.4661   24.7072 C   0  0  0  0  0  0  0  0  0  0  0  0
  1  2  1  0
  2  3  1  0
  2  4  1  0
  5  4  1  0
  5  6  1  0
  6  7  1  0
  7  8  2  0
  7  9  2  0
  7 10  1  0
 10 11  1  0
 11 12  1  0
 12 13  2  0
 13 14  1  0
 14 15  2  0
 15 16  1  0
 16 17  2  0
  5 18  1  0
 18 19  2  0
 18 20  1  0
 20 21  1  0
 21 22  1  0
 23 22  1  0
 23 24  1  0
 24 25  1  0
 25 26  1  0
 26 27  1  0
 27 28  2  0
 21 29  1  0
 29 30  2  0
 29 31  1  0
 31 32  2  0
 31 33  1  0
 33 34  1  0
 34 35  1  0
 35 36  1  0
 36 37  1  0
 37 38  1  0
 36 39  1  0
 39 40  2  0
 39 41  1  0
 41 42  1  0
 41 43  1  0
 43 44  1  0
 43 45  1  0
 17 12  1  0
 27 23  1  0
 38 33  1  0
M  END
