CVD-0002133|dock_bobby27042020.35|mol2|30|dock2
     RDKit          3D

 23 25  0  0  0  0  0  0  0  0999 V2000
   13.3749   -2.8250   25.8169 N   0  0  0  0  0  0  0  0  0  0  0  0
   13.9592   -1.4627   25.1832 S   0  0  0  0  0  0  0  0  0  0  0  0
   13.6393   -0.4195   26.1017 O   0  0  0  0  0  0  0  0  0  0  0  0
   15.3219   -1.7227   24.8520 O   0  0  0  0  0  0  0  0  0  0  0  0
   13.2068   -1.0856   23.7769 N   0  0  0  0  0  0  0  0  0  0  0  0
   13.9672   -0.7603   22.5662 C   0  0  0  0  0  0  0  0  0  0  0  0
   13.5605   -1.6927   21.4639 C   0  0  0  0  0  0  0  0  0  0  0  0
   12.1536   -1.6479   21.2287 O   0  0  0  0  0  0  0  0  0  0  0  0
   11.4425   -2.0054   22.3981 C   0  0  0  0  0  0  0  0  0  0  0  0
   11.7605   -1.0954   23.5408 C   0  0  0  0  0  0  0  0  0  0  0  0
    9.9744   -2.0245   22.0554 C   0  0  0  0  0  0  0  0  0  0  0  0
    9.4115   -1.0156   21.2909 C   0  0  0  0  0  0  0  0  0  0  0  0
    8.0639   -1.0465   20.9825 C   0  0  0  0  0  0  0  0  0  0  0  0
    7.2656   -2.0836   21.4353 C   0  0  0  0  0  0  0  0  0  0  0  0
    7.8075   -3.1109   22.2022 C   0  0  0  0  0  0  0  0  0  0  0  0
    9.1680   -3.0616   22.4992 C   0  0  0  0  0  0  0  0  0  0  0  0
    7.0144   -4.1550   22.6585 N   0  0  0  0  0  0  0  0  0  0  0  0
    7.3319   -5.5640   22.4068 C   0  0  0  0  0  0  0  0  0  0  0  0
    6.1278   -6.3428   21.9585 C   0  0  0  0  0  0  0  0  0  0  0  0
    4.9878   -6.2276   22.9765 C   0  0  0  0  0  0  0  0  0  0  0  0
    3.8350   -6.9668   22.5641 O   0  0  0  0  0  0  0  0  0  0  0  0
    4.6891   -4.7674   23.2050 C   0  0  0  0  0  0  0  0  0  0  0  0
    5.9075   -3.9736   23.6260 C   0  0  0  0  0  0  0  0  0  0  0  0
  1  2  1  0
  2  3  2  0
  2  4  2  0
  2  5  1  0
  5  6  1  0
  6  7  1  0
  7  8  1  0
  8  9  1  0
  9 10  1  0
  9 11  1  0
 11 12  2  0
 12 13  1  0
 13 14  2  0
 14 15  1  0
 15 16  2  0
 15 17  1  0
 17 18  1  0
 18 19  1  0
 19 20  1  0
 20 21  1  0
 20 22  1  0
 22 23  1  0
 10  5  1  0
 16 11  1  0
 23 17  1  0
M  END
