CVD-0000012|dock_bobby27042020.100|mol2|4|dock3
     RDKit          3D

 24 26  0  0  0  0  0  0  0  0999 V2000
    7.1184    0.6848   18.5796 C   0  0  0  0  0  0  0  0  0  0  0  0
    7.2426   -0.9507   19.1932 S   0  0  0  0  0  0  0  0  0  0  0  0
    7.2192   -1.8460   18.0780 O   0  0  0  0  0  0  0  0  0  0  0  0
    6.2620   -1.1146   20.2215 O   0  0  0  0  0  0  0  0  0  0  0  0
    8.6801   -1.1018   19.8867 N   0  0  0  0  0  0  0  0  0  0  0  0
    8.9554   -0.4189   21.1550 C   0  0  0  0  0  0  0  0  0  0  0  0
    8.6852   -1.3625   22.2987 C   0  0  0  0  0  0  0  0  0  0  0  0
    9.3376   -2.7108   22.3908 C   0  0  0  0  0  0  0  0  0  0  0  0
    9.7705   -1.6279   23.3611 C   0  0  0  0  0  0  0  0  0  0  0  0
    9.3016   -1.7675   24.8139 C   0  0  0  0  0  0  0  0  0  0  0  0
    9.0396   -0.7857   25.4962 O   0  0  0  0  0  0  0  0  0  0  0  0
    9.2060   -3.0349   25.2769 N   0  0  0  0  0  0  0  0  0  0  0  0
    8.9840   -4.1561   26.1115 C   0  0  0  0  0  0  0  0  0  0  0  0
    7.9166   -4.2368   27.0016 C   0  0  0  0  0  0  0  0  0  0  0  0
    7.7762   -5.3725   27.7804 C   0  0  0  0  0  0  0  0  0  0  0  0
    8.6976   -6.3864   27.6495 C   0  0  0  0  0  0  0  0  0  0  0  0
    9.7285   -6.3350   26.8056 N   0  0  0  0  0  0  0  0  0  0  0  0
    9.8574   -5.2358   26.0572 C   0  0  0  0  0  0  0  0  0  0  0  0
   11.1273   -0.9749   23.1194 C   0  0  0  0  0  0  0  0  0  0  0  0
   12.2262   -1.7350   22.7344 C   0  0  0  0  0  0  0  0  0  0  0  0
   13.4615   -1.1469   22.5204 C   0  0  0  0  0  0  0  0  0  0  0  0
   13.6197    0.2119   22.6853 C   0  0  0  0  0  0  0  0  0  0  0  0
   12.5419    0.9826   23.0635 C   0  0  0  0  0  0  0  0  0  0  0  0
   11.3062    0.3954   23.2785 C   0  0  0  0  0  0  0  0  0  0  0  0
  1  2  1  0
  2  3  2  0
  2  4  2  0
  2  5  1  0
  5  6  1  0
  6  7  1  0
  7  8  1  0
  8  9  1  0
  9 10  1  0
 10 11  2  0
 10 12  1  0
 12 13  1  0
 13 14  2  0
 14 15  1  0
 15 16  2  0
 16 17  1  0
 17 18  2  0
  9 19  1  0
 19 20  2  0
 20 21  1  0
 21 22  2  0
 22 23  1  0
 23 24  2  0
  9  7  1  0
 18 13  1  0
 24 19  1  0
M  END
