CVD-0001578|dock_bobby27042020.80|mol2|37|dock3
     RDKit          3D

 16 17  0  0  0  0  0  0  0  0999 V2000
   13.4120   -1.4858   22.0137 C   0  0  0  0  0  0  0  0  0  0  0  0
   12.0635   -1.0279   22.4865 C   0  0  0  0  0  0  0  0  0  0  0  0
   11.8866   -0.5910   23.6194 O   0  0  0  0  0  0  0  0  0  0  0  0
   11.0645   -1.1391   21.6088 N   0  0  0  0  0  0  0  0  0  0  0  0
    9.6963   -0.7536   21.9240 C   0  0  0  0  0  0  0  0  0  0  0  0
    8.7006   -1.3614   20.9563 C   0  0  0  0  0  0  0  0  0  0  0  0
    7.3128   -0.8151   21.1224 C   0  0  0  0  0  0  0  0  0  0  0  0
    6.5308   -0.8622   22.2387 C   0  0  0  0  0  0  0  0  0  0  0  0
    5.3268   -0.2562   22.0029 N   0  0  0  0  0  0  0  0  0  0  0  0
    5.3065    0.2021   20.7085 C   0  0  0  0  0  0  0  0  0  0  0  0
    4.3259    0.8783   19.9906 C   0  0  0  0  0  0  0  0  0  0  0  0
    4.5764    1.2263   18.6744 C   0  0  0  0  0  0  0  0  0  0  0  0
    5.7891    0.9042   18.0814 C   0  0  0  0  0  0  0  0  0  0  0  0
    6.0222    1.2535   16.7833 O   0  0  0  0  0  0  0  0  0  0  0  0
    6.7689    0.2293   18.7968 C   0  0  0  0  0  0  0  0  0  0  0  0
    6.5417   -0.1324   20.1232 C   0  0  0  0  0  0  0  0  0  0  0  0
  1  2  1  0
  2  3  2  0
  2  4  1  0
  4  5  1  0
  5  6  1  0
  6  7  1  0
  7  8  2  0
  8  9  1  0
  9 10  1  0
 10 11  2  0
 11 12  1  0
 12 13  2  0
 13 14  1  0
 13 15  1  0
 15 16  2  0
 16  7  1  0
 16 10  1  0
M  END
