CVD-0001001|dock_bobby27042020.39|mol2|35|dock3
     RDKit          3D

 32 36  0  0  0  0  0  0  0  0999 V2000
    0.7951  -10.7542   25.7892 C   0  0  0  0  0  0  0  0  0  0  0  0
    1.2779   -9.5873   26.4521 O   0  0  0  0  0  0  0  0  0  0  0  0
    2.1886   -8.7673   25.8339 C   0  0  0  0  0  0  0  0  0  0  0  0
    2.2380   -8.6314   24.4536 C   0  0  0  0  0  0  0  0  0  0  0  0
    3.1760   -7.7912   23.8797 C   0  0  0  0  0  0  0  0  0  0  0  0
    4.0736   -7.0778   24.6647 C   0  0  0  0  0  0  0  0  0  0  0  0
    4.0126   -7.2238   26.0448 C   0  0  0  0  0  0  0  0  0  0  0  0
    3.0780   -8.0614   26.6262 C   0  0  0  0  0  0  0  0  0  0  0  0
    5.0680   -6.1865   24.0470 C   0  0  0  0  0  0  0  0  0  0  0  0
    5.5391   -6.2587   22.8363 N   0  0  0  0  0  0  0  0  0  0  0  0
    6.4352   -5.1974   22.7589 C   0  0  0  0  0  0  0  0  0  0  0  0
    7.2559   -4.7409   21.7311 C   0  0  0  0  0  0  0  0  0  0  0  0
    8.0591   -3.6330   21.9524 C   0  0  0  0  0  0  0  0  0  0  0  0
    8.0642   -2.9670   23.1776 C   0  0  0  0  0  0  0  0  0  0  0  0
    8.9173   -1.8434   23.3142 N   0  0  0  0  0  0  0  0  0  0  0  0
   10.1550   -1.5953   22.8190 C   0  0  0  0  0  0  0  0  0  0  0  0
   10.8096   -2.3546   22.1104 O   0  0  0  0  0  0  0  0  0  0  0  0
   10.7042   -0.2432   23.2226 C   0  0  0  0  0  0  0  0  0  0  0  0
   10.2205    0.8492   22.3215 C   0  0  0  0  0  0  0  0  0  0  0  0
   10.8231    2.2044   22.6540 C   0  0  0  0  0  0  0  0  0  0  0  0
   12.2737    2.1104   22.7030 N   0  0  0  0  0  0  0  0  0  0  0  0
   12.7896    1.1021   23.6209 C   0  0  0  0  0  0  0  0  0  0  0  0
   12.2244   -0.2640   23.2424 C   0  0  0  0  0  0  0  0  0  0  0  0
   13.2316    3.2184   22.0051 S   0  0  0  0  0  0  0  0  0  0  0  0
   14.5787    2.7369   22.0808 O   0  0  0  0  0  0  0  0  0  0  0  0
   12.6673    3.5369   20.7275 O   0  0  0  0  0  0  0  0  0  0  0  0
   13.1065    4.6549   23.0312 C   0  0  0  0  0  0  0  0  0  0  0  0
   11.9926    5.6246   22.9282 C   0  0  0  0  0  0  0  0  0  0  0  0
   13.3660    6.0545   22.5868 C   0  0  0  0  0  0  0  0  0  0  0  0
    7.2409   -3.4265   24.2061 C   0  0  0  0  0  0  0  0  0  0  0  0
    6.4503   -4.5322   23.9598 C   0  0  0  0  0  0  0  0  0  0  0  0
    5.5663   -5.1606   24.8134 O   0  0  0  0  0  0  0  0  0  0  0  0
  1  2  1  0
  2  3  1  0
  3  4  2  0
  4  5  1  0
  5  6  2  0
  6  7  1  0
  7  8  2  0
  6  9  1  0
  9 10  2  0
 10 11  1  0
 11 12  2  0
 12 13  1  0
 13 14  2  0
 14 15  1  0
 15 16  1  0
 16 17  2  0
 16 18  1  0
 18 19  1  0
 19 20  1  0
 20 21  1  0
 21 22  1  0
 22 23  1  0
 21 24  1  0
 24 25  2  0
 24 26  2  0
 24 27  1  0
 27 28  1  0
 28 29  1  0
 14 30  1  0
 30 31  2  0
 31 32  1  0
  8  3  1  0
 32  9  1  0
 31 11  1  0
 23 18  1  0
 29 27  1  0
M  END
