CVD-0000363|dock_bobby27042020.70|mol2|24|dock1
     RDKit          3D

 25 27  0  0  0  0  0  0  0  0999 V2000
    5.5873   -4.4928   27.4059 C   0  0  0  0  0  0  0  0  0  0  0  0
    6.8940   -5.2110   27.2386 C   0  0  0  0  0  0  0  0  0  0  0  0
    6.9940   -6.4124   27.4605 O   0  0  0  0  0  0  0  0  0  0  0  0
    7.9703   -4.4868   26.8457 N   0  0  0  0  0  0  0  0  0  0  0  0
    9.2996   -5.0741   26.6645 C   0  0  0  0  0  0  0  0  0  0  0  0
    9.8308   -4.7658   25.2769 C   0  0  0  0  0  0  0  0  0  0  0  0
    9.8843   -3.3165   25.0647 N   0  0  0  0  0  0  0  0  0  0  0  0
   10.4358   -3.0113   23.7365 C   0  0  0  0  0  0  0  0  0  0  0  0
   10.5669   -1.5291   23.4752 C   0  0  0  0  0  0  0  0  0  0  0  0
   11.5846   -0.7950   24.0724 C   0  0  0  0  0  0  0  0  0  0  0  0
   11.7355    0.5612   23.8435 C   0  0  0  0  0  0  0  0  0  0  0  0
   10.8658    1.2555   22.9974 C   0  0  0  0  0  0  0  0  0  0  0  0
    9.8430    0.5091   22.4191 C   0  0  0  0  0  0  0  0  0  0  0  0
    8.9398    1.0946   21.6119 F   0  0  0  0  0  0  0  0  0  0  0  0
    9.6927   -0.8449   22.6370 C   0  0  0  0  0  0  0  0  0  0  0  0
    8.4158   -1.7181   21.8756 Cl  0  0  0  0  0  0  0  0  0  0  0  0
   11.1090    2.7121   22.7970 C   0  0  0  0  0  0  0  0  0  0  0  0
   12.3483    3.2509   22.4595 C   0  0  0  0  0  0  0  0  0  0  0  0
   12.4411    4.6217   22.2856 C   0  0  0  0  0  0  0  0  0  0  0  0
   13.7362    5.2766   21.9109 C   0  0  0  0  0  0  0  0  0  0  0  0
   11.3755    5.4150   22.4407 N   0  0  0  0  0  0  0  0  0  0  0  0
   10.2405    4.8031   22.7767 C   0  0  0  0  0  0  0  0  0  0  0  0
   10.0340    3.5003   22.9691 N   0  0  0  0  0  0  0  0  0  0  0  0
    8.5385   -2.7650   25.1988 C   0  0  0  0  0  0  0  0  0  0  0  0
    7.9781   -3.0446   26.5814 C   0  0  0  0  0  0  0  0  0  0  0  0
  1  2  1  0
  2  3  2  0
  2  4  1  0
  4  5  1  0
  5  6  1  0
  6  7  1  0
  7  8  1  0
  8  9  1  0
  9 10  2  0
 10 11  1  0
 11 12  2  0
 12 13  1  0
 13 14  1  0
 13 15  2  0
 15 16  1  0
 12 17  1  0
 17 18  2  0
 18 19  1  0
 19 20  1  0
 19 21  2  0
 21 22  1  0
 22 23  2  0
  7 24  1  0
 24 25  1  0
 25  4  1  0
 15  9  1  0
 23 17  1  0
M  END
