CVD-0000556|dock_bobby27042020.98|mol2|13|dock3
     RDKit          3D

 23 25  0  0  0  0  0  0  0  0999 V2000
   10.0304   -4.0480   23.5336 O   0  0  0  0  0  0  0  0  0  0  0  0
    9.3974   -3.0207   23.3145 C   0  0  0  0  0  0  0  0  0  0  0  0
    9.9020   -1.6554   23.7397 C   0  0  0  0  0  0  0  0  0  0  0  0
   10.4461   -0.7187   22.6308 C   0  0  0  0  0  0  0  0  0  0  0  0
   11.4643   -1.5612   21.8667 C   0  0  0  0  0  0  0  0  0  0  0  0
   12.6781   -1.8590   22.7241 C   0  0  0  0  0  0  0  0  0  0  0  0
   13.3224   -0.5803   23.2372 C   0  0  0  0  0  0  0  0  0  0  0  0
   12.3133    0.2714   23.9902 C   0  0  0  0  0  0  0  0  0  0  0  0
   11.0842    0.5662   23.1397 C   0  0  0  0  0  0  0  0  0  0  0  0
    9.4102   -0.3535   21.6568 C   0  0  0  0  0  0  0  0  0  0  0  0
    8.5557   -0.0089   20.9044 C   0  0  0  0  0  0  0  0  0  0  0  0
    7.4900    0.4323   19.9950 C   0  0  0  0  0  0  0  0  0  0  0  0
    7.4910    0.2377   18.5261 C   0  0  0  0  0  0  0  0  0  0  0  0
    6.0824    0.1444   18.0724 C   0  0  0  0  0  0  0  0  0  0  0  0
    5.2089    0.2855   19.2650 C   0  0  0  0  0  0  0  0  0  0  0  0
    6.0793    0.4625   20.4527 N   0  0  0  0  0  0  0  0  0  0  0  0
    8.1991   -2.9663   22.6834 N   0  0  0  0  0  0  0  0  0  0  0  0
    7.3802   -3.9828   22.1311 C   0  0  0  0  0  0  0  0  0  0  0  0
    7.5128   -5.2815   22.6054 C   0  0  0  0  0  0  0  0  0  0  0  0
    6.7223   -6.2877   22.0789 C   0  0  0  0  0  0  0  0  0  0  0  0
    5.8201   -5.9673   21.0916 C   0  0  0  0  0  0  0  0  0  0  0  0
    5.6686   -4.7317   20.6150 N   0  0  0  0  0  0  0  0  0  0  0  0
    6.4364   -3.7661   21.1295 C   0  0  0  0  0  0  0  0  0  0  0  0
  1  2  2  0
  2  3  1  0
  3  4  1  0
  4  5  1  0
  5  6  1  0
  6  7  1  0
  7  8  1  0
  8  9  1  0
  4 10  1  0
 10 11  3  0
 11 12  1  0
 12 13  1  0
 13 14  1  0
 14 15  1  0
 15 16  1  0
  2 17  1  0
 17 18  1  0
 18 19  2  0
 19 20  1  0
 20 21  2  0
 21 22  1  0
 22 23  2  0
  9  4  1  0
 16 12  1  0
 23 18  1  0
M  END
