CVD-0001573|dock_bobby27042020.66|mol2|39|dock2
     RDKit          3D

 30 33  0  0  0  0  0  0  0  0999 V2000
    5.4588   -7.4993   29.7048 C   0  0  0  0  0  0  0  0  0  0  0  0
    6.1536   -6.3848   28.9791 C   0  0  0  0  0  0  0  0  0  0  0  0
    7.0518   -5.7313   29.5004 O   0  0  0  0  0  0  0  0  0  0  0  0
    5.7494   -6.1566   27.7280 N   0  0  0  0  0  0  0  0  0  0  0  0
    6.3377   -5.1220   26.8895 C   0  0  0  0  0  0  0  0  0  0  0  0
    7.7515   -5.4711   26.4691 C   0  0  0  0  0  0  0  0  0  0  0  0
    8.2794   -4.5759   25.3865 C   0  0  0  0  0  0  0  0  0  0  0  0
    8.4666   -4.8878   24.0717 C   0  0  0  0  0  0  0  0  0  0  0  0
    8.9655   -3.8106   23.3908 N   0  0  0  0  0  0  0  0  0  0  0  0
    9.1112   -2.7670   24.2712 C   0  0  0  0  0  0  0  0  0  0  0  0
    9.5828   -1.4625   24.0532 C   0  0  0  0  0  0  0  0  0  0  0  0
    9.6197   -0.6024   25.1487 C   0  0  0  0  0  0  0  0  0  0  0  0
    9.2065   -1.0204   26.4137 C   0  0  0  0  0  0  0  0  0  0  0  0
    8.7423   -2.3201   26.6109 C   0  0  0  0  0  0  0  0  0  0  0  0
    8.6894   -3.2090   25.5389 C   0  0  0  0  0  0  0  0  0  0  0  0
    9.2599   -0.1023   27.5246 C   0  0  0  0  0  0  0  0  0  0  0  0
    9.3303    0.6375   28.3920 N   0  0  0  0  0  0  0  0  0  0  0  0
   10.0276   -1.0206   22.6627 C   0  0  0  0  0  0  0  0  0  0  0  0
   11.3182   -1.6760   22.2998 C   0  0  0  0  0  0  0  0  0  0  0  0
   12.4216   -1.2046   23.1732 N   0  0  0  0  0  0  0  0  0  0  0  0
   12.5676    0.2524   23.3618 C   0  0  0  0  0  0  0  0  0  0  0  0
   11.3740    1.0920   22.8964 C   0  0  0  0  0  0  0  0  0  0  0  0
   11.4919    2.4748   22.7959 C   0  0  0  0  0  0  0  0  0  0  0  0
   10.4280    3.2534   22.3765 C   0  0  0  0  0  0  0  0  0  0  0  0
    9.2310    2.6546   22.0524 C   0  0  0  0  0  0  0  0  0  0  0  0
    9.1064    1.2799   22.1498 C   0  0  0  0  0  0  0  0  0  0  0  0
   10.1664    0.4770   22.5703 C   0  0  0  0  0  0  0  0  0  0  0  0
   13.2995   -2.0892   23.7157 C   0  0  0  0  0  0  0  0  0  0  0  0
   14.4033   -1.5630   24.5860 C   0  0  0  0  0  0  0  0  0  0  0  0
   13.2054   -3.2916   23.4951 O   0  0  0  0  0  0  0  0  0  0  0  0
  1  2  1  0
  2  3  2  0
  2  4  1  0
  4  5  1  0
  5  6  1  0
  6  7  1  0
  7  8  2  0
  8  9  1  0
  9 10  1  0
 10 11  2  0
 11 12  1  0
 12 13  2  0
 13 14  1  0
 14 15  2  0
 13 16  1  0
 16 17  3  0
 11 18  1  0
 18 19  1  0
 19 20  1  0
 20 21  1  0
 21 22  1  0
 22 23  2  0
 23 24  1  0
 24 25  2  0
 25 26  1  0
 26 27  2  0
 20 28  1  0
 28 29  1  0
 28 30  2  0
 15  7  1  0
 27 18  1  0
 15 10  1  0
 27 22  1  0
M  END
