CVD-0003551|dock_bobby27042020.87|mol2|31|dock3
     RDKit          3D

 25 27  0  0  0  0  0  0  0  0999 V2000
   13.7930    5.3892   21.6178 N   0  0  0  0  0  0  0  0  0  0  0  0
   12.8420    5.0994   22.8727 S   0  0  0  0  0  0  0  0  0  0  0  0
   13.6552    5.1833   24.0486 O   0  0  0  0  0  0  0  0  0  0  0  0
   11.7074    5.9652   22.7530 O   0  0  0  0  0  0  0  0  0  0  0  0
   12.2524    3.4375   22.7562 C   0  0  0  0  0  0  0  0  0  0  0  0
   10.9030    3.1671   22.8894 C   0  0  0  0  0  0  0  0  0  0  0  0
   10.4495    1.8602   22.8405 C   0  0  0  0  0  0  0  0  0  0  0  0
   11.3448    0.8041   22.6571 C   0  0  0  0  0  0  0  0  0  0  0  0
   10.8769   -0.5408   22.6531 N   0  0  0  0  0  0  0  0  0  0  0  0
    9.5225   -0.8158   22.2370 C   0  0  0  0  0  0  0  0  0  0  0  0
    8.9989    0.0209   21.0824 C   0  0  0  0  0  0  0  0  0  0  0  0
    9.6902    0.9067   20.5911 O   0  0  0  0  0  0  0  0  0  0  0  0
    7.7435   -0.3157   20.6992 N   0  0  0  0  0  0  0  0  0  0  0  0
    6.9019    0.2109   19.6881 C   0  0  0  0  0  0  0  0  0  0  0  0
    5.5461    0.3589   19.9504 C   0  0  0  0  0  0  0  0  0  0  0  0
    4.7116    0.8719   18.9731 C   0  0  0  0  0  0  0  0  0  0  0  0
    5.2566    1.2227   17.7599 C   0  0  0  0  0  0  0  0  0  0  0  0
    6.5529    1.0928   17.4773 N   0  0  0  0  0  0  0  0  0  0  0  0
    7.3515    0.5964   18.4273 C   0  0  0  0  0  0  0  0  0  0  0  0
   11.4474   -1.4304   23.6801 C   0  0  0  0  0  0  0  0  0  0  0  0
   12.7628   -2.0725   23.2867 C   0  0  0  0  0  0  0  0  0  0  0  0
   13.9137   -1.0842   23.2351 C   0  0  0  0  0  0  0  0  0  0  0  0
   13.7217    0.0121   22.1881 C   0  0  0  0  0  0  0  0  0  0  0  0
   12.7186    1.0847   22.5220 C   0  0  0  0  0  0  0  0  0  0  0  0
   13.1516    2.4035   22.5741 C   0  0  0  0  0  0  0  0  0  0  0  0
  1  2  1  0
  2  3  2  0
  2  4  2  0
  2  5  1  0
  5  6  2  0
  6  7  1  0
  7  8  2  0
  8  9  1  0
  9 10  1  0
 10 11  1  0
 11 12  2  0
 11 13  1  0
 13 14  1  0
 14 15  2  0
 15 16  1  0
 16 17  2  0
 17 18  1  0
 18 19  2  0
  9 20  1  0
 20 21  1  0
 21 22  1  0
 22 23  1  0
 23 24  1  0
 24 25  2  0
 25  5  1  0
 24  8  1  0
 19 14  1  0
M  END
