CVD-0003240|dock_bobby27042020.88|mol2|33|dock2
     RDKit          3D

 27 29  0  0  0  0  0  0  0  0999 V2000
    7.9342   -1.0955   19.6479 C   0  0  0  0  0  0  0  0  0  0  0  0
    7.4623    0.3404   19.8055 C   0  0  0  0  0  0  0  0  0  0  0  0
    6.8665    0.8741   18.5119 C   0  0  0  0  0  0  0  0  0  0  0  0
    6.4900    0.4322   20.9245 N   0  0  0  0  0  0  0  0  0  0  0  0
    5.0796    0.2523   20.5825 C   0  0  0  0  0  0  0  0  0  0  0  0
    6.9781    0.6304   22.1739 C   0  0  0  0  0  0  0  0  0  0  0  0
    6.2036    0.7209   23.1111 O   0  0  0  0  0  0  0  0  0  0  0  0
    8.4347    0.7667   22.5283 C   0  0  0  0  0  0  0  0  0  0  0  0
    9.0698   -0.3468   23.0648 C   0  0  0  0  0  0  0  0  0  0  0  0
   10.4040   -0.3021   23.4237 C   0  0  0  0  0  0  0  0  0  0  0  0
   11.1664    0.8541   23.2645 C   0  0  0  0  0  0  0  0  0  0  0  0
   12.6205    0.9075   23.6591 C   0  0  0  0  0  0  0  0  0  0  0  0
   13.3682    1.7841   22.7101 C   0  0  0  0  0  0  0  0  0  0  0  0
   12.7896    3.1501   22.6715 N   0  0  0  0  0  0  0  0  0  0  0  0
   11.3295    3.2657   22.4859 C   0  0  0  0  0  0  0  0  0  0  0  0
   10.5377    1.9761   22.7271 C   0  0  0  0  0  0  0  0  0  0  0  0
    9.1954    1.9230   22.3686 C   0  0  0  0  0  0  0  0  0  0  0  0
   13.5232    4.2883   22.7156 C   0  0  0  0  0  0  0  0  0  0  0  0
   14.7458    4.2597   22.7832 O   0  0  0  0  0  0  0  0  0  0  0  0
   12.8014    5.6219   22.6742 C   0  0  0  0  0  0  0  0  0  0  0  0
   13.9049    6.9717   22.3775 Cl  0  0  0  0  0  0  0  0  0  0  0  0
   13.2566   -0.4767   23.6787 C   0  0  0  0  0  0  0  0  0  0  0  0
   13.9293   -0.9327   24.8038 C   0  0  0  0  0  0  0  0  0  0  0  0
   14.5051   -2.1922   24.8219 C   0  0  0  0  0  0  0  0  0  0  0  0
   14.4150   -3.0108   23.7166 C   0  0  0  0  0  0  0  0  0  0  0  0
   13.7489   -2.5711   22.5926 C   0  0  0  0  0  0  0  0  0  0  0  0
   13.1727   -1.3119   22.5735 C   0  0  0  0  0  0  0  0  0  0  0  0
  1  2  1  0
  2  3  1  0
  2  4  1  0
  4  5  1  0
  4  6  1  0
  6  7  2  0
  6  8  1  0
  8  9  2  0
  9 10  1  0
 10 11  2  0
 11 12  1  0
 12 13  1  0
 13 14  1  0
 14 15  1  0
 15 16  1  0
 16 17  2  0
 14 18  1  0
 18 19  2  0
 18 20  1  0
 20 21  1  0
 12 22  1  0
 22 23  2  0
 23 24  1  0
 24 25  2  0
 25 26  1  0
 26 27  2  0
 17  8  1  0
 27 22  1  0
 16 11  1  0
M  END
