CVD-0000805|dock_bobby27042020.40|mol2|23|dock2
     RDKit          3D

 22 24  0  0  0  0  0  0  0  0999 V2000
   13.6032   -1.0472   24.2201 C   0  0  0  0  0  0  0  0  0  0  0  0
   13.2068   -0.6559   22.8203 C   0  0  0  0  0  0  0  0  0  0  0  0
   12.0148    0.2798   22.7679 C   0  0  0  0  0  0  0  0  0  0  0  0
   10.7326   -0.2269   22.5792 C   0  0  0  0  0  0  0  0  0  0  0  0
    9.6348    0.6169   22.5271 C   0  0  0  0  0  0  0  0  0  0  0  0
    8.3386    0.2081   22.3432 O   0  0  0  0  0  0  0  0  0  0  0  0
    7.7148    0.2205   21.0348 C   0  0  0  0  0  0  0  0  0  0  0  0
    8.2045   -0.9610   20.1726 C   0  0  0  0  0  0  0  0  0  0  0  0
    7.5107   -1.0174   18.8129 C   0  0  0  0  0  0  0  0  0  0  0  0
    5.9950   -1.0321   18.9639 C   0  0  0  0  0  0  0  0  0  0  0  0
    5.5137    0.1530   19.7887 C   0  0  0  0  0  0  0  0  0  0  0  0
    6.1821    0.1792   21.1594 C   0  0  0  0  0  0  0  0  0  0  0  0
    9.8259    1.9941   22.6636 C   0  0  0  0  0  0  0  0  0  0  0  0
    8.9300    3.0341   22.6496 N   0  0  0  0  0  0  0  0  0  0  0  0
    9.6223    4.2017   22.8254 C   0  0  0  0  0  0  0  0  0  0  0  0
   10.9582    3.9523   22.9545 C   0  0  0  0  0  0  0  0  0  0  0  0
   12.0627    4.9558   23.1642 C   0  0  0  0  0  0  0  0  0  0  0  0
   12.6106    5.5028   21.9179 N   0  0  0  0  0  0  0  0  0  0  0  0
   13.7736    6.3347   22.2045 C   0  0  0  0  0  0  0  0  0  0  0  0
   13.0026    4.4291   21.0110 C   0  0  0  0  0  0  0  0  0  0  0  0
   11.1119    2.5288   22.8534 C   0  0  0  0  0  0  0  0  0  0  0  0
   12.1938    1.6523   22.9023 C   0  0  0  0  0  0  0  0  0  0  0  0
  1  2  1  0
  2  3  1  0
  3  4  2  0
  4  5  1  0
  5  6  1  0
  6  7  1  0
  7  8  1  0
  8  9  1  0
  9 10  1  0
 10 11  1  0
 11 12  1  0
  5 13  2  0
 13 14  1  0
 14 15  1  0
 15 16  2  0
 16 17  1  0
 17 18  1  0
 18 19  1  0
 18 20  1  0
 16 21  1  0
 21 22  2  0
 22  3  1  0
 12  7  1  0
 21 13  1  0
M  END
