CVD-0002102|dock_bobby27042020.78|mol2|36|dock1
     RDKit          3D

 21 23  0  0  0  0  0  0  0  0999 V2000
    8.6272   -1.4751   19.5834 N   0  0  0  0  0  0  0  0  0  0  0  0
    8.2541   -2.3886   20.6858 C   0  0  0  0  0  0  0  0  0  0  0  0
    8.8818   -2.0523   22.0341 C   0  0  0  0  0  0  0  0  0  0  0  0
   10.2338   -1.6547   21.7899 O   0  0  0  0  0  0  0  0  0  0  0  0
   10.9086   -1.3313   23.0148 C   0  0  0  0  0  0  0  0  0  0  0  0
   11.1035   -2.5721   23.8435 C   0  0  0  0  0  0  0  0  0  0  0  0
    9.9045   -3.4838   23.8382 C   0  0  0  0  0  0  0  0  0  0  0  0
    9.8544   -4.6085   24.6778 C   0  0  0  0  0  0  0  0  0  0  0  0
   10.8732   -4.9250   25.5353 O   0  0  0  0  0  0  0  0  0  0  0  0
    8.7265   -5.4262   24.6971 C   0  0  0  0  0  0  0  0  0  0  0  0
    8.6935   -6.4914   25.5390 O   0  0  0  0  0  0  0  0  0  0  0  0
    7.6415   -5.1349   23.8851 C   0  0  0  0  0  0  0  0  0  0  0  0
    7.6924   -4.0274   23.0590 C   0  0  0  0  0  0  0  0  0  0  0  0
    8.8157   -3.1945   23.0256 C   0  0  0  0  0  0  0  0  0  0  0  0
   12.2251   -0.6570   22.6350 C   0  0  0  0  0  0  0  0  0  0  0  0
   12.1054    0.1495   21.4302 N   0  0  0  0  0  0  0  0  0  0  0  0
   11.1927    1.2736   21.6266 C   0  0  0  0  0  0  0  0  0  0  0  0
   11.7239    2.2095   22.7014 C   0  0  0  0  0  0  0  0  0  0  0  0
   11.8813    1.4722   24.0301 C   0  0  0  0  0  0  0  0  0  0  0  0
   12.7373    0.2087   23.8329 C   0  0  0  0  0  0  0  0  0  0  0  0
   14.0908    0.5899   23.5825 O   0  0  0  0  0  0  0  0  0  0  0  0
  1  2  1  0
  2  3  1  0
  3  4  1  0
  4  5  1  0
  5  6  1  0
  6  7  1  0
  7  8  2  0
  8  9  1  0
  8 10  1  0
 10 11  1  0
 10 12  2  0
 12 13  1  0
 13 14  2  0
  5 15  1  0
 15 16  1  0
 16 17  1  0
 17 18  1  0
 18 19  1  0
 19 20  1  0
 20 21  1  0
 14  3  1  0
 20 15  1  0
 14  7  1  0
M  END
