CVD-0002485|dock_bobby27042020.20|mol2|3|dock3
     RDKit          3D

 16 16  0  0  0  0  0  0  0  0999 V2000
    5.9873    1.1571   17.9724 C   0  0  0  0  0  0  0  0  0  0  0  0
    6.7223    0.9906   19.2802 C   0  0  0  0  0  0  0  0  0  0  0  0
    6.4968    1.8590   20.3363 C   0  0  0  0  0  0  0  0  0  0  0  0
    7.1689    1.7044   21.5365 C   0  0  0  0  0  0  0  0  0  0  0  0
    8.0793    0.6744   21.6995 C   0  0  0  0  0  0  0  0  0  0  0  0
    8.3180   -0.2086   20.6524 C   0  0  0  0  0  0  0  0  0  0  0  0
    9.2201   -1.2476   20.7832 N   0  0  0  0  0  0  0  0  0  0  0  0
    9.3231   -2.0712   21.9726 C   0  0  0  0  0  0  0  0  0  0  0  0
   10.5870   -1.7821   22.7591 C   0  0  0  0  0  0  0  0  0  0  0  0
   10.5353   -1.5120   23.9550 O   0  0  0  0  0  0  0  0  0  0  0  0
   11.7285   -1.8488   22.0792 N   0  0  0  0  0  0  0  0  0  0  0  0
   13.0334   -1.7508   22.7175 C   0  0  0  0  0  0  0  0  0  0  0  0
   13.6277   -0.3553   22.6634 C   0  0  0  0  0  0  0  0  0  0  0  0
   12.7972    0.7440   23.2738 C   0  0  0  0  0  0  0  0  0  0  0  0
   13.4323    2.3754   22.9383 Cl  0  0  0  0  0  0  0  0  0  0  0  0
    7.6349   -0.0392   19.4528 C   0  0  0  0  0  0  0  0  0  0  0  0
  1  2  1  0
  2  3  2  0
  3  4  1  0
  4  5  2  0
  5  6  1  0
  6  7  1  0
  7  8  1  0
  8  9  1  0
  9 10  2  0
  9 11  1  0
 11 12  1  0
 12 13  1  0
 13 14  1  0
 14 15  1  0
  6 16  2  0
 16  2  1  0
M  END
