CVD-0001503|dock_bobby27042020.95|mol2|9|dock3
     RDKit          3D

 22 24  0  0  0  0  0  0  0  0999 V2000
   10.1654    0.6250   24.6493 O   0  0  0  0  0  0  0  0  0  0  0  0
    9.7871    0.4571   23.4940 C   0  0  0  0  0  0  0  0  0  0  0  0
   10.2223   -0.3485   22.3462 C   0  0  0  0  0  0  0  0  0  0  0  0
   11.2499   -1.2069   22.1446 N   0  0  0  0  0  0  0  0  0  0  0  0
   12.3078   -1.7058   22.9440 C   0  0  0  0  0  0  0  0  0  0  0  0
   12.0988   -1.9121   24.3013 C   0  0  0  0  0  0  0  0  0  0  0  0
   13.1305   -2.3993   25.0846 C   0  0  0  0  0  0  0  0  0  0  0  0
   14.3420   -2.6648   24.4890 C   0  0  0  0  0  0  0  0  0  0  0  0
   14.5766   -2.4677   23.1913 N   0  0  0  0  0  0  0  0  0  0  0  0
   13.5764   -1.9831   22.4491 C   0  0  0  0  0  0  0  0  0  0  0  0
    9.1350    0.1268   21.5577 C   0  0  0  0  0  0  0  0  0  0  0  0
    8.7612   -0.1890   20.2966 N   0  0  0  0  0  0  0  0  0  0  0  0
    7.6596    0.2132   19.5022 C   0  0  0  0  0  0  0  0  0  0  0  0
    7.6862    0.2528   18.1116 C   0  0  0  0  0  0  0  0  0  0  0  0
    6.6640    0.6725   17.3592 N   0  0  0  0  0  0  0  0  0  0  0  0
    5.5398    1.0349   17.9815 C   0  0  0  0  0  0  0  0  0  0  0  0
    5.3933    1.0047   19.3638 C   0  0  0  0  0  0  0  0  0  0  0  0
    6.4768    0.5867   20.1308 C   0  0  0  0  0  0  0  0  0  0  0  0
    4.1550    1.3957   19.9912 C   0  0  0  0  0  0  0  0  0  0  0  0
    3.1627    1.7148   20.4583 N   0  0  0  0  0  0  0  0  0  0  0  0
    8.6815    0.9983   22.6574 C   0  0  0  0  0  0  0  0  0  0  0  0
    7.7901    1.8163   22.8606 O   0  0  0  0  0  0  0  0  0  0  0  0
  1  2  2  0
  2  3  1  0
  3  4  1  0
  4  5  1  0
  5  6  2  0
  6  7  1  0
  7  8  2  0
  8  9  1  0
  9 10  2  0
  3 11  2  0
 11 12  1  0
 12 13  1  0
 13 14  2  0
 14 15  1  0
 15 16  2  0
 16 17  1  0
 17 18  2  0
 17 19  1  0
 19 20  3  0
 11 21  1  0
 21 22  2  0
 21  2  1  0
 10  5  1  0
 18 13  1  0
M  END
