CVD-0004077|dock_bobby27042020.14|mol2|29|dock1
     RDKit          3D

 23 26  0  0  0  0  0  0  0  0999 V2000
    6.2041   -1.6066   20.4376 C   0  0  0  0  0  0  0  0  0  0  0  0
    7.5360   -1.1558   20.9708 C   0  0  0  0  0  0  0  0  0  0  0  0
    8.4714   -2.1083   21.4475 C   0  0  0  0  0  0  0  0  0  0  0  0
    9.6733   -1.7380   21.9265 C   0  0  0  0  0  0  0  0  0  0  0  0
   10.0266   -0.3993   21.9634 N   0  0  0  0  0  0  0  0  0  0  0  0
   11.1819    0.2619   22.3993 C   0  0  0  0  0  0  0  0  0  0  0  0
   10.9269    1.6044   22.1476 C   0  0  0  0  0  0  0  0  0  0  0  0
    9.6675    1.7747   21.6069 N   0  0  0  0  0  0  0  0  0  0  0  0
    9.1430    0.5635   21.4975 C   0  0  0  0  0  0  0  0  0  0  0  0
    7.8845    0.1614   20.9991 C   0  0  0  0  0  0  0  0  0  0  0  0
   11.7017    2.8477   22.3535 C   0  0  0  0  0  0  0  0  0  0  0  0
   11.1031    4.0893   22.5409 C   0  0  0  0  0  0  0  0  0  0  0  0
   11.8636    5.2367   22.6807 C   0  0  0  0  0  0  0  0  0  0  0  0
   13.2262    5.1198   22.6743 C   0  0  0  0  0  0  0  0  0  0  0  0
   13.9787    6.2448   22.8101 F   0  0  0  0  0  0  0  0  0  0  0  0
   13.8624    3.9169   22.5387 C   0  0  0  0  0  0  0  0  0  0  0  0
   13.0907    2.7796   22.3805 C   0  0  0  0  0  0  0  0  0  0  0  0
   12.3399   -0.4602   22.9951 C   0  0  0  0  0  0  0  0  0  0  0  0
   12.9141   -1.5909   22.4225 C   0  0  0  0  0  0  0  0  0  0  0  0
   14.0072   -2.1975   23.0165 C   0  0  0  0  0  0  0  0  0  0  0  0
   14.4946   -1.6749   24.1903 C   0  0  0  0  0  0  0  0  0  0  0  0
   13.9620   -0.6070   24.7812 N   0  0  0  0  0  0  0  0  0  0  0  0
   12.9241   -0.0200   24.1777 C   0  0  0  0  0  0  0  0  0  0  0  0
  1  2  1  0
  2  3  1  0
  3  4  2  0
  4  5  1  0
  5  6  1  0
  6  7  2  0
  7  8  1  0
  8  9  2  0
  9 10  1  0
  7 11  1  0
 11 12  2  0
 12 13  1  0
 13 14  2  0
 14 15  1  0
 14 16  1  0
 16 17  2  0
  6 18  1  0
 18 19  2  0
 19 20  1  0
 20 21  2  0
 21 22  1  0
 22 23  2  0
 10  2  2  0
 17 11  1  0
 23 18  1  0
  9  5  1  0
M  END
