CVD-0002221|dock_bobby27042020.49|mol2|31|dock1
     RDKit          3D

 12 13  0  0  0  0  0  0  0  0999 V2000
   13.7424   -2.5270   23.4182 C   0  0  0  0  0  0  0  0  0  0  0  0
   13.4675   -1.0632   23.2495 C   0  0  0  0  0  0  0  0  0  0  0  0
   12.2430   -0.5139   23.6092 C   0  0  0  0  0  0  0  0  0  0  0  0
   12.0289    0.8403   23.4343 C   0  0  0  0  0  0  0  0  0  0  0  0
   13.0353    1.6351   22.9022 C   0  0  0  0  0  0  0  0  0  0  0  0
   14.2242    1.0020   22.5705 C   0  0  0  0  0  0  0  0  0  0  0  0
   14.4466   -0.3081   22.7337 N   0  0  0  0  0  0  0  0  0  0  0  0
   12.8404    3.0888   22.7016 C   0  0  0  0  0  0  0  0  0  0  0  0
   11.5803    3.7176   22.5204 C   0  0  0  0  0  0  0  0  0  0  0  0
   11.6468    5.0685   22.3539 C   0  0  0  0  0  0  0  0  0  0  0  0
   13.2647    5.5832   22.4186 S   0  0  0  0  0  0  0  0  0  0  0  0
   13.8577    4.0094   22.6664 C   0  0  0  0  0  0  0  0  0  0  0  0
  1  2  1  0
  2  3  2  0
  3  4  1  0
  4  5  2  0
  5  6  1  0
  6  7  2  0
  5  8  1  0
  8  9  1  0
  9 10  2  0
 10 11  1  0
 11 12  1  0
  7  2  1  0
 12  8  2  0
M  END
