CVD-0004016|dock_bobby27042020.86|mol2|7|dock1
     RDKit          3D

 42 44  0  0  0  0  0  0  0  0999 V2000
    8.0182   -6.7161   28.6636 C   0  0  0  0  0  0  0  0  0  0  0  0
    7.8991   -6.3738   27.2841 O   0  0  0  0  0  0  0  0  0  0  0  0
    7.3131   -5.1902   26.9091 C   0  0  0  0  0  0  0  0  0  0  0  0
    6.8214   -4.2944   27.8472 C   0  0  0  0  0  0  0  0  0  0  0  0
    6.2399   -3.1150   27.4160 C   0  0  0  0  0  0  0  0  0  0  0  0
    6.1476   -2.8279   26.0656 C   0  0  0  0  0  0  0  0  0  0  0  0
    6.6384   -3.7216   25.1224 C   0  0  0  0  0  0  0  0  0  0  0  0
    6.5165   -3.3747   23.7540 N   0  0  0  0  0  0  0  0  0  0  0  0
    7.1524   -3.8480   22.6537 C   0  0  0  0  0  0  0  0  0  0  0  0
    8.0132   -4.7251   22.6204 O   0  0  0  0  0  0  0  0  0  0  0  0
    6.6805   -3.1570   21.3591 C   0  0  0  0  0  0  0  0  0  0  0  0
    6.1031   -3.7933   20.4945 O   0  0  0  0  0  0  0  0  0  0  0  0
    6.9731   -1.6669   21.2048 C   0  0  0  0  0  0  0  0  0  0  0  0
    6.4264   -1.0909   19.8915 C   0  0  0  0  0  0  0  0  0  0  0  0
    6.0442    0.3989   19.8331 C   0  0  0  0  0  0  0  0  0  0  0  0
    4.8619    0.7975   20.7388 C   0  0  0  0  0  0  0  0  0  0  0  0
    4.0365    1.7821   19.9208 C   0  0  0  0  0  0  0  0  0  0  0  0
    4.4787    1.5318   18.5622 N   0  0  0  0  0  0  0  0  0  0  0  0
    5.6085    0.8278   18.4563 C   0  0  0  0  0  0  0  0  0  0  0  0
    6.1730    0.5454   17.4026 O   0  0  0  0  0  0  0  0  0  0  0  0
    8.4043   -1.4511   21.3384 N   0  0  0  0  0  0  0  0  0  0  0  0
    8.9439   -1.0187   22.4817 C   0  0  0  0  0  0  0  0  0  0  0  0
    8.2727   -0.7784   23.4818 O   0  0  0  0  0  0  0  0  0  0  0  0
   10.4575   -0.8191   22.5086 C   0  0  0  0  0  0  0  0  0  0  0  0
   11.0264   -1.1036   23.9009 C   0  0  0  0  0  0  0  0  0  0  0  0
   12.5190   -0.8455   24.0864 C   0  0  0  0  0  0  0  0  0  0  0  0
   12.9153   -1.0699   25.5355 C   0  0  0  0  0  0  0  0  0  0  0  0
   13.3218   -1.7639   23.1815 C   0  0  0  0  0  0  0  0  0  0  0  0
   10.7947    0.5387   22.1138 N   0  0  0  0  0  0  0  0  0  0  0  0
   10.2378    1.5979   22.7409 C   0  0  0  0  0  0  0  0  0  0  0  0
    9.3819    1.4439   23.6066 O   0  0  0  0  0  0  0  0  0  0  0  0
   10.7535    2.7937   22.3007 N   0  0  0  0  0  0  0  0  0  0  0  0
   10.4024    4.1108   22.7579 C   0  0  0  0  0  0  0  0  0  0  0  0
   11.4095    4.9464   23.2154 C   0  0  0  0  0  0  0  0  0  0  0  0
   12.6783    4.4812   23.1544 F   0  0  0  0  0  0  0  0  0  0  0  0
   11.2028    6.2041   23.7272 C   0  0  0  0  0  0  0  0  0  0  0  0
    9.9116    6.6865   23.7946 C   0  0  0  0  0  0  0  0  0  0  0  0
    8.8612    5.9146   23.3189 C   0  0  0  0  0  0  0  0  0  0  0  0
    7.5894    6.3883   23.3744 O   0  0  0  0  0  0  0  0  0  0  0  0
    9.1203    4.6638   22.7843 C   0  0  0  0  0  0  0  0  0  0  0  0
    8.0601    4.0148   22.2723 F   0  0  0  0  0  0  0  0  0  0  0  0
    7.2244   -4.9098   25.5542 C   0  0  0  0  0  0  0  0  0  0  0  0
  1  2  1  0
  2  3  1  0
  3  4  2  0
  4  5  1  0
  5  6  2  0
  6  7  1  0
  7  8  1  0
  8  9  1  0
  9 10  2  0
  9 11  1  0
 11 12  2  0
 11 13  1  0
 13 14  1  0
 15 14  1  0
 15 16  1  0
 16 17  1  0
 17 18  1  0
 18 19  1  0
 19 20  2  0
 13 21  1  0
 21 22  1  0
 22 23  2  0
 22 24  1  0
 24 25  1  0
 25 26  1  0
 26 27  1  0
 26 28  1  0
 24 29  1  0
 29 30  1  0
 30 31  2  0
 30 32  1  0
 32 33  1  0
 33 34  2  0
 34 35  1  0
 34 36  1  0
 36 37  2  0
 37 38  1  0
 38 39  1  0
 38 40  2  0
 40 41  1  0
  7 42  2  0
 42  3  1  0
 19 15  1  0
 40 33  1  0
M  END
