CVD-0001495|dock_bobby27042020.9|mol2|31|dock1
     RDKit          3D

 38 41  0  0  0  0  0  0  0  0999 V2000
    3.1336   -5.7141   23.1462 O   0  0  0  0  0  0  0  0  0  0  0  0
    3.9119   -6.7681   23.0978 C   0  0  0  0  0  0  0  0  0  0  0  0
    3.6515   -7.8123   23.6539 O   0  0  0  0  0  0  0  0  0  0  0  0
    5.1546   -6.5473   22.2851 C   0  0  0  0  0  0  0  0  0  0  0  0
    6.1827   -5.6332   22.9364 C   0  0  0  0  0  0  0  0  0  0  0  0
    7.2555   -5.1436   21.9723 C   0  0  0  0  0  0  0  0  0  0  0  0
    6.8872   -3.8698   21.2507 C   0  0  0  0  0  0  0  0  0  0  0  0
    6.2418   -3.8778   20.0296 C   0  0  0  0  0  0  0  0  0  0  0  0
    5.8962   -2.7753   19.3604 N   0  0  0  0  0  0  0  0  0  0  0  0
    6.1917   -1.5920   19.9062 C   0  0  0  0  0  0  0  0  0  0  0  0
    6.8392   -1.4557   21.1325 C   0  0  0  0  0  0  0  0  0  0  0  0
    7.1657   -0.2148   21.7370 N   0  0  0  0  0  0  0  0  0  0  0  0
    6.9950    1.0766   21.2908 C   0  0  0  0  0  0  0  0  0  0  0  0
    6.4911    1.3671   20.2109 O   0  0  0  0  0  0  0  0  0  0  0  0
    7.4684    1.9888   22.2091 N   0  0  0  0  0  0  0  0  0  0  0  0
    7.4915    3.4106   22.1478 C   0  0  0  0  0  0  0  0  0  0  0  0
    6.4170    4.1366   21.6240 C   0  0  0  0  0  0  0  0  0  0  0  0
    6.4695    5.5215   21.5658 C   0  0  0  0  0  0  0  0  0  0  0  0
    5.4197    6.2138   21.0363 O   0  0  0  0  0  0  0  0  0  0  0  0
    7.5716    6.2054   22.0398 C   0  0  0  0  0  0  0  0  0  0  0  0
    8.6279    5.4944   22.5687 C   0  0  0  0  0  0  0  0  0  0  0  0
    8.6229    4.1022   22.6314 C   0  0  0  0  0  0  0  0  0  0  0  0
    9.8638    3.4306   23.2208 C   0  0  0  0  0  0  0  0  0  0  0  0
    9.7479    3.2855   24.7017 C   0  0  0  0  0  0  0  0  0  0  0  0
    9.8460    4.6020   25.3795 N   0  0  0  0  0  0  0  0  0  0  0  0
   10.9651    5.4858   24.9967 C   0  0  0  0  0  0  0  0  0  0  0  0
   11.7014    5.0824   23.7145 C   0  0  0  0  0  0  0  0  0  0  0  0
   12.9052    5.6916   23.3784 C   0  0  0  0  0  0  0  0  0  0  0  0
   13.5831    5.3504   22.2243 C   0  0  0  0  0  0  0  0  0  0  0  0
   13.0542    4.3838   21.3864 C   0  0  0  0  0  0  0  0  0  0  0  0
   13.7248    4.0189   20.2557 O   0  0  0  0  0  0  0  0  0  0  0  0
   11.8540    3.7673   21.7086 C   0  0  0  0  0  0  0  0  0  0  0  0
   11.1654    4.1080   22.8730 C   0  0  0  0  0  0  0  0  0  0  0  0
    8.9576    5.0398   26.3055 C   0  0  0  0  0  0  0  0  0  0  0  0
    8.0010    4.3587   26.6536 O   0  0  0  0  0  0  0  0  0  0  0  0
    9.1696    6.4073   26.9270 C   0  0  0  0  0  0  0  0  0  0  0  0
    8.1679    6.6169   28.3691 Cl  0  0  0  0  0  0  0  0  0  0  0  0
    7.1819   -2.6281   21.7965 C   0  0  0  0  0  0  0  0  0  0  0  0
  1  2  1  0
  2  3  2  0
  2  4  1  0
  4  5  1  0
  5  6  1  0
  6  7  1  0
  7  8  2  0
  8  9  1  0
  9 10  2  0
 10 11  1  0
 11 12  1  0
 12 13  1  0
 13 14  2  0
 13 15  1  0
 15 16  1  0
 16 17  2  0
 17 18  1  0
 18 19  1  0
 18 20  2  0
 20 21  1  0
 21 22  2  0
 22 23  1  0
 23 24  1  0
 24 25  1  0
 25 26  1  0
 26 27  1  0
 27 28  2  0
 28 29  1  0
 29 30  2  0
 30 31  1  0
 30 32  1  0
 32 33  2  0
 25 34  1  0
 34 35  2  0
 34 36  1  0
 36 37  1  0
 11 38  2  0
 38  7  1  0
 22 16  1  0
 33 23  1  0
 33 27  1  0
M  END
