CVD-0003779|dock_bobby27042020.29|mol2|41|dock1
     RDKit          3D

 29 32  0  0  0  0  0  0  0  0999 V2000
   13.6385    5.5627   21.2325 N   0  0  0  0  0  0  0  0  0  0  0  0
   13.4564    5.1858   22.7778 S   0  0  0  0  0  0  0  0  0  0  0  0
   14.7581    4.8943   23.2989 O   0  0  0  0  0  0  0  0  0  0  0  0
   12.6880    6.2329   23.3814 O   0  0  0  0  0  0  0  0  0  0  0  0
   12.5015    3.7025   22.8835 C   0  0  0  0  0  0  0  0  0  0  0  0
   13.1311    2.4719   22.8267 C   0  0  0  0  0  0  0  0  0  0  0  0
   12.3796    1.3138   22.9172 C   0  0  0  0  0  0  0  0  0  0  0  0
   10.9963    1.3627   23.0618 C   0  0  0  0  0  0  0  0  0  0  0  0
   10.3853    2.6119   23.1160 C   0  0  0  0  0  0  0  0  0  0  0  0
   11.1279    3.7761   23.0310 C   0  0  0  0  0  0  0  0  0  0  0  0
   10.2469    0.1973   23.1498 N   0  0  0  0  0  0  0  0  0  0  0  0
   10.1223   -0.7539   22.0412 C   0  0  0  0  0  0  0  0  0  0  0  0
   10.2994   -2.1755   22.4943 C   0  0  0  0  0  0  0  0  0  0  0  0
    9.3080   -2.5249   23.6097 C   0  0  0  0  0  0  0  0  0  0  0  0
    9.4732   -3.9644   24.0778 C   0  0  0  0  0  0  0  0  0  0  0  0
    8.8840   -4.2399   25.3925 N   0  0  0  0  0  0  0  0  0  0  0  0
    9.4736   -5.4385   25.9804 C   0  0  0  0  0  0  0  0  0  0  0  0
    8.9378   -5.6734   27.3821 C   0  0  0  0  0  0  0  0  0  0  0  0
    7.4211   -5.8381   27.3256 C   0  0  0  0  0  0  0  0  0  0  0  0
    6.7981   -4.6258   26.6493 C   0  0  0  0  0  0  0  0  0  0  0  0
    7.4341   -4.4333   25.2814 C   0  0  0  0  0  0  0  0  0  0  0  0
    6.8207   -6.1304   28.6721 C   0  0  0  0  0  0  0  0  0  0  0  0
    5.9595   -5.3221   29.4009 C   0  0  0  0  0  0  0  0  0  0  0  0
    5.5776   -5.8779   30.6191 C   0  0  0  0  0  0  0  0  0  0  0  0
    6.1385   -7.0888   30.8144 C   0  0  0  0  0  0  0  0  0  0  0  0
    5.9295   -8.1063   32.1792 Cl  0  0  0  0  0  0  0  0  0  0  0  0
    7.1495   -7.5956   29.5256 S   0  0  0  0  0  0  0  0  0  0  0  0
    9.4694   -1.5287   24.7299 C   0  0  0  0  0  0  0  0  0  0  0  0
    9.3232   -0.0937   24.2706 C   0  0  0  0  0  0  0  0  0  0  0  0
  1  2  1  0
  2  3  2  0
  2  4  2  0
  2  5  1  0
  5  6  2  0
  6  7  1  0
  7  8  2  0
  8  9  1  0
  9 10  2  0
  8 11  1  0
 11 12  1  0
 12 13  1  0
 13 14  1  0
 14 15  1  0
 15 16  1  0
 16 17  1  0
 17 18  1  0
 18 19  1  0
 19 20  1  0
 20 21  1  0
 19 22  1  0
 22 23  2  0
 23 24  1  0
 24 25  2  0
 25 26  1  0
 25 27  1  0
 14 28  1  0
 28 29  1  0
 10  5  1  0
 29 11  1  0
 21 16  1  0
 27 22  1  0
M  END
