CVD-0003484|dock_bobby27042020.87|mol2|42|dock2
     RDKit          3D

 21 22  0  0  0  0  0  0  0  0999 V2000
   13.4672    6.5169   22.4143 Cl  0  0  0  0  0  0  0  0  0  0  0  0
   12.7437    4.9464   22.0441 C   0  0  0  0  0  0  0  0  0  0  0  0
   13.6352    3.7944   22.4645 C   0  0  0  0  0  0  0  0  0  0  0  0
   14.7176    3.9849   23.0043 O   0  0  0  0  0  0  0  0  0  0  0  0
   13.1696    2.5535   22.2167 N   0  0  0  0  0  0  0  0  0  0  0  0
   13.9079    1.3414   22.5780 C   0  0  0  0  0  0  0  0  0  0  0  0
   13.0411    0.4241   23.4204 C   0  0  0  0  0  0  0  0  0  0  0  0
   11.8172    0.0739   22.6936 N   0  0  0  0  0  0  0  0  0  0  0  0
   10.9928   -0.8462   23.4888 C   0  0  0  0  0  0  0  0  0  0  0  0
   10.6654   -2.1325   22.7563 C   0  0  0  0  0  0  0  0  0  0  0  0
    9.8654   -1.8795   21.5665 N   0  0  0  0  0  0  0  0  0  0  0  0
    8.5320   -1.8153   21.6224 C   0  0  0  0  0  0  0  0  0  0  0  0
    7.9357   -1.9809   22.6823 O   0  0  0  0  0  0  0  0  0  0  0  0
    7.7443   -1.5366   20.3742 C   0  0  0  0  0  0  0  0  0  0  0  0
    6.6168   -2.3073   20.1100 C   0  0  0  0  0  0  0  0  0  0  0  0
    5.8573   -2.0892   18.9731 C   0  0  0  0  0  0  0  0  0  0  0  0
    6.2112   -1.0991   18.0830 C   0  0  0  0  0  0  0  0  0  0  0  0
    7.3253   -0.3266   18.3291 C   0  0  0  0  0  0  0  0  0  0  0  0
    8.0899   -0.5395   19.4644 C   0  0  0  0  0  0  0  0  0  0  0  0
   11.0753    1.2955   22.3929 C   0  0  0  0  0  0  0  0  0  0  0  0
   11.9086    2.2346   21.5398 C   0  0  0  0  0  0  0  0  0  0  0  0
  1  2  1  0
  2  3  1  0
  3  4  2  0
  3  5  1  0
  5  6  1  0
  6  7  1  0
  7  8  1  0
  8  9  1  0
  9 10  1  0
 10 11  1  0
 11 12  1  0
 12 13  2  0
 12 14  1  0
 14 15  2  0
 15 16  1  0
 16 17  2  0
 17 18  1  0
 18 19  2  0
  8 20  1  0
 20 21  1  0
 21  5  1  0
 19 14  1  0
M  END
