CVD-0001717|dock_bobby27042020.66|mol2|18|dock3
     RDKit          3D

 17 19  0  0  0  0  0  0  0  0999 V2000
    9.4098    6.7700   22.6580 N   0  0  0  0  0  0  0  0  0  0  0  0
   10.3800    6.1686   22.6130 C   0  0  0  0  0  0  0  0  0  0  0  0
   11.5763    5.3445   22.5285 C   0  0  0  0  0  0  0  0  0  0  0  0
   12.7166    5.9879   22.2835 N   0  0  0  0  0  0  0  0  0  0  0  0
   13.7567    5.1565   22.2233 C   0  0  0  0  0  0  0  0  0  0  0  0
   13.7436    3.8314   22.3778 N   0  0  0  0  0  0  0  0  0  0  0  0
   12.5301    3.3273   22.6177 C   0  0  0  0  0  0  0  0  0  0  0  0
   11.4006    4.0388   22.7051 N   0  0  0  0  0  0  0  0  0  0  0  0
   12.4274    1.8717   22.8006 C   0  0  0  0  0  0  0  0  0  0  0  0
   11.3149    1.1954   22.7598 N   0  0  0  0  0  0  0  0  0  0  0  0
   11.5370   -0.1634   22.9681 C   0  0  0  0  0  0  0  0  0  0  0  0
   10.5830   -1.1826   22.9919 C   0  0  0  0  0  0  0  0  0  0  0  0
   10.9794   -2.4925   23.2144 C   0  0  0  0  0  0  0  0  0  0  0  0
   12.3069   -2.8092   23.4137 C   0  0  0  0  0  0  0  0  0  0  0  0
   13.2712   -1.8168   23.3947 C   0  0  0  0  0  0  0  0  0  0  0  0
   12.8801   -0.5001   23.1720 C   0  0  0  0  0  0  0  0  0  0  0  0
   13.8737    0.9253   23.0983 S   0  0  0  0  0  0  0  0  0  0  0  0
  1  2  3  0
  2  3  1  0
  3  4  2  0
  4  5  1  0
  5  6  2  0
  6  7  1  0
  7  8  2  0
  7  9  1  0
  9 10  2  0
 10 11  1  0
 11 12  2  0
 12 13  1  0
 13 14  2  0
 14 15  1  0
 15 16  2  0
 16 17  1  0
  8  3  1  0
 17  9  1  0
 16 11  1  0
M  END
