CVD-0001939|dock_bobby27042020.50|mol2|43|dock3
     RDKit          3D

 23 25  0  0  0  0  0  0  0  0999 V2000
   13.9913    5.5123   21.6816 C   0  0  0  0  0  0  0  0  0  0  0  0
   12.6377    5.1078   21.2926 N   0  0  0  0  0  0  0  0  0  0  0  0
   11.7458    4.8100   22.4184 C   0  0  0  0  0  0  0  0  0  0  0  0
   11.5412    3.3277   22.5899 C   0  0  0  0  0  0  0  0  0  0  0  0
   12.5394    2.3815   22.8764 C   0  0  0  0  0  0  0  0  0  0  0  0
   11.9791    1.1171   22.9701 C   0  0  0  0  0  0  0  0  0  0  0  0
   12.6985   -0.1537   23.2628 C   0  0  0  0  0  0  0  0  0  0  0  0
   13.3950   -0.3401   24.4623 C   0  0  0  0  0  0  0  0  0  0  0  0
   14.0720   -1.5191   24.7268 C   0  0  0  0  0  0  0  0  0  0  0  0
   14.0589   -2.5528   23.8192 C   0  0  0  0  0  0  0  0  0  0  0  0
   13.3684   -2.4122   22.6307 C   0  0  0  0  0  0  0  0  0  0  0  0
   12.7162   -1.2284   22.3790 C   0  0  0  0  0  0  0  0  0  0  0  0
   12.0741   -1.1458   21.1912 F   0  0  0  0  0  0  0  0  0  0  0  0
   10.6062    1.2679   22.7397 N   0  0  0  0  0  0  0  0  0  0  0  0
   10.3628    2.6061   22.5210 C   0  0  0  0  0  0  0  0  0  0  0  0
    9.5303    0.2707   22.7563 C   0  0  0  0  0  0  0  0  0  0  0  0
   10.0460   -1.0334   22.8597 O   0  0  0  0  0  0  0  0  0  0  0  0
    8.6976    0.3642   21.5019 C   0  0  0  0  0  0  0  0  0  0  0  0
    7.6624    1.2834   21.4064 C   0  0  0  0  0  0  0  0  0  0  0  0
    6.8964    1.3663   20.2556 C   0  0  0  0  0  0  0  0  0  0  0  0
    7.1558    0.5318   19.1894 C   0  0  0  0  0  0  0  0  0  0  0  0
    8.1806   -0.3866   19.2723 C   0  0  0  0  0  0  0  0  0  0  0  0
    8.9478   -0.4709   20.4223 C   0  0  0  0  0  0  0  0  0  0  0  0
  1  2  1  0
  2  3  1  0
  3  4  1  0
  4  5  1  0
  5  6  2  0
  6  7  1  0
  7  8  2  0
  8  9  1  0
  9 10  2  0
 10 11  1  0
 11 12  2  0
 12 13  1  0
  6 14  1  0
 14 15  1  0
 14 16  1  0
 16 17  1  0
 16 18  1  0
 18 19  2  0
 19 20  1  0
 20 21  2  0
 21 22  1  0
 22 23  2  0
 15  4  2  0
 23 18  1  0
 12  7  1  0
M  END
