CVD-0001010|dock_bobby27042020.11|mol2|9|dock2
     RDKit          3D

 20 22  0  0  0  0  0  0  0  0999 V2000
    6.1244   -3.0490   20.3889 O   0  0  0  0  0  0  0  0  0  0  0  0
    6.5519   -3.2871   21.5127 C   0  0  0  0  0  0  0  0  0  0  0  0
    7.4162   -2.4475   22.1196 N   0  0  0  0  0  0  0  0  0  0  0  0
    8.2129   -2.7556   23.3115 C   0  0  0  0  0  0  0  0  0  0  0  0
    9.6815   -2.4769   23.0625 C   0  0  0  0  0  0  0  0  0  0  0  0
    9.9241   -1.0607   22.5452 C   0  0  0  0  0  0  0  0  0  0  0  0
   11.3931   -0.8023   22.1885 C   0  0  0  0  0  0  0  0  0  0  0  0
   12.3711   -1.1348   23.2890 C   0  0  0  0  0  0  0  0  0  0  0  0
   13.1513   -2.2788   23.2220 C   0  0  0  0  0  0  0  0  0  0  0  0
   14.0466   -2.5857   24.2331 C   0  0  0  0  0  0  0  0  0  0  0  0
   14.1713   -1.7523   25.3238 C   0  0  0  0  0  0  0  0  0  0  0  0
   13.4005   -0.6125   25.4035 C   0  0  0  0  0  0  0  0  0  0  0  0
   12.5054   -0.3060   24.3921 C   0  0  0  0  0  0  0  0  0  0  0  0
    9.0000   -0.7743   21.3684 C   0  0  0  0  0  0  0  0  0  0  0  0
    7.5493   -1.0610   21.6872 C   0  0  0  0  0  0  0  0  0  0  0  0
    6.0377   -4.5618   22.1309 C   0  0  0  0  0  0  0  0  0  0  0  0
    5.5836   -4.8687   23.4525 C   0  0  0  0  0  0  0  0  0  0  0  0
    5.2236   -6.1883   23.4732 C   0  0  0  0  0  0  0  0  0  0  0  0
    5.4291   -6.7087   22.2397 N   0  0  0  0  0  0  0  0  0  0  0  0
    5.9191   -5.7395   21.4178 C   0  0  0  0  0  0  0  0  0  0  0  0
  1  2  2  0
  2  3  1  0
  3  4  1  0
  4  5  1  0
  5  6  1  0
  6  7  1  0
  7  8  1  0
  8  9  2  0
  9 10  1  0
 10 11  2  0
 11 12  1  0
 12 13  2  0
  6 14  1  0
 14 15  1  0
  2 16  1  0
 16 17  1  0
 17 18  2  0
 18 19  1  0
 19 20  1  0
 15  3  1  0
 20 16  2  0
 13  8  1  0
M  END
