CVD-0003324|dock_bobby27042020.74|mol2|16|dock1
     RDKit          3D

 31 34  0  0  0  0  0  0  0  0999 V2000
    7.1188   -1.7352   28.0474 Cl  0  0  0  0  0  0  0  0  0  0  0  0
    8.2432   -3.0260   27.6039 C   0  0  0  0  0  0  0  0  0  0  0  0
    7.7925   -3.7327   26.3406 C   0  0  0  0  0  0  0  0  0  0  0  0
    7.4479   -4.9076   26.3516 O   0  0  0  0  0  0  0  0  0  0  0  0
    7.7872   -2.9983   25.2097 N   0  0  0  0  0  0  0  0  0  0  0  0
    7.3810   -3.5417   23.9118 C   0  0  0  0  0  0  0  0  0  0  0  0
    8.4671   -3.3113   22.8774 C   0  0  0  0  0  0  0  0  0  0  0  0
    8.7589   -1.8797   22.7582 N   0  0  0  0  0  0  0  0  0  0  0  0
    9.7825   -1.6475   21.7285 C   0  0  0  0  0  0  0  0  0  0  0  0
   11.0475   -0.9788   22.2293 C   0  0  0  0  0  0  0  0  0  0  0  0
   12.0716   -1.8285   22.5865 C   0  0  0  0  0  0  0  0  0  0  0  0
   13.2722   -1.3480   23.0576 C   0  0  0  0  0  0  0  0  0  0  0  0
   14.5244   -2.4779   23.4911 Cl  0  0  0  0  0  0  0  0  0  0  0  0
   13.4992   -0.0164   23.1906 C   0  0  0  0  0  0  0  0  0  0  0  0
   12.4880    0.9068   22.8414 C   0  0  0  0  0  0  0  0  0  0  0  0
   12.7268    2.2940   22.9803 C   0  0  0  0  0  0  0  0  0  0  0  0
   11.7724    3.2019   22.6459 C   0  0  0  0  0  0  0  0  0  0  0  0
   10.5453    2.7878   22.1640 C   0  0  0  0  0  0  0  0  0  0  0  0
   10.2563    1.4513   22.0216 C   0  0  0  0  0  0  0  0  0  0  0  0
    9.0431    1.0375   21.5575 O   0  0  0  0  0  0  0  0  0  0  0  0
    7.8588    1.8170   21.7940 C   0  0  0  0  0  0  0  0  0  0  0  0
    6.6448    1.0020   21.4188 C   0  0  0  0  0  0  0  0  0  0  0  0
    6.5187    0.6825   19.9897 N   0  0  0  0  0  0  0  0  0  0  0  0
    6.1425   -0.7199   19.7911 C   0  0  0  0  0  0  0  0  0  0  0  0
    6.0261   -1.0092   18.3307 C   0  0  0  0  0  0  0  0  0  0  0  0
    5.0497   -0.1820   17.7083 O   0  0  0  0  0  0  0  0  0  0  0  0
    5.3922    1.1811   17.8953 C   0  0  0  0  0  0  0  0  0  0  0  0
    5.5166    1.5318   19.3476 C   0  0  0  0  0  0  0  0  0  0  0  0
   11.2277    0.4515   22.3499 C   0  0  0  0  0  0  0  0  0  0  0  0
    9.2117   -1.3763   24.0523 C   0  0  0  0  0  0  0  0  0  0  0  0
    8.1440   -1.5795   25.1120 C   0  0  0  0  0  0  0  0  0  0  0  0
  1  2  1  0
  2  3  1  0
  3  4  2  0
  3  5  1  0
  5  6  1  0
  6  7  1  0
  7  8  1  0
  8  9  1  0
  9 10  1  0
 10 11  2  0
 11 12  1  0
 12 13  1  0
 12 14  2  0
 14 15  1  0
 15 16  2  0
 16 17  1  0
 17 18  2  0
 18 19  1  0
 19 20  1  0
 20 21  1  0
 21 22  1  0
 22 23  1  0
 23 24  1  0
 24 25  1  0
 25 26  1  0
 26 27  1  0
 27 28  1  0
 19 29  2  0
  8 30  1  0
 30 31  1  0
 31  5  1  0
 29 10  1  0
 29 15  1  0
 28 23  1  0
M  END
