CVD-0003174|dock_bobby27042020.31|mol2|39|dock2
     RDKit          3D

 34 38  0  0  0  0  0  0  0  0999 V2000
    7.2216   -0.1765   19.8036 C   0  0  0  0  0  0  0  0  0  0  0  0
    8.4605   -0.7572   20.4207 C   0  0  0  0  0  0  0  0  0  0  0  0
    9.3920   -1.1423   19.7228 O   0  0  0  0  0  0  0  0  0  0  0  0
    8.5324   -0.8600   21.7688 N   0  0  0  0  0  0  0  0  0  0  0  0
    7.3147   -0.3857   22.5483 C   0  0  0  0  0  0  0  0  0  0  0  0
    7.2387   -1.0831   23.9113 C   0  0  0  0  0  0  0  0  0  0  0  0
    8.5503   -1.1448   24.6587 C   0  0  0  0  0  0  0  0  0  0  0  0
    9.4725   -2.0020   23.8172 C   0  0  0  0  0  0  0  0  0  0  0  0
    9.7932   -1.4241   22.4312 C   0  0  0  0  0  0  0  0  0  0  0  0
   10.8750   -0.3643   22.4940 C   0  0  0  0  0  0  0  0  0  0  0  0
   12.1260   -0.6260   23.0343 C   0  0  0  0  0  0  0  0  0  0  0  0
   13.0924    0.3624   23.0782 C   0  0  0  0  0  0  0  0  0  0  0  0
   12.7744    1.6191   22.5673 C   0  0  0  0  0  0  0  0  0  0  0  0
   13.6577    2.6997   22.5517 N   0  0  0  0  0  0  0  0  0  0  0  0
   13.3083    4.1689   21.9625 S   0  0  0  0  0  0  0  0  0  0  0  0
   14.5440    4.8700   21.7981 O   0  0  0  0  0  0  0  0  0  0  0  0
   12.4309    3.9873   20.8480 O   0  0  0  0  0  0  0  0  0  0  0  0
   12.4046    4.9993   23.2015 C   0  0  0  0  0  0  0  0  0  0  0  0
   11.0532    5.2445   23.2116 C   0  0  0  0  0  0  0  0  0  0  0  0
   10.6442    5.9288   24.3533 C   0  0  0  0  0  0  0  0  0  0  0  0
   11.6773    6.1857   25.1809 C   0  0  0  0  0  0  0  0  0  0  0  0
   11.6044    7.0042   26.6863 Cl  0  0  0  0  0  0  0  0  0  0  0  0
   13.1837    5.6057   24.6033 S   0  0  0  0  0  0  0  0  0  0  0  0
   11.5774    1.8959   22.0420 N   0  0  0  0  0  0  0  0  0  0  0  0
   10.6644    0.9183   22.0144 C   0  0  0  0  0  0  0  0  0  0  0  0
    6.6967   -2.4772   23.7921 C   0  0  0  0  0  0  0  0  0  0  0  0
    6.6760   -3.1317   22.6739 N   0  0  0  0  0  0  0  0  0  0  0  0
    6.1179   -4.3962   22.8454 C   0  0  0  0  0  0  0  0  0  0  0  0
    5.9331   -5.3780   21.8701 C   0  0  0  0  0  0  0  0  0  0  0  0
    5.3575   -6.5915   22.2141 C   0  0  0  0  0  0  0  0  0  0  0  0
    4.9616   -6.8485   23.5101 C   0  0  0  0  0  0  0  0  0  0  0  0
    5.1340   -5.8914   24.4947 C   0  0  0  0  0  0  0  0  0  0  0  0
    5.7111   -4.6712   24.1560 C   0  0  0  0  0  0  0  0  0  0  0  0
    6.0403   -3.3080   25.1841 S   0  0  0  0  0  0  0  0  0  0  0  0
  1  2  1  0
  2  3  2  0
  2  4  1  0
  4  5  1  0
  5  6  1  0
  6  7  1  0
  7  8  1  0
  8  9  1  0
  9 10  1  0
 10 11  2  0
 11 12  1  0
 12 13  2  0
 13 14  1  0
 14 15  1  0
 15 16  2  0
 15 17  2  0
 15 18  1  0
 18 19  2  0
 19 20  1  0
 20 21  2  0
 21 22  1  0
 21 23  1  0
 13 24  1  0
 24 25  2  0
  6 26  1  0
 26 27  2  0
 27 28  1  0
 28 29  2  0
 29 30  1  0
 30 31  2  0
 31 32  1  0
 32 33  2  0
 33 34  1  0
  9  4  1  0
 25 10  1  0
 34 26  1  0
 23 18  1  0
 33 28  1  0
M  END
