CVD-0000503|dock_bobby27042020.55|mol2|41|dock2
     RDKit          3D

 37 39  0  0  0  0  0  0  0  0999 V2000
   12.6167    4.5106   21.5024 C   0  0  0  0  0  0  0  0  0  0  0  0
   11.9432    3.2645   22.0593 C   0  0  0  0  0  0  0  0  0  0  0  0
   12.8428    2.0574   22.1262 C   0  0  0  0  0  0  0  0  0  0  0  0
   14.1967    2.0827   22.4642 C   0  0  0  0  0  0  0  0  0  0  0  0
   14.7366    0.8801   22.4336 N   0  0  0  0  0  0  0  0  0  0  0  0
   13.7148    0.0572   22.0782 N   0  0  0  0  0  0  0  0  0  0  0  0
   14.0107   -1.3637   21.9337 C   0  0  0  0  0  0  0  0  0  0  0  0
   12.5622    0.7295   21.8731 C   0  0  0  0  0  0  0  0  0  0  0  0
   11.4235    0.0006   21.4814 N   0  0  0  0  0  0  0  0  0  0  0  0
   10.1131   -0.0067   21.9708 C   0  0  0  0  0  0  0  0  0  0  0  0
    9.7250    0.6868   22.9024 O   0  0  0  0  0  0  0  0  0  0  0  0
    9.2751   -0.8527   21.3325 N   0  0  0  0  0  0  0  0  0  0  0  0
    7.9027   -1.0178   21.7828 C   0  0  0  0  0  0  0  0  0  0  0  0
    7.0377   -1.5924   20.6507 C   0  0  0  0  0  0  0  0  0  0  0  0
    6.6754   -0.5712   19.5999 C   0  0  0  0  0  0  0  0  0  0  0  0
    5.3749   -0.1071   19.4791 C   0  0  0  0  0  0  0  0  0  0  0  0
    5.0352    0.8264   18.5161 C   0  0  0  0  0  0  0  0  0  0  0  0
    6.0042    1.3108   17.6525 C   0  0  0  0  0  0  0  0  0  0  0  0
    5.6762    2.2317   16.7008 O   0  0  0  0  0  0  0  0  0  0  0  0
    7.3083    0.8551   17.7605 C   0  0  0  0  0  0  0  0  0  0  0  0
    7.6340   -0.0786   18.7281 C   0  0  0  0  0  0  0  0  0  0  0  0
    7.8381   -1.9391   22.9975 C   0  0  0  0  0  0  0  0  0  0  0  0
    7.7714   -3.1568   22.8516 O   0  0  0  0  0  0  0  0  0  0  0  0
    7.8581   -1.3508   24.1969 N   0  0  0  0  0  0  0  0  0  0  0  0
    7.8015   -2.0952   25.4524 C   0  0  0  0  0  0  0  0  0  0  0  0
    9.1866   -2.6667   25.7709 C   0  0  0  0  0  0  0  0  0  0  0  0
    9.6529   -3.6977   24.8378 N   0  0  0  0  0  0  0  0  0  0  0  0
    9.6135   -5.2356   25.5875 S   0  0  0  0  0  0  0  0  0  0  0  0
    9.8398   -6.3151   24.5269 N   0  0  0  0  0  0  0  0  0  0  0  0
    8.2635   -5.4358   26.1558 O   0  0  0  0  0  0  0  0  0  0  0  0
   10.7321   -5.3071   26.5517 O   0  0  0  0  0  0  0  0  0  0  0  0
    7.3077   -1.2207   26.5881 C   0  0  0  0  0  0  0  0  0  0  0  0
    8.0303   -0.1065   26.9914 C   0  0  0  0  0  0  0  0  0  0  0  0
    7.5801    0.6902   28.0310 C   0  0  0  0  0  0  0  0  0  0  0  0
    6.4036    0.3824   28.6799 C   0  0  0  0  0  0  0  0  0  0  0  0
    5.6765   -0.7220   28.2904 C   0  0  0  0  0  0  0  0  0  0  0  0
    6.1256   -1.5195   27.2510 C   0  0  0  0  0  0  0  0  0  0  0  0
  1  2  1  0
  2  3  1  0
  3  4  1  0
  4  5  2  0
  5  6  1  0
  6  7  1  0
  6  8  1  0
  8  9  1  0
  9 10  1  0
 10 11  2  0
 10 12  1  0
 12 13  1  0
 13 14  1  0
 14 15  1  0
 15 16  2  0
 16 17  1  0
 17 18  2  0
 18 19  1  0
 18 20  1  0
 20 21  2  0
 13 22  1  0
 22 23  2  0
 22 24  1  0
 24 25  1  0
 25 26  1  0
 26 27  1  0
 27 28  1  0
 28 29  1  0
 28 30  2  0
 28 31  2  0
 25 32  1  0
 32 33  2  0
 33 34  1  0
 34 35  2  0
 35 36  1  0
 36 37  2  0
  8  3  2  0
 21 15  1  0
 37 32  1  0
M  END
