CVD-0001228|dock_bobby27042020.81|mol2|41|dock1
     RDKit          3D

 22 24  0  0  0  0  0  0  0  0999 V2000
    8.3777   -1.6922   18.1986 C   0  0  0  0  0  0  0  0  0  0  0  0
    7.5323   -1.1081   19.3013 C   0  0  0  0  0  0  0  0  0  0  0  0
    6.2243   -0.7347   19.0074 C   0  0  0  0  0  0  0  0  0  0  0  0
    5.4272   -0.2012   19.9950 C   0  0  0  0  0  0  0  0  0  0  0  0
    5.8441   -0.0179   21.2445 N   0  0  0  0  0  0  0  0  0  0  0  0
    7.0984   -0.3738   21.5392 C   0  0  0  0  0  0  0  0  0  0  0  0
    7.9923   -0.9230   20.6196 C   0  0  0  0  0  0  0  0  0  0  0  0
    9.3278   -1.3035   20.9309 N   0  0  0  0  0  0  0  0  0  0  0  0
   10.0006   -1.2639   22.1074 C   0  0  0  0  0  0  0  0  0  0  0  0
    9.5558   -0.8705   23.1803 O   0  0  0  0  0  0  0  0  0  0  0  0
   11.4195   -1.7673   22.0008 C   0  0  0  0  0  0  0  0  0  0  0  0
   12.3403   -1.1290   23.0249 C   0  0  0  0  0  0  0  0  0  0  0  0
   12.4360    0.3545   22.8710 C   0  0  0  0  0  0  0  0  0  0  0  0
   13.5015    1.0732   22.7364 N   0  0  0  0  0  0  0  0  0  0  0  0
   13.0264    2.3776   22.6426 C   0  0  0  0  0  0  0  0  0  0  0  0
   13.6779    3.5993   22.4832 C   0  0  0  0  0  0  0  0  0  0  0  0
   12.9118    4.7492   22.4235 C   0  0  0  0  0  0  0  0  0  0  0  0
   13.7139    6.2821   22.2243 Cl  0  0  0  0  0  0  0  0  0  0  0  0
   11.5339    4.7232   22.5163 C   0  0  0  0  0  0  0  0  0  0  0  0
   10.8886    3.5091   22.6747 C   0  0  0  0  0  0  0  0  0  0  0  0
   11.6546    2.3560   22.7346 C   0  0  0  0  0  0  0  0  0  0  0  0
   11.2543    1.0439   22.8863 O   0  0  0  0  0  0  0  0  0  0  0  0
  1  2  1  0
  2  3  2  0
  3  4  1  0
  4  5  2  0
  5  6  1  0
  6  7  2  0
  7  8  1  0
  8  9  1  0
  9 10  2  0
  9 11  1  0
 11 12  1  0
 12 13  1  0
 13 14  2  0
 14 15  1  0
 15 16  2  0
 16 17  1  0
 17 18  1  0
 17 19  2  0
 19 20  1  0
 20 21  2  0
 21 22  1  0
  7  2  1  0
 22 13  1  0
 21 15  1  0
M  END
