CVD-0000324|dock_bobby27042020.56|mol2|24|dock1
     RDKit          3D

 29 32  0  0  0  0  0  0  0  0999 V2000
    6.7167   -2.7333   21.6989 C   0  0  0  0  0  0  0  0  0  0  0  0
    8.1586   -2.4500   21.9215 C   0  0  0  0  0  0  0  0  0  0  0  0
    8.4273   -1.1063   21.5034 O   0  0  0  0  0  0  0  0  0  0  0  0
    9.6343   -0.5143   21.7890 C   0  0  0  0  0  0  0  0  0  0  0  0
   10.8142   -1.2112   21.9921 C   0  0  0  0  0  0  0  0  0  0  0  0
   11.9989   -0.5302   22.2936 C   0  0  0  0  0  0  0  0  0  0  0  0
   13.2130   -1.2845   22.4570 N   0  0  0  0  0  0  0  0  0  0  0  0
   13.8382   -1.9143   21.3057 C   0  0  0  0  0  0  0  0  0  0  0  0
   13.9372   -1.3156   23.7155 C   0  0  0  0  0  0  0  0  0  0  0  0
   11.9728    0.8887   22.4348 C   0  0  0  0  0  0  0  0  0  0  0  0
   12.9291    1.8995   22.7770 C   0  0  0  0  0  0  0  0  0  0  0  0
   12.0797    3.3373   22.7008 C   0  0  0  0  0  0  0  0  0  0  0  0
   12.5593    4.9970   22.9788 S   0  0  0  0  0  0  0  0  0  0  0  0
   14.0452    5.1679   21.9913 C   0  0  0  0  0  0  0  0  0  0  0  0
   10.8315    2.9585   22.3527 N   0  0  0  0  0  0  0  0  0  0  0  0
   10.7483    1.5792   22.2085 C   0  0  0  0  0  0  0  0  0  0  0  0
    9.5956    0.8853   21.8747 C   0  0  0  0  0  0  0  0  0  0  0  0
    8.4414    1.6381   21.6473 O   0  0  0  0  0  0  0  0  0  0  0  0
    7.6260    1.3454   20.5916 C   0  0  0  0  0  0  0  0  0  0  0  0
    6.3843    1.9568   20.5862 C   0  0  0  0  0  0  0  0  0  0  0  0
    5.5267    1.6850   19.5274 C   0  0  0  0  0  0  0  0  0  0  0  0
    5.9557    0.8180   18.5313 C   0  0  0  0  0  0  0  0  0  0  0  0
    7.2162    0.2674   18.6419 C   0  0  0  0  0  0  0  0  0  0  0  0
    8.0554    0.5185   19.6553 N   0  0  0  0  0  0  0  0  0  0  0  0
    4.1975    2.3054   19.4706 C   0  0  0  0  0  0  0  0  0  0  0  0
    3.3200    2.6338   20.4587 C   0  0  0  0  0  0  0  0  0  0  0  0
    2.1864    3.2007   19.9329 N   0  0  0  0  0  0  0  0  0  0  0  0
    2.3823    3.2131   18.6281 C   0  0  0  0  0  0  0  0  0  0  0  0
    3.5762    2.6856   18.3027 N   0  0  0  0  0  0  0  0  0  0  0  0
  1  2  1  0
  2  3  1  0
  3  4  1  0
  4  5  2  0
  5  6  1  0
  6  7  1  0
  7  8  1  0
  7  9  1  0
  6 10  2  0
 10 11  1  0
 11 12  2  0
 12 13  1  0
 13 14  1  0
 12 15  1  0
 15 16  1  0
 16 17  2  0
 17 18  1  0
 18 19  1  0
 19 20  2  0
 20 21  1  0
 21 22  2  0
 22 23  1  0
 23 24  2  0
 21 25  1  0
 25 26  2  0
 26 27  1  0
 27 28  2  0
 28 29  1  0
 17  4  1  0
 24 19  1  0
 29 25  1  0
 16 10  1  0
M  END
