CVD-0001100|dock_bobby27042020.39|mol2|20|dock3
     RDKit          3D

 17 18  0  0  0  0  0  0  0  0999 V2000
    6.8551   -5.7997   21.2664 C   0  0  0  0  0  0  0  0  0  0  0  0
    6.5673   -4.4344   21.8184 C   0  0  0  0  0  0  0  0  0  0  0  0
    5.7125   -3.7030   21.3285 O   0  0  0  0  0  0  0  0  0  0  0  0
    7.2834   -4.0685   22.8834 N   0  0  0  0  0  0  0  0  0  0  0  0
    7.1082   -2.7826   23.5426 C   0  0  0  0  0  0  0  0  0  0  0  0
    8.4170   -2.1985   24.0381 C   0  0  0  0  0  0  0  0  0  0  0  0
    9.4857   -2.1240   22.9859 C   0  0  0  0  0  0  0  0  0  0  0  0
    9.3048   -2.1222   21.6341 C   0  0  0  0  0  0  0  0  0  0  0  0
   10.5095   -2.0448   20.9905 N   0  0  0  0  0  0  0  0  0  0  0  0
   11.5109   -1.9930   21.9283 C   0  0  0  0  0  0  0  0  0  0  0  0
   12.8919   -1.9112   21.7851 C   0  0  0  0  0  0  0  0  0  0  0  0
   13.6826   -1.8674   22.9201 C   0  0  0  0  0  0  0  0  0  0  0  0
   13.1044   -1.9041   24.1862 C   0  0  0  0  0  0  0  0  0  0  0  0
   11.7200   -1.9878   24.3270 C   0  0  0  0  0  0  0  0  0  0  0  0
   10.9035   -2.0365   23.1980 C   0  0  0  0  0  0  0  0  0  0  0  0
   13.9378   -1.8555   25.3622 C   0  0  0  0  0  0  0  0  0  0  0  0
   14.6244   -1.8233   26.2745 N   0  0  0  0  0  0  0  0  0  0  0  0
  1  2  1  0
  2  3  2  0
  2  4  1  0
  4  5  1  0
  5  6  1  0
  6  7  1  0
  7  8  2  0
  8  9  1  0
  9 10  1  0
 10 11  2  0
 11 12  1  0
 12 13  2  0
 13 14  1  0
 14 15  2  0
 13 16  1  0
 16 17  3  0
 15  7  1  0
 15 10  1  0
M  END
