CVD-0003811|dock_bobby27042020.72|mol2|36|dock3
     RDKit          3D

 24 26  0  0  0  0  0  0  0  0999 V2000
   13.4741    5.4129   21.2766 N   0  0  0  0  0  0  0  0  0  0  0  0
   13.3665    4.9126   22.7937 S   0  0  0  0  0  0  0  0  0  0  0  0
   12.5015    5.8246   23.4799 O   0  0  0  0  0  0  0  0  0  0  0  0
   14.7029    4.7312   23.2756 O   0  0  0  0  0  0  0  0  0  0  0  0
   12.5814    3.3294   22.8068 C   0  0  0  0  0  0  0  0  0  0  0  0
   13.3488    2.1792   22.7654 C   0  0  0  0  0  0  0  0  0  0  0  0
   12.7294    0.9421   22.7831 C   0  0  0  0  0  0  0  0  0  0  0  0
   11.3433    0.8317   22.8383 C   0  0  0  0  0  0  0  0  0  0  0  0
   10.5923    2.0027   22.8791 C   0  0  0  0  0  0  0  0  0  0  0  0
   11.2019    3.2447   22.8667 C   0  0  0  0  0  0  0  0  0  0  0  0
   10.7264   -0.4121   22.8525 N   0  0  0  0  0  0  0  0  0  0  0  0
    9.8433   -0.8744   21.7775 C   0  0  0  0  0  0  0  0  0  0  0  0
    8.5863   -1.5021   22.3099 C   0  0  0  0  0  0  0  0  0  0  0  0
    8.9098   -2.6554   23.2661 C   0  0  0  0  0  0  0  0  0  0  0  0
    9.8146   -2.1402   24.3568 C   0  0  0  0  0  0  0  0  0  0  0  0
   11.0670   -1.4785   23.8226 C   0  0  0  0  0  0  0  0  0  0  0  0
    7.6850   -3.2837   23.7950 N   0  0  0  0  0  0  0  0  0  0  0  0
    7.1245   -4.3020   22.9016 C   0  0  0  0  0  0  0  0  0  0  0  0
    5.8982   -4.9514   23.5145 C   0  0  0  0  0  0  0  0  0  0  0  0
    6.2315   -5.5993   24.8742 C   0  0  0  0  0  0  0  0  0  0  0  0
    5.0333   -6.3247   25.4835 C   0  0  0  0  0  0  0  0  0  0  0  0
    4.4489   -7.3428   24.5127 C   0  0  0  0  0  0  0  0  0  0  0  0
    4.0922   -6.6924   23.1838 C   0  0  0  0  0  0  0  0  0  0  0  0
    5.3037   -6.0040   22.5634 C   0  0  0  0  0  0  0  0  0  0  0  0
  1  2  1  0
  2  3  2  0
  2  4  2  0
  2  5  1  0
  5  6  2  0
  6  7  1  0
  7  8  2  0
  8  9  1  0
  9 10  2  0
  8 11  1  0
 11 12  1  0
 12 13  1  0
 13 14  1  0
 14 15  1  0
 15 16  1  0
 14 17  1  0
 17 18  1  0
 18 19  1  0
 19 20  1  0
 20 21  1  0
 21 22  1  0
 22 23  1  0
 23 24  1  0
 10  5  1  0
 16 11  1  0
 24 19  1  0
M  END
