CVD-0003781|dock_bobby27042020.1|mol2|3|dock1
     RDKit          3D

 25 27  0  0  0  0  0  0  0  0999 V2000
    4.5409   -6.2919   25.2633 C   0  0  0  0  0  0  0  0  0  0  0  0
    5.0451   -6.0972   23.8541 C   0  0  0  0  0  0  0  0  0  0  0  0
    4.6336   -6.9378   22.8327 C   0  0  0  0  0  0  0  0  0  0  0  0
    5.0952   -6.7615   21.5399 C   0  0  0  0  0  0  0  0  0  0  0  0
    5.9804   -5.7386   21.2472 C   0  0  0  0  0  0  0  0  0  0  0  0
    6.4026   -4.8974   22.2648 C   0  0  0  0  0  0  0  0  0  0  0  0
    7.2824   -3.8726   22.0165 O   0  0  0  0  0  0  0  0  0  0  0  0
    8.1645   -3.3931   23.0420 C   0  0  0  0  0  0  0  0  0  0  0  0
    9.2752   -2.5871   22.4046 C   0  0  0  0  0  0  0  0  0  0  0  0
   10.4137   -2.3121   23.3933 C   0  0  0  0  0  0  0  0  0  0  0  0
   11.5095   -1.5139   22.7455 C   0  0  0  0  0  0  0  0  0  0  0  0
   11.0134   -0.2567   22.1775 N   0  0  0  0  0  0  0  0  0  0  0  0
    9.8987   -0.4517   21.2215 C   0  0  0  0  0  0  0  0  0  0  0  0
    8.7909   -1.2725   21.8467 C   0  0  0  0  0  0  0  0  0  0  0  0
   11.6626    0.9607   22.3566 C   0  0  0  0  0  0  0  0  0  0  0  0
   13.0514    1.0435   22.3133 C   0  0  0  0  0  0  0  0  0  0  0  0
   13.7087    2.2471   22.4959 C   0  0  0  0  0  0  0  0  0  0  0  0
   12.9765    3.3997   22.7146 C   0  0  0  0  0  0  0  0  0  0  0  0
   11.5951    3.3474   22.7542 C   0  0  0  0  0  0  0  0  0  0  0  0
   10.9503    2.1350   22.5841 C   0  0  0  0  0  0  0  0  0  0  0  0
   13.8073    4.9441   22.9334 S   0  0  0  0  0  0  0  0  0  0  0  0
   13.1214    5.7206   24.1538 N   0  0  0  0  0  0  0  0  0  0  0  0
   13.5789    5.7234   21.7537 O   0  0  0  0  0  0  0  0  0  0  0  0
   15.1552    4.6536   23.3202 O   0  0  0  0  0  0  0  0  0  0  0  0
    5.9349   -5.0753   23.5575 C   0  0  0  0  0  0  0  0  0  0  0  0
  1  2  1  0
  2  3  2  0
  3  4  1  0
  4  5  2  0
  5  6  1  0
  6  7  1  0
  7  8  1  0
  8  9  1  0
  9 10  1  0
 10 11  1  0
 11 12  1  0
 12 13  1  0
 13 14  1  0
 12 15  1  0
 15 16  2  0
 16 17  1  0
 17 18  2  0
 18 19  1  0
 19 20  2  0
 18 21  1  0
 21 22  1  0
 21 23  2  0
 21 24  2  0
  6 25  2  0
 25  2  1  0
 14  9  1  0
 20 15  1  0
M  END
