CVD-0000690|dock_bobby27042020.12|mol2|14|dock3
     RDKit          3D

 28 31  0  0  0  0  0  0  0  0999 V2000
    6.2425    1.9588   22.9737 O   0  0  0  0  0  0  0  0  0  0  0  0
    7.2387    1.4588   22.4608 C   0  0  0  0  0  0  0  0  0  0  0  0
    7.2739   -0.0048   22.0680 C   0  0  0  0  0  0  0  0  0  0  0  0
    6.7135   -0.2428   20.6840 C   0  0  0  0  0  0  0  0  0  0  0  0
    6.3778   -1.5211   20.2657 C   0  0  0  0  0  0  0  0  0  0  0  0
    5.8616   -1.7388   18.9991 C   0  0  0  0  0  0  0  0  0  0  0  0
    5.6742   -0.6802   18.1366 C   0  0  0  0  0  0  0  0  0  0  0  0
    6.0026    0.5960   18.5407 C   0  0  0  0  0  0  0  0  0  0  0  0
    6.5189    0.8133   19.8072 C   0  0  0  0  0  0  0  0  0  0  0  0
    8.3960    2.1325   22.1808 N   0  0  0  0  0  0  0  0  0  0  0  0
    8.6856    3.4921   22.4102 C   0  0  0  0  0  0  0  0  0  0  0  0
    7.8353    4.5383   22.2571 C   0  0  0  0  0  0  0  0  0  0  0  0
    8.4960    5.7013   22.5443 N   0  0  0  0  0  0  0  0  0  0  0  0
    9.7899    5.4386   22.8737 C   0  0  0  0  0  0  0  0  0  0  0  0
   10.7189    6.3648   23.1589 N   0  0  0  0  0  0  0  0  0  0  0  0
   11.9359    5.9039   23.4589 C   0  0  0  0  0  0  0  0  0  0  0  0
   12.2512    4.5625   23.5305 C   0  0  0  0  0  0  0  0  0  0  0  0
   11.2716    3.6048   23.2601 C   0  0  0  0  0  0  0  0  0  0  0  0
   11.5216    2.2131   23.3786 N   0  0  0  0  0  0  0  0  0  0  0  0
   12.6201    1.4854   23.0576 C   0  0  0  0  0  0  0  0  0  0  0  0
   13.6595    1.9270   22.5760 O   0  0  0  0  0  0  0  0  0  0  0  0
   12.4690    0.0067   23.3443 C   0  0  0  0  0  0  0  0  0  0  0  0
   13.4998   -0.7884   22.5772 C   0  0  0  0  0  0  0  0  0  0  0  0
   13.4191   -2.2710   22.9260 C   0  0  0  0  0  0  0  0  0  0  0  0
   13.5569   -2.4954   24.4093 C   0  0  0  0  0  0  0  0  0  0  0  0
   12.5427   -1.6871   25.1835 C   0  0  0  0  0  0  0  0  0  0  0  0
   12.6153   -0.2064   24.8362 C   0  0  0  0  0  0  0  0  0  0  0  0
    9.9815    4.0490   22.8628 C   0  0  0  0  0  0  0  0  0  0  0  0
  1  2  2  0
  2  3  1  0
  3  4  1  0
  4  5  2  0
  5  6  1  0
  6  7  2  0
  7  8  1  0
  8  9  2  0
  2 10  1  0
 10 11  1  0
 11 12  2  0
 12 13  1  0
 13 14  1  0
 14 15  2  0
 15 16  1  0
 16 17  2  0
 17 18  1  0
 18 19  1  0
 19 20  1  0
 20 21  2  0
 20 22  1  0
 22 23  1  0
 23 24  1  0
 24 25  1  0
 25 26  1  0
 26 27  1  0
 18 28  2  0
  9  4  1  0
 28 11  1  0
 28 14  1  0
 27 22  1  0
M  END
