CVD-0001211|dock_bobby27042020.24|mol2|35|dock1
     RDKit          3D

 27 30  0  0  0  0  0  0  0  0999 V2000
   12.5220    6.3105   25.2821 C   0  0  0  0  0  0  0  0  0  0  0  0
   13.0499    6.4054   23.8808 C   0  0  0  0  0  0  0  0  0  0  0  0
   13.2352    7.4853   23.3285 O   0  0  0  0  0  0  0  0  0  0  0  0
   13.2903    5.2468   23.2639 N   0  0  0  0  0  0  0  0  0  0  0  0
   13.6687    4.2888   22.2349 C   0  0  0  0  0  0  0  0  0  0  0  0
   13.6081    2.8617   22.7418 C   0  0  0  0  0  0  0  0  0  0  0  0
   12.2572    2.2329   22.5640 C   0  0  0  0  0  0  0  0  0  0  0  0
   11.0659    2.8699   22.3738 C   0  0  0  0  0  0  0  0  0  0  0  0
   10.0505    1.9604   22.2529 N   0  0  0  0  0  0  0  0  0  0  0  0
   10.5812    0.6989   22.3672 C   0  0  0  0  0  0  0  0  0  0  0  0
    9.9740   -0.5608   22.3185 C   0  0  0  0  0  0  0  0  0  0  0  0
    8.5945   -0.6152   22.1230 O   0  0  0  0  0  0  0  0  0  0  0  0
    8.0046   -0.2465   20.9127 C   0  0  0  0  0  0  0  0  0  0  0  0
    8.4606   -0.7633   19.7093 C   0  0  0  0  0  0  0  0  0  0  0  0
    7.8809   -0.3953   18.5334 C   0  0  0  0  0  0  0  0  0  0  0  0
    6.8054    0.5219   18.5175 C   0  0  0  0  0  0  0  0  0  0  0  0
    6.2410    0.8739   17.3197 N   0  0  0  0  0  0  0  0  0  0  0  0
    5.2386    1.7348   17.3490 C   0  0  0  0  0  0  0  0  0  0  0  0
    4.7217    2.3019   18.4938 C   0  0  0  0  0  0  0  0  0  0  0  0
    5.2656    1.9675   19.6978 C   0  0  0  0  0  0  0  0  0  0  0  0
    6.3415    1.0519   19.7440 C   0  0  0  0  0  0  0  0  0  0  0  0
    6.9679    0.6460   20.9451 C   0  0  0  0  0  0  0  0  0  0  0  0
   10.7431   -1.7047   22.4520 C   0  0  0  0  0  0  0  0  0  0  0  0
   12.0964   -1.5419   22.6395 C   0  0  0  0  0  0  0  0  0  0  0  0
   12.8547   -2.6632   22.7740 F   0  0  0  0  0  0  0  0  0  0  0  0
   12.7374   -0.3267   22.7009 C   0  0  0  0  0  0  0  0  0  0  0  0
   11.9682    0.8271   22.5608 C   0  0  0  0  0  0  0  0  0  0  0  0
  1  2  1  0
  2  3  2  0
  2  4  1  0
  4  5  1  0
  5  6  1  0
  6  7  1  0
  7  8  2  0
  8  9  1  0
  9 10  1  0
 10 11  2  0
 11 12  1  0
 12 13  1  0
 13 14  2  0
 14 15  1  0
 15 16  2  0
 16 17  1  0
 17 18  2  0
 18 19  1  0
 19 20  2  0
 20 21  1  0
 21 22  2  0
 11 23  1  0
 23 24  2  0
 24 25  1  0
 24 26  1  0
 26 27  2  0
 27  7  1  0
 27 10  1  0
 22 13  1  0
 21 16  1  0
M  END
