CVD-0000376|dock_bobby27042020.84|mol2|28|dock1
     RDKit          3D

 28 30  0  0  0  0  0  0  0  0999 V2000
   12.3965    7.6934   25.4267 C   0  0  0  0  0  0  0  0  0  0  0  0
   12.7210    6.7563   24.3028 C   0  0  0  0  0  0  0  0  0  0  0  0
   12.1439    5.5002   24.2191 C   0  0  0  0  0  0  0  0  0  0  0  0
   12.4874    4.6850   23.1442 C   0  0  0  0  0  0  0  0  0  0  0  0
   13.3619    5.1023   22.2124 N   0  0  0  0  0  0  0  0  0  0  0  0
   13.8541    6.3278   22.3930 C   0  0  0  0  0  0  0  0  0  0  0  0
   13.5882    7.1841   23.3786 N   0  0  0  0  0  0  0  0  0  0  0  0
   11.9075    3.3220   22.9706 C   0  0  0  0  0  0  0  0  0  0  0  0
   12.7744    2.2699   22.6567 C   0  0  0  0  0  0  0  0  0  0  0  0
   12.3080    0.9786   22.4818 C   0  0  0  0  0  0  0  0  0  0  0  0
   10.9613    0.6620   22.6123 C   0  0  0  0  0  0  0  0  0  0  0  0
   10.4734   -0.7553   22.4257 C   0  0  0  0  0  0  0  0  0  0  0  0
    9.0259   -0.8333   22.1783 N   0  0  0  0  0  0  0  0  0  0  0  0
    8.5726   -2.2266   22.2222 C   0  0  0  0  0  0  0  0  0  0  0  0
    7.0722   -2.2978   22.0074 C   0  0  0  0  0  0  0  0  0  0  0  0
    6.7094   -1.6878   20.7263 N   0  0  0  0  0  0  0  0  0  0  0  0
    7.2018   -0.3103   20.6268 C   0  0  0  0  0  0  0  0  0  0  0  0
    8.6990   -0.2667   20.8724 C   0  0  0  0  0  0  0  0  0  0  0  0
    5.9850   -2.3326   19.7877 C   0  0  0  0  0  0  0  0  0  0  0  0
    5.5891   -3.4724   19.9403 O   0  0  0  0  0  0  0  0  0  0  0  0
    5.6258   -1.6362   18.4596 C   0  0  0  0  0  0  0  0  0  0  0  0
    4.8939   -0.5473   18.6517 F   0  0  0  0  0  0  0  0  0  0  0  0
    4.9308   -2.4289   17.6553 F   0  0  0  0  0  0  0  0  0  0  0  0
    6.7056   -1.2596   17.7883 F   0  0  0  0  0  0  0  0  0  0  0  0
   10.1122    1.7015   22.9229 C   0  0  0  0  0  0  0  0  0  0  0  0
    8.8025    1.4246   23.0591 F   0  0  0  0  0  0  0  0  0  0  0  0
   10.5604    2.9904   23.0930 C   0  0  0  0  0  0  0  0  0  0  0  0
    9.6442    3.9330   23.3818 F   0  0  0  0  0  0  0  0  0  0  0  0
  1  2  1  0
  2  3  2  0
  3  4  1  0
  4  5  2  0
  5  6  1  0
  6  7  2  0
  4  8  1  0
  8  9  2  0
  9 10  1  0
 10 11  2  0
 11 12  1  0
 12 13  1  0
 13 14  1  0
 14 15  1  0
 15 16  1  0
 16 17  1  0
 17 18  1  0
 16 19  1  0
 19 20  2  0
 19 21  1  0
 21 22  1  0
 21 23  1  0
 21 24  1  0
 11 25  1  0
 25 26  1  0
 25 27  2  0
 27 28  1  0
  7  2  1  0
 27  8  1  0
 18 13  1  0
M  END
