CVD-0000242|dock_bobby27042020.85|mol2|8|dock3
     RDKit          3D

 22 24  0  0  0  0  0  0  0  0999 V2000
   13.5833    4.7822   21.8608 C   0  0  0  0  0  0  0  0  0  0  0  0
   12.2575    4.4049   22.2249 O   0  0  0  0  0  0  0  0  0  0  0  0
   11.9892    3.0878   22.3102 C   0  0  0  0  0  0  0  0  0  0  0  0
   10.6478    2.7457   22.2935 C   0  0  0  0  0  0  0  0  0  0  0  0
   10.2909    1.4190   22.3773 C   0  0  0  0  0  0  0  0  0  0  0  0
    8.8341    1.0044   22.3588 C   0  0  0  0  0  0  0  0  0  0  0  0
    8.4079    0.4390   21.0871 N   0  0  0  0  0  0  0  0  0  0  0  0
    7.2460   -0.1927   20.9435 C   0  0  0  0  0  0  0  0  0  0  0  0
    6.4529   -0.3439   21.8675 O   0  0  0  0  0  0  0  0  0  0  0  0
    6.9383   -0.7119   19.5549 C   0  0  0  0  0  0  0  0  0  0  0  0
    6.1540    0.2960   18.7864 C   0  0  0  0  0  0  0  0  0  0  0  0
    6.4997    0.7948   17.6084 N   0  0  0  0  0  0  0  0  0  0  0  0
    5.5026    1.6821   17.2811 C   0  0  0  0  0  0  0  0  0  0  0  0
    4.5714    1.7125   18.2603 C   0  0  0  0  0  0  0  0  0  0  0  0
    4.9962    0.8293   19.2123 N   0  0  0  0  0  0  0  0  0  0  0  0
   11.3252    0.4514   22.4758 C   0  0  0  0  0  0  0  0  0  0  0  0
   11.0932   -0.9445   22.5662 C   0  0  0  0  0  0  0  0  0  0  0  0
   12.1357   -1.8175   22.6586 C   0  0  0  0  0  0  0  0  0  0  0  0
   13.4372   -1.3596   22.6662 C   0  0  0  0  0  0  0  0  0  0  0  0
   13.7125   -0.0263   22.5814 C   0  0  0  0  0  0  0  0  0  0  0  0
   12.6640    0.9188   22.4836 C   0  0  0  0  0  0  0  0  0  0  0  0
   12.9832    2.2490   22.4001 N   0  0  0  0  0  0  0  0  0  0  0  0
  1  2  1  0
  2  3  1  0
  3  4  2  0
  4  5  1  0
  5  6  1  0
  6  7  1  0
  7  8  1  0
  8  9  2  0
  8 10  1  0
 10 11  1  0
 11 12  2  0
 12 13  1  0
 13 14  2  0
 14 15  1  0
  5 16  2  0
 16 17  1  0
 17 18  2  0
 18 19  1  0
 19 20  2  0
 20 21  1  0
 21 22  2  0
 22  3  1  0
 15 11  1  0
 21 16  1  0
M  END
