CVD-0001074|dock_bobby27042020.68|mol2|16|dock1
     RDKit          3D

 21 23  0  0  0  0  0  0  0  0999 V2000
   14.9437   -3.5874   25.0955 F   0  0  0  0  0  0  0  0  0  0  0  0
   14.2279   -2.5075   24.6808 C   0  0  0  0  0  0  0  0  0  0  0  0
   13.8337   -2.4451   23.3725 C   0  0  0  0  0  0  0  0  0  0  0  0
   13.1057   -1.3451   22.9543 C   0  0  0  0  0  0  0  0  0  0  0  0
   12.7797   -0.3228   23.8411 C   0  0  0  0  0  0  0  0  0  0  0  0
   13.2041   -0.4333   25.1610 C   0  0  0  0  0  0  0  0  0  0  0  0
   13.9322   -1.5288   25.5893 C   0  0  0  0  0  0  0  0  0  0  0  0
   11.9949    0.8750   23.4138 C   0  0  0  0  0  0  0  0  0  0  0  0
   12.3402    1.9899   23.8206 O   0  0  0  0  0  0  0  0  0  0  0  0
   10.8290    0.7400   22.5241 C   0  0  0  0  0  0  0  0  0  0  0  0
    9.8562    1.6458   22.5227 C   0  0  0  0  0  0  0  0  0  0  0  0
    8.6545    1.6165   21.6855 C   0  0  0  0  0  0  0  0  0  0  0  0
    7.6319    2.5449   21.8579 C   0  0  0  0  0  0  0  0  0  0  0  0
    6.5360    2.5628   21.1358 N   0  0  0  0  0  0  0  0  0  0  0  0
    6.4309    1.5984   20.1698 C   0  0  0  0  0  0  0  0  0  0  0  0
    5.2840    1.5427   19.3451 C   0  0  0  0  0  0  0  0  0  0  0  0
    5.1830    0.5801   18.3838 C   0  0  0  0  0  0  0  0  0  0  0  0
    6.1875   -0.3490   18.1986 C   0  0  0  0  0  0  0  0  0  0  0  0
    7.3116   -0.3329   18.9713 C   0  0  0  0  0  0  0  0  0  0  0  0
    7.4608    0.6460   19.9804 C   0  0  0  0  0  0  0  0  0  0  0  0
    8.5860    0.6684   20.7595 N   0  0  0  0  0  0  0  0  0  0  0  0
  1  2  1  0
  2  3  2  0
  3  4  1  0
  4  5  2  0
  5  6  1  0
  6  7  2  0
  5  8  1  0
  8  9  2  0
  8 10  1  0
 10 11  2  0
 11 12  1  0
 12 13  2  0
 13 14  1  0
 14 15  2  0
 15 16  1  0
 16 17  2  0
 17 18  1  0
 18 19  2  0
 19 20  1  0
 20 21  2  0
  7  2  1  0
 21 12  1  0
 20 15  1  0
M  END
