CVD-0004023|dock_bobby27042020.29|mol2|5|dock1
     RDKit          3D

 41 43  0  0  0  0  0  0  0  0999 V2000
    5.8259    0.1966   18.1608 C   0  0  0  0  0  0  0  0  0  0  0  0
    4.7520    1.0631   18.5215 O   0  0  0  0  0  0  0  0  0  0  0  0
    4.6971    1.6071   19.7804 C   0  0  0  0  0  0  0  0  0  0  0  0
    3.4865    1.9215   20.3822 C   0  0  0  0  0  0  0  0  0  0  0  0
    3.5306    2.4615   21.6425 C   0  0  0  0  0  0  0  0  0  0  0  0
    2.3528    2.7754   22.2466 F   0  0  0  0  0  0  0  0  0  0  0  0
    4.6933    2.7034   22.3292 C   0  0  0  0  0  0  0  0  0  0  0  0
    5.9016    2.3858   21.7197 C   0  0  0  0  0  0  0  0  0  0  0  0
    7.0933    2.6419   22.4425 N   0  0  0  0  0  0  0  0  0  0  0  0
    8.3950    2.4427   22.1184 C   0  0  0  0  0  0  0  0  0  0  0  0
    8.8278    1.9714   21.0687 O   0  0  0  0  0  0  0  0  0  0  0  0
    9.3523    2.8860   23.2427 C   0  0  0  0  0  0  0  0  0  0  0  0
    8.9427    3.6378   24.1100 O   0  0  0  0  0  0  0  0  0  0  0  0
   10.7867    2.3542   23.1834 C   0  0  0  0  0  0  0  0  0  0  0  0
   11.6559    3.0463   22.1226 C   0  0  0  0  0  0  0  0  0  0  0  0
   12.0194    4.5288   22.2996 C   0  0  0  0  0  0  0  0  0  0  0  0
   13.0900    4.8067   23.3737 C   0  0  0  0  0  0  0  0  0  0  0  0
   12.6271    6.0667   24.0935 C   0  0  0  0  0  0  0  0  0  0  0  0
   11.2192    6.1411   23.7521 N   0  0  0  0  0  0  0  0  0  0  0  0
   10.8423    5.3619   22.7353 C   0  0  0  0  0  0  0  0  0  0  0  0
    9.7097    5.3090   22.2636 O   0  0  0  0  0  0  0  0  0  0  0  0
   10.8525    0.8959   23.1201 N   0  0  0  0  0  0  0  0  0  0  0  0
   10.6782    0.0404   24.1382 C   0  0  0  0  0  0  0  0  0  0  0  0
   10.4382    0.3588   25.2992 O   0  0  0  0  0  0  0  0  0  0  0  0
   10.8089   -1.4378   23.7771 C   0  0  0  0  0  0  0  0  0  0  0  0
   12.2745   -1.8922   23.7189 C   0  0  0  0  0  0  0  0  0  0  0  0
   13.1756   -1.8030   24.9554 C   0  0  0  0  0  0  0  0  0  0  0  0
   13.7129   -0.4016   25.1871 C   0  0  0  0  0  0  0  0  0  0  0  0
   14.3277   -2.7932   24.9076 C   0  0  0  0  0  0  0  0  0  0  0  0
   10.0918   -1.7453   22.5510 N   0  0  0  0  0  0  0  0  0  0  0  0
    8.7750   -2.0464   22.5797 C   0  0  0  0  0  0  0  0  0  0  0  0
    8.1482   -2.1446   23.6313 O   0  0  0  0  0  0  0  0  0  0  0  0
    8.1944   -2.2321   21.3776 N   0  0  0  0  0  0  0  0  0  0  0  0
    6.7819   -2.5616   21.2576 C   0  0  0  0  0  0  0  0  0  0  0  0
    6.4383   -3.9254   21.8061 C   0  0  0  0  0  0  0  0  0  0  0  0
    5.2927   -4.1172   22.5630 C   0  0  0  0  0  0  0  0  0  0  0  0
    4.9755   -5.3689   23.0636 C   0  0  0  0  0  0  0  0  0  0  0  0
    5.8002   -6.4443   22.8123 C   0  0  0  0  0  0  0  0  0  0  0  0
    6.9416   -6.2678   22.0602 C   0  0  0  0  0  0  0  0  0  0  0  0
    7.2583   -5.0159   21.5599 C   0  0  0  0  0  0  0  0  0  0  0  0
    5.8959    1.8352   20.4391 C   0  0  0  0  0  0  0  0  0  0  0  0
  1  2  1  0
  2  3  1  0
  3  4  2  0
  4  5  1  0
  5  6  1  0
  5  7  2  0
  7  8  1  0
  8  9  1  0
  9 10  1  0
 10 11  2  0
 10 12  1  0
 12 13  2  0
 12 14  1  0
 14 15  1  0
 16 15  1  0
 16 17  1  0
 17 18  1  0
 18 19  1  0
 19 20  1  0
 20 21  2  0
 14 22  1  0
 22 23  1  0
 23 24  2  0
 23 25  1  0
 25 26  1  0
 26 27  1  0
 27 28  1  0
 27 29  1  0
 25 30  1  0
 30 31  1  0
 31 32  2  0
 31 33  1  0
 33 34  1  0
 34 35  1  0
 35 36  2  0
 36 37  1  0
 37 38  2  0
 38 39  1  0
 39 40  2  0
  8 41  2  0
 41  3  1  0
 20 16  1  0
 40 35  1  0
M  END
