CVD-0003258|dock_bobby27042020.31|mol2|27|dock2
     RDKit          3D

 26 29  0  0  0  0  0  0  0  0999 V2000
    5.9423   -0.8099   17.8273 O   0  0  0  0  0  0  0  0  0  0  0  0
    6.4571   -0.7819   19.1613 C   0  0  0  0  0  0  0  0  0  0  0  0
    7.9640   -0.8429   19.1180 C   0  0  0  0  0  0  0  0  0  0  0  0
    8.5484   -0.8005   20.5255 C   0  0  0  0  0  0  0  0  0  0  0  0
    8.0735    0.4321   21.2483 C   0  0  0  0  0  0  0  0  0  0  0  0
    8.6245    0.4621   22.6764 C   0  0  0  0  0  0  0  0  0  0  0  0
   10.0994    0.7521   22.7394 C   0  0  0  0  0  0  0  0  0  0  0  0
   11.0971   -0.1855   22.9687 C   0  0  0  0  0  0  0  0  0  0  0  0
   10.8476   -1.5300   23.1769 N   0  0  0  0  0  0  0  0  0  0  0  0
   10.4738   -2.0608   24.4107 C   0  0  0  0  0  0  0  0  0  0  0  0
   10.4483   -1.3500   25.4123 O   0  0  0  0  0  0  0  0  0  0  0  0
   10.1558   -3.3951   24.3761 N   0  0  0  0  0  0  0  0  0  0  0  0
    9.7400   -4.2896   25.3746 C   0  0  0  0  0  0  0  0  0  0  0  0
    8.8420   -3.9354   26.3791 C   0  0  0  0  0  0  0  0  0  0  0  0
    8.5286   -4.9238   27.2901 C   0  0  0  0  0  0  0  0  0  0  0  0
    9.0356   -6.1550   27.2428 N   0  0  0  0  0  0  0  0  0  0  0  0
    9.8798   -6.3730   26.2405 C   0  0  0  0  0  0  0  0  0  0  0  0
   10.2685   -5.5144   25.2958 N   0  0  0  0  0  0  0  0  0  0  0  0
   12.7089    0.4441   22.9783 S   0  0  0  0  0  0  0  0  0  0  0  0
   12.1002    2.0289   22.6607 C   0  0  0  0  0  0  0  0  0  0  0  0
   12.5976    3.3428   22.4686 C   0  0  0  0  0  0  0  0  0  0  0  0
   11.4901    4.1216   22.2546 C   0  0  0  0  0  0  0  0  0  0  0  0
   10.3598    3.3479   22.3082 N   0  0  0  0  0  0  0  0  0  0  0  0
   10.7116    2.0411   22.5596 C   0  0  0  0  0  0  0  0  0  0  0  0
    6.5665    0.4931   21.2918 C   0  0  0  0  0  0  0  0  0  0  0  0
    5.9822    0.4507   19.8841 C   0  0  0  0  0  0  0  0  0  0  0  0
  1  2  1  0
  2  3  1  0
  3  4  1  0
  4  5  1  0
  5  6  1  0
  6  7  1  0
  7  8  2  0
  8  9  1  0
  9 10  1  0
 10 11  2  0
 10 12  1  0
 12 13  1  0
 13 14  2  0
 14 15  1  0
 15 16  2  0
 16 17  1  0
 17 18  2  0
  8 19  1  0
 19 20  1  0
 20 21  1  0
 21 22  2  0
 22 23  1  0
 23 24  1  0
  5 25  1  0
 25 26  1  0
 26  2  1  0
 24  7  1  0
 18 13  1  0
 24 20  2  0
M  END
