CVD-0001569|dock_bobby27042020.23|mol2|28|dock2
     RDKit          3D

 18 20  0  0  0  0  0  0  0  0999 V2000
    9.5448    6.4237   22.9365 C   0  0  0  0  0  0  0  0  0  0  0  0
   10.8146    6.1569   22.3452 O   0  0  0  0  0  0  0  0  0  0  0  0
   11.3524    4.9068   22.4864 C   0  0  0  0  0  0  0  0  0  0  0  0
   10.6257    3.7461   22.7116 C   0  0  0  0  0  0  0  0  0  0  0  0
   11.3034    2.5432   22.8352 C   0  0  0  0  0  0  0  0  0  0  0  0
   10.9196    1.1718   23.0650 C   0  0  0  0  0  0  0  0  0  0  0  0
    9.7549    0.2368   23.2905 C   0  0  0  0  0  0  0  0  0  0  0  0
   10.3694   -1.1545   23.4468 C   0  0  0  0  0  0  0  0  0  0  0  0
   11.8135   -0.9272   23.3032 N   0  0  0  0  0  0  0  0  0  0  0  0
   12.7189   -2.0203   23.3936 C   0  0  0  0  0  0  0  0  0  0  0  0
   14.1902   -1.7588   23.2583 C   0  0  0  0  0  0  0  0  0  0  0  0
   12.2804   -3.1478   23.5918 O   0  0  0  0  0  0  0  0  0  0  0  0
   12.0883    0.3959   23.0889 C   0  0  0  0  0  0  0  0  0  0  0  0
   13.1644    1.2053   22.8882 N   0  0  0  0  0  0  0  0  0  0  0  0
   12.7129    2.5097   22.7321 C   0  0  0  0  0  0  0  0  0  0  0  0
   13.4358    3.6769   22.5064 C   0  0  0  0  0  0  0  0  0  0  0  0
   12.7487    4.8735   22.3844 C   0  0  0  0  0  0  0  0  0  0  0  0
   13.4487    6.0168   22.1635 O   0  0  0  0  0  0  0  0  0  0  0  0
  1  2  1  0
  2  3  1  0
  3  4  2  0
  4  5  1  0
  5  6  1  0
  6  7  1  0
  7  8  1  0
  8  9  1  0
  9 10  1  0
 10 11  1  0
 10 12  2  0
  9 13  1  0
 13 14  1  0
 14 15  1  0
 15 16  1  0
 16 17  2  0
 17 18  1  0
 17  3  1  0
 15  5  2  0
 13  6  2  0
M  END
