CVD-0001922|dock_bobby27042020.8|mol2|6|dock1
     RDKit          3D

 31 34  0  0  0  0  0  0  0  0999 V2000
    4.3992    0.9293   18.4087 C   0  0  0  0  0  0  0  0  0  0  0  0
    5.4655    0.1045   18.9698 N   0  0  0  0  0  0  0  0  0  0  0  0
    6.0021   -0.9240   18.0827 C   0  0  0  0  0  0  0  0  0  0  0  0
    5.8852    0.2627   20.2358 C   0  0  0  0  0  0  0  0  0  0  0  0
    5.3916    1.1086   20.9566 O   0  0  0  0  0  0  0  0  0  0  0  0
    6.9967   -0.6224   20.7645 C   0  0  0  0  0  0  0  0  0  0  0  0
    6.8021   -0.9131   22.2475 C   0  0  0  0  0  0  0  0  0  0  0  0
    7.9372   -1.7655   22.7764 C   0  0  0  0  0  0  0  0  0  0  0  0
    9.2141   -1.0960   22.5435 N   0  0  0  0  0  0  0  0  0  0  0  0
    9.4693   -0.8446   21.1292 C   0  0  0  0  0  0  0  0  0  0  0  0
    8.3616    0.0266   20.5463 C   0  0  0  0  0  0  0  0  0  0  0  0
   10.2140   -0.9605   23.4508 C   0  0  0  0  0  0  0  0  0  0  0  0
   10.0940   -1.4470   24.5621 O   0  0  0  0  0  0  0  0  0  0  0  0
   11.5104   -0.2376   23.2101 C   0  0  0  0  0  0  0  0  0  0  0  0
   12.7669   -0.7893   23.4450 C   0  0  0  0  0  0  0  0  0  0  0  0
   13.9165   -0.0606   23.1915 C   0  0  0  0  0  0  0  0  0  0  0  0
   13.8263    1.2360   22.7170 C   0  0  0  0  0  0  0  0  0  0  0  0
   12.5888    1.8173   22.4951 C   0  0  0  0  0  0  0  0  0  0  0  0
   12.4797    3.2386   21.9817 C   0  0  0  0  0  0  0  0  0  0  0  0
   12.0094    4.2109   23.0386 C   0  0  0  0  0  0  0  0  0  0  0  0
   12.9084    4.7983   23.9159 C   0  0  0  0  0  0  0  0  0  0  0  0
   12.4314    5.6999   24.8510 C   0  0  0  0  0  0  0  0  0  0  0  0
   11.0727    5.9953   24.8913 C   0  0  0  0  0  0  0  0  0  0  0  0
   10.4615    6.9105   25.9403 C   0  0  0  0  0  0  0  0  0  0  0  0
   11.4237    7.9312   26.3620 N   0  0  0  0  0  0  0  0  0  0  0  0
    9.2110    7.5812   25.3111 C   0  0  0  0  0  0  0  0  0  0  0  0
    8.3221    6.5088   24.9353 O   0  0  0  0  0  0  0  0  0  0  0  0
    8.7905    5.7441   23.8308 C   0  0  0  0  0  0  0  0  0  0  0  0
   10.2407    5.3523   23.9644 C   0  0  0  0  0  0  0  0  0  0  0  0
   10.6929    4.4781   23.0555 N   0  0  0  0  0  0  0  0  0  0  0  0
   11.4435    1.0722   22.7460 C   0  0  0  0  0  0  0  0  0  0  0  0
  1  2  1  0
  2  3  1  0
  2  4  1  0
  4  5  2  0
  4  6  1  0
  6  7  1  0
  7  8  1  0
  8  9  1  0
  9 10  1  0
 10 11  1  0
  9 12  1  0
 12 13  2  0
 12 14  1  0
 14 15  2  0
 15 16  1  0
 16 17  2  0
 17 18  1  0
 18 19  1  0
 19 20  1  0
 20 21  2  0
 21 22  1  0
 22 23  2  0
 23 24  1  0
 24 25  1  0
 24 26  1  0
 26 27  1  0
 27 28  1  0
 28 29  1  0
 29 30  2  0
 18 31  2  0
 11  6  1  0
 31 14  1  0
 30 20  1  0
 29 23  1  0
M  END
