CVD-0003532|dock_bobby27042020.1|mol2|41|dock1
     RDKit          3D

 26 28  0  0  0  0  0  0  0  0999 V2000
   13.4992    5.4670   21.4159 C   0  0  0  0  0  0  0  0  0  0  0  0
   13.8773    4.9095   23.0327 S   0  0  0  0  0  0  0  0  0  0  0  0
   15.2252    5.2777   23.3388 O   0  0  0  0  0  0  0  0  0  0  0  0
   12.8351    5.3506   23.9073 O   0  0  0  0  0  0  0  0  0  0  0  0
   13.8108    3.2820   23.0003 N   0  0  0  0  0  0  0  0  0  0  0  0
   12.6118    2.5173   22.8495 C   0  0  0  0  0  0  0  0  0  0  0  0
   11.3989    3.1859   22.7189 C   0  0  0  0  0  0  0  0  0  0  0  0
   10.2140    2.4868   22.5708 C   0  0  0  0  0  0  0  0  0  0  0  0
   10.2493    1.0975   22.5540 C   0  0  0  0  0  0  0  0  0  0  0  0
    9.2410    0.1615   22.4229 N   0  0  0  0  0  0  0  0  0  0  0  0
    9.7856   -1.1055   22.4671 C   0  0  0  0  0  0  0  0  0  0  0  0
   11.1463   -0.9943   22.6263 C   0  0  0  0  0  0  0  0  0  0  0  0
   11.4604    0.4016   22.6839 C   0  0  0  0  0  0  0  0  0  0  0  0
   12.6525    1.1250   22.8331 C   0  0  0  0  0  0  0  0  0  0  0  0
    8.8031   -2.2094   22.3364 C   0  0  0  0  0  0  0  0  0  0  0  0
    8.0640   -2.1653   21.3596 O   0  0  0  0  0  0  0  0  0  0  0  0
    8.7097   -3.2141   23.2287 N   0  0  0  0  0  0  0  0  0  0  0  0
    7.8218   -4.3700   23.1178 C   0  0  0  0  0  0  0  0  0  0  0  0
    6.9909   -4.5155   24.3747 C   0  0  0  0  0  0  0  0  0  0  0  0
    7.8598   -4.5686   25.5484 N   0  0  0  0  0  0  0  0  0  0  0  0
    8.7477   -3.4127   25.6593 C   0  0  0  0  0  0  0  0  0  0  0  0
    9.5786   -3.2672   24.4024 C   0  0  0  0  0  0  0  0  0  0  0  0
    7.7663   -5.5742   26.4415 C   0  0  0  0  0  0  0  0  0  0  0  0
    6.9558   -6.4831   26.3130 O   0  0  0  0  0  0  0  0  0  0  0  0
    8.7249   -5.5237   27.6149 C   0  0  0  0  0  0  0  0  0  0  0  0
   10.4025   -5.6902   27.0808 Cl  0  0  0  0  0  0  0  0  0  0  0  0
  1  2  1  0
  2  3  2  0
  2  4  2  0
  2  5  1  0
  5  6  1  0
  6  7  2  0
  7  8  1  0
  8  9  2  0
  9 10  1  0
 10 11  1  0
 11 12  2  0
 12 13  1  0
 13 14  2  0
 11 15  1  0
 15 16  2  0
 15 17  1  0
 17 18  1  0
 18 19  1  0
 19 20  1  0
 20 21  1  0
 21 22  1  0
 20 23  1  0
 23 24  2  0
 23 25  1  0
 25 26  1  0
 14  6  1  0
 22 17  1  0
 13  9  1  0
M  END
