CVD-0000644|dock_bobby27042020.83|mol2|41|dock2
     RDKit          3D

 25 27  0  0  0  0  0  0  0  0999 V2000
   13.7332    0.2049   23.5201 C   0  0  0  0  0  0  0  0  0  0  0  0
   12.6041    0.0906   22.5015 C   0  0  0  0  0  0  0  0  0  0  0  0
   12.0237   -1.3014   22.5376 C   0  0  0  0  0  0  0  0  0  0  0  0
   10.9316   -1.5018   21.5935 N   0  0  0  0  0  0  0  0  0  0  0  0
    9.6506   -1.4859   21.9614 C   0  0  0  0  0  0  0  0  0  0  0  0
    9.3110   -1.2999   23.1269 O   0  0  0  0  0  0  0  0  0  0  0  0
    8.6078   -1.7066   20.8886 C   0  0  0  0  0  0  0  0  0  0  0  0
    7.2422   -1.8419   21.5572 C   0  0  0  0  0  0  0  0  0  0  0  0
    8.6358   -0.5534   19.8862 C   0  0  0  0  0  0  0  0  0  0  0  0
    7.2972   -0.1859   19.3193 C   0  0  0  0  0  0  0  0  0  0  0  0
    6.6287   -0.8433   18.3291 C   0  0  0  0  0  0  0  0  0  0  0  0
    5.4353   -0.2277   18.0684 N   0  0  0  0  0  0  0  0  0  0  0  0
    5.3058    0.8594   18.8971 C   0  0  0  0  0  0  0  0  0  0  0  0
    4.2828    1.7935   19.0187 C   0  0  0  0  0  0  0  0  0  0  0  0
    4.4213    2.8103   19.9493 C   0  0  0  0  0  0  0  0  0  0  0  0
    5.5512    2.8935   20.7372 C   0  0  0  0  0  0  0  0  0  0  0  0
    6.5703    1.9617   20.6189 C   0  0  0  0  0  0  0  0  0  0  0  0
    6.4637    0.9216   19.6963 C   0  0  0  0  0  0  0  0  0  0  0  0
   11.5215    1.1275   22.7959 C   0  0  0  0  0  0  0  0  0  0  0  0
   11.9875    2.5606   22.7108 C   0  0  0  0  0  0  0  0  0  0  0  0
   12.0950    3.1994   21.4852 C   0  0  0  0  0  0  0  0  0  0  0  0
   12.5257    4.5133   21.4066 C   0  0  0  0  0  0  0  0  0  0  0  0
   12.8549    5.2036   22.5533 C   0  0  0  0  0  0  0  0  0  0  0  0
   12.7538    4.5798   23.7782 C   0  0  0  0  0  0  0  0  0  0  0  0
   12.3231    3.2659   23.8562 C   0  0  0  0  0  0  0  0  0  0  0  0
  1  2  1  0
  2  3  1  0
  3  4  1  0
  4  5  1  0
  5  6  2  0
  5  7  1  0
  7  8  1  0
  7  9  1  0
  9 10  1  0
 10 11  2  0
 11 12  1  0
 12 13  1  0
 13 14  2  0
 14 15  1  0
 15 16  2  0
 16 17  1  0
 17 18  2  0
  2 19  1  0
 19 20  1  0
 20 21  2  0
 21 22  1  0
 22 23  2  0
 23 24  1  0
 24 25  2  0
 18 10  1  0
 25 20  1  0
 18 13  1  0
M  END
