CVD-0002240|dock_bobby27042020.49|mol2|28|dock2
     RDKit          3D

 43 48  0  0  0  0  0  0  0  0999 V2000
    8.1190   -5.2726   23.9500 C   0  0  0  0  0  0  0  0  0  0  0  0
    6.9315   -4.5983   23.4262 N   0  0  0  0  0  0  0  0  0  0  0  0
    5.7195   -5.4116   23.5819 C   0  0  0  0  0  0  0  0  0  0  0  0
    5.2657   -5.7001   25.0145 C   0  0  0  0  0  0  0  0  0  0  0  0
    5.8280   -5.1777   25.9680 O   0  0  0  0  0  0  0  0  0  0  0  0
    4.2322   -6.5498   25.2020 N   0  0  0  0  0  0  0  0  0  0  0  0
    3.6620   -6.9398   26.5153 C   0  0  0  0  0  0  0  0  0  0  0  0
    2.1727   -6.8624   26.4904 C   0  0  0  0  0  0  0  0  0  0  0  0
    1.6789   -5.4260   26.3356 C   0  0  0  0  0  0  0  0  0  0  0  0
    1.1463   -4.9624   25.1379 C   0  0  0  0  0  0  0  0  0  0  0  0
    0.6901   -3.6601   25.0187 C   0  0  0  0  0  0  0  0  0  0  0  0
    0.7620   -2.7980   26.0910 C   0  0  0  0  0  0  0  0  0  0  0  0
    1.2933   -3.2383   27.2832 C   0  0  0  0  0  0  0  0  0  0  0  0
    1.7497   -4.5401   27.4041 C   0  0  0  0  0  0  0  0  0  0  0  0
    1.6200   -7.7512   25.4065 C   0  0  0  0  0  0  0  0  0  0  0  0
    0.4152   -8.4377   25.5549 C   0  0  0  0  0  0  0  0  0  0  0  0
   -0.0804   -9.2621   24.5610 C   0  0  0  0  0  0  0  0  0  0  0  0
    0.6279   -9.4160   23.3886 C   0  0  0  0  0  0  0  0  0  0  0  0
    1.8256   -8.7443   23.2203 C   0  0  0  0  0  0  0  0  0  0  0  0
    2.3250   -7.9149   24.2192 C   0  0  0  0  0  0  0  0  0  0  0  0
    3.6226   -7.1345   23.9928 C   0  0  0  0  0  0  0  0  0  0  0  0
    7.1356   -4.1232   22.0539 C   0  0  0  0  0  0  0  0  0  0  0  0
    7.8977   -2.8239   21.9892 C   0  0  0  0  0  0  0  0  0  0  0  0
    9.2637   -2.6514   22.2741 C   0  0  0  0  0  0  0  0  0  0  0  0
    9.6343   -1.3268   22.1179 C   0  0  0  0  0  0  0  0  0  0  0  0
   10.9953   -0.7589   22.3224 C   0  0  0  0  0  0  0  0  0  0  0  0
   12.1341   -1.4123   21.8431 C   0  0  0  0  0  0  0  0  0  0  0  0
   13.4020   -0.8899   22.0363 C   0  0  0  0  0  0  0  0  0  0  0  0
   13.5753    0.2900   22.7220 C   0  0  0  0  0  0  0  0  0  0  0  0
   12.4742    0.9627   23.2161 C   0  0  0  0  0  0  0  0  0  0  0  0
   11.2232    0.4339   23.0021 C   0  0  0  0  0  0  0  0  0  0  0  0
   10.1861    1.1507   23.4924 F   0  0  0  0  0  0  0  0  0  0  0  0
    8.4431   -0.6486   21.7295 N   0  0  0  0  0  0  0  0  0  0  0  0
    7.4072   -1.5711   21.6554 C   0  0  0  0  0  0  0  0  0  0  0  0
    8.0897    0.9728   21.3730 S   0  0  0  0  0  0  0  0  0  0  0  0
    7.4340    1.5314   22.5147 O   0  0  0  0  0  0  0  0  0  0  0  0
    9.3337    1.5335   20.9453 O   0  0  0  0  0  0  0  0  0  0  0  0
    7.0104    0.9792   19.9831 C   0  0  0  0  0  0  0  0  0  0  0  0
    5.8356    1.7111   20.0123 C   0  0  0  0  0  0  0  0  0  0  0  0
    5.0186    1.6919   18.8952 C   0  0  0  0  0  0  0  0  0  0  0  0
    5.4068    0.9489   17.8032 C   0  0  0  0  0  0  0  0  0  0  0  0
    6.5363    0.2408   17.7604 N   0  0  0  0  0  0  0  0  0  0  0  0
    7.3205    0.2638   18.8420 C   0  0  0  0  0  0  0  0  0  0  0  0
  1  2  1  0
  2  3  1  0
  3  4  1  0
  4  5  2  0
  4  6  1  0
  6  7  1  0
  7  8  1  0
  8  9  1  0
  9 10  2  0
 10 11  1  0
 11 12  2  0
 12 13  1  0
 13 14  2  0
  8 15  1  0
 15 16  2  0
 16 17  1  0
 17 18  2  0
 18 19  1  0
 19 20  2  0
 20 21  1  0
  2 22  1  0
 22 23  1  0
 23 24  1  0
 24 25  2  0
 25 26  1  0
 26 27  2  0
 27 28  1  0
 28 29  2  0
 29 30  1  0
 30 31  2  0
 31 32  1  0
 25 33  1  0
 33 34  1  0
 33 35  1  0
 35 36  2  0
 35 37  2  0
 35 38  1  0
 38 39  2  0
 39 40  1  0
 40 41  2  0
 41 42  1  0
 42 43  2  0
 21  6  1  0
 34 23  2  0
 43 38  1  0
 14  9  1  0
 20 15  1  0
 31 26  1  0
M  END
