CVD-0003760|dock_bobby27042020.1|mol2|6|dock1
     RDKit          3D

 25 28  0  0  0  0  0  0  0  0999 V2000
   11.6390   -1.3411   21.4943 O   0  0  0  0  0  0  0  0  0  0  0  0
   13.0081   -1.5780   21.7727 C   0  0  0  0  0  0  0  0  0  0  0  0
   13.3123   -1.4838   23.2486 C   0  0  0  0  0  0  0  0  0  0  0  0
   13.9950   -2.5309   23.8598 C   0  0  0  0  0  0  0  0  0  0  0  0
   14.2570   -2.4712   25.2129 C   0  0  0  0  0  0  0  0  0  0  0  0
   13.8881   -1.4536   25.9889 N   0  0  0  0  0  0  0  0  0  0  0  0
   13.2444   -0.4432   25.3978 C   0  0  0  0  0  0  0  0  0  0  0  0
   12.9271   -0.3872   24.0409 C   0  0  0  0  0  0  0  0  0  0  0  0
   12.2093    0.8306   23.5655 C   0  0  0  0  0  0  0  0  0  0  0  0
   10.8477    1.0061   23.7952 C   0  0  0  0  0  0  0  0  0  0  0  0
   10.2042    2.1505   23.3439 C   0  0  0  0  0  0  0  0  0  0  0  0
    8.7232    2.3555   23.5895 C   0  0  0  0  0  0  0  0  0  0  0  0
    7.8462    1.9681   22.4163 C   0  0  0  0  0  0  0  0  0  0  0  0
    6.6096    2.5771   22.2578 C   0  0  0  0  0  0  0  0  0  0  0  0
    5.7863    2.2656   21.2185 C   0  0  0  0  0  0  0  0  0  0  0  0
    6.1659    1.3025   20.2546 C   0  0  0  0  0  0  0  0  0  0  0  0
    5.3511    0.9399   19.1558 C   0  0  0  0  0  0  0  0  0  0  0  0
    5.7727    0.0036   18.2587 C   0  0  0  0  0  0  0  0  0  0  0  0
    7.0001   -0.6095   18.4020 C   0  0  0  0  0  0  0  0  0  0  0  0
    7.8201   -0.2935   19.4444 C   0  0  0  0  0  0  0  0  0  0  0  0
    7.4267    0.6719   20.4014 C   0  0  0  0  0  0  0  0  0  0  0  0
    8.2434    1.0314   21.4981 C   0  0  0  0  0  0  0  0  0  0  0  0
   10.9587    3.0956   22.6706 C   0  0  0  0  0  0  0  0  0  0  0  0
   12.3041    2.8576   22.4791 C   0  0  0  0  0  0  0  0  0  0  0  0
   12.9328    1.7562   22.9095 N   0  0  0  0  0  0  0  0  0  0  0  0
  1  2  1  0
  2  3  1  0
  3  4  2  0
  4  5  1  0
  5  6  2  0
  6  7  1  0
  7  8  2  0
  8  9  1  0
  9 10  2  0
 10 11  1  0
 11 12  1  0
 12 13  1  0
 13 14  2  0
 14 15  1  0
 15 16  2  0
 16 17  1  0
 17 18  2  0
 18 19  1  0
 19 20  2  0
 20 21  1  0
 21 22  2  0
 11 23  2  0
 23 24  1  0
 24 25  2  0
  8  3  1  0
 25  9  1  0
 22 13  1  0
 21 16  1  0
M  END
