CVD-0001661|dock_bobby27042020.66|mol2|26|dock2
     RDKit          3D

 26 28  0  0  0  0  0  0  0  0999 V2000
    5.4027   -2.0950   18.2629 N   0  0  0  0  0  0  0  0  0  0  0  0
    5.4972   -0.8618   18.7902 C   0  0  0  0  0  0  0  0  0  0  0  0
    5.0936    0.2754   18.0608 C   0  0  0  0  0  0  0  0  0  0  0  0
    5.2154    1.5150   18.6582 C   0  0  0  0  0  0  0  0  0  0  0  0
    5.7249    1.5669   19.9321 C   0  0  0  0  0  0  0  0  0  0  0  0
    5.8523    2.7703   20.5367 F   0  0  0  0  0  0  0  0  0  0  0  0
    6.1112    0.4297   20.6150 C   0  0  0  0  0  0  0  0  0  0  0  0
    6.6693    0.4727   22.0172 C   0  0  0  0  0  0  0  0  0  0  0  0
    7.5944   -0.6902   22.3129 C   0  0  0  0  0  0  0  0  0  0  0  0
    7.1459   -1.7934   23.0209 C   0  0  0  0  0  0  0  0  0  0  0  0
    7.9951   -2.8543   23.2854 C   0  0  0  0  0  0  0  0  0  0  0  0
    9.3073   -2.8266   22.8437 C   0  0  0  0  0  0  0  0  0  0  0  0
    9.7754   -1.7287   22.1297 C   0  0  0  0  0  0  0  0  0  0  0  0
   11.0794   -1.6724   21.6749 N   0  0  0  0  0  0  0  0  0  0  0  0
   12.2313   -1.6286   22.5551 C   0  0  0  0  0  0  0  0  0  0  0  0
   12.9388   -0.2885   22.5025 C   0  0  0  0  0  0  0  0  0  0  0  0
   14.1506   -0.2372   22.3198 O   0  0  0  0  0  0  0  0  0  0  0  0
   12.1191    0.7757   22.6799 N   0  0  0  0  0  0  0  0  0  0  0  0
   12.3571    2.1656   22.5435 C   0  0  0  0  0  0  0  0  0  0  0  0
   13.6245    2.7265   22.4229 C   0  0  0  0  0  0  0  0  0  0  0  0
   13.7469    4.0994   22.2947 C   0  0  0  0  0  0  0  0  0  0  0  0
   12.6073    4.8702   22.2902 C   0  0  0  0  0  0  0  0  0  0  0  0
   11.3806    4.3612   22.4038 N   0  0  0  0  0  0  0  0  0  0  0  0
   11.2728    3.0352   22.5271 C   0  0  0  0  0  0  0  0  0  0  0  0
    8.9111   -0.6704   21.8717 C   0  0  0  0  0  0  0  0  0  0  0  0
    5.9955   -0.7787   20.0448 N   0  0  0  0  0  0  0  0  0  0  0  0
  1  2  1  0
  2  3  2  0
  3  4  1  0
  4  5  2  0
  5  6  1  0
  5  7  1  0
  7  8  1  0
  8  9  1  0
  9 10  2  0
 10 11  1  0
 11 12  2  0
 12 13  1  0
 13 14  1  0
 14 15  1  0
 15 16  1  0
 16 17  2  0
 16 18  1  0
 18 19  1  0
 19 20  2  0
 20 21  1  0
 21 22  2  0
 22 23  1  0
 23 24  2  0
 13 25  2  0
  7 26  2  0
 26  2  1  0
 25  9  1  0
 24 19  1  0
M  END
