CVD-0003855|dock_bobby27042020.44|mol2|7|dock1
     RDKit          3D

 30 33  0  0  0  0  0  0  0  0999 V2000
   12.9106    5.4020   21.5352 N   0  0  0  0  0  0  0  0  0  0  0  0
   13.3187    4.5776   22.8454 S   0  0  0  0  0  0  0  0  0  0  0  0
   12.7823    5.2804   23.9721 O   0  0  0  0  0  0  0  0  0  0  0  0
   14.7312    4.3507   22.7801 O   0  0  0  0  0  0  0  0  0  0  0  0
   12.5271    2.9988   22.7827 C   0  0  0  0  0  0  0  0  0  0  0  0
   11.1505    2.9205   22.6756 C   0  0  0  0  0  0  0  0  0  0  0  0
   10.5371    1.6817   22.6157 C   0  0  0  0  0  0  0  0  0  0  0  0
   11.2759    0.5028   22.6748 C   0  0  0  0  0  0  0  0  0  0  0  0
   12.6590    0.6114   22.7855 C   0  0  0  0  0  0  0  0  0  0  0  0
   13.2860    1.8438   22.8324 C   0  0  0  0  0  0  0  0  0  0  0  0
   10.6619   -0.7450   22.6264 N   0  0  0  0  0  0  0  0  0  0  0  0
    9.7503   -1.1419   21.5493 C   0  0  0  0  0  0  0  0  0  0  0  0
    8.5107   -1.8086   22.0754 C   0  0  0  0  0  0  0  0  0  0  0  0
    8.8647   -3.0191   22.9464 C   0  0  0  0  0  0  0  0  0  0  0  0
    7.6144   -3.7095   23.4867 C   0  0  0  0  0  0  0  0  0  0  0  0
    6.6313   -4.1848   22.5074 N   0  0  0  0  0  0  0  0  0  0  0  0
    6.8353   -5.5884   22.1842 C   0  0  0  0  0  0  0  0  0  0  0  0
    6.4999   -6.4949   23.4141 C   0  0  0  0  0  0  0  0  0  0  0  0
    5.0980   -6.1982   23.9752 C   0  0  0  0  0  0  0  0  0  0  0  0
    4.9306   -4.6959   24.1961 C   0  0  0  0  0  0  0  0  0  0  0  0
    5.2551   -3.9259   22.9251 C   0  0  0  0  0  0  0  0  0  0  0  0
    3.5241   -4.3480   24.6425 C   0  0  0  0  0  0  0  0  0  0  0  0
    3.3068   -3.6736   25.8358 C   0  0  0  0  0  0  0  0  0  0  0  0
    2.0231   -3.3570   26.2474 C   0  0  0  0  0  0  0  0  0  0  0  0
    0.9347   -3.7124   25.4688 C   0  0  0  0  0  0  0  0  0  0  0  0
    1.1569   -4.3826   24.2861 C   0  0  0  0  0  0  0  0  0  0  0  0
   -0.2021   -4.8367   23.2962 Cl  0  0  0  0  0  0  0  0  0  0  0  0
    2.4315   -4.7035   23.8656 C   0  0  0  0  0  0  0  0  0  0  0  0
    9.7984   -2.5701   24.0421 C   0  0  0  0  0  0  0  0  0  0  0  0
   11.0331   -1.8697   23.5163 C   0  0  0  0  0  0  0  0  0  0  0  0
  1  2  1  0
  2  3  2  0
  2  4  2  0
  2  5  1  0
  5  6  2  0
  6  7  1  0
  7  8  2  0
  8  9  1  0
  9 10  2  0
  8 11  1  0
 11 12  1  0
 12 13  1  0
 13 14  1  0
 14 15  1  0
 15 16  1  0
 16 17  1  0
 17 18  1  0
 18 19  1  0
 19 20  1  0
 20 21  1  0
 20 22  1  0
 22 23  2  0
 23 24  1  0
 24 25  2  0
 25 26  1  0
 26 27  1  0
 26 28  2  0
 14 29  1  0
 29 30  1  0
 10  5  1  0
 30 11  1  0
 21 16  1  0
 28 22  1  0
M  END
