CVD-0002191|dock_bobby27042020.35|mol2|19|dock1
     RDKit          3D

 22 24  0  0  0  0  0  0  0  0999 V2000
    6.5507   -7.2251   22.0283 Cl  0  0  0  0  0  0  0  0  0  0  0  0
    5.9023   -5.6541   21.5715 C   0  0  0  0  0  0  0  0  0  0  0  0
    6.6540   -4.6192   22.1865 N   0  0  0  0  0  0  0  0  0  0  0  0
    6.8836   -3.4552   21.5563 C   0  0  0  0  0  0  0  0  0  0  0  0
    6.0549   -3.1425   20.5402 N   0  0  0  0  0  0  0  0  0  0  0  0
    6.2612   -1.9893   19.8946 C   0  0  0  0  0  0  0  0  0  0  0  0
    7.2809   -1.1011   20.2146 C   0  0  0  0  0  0  0  0  0  0  0  0
    8.1295   -1.4347   21.2640 C   0  0  0  0  0  0  0  0  0  0  0  0
    7.9481   -2.6234   21.9611 C   0  0  0  0  0  0  0  0  0  0  0  0
    8.8886   -2.9706   23.1012 C   0  0  0  0  0  0  0  0  0  0  0  0
   10.0388   -2.0000   23.2756 C   0  0  0  0  0  0  0  0  0  0  0  0
   10.0285   -1.0602   24.2982 C   0  0  0  0  0  0  0  0  0  0  0  0
   11.0788   -0.1716   24.4649 C   0  0  0  0  0  0  0  0  0  0  0  0
   12.1653   -0.2150   23.5978 C   0  0  0  0  0  0  0  0  0  0  0  0
   13.4125    0.6190   23.5550 C   0  0  0  0  0  0  0  0  0  0  0  0
   14.1064    0.0396   22.4254 N   0  0  0  0  0  0  0  0  0  0  0  0
   13.4485   -0.9676   21.8226 C   0  0  0  0  0  0  0  0  0  0  0  0
   13.8583   -1.5992   20.8539 O   0  0  0  0  0  0  0  0  0  0  0  0
   12.1878   -1.1462   22.5753 C   0  0  0  0  0  0  0  0  0  0  0  0
   11.1289   -2.0377   22.4119 C   0  0  0  0  0  0  0  0  0  0  0  0
    7.4581    0.1297   19.4843 C   0  0  0  0  0  0  0  0  0  0  0  0
    7.5821    1.0912   18.8801 N   0  0  0  0  0  0  0  0  0  0  0  0
  1  2  1  0
  2  3  1  0
  3  4  1  0
  4  5  2  0
  5  6  1  0
  6  7  2  0
  7  8  1  0
  8  9  2  0
  9 10  1  0
 10 11  1  0
 11 12  2  0
 12 13  1  0
 13 14  2  0
 14 15  1  0
 15 16  1  0
 16 17  1  0
 17 18  2  0
 17 19  1  0
 19 20  2  0
  7 21  1  0
 21 22  3  0
  9  4  1  0
 20 11  1  0
 19 14  1  0
M  END
