CVD-0003856|dock_bobby27042020.29|mol2|30|dock2
     RDKit          3D

 30 33  0  0  0  0  0  0  0  0999 V2000
   13.2055    5.5124   21.5831 N   0  0  0  0  0  0  0  0  0  0  0  0
   13.4340    4.6157   22.8896 S   0  0  0  0  0  0  0  0  0  0  0  0
   14.8016    4.1904   22.8772 O   0  0  0  0  0  0  0  0  0  0  0  0
   12.9538    5.3686   24.0092 O   0  0  0  0  0  0  0  0  0  0  0  0
   12.4298    3.1676   22.7575 C   0  0  0  0  0  0  0  0  0  0  0  0
   11.0691    3.2887   22.5420 C   0  0  0  0  0  0  0  0  0  0  0  0
   10.2883    2.1512   22.4377 C   0  0  0  0  0  0  0  0  0  0  0  0
   10.8402    0.8790   22.5606 C   0  0  0  0  0  0  0  0  0  0  0  0
   12.2107    0.7864   22.7855 C   0  0  0  0  0  0  0  0  0  0  0  0
   13.0048    1.9156   22.8779 C   0  0  0  0  0  0  0  0  0  0  0  0
   10.0527   -0.2636   22.4632 N   0  0  0  0  0  0  0  0  0  0  0  0
    9.2095   -0.5518   21.2992 C   0  0  0  0  0  0  0  0  0  0  0  0
    7.8349   -1.0097   21.6972 C   0  0  0  0  0  0  0  0  0  0  0  0
    7.9076   -2.2330   22.6178 C   0  0  0  0  0  0  0  0  0  0  0  0
    6.5187   -2.7118   23.0285 C   0  0  0  0  0  0  0  0  0  0  0  0
    6.3898   -4.1036   23.4843 N   0  0  0  0  0  0  0  0  0  0  0  0
    6.1448   -5.0562   22.4125 C   0  0  0  0  0  0  0  0  0  0  0  0
    6.2024   -6.5236   22.9512 C   0  0  0  0  0  0  0  0  0  0  0  0
    5.2762   -6.7223   24.1640 C   0  0  0  0  0  0  0  0  0  0  0  0
    5.5288   -5.6276   25.1992 C   0  0  0  0  0  0  0  0  0  0  0  0
    5.4163   -4.2502   24.5642 C   0  0  0  0  0  0  0  0  0  0  0  0
    6.8425   -5.7864   25.9482 C   0  0  0  0  0  0  0  0  0  0  0  0
    6.8182   -6.2945   27.2406 C   0  0  0  0  0  0  0  0  0  0  0  0
    7.9822   -6.4565   27.9729 C   0  0  0  0  0  0  0  0  0  0  0  0
    9.2037   -6.1105   27.4228 C   0  0  0  0  0  0  0  0  0  0  0  0
    9.2097   -5.6132   26.1493 C   0  0  0  0  0  0  0  0  0  0  0  0
   10.4024   -5.2682   25.5930 F   0  0  0  0  0  0  0  0  0  0  0  0
    8.0718   -5.4431   25.3992 C   0  0  0  0  0  0  0  0  0  0  0  0
    8.7785   -1.8961   23.8018 C   0  0  0  0  0  0  0  0  0  0  0  0
   10.1536   -1.4040   23.4033 C   0  0  0  0  0  0  0  0  0  0  0  0
  1  2  1  0
  2  3  2  0
  2  4  2  0
  2  5  1  0
  5  6  2  0
  6  7  1  0
  7  8  2  0
  8  9  1  0
  9 10  2  0
  8 11  1  0
 11 12  1  0
 12 13  1  0
 13 14  1  0
 14 15  1  0
 15 16  1  0
 16 17  1  0
 17 18  1  0
 18 19  1  0
 19 20  1  0
 20 21  1  0
 20 22  1  0
 22 23  2  0
 23 24  1  0
 24 25  2  0
 25 26  1  0
 26 27  1  0
 26 28  2  0
 14 29  1  0
 29 30  1  0
 10  5  1  0
 30 11  1  0
 21 16  1  0
 28 22  1  0
M  END
