CVD-0001080|dock_bobby27042020.82|mol2|15|dock1
     RDKit          3D

 22 24  0  0  0  0  0  0  0  0999 V2000
    1.7077    2.8290   20.9430 C   0  0  0  0  0  0  0  0  0  0  0  0
    2.5155    3.0125   19.7818 O   0  0  0  0  0  0  0  0  0  0  0  0
    3.5436    2.1446   19.5105 C   0  0  0  0  0  0  0  0  0  0  0  0
    4.1935    2.2569   18.2939 C   0  0  0  0  0  0  0  0  0  0  0  0
    5.2353    1.4030   17.9786 C   0  0  0  0  0  0  0  0  0  0  0  0
    5.6484    0.4205   18.8721 C   0  0  0  0  0  0  0  0  0  0  0  0
    4.9855    0.3207   20.0898 C   0  0  0  0  0  0  0  0  0  0  0  0
    3.9424    1.1703   20.4136 C   0  0  0  0  0  0  0  0  0  0  0  0
    6.7704   -0.5155   18.5582 C   0  0  0  0  0  0  0  0  0  0  0  0
    6.6469   -1.2971   17.6088 O   0  0  0  0  0  0  0  0  0  0  0  0
    8.0054   -0.5137   19.3604 C   0  0  0  0  0  0  0  0  0  0  0  0
    8.1993    0.3820   20.3233 C   0  0  0  0  0  0  0  0  0  0  0  0
    9.3822    0.4801   21.1816 C   0  0  0  0  0  0  0  0  0  0  0  0
    9.6799    1.6532   21.8690 C   0  0  0  0  0  0  0  0  0  0  0  0
   10.7255    1.7938   22.6498 N   0  0  0  0  0  0  0  0  0  0  0  0
   11.5442    0.7029   22.7683 C   0  0  0  0  0  0  0  0  0  0  0  0
   12.6939    0.7649   23.5888 C   0  0  0  0  0  0  0  0  0  0  0  0
   13.5073   -0.3241   23.7043 C   0  0  0  0  0  0  0  0  0  0  0  0
   13.2276   -1.4961   23.0299 C   0  0  0  0  0  0  0  0  0  0  0  0
   12.1293   -1.6007   22.2274 C   0  0  0  0  0  0  0  0  0  0  0  0
   11.2573   -0.4983   22.0767 C   0  0  0  0  0  0  0  0  0  0  0  0
   10.1533   -0.5959   21.2733 N   0  0  0  0  0  0  0  0  0  0  0  0
  1  2  1  0
  2  3  1  0
  3  4  2  0
  4  5  1  0
  5  6  2  0
  6  7  1  0
  7  8  2  0
  6  9  1  0
  9 10  2  0
  9 11  1  0
 11 12  2  0
 12 13  1  0
 13 14  2  0
 14 15  1  0
 15 16  2  0
 16 17  1  0
 17 18  2  0
 18 19  1  0
 19 20  2  0
 20 21  1  0
 21 22  2  0
  8  3  1  0
 22 13  1  0
 21 16  1  0
M  END
