CVD-0000165|dock_bobby27042020.14|mol2|2|dock1
     RDKit          3D

 23 25  0  0  0  0  0  0  0  0999 V2000
    6.2941   -5.2917   19.7126 F   0  0  0  0  0  0  0  0  0  0  0  0
    6.4300   -5.4174   21.0206 C   0  0  0  0  0  0  0  0  0  0  0  0
    7.6686   -5.8106   21.2584 F   0  0  0  0  0  0  0  0  0  0  0  0
    5.6447   -6.4148   21.3841 F   0  0  0  0  0  0  0  0  0  0  0  0
    6.1154   -4.3023   21.6749 O   0  0  0  0  0  0  0  0  0  0  0  0
    6.9470   -3.1603   21.6488 C   0  0  0  0  0  0  0  0  0  0  0  0
    8.0243   -3.0126   22.5085 C   0  0  0  0  0  0  0  0  0  0  0  0
    8.8073   -1.8740   22.4413 C   0  0  0  0  0  0  0  0  0  0  0  0
    8.5328   -0.8682   21.5219 C   0  0  0  0  0  0  0  0  0  0  0  0
    7.4482   -1.0313   20.6661 C   0  0  0  0  0  0  0  0  0  0  0  0
    6.6612   -2.1674   20.7280 C   0  0  0  0  0  0  0  0  0  0  0  0
    9.3912    0.3507   21.4679 C   0  0  0  0  0  0  0  0  0  0  0  0
    9.2608    1.1656   20.5730 O   0  0  0  0  0  0  0  0  0  0  0  0
   10.4406    0.5551   22.5456 C   0  0  0  0  0  0  0  0  0  0  0  0
   11.4916   -0.4411   22.4693 N   0  0  0  0  0  0  0  0  0  0  0  0
   11.6311   -1.2096   21.3575 N   0  0  0  0  0  0  0  0  0  0  0  0
   12.6048   -2.0544   21.5454 N   0  0  0  0  0  0  0  0  0  0  0  0
   13.0965   -1.8648   22.8177 C   0  0  0  0  0  0  0  0  0  0  0  0
   14.1159   -2.5028   23.5229 C   0  0  0  0  0  0  0  0  0  0  0  0
   14.3882   -2.0922   24.8188 C   0  0  0  0  0  0  0  0  0  0  0  0
   13.6694   -1.0715   25.4098 C   0  0  0  0  0  0  0  0  0  0  0  0
   12.6542   -0.4235   24.7240 C   0  0  0  0  0  0  0  0  0  0  0  0
   12.3823   -0.8324   23.4239 C   0  0  0  0  0  0  0  0  0  0  0  0
  1  2  1  0
  2  3  1  0
  2  4  1  0
  2  5  1  0
  5  6  1  0
  6  7  2  0
  7  8  1  0
  8  9  2  0
  9 10  1  0
 10 11  2  0
  9 12  1  0
 12 13  2  0
 12 14  1  0
 14 15  1  0
 15 16  1  0
 16 17  2  0
 17 18  1  0
 18 19  2  0
 19 20  1  0
 20 21  2  0
 21 22  1  0
 22 23  2  0
 11  6  1  0
 23 15  1  0
 23 18  1  0
M  END
