CVD-0000946|dock_bobby27042020.40|mol2|2|dock3
     RDKit          3D

 17 18  0  0  0  0  0  0  0  0999 V2000
    7.6360   -0.0820   19.3207 C   0  0  0  0  0  0  0  0  0  0  0  0
    7.8650   -0.0781   20.7880 C   0  0  0  0  0  0  0  0  0  0  0  0
    9.2478    0.2045   21.0359 O   0  0  0  0  0  0  0  0  0  0  0  0
    9.6544    0.2438   22.4119 C   0  0  0  0  0  0  0  0  0  0  0  0
    9.8858   -1.1765   22.9695 C   0  0  0  0  0  0  0  0  0  0  0  0
   11.1167   -1.7579   22.2404 C   0  0  0  0  0  0  0  0  0  0  0  0
   12.4186   -1.0396   22.5811 C   0  0  0  0  0  0  0  0  0  0  0  0
   13.4624   -1.4932   21.6481 C   0  0  0  0  0  0  0  0  0  0  0  0
   14.2457   -1.8742   20.9143 N   0  0  0  0  0  0  0  0  0  0  0  0
   12.2043    0.4511   22.5170 C   0  0  0  0  0  0  0  0  0  0  0  0
   13.1698    1.4874   22.5282 C   0  0  0  0  0  0  0  0  0  0  0  0
   12.6850    2.7632   22.4423 C   0  0  0  0  0  0  0  0  0  0  0  0
   10.9578    2.7361   22.3411 S   0  0  0  0  0  0  0  0  0  0  0  0
   10.9547    1.0041   22.4184 C   0  0  0  0  0  0  0  0  0  0  0  0
   13.4383    4.0520   22.4064 C   0  0  0  0  0  0  0  0  0  0  0  0
   13.0086    5.0566   21.6500 N   0  0  0  0  0  0  0  0  0  0  0  0
   14.4588    4.1391   23.0988 O   0  0  0  0  0  0  0  0  0  0  0  0
  1  2  1  0
  2  3  1  0
  3  4  1  0
  4  5  1  0
  5  6  1  0
  6  7  1  0
  7  8  1  0
  8  9  3  0
  7 10  1  0
 10 11  1  0
 11 12  2  0
 12 13  1  0
 13 14  1  0
 12 15  1  0
 15 16  1  0
 15 17  2  0
 14  4  1  0
 14 10  2  0
M  END
