CVD-0001500|dock_bobby27042020.80|mol2|49|dock3
     RDKit          3D

 25 27  0  0  0  0  0  0  0  0999 V2000
   14.0788    7.1208   23.5188 O   0  0  0  0  0  0  0  0  0  0  0  0
   14.6709    6.0622   23.0204 C   0  0  0  0  0  0  0  0  0  0  0  0
   15.5607    5.4738   23.5946 O   0  0  0  0  0  0  0  0  0  0  0  0
   14.1421    5.6476   21.6765 C   0  0  0  0  0  0  0  0  0  0  0  0
   12.7282    5.0913   21.6985 C   0  0  0  0  0  0  0  0  0  0  0  0
   12.6337    3.7137   22.2981 C   0  0  0  0  0  0  0  0  0  0  0  0
   11.9572    2.7135   21.7132 C   0  0  0  0  0  0  0  0  0  0  0  0
   11.8925    1.3974   22.4338 C   0  0  0  0  0  0  0  0  0  0  0  0
   13.3176    1.2860   22.9380 C   0  0  0  0  0  0  0  0  0  0  0  0
   13.4853   -0.1210   23.1956 N   0  0  0  0  0  0  0  0  0  0  0  0
   12.6651   -0.8157   22.4031 C   0  0  0  0  0  0  0  0  0  0  0  0
   11.7711    0.0120   21.8317 C   0  0  0  0  0  0  0  0  0  0  0  0
   10.8097   -0.3817   20.8712 N   0  0  0  0  0  0  0  0  0  0  0  0
    9.5142    0.1034   20.6660 C   0  0  0  0  0  0  0  0  0  0  0  0
    9.0290    0.9947   21.3529 O   0  0  0  0  0  0  0  0  0  0  0  0
    8.8763   -0.5398   19.6329 N   0  0  0  0  0  0  0  0  0  0  0  0
    7.5731   -0.3755   19.0997 C   0  0  0  0  0  0  0  0  0  0  0  0
    6.8994   -1.5164   18.6791 C   0  0  0  0  0  0  0  0  0  0  0  0
    5.6236   -1.4261   18.1489 C   0  0  0  0  0  0  0  0  0  0  0  0
    5.0004   -0.1965   18.0303 C   0  0  0  0  0  0  0  0  0  0  0  0
    5.6649    0.9448   18.4469 C   0  0  0  0  0  0  0  0  0  0  0  0
    5.0583    2.1616   18.3338 O   0  0  0  0  0  0  0  0  0  0  0  0
    6.9437    0.8626   18.9792 C   0  0  0  0  0  0  0  0  0  0  0  0
   13.6032    2.2706   23.9610 N   0  0  0  0  0  0  0  0  0  0  0  0
   13.2676    3.4312   23.5555 C   0  0  0  0  0  0  0  0  0  0  0  0
  1  2  1  0
  2  3  2  0
  2  4  1  0
  4  5  1  0
  5  6  1  0
  6  7  2  0
  7  8  1  0
  8  9  1  0
  9 10  1  0
 10 11  1  0
 11 12  2  0
 12 13  1  0
 13 14  1  0
 14 15  2  0
 14 16  1  0
 16 17  1  0
 17 18  2  0
 18 19  1  0
 19 20  2  0
 20 21  1  0
 21 22  1  0
 21 23  2  0
  9 24  1  0
 24 25  2  0
 25  6  1  0
 12  8  1  0
 23 17  1  0
M  END
