CVD-0000974|dock_bobby27042020.25|mol2|28|dock1
     RDKit          3D

 30 33  0  0  0  0  0  0  0  0999 V2000
    3.0294   -7.4639   25.3656 C   0  0  0  0  0  0  0  0  0  0  0  0
    3.2311   -6.1573   24.8319 O   0  0  0  0  0  0  0  0  0  0  0  0
    4.2335   -5.9971   23.9467 C   0  0  0  0  0  0  0  0  0  0  0  0
    4.5669   -4.6944   23.6208 C   0  0  0  0  0  0  0  0  0  0  0  0
    5.6067   -4.4780   22.7170 C   0  0  0  0  0  0  0  0  0  0  0  0
    6.0216   -3.1946   22.3264 N   0  0  0  0  0  0  0  0  0  0  0  0
    7.3172   -2.6659   22.2140 C   0  0  0  0  0  0  0  0  0  0  0  0
    8.3333   -2.9696   23.1223 C   0  0  0  0  0  0  0  0  0  0  0  0
    9.5963   -2.4231   22.9813 C   0  0  0  0  0  0  0  0  0  0  0  0
    9.9067   -1.5730   21.9326 C   0  0  0  0  0  0  0  0  0  0  0  0
    8.9178   -1.2719   21.0118 C   0  0  0  0  0  0  0  0  0  0  0  0
    7.6425   -1.8020   21.1479 C   0  0  0  0  0  0  0  0  0  0  0  0
    6.4626   -1.3323   19.9100 S   0  0  0  0  0  0  0  0  0  0  0  0
    5.4400   -0.2837   20.5566 N   0  0  0  0  0  0  0  0  0  0  0  0
    5.7118   -2.5040   19.5716 O   0  0  0  0  0  0  0  0  0  0  0  0
    7.1771   -0.6449   18.8766 O   0  0  0  0  0  0  0  0  0  0  0  0
   11.3050   -0.9877   21.7910 C   0  0  0  0  0  0  0  0  0  0  0  0
   12.1416   -1.7197   20.8503 N   0  0  0  0  0  0  0  0  0  0  0  0
   13.2682   -2.2272   21.3858 C   0  0  0  0  0  0  0  0  0  0  0  0
   14.1126   -2.8927   20.7960 O   0  0  0  0  0  0  0  0  0  0  0  0
   13.2820   -1.8085   22.8047 C   0  0  0  0  0  0  0  0  0  0  0  0
   14.2185   -2.0290   23.8139 C   0  0  0  0  0  0  0  0  0  0  0  0
   13.9859   -1.5063   25.0776 C   0  0  0  0  0  0  0  0  0  0  0  0
   12.8422   -0.7768   25.3344 C   0  0  0  0  0  0  0  0  0  0  0  0
   11.9128   -0.5593   24.3291 C   0  0  0  0  0  0  0  0  0  0  0  0
   12.1332   -1.0780   23.0556 C   0  0  0  0  0  0  0  0  0  0  0  0
    6.2552   -5.5964   22.1672 C   0  0  0  0  0  0  0  0  0  0  0  0
    7.3912   -5.4988   21.1819 C   0  0  0  0  0  0  0  0  0  0  0  0
    5.8119   -6.8474   22.5774 C   0  0  0  0  0  0  0  0  0  0  0  0
    4.8259   -7.0652   23.4514 N   0  0  0  0  0  0  0  0  0  0  0  0
  1  2  1  0
  2  3  1  0
  3  4  2  0
  4  5  1  0
  5  6  1  0
  6  7  1  0
  7  8  2  0
  8  9  1  0
  9 10  2  0
 10 11  1  0
 11 12  2  0
 12 13  1  0
 13 14  1  0
 13 15  2  0
 13 16  2  0
 10 17  1  0
 17 18  1  0
 18 19  1  0
 19 20  2  0
 19 21  1  0
 21 22  2  0
 22 23  1  0
 23 24  2  0
 24 25  1  0
 25 26  2  0
  5 27  2  0
 27 28  1  0
 27 29  1  0
 29 30  2  0
 30  3  1  0
 12  7  1  0
 26 17  1  0
 26 21  1  0
M  END
