CVD-0002138|dock_bobby27042020.50|mol2|9|dock1
     RDKit          3D

 26 29  0  0  0  0  0  0  0  0999 V2000
   14.4013   -1.3979   23.7627 N   0  0  0  0  0  0  0  0  0  0  0  0
   13.0932   -0.9426   24.2843 C   0  0  0  0  0  0  0  0  0  0  0  0
   12.0596   -0.5452   23.2345 C   0  0  0  0  0  0  0  0  0  0  0  0
   10.7763   -0.9452   23.7233 O   0  0  0  0  0  0  0  0  0  0  0  0
    9.7362   -0.5929   22.7991 C   0  0  0  0  0  0  0  0  0  0  0  0
    9.5830    0.9026   22.7349 C   0  0  0  0  0  0  0  0  0  0  0  0
   10.8987    1.6356   22.7343 C   0  0  0  0  0  0  0  0  0  0  0  0
   10.9498    3.0216   22.5152 C   0  0  0  0  0  0  0  0  0  0  0  0
    9.8199    3.7758   22.3498 O   0  0  0  0  0  0  0  0  0  0  0  0
   12.1747    3.6842   22.4656 C   0  0  0  0  0  0  0  0  0  0  0  0
   12.1948    5.0290   22.2765 O   0  0  0  0  0  0  0  0  0  0  0  0
   13.3558    2.9778   22.6326 C   0  0  0  0  0  0  0  0  0  0  0  0
   13.3026    1.6132   22.8482 C   0  0  0  0  0  0  0  0  0  0  0  0
   12.0838    0.9312   22.9013 C   0  0  0  0  0  0  0  0  0  0  0  0
    8.4650   -1.3018   23.2641 C   0  0  0  0  0  0  0  0  0  0  0  0
    7.2697   -0.9286   22.3890 C   0  0  0  0  0  0  0  0  0  0  0  0
    6.0318   -1.7370   22.8161 C   0  0  0  0  0  0  0  0  0  0  0  0
    6.3453   -3.2660   22.9177 C   0  0  0  0  0  0  0  0  0  0  0  0
    7.5042   -3.4996   23.7652 N   0  0  0  0  0  0  0  0  0  0  0  0
    7.7480   -4.9366   23.9090 C   0  0  0  0  0  0  0  0  0  0  0  0
    8.6516   -5.2621   25.0562 C   0  0  0  0  0  0  0  0  0  0  0  0
    8.7895   -4.4927   26.1587 C   0  0  0  0  0  0  0  0  0  0  0  0
    9.9057   -5.1973   27.2331 S   0  0  0  0  0  0  0  0  0  0  0  0
   10.1201   -6.4848   26.1348 C   0  0  0  0  0  0  0  0  0  0  0  0
    9.4188   -6.4103   25.0429 N   0  0  0  0  0  0  0  0  0  0  0  0
    8.6867   -2.8065   23.2587 C   0  0  0  0  0  0  0  0  0  0  0  0
  1  2  1  0
  2  3  1  0
  3  4  1  0
  4  5  1  0
  5  6  1  0
  6  7  1  0
  7  8  2  0
  8  9  1  0
  8 10  1  0
 10 11  1  0
 10 12  2  0
 12 13  1  0
 13 14  2  0
  5 15  1  0
 15 16  1  0
 16 17  1  0
 17 18  1  0
 18 19  1  0
 19 20  1  0
 20 21  1  0
 21 22  2  0
 22 23  1  0
 23 24  1  0
 24 25  2  0
 19 26  1  0
 14  3  1  0
 26 15  1  0
 14  7  1  0
 25 21  1  0
M  END
