CVD-0002011|dock_bobby27042020.93|mol2|18|dock3
     RDKit          3D

 19 21  0  0  0  0  0  0  0  0999 V2000
   13.9668   -2.2596   23.3500 C   0  0  0  0  0  0  0  0  0  0  0  0
   13.0363   -1.9766   22.1728 C   0  0  0  0  0  0  0  0  0  0  0  0
   13.8182   -1.9532   20.8725 C   0  0  0  0  0  0  0  0  0  0  0  0
   14.4651   -0.8336   20.6657 O   0  0  0  0  0  0  0  0  0  0  0  0
   13.8377   -2.8870   20.1012 O   0  0  0  0  0  0  0  0  0  0  0  0
   12.2760   -0.6721   22.3359 C   0  0  0  0  0  0  0  0  0  0  0  0
   10.8876   -0.6263   22.3313 C   0  0  0  0  0  0  0  0  0  0  0  0
   10.2443    0.5913   22.4762 C   0  0  0  0  0  0  0  0  0  0  0  0
   11.0195    1.7379   22.6237 C   0  0  0  0  0  0  0  0  0  0  0  0
   12.4243    1.5874   22.6164 C   0  0  0  0  0  0  0  0  0  0  0  0
   13.0552    0.4145   22.4764 N   0  0  0  0  0  0  0  0  0  0  0  0
   13.0132    2.8144   22.7727 N   0  0  0  0  0  0  0  0  0  0  0  0
   12.0168    3.7691   22.8825 C   0  0  0  0  0  0  0  0  0  0  0  0
   12.0792    5.1466   23.0530 C   0  0  0  0  0  0  0  0  0  0  0  0
   10.8910    5.8530   23.1305 C   0  0  0  0  0  0  0  0  0  0  0  0
    9.7142    5.1420   23.0331 C   0  0  0  0  0  0  0  0  0  0  0  0
    8.2067    6.0030   23.1271 Cl  0  0  0  0  0  0  0  0  0  0  0  0
    9.5960    3.8291   22.8702 N   0  0  0  0  0  0  0  0  0  0  0  0
   10.7535    3.1585   22.7968 C   0  0  0  0  0  0  0  0  0  0  0  0
  2  1  1  0
  2  3  1  0
  3  4  1  0
  3  5  2  0
  2  6  1  0
  6  7  2  0
  7  8  1  0
  8  9  2  0
  9 10  1  0
 10 11  2  0
 10 12  1  0
 12 13  1  0
 13 14  2  0
 14 15  1  0
 15 16  2  0
 16 17  1  0
 16 18  1  0
 18 19  2  0
 11  6  1  0
 19 13  1  0
 19  9  1  0
M  END
