CVD-0001908|dock_bobby27042020.8|mol2|8|dock3
     RDKit          3D

 34 36  0  0  0  0  0  0  0  0999 V2000
    8.2363    4.4396   24.1465 C   0  0  0  0  0  0  0  0  0  0  0  0
    8.8303    4.3151   22.7675 C   0  0  0  0  0  0  0  0  0  0  0  0
   10.3115    4.0179   22.7397 C   0  0  0  0  0  0  0  0  0  0  0  0
   11.1906    5.0941   22.6482 C   0  0  0  0  0  0  0  0  0  0  0  0
   12.5603    4.9140   22.7073 C   0  0  0  0  0  0  0  0  0  0  0  0
   13.0760    3.6411   22.8633 C   0  0  0  0  0  0  0  0  0  0  0  0
   12.2392    2.5305   22.9262 C   0  0  0  0  0  0  0  0  0  0  0  0
   12.8340    1.1562   23.0873 C   0  0  0  0  0  0  0  0  0  0  0  0
   10.8567    2.7223   22.8253 C   0  0  0  0  0  0  0  0  0  0  0  0
   10.0462    1.5354   22.8244 N   0  0  0  0  0  0  0  0  0  0  0  0
    9.2298    1.1062   21.8296 C   0  0  0  0  0  0  0  0  0  0  0  0
    9.0532    1.6753   20.7557 O   0  0  0  0  0  0  0  0  0  0  0  0
    8.5280   -0.2291   22.1572 C   0  0  0  0  0  0  0  0  0  0  0  0
    9.5026   -1.2797   22.5549 N   0  0  0  0  0  0  0  0  0  0  0  0
   10.7019   -1.3271   21.8536 C   0  0  0  0  0  0  0  0  0  0  0  0
   10.9329   -0.5296   20.9463 O   0  0  0  0  0  0  0  0  0  0  0  0
   11.7733   -2.3164   22.1722 C   0  0  0  0  0  0  0  0  0  0  0  0
   12.9273   -2.2704   21.5603 C   0  0  0  0  0  0  0  0  0  0  0  0
    9.1372   -2.1626   23.6261 C   0  0  0  0  0  0  0  0  0  0  0  0
    8.8302   -3.4894   23.3492 C   0  0  0  0  0  0  0  0  0  0  0  0
    8.4836   -4.3645   24.3633 C   0  0  0  0  0  0  0  0  0  0  0  0
    8.4335   -3.9466   25.6843 C   0  0  0  0  0  0  0  0  0  0  0  0
    8.7450   -2.6243   25.9615 C   0  0  0  0  0  0  0  0  0  0  0  0
    9.0923   -1.7449   24.9513 C   0  0  0  0  0  0  0  0  0  0  0  0
    8.0567   -4.9047   26.7894 C   0  0  0  0  0  0  0  0  0  0  0  0
    6.5794   -5.2405   26.7748 C   0  0  0  0  0  0  0  0  0  0  0  0
    8.7192   -6.1456   26.6360 O   0  0  0  0  0  0  0  0  0  0  0  0
   10.1366   -6.0352   26.6873 C   0  0  0  0  0  0  0  0  0  0  0  0
    7.5701   -0.6834   21.0607 C   0  0  0  0  0  0  0  0  0  0  0  0
    7.9989   -1.1142   19.8125 C   0  0  0  0  0  0  0  0  0  0  0  0
    7.0719   -1.5064   18.8626 C   0  0  0  0  0  0  0  0  0  0  0  0
    5.7357   -1.4585   19.1889 C   0  0  0  0  0  0  0  0  0  0  0  0
    5.2893   -1.0517   20.3779 N   0  0  0  0  0  0  0  0  0  0  0  0
    6.2020   -0.6763   21.2789 C   0  0  0  0  0  0  0  0  0  0  0  0
  1  2  1  0
  2  3  1  0
  3  4  2  0
  4  5  1  0
  5  6  2  0
  6  7  1  0
  7  8  1  0
  7  9  2  0
  9 10  1  0
 10 11  1  0
 11 12  2  0
 11 13  1  0
 13 14  1  0
 14 15  1  0
 15 16  2  0
 15 17  1  0
 17 18  2  0
 14 19  1  0
 19 20  2  0
 20 21  1  0
 21 22  2  0
 22 23  1  0
 23 24  2  0
 22 25  1  0
 25 26  1  0
 25 27  1  0
 27 28  1  0
 13 29  1  0
 29 30  2  0
 30 31  1  0
 31 32  2  0
 32 33  1  0
 33 34  2  0
  9  3  1  0
 24 19  1  0
 34 29  1  0
M  END
