CVD-0002989|dock_bobby27042020.18|mol2|6|dock3
     RDKit          3D

 22 24  0  0  0  0  0  0  0  0999 V2000
   14.0570   -2.8811   21.6456 Cl  0  0  0  0  0  0  0  0  0  0  0  0
   13.7671   -2.6562   23.3755 C   0  0  0  0  0  0  0  0  0  0  0  0
   13.5759   -1.1877   23.7025 C   0  0  0  0  0  0  0  0  0  0  0  0
   14.3201   -0.6197   24.4919 O   0  0  0  0  0  0  0  0  0  0  0  0
   12.5603   -0.5305   23.1000 N   0  0  0  0  0  0  0  0  0  0  0  0
   11.5994   -1.1253   22.1384 C   0  0  0  0  0  0  0  0  0  0  0  0
   10.2004   -0.7364   22.4785 C   0  0  0  0  0  0  0  0  0  0  0  0
    9.7432   -1.3375   23.8036 C   0  0  0  0  0  0  0  0  0  0  0  0
    9.4350   -2.6907   23.8846 C   0  0  0  0  0  0  0  0  0  0  0  0
    9.0034   -3.2576   25.0723 C   0  0  0  0  0  0  0  0  0  0  0  0
    8.8759   -2.4786   26.2084 C   0  0  0  0  0  0  0  0  0  0  0  0
    9.1869   -1.1254   26.1485 C   0  0  0  0  0  0  0  0  0  0  0  0
    9.6205   -0.5620   24.9505 C   0  0  0  0  0  0  0  0  0  0  0  0
    9.0627   -0.2994   27.3242 C   0  0  0  0  0  0  0  0  0  0  0  0
    8.9971    0.3600   28.2547 N   0  0  0  0  0  0  0  0  0  0  0  0
   10.0598    0.7638   22.4825 C   0  0  0  0  0  0  0  0  0  0  0  0
    8.8920    1.3991   22.0614 C   0  0  0  0  0  0  0  0  0  0  0  0
    8.7737    2.7773   22.0569 C   0  0  0  0  0  0  0  0  0  0  0  0
    9.8328    3.5523   22.4782 C   0  0  0  0  0  0  0  0  0  0  0  0
   11.0009    2.9428   22.9002 C   0  0  0  0  0  0  0  0  0  0  0  0
   11.1208    1.5569   22.9050 C   0  0  0  0  0  0  0  0  0  0  0  0
   12.3979    0.8975   23.4320 C   0  0  0  0  0  0  0  0  0  0  0  0
  1  2  1  0
  2  3  1  0
  3  4  2  0
  3  5  1  0
  5  6  1  0
  6  7  1  0
  7  8  1  0
  8  9  2  0
  9 10  1  0
 10 11  2  0
 11 12  1  0
 12 13  2  0
 12 14  1  0
 14 15  3  0
  7 16  1  0
 16 17  2  0
 17 18  1  0
 18 19  2  0
 19 20  1  0
 20 21  2  0
 21 22  1  0
 22  5  1  0
 13  8  1  0
 21 16  1  0
M  END
