CVD-0001897|dock_bobby27042020.65|mol2|33|dock2
     RDKit          3D

 33 35  0  0  0  0  0  0  0  0999 V2000
    9.8406   -5.6575   26.8277 C   0  0  0  0  0  0  0  0  0  0  0  0
    8.5910   -5.1415   27.5256 C   0  0  0  0  0  0  0  0  0  0  0  0
    7.4292   -4.7909   26.5907 C   0  0  0  0  0  0  0  0  0  0  0  0
    6.2938   -4.1737   27.4182 C   0  0  0  0  0  0  0  0  0  0  0  0
    6.8800   -6.0842   25.9736 C   0  0  0  0  0  0  0  0  0  0  0  0
    7.9122   -3.8201   25.5027 C   0  0  0  0  0  0  0  0  0  0  0  0
    7.7957   -4.1328   24.1526 C   0  0  0  0  0  0  0  0  0  0  0  0
    8.2169   -3.2541   23.1704 C   0  0  0  0  0  0  0  0  0  0  0  0
    8.7733   -2.0283   23.5057 C   0  0  0  0  0  0  0  0  0  0  0  0
    8.9026   -1.7113   24.8518 C   0  0  0  0  0  0  0  0  0  0  0  0
    8.4800   -2.5934   25.8303 C   0  0  0  0  0  0  0  0  0  0  0  0
    9.2064   -1.1344   22.4736 N   0  0  0  0  0  0  0  0  0  0  0  0
    8.3058   -0.0408   22.0286 C   0  0  0  0  0  0  0  0  0  0  0  0
    9.1092    1.2558   21.7721 C   0  0  0  0  0  0  0  0  0  0  0  0
    8.7286    1.9965   20.8706 O   0  0  0  0  0  0  0  0  0  0  0  0
   10.1917    1.4901   22.5635 N   0  0  0  0  0  0  0  0  0  0  0  0
   11.1176    2.5642   22.5789 C   0  0  0  0  0  0  0  0  0  0  0  0
   12.4866    2.4065   22.7863 C   0  0  0  0  0  0  0  0  0  0  0  0
   13.3301    3.5036   22.7862 C   0  0  0  0  0  0  0  0  0  0  0  0
   12.8082    4.7606   22.5802 C   0  0  0  0  0  0  0  0  0  0  0  0
   13.8716    6.1398   22.5805 Cl  0  0  0  0  0  0  0  0  0  0  0  0
   11.4603    4.9456   22.3741 C   0  0  0  0  0  0  0  0  0  0  0  0
   10.6205    3.8465   22.3744 C   0  0  0  0  0  0  0  0  0  0  0  0
    7.4162   -0.4688   20.8694 C   0  0  0  0  0  0  0  0  0  0  0  0
    7.9372   -1.0615   19.7297 C   0  0  0  0  0  0  0  0  0  0  0  0
    7.0905   -1.4327   18.6998 C   0  0  0  0  0  0  0  0  0  0  0  0
    5.7414   -1.1977   18.8423 C   0  0  0  0  0  0  0  0  0  0  0  0
    5.2086   -0.6290   19.9252 N   0  0  0  0  0  0  0  0  0  0  0  0
    6.0447   -0.2788   20.9071 C   0  0  0  0  0  0  0  0  0  0  0  0
   10.4567   -1.1863   21.8754 C   0  0  0  0  0  0  0  0  0  0  0  0
   10.7891   -0.3676   21.0194 O   0  0  0  0  0  0  0  0  0  0  0  0
   11.4560   -2.2247   22.2604 C   0  0  0  0  0  0  0  0  0  0  0  0
   12.6869   -2.1583   21.8270 C   0  0  0  0  0  0  0  0  0  0  0  0
  1  2  1  0
  2  3  1  0
  3  4  1  0
  3  5  1  0
  3  6  1  0
  6  7  2  0
  7  8  1  0
  8  9  2  0
  9 10  1  0
 10 11  2  0
  9 12  1  0
 12 13  1  0
 13 14  1  0
 14 15  2  0
 14 16  1  0
 16 17  1  0
 17 18  2  0
 18 19  1  0
 19 20  2  0
 20 21  1  0
 20 22  1  0
 22 23  2  0
 13 24  1  0
 24 25  2  0
 25 26  1  0
 26 27  2  0
 27 28  1  0
 28 29  2  0
 12 30  1  0
 30 31  2  0
 30 32  1  0
 32 33  2  0
 11  6  1  0
 23 17  1  0
 29 24  1  0
M  END
