CVD-0002075|dock_bobby27042020.79|mol2|1|dock2
     RDKit          3D

 34 37  0  0  0  0  0  0  0  0999 V2000
    9.0781    4.1905   22.5286 F   0  0  0  0  0  0  0  0  0  0  0  0
   10.3273    3.6558   22.5951 C   0  0  0  0  0  0  0  0  0  0  0  0
   11.3931    4.5111   22.6939 C   0  0  0  0  0  0  0  0  0  0  0  0
   12.6696    3.9807   22.7623 C   0  0  0  0  0  0  0  0  0  0  0  0
   12.8282    2.5997   22.7286 C   0  0  0  0  0  0  0  0  0  0  0  0
   13.9572    1.8192   22.7787 N   0  0  0  0  0  0  0  0  0  0  0  0
   13.5888    0.5030   22.7119 C   0  0  0  0  0  0  0  0  0  0  0  0
   12.2326    0.3952   22.6185 C   0  0  0  0  0  0  0  0  0  0  0  0
   11.4203   -0.8736   22.5226 C   0  0  0  0  0  0  0  0  0  0  0  0
   10.3708   -0.8234   21.5021 N   0  0  0  0  0  0  0  0  0  0  0  0
    9.0736   -1.3263   21.9603 C   0  0  0  0  0  0  0  0  0  0  0  0
    8.0243   -1.3407   20.8656 C   0  0  0  0  0  0  0  0  0  0  0  0
    7.2454   -2.2822   20.7538 O   0  0  0  0  0  0  0  0  0  0  0  0
    8.0032   -0.2821   20.0603 N   0  0  0  0  0  0  0  0  0  0  0  0
    7.0465   -0.1522   18.9710 C   0  0  0  0  0  0  0  0  0  0  0  0
    5.7473    0.4916   19.3911 C   0  0  0  0  0  0  0  0  0  0  0  0
    5.3086    0.4208   20.7039 C   0  0  0  0  0  0  0  0  0  0  0  0
    4.1195    1.0135   21.0898 C   0  0  0  0  0  0  0  0  0  0  0  0
    3.3344    1.6963   20.1745 C   0  0  0  0  0  0  0  0  0  0  0  0
    2.0348    2.3399   20.5946 C   0  0  0  0  0  0  0  0  0  0  0  0
    2.1805    3.7643   20.9247 N   0  0  0  0  0  0  0  0  0  0  0  0
    2.0378    4.5869   19.7198 C   0  0  0  0  0  0  0  0  0  0  0  0
    2.1480    6.0586   20.0726 C   0  0  0  0  0  0  0  0  0  0  0  0
    3.4305    6.3338   20.7243 N   0  0  0  0  0  0  0  0  0  0  0  0
    3.6302    5.4826   21.9013 C   0  0  0  0  0  0  0  0  0  0  0  0
    3.4878    4.0193   21.5239 C   0  0  0  0  0  0  0  0  0  0  0  0
    4.2848    7.2806   20.2864 C   0  0  0  0  0  0  0  0  0  0  0  0
    4.0335    7.9796   19.3128 O   0  0  0  0  0  0  0  0  0  0  0  0
    5.5799    7.4335   21.0597 C   0  0  0  0  0  0  0  0  0  0  0  0
    6.5775    8.7239   20.3764 Cl  0  0  0  0  0  0  0  0  0  0  0  0
    3.7723    1.7673   18.8616 C   0  0  0  0  0  0  0  0  0  0  0  0
    4.9615    1.1744   18.4761 C   0  0  0  0  0  0  0  0  0  0  0  0
   11.7213    1.7360   22.6269 C   0  0  0  0  0  0  0  0  0  0  0  0
   10.4424    2.2865   22.5589 C   0  0  0  0  0  0  0  0  0  0  0  0
  1  2  1  0
  2  3  2  0
  3  4  1  0
  4  5  2  0
  5  6  1  0
  6  7  1  0
  7  8  2  0
  8  9  1  0
  9 10  1  0
 10 11  1  0
 11 12  1  0
 12 13  2  0
 12 14  1  0
 14 15  1  0
 15 16  1  0
 16 17  2  0
 17 18  1  0
 18 19  2  0
 19 20  1  0
 20 21  1  0
 21 22  1  0
 22 23  1  0
 23 24  1  0
 24 25  1  0
 25 26  1  0
 24 27  1  0
 27 28  2  0
 27 29  1  0
 29 30  1  0
 19 31  1  0
 31 32  2  0
  8 33  1  0
 33 34  2  0
 34  2  1  0
 33  5  1  0
 32 16  1  0
 26 21  1  0
M  END
