CVD-0002478|dock_bobby27042020.20|mol2|4|dock2
     RDKit          3D

 29 32  0  0  0  0  0  0  0  0999 V2000
    0.9307   -5.4916   23.1225 F   0  0  0  0  0  0  0  0  0  0  0  0
    2.1757   -5.7280   23.6344 C   0  0  0  0  0  0  0  0  0  0  0  0
    2.5302   -5.6214   24.9003 C   0  0  0  0  0  0  0  0  0  0  0  0
    3.9045   -5.9225   25.3726 C   0  0  0  0  0  0  0  0  0  0  0  0
    4.8686   -5.9348   24.1990 C   0  0  0  0  0  0  0  0  0  0  0  0
    4.3851   -6.7107   23.0639 N   0  0  0  0  0  0  0  0  0  0  0  0
    5.3936   -6.7884   22.0060 C   0  0  0  0  0  0  0  0  0  0  0  0
    6.0446   -5.4640   21.7422 C   0  0  0  0  0  0  0  0  0  0  0  0
    5.5583   -4.6191   20.8967 N   0  0  0  0  0  0  0  0  0  0  0  0
    6.3129   -3.4510   20.8055 N   0  0  0  0  0  0  0  0  0  0  0  0
    7.3453   -3.4629   21.5952 C   0  0  0  0  0  0  0  0  0  0  0  0
    7.4935   -4.9153   22.5326 S   0  0  0  0  0  0  0  0  0  0  0  0
    8.3206   -2.3730   21.7156 C   0  0  0  0  0  0  0  0  0  0  0  0
    8.0121   -1.0705   21.3507 C   0  0  0  0  0  0  0  0  0  0  0  0
    8.9857   -0.0994   21.4942 C   0  0  0  0  0  0  0  0  0  0  0  0
   10.2387   -0.4335   21.9931 C   0  0  0  0  0  0  0  0  0  0  0  0
   11.2118    0.5896   22.1261 N   0  0  0  0  0  0  0  0  0  0  0  0
   11.0734    1.9354   22.3787 C   0  0  0  0  0  0  0  0  0  0  0  0
    9.9976    2.5015   22.5409 O   0  0  0  0  0  0  0  0  0  0  0  0
   12.2974    2.5632   22.4258 N   0  0  0  0  0  0  0  0  0  0  0  0
   12.6359    3.9212   22.6546 C   0  0  0  0  0  0  0  0  0  0  0  0
   13.8798    4.3577   22.2122 C   0  0  0  0  0  0  0  0  0  0  0  0
   14.2754    5.6708   22.4023 C   0  0  0  0  0  0  0  0  0  0  0  0
   13.4384    6.5633   23.0340 C   0  0  0  0  0  0  0  0  0  0  0  0
   12.2034    6.1436   23.4771 C   0  0  0  0  0  0  0  0  0  0  0  0
   11.7964    4.8324   23.2926 C   0  0  0  0  0  0  0  0  0  0  0  0
   10.4459   -1.7699   22.3298 C   0  0  0  0  0  0  0  0  0  0  0  0
    9.5197   -2.7270   22.1998 N   0  0  0  0  0  0  0  0  0  0  0  0
    3.1314   -6.1398   22.5753 C   0  0  0  0  0  0  0  0  0  0  0  0
  1  2  1  0
  2  3  2  0
  3  4  1  0
  4  5  1  0
  5  6  1  0
  6  7  1  0
  7  8  1  0
  8  9  2  0
  9 10  1  0
 10 11  2  0
 11 12  1  0
 11 13  1  0
 13 14  2  0
 14 15  1  0
 15 16  2  0
 16 17  1  0
 17 18  1  0
 18 19  2  0
 18 20  1  0
 20 21  1  0
 21 22  2  0
 22 23  1  0
 23 24  2  0
 24 25  1  0
 25 26  2  0
 16 27  1  0
 27 28  2  0
  6 29  1  0
 29  2  1  0
 12  8  1  0
 28 13  1  0
 26 21  1  0
M  END
