CVD-0000435|dock_bobby27042020.98|mol2|31|dock3
     RDKit          3D

 33 35  0  0  0  0  0  0  0  0999 V2000
    5.9069    0.5714   18.4402 C   0  0  0  0  0  0  0  0  0  0  0  0
    7.2566   -0.0721   18.5059 C   0  0  0  0  0  0  0  0  0  0  0  0
    7.8671    0.1044   19.8131 N   0  0  0  0  0  0  0  0  0  0  0  0
    8.0697   -0.9094   20.6989 C   0  0  0  0  0  0  0  0  0  0  0  0
    7.0826   -1.8624   20.9463 C   0  0  0  0  0  0  0  0  0  0  0  0
    7.3606   -2.8628   21.8588 C   0  0  0  0  0  0  0  0  0  0  0  0
    8.5915   -2.8583   22.4677 C   0  0  0  0  0  0  0  0  0  0  0  0
    8.8844   -3.8290   23.3633 F   0  0  0  0  0  0  0  0  0  0  0  0
    9.5376   -1.8910   22.1910 C   0  0  0  0  0  0  0  0  0  0  0  0
   10.8991   -1.8649   22.8430 C   0  0  0  0  0  0  0  0  0  0  0  0
   11.6676   -0.5620   22.7197 C   0  0  0  0  0  0  0  0  0  0  0  0
   10.9833    0.6493   22.7022 C   0  0  0  0  0  0  0  0  0  0  0  0
   11.6477    1.8671   22.5931 C   0  0  0  0  0  0  0  0  0  0  0  0
   10.9093    3.0371   22.5743 N   0  0  0  0  0  0  0  0  0  0  0  0
   11.4219    4.3411   22.9549 C   0  0  0  0  0  0  0  0  0  0  0  0
   10.3459    5.2625   23.4993 C   0  0  0  0  0  0  0  0  0  0  0  0
   10.2909    5.4853   24.7040 O   0  0  0  0  0  0  0  0  0  0  0  0
    9.5078    5.7697   22.5620 N   0  0  0  0  0  0  0  0  0  0  0  0
    8.4963    6.7592   22.6441 C   0  0  0  0  0  0  0  0  0  0  0  0
    8.5220    7.6190   23.7363 C   0  0  0  0  0  0  0  0  0  0  0  0
    7.5615    8.6058   23.8734 C   0  0  0  0  0  0  0  0  0  0  0  0
    6.5686    8.7416   22.9205 C   0  0  0  0  0  0  0  0  0  0  0  0
    6.5247    7.8948   21.8213 C   0  0  0  0  0  0  0  0  0  0  0  0
    7.4909    6.9037   21.6884 C   0  0  0  0  0  0  0  0  0  0  0  0
    5.4495    8.0385   20.7922 C   0  0  0  0  0  0  0  0  0  0  0  0
    5.8336    7.6345   19.5867 F   0  0  0  0  0  0  0  0  0  0  0  0
    5.0434    9.2943   20.6440 F   0  0  0  0  0  0  0  0  0  0  0  0
    4.3612    7.3349   21.0832 F   0  0  0  0  0  0  0  0  0  0  0  0
   13.0360    1.8729   22.5068 C   0  0  0  0  0  0  0  0  0  0  0  0
   13.7369    0.6811   22.5204 C   0  0  0  0  0  0  0  0  0  0  0  0
   13.0512   -0.5156   22.6262 C   0  0  0  0  0  0  0  0  0  0  0  0
   13.9621   -1.9900   22.6411 Cl  0  0  0  0  0  0  0  0  0  0  0  0
    9.2642   -0.9238   21.3044 N   0  0  0  0  0  0  0  0  0  0  0  0
  1  2  1  0
  2  3  1  0
  3  4  1  0
  4  5  2  0
  5  6  1  0
  6  7  2  0
  7  8  1  0
  7  9  1  0
  9 10  1  0
 10 11  1  0
 11 12  2  0
 12 13  1  0
 13 14  1  0
 14 15  1  0
 15 16  1  0
 16 17  2  0
 16 18  1  0
 18 19  1  0
 19 20  2  0
 20 21  1  0
 21 22  2  0
 22 23  1  0
 23 24  2  0
 23 25  1  0
 25 26  1  0
 25 27  1  0
 25 28  1  0
 13 29  2  0
 29 30  1  0
 30 31  2  0
 31 32  1  0
  9 33  2  0
 33  4  1  0
 31 11  1  0
 24 19  1  0
M  END
