CVD-0000915|dock_bobby27042020.83|mol2|1|dock3
     RDKit          3D

 34 38  0  0  0  0  0  0  0  0999 V2000
    8.1414   -0.4194   18.9345 C   0  0  0  0  0  0  0  0  0  0  0  0
    7.8119   -1.1797   20.1960 C   0  0  0  0  0  0  0  0  0  0  0  0
    6.6830   -1.9782   20.2773 C   0  0  0  0  0  0  0  0  0  0  0  0
    6.4059   -2.7078   21.4186 C   0  0  0  0  0  0  0  0  0  0  0  0
    7.2524   -2.6642   22.5238 C   0  0  0  0  0  0  0  0  0  0  0  0
    6.9483   -3.4734   23.7919 C   0  0  0  0  0  0  0  0  0  0  0  0
    6.5373   -4.9394   23.5267 C   0  0  0  0  0  0  0  0  0  0  0  0
    7.0522   -5.5203   22.2186 C   0  0  0  0  0  0  0  0  0  0  0  0
    5.9742   -6.9035   21.8359 S   0  0  0  0  0  0  0  0  0  0  0  0
    6.6005   -8.1263   22.2607 O   0  0  0  0  0  0  0  0  0  0  0  0
    5.5105   -6.8225   20.4772 O   0  0  0  0  0  0  0  0  0  0  0  0
    4.6526   -6.4436   22.9627 C   0  0  0  0  0  0  0  0  0  0  0  0
    5.0088   -5.0769   23.5075 C   0  0  0  0  0  0  0  0  0  0  0  0
    4.3779   -4.8307   24.8196 N   0  0  0  0  0  0  0  0  0  0  0  0
    3.4412   -3.7237   25.0911 C   0  0  0  0  0  0  0  0  0  0  0  0
    3.0221   -3.9142   26.5287 C   0  0  0  0  0  0  0  0  0  0  0  0
    3.8269   -5.0570   27.0702 C   0  0  0  0  0  0  0  0  0  0  0  0
    4.6104   -5.5673   25.8971 C   0  0  0  0  0  0  0  0  0  0  0  0
    5.3686   -6.5283   25.9130 O   0  0  0  0  0  0  0  0  0  0  0  0
    8.0538   -3.5389   24.7682 N   0  0  0  0  0  0  0  0  0  0  0  0
    9.4008   -3.1095   24.3184 C   0  0  0  0  0  0  0  0  0  0  0  0
    9.3486   -1.7865   23.6291 C   0  0  0  0  0  0  0  0  0  0  0  0
   10.7551   -1.3699   23.2190 C   0  0  0  0  0  0  0  0  0  0  0  0
   11.4465   -0.4034   23.9361 C   0  0  0  0  0  0  0  0  0  0  0  0
   12.7261   -0.0265   23.5639 C   0  0  0  0  0  0  0  0  0  0  0  0
   13.3301   -0.6112   22.4716 C   0  0  0  0  0  0  0  0  0  0  0  0
   12.6555   -1.5732   21.7507 C   0  0  0  0  0  0  0  0  0  0  0  0
   11.3759   -1.9509   22.1220 C   0  0  0  0  0  0  0  0  0  0  0  0
    8.3975   -1.8628   22.4591 C   0  0  0  0  0  0  0  0  0  0  0  0
    8.6533   -1.1376   21.2971 C   0  0  0  0  0  0  0  0  0  0  0  0
    7.8234   -3.9452   26.0415 C   0  0  0  0  0  0  0  0  0  0  0  0
    6.7091   -4.2411   26.4538 O   0  0  0  0  0  0  0  0  0  0  0  0
    9.0147   -4.0305   26.9763 C   0  0  0  0  0  0  0  0  0  0  0  0
   10.2476   -5.1256   26.3379 Cl  0  0  0  0  0  0  0  0  0  0  0  0
  1  2  1  0
  2  3  2  0
  3  4  1  0
  4  5  2  0
  5  6  1  0
  6  7  1  0
  7  8  1  0
  8  9  1  0
  9 10  2  0
  9 11  2  0
  9 12  1  0
 12 13  1  0
 13 14  1  0
 14 15  1  0
 15 16  1  0
 16 17  1  0
 17 18  1  0
 18 19  2  0
  6 20  1  0
 20 21  1  0
 21 22  1  0
 22 23  1  0
 23 24  2  0
 24 25  1  0
 25 26  2  0
 26 27  1  0
 27 28  2  0
 22 29  1  0
 29 30  2  0
 20 31  1  0
 31 32  2  0
 31 33  1  0
 33 34  1  0
 30  2  1  0
 29  5  1  0
 13  7  1  0
 18 14  1  0
 28 23  1  0
M  END
