CVD-0003616|dock_bobby27042020.59|mol2|16|dock1
     RDKit          3D

 19 20  0  0  0  0  0  0  0  0999 V2000
   10.1721    0.7901   22.6237 C   0  0  0  0  0  0  0  0  0  0  0  0
    9.9909   -0.7199   22.7664 C   0  0  0  0  0  0  0  0  0  0  0  0
   11.2903   -1.4267   23.2291 C   0  0  0  0  0  0  0  0  0  0  0  0
   12.4922   -1.1832   22.3165 C   0  0  0  0  0  0  0  0  0  0  0  0
   13.7327   -1.9187   22.8225 C   0  0  0  0  0  0  0  0  0  0  0  0
   14.0584   -1.5294   24.2514 C   0  0  0  0  0  0  0  0  0  0  0  0
   12.8751   -1.7509   25.1710 C   0  0  0  0  0  0  0  0  0  0  0  0
   11.6307   -1.0274   24.6669 C   0  0  0  0  0  0  0  0  0  0  0  0
    9.5130   -1.2769   21.4330 C   0  0  0  0  0  0  0  0  0  0  0  0
    9.9190   -2.3515   20.9983 O   0  0  0  0  0  0  0  0  0  0  0  0
    8.6129   -0.5060   20.7799 N   0  0  0  0  0  0  0  0  0  0  0  0
    7.6969   -0.0241   19.8118 C   0  0  0  0  0  0  0  0  0  0  0  0
    7.8940   -0.1366   18.4358 C   0  0  0  0  0  0  0  0  0  0  0  0
    7.0267    0.3283   17.5326 N   0  0  0  0  0  0  0  0  0  0  0  0
    5.9258    0.9333   17.9794 C   0  0  0  0  0  0  0  0  0  0  0  0
    5.6251    1.0969   19.3277 C   0  0  0  0  0  0  0  0  0  0  0  0
    4.4629    1.7341   19.7003 N   0  0  0  0  0  0  0  0  0  0  0  0
    6.5295    0.5987   20.2765 C   0  0  0  0  0  0  0  0  0  0  0  0
    6.2435    0.7367   21.7540 C   0  0  0  0  0  0  0  0  0  0  0  0
  1  2  1  0
  2  3  1  0
  3  4  1  0
  4  5  1  0
  5  6  1  0
  6  7  1  0
  7  8  1  0
  2  9  1  0
  9 10  2  0
  9 11  1  0
 11 12  1  0
 12 13  2  0
 13 14  1  0
 14 15  2  0
 15 16  1  0
 16 17  1  0
 16 18  2  0
 18 19  1  0
  8  3  1  0
 18 12  1  0
M  END
