CVD-0003186|dock_bobby27042020.60|mol2|32|dock3
     RDKit          3D

 23 24  0  0  0  0  0  0  0  0999 V2000
   13.7952   -0.0917   22.2726 N   0  0  0  0  0  0  0  0  0  0  0  0
   12.8710   -0.4838   23.2074 C   0  0  0  0  0  0  0  0  0  0  0  0
   12.9026    0.3837   24.2697 N   0  0  0  0  0  0  0  0  0  0  0  0
   11.4795   -0.5644   22.6043 C   0  0  0  0  0  0  0  0  0  0  0  0
   10.7710   -1.7555   22.6193 C   0  0  0  0  0  0  0  0  0  0  0  0
    9.5200   -1.8427   22.0380 C   0  0  0  0  0  0  0  0  0  0  0  0
    8.9325   -0.7394   21.4191 C   0  0  0  0  0  0  0  0  0  0  0  0
    7.6175   -0.9759   20.7339 C   0  0  0  0  0  0  0  0  0  0  0  0
    6.7460   -1.6287   21.3004 O   0  0  0  0  0  0  0  0  0  0  0  0
    7.4283   -0.4801   19.5087 N   0  0  0  0  0  0  0  0  0  0  0  0
    6.1821   -0.6857   18.7854 C   0  0  0  0  0  0  0  0  0  0  0  0
    5.1618    0.3993   19.0317 C   0  0  0  0  0  0  0  0  0  0  0  0
    4.4301    0.4372   20.2065 C   0  0  0  0  0  0  0  0  0  0  0  0
    3.4928    1.4294   20.4310 C   0  0  0  0  0  0  0  0  0  0  0  0
    3.2503    2.4228   19.4876 C   0  0  0  0  0  0  0  0  0  0  0  0
    3.9889    2.3797   18.3046 C   0  0  0  0  0  0  0  0  0  0  0  0
    4.9250    1.3839   18.0870 C   0  0  0  0  0  0  0  0  0  0  0  0
    2.2174    3.4566   19.8173 C   0  0  0  0  0  0  0  0  0  0  0  0
    2.5125    4.7307   19.7112 O   0  0  0  0  0  0  0  0  0  0  0  0
    1.1099    3.1016   20.1819 O   0  0  0  0  0  0  0  0  0  0  0  0
    9.6183    0.4903   21.4856 C   0  0  0  0  0  0  0  0  0  0  0  0
    9.0824    1.6567   21.0396 O   0  0  0  0  0  0  0  0  0  0  0  0
   10.8897    0.5535   22.0347 C   0  0  0  0  0  0  0  0  0  0  0  0
  1  2  1  0
  2  3  1  0
  2  4  1  0
  4  5  2  0
  5  6  1  0
  6  7  2  0
  7  8  1  0
  8  9  2  0
  8 10  1  0
 10 11  1  0
 11 12  1  0
 12 13  2  0
 13 14  1  0
 14 15  2  0
 15 16  1  0
 16 17  2  0
 15 18  1  0
 18 19  1  0
 18 20  2  0
  7 21  1  0
 21 22  1  0
 21 23  2  0
 23  4  1  0
 17 12  1  0
M  END
