CVD-0002546|dock_bobby27042020.34|mol2|5|dock1
     RDKit          3D

 32 33  0  0  0  0  0  0  0  0999 V2000
   12.7805    5.5819   23.9261 C   0  0  0  0  0  0  0  0  0  0  0  0
   13.7279    5.0593   22.5491 S   0  0  0  0  0  0  0  0  0  0  0  0
   13.7071    6.1050   21.5734 O   0  0  0  0  0  0  0  0  0  0  0  0
   14.9939    4.5992   23.0303 O   0  0  0  0  0  0  0  0  0  0  0  0
   12.9850    3.7958   21.8993 N   0  0  0  0  0  0  0  0  0  0  0  0
   13.1850    2.4607   22.4755 C   0  0  0  0  0  0  0  0  0  0  0  0
   11.9846    2.0584   23.3149 C   0  0  0  0  0  0  0  0  0  0  0  0
   11.4828    0.6613   23.0127 C   0  0  0  0  0  0  0  0  0  0  0  0
   12.2519   -0.3693   23.5486 C   0  0  0  0  0  0  0  0  0  0  0  0
   11.9716   -1.6991   23.2944 C   0  0  0  0  0  0  0  0  0  0  0  0
   10.9068   -2.0280   22.4888 C   0  0  0  0  0  0  0  0  0  0  0  0
   10.1028   -1.0308   21.9663 C   0  0  0  0  0  0  0  0  0  0  0  0
   10.3495    0.3164   22.2431 C   0  0  0  0  0  0  0  0  0  0  0  0
    9.3400    1.2673   21.6577 C   0  0  0  0  0  0  0  0  0  0  0  0
    9.2497    1.3543   20.4365 O   0  0  0  0  0  0  0  0  0  0  0  0
    8.5394    1.9930   22.4517 N   0  0  0  0  0  0  0  0  0  0  0  0
    7.5325    2.8884   21.9039 C   0  0  0  0  0  0  0  0  0  0  0  0
    6.1422    2.2380   21.9748 C   0  0  0  0  0  0  0  0  0  0  0  0
    5.9671    1.0863   21.0149 C   0  0  0  0  0  0  0  0  0  0  0  0
    5.4422    1.2911   19.7485 C   0  0  0  0  0  0  0  0  0  0  0  0
    5.2819    0.2407   18.8623 C   0  0  0  0  0  0  0  0  0  0  0  0
    5.6503   -1.0410   19.2376 C   0  0  0  0  0  0  0  0  0  0  0  0
    5.4945   -2.0816   18.3689 O   0  0  0  0  0  0  0  0  0  0  0  0
    6.1776   -1.2607   20.5000 C   0  0  0  0  0  0  0  0  0  0  0  0
    6.3324   -0.2010   21.3760 C   0  0  0  0  0  0  0  0  0  0  0  0
    7.5160    4.2090   22.6684 C   0  0  0  0  0  0  0  0  0  0  0  0
    8.1000    4.3129   23.7438 O   0  0  0  0  0  0  0  0  0  0  0  0
    6.8440    5.2136   22.1068 N   0  0  0  0  0  0  0  0  0  0  0  0
    6.7568    6.5219   22.7417 C   0  0  0  0  0  0  0  0  0  0  0  0
    6.2386    7.5558   21.8380 C   0  0  0  0  0  0  0  0  0  0  0  0
    5.8436    8.3611   21.0623 C   0  0  0  0  0  0  0  0  0  0  0  0
    5.3018    9.6077   19.8808 Br  0  0  0  0  0  0  0  0  0  0  0  0
  1  2  1  0
  2  3  2  0
  2  4  2  0
  2  5  1  0
  5  6  1  0
  6  7  1  0
  7  8  1  0
  8  9  2  0
  9 10  1  0
 10 11  2  0
 11 12  1  0
 12 13  2  0
 13 14  1  0
 14 15  2  0
 14 16  1  0
 16 17  1  0
 17 18  1  0
 18 19  1  0
 19 20  2  0
 20 21  1  0
 21 22  2  0
 22 23  1  0
 22 24  1  0
 24 25  2  0
 17 26  1  0
 26 27  2  0
 26 28  1  0
 28 29  1  0
 29 30  1  0
 30 31  3  0
 31 32  1  0
 13  8  1  0
 25 19  1  0
M  END
