CVD-0001516|dock_bobby27042020.80|mol2|46|dock2
     RDKit          3D

 32 36  0  0  0  0  0  0  0  0999 V2000
    0.2789    0.7071   21.0991 O   0  0  0  0  0  0  0  0  0  0  0  0
    0.1355    1.8900   20.4472 C   0  0  0  0  0  0  0  0  0  0  0  0
   -1.1143    2.4773   20.3080 C   0  0  0  0  0  0  0  0  0  0  0  0
   -1.2274    3.6828   19.6385 C   0  0  0  0  0  0  0  0  0  0  0  0
   -0.1065    4.2928   19.1153 C   0  0  0  0  0  0  0  0  0  0  0  0
    1.1486    3.7179   19.2466 C   0  0  0  0  0  0  0  0  0  0  0  0
    1.2769    2.5026   19.9193 C   0  0  0  0  0  0  0  0  0  0  0  0
    2.4958    1.8092   20.1238 N   0  0  0  0  0  0  0  0  0  0  0  0
    3.6603    1.8629   19.4322 C   0  0  0  0  0  0  0  0  0  0  0  0
    3.8709    2.5662   18.4483 O   0  0  0  0  0  0  0  0  0  0  0  0
    4.7373    0.9522   19.9818 C   0  0  0  0  0  0  0  0  0  0  0  0
    5.9035    0.7552   19.0260 C   0  0  0  0  0  0  0  0  0  0  0  0
    6.8967   -0.2335   19.6147 C   0  0  0  0  0  0  0  0  0  0  0  0
    7.4398    0.2722   20.8794 N   0  0  0  0  0  0  0  0  0  0  0  0
    6.3414    0.3914   21.8441 C   0  0  0  0  0  0  0  0  0  0  0  0
    5.2817    1.3684   21.3424 C   0  0  0  0  0  0  0  0  0  0  0  0
    8.5987   -0.4527   21.3500 N   0  0  0  0  0  0  0  0  0  0  0  0
    8.2312   -1.5620   22.2402 C   0  0  0  0  0  0  0  0  0  0  0  0
    9.4308   -2.4714   22.4918 C   0  0  0  0  0  0  0  0  0  0  0  0
    9.0858   -3.4500   23.6067 C   0  0  0  0  0  0  0  0  0  0  0  0
    9.4167   -3.1692   24.9250 C   0  0  0  0  0  0  0  0  0  0  0  0
    9.1049   -4.0604   25.9381 C   0  0  0  0  0  0  0  0  0  0  0  0
    8.4595   -5.2428   25.6459 C   0  0  0  0  0  0  0  0  0  0  0  0
    8.1257   -5.5352   24.3409 C   0  0  0  0  0  0  0  0  0  0  0  0
    8.4370   -4.6446   23.3270 C   0  0  0  0  0  0  0  0  0  0  0  0
   10.6907   -1.6731   22.7723 C   0  0  0  0  0  0  0  0  0  0  0  0
   11.8324   -2.3057   23.2634 C   0  0  0  0  0  0  0  0  0  0  0  0
   12.9753   -1.5867   23.5719 C   0  0  0  0  0  0  0  0  0  0  0  0
   12.9933   -0.2213   23.3934 C   0  0  0  0  0  0  0  0  0  0  0  0
   11.8680    0.4195   22.9070 C   0  0  0  0  0  0  0  0  0  0  0  0
   10.7103   -0.2874   22.5916 C   0  0  0  0  0  0  0  0  0  0  0  0
    9.4935    0.4508   22.0877 C   0  0  0  0  0  0  0  0  0  0  0  0
  1  2  1  0
  2  3  2  0
  3  4  1  0
  4  5  2  0
  5  6  1  0
  6  7  2  0
  7  8  1  0
  8  9  1  0
  9 10  2  0
  9 11  1  0
 11 12  1  0
 12 13  1  0
 13 14  1  0
 14 15  1  0
 15 16  1  0
 14 17  1  0
 17 18  1  0
 18 19  1  0
 19 20  1  0
 20 21  2  0
 21 22  1  0
 22 23  2  0
 23 24  1  0
 24 25  2  0
 19 26  1  0
 26 27  2  0
 27 28  1  0
 28 29  2  0
 29 30  1  0
 30 31  2  0
 31 32  1  0
  7  2  1  0
 16 11  1  0
 32 17  1  0
 25 20  1  0
 31 26  1  0
M  END
