CVD-0000387|dock_bobby27042020.13|mol2|12|dock3
     RDKit          3D

 30 32  0  0  0  0  0  0  0  0999 V2000
    6.0011    0.4046   18.2976 C   0  0  0  0  0  0  0  0  0  0  0  0
    6.4488   -1.0231   18.2614 C   0  0  0  0  0  0  0  0  0  0  0  0
    5.7075   -1.8366   19.2103 N   0  0  0  0  0  0  0  0  0  0  0  0
    6.3002   -2.6049   20.1370 C   0  0  0  0  0  0  0  0  0  0  0  0
    5.8873   -3.8807   20.2657 N   0  0  0  0  0  0  0  0  0  0  0  0
    6.4600   -4.6355   21.2106 C   0  0  0  0  0  0  0  0  0  0  0  0
    7.5048   -4.1915   22.0303 C   0  0  0  0  0  0  0  0  0  0  0  0
    8.0757   -5.0754   23.0129 C   0  0  0  0  0  0  0  0  0  0  0  0
    8.5573   -5.7785   23.7735 N   0  0  0  0  0  0  0  0  0  0  0  0
    7.9851   -2.8888   21.8777 C   0  0  0  0  0  0  0  0  0  0  0  0
    9.1004   -2.4727   22.6801 N   0  0  0  0  0  0  0  0  0  0  0  0
    9.0823   -1.6364   23.7607 C   0  0  0  0  0  0  0  0  0  0  0  0
    7.9974   -1.0741   24.3526 C   0  0  0  0  0  0  0  0  0  0  0  0
    8.4146   -0.0920   25.6769 S   0  0  0  0  0  0  0  0  0  0  0  0
   10.0769   -0.3898   25.4749 C   0  0  0  0  0  0  0  0  0  0  0  0
   10.3181   -1.2216   24.4278 C   0  0  0  0  0  0  0  0  0  0  0  0
   11.6993   -1.6533   24.0224 C   0  0  0  0  0  0  0  0  0  0  0  0
   12.7843   -1.5631   25.0808 C   0  0  0  0  0  0  0  0  0  0  0  0
   14.0312   -1.8826   24.3151 C   0  0  0  0  0  0  0  0  0  0  0  0
   13.8213   -1.3430   22.8785 C   0  0  0  0  0  0  0  0  0  0  0  0
   12.3315   -0.8975   22.8151 C   0  0  0  0  0  0  0  0  0  0  0  0
   12.1169    0.6043   22.8583 C   0  0  0  0  0  0  0  0  0  0  0  0
   13.0308    1.3661   23.1596 O   0  0  0  0  0  0  0  0  0  0  0  0
   10.8437    0.9797   22.5350 N   0  0  0  0  0  0  0  0  0  0  0  0
   10.2177    2.2108   22.4462 C   0  0  0  0  0  0  0  0  0  0  0  0
   10.8604    3.2417   22.6911 O   0  0  0  0  0  0  0  0  0  0  0  0
    8.7874    2.2995   22.0607 C   0  0  0  0  0  0  0  0  0  0  0  0
    8.2001    3.4546   21.8931 C   0  0  0  0  0  0  0  0  0  0  0  0
    7.3185   -2.0928   20.9523 C   0  0  0  0  0  0  0  0  0  0  0  0
    7.6209   -0.7879   20.8262 F   0  0  0  0  0  0  0  0  0  0  0  0
  1  2  1  0
  2  3  1  0
  3  4  1  0
  4  5  2  0
  5  6  1  0
  6  7  2  0
  7  8  1  0
  8  9  3  0
  7 10  1  0
 10 11  1  0
 11 12  1  0
 12 13  2  0
 13 14  1  0
 14 15  1  0
 15 16  2  0
 17 16  1  0
 17 18  1  0
 18 19  1  0
 19 20  1  0
 20 21  1  0
 21 22  1  0
 22 23  2  0
 22 24  1  0
 24 25  1  0
 25 26  2  0
 25 27  1  0
 27 28  2  0
 10 29  2  0
 29 30  1  0
 29  4  1  0
 16 12  1  0
 21 17  1  0
M  END
