CVD-0001936|dock_bobby27042020.93|mol2|29|dock3
     RDKit          3D

 26 28  0  0  0  0  0  0  0  0999 V2000
    5.2292    1.6349   18.7694 C   0  0  0  0  0  0  0  0  0  0  0  0
    6.2125    0.2361   18.3906 S   0  0  0  0  0  0  0  0  0  0  0  0
    5.4947   -0.5701   17.4522 O   0  0  0  0  0  0  0  0  0  0  0  0
    7.5202    0.6953   18.0369 O   0  0  0  0  0  0  0  0  0  0  0  0
    6.3653   -0.6284   19.7322 N   0  0  0  0  0  0  0  0  0  0  0  0
    7.6650   -0.6909   20.4114 C   0  0  0  0  0  0  0  0  0  0  0  0
    7.9478    0.6003   21.1277 C   0  0  0  0  0  0  0  0  0  0  0  0
    9.2187    0.4662   21.7796 O   0  0  0  0  0  0  0  0  0  0  0  0
    9.8867    1.5924   22.1959 C   0  0  0  0  0  0  0  0  0  0  0  0
    9.3018    2.8101   22.4058 C   0  0  0  0  0  0  0  0  0  0  0  0
   10.0756    3.9248   22.8023 C   0  0  0  0  0  0  0  0  0  0  0  0
    9.5241    5.2072   23.0297 C   0  0  0  0  0  0  0  0  0  0  0  0
   10.3484    6.2220   23.4033 C   0  0  0  0  0  0  0  0  0  0  0  0
   11.6664    6.0977   23.5746 N   0  0  0  0  0  0  0  0  0  0  0  0
   12.2040    4.9086   23.3711 C   0  0  0  0  0  0  0  0  0  0  0  0
   11.4695    3.7638   22.9826 C   0  0  0  0  0  0  0  0  0  0  0  0
   12.0505    2.4942   22.7719 C   0  0  0  0  0  0  0  0  0  0  0  0
   11.2737    1.4359   22.4023 C   0  0  0  0  0  0  0  0  0  0  0  0
   11.8602    0.1825   22.2220 O   0  0  0  0  0  0  0  0  0  0  0  0
   12.6478   -0.4731   23.1737 C   0  0  0  0  0  0  0  0  0  0  0  0
   13.3983   -1.5691   22.7646 C   0  0  0  0  0  0  0  0  0  0  0  0
   14.1801   -2.2636   23.6718 C   0  0  0  0  0  0  0  0  0  0  0  0
   14.2243   -1.8750   24.9922 C   0  0  0  0  0  0  0  0  0  0  0  0
   13.4944   -0.7797   25.4191 C   0  0  0  0  0  0  0  0  0  0  0  0
   12.7285   -0.0926   24.5066 C   0  0  0  0  0  0  0  0  0  0  0  0
   12.0538    0.9861   24.9673 F   0  0  0  0  0  0  0  0  0  0  0  0
  1  2  1  0
  2  3  2  0
  2  4  2  0
  2  5  1  0
  5  6  1  0
  6  7  1  0
  7  8  1  0
  8  9  1  0
  9 10  2  0
 10 11  1  0
 11 12  2  0
 12 13  1  0
 13 14  2  0
 14 15  1  0
 15 16  2  0
 16 17  1  0
 17 18  2  0
 18 19  1  0
 19 20  1  0
 20 21  2  0
 21 22  1  0
 22 23  2  0
 23 24  1  0
 24 25  2  0
 25 26  1  0
 18  9  1  0
 25 20  1  0
 16 11  1  0
M  END
