CVD-0001850|dock_bobby27042020.51|mol2|13|dock1
     RDKit          3D

 16 17  0  0  0  0  0  0  0  0999 V2000
   14.5487   -2.0146   25.5226 C   0  0  0  0  0  0  0  0  0  0  0  0
   13.4380   -1.1371   25.0421 C   0  0  0  0  0  0  0  0  0  0  0  0
   12.6658   -0.6248   25.8205 O   0  0  0  0  0  0  0  0  0  0  0  0
   13.3050   -0.9316   23.5471 C   0  0  0  0  0  0  0  0  0  0  0  0
   13.0274   -2.2504   22.8782 C   0  0  0  0  0  0  0  0  0  0  0  0
   11.7621   -2.7998   23.3399 N   0  0  0  0  0  0  0  0  0  0  0  0
   10.6368   -1.9588   22.9170 C   0  0  0  0  0  0  0  0  0  0  0  0
   10.5234   -1.6586   21.4073 C   0  0  0  0  0  0  0  0  0  0  0  0
    9.8050   -0.3849   21.3317 N   0  0  0  0  0  0  0  0  0  0  0  0
    8.5474   -0.5080   20.5932 C   0  0  0  0  0  0  0  0  0  0  0  0
    7.7744    0.7920   20.4494 C   0  0  0  0  0  0  0  0  0  0  0  0
    6.5992    0.7054   19.8464 N   0  0  0  0  0  0  0  0  0  0  0  0
    8.2369    1.8563   20.8700 O   0  0  0  0  0  0  0  0  0  0  0  0
    9.6917    0.1985   22.6541 C   0  0  0  0  0  0  0  0  0  0  0  0
   10.7783   -0.5363   23.4639 C   0  0  0  0  0  0  0  0  0  0  0  0
   12.1810    0.0538   23.2785 C   0  0  0  0  0  0  0  0  0  0  0  0
  1  2  1  0
  2  3  2  0
  2  4  1  0
  4  5  1  0
  5  6  1  0
  6  7  1  0
  7  8  1  0
  8  9  1  0
  9 10  1  0
 10 11  1  0
 11 12  1  0
 11 13  2  0
  9 14  1  0
 14 15  1  0
 15 16  1  0
 16  4  1  0
 15  7  1  0
M  END
