CVD-0001171|dock_bobby27042020.96|mol2|13|dock2
     RDKit          3D

 26 28  0  0  0  0  0  0  0  0999 V2000
   14.3304   -2.8407   23.3102 O   0  0  0  0  0  0  0  0  0  0  0  0
   13.1564   -2.1104   22.9929 C   0  0  0  0  0  0  0  0  0  0  0  0
   13.4253   -0.6380   22.9397 C   0  0  0  0  0  0  0  0  0  0  0  0
   12.1949    0.0546   22.6798 O   0  0  0  0  0  0  0  0  0  0  0  0
   12.1818    1.4273   22.6474 C   0  0  0  0  0  0  0  0  0  0  0  0
   13.3107    2.2295   22.7665 C   0  0  0  0  0  0  0  0  0  0  0  0
   13.1879    3.6084   22.7250 C   0  0  0  0  0  0  0  0  0  0  0  0
   11.9482    4.1892   22.5671 C   0  0  0  0  0  0  0  0  0  0  0  0
   10.8225    3.3925   22.4496 C   0  0  0  0  0  0  0  0  0  0  0  0
   10.9213    2.0047   22.4872 C   0  0  0  0  0  0  0  0  0  0  0  0
    9.6967    1.1321   22.3639 C   0  0  0  0  0  0  0  0  0  0  0  0
    9.6323    0.0830   23.3707 N   0  0  0  0  0  0  0  0  0  0  0  0
    9.6488   -1.2096   23.0491 C   0  0  0  0  0  0  0  0  0  0  0  0
    9.7186   -1.6305   21.8954 O   0  0  0  0  0  0  0  0  0  0  0  0
    9.5725   -2.1553   24.2546 C   0  0  0  0  0  0  0  0  0  0  0  0
    9.4888   -1.7366   25.4082 O   0  0  0  0  0  0  0  0  0  0  0  0
    9.6051   -3.4539   23.9337 N   0  0  0  0  0  0  0  0  0  0  0  0
    9.5729   -4.4957   24.9542 C   0  0  0  0  0  0  0  0  0  0  0  0
    8.6846   -4.3425   26.1587 C   0  0  0  0  0  0  0  0  0  0  0  0
    8.3904   -5.4245   25.1486 C   0  0  0  0  0  0  0  0  0  0  0  0
    7.1769   -5.4955   24.1966 C   0  0  0  0  0  0  0  0  0  0  0  0
    6.5281   -4.1242   24.0526 C   0  0  0  0  0  0  0  0  0  0  0  0
    5.3387   -4.2383   23.1068 C   0  0  0  0  0  0  0  0  0  0  0  0
    5.7208   -4.7480   21.8441 O   0  0  0  0  0  0  0  0  0  0  0  0
    6.2680   -6.0613   21.9607 C   0  0  0  0  0  0  0  0  0  0  0  0
    7.5257   -6.0681   22.8293 C   0  0  0  0  0  0  0  0  0  0  0  0
  1  2  1  0
  2  3  1  0
  3  4  1  0
  4  5  1  0
  5  6  2  0
  6  7  1  0
  7  8  2  0
  8  9  1  0
  9 10  2  0
 10 11  1  0
 11 12  1  0
 12 13  1  0
 13 14  2  0
 13 15  1  0
 15 16  2  0
 15 17  1  0
 18 17  1  0
 18 19  1  0
 19 20  1  0
 20 21  1  0
 21 22  1  0
 22 23  1  0
 23 24  1  0
 24 25  1  0
 25 26  1  0
 10  5  1  0
 20 18  1  0
 26 21  1  0
M  END
