CVD-0002035|dock_bobby27042020.22|mol2|1|dock1
     RDKit          3D

 26 28  0  0  0  0  0  0  0  0999 V2000
    7.8217   -4.7238   21.8067 C   0  0  0  0  0  0  0  0  0  0  0  0
    7.3345   -4.1923   23.1305 C   0  0  0  0  0  0  0  0  0  0  0  0
    7.4759   -4.9987   24.2559 C   0  0  0  0  0  0  0  0  0  0  0  0
    7.0349   -4.5494   25.4799 C   0  0  0  0  0  0  0  0  0  0  0  0
    6.4732   -3.3571   25.6547 N   0  0  0  0  0  0  0  0  0  0  0  0
    6.3496   -2.5660   24.5844 C   0  0  0  0  0  0  0  0  0  0  0  0
    6.7448   -2.9228   23.2940 C   0  0  0  0  0  0  0  0  0  0  0  0
    6.5956   -2.0947   22.1443 N   0  0  0  0  0  0  0  0  0  0  0  0
    6.4429   -0.7420   22.0504 C   0  0  0  0  0  0  0  0  0  0  0  0
    6.3664   -0.0135   23.0343 O   0  0  0  0  0  0  0  0  0  0  0  0
    6.3576   -0.1216   20.6744 C   0  0  0  0  0  0  0  0  0  0  0  0
    5.1353    0.4292   20.2742 C   0  0  0  0  0  0  0  0  0  0  0  0
    4.9875    1.0191   19.0344 C   0  0  0  0  0  0  0  0  0  0  0  0
    6.0445    1.0486   18.1585 C   0  0  0  0  0  0  0  0  0  0  0  0
    7.2639    0.4976   18.5086 C   0  0  0  0  0  0  0  0  0  0  0  0
    7.4534   -0.0790   19.7691 C   0  0  0  0  0  0  0  0  0  0  0  0
    8.7086   -0.6200   20.1736 N   0  0  0  0  0  0  0  0  0  0  0  0
    9.3416   -0.5921   21.3980 C   0  0  0  0  0  0  0  0  0  0  0  0
    8.8977   -0.0613   22.4105 O   0  0  0  0  0  0  0  0  0  0  0  0
   10.5522   -1.2464   21.3480 N   0  0  0  0  0  0  0  0  0  0  0  0
   11.5251   -1.4657   22.3562 C   0  0  0  0  0  0  0  0  0  0  0  0
   11.2890   -1.3421   23.7223 C   0  0  0  0  0  0  0  0  0  0  0  0
   12.3210   -1.5827   24.6130 C   0  0  0  0  0  0  0  0  0  0  0  0
   13.5550   -1.9384   24.1200 C   0  0  0  0  0  0  0  0  0  0  0  0
   13.8119   -2.0648   22.8185 N   0  0  0  0  0  0  0  0  0  0  0  0
   12.8091   -1.8304   21.9673 C   0  0  0  0  0  0  0  0  0  0  0  0
  1  2  1  0
  2  3  2  0
  3  4  1  0
  4  5  2  0
  5  6  1  0
  6  7  2  0
  7  8  1  0
  8  9  1  0
  9 10  2  0
  9 11  1  0
 11 12  2  0
 12 13  1  0
 13 14  2  0
 14 15  1  0
 15 16  2  0
 16 17  1  0
 17 18  1  0
 18 19  2  0
 18 20  1  0
 20 21  1  0
 21 22  2  0
 22 23  1  0
 23 24  2  0
 24 25  1  0
 25 26  2  0
  7  2  1  0
 16 11  1  0
 26 21  1  0
M  END
