CVD-0001946|dock_bobby27042020.36|mol2|25|dock1
     RDKit          3D

 27 28  0  0  0  0  0  0  0  0999 V2000
   14.1611    6.3557   22.0259 C   0  0  0  0  0  0  0  0  0  0  0  0
   13.8189    4.9708   22.3602 N   0  0  0  0  0  0  0  0  0  0  0  0
   12.3800    4.6856   22.3664 C   0  0  0  0  0  0  0  0  0  0  0  0
   12.1018    3.2302   22.6368 C   0  0  0  0  0  0  0  0  0  0  0  0
   13.0649    2.2220   22.8129 C   0  0  0  0  0  0  0  0  0  0  0  0
   12.4394    1.0044   23.0278 C   0  0  0  0  0  0  0  0  0  0  0  0
   13.1132   -0.3024   23.2526 C   0  0  0  0  0  0  0  0  0  0  0  0
   13.2027   -1.2628   22.2399 C   0  0  0  0  0  0  0  0  0  0  0  0
   13.8153   -2.4849   22.4623 C   0  0  0  0  0  0  0  0  0  0  0  0
   14.3777   -2.7743   23.6843 C   0  0  0  0  0  0  0  0  0  0  0  0
   14.3292   -1.8396   24.7012 C   0  0  0  0  0  0  0  0  0  0  0  0
   13.7016   -0.6392   24.4667 C   0  0  0  0  0  0  0  0  0  0  0  0
   13.6702    0.2343   25.4993 F   0  0  0  0  0  0  0  0  0  0  0  0
   11.0616    1.2493   22.9954 N   0  0  0  0  0  0  0  0  0  0  0  0
   10.8788    2.5935   22.7547 C   0  0  0  0  0  0  0  0  0  0  0  0
    9.9539    0.3127   23.1931 C   0  0  0  0  0  0  0  0  0  0  0  0
    9.2981    0.4270   24.5502 C   0  0  0  0  0  0  0  0  0  0  0  0
    8.9156    0.5117   22.2009 N   0  0  0  0  0  0  0  0  0  0  0  0
    8.7153   -0.3247   21.1783 C   0  0  0  0  0  0  0  0  0  0  0  0
    9.3892   -1.3331   20.9905 O   0  0  0  0  0  0  0  0  0  0  0  0
    7.5876    0.0509   20.2484 C   0  0  0  0  0  0  0  0  0  0  0  0
    6.9596   -1.1503   19.5560 C   0  0  0  0  0  0  0  0  0  0  0  0
    5.8283   -0.7622   18.6246 C   0  0  0  0  0  0  0  0  0  0  0  0
    4.8077    0.0267   19.2996 N   0  0  0  0  0  0  0  0  0  0  0  0
    4.6095    1.3204   19.0398 C   0  0  0  0  0  0  0  0  0  0  0  0
    3.5307    1.9960   19.8343 C   0  0  0  0  0  0  0  0  0  0  0  0
    5.2809    1.9261   18.2103 O   0  0  0  0  0  0  0  0  0  0  0  0
  1  2  1  0
  2  3  1  0
  3  4  1  0
  4  5  1  0
  5  6  2  0
  6  7  1  0
  7  8  2  0
  8  9  1  0
  9 10  2  0
 10 11  1  0
 11 12  2  0
 12 13  1  0
  6 14  1  0
 14 15  1  0
 14 16  1  0
 16 17  1  0
 16 18  1  0
 18 19  1  0
 19 20  2  0
 19 21  1  0
 21 22  1  0
 22 23  1  0
 23 24  1  0
 24 25  1  0
 25 26  1  0
 25 27  2  0
 15  4  2  0
 12  7  1  0
M  END
