CVD-0003563|dock_bobby27042020.16|mol2|14|dock3
     RDKit          3D

 24 26  0  0  0  0  0  0  0  0999 V2000
   11.5166   -1.2056   21.9035 N   0  0  0  0  0  0  0  0  0  0  0  0
   12.8133   -0.4486   22.4592 S   0  0  0  0  0  0  0  0  0  0  0  0
   13.8406   -0.5871   21.4710 O   0  0  0  0  0  0  0  0  0  0  0  0
   13.0557   -0.9397   23.7826 O   0  0  0  0  0  0  0  0  0  0  0  0
   12.4408    1.2736   22.5954 C   0  0  0  0  0  0  0  0  0  0  0  0
   13.4741    2.1918   22.6758 C   0  0  0  0  0  0  0  0  0  0  0  0
   13.1693    3.5296   22.8304 C   0  0  0  0  0  0  0  0  0  0  0  0
   11.8520    3.9674   22.9061 C   0  0  0  0  0  0  0  0  0  0  0  0
   11.5255    5.4394   22.9814 C   0  0  0  0  0  0  0  0  0  0  0  0
   10.1658    5.6617   23.6104 C   0  0  0  0  0  0  0  0  0  0  0  0
    9.1184    4.8330   22.8880 C   0  0  0  0  0  0  0  0  0  0  0  0
    9.4676    3.4200   22.9547 N   0  0  0  0  0  0  0  0  0  0  0  0
    8.3943    2.4568   22.8162 C   0  0  0  0  0  0  0  0  0  0  0  0
    8.3110    1.7430   21.4781 C   0  0  0  0  0  0  0  0  0  0  0  0
    9.1444    1.9558   20.6037 O   0  0  0  0  0  0  0  0  0  0  0  0
    7.2551    0.8994   21.3807 N   0  0  0  0  0  0  0  0  0  0  0  0
    6.8251    0.0681   20.3173 C   0  0  0  0  0  0  0  0  0  0  0  0
    6.2634   -1.1917   20.4979 C   0  0  0  0  0  0  0  0  0  0  0  0
    5.8760   -1.9245   19.3892 C   0  0  0  0  0  0  0  0  0  0  0  0
    6.0588   -1.3824   18.1379 C   0  0  0  0  0  0  0  0  0  0  0  0
    6.5937   -0.1786   17.9342 N   0  0  0  0  0  0  0  0  0  0  0  0
    6.9646    0.5208   19.0104 C   0  0  0  0  0  0  0  0  0  0  0  0
   10.8050    3.0253   22.8233 C   0  0  0  0  0  0  0  0  0  0  0  0
   11.1152    1.6751   22.6672 C   0  0  0  0  0  0  0  0  0  0  0  0
  1  2  1  0
  2  3  2  0
  2  4  2  0
  2  5  1  0
  5  6  2  0
  6  7  1  0
  7  8  2  0
  8  9  1  0
  9 10  1  0
 10 11  1  0
 11 12  1  0
 12 13  1  0
 13 14  1  0
 14 15  2  0
 14 16  1  0
 16 17  1  0
 17 18  2  0
 18 19  1  0
 19 20  2  0
 20 21  1  0
 21 22  2  0
 12 23  1  0
 23 24  2  0
 24  5  1  0
 23  8  1  0
 22 17  1  0
M  END
