CVD-0001965|dock_bobby27042020.65|mol2|20|dock1
     RDKit          3D

 32 34  0  0  0  0  0  0  0  0999 V2000
    6.3821   -4.5353   24.4069 C   0  0  0  0  0  0  0  0  0  0  0  0
    6.6980   -5.3944   23.2628 N   0  0  0  0  0  0  0  0  0  0  0  0
    6.6833   -4.7085   21.9662 C   0  0  0  0  0  0  0  0  0  0  0  0
    7.6027   -3.5155   21.9567 C   0  0  0  0  0  0  0  0  0  0  0  0
    8.8953   -3.4612   22.5029 C   0  0  0  0  0  0  0  0  0  0  0  0
    9.4403   -2.2035   22.2994 C   0  0  0  0  0  0  0  0  0  0  0  0
   10.7915   -1.7471   22.7278 C   0  0  0  0  0  0  0  0  0  0  0  0
   11.8331   -1.5808   21.8083 C   0  0  0  0  0  0  0  0  0  0  0  0
   13.0916   -1.1675   22.2124 C   0  0  0  0  0  0  0  0  0  0  0  0
   13.3451   -0.8866   23.5351 C   0  0  0  0  0  0  0  0  0  0  0  0
   12.3366   -1.0222   24.4699 C   0  0  0  0  0  0  0  0  0  0  0  0
   11.0985   -1.4495   24.0519 C   0  0  0  0  0  0  0  0  0  0  0  0
   10.1581   -1.5792   25.0157 F   0  0  0  0  0  0  0  0  0  0  0  0
    8.4799   -1.4496   21.6124 N   0  0  0  0  0  0  0  0  0  0  0  0
    7.3858   -2.2630   21.4110 C   0  0  0  0  0  0  0  0  0  0  0  0
    8.5533   -0.0595   21.1095 C   0  0  0  0  0  0  0  0  0  0  0  0
    8.5917    0.9332   22.2722 C   0  0  0  0  0  0  0  0  0  0  0  0
    9.3719    2.1797   21.9589 C   0  0  0  0  0  0  0  0  0  0  0  0
    8.9353    3.1558   21.3778 O   0  0  0  0  0  0  0  0  0  0  0  0
   10.6231    2.0805   22.4011 O   0  0  0  0  0  0  0  0  0  0  0  0
   11.4762    3.2414   22.2183 C   0  0  0  0  0  0  0  0  0  0  0  0
   12.7843    2.9636   22.8874 C   0  0  0  0  0  0  0  0  0  0  0  0
   13.7883    3.8931   22.3952 O   0  0  0  0  0  0  0  0  0  0  0  0
   13.6081    5.2030   22.5958 C   0  0  0  0  0  0  0  0  0  0  0  0
   14.4634    6.0162   21.6829 C   0  0  0  0  0  0  0  0  0  0  0  0
   12.8651    5.6496   23.4261 O   0  0  0  0  0  0  0  0  0  0  0  0
    7.3855    0.2017   20.1801 C   0  0  0  0  0  0  0  0  0  0  0  0
    6.0923    0.3343   20.6628 C   0  0  0  0  0  0  0  0  0  0  0  0
    5.0495    0.5765   19.7857 C   0  0  0  0  0  0  0  0  0  0  0  0
    5.3321    0.6802   18.4426 C   0  0  0  0  0  0  0  0  0  0  0  0
    6.5634    0.5588   17.9446 N   0  0  0  0  0  0  0  0  0  0  0  0
    7.5542    0.3256   18.8106 C   0  0  0  0  0  0  0  0  0  0  0  0
  1  2  1  0
  2  3  1  0
  3  4  1  0
  4  5  1  0
  5  6  2  0
  6  7  1  0
  7  8  2  0
  8  9  1  0
  9 10  2  0
 10 11  1  0
 11 12  2  0
 12 13  1  0
  6 14  1  0
 14 15  1  0
 14 16  1  0
 16 17  1  0
 17 18  1  0
 18 19  2  0
 18 20  1  0
 20 21  1  0
 21 22  1  0
 22 23  1  0
 23 24  1  0
 24 25  1  0
 24 26  2  0
 16 27  1  0
 27 28  2  0
 28 29  1  0
 29 30  2  0
 30 31  1  0
 31 32  2  0
 15  4  2  0
 32 27  1  0
 12  7  1  0
M  END
