CVD-0002006|dock_bobby27042020.65|mol2|14|dock1
     RDKit          3D

 19 21  0  0  0  0  0  0  0  0999 V2000
   14.1126   -2.5856   23.2181 C   0  0  0  0  0  0  0  0  0  0  0  0
   13.2369   -2.1195   22.0575 C   0  0  0  0  0  0  0  0  0  0  0  0
   14.0170   -2.1981   20.7594 C   0  0  0  0  0  0  0  0  0  0  0  0
   14.3605   -3.4197   20.4393 O   0  0  0  0  0  0  0  0  0  0  0  0
   14.2900   -1.2254   20.0908 O   0  0  0  0  0  0  0  0  0  0  0  0
   12.7125   -0.7157   22.2790 C   0  0  0  0  0  0  0  0  0  0  0  0
   11.3796   -0.5694   22.3367 N   0  0  0  0  0  0  0  0  0  0  0  0
   10.9083    0.6677   22.5285 C   0  0  0  0  0  0  0  0  0  0  0  0
   11.7367    1.7742   22.6652 C   0  0  0  0  0  0  0  0  0  0  0  0
   13.1174    1.4853   22.5845 C   0  0  0  0  0  0  0  0  0  0  0  0
   13.6219    0.2590   22.3931 N   0  0  0  0  0  0  0  0  0  0  0  0
   13.8343    2.6416   22.7313 N   0  0  0  0  0  0  0  0  0  0  0  0
   12.9521    3.6932   22.9082 C   0  0  0  0  0  0  0  0  0  0  0  0
   13.2081    5.0470   23.0966 C   0  0  0  0  0  0  0  0  0  0  0  0
   12.1442    5.9192   23.2527 C   0  0  0  0  0  0  0  0  0  0  0  0
   10.8511    5.4385   23.2198 C   0  0  0  0  0  0  0  0  0  0  0  0
    9.5297    6.5552   23.4185 Cl  0  0  0  0  0  0  0  0  0  0  0  0
   10.5701    4.0992   23.0342 C   0  0  0  0  0  0  0  0  0  0  0  0
   11.6293    3.2081   22.8754 C   0  0  0  0  0  0  0  0  0  0  0  0
  2  1  1  0
  2  3  1  0
  3  4  1  0
  3  5  2  0
  2  6  1  0
  6  7  2  0
  7  8  1  0
  8  9  2  0
  9 10  1  0
 10 11  2  0
 10 12  1  0
 12 13  1  0
 13 14  2  0
 14 15  1  0
 15 16  2  0
 16 17  1  0
 16 18  1  0
 18 19  2  0
 11  6  1  0
 19 13  1  0
 19  9  1  0
M  END
