CVD-0002479|dock_bobby27042020.5|mol2|29|dock2
     RDKit          3D

 29 32  0  0  0  0  0  0  0  0999 V2000
    6.0603   -5.2625   28.1124 F   0  0  0  0  0  0  0  0  0  0  0  0
    5.6426   -4.7375   26.9216 C   0  0  0  0  0  0  0  0  0  0  0  0
    4.4199   -4.3353   26.6341 C   0  0  0  0  0  0  0  0  0  0  0  0
    4.0577   -3.7619   25.3141 C   0  0  0  0  0  0  0  0  0  0  0  0
    5.1239   -4.1020   24.2872 C   0  0  0  0  0  0  0  0  0  0  0  0
    6.4796   -3.8480   24.7582 N   0  0  0  0  0  0  0  0  0  0  0  0
    6.7013   -2.4220   25.0053 C   0  0  0  0  0  0  0  0  0  0  0  0
    8.1381   -2.0251   24.8422 C   0  0  0  0  0  0  0  0  0  0  0  0
    8.6894   -1.1246   25.5807 N   0  0  0  0  0  0  0  0  0  0  0  0
   10.0272   -0.9110   25.2553 N   0  0  0  0  0  0  0  0  0  0  0  0
   10.4520   -1.6557   24.2756 C   0  0  0  0  0  0  0  0  0  0  0  0
    9.2130   -2.7056   23.6580 S   0  0  0  0  0  0  0  0  0  0  0  0
   11.8334   -1.6051   23.7565 C   0  0  0  0  0  0  0  0  0  0  0  0
   12.8637   -1.7206   24.6928 C   0  0  0  0  0  0  0  0  0  0  0  0
   14.1726   -1.6803   24.2674 C   0  0  0  0  0  0  0  0  0  0  0  0
   14.5269   -1.5355   22.9954 N   0  0  0  0  0  0  0  0  0  0  0  0
   13.5530   -1.4238   22.0891 C   0  0  0  0  0  0  0  0  0  0  0  0
   12.1906   -1.4495   22.3913 C   0  0  0  0  0  0  0  0  0  0  0  0
   11.1555   -1.3299   21.4211 N   0  0  0  0  0  0  0  0  0  0  0  0
    9.9321   -0.7006   21.5001 C   0  0  0  0  0  0  0  0  0  0  0  0
    9.5143   -0.1040   22.4865 O   0  0  0  0  0  0  0  0  0  0  0  0
    9.2302   -0.8267   20.3220 N   0  0  0  0  0  0  0  0  0  0  0  0
    7.9479   -0.3489   19.9486 C   0  0  0  0  0  0  0  0  0  0  0  0
    6.9672   -0.3061   20.9333 C   0  0  0  0  0  0  0  0  0  0  0  0
    5.6925    0.1488   20.6411 C   0  0  0  0  0  0  0  0  0  0  0  0
    5.3798    0.5658   19.3665 C   0  0  0  0  0  0  0  0  0  0  0  0
    6.3421    0.5286   18.3816 C   0  0  0  0  0  0  0  0  0  0  0  0
    7.6208    0.0755   18.6619 C   0  0  0  0  0  0  0  0  0  0  0  0
    6.7526   -4.6664   25.9380 C   0  0  0  0  0  0  0  0  0  0  0  0
  1  2  1  0
  2  3  2  0
  3  4  1  0
  4  5  1  0
  5  6  1  0
  6  7  1  0
  7  8  1  0
  8  9  2  0
  9 10  1  0
 10 11  2  0
 11 12  1  0
 11 13  1  0
 13 14  2  0
 14 15  1  0
 15 16  2  0
 16 17  1  0
 17 18  2  0
 18 19  1  0
 19 20  1  0
 20 21  2  0
 20 22  1  0
 22 23  1  0
 23 24  2  0
 24 25  1  0
 25 26  2  0
 26 27  1  0
 27 28  2  0
  6 29  1  0
 29  2  1  0
 12  8  1  0
 18 13  1  0
 28 23  1  0
M  END
