CVD-0000861|dock_bobby27042020.69|mol2|2|dock3
     RDKit          3D

 24 26  0  0  0  0  0  0  0  0999 V2000
    7.4773    1.3488   23.7557 C   0  0  0  0  0  0  0  0  0  0  0  0
    8.3029    1.5393   22.4795 C   0  0  0  0  0  0  0  0  0  0  0  0
    9.4835    2.4545   22.6964 C   0  0  0  0  0  0  0  0  0  0  0  0
    9.4676    3.8390   22.5484 C   0  0  0  0  0  0  0  0  0  0  0  0
    8.3497    4.4418   22.0802 F   0  0  0  0  0  0  0  0  0  0  0  0
   10.5363    4.6685   22.7565 C   0  0  0  0  0  0  0  0  0  0  0  0
   11.7290    4.0896   23.1447 C   0  0  0  0  0  0  0  0  0  0  0  0
   11.8290    2.7200   23.3143 C   0  0  0  0  0  0  0  0  0  0  0  0
   10.7200    1.9039   23.0937 C   0  0  0  0  0  0  0  0  0  0  0  0
   10.8575    0.5228   23.2769 N   0  0  0  0  0  0  0  0  0  0  0  0
    9.8364   -0.4442   22.9069 C   0  0  0  0  0  0  0  0  0  0  0  0
    8.7818    0.1689   22.0109 C   0  0  0  0  0  0  0  0  0  0  0  0
    9.2633    0.2723   20.7386 F   0  0  0  0  0  0  0  0  0  0  0  0
    7.7097   -0.6724   21.9331 F   0  0  0  0  0  0  0  0  0  0  0  0
   12.0481   -0.1482   23.8491 C   0  0  0  0  0  0  0  0  0  0  0  0
   11.6332   -1.3475   24.6927 C   0  0  0  0  0  0  0  0  0  0  0  0
   12.8841   -2.0078   25.2600 C   0  0  0  0  0  0  0  0  0  0  0  0
   13.7794   -2.3989   24.2375 O   0  0  0  0  0  0  0  0  0  0  0  0
   14.2272   -1.2725   23.4836 C   0  0  0  0  0  0  0  0  0  0  0  0
   13.0628   -0.5635   22.7922 C   0  0  0  0  0  0  0  0  0  0  0  0
   13.1114    5.1376   23.5923 S   0  0  0  0  0  0  0  0  0  0  0  0
   13.8665    5.5218   22.0545 C   0  0  0  0  0  0  0  0  0  0  0  0
   12.5712    6.4255   24.1684 N   0  0  0  0  0  0  0  0  0  0  0  0
   14.0512    4.3223   24.3407 O   0  0  0  0  0  0  0  0  0  0  0  0
  2  1  1  0
  2  3  1  0
  3  4  2  0
  4  5  1  0
  4  6  1  0
  6  7  2  0
  7  8  1  0
  8  9  2  0
  9 10  1  0
 10 11  1  0
 11 12  1  0
 12 13  1  0
 12 14  1  0
 10 15  1  0
 15 16  1  0
 16 17  1  0
 17 18  1  0
 18 19  1  0
 19 20  1  0
  7 21  1  0
 21 22  1  0
 21 23  2  0
 21 24  2  0
 12  2  1  0
 20 15  1  0
  9  3  1  0
M  END
