CVD-0000907|dock_bobby27042020.97|mol2|9|dock3
     RDKit          3D

 18 19  0  0  0  0  0  0  0  0999 V2000
   13.0828    4.0916   21.2419 C   0  0  0  0  0  0  0  0  0  0  0  0
   13.0058    3.2644   22.5195 C   0  0  0  0  0  0  0  0  0  0  0  0
   12.7019    4.1635   23.6373 N   0  0  0  0  0  0  0  0  0  0  0  0
   13.2481    5.3748   23.7636 C   0  0  0  0  0  0  0  0  0  0  0  0
   14.0494    5.8445   22.9617 O   0  0  0  0  0  0  0  0  0  0  0  0
   12.7921    6.1439   24.9839 C   0  0  0  0  0  0  0  0  0  0  0  0
   11.0333    6.2985   25.0823 Cl  0  0  0  0  0  0  0  0  0  0  0  0
   11.9549    2.1743   22.3979 C   0  0  0  0  0  0  0  0  0  0  0  0
   10.6446    2.5116   22.0630 C   0  0  0  0  0  0  0  0  0  0  0  0
    9.6891    1.5240   21.9563 C   0  0  0  0  0  0  0  0  0  0  0  0
    8.0537    1.9541   21.5404 Cl  0  0  0  0  0  0  0  0  0  0  0  0
   10.0077    0.2017   22.1759 C   0  0  0  0  0  0  0  0  0  0  0  0
   11.3099   -0.1519   22.5107 C   0  0  0  0  0  0  0  0  0  0  0  0
   11.6293   -1.6038   22.7509 C   0  0  0  0  0  0  0  0  0  0  0  0
   13.0156   -1.8752   23.1939 C   0  0  0  0  0  0  0  0  0  0  0  0
   13.9395   -0.9590   23.2867 C   0  0  0  0  0  0  0  0  0  0  0  0
   13.7178    0.4737   22.9739 C   0  0  0  0  0  0  0  0  0  0  0  0
   12.2938    0.8327   22.6243 C   0  0  0  0  0  0  0  0  0  0  0  0
  1  2  1  0
  2  3  1  0
  3  4  1  0
  4  5  2  0
  4  6  1  0
  6  7  1  0
  2  8  1  0
  8  9  2  0
  9 10  1  0
 10 11  1  0
 10 12  2  0
 12 13  1  0
 13 14  1  0
 14 15  1  0
 15 16  2  0
 16 17  1  0
 17 18  1  0
 18  8  1  0
 18 13  2  0
M  END
