CVD-0001289|dock_bobby27042020.38|mol2|35|dock2
     RDKit          3D

 19 20  0  0  0  0  0  0  0  0999 V2000
   11.0141    2.6660   22.6438 O   0  0  0  0  0  0  0  0  0  0  0  0
   12.2303    2.7994   22.5595 C   0  0  0  0  0  0  0  0  0  0  0  0
   12.8387    4.1726   22.3675 C   0  0  0  0  0  0  0  0  0  0  0  0
   12.0724    5.2159   23.1527 C   0  0  0  0  0  0  0  0  0  0  0  0
   12.5586    5.7153   24.1620 O   0  0  0  0  0  0  0  0  0  0  0  0
   10.8509    5.5025   22.6405 N   0  0  0  0  0  0  0  0  0  0  0  0
    9.8414    6.3953   23.0779 C   0  0  0  0  0  0  0  0  0  0  0  0
    9.9694    7.2100   24.1989 C   0  0  0  0  0  0  0  0  0  0  0  0
    8.9196    8.0430   24.5334 C   0  0  0  0  0  0  0  0  0  0  0  0
    7.7796    8.1202   23.8472 N   0  0  0  0  0  0  0  0  0  0  0  0
    7.6698    7.3351   22.7761 C   0  0  0  0  0  0  0  0  0  0  0  0
    8.6576    6.4674   22.3549 C   0  0  0  0  0  0  0  0  0  0  0  0
   13.1432    1.8004   22.6348 N   0  0  0  0  0  0  0  0  0  0  0  0
   12.9918    0.4034   22.8194 C   0  0  0  0  0  0  0  0  0  0  0  0
   11.9926   -0.0363   23.6803 C   0  0  0  0  0  0  0  0  0  0  0  0
   11.7980   -1.3894   23.8993 C   0  0  0  0  0  0  0  0  0  0  0  0
   12.5944   -2.3170   23.2650 C   0  0  0  0  0  0  0  0  0  0  0  0
   13.5879   -1.8931   22.4099 C   0  0  0  0  0  0  0  0  0  0  0  0
   13.7925   -0.5420   22.1826 C   0  0  0  0  0  0  0  0  0  0  0  0
  1  2  2  0
  2  3  1  0
  3  4  1  0
  4  5  2  0
  4  6  1  0
  6  7  1  0
  7  8  2  0
  8  9  1  0
  9 10  2  0
 10 11  1  0
 11 12  2  0
  2 13  1  0
 13 14  1  0
 14 15  2  0
 15 16  1  0
 16 17  2  0
 17 18  1  0
 18 19  2  0
 12  7  1  0
 19 14  1  0
M  END
