CVD-0000594|dock_bobby27042020.26|mol2|43|dock2
     RDKit          3D

 23 25  0  0  0  0  0  0  0  0999 V2000
   13.6064   -0.3968   23.9652 Cl  0  0  0  0  0  0  0  0  0  0  0  0
   12.2035    0.2631   23.1722 C   0  0  0  0  0  0  0  0  0  0  0  0
   12.0867    1.6303   23.0468 C   0  0  0  0  0  0  0  0  0  0  0  0
   10.9640    2.1363   22.4151 C   0  0  0  0  0  0  0  0  0  0  0  0
   10.8521    3.5219   22.2840 O   0  0  0  0  0  0  0  0  0  0  0  0
   11.9466    4.3881   22.3245 C   0  0  0  0  0  0  0  0  0  0  0  0
   12.0647    5.3560   23.3092 C   0  0  0  0  0  0  0  0  0  0  0  0
   13.1691    6.1915   23.3184 C   0  0  0  0  0  0  0  0  0  0  0  0
   14.1479    6.0629   22.3566 C   0  0  0  0  0  0  0  0  0  0  0  0
   14.0287    5.0974   21.3803 C   0  0  0  0  0  0  0  0  0  0  0  0
   12.9297    4.2551   21.3589 C   0  0  0  0  0  0  0  0  0  0  0  0
    9.9837    1.2906   21.9168 C   0  0  0  0  0  0  0  0  0  0  0  0
   10.1115   -0.0927   22.0491 C   0  0  0  0  0  0  0  0  0  0  0  0
   11.2410   -0.5977   22.6876 C   0  0  0  0  0  0  0  0  0  0  0  0
    9.0949   -1.0811   21.5400 C   0  0  0  0  0  0  0  0  0  0  0  0
    8.6410   -0.8900   20.4169 O   0  0  0  0  0  0  0  0  0  0  0  0
    8.7274   -2.1276   22.3319 N   0  0  0  0  0  0  0  0  0  0  0  0
    7.8085   -3.1846   22.1034 C   0  0  0  0  0  0  0  0  0  0  0  0
    7.9514   -4.3496   22.8465 C   0  0  0  0  0  0  0  0  0  0  0  0
    7.0752   -5.4027   22.6526 C   0  0  0  0  0  0  0  0  0  0  0  0
    6.0761   -5.2636   21.7182 C   0  0  0  0  0  0  0  0  0  0  0  0
    5.9105   -4.1607   20.9885 N   0  0  0  0  0  0  0  0  0  0  0  0
    6.7619   -3.1486   21.1830 C   0  0  0  0  0  0  0  0  0  0  0  0
  1  2  1  0
  2  3  2  0
  3  4  1  0
  4  5  1  0
  5  6  1  0
  6  7  2  0
  7  8  1  0
  8  9  2  0
  9 10  1  0
 10 11  2  0
  4 12  2  0
 12 13  1  0
 13 14  2  0
 13 15  1  0
 15 16  2  0
 15 17  1  0
 17 18  1  0
 18 19  2  0
 19 20  1  0
 20 21  2  0
 21 22  1  0
 22 23  2  0
 14  2  1  0
 23 18  1  0
 11  6  1  0
M  END
