CVD-0000779|dock_bobby27042020.12|mol2|1|dock3
     RDKit          3D

 25 28  0  0  0  0  0  0  0  0999 V2000
    8.8665   -1.2006   28.1309 C   0  0  0  0  0  0  0  0  0  0  0  0
    8.5554   -0.6606   26.8480 O   0  0  0  0  0  0  0  0  0  0  0  0
    8.3209   -1.4929   25.7817 C   0  0  0  0  0  0  0  0  0  0  0  0
    8.5039   -0.9747   24.5062 C   0  0  0  0  0  0  0  0  0  0  0  0
    8.2879   -1.7504   23.3689 C   0  0  0  0  0  0  0  0  0  0  0  0
    8.4853   -1.1886   21.9653 C   0  0  0  0  0  0  0  0  0  0  0  0
    9.8474   -1.5453   21.4714 C   0  0  0  0  0  0  0  0  0  0  0  0
   10.8989   -0.8619   22.2647 N   0  0  0  0  0  0  0  0  0  0  0  0
   10.7441    0.5876   22.4983 C   0  0  0  0  0  0  0  0  0  0  0  0
    9.3665    1.1596   22.1512 C   0  0  0  0  0  0  0  0  0  0  0  0
    9.1816    2.5377   22.1060 C   0  0  0  0  0  0  0  0  0  0  0  0
    7.9421    3.0828   21.8254 C   0  0  0  0  0  0  0  0  0  0  0  0
    6.8721    2.2498   21.5862 C   0  0  0  0  0  0  0  0  0  0  0  0
    7.0495    0.8783   21.6297 C   0  0  0  0  0  0  0  0  0  0  0  0
    8.2915    0.3055   21.9110 C   0  0  0  0  0  0  0  0  0  0  0  0
   11.9489   -1.5217   22.8063 C   0  0  0  0  0  0  0  0  0  0  0  0
   12.0931   -2.7290   22.6602 O   0  0  0  0  0  0  0  0  0  0  0  0
   12.9567   -0.7284   23.6182 C   0  0  0  0  0  0  0  0  0  0  0  0
   14.4241   -1.6476   23.9791 Cl  0  0  0  0  0  0  0  0  0  0  0  0
    7.8790   -3.0785   23.5605 C   0  0  0  0  0  0  0  0  0  0  0  0
    7.5992   -4.0570   22.6380 N   0  0  0  0  0  0  0  0  0  0  0  0
    7.2366   -5.1983   23.3137 C   0  0  0  0  0  0  0  0  0  0  0  0
    7.2748   -4.9843   24.6522 C   0  0  0  0  0  0  0  0  0  0  0  0
    7.6857   -3.6284   24.8440 C   0  0  0  0  0  0  0  0  0  0  0  0
    7.9139   -2.8109   25.9591 C   0  0  0  0  0  0  0  0  0  0  0  0
  1  2  1  0
  2  3  1  0
  3  4  2  0
  4  5  1  0
  6  5  1  0
  6  7  1  0
  7  8  1  0
  8  9  1  0
  9 10  1  0
 10 11  2  0
 11 12  1  0
 12 13  2  0
 13 14  1  0
 14 15  2  0
  8 16  1  0
 16 17  2  0
 16 18  1  0
 18 19  1  0
  5 20  2  0
 20 21  1  0
 21 22  1  0
 22 23  2  0
 23 24  1  0
 24 25  2  0
 25  3  1  0
 15  6  1  0
 24 20  1  0
 15 10  1  0
M  END
