CVD-0003696|dock_bobby27042020.73|mol2|4|dock3
     RDKit          3D

 30 32  0  0  0  0  0  0  0  0999 V2000
   13.0143    5.0924   21.7435 N   0  0  0  0  0  0  0  0  0  0  0  0
   13.2650    4.1760   22.6771 C   0  0  0  0  0  0  0  0  0  0  0  0
   14.2354    4.3010   23.4381 O   0  0  0  0  0  0  0  0  0  0  0  0
   12.3646    2.9971   22.7965 C   0  0  0  0  0  0  0  0  0  0  0  0
   12.6768    1.8562   23.3869 C   0  0  0  0  0  0  0  0  0  0  0  0
   11.7694    0.6718   23.5059 C   0  0  0  0  0  0  0  0  0  0  0  0
   11.4166    0.0517   22.1515 C   0  0  0  0  0  0  0  0  0  0  0  0
   10.4961   -1.1592   22.1894 C   0  0  0  0  0  0  0  0  0  0  0  0
   11.1444   -2.1558   22.9804 O   0  0  0  0  0  0  0  0  0  0  0  0
    9.0862   -0.8291   22.7097 C   0  0  0  0  0  0  0  0  0  0  0  0
    8.8976   -1.3772   24.1625 C   0  0  0  0  0  0  0  0  0  0  0  0
    8.6617   -2.8126   24.1454 N   0  0  0  0  0  0  0  0  0  0  0  0
    7.4812   -3.1521   23.3541 C   0  0  0  0  0  0  0  0  0  0  0  0
    7.1667   -4.6461   23.4973 C   0  0  0  0  0  0  0  0  0  0  0  0
    7.5026   -5.2148   24.8545 C   0  0  0  0  0  0  0  0  0  0  0  0
    6.8585   -4.7467   25.9925 C   0  0  0  0  0  0  0  0  0  0  0  0
    7.1702   -5.2677   27.2399 C   0  0  0  0  0  0  0  0  0  0  0  0
    6.5291   -4.7991   28.3494 O   0  0  0  0  0  0  0  0  0  0  0  0
    8.1292   -6.2619   27.3667 C   0  0  0  0  0  0  0  0  0  0  0  0
    8.7739   -6.7290   26.2308 C   0  0  0  0  0  0  0  0  0  0  0  0
    9.7195   -7.7063   26.3418 O   0  0  0  0  0  0  0  0  0  0  0  0
    8.4636   -6.2092   24.9825 C   0  0  0  0  0  0  0  0  0  0  0  0
    7.6790   -2.7466   21.9016 C   0  0  0  0  0  0  0  0  0  0  0  0
    7.9247   -1.2431   21.7891 C   0  0  0  0  0  0  0  0  0  0  0  0
    7.9601   -0.7345   20.3379 C   0  0  0  0  0  0  0  0  0  0  0  0
    6.7063   -0.6885   19.4594 C   0  0  0  0  0  0  0  0  0  0  0  0
    5.6572    0.2307   19.8411 C   0  0  0  0  0  0  0  0  0  0  0  0
    5.4496    1.1963   18.6335 C   0  0  0  0  0  0  0  0  0  0  0  0
    6.4784    0.7462   17.6482 N   0  0  0  0  0  0  0  0  0  0  0  0
    7.2569   -0.3671   18.1344 C   0  0  0  0  0  0  0  0  0  0  0  0
  1  2  1  0
  2  3  2  0
  2  4  1  0
  4  5  2  0
  5  6  1  0
  6  7  1  0
  7  8  1  0
  8  9  1  0
  8 10  1  0
 10 11  1  0
 11 12  1  0
 12 13  1  0
 13 14  1  0
 14 15  1  0
 15 16  2  0
 16 17  1  0
 17 18  1  0
 17 19  2  0
 19 20  1  0
 20 21  1  0
 20 22  2  0
 13 23  1  0
 23 24  1  0
 24 25  1  0
 25 26  1  0
 26 27  1  0
 27 28  1  0
 28 29  1  0
 29 30  1  0
 24 10  1  0
 30 26  1  0
 22 15  1  0
M  END
