CVD-0002637|dock_bobby27042020.19|mol2|12|dock3
     RDKit          3D

 33 35  0  0  0  0  0  0  0  0999 V2000
   13.6665   -2.2697   25.5375 C   0  0  0  0  0  0  0  0  0  0  0  0
   14.0304   -1.5826   24.2586 C   0  0  0  0  0  0  0  0  0  0  0  0
   12.8601   -1.2239   23.4671 N   0  0  0  0  0  0  0  0  0  0  0  0
   12.2958   -0.0450   23.5256 C   0  0  0  0  0  0  0  0  0  0  0  0
   11.1922    0.4991   22.8693 C   0  0  0  0  0  0  0  0  0  0  0  0
   10.3587   -0.1781   21.9028 C   0  0  0  0  0  0  0  0  0  0  0  0
   10.4834   -1.6155   21.4707 C   0  0  0  0  0  0  0  0  0  0  0  0
   10.1003   -2.6091   22.5502 C   0  0  0  0  0  0  0  0  0  0  0  0
    8.6627   -2.8345   22.5953 N   0  0  0  0  0  0  0  0  0  0  0  0
    8.1361   -3.9496   23.1391 C   0  0  0  0  0  0  0  0  0  0  0  0
    8.8359   -4.8342   23.6250 O   0  0  0  0  0  0  0  0  0  0  0  0
    6.7876   -4.0297   23.1144 N   0  0  0  0  0  0  0  0  0  0  0  0
    6.0545   -5.2059   23.5830 C   0  0  0  0  0  0  0  0  0  0  0  0
    5.3209   -4.9140   24.9082 C   0  0  0  0  0  0  0  0  0  0  0  0
    4.4869   -6.1008   25.3865 C   0  0  0  0  0  0  0  0  0  0  0  0
    3.5182   -6.5686   24.3080 C   0  0  0  0  0  0  0  0  0  0  0  0
    4.2506   -6.8858   23.0123 C   0  0  0  0  0  0  0  0  0  0  0  0
    5.0493   -5.6829   22.5209 C   0  0  0  0  0  0  0  0  0  0  0  0
    9.3633    0.5439   21.3361 C   0  0  0  0  0  0  0  0  0  0  0  0
    9.0680    1.8478   21.5798 N   0  0  0  0  0  0  0  0  0  0  0  0
    9.7667    2.5409   22.4566 C   0  0  0  0  0  0  0  0  0  0  0  0
   10.8546    1.8893   23.2016 C   0  0  0  0  0  0  0  0  0  0  0  0
   11.4540    2.4882   24.0900 O   0  0  0  0  0  0  0  0  0  0  0  0
    9.3762    3.9695   22.6160 C   0  0  0  0  0  0  0  0  0  0  0  0
    8.0248    4.2732   22.8020 C   0  0  0  0  0  0  0  0  0  0  0  0
    7.6301    5.5842   22.9496 C   0  0  0  0  0  0  0  0  0  0  0  0
    8.4738    6.6100   22.9505 N   0  0  0  0  0  0  0  0  0  0  0  0
    9.7708    6.3392   22.7905 C   0  0  0  0  0  0  0  0  0  0  0  0
   10.2883    5.0578   22.6026 C   0  0  0  0  0  0  0  0  0  0  0  0
   11.6720    4.8023   22.3937 N   0  0  0  0  0  0  0  0  0  0  0  0
   12.7850    5.4459   22.8340 C   0  0  0  0  0  0  0  0  0  0  0  0
   14.0661    4.8342   22.3484 C   0  0  0  0  0  0  0  0  0  0  0  0
   12.7973    6.4429   23.5477 O   0  0  0  0  0  0  0  0  0  0  0  0
  1  2  1  0
  2  3  1  0
  3  4  1  0
  4  5  2  0
  5  6  1  0
  6  7  1  0
  7  8  1  0
  8  9  1  0
  9 10  1  0
 10 11  2  0
 10 12  1  0
 12 13  1  0
 13 14  1  0
 14 15  1  0
 15 16  1  0
 16 17  1  0
 17 18  1  0
  6 19  2  0
 19 20  1  0
 20 21  2  0
 21 22  1  0
 22 23  2  0
 21 24  1  0
 24 25  2  0
 25 26  1  0
 26 27  2  0
 27 28  1  0
 28 29  2  0
 29 30  1  0
 30 31  1  0
 31 32  1  0
 31 33  2  0
 22  5  1  0
 29 24  1  0
 18 13  1  0
M  END
