CVD-0004046|dock_bobby27042020.57|mol2|38|dock1
     RDKit          3D

 26 30  0  0  0  0  0  0  0  0999 V2000
    5.3002   -0.3857   19.1479 C   0  0  0  0  0  0  0  0  0  0  0  0
    6.5389    0.0470   19.8829 C   0  0  0  0  0  0  0  0  0  0  0  0
    6.8269    1.4538   20.0850 C   0  0  0  0  0  0  0  0  0  0  0  0
    7.8851    1.9222   20.7066 N   0  0  0  0  0  0  0  0  0  0  0  0
    8.7628    1.0047   21.1822 C   0  0  0  0  0  0  0  0  0  0  0  0
   10.0026    1.1092   21.9070 C   0  0  0  0  0  0  0  0  0  0  0  0
   10.4238   -0.2485   22.0712 C   0  0  0  0  0  0  0  0  0  0  0  0
    9.5238   -1.0984   21.5702 N   0  0  0  0  0  0  0  0  0  0  0  0
    8.5281   -0.3413   21.0137 N   0  0  0  0  0  0  0  0  0  0  0  0
    7.4402   -0.8305   20.3751 C   0  0  0  0  0  0  0  0  0  0  0  0
   11.6344   -0.8674   22.6541 C   0  0  0  0  0  0  0  0  0  0  0  0
   12.3017   -1.9307   22.0536 C   0  0  0  0  0  0  0  0  0  0  0  0
   13.4497   -2.4626   22.6139 C   0  0  0  0  0  0  0  0  0  0  0  0
   13.9024   -1.9386   23.7931 C   0  0  0  0  0  0  0  0  0  0  0  0
   15.0312   -2.4574   24.3474 F   0  0  0  0  0  0  0  0  0  0  0  0
   13.2653   -0.9150   24.4384 C   0  0  0  0  0  0  0  0  0  0  0  0
   12.1259   -0.3829   23.8619 C   0  0  0  0  0  0  0  0  0  0  0  0
   10.5951    2.4138   22.3425 C   0  0  0  0  0  0  0  0  0  0  0  0
    9.7996    3.5210   22.6298 C   0  0  0  0  0  0  0  0  0  0  0  0
   10.3621    4.7181   23.0361 C   0  0  0  0  0  0  0  0  0  0  0  0
   11.7530    4.8543   23.1534 C   0  0  0  0  0  0  0  0  0  0  0  0
   12.6754    5.8675   23.5172 C   0  0  0  0  0  0  0  0  0  0  0  0
   13.9172    5.4294   23.4442 N   0  0  0  0  0  0  0  0  0  0  0  0
   13.8376    4.1297   23.0348 N   0  0  0  0  0  0  0  0  0  0  0  0
   12.5483    3.7395   22.8498 C   0  0  0  0  0  0  0  0  0  0  0  0
   11.9790    2.5349   22.4513 C   0  0  0  0  0  0  0  0  0  0  0  0
  1  2  1  0
  2  3  1  0
  3  4  2  0
  4  5  1  0
  5  6  2  0
  6  7  1  0
  7  8  2  0
  8  9  1  0
  9 10  1  0
  7 11  1  0
 11 12  2  0
 12 13  1  0
 13 14  2  0
 14 15  1  0
 14 16  1  0
 16 17  2  0
  6 18  1  0
 18 19  2  0
 19 20  1  0
 20 21  2  0
 21 22  1  0
 22 23  2  0
 23 24  1  0
 24 25  1  0
 25 26  2  0
 10  2  2  0
 17 11  1  0
 26 18  1  0
  9  5  1  0
 25 21  1  0
M  END
