CVD-0003065|dock_bobby27042020.32|mol2|13|dock2
     RDKit          3D

 26 28  0  0  0  0  0  0  0  0999 V2000
   13.7468    1.1928   23.1779 C   0  0  0  0  0  0  0  0  0  0  0  0
   13.1130    2.5202   22.8493 C   0  0  0  0  0  0  0  0  0  0  0  0
   13.9439    3.5972   22.5552 C   0  0  0  0  0  0  0  0  0  0  0  0
   13.3937    4.8214   22.2482 C   0  0  0  0  0  0  0  0  0  0  0  0
   12.0824    5.0401   22.2150 N   0  0  0  0  0  0  0  0  0  0  0  0
   11.2740    4.0129   22.4945 C   0  0  0  0  0  0  0  0  0  0  0  0
   11.7209    2.7313   22.8181 C   0  0  0  0  0  0  0  0  0  0  0  0
   10.8626    1.6359   23.1154 N   0  0  0  0  0  0  0  0  0  0  0  0
    9.6886    1.2613   22.5497 C   0  0  0  0  0  0  0  0  0  0  0  0
    9.1189    1.8308   21.6252 O   0  0  0  0  0  0  0  0  0  0  0  0
    9.0948    0.0214   23.1725 C   0  0  0  0  0  0  0  0  0  0  0  0
    9.9394   -1.2132   22.9092 C   0  0  0  0  0  0  0  0  0  0  0  0
    9.1768   -2.4577   23.0124 N   0  0  0  0  0  0  0  0  0  0  0  0
    9.5725   -3.4060   24.0457 C   0  0  0  0  0  0  0  0  0  0  0  0
    8.3993   -4.2990   24.4082 C   0  0  0  0  0  0  0  0  0  0  0  0
    7.9196   -5.0472   23.1817 C   0  0  0  0  0  0  0  0  0  0  0  0
    7.6374   -4.0948   22.0448 C   0  0  0  0  0  0  0  0  0  0  0  0
    6.7533   -4.4345   21.0272 C   0  0  0  0  0  0  0  0  0  0  0  0
    6.5468   -3.5994   19.9468 C   0  0  0  0  0  0  0  0  0  0  0  0
    7.2376   -2.4011   19.8827 C   0  0  0  0  0  0  0  0  0  0  0  0
    8.1271   -2.0304   20.8800 C   0  0  0  0  0  0  0  0  0  0  0  0
    8.3369   -2.8717   21.9711 C   0  0  0  0  0  0  0  0  0  0  0  0
    6.9533   -1.3004   18.5295 S   0  0  0  0  0  0  0  0  0  0  0  0
    8.3110   -0.5082   18.2261 N   0  0  0  0  0  0  0  0  0  0  0  0
    5.9867   -0.3350   18.9592 O   0  0  0  0  0  0  0  0  0  0  0  0
    6.6652   -2.1030   17.3788 O   0  0  0  0  0  0  0  0  0  0  0  0
  1  2  1  0
  2  3  2  0
  3  4  1  0
  4  5  2  0
  5  6  1  0
  6  7  2  0
  7  8  1  0
  8  9  1  0
  9 10  2  0
  9 11  1  0
 11 12  1  0
 12 13  1  0
 13 14  1  0
 14 15  1  0
 15 16  1  0
 16 17  1  0
 17 18  2  0
 18 19  1  0
 19 20  2  0
 20 21  1  0
 21 22  2  0
 20 23  1  0
 23 24  1  0
 23 25  2  0
 23 26  2  0
  7  2  1  0
 22 13  1  0
 22 17  1  0
M  END
