CVD-0001233|dock_bobby27042020.10|mol2|22|dock2
     RDKit          3D

 26 28  0  0  0  0  0  0  0  0999 V2000
    8.2733   -1.8010   18.0408 C   0  0  0  0  0  0  0  0  0  0  0  0
    7.3207   -1.0604   18.9439 C   0  0  0  0  0  0  0  0  0  0  0  0
    6.0513   -0.7559   18.4614 C   0  0  0  0  0  0  0  0  0  0  0  0
    5.1578   -0.0827   19.2640 C   0  0  0  0  0  0  0  0  0  0  0  0
    5.4439    0.3027   20.5041 N   0  0  0  0  0  0  0  0  0  0  0  0
    6.6598    0.0148   20.9792 C   0  0  0  0  0  0  0  0  0  0  0  0
    7.6427   -0.6618   20.2559 C   0  0  0  0  0  0  0  0  0  0  0  0
    8.9381   -0.9705   20.7584 N   0  0  0  0  0  0  0  0  0  0  0  0
    9.4836   -0.7511   21.9804 C   0  0  0  0  0  0  0  0  0  0  0  0
    8.9213   -0.2127   22.9277 O   0  0  0  0  0  0  0  0  0  0  0  0
   10.9124   -1.2442   22.0865 C   0  0  0  0  0  0  0  0  0  0  0  0
   11.6803   -0.8076   23.3511 C   0  0  0  0  0  0  0  0  0  0  0  0
   13.1033   -1.3557   23.2684 C   0  0  0  0  0  0  0  0  0  0  0  0
   10.9967   -1.3746   24.5945 C   0  0  0  0  0  0  0  0  0  0  0  0
   11.7340    0.6702   23.4389 N   0  0  0  0  0  0  0  0  0  0  0  0
   12.5190    1.4840   22.7048 C   0  0  0  0  0  0  0  0  0  0  0  0
   13.3493    1.0290   21.9243 O   0  0  0  0  0  0  0  0  0  0  0  0
   12.3995    2.9775   22.8425 C   0  0  0  0  0  0  0  0  0  0  0  0
   13.5972    3.6942   22.7830 C   0  0  0  0  0  0  0  0  0  0  0  0
   13.6229    5.0715   22.9457 C   0  0  0  0  0  0  0  0  0  0  0  0
   12.4582    5.7880   23.1655 C   0  0  0  0  0  0  0  0  0  0  0  0
   11.2527    5.0975   23.1933 C   0  0  0  0  0  0  0  0  0  0  0  0
    9.9656    5.5428   23.3708 N   0  0  0  0  0  0  0  0  0  0  0  0
    9.1100    4.4718   23.2787 C   0  0  0  0  0  0  0  0  0  0  0  0
    9.8079    3.3311   23.0570 C   0  0  0  0  0  0  0  0  0  0  0  0
   11.1967    3.7021   23.0190 C   0  0  0  0  0  0  0  0  0  0  0  0
  1  2  1  0
  2  3  2  0
  3  4  1  0
  4  5  2  0
  5  6  1  0
  6  7  2  0
  7  8  1  0
  8  9  1  0
  9 10  2  0
  9 11  1  0
 11 12  1  0
 12 13  1  0
 12 14  1  0
 12 15  1  0
 15 16  1  0
 16 17  2  0
 16 18  1  0
 18 19  2  0
 19 20  1  0
 20 21  2  0
 21 22  1  0
 22 23  1  0
 23 24  1  0
 24 25  2  0
 25 26  1  0
  7  2  1  0
 26 18  1  0
 26 22  2  0
M  END
