CVD-0001224|dock_bobby27042020.39|mol2|1|dock1
     RDKit          3D

 21 22  0  0  0  0  0  0  0  0999 V2000
    5.9348   -0.2884   23.1001 C   0  0  0  0  0  0  0  0  0  0  0  0
    6.7358    0.0615   21.9339 N   0  0  0  0  0  0  0  0  0  0  0  0
    8.0745    0.5587   22.2287 C   0  0  0  0  0  0  0  0  0  0  0  0
    9.1306   -0.5321   22.2734 C   0  0  0  0  0  0  0  0  0  0  0  0
    8.8689   -1.6636   21.8799 O   0  0  0  0  0  0  0  0  0  0  0  0
   10.3194   -0.1051   22.7661 N   0  0  0  0  0  0  0  0  0  0  0  0
   11.5410   -0.8088   22.9585 C   0  0  0  0  0  0  0  0  0  0  0  0
   11.6406   -2.1982   23.0363 C   0  0  0  0  0  0  0  0  0  0  0  0
   12.7891   -2.8580   23.2159 N   0  0  0  0  0  0  0  0  0  0  0  0
   13.9033   -2.1403   23.3268 C   0  0  0  0  0  0  0  0  0  0  0  0
   13.9206   -0.7649   23.2652 C   0  0  0  0  0  0  0  0  0  0  0  0
   12.7315   -0.0663   23.0794 C   0  0  0  0  0  0  0  0  0  0  0  0
   12.7845    1.4385   23.0128 C   0  0  0  0  0  0  0  0  0  0  0  0
    6.3181   -0.2145   20.6372 C   0  0  0  0  0  0  0  0  0  0  0  0
    6.0589   -1.5218   20.2338 C   0  0  0  0  0  0  0  0  0  0  0  0
    5.6464   -1.7962   18.9404 C   0  0  0  0  0  0  0  0  0  0  0  0
    5.4818   -0.7733   18.0251 C   0  0  0  0  0  0  0  0  0  0  0  0
    5.7325    0.5364   18.4125 C   0  0  0  0  0  0  0  0  0  0  0  0
    6.1479    0.8147   19.7127 C   0  0  0  0  0  0  0  0  0  0  0  0
    5.5640    1.6151   17.4704 C   0  0  0  0  0  0  0  0  0  0  0  0
    5.4318    2.4913   16.7494 N   0  0  0  0  0  0  0  0  0  0  0  0
  1  2  1  0
  2  3  1  0
  3  4  1  0
  4  5  2  0
  4  6  1  0
  6  7  1  0
  7  8  2  0
  8  9  1  0
  9 10  2  0
 10 11  1  0
 11 12  2  0
 12 13  1  0
  2 14  1  0
 14 15  2  0
 15 16  1  0
 16 17  2  0
 17 18  1  0
 18 19  2  0
 18 20  1  0
 20 21  3  0
 12  7  1  0
 19 14  1  0
M  END
