CVD-0002731|dock_bobby27042020.90|mol2|21|dock1
     RDKit          3D

 25 26  0  0  0  0  0  0  0  0999 V2000
    6.4208   -1.0936   22.8605 O   0  0  0  0  0  0  0  0  0  0  0  0
    7.0869   -0.2278   21.9459 C   0  0  0  0  0  0  0  0  0  0  0  0
    8.5390   -0.6690   21.8044 C   0  0  0  0  0  0  0  0  0  0  0  0
    9.5126    0.1974   22.4874 N   0  0  0  0  0  0  0  0  0  0  0  0
   10.0360   -0.2930   23.7658 C   0  0  0  0  0  0  0  0  0  0  0  0
   11.4295   -0.8700   23.6848 C   0  0  0  0  0  0  0  0  0  0  0  0
   12.3445   -0.6502   24.7030 C   0  0  0  0  0  0  0  0  0  0  0  0
   13.6228   -1.1785   24.6333 C   0  0  0  0  0  0  0  0  0  0  0  0
   14.0009   -1.9343   23.5446 C   0  0  0  0  0  0  0  0  0  0  0  0
   13.0999   -2.1636   22.5271 C   0  0  0  0  0  0  0  0  0  0  0  0
   11.8212   -1.6364   22.5977 C   0  0  0  0  0  0  0  0  0  0  0  0
    9.9120    1.3826   21.9774 C   0  0  0  0  0  0  0  0  0  0  0  0
    9.4815    1.7931   20.9073 O   0  0  0  0  0  0  0  0  0  0  0  0
   10.9190    2.2079   22.7628 C   0  0  0  0  0  0  0  0  0  0  0  0
   11.4192    3.3048   21.9627 N   0  0  0  0  0  0  0  0  0  0  0  0
   12.6266    3.8266   22.2098 C   0  0  0  0  0  0  0  0  0  0  0  0
   13.3322    3.3792   23.1250 O   0  0  0  0  0  0  0  0  0  0  0  0
   13.1016    4.9517   21.3645 C   0  0  0  0  0  0  0  0  0  0  0  0
   14.0364    5.8060   21.6958 C   0  0  0  0  0  0  0  0  0  0  0  0
    6.4112   -0.2433   20.5892 C   0  0  0  0  0  0  0  0  0  0  0  0
    5.9369   -1.4272   20.0399 C   0  0  0  0  0  0  0  0  0  0  0  0
    5.3249   -1.4356   18.7975 C   0  0  0  0  0  0  0  0  0  0  0  0
    5.1784   -0.2625   18.0889 C   0  0  0  0  0  0  0  0  0  0  0  0
    5.6435    0.9203   18.6221 C   0  0  0  0  0  0  0  0  0  0  0  0
    6.2557    0.9303   19.8643 C   0  0  0  0  0  0  0  0  0  0  0  0
  2  1  1  0
  2  3  1  0
  3  4  1  0
  4  5  1  0
  5  6  1  0
  6  7  2  0
  7  8  1  0
  8  9  2  0
  9 10  1  0
 10 11  2  0
  4 12  1  0
 12 13  2  0
 12 14  1  0
 14 15  1  0
 15 16  1  0
 16 17  2  0
 16 18  1  0
 18 19  2  0
  2 20  1  0
 20 21  2  0
 21 22  1  0
 22 23  2  0
 23 24  1  0
 24 25  2  0
 11  6  1  0
 25 20  1  0
M  END
