CVD-0000357|dock_bobby27042020.84|mol2|31|dock3
     RDKit          3D

 29 31  0  0  0  0  0  0  0  0999 V2000
   10.5262   -1.9310   23.6878 C   0  0  0  0  0  0  0  0  0  0  0  0
    9.9607   -1.8820   22.2758 C   0  0  0  0  0  0  0  0  0  0  0  0
    8.5530   -1.2959   22.2518 C   0  0  0  0  0  0  0  0  0  0  0  0
    7.8724   -1.4146   20.9078 C   0  0  0  0  0  0  0  0  0  0  0  0
    8.0966   -0.4108   19.9707 C   0  0  0  0  0  0  0  0  0  0  0  0
    7.4978   -0.4772   18.7408 C   0  0  0  0  0  0  0  0  0  0  0  0
    7.7183    0.5002   17.8320 F   0  0  0  0  0  0  0  0  0  0  0  0
    6.6744   -1.5286   18.4213 C   0  0  0  0  0  0  0  0  0  0  0  0
    6.0938   -1.5740   17.2003 F   0  0  0  0  0  0  0  0  0  0  0  0
    6.4351   -2.5307   19.3245 C   0  0  0  0  0  0  0  0  0  0  0  0
    7.0321   -2.4868   20.5837 C   0  0  0  0  0  0  0  0  0  0  0  0
    6.7476   -3.6019   21.5663 C   0  0  0  0  0  0  0  0  0  0  0  0
    5.5846   -3.3161   22.4763 C   0  0  0  0  0  0  0  0  0  0  0  0
    5.3477   -4.4688   23.3439 N   0  0  0  0  0  0  0  0  0  0  0  0
    5.2246   -5.7272   22.6109 C   0  0  0  0  0  0  0  0  0  0  0  0
    6.3954   -5.8998   21.6896 C   0  0  0  0  0  0  0  0  0  0  0  0
    6.5470   -4.7921   20.8178 O   0  0  0  0  0  0  0  0  0  0  0  0
    5.2376   -4.4048   24.6945 C   0  0  0  0  0  0  0  0  0  0  0  0
    5.3920   -3.0716   25.3659 C   0  0  0  0  0  0  0  0  0  0  0  0
    5.0288   -5.4207   25.3481 O   0  0  0  0  0  0  0  0  0  0  0  0
   10.8685   -1.1459   21.3777 N   0  0  0  0  0  0  0  0  0  0  0  0
   11.6401   -0.0757   21.7284 C   0  0  0  0  0  0  0  0  0  0  0  0
   12.9433   -0.2827   22.1781 C   0  0  0  0  0  0  0  0  0  0  0  0
   13.7058    0.8170   22.5275 C   0  0  0  0  0  0  0  0  0  0  0  0
   13.1635    2.0927   22.4246 C   0  0  0  0  0  0  0  0  0  0  0  0
   11.8542    2.1982   21.9656 C   0  0  0  0  0  0  0  0  0  0  0  0
   11.1043    1.1444   21.6238 N   0  0  0  0  0  0  0  0  0  0  0  0
   13.9286    3.2624   22.7799 C   0  0  0  0  0  0  0  0  0  0  0  0
   14.5431    4.1741   23.0898 N   0  0  0  0  0  0  0  0  0  0  0  0
  2  1  1  0
  2  3  1  0
  3  4  1  0
  4  5  2  0
  5  6  1  0
  6  7  1  0
  6  8  2  0
  8  9  1  0
  8 10  1  0
 10 11  2  0
 12 11  1  0
 12 13  1  0
 13 14  1  0
 14 15  1  0
 15 16  1  0
 16 17  1  0
 14 18  1  0
 18 19  1  0
 18 20  2  0
  2 21  1  0
 21 22  1  0
 22 23  2  0
 23 24  1  0
 24 25  2  0
 25 26  1  0
 26 27  2  0
 25 28  1  0
 28 29  3  0
 11  4  1  0
 17 12  1  0
 27 22  1  0
M  END
