CVD-0001794|dock_bobby27042020.66|mol2|7|dock2
     RDKit          3D

 31 34  0  0  0  0  0  0  0  0999 V2000
    7.0697   -5.7768   22.2612 C   0  0  0  0  0  0  0  0  0  0  0  0
    6.6106   -4.7552   21.2628 C   0  0  0  0  0  0  0  0  0  0  0  0
    6.4628   -5.0500   20.0819 O   0  0  0  0  0  0  0  0  0  0  0  0
    6.3586   -3.5022   21.7191 N   0  0  0  0  0  0  0  0  0  0  0  0
    6.4964   -3.1294   23.1193 C   0  0  0  0  0  0  0  0  0  0  0  0
    7.8754   -2.6537   23.5414 C   0  0  0  0  0  0  0  0  0  0  0  0
    8.3419   -1.4344   22.8228 N   0  0  0  0  0  0  0  0  0  0  0  0
    8.2891   -0.2566   23.6998 C   0  0  0  0  0  0  0  0  0  0  0  0
    9.2776    0.8130   23.2991 C   0  0  0  0  0  0  0  0  0  0  0  0
    8.8226    2.0943   23.0027 C   0  0  0  0  0  0  0  0  0  0  0  0
    9.6868    3.0789   22.6336 C   0  0  0  0  0  0  0  0  0  0  0  0
   11.0751    2.8248   22.5385 C   0  0  0  0  0  0  0  0  0  0  0  0
   11.9059    3.8468   22.1624 N   0  0  0  0  0  0  0  0  0  0  0  0
   13.2060    3.6066   22.0720 C   0  0  0  0  0  0  0  0  0  0  0  0
   13.7742    2.3634   22.3396 C   0  0  0  0  0  0  0  0  0  0  0  0
   12.9637    1.3356   22.7150 C   0  0  0  0  0  0  0  0  0  0  0  0
   11.5642    1.5264   22.8335 C   0  0  0  0  0  0  0  0  0  0  0  0
   10.6392    0.5168   23.2216 C   0  0  0  0  0  0  0  0  0  0  0  0
   11.1103   -0.8773   23.5577 C   0  0  0  0  0  0  0  0  0  0  0  0
   14.0379    4.7911   21.6528 C   0  0  0  0  0  0  0  0  0  0  0  0
   13.6717    6.0175   22.0084 N   0  0  0  0  0  0  0  0  0  0  0  0
   15.0546    4.5895   20.9792 O   0  0  0  0  0  0  0  0  0  0  0  0
    7.9013   -0.8800   21.5060 C   0  0  0  0  0  0  0  0  0  0  0  0
    6.4131   -1.0693   21.2642 C   0  0  0  0  0  0  0  0  0  0  0  0
    5.9481   -2.4381   20.8069 C   0  0  0  0  0  0  0  0  0  0  0  0
    5.9656   -0.0836   20.2021 C   0  0  0  0  0  0  0  0  0  0  0  0
    4.9573    0.8345   20.4558 C   0  0  0  0  0  0  0  0  0  0  0  0
    4.5651    1.7248   19.4715 C   0  0  0  0  0  0  0  0  0  0  0  0
    5.1958    1.6715   18.2497 C   0  0  0  0  0  0  0  0  0  0  0  0
    6.1673    0.8023   17.9691 N   0  0  0  0  0  0  0  0  0  0  0  0
    6.5282   -0.0464   18.9362 C   0  0  0  0  0  0  0  0  0  0  0  0
  1  2  1  0
  2  3  2  0
  2  4  1  0
  4  5  1  0
  5  6  1  0
  6  7  1  0
  7  8  1  0
  8  9  1  0
  9 10  2  0
 10 11  1  0
 11 12  2  0
 12 13  1  0
 13 14  2  0
 14 15  1  0
 15 16  2  0
 16 17  1  0
 17 18  2  0
 18 19  1  0
 14 20  1  0
 20 21  1  0
 20 22  2  0
  7 23  1  0
 23 24  1  0
 24 25  1  0
 24 26  1  0
 26 27  2  0
 27 28  1  0
 28 29  2  0
 29 30  1  0
 30 31  2  0
 25  4  1  0
 31 26  1  0
 18  9  1  0
 17 12  1  0
M  END
