CVD-0002081|dock_bobby27042020.78|mol2|41|dock3
     RDKit          3D

 19 19  0  0  0  0  0  0  0  0999 V2000
    3.5168    2.3094   19.3419 C   0  0  0  0  0  0  0  0  0  0  0  0
    4.2884    1.0374   19.5473 C   0  0  0  0  0  0  0  0  0  0  0  0
    4.3744    0.4868   20.6117 O   0  0  0  0  0  0  0  0  0  0  0  0
    5.0615    0.3991   18.0970 S   0  0  0  0  0  0  0  0  0  0  0  0
    6.2999   -0.7735   18.7195 C   0  0  0  0  0  0  0  0  0  0  0  0
    7.4895   -0.0352   19.3014 C   0  0  0  0  0  0  0  0  0  0  0  0
    8.3911   -0.9267   20.0167 N   0  0  0  0  0  0  0  0  0  0  0  0
    8.1667   -1.3290   21.2647 C   0  0  0  0  0  0  0  0  0  0  0  0
    7.1841   -0.9826   21.9129 O   0  0  0  0  0  0  0  0  0  0  0  0
    9.2000   -2.2653   21.8608 C   0  0  0  0  0  0  0  0  0  0  0  0
   10.5233   -1.6518   21.9893 N   0  0  0  0  0  0  0  0  0  0  0  0
   10.4704   -0.2263   22.3184 C   0  0  0  0  0  0  0  0  0  0  0  0
   11.7593    0.2200   22.9848 C   0  0  0  0  0  0  0  0  0  0  0  0
   12.0551    1.6837   22.7635 C   0  0  0  0  0  0  0  0  0  0  0  0
   13.3501    2.1183   22.5267 C   0  0  0  0  0  0  0  0  0  0  0  0
   13.6214    3.4606   22.3205 C   0  0  0  0  0  0  0  0  0  0  0  0
   12.5999    4.3854   22.3480 C   0  0  0  0  0  0  0  0  0  0  0  0
   11.3076    3.9674   22.5811 C   0  0  0  0  0  0  0  0  0  0  0  0
   11.0373    2.6249   22.7871 C   0  0  0  0  0  0  0  0  0  0  0  0
  1  2  1  0
  2  3  2  0
  2  4  1  0
  4  5  1  0
  5  6  1  0
  6  7  1  0
  7  8  1  0
  8  9  2  0
  8 10  1  0
 10 11  1  0
 11 12  1  0
 12 13  1  0
 13 14  1  0
 14 15  2  0
 15 16  1  0
 16 17  2  0
 17 18  1  0
 18 19  2  0
 19 14  1  0
M  END
