CVD-0000549|dock_bobby27042020.98|mol2|14|dock2
     RDKit          3D

 25 27  0  0  0  0  0  0  0  0999 V2000
    9.0128    0.4877   22.1988 O   0  0  0  0  0  0  0  0  0  0  0  0
    9.4896   -0.2755   21.3657 C   0  0  0  0  0  0  0  0  0  0  0  0
   10.6361   -1.0114   21.5627 N   0  0  0  0  0  0  0  0  0  0  0  0
   11.5038   -1.0840   22.6817 C   0  0  0  0  0  0  0  0  0  0  0  0
   11.1486   -0.7267   23.9791 C   0  0  0  0  0  0  0  0  0  0  0  0
   12.0838   -0.8406   24.9934 C   0  0  0  0  0  0  0  0  0  0  0  0
   13.3421   -1.3057   24.6881 C   0  0  0  0  0  0  0  0  0  0  0  0
   13.7118   -1.6554   23.4564 N   0  0  0  0  0  0  0  0  0  0  0  0
   12.8018   -1.5416   22.4848 C   0  0  0  0  0  0  0  0  0  0  0  0
    8.9534   -0.5084   20.1189 N   0  0  0  0  0  0  0  0  0  0  0  0
    7.7835    0.0416   19.5226 C   0  0  0  0  0  0  0  0  0  0  0  0
    7.6583    0.4177   18.1853 C   0  0  0  0  0  0  0  0  0  0  0  0
    6.5425    0.9343   17.6621 N   0  0  0  0  0  0  0  0  0  0  0  0
    5.4850    1.0824   18.4593 C   0  0  0  0  0  0  0  0  0  0  0  0
    5.4852    0.7346   19.8133 C   0  0  0  0  0  0  0  0  0  0  0  0
    4.2994    0.9022   20.6132 C   0  0  0  0  0  0  0  0  0  0  0  0
    3.3714    1.0654   21.2589 N   0  0  0  0  0  0  0  0  0  0  0  0
    6.6690    0.2163   20.3600 C   0  0  0  0  0  0  0  0  0  0  0  0
    6.7340   -0.1238   21.7134 O   0  0  0  0  0  0  0  0  0  0  0  0
    6.7669   -1.4545   22.1343 C   0  0  0  0  0  0  0  0  0  0  0  0
    6.5812   -2.4978   21.2399 C   0  0  0  0  0  0  0  0  0  0  0  0
    6.6227   -3.8032   21.7011 C   0  0  0  0  0  0  0  0  0  0  0  0
    6.8442   -4.0669   23.0355 C   0  0  0  0  0  0  0  0  0  0  0  0
    7.0257   -3.0264   23.9205 C   0  0  0  0  0  0  0  0  0  0  0  0
    6.9879   -1.7157   23.4756 C   0  0  0  0  0  0  0  0  0  0  0  0
  1  2  2  0
  2  3  1  0
  3  4  1  0
  4  5  2  0
  5  6  1  0
  6  7  2  0
  7  8  1  0
  8  9  2  0
  2 10  1  0
 10 11  1  0
 11 12  2  0
 12 13  1  0
 13 14  2  0
 14 15  1  0
 15 16  1  0
 16 17  3  0
 15 18  2  0
 18 19  1  0
 19 20  1  0
 20 21  2  0
 21 22  1  0
 22 23  2  0
 23 24  1  0
 24 25  2  0
  9  4  1  0
 18 11  1  0
 25 20  1  0
M  END
