CVD-0003559|dock_bobby27042020.73|mol2|24|dock2
     RDKit          3D

 33 36  0  0  0  0  0  0  0  0999 V2000
   12.2786    7.3859   25.4894 C   0  0  0  0  0  0  0  0  0  0  0  0
   13.0156    7.0664   24.2220 C   0  0  0  0  0  0  0  0  0  0  0  0
   13.6451    7.9195   23.6044 O   0  0  0  0  0  0  0  0  0  0  0  0
   12.9603    5.7970   23.8146 N   0  0  0  0  0  0  0  0  0  0  0  0
   13.6376    5.3277   22.6143 C   0  0  0  0  0  0  0  0  0  0  0  0
   13.9899    3.8561   22.7029 C   0  0  0  0  0  0  0  0  0  0  0  0
   12.8060    2.9564   22.5008 C   0  0  0  0  0  0  0  0  0  0  0  0
   11.4999    3.3242   22.3677 C   0  0  0  0  0  0  0  0  0  0  0  0
   10.7079    2.2217   22.1978 N   0  0  0  0  0  0  0  0  0  0  0  0
   11.5038    1.1011   22.2134 C   0  0  0  0  0  0  0  0  0  0  0  0
   11.1675   -0.2569   22.0718 C   0  0  0  0  0  0  0  0  0  0  0  0
   12.2008   -1.1881   22.1566 C   0  0  0  0  0  0  0  0  0  0  0  0
   13.4892   -0.7513   22.3544 C   0  0  0  0  0  0  0  0  0  0  0  0
   14.4745   -1.6864   22.4295 F   0  0  0  0  0  0  0  0  0  0  0  0
   13.8451    0.5698   22.4807 C   0  0  0  0  0  0  0  0  0  0  0  0
   12.8323    1.5245   22.4114 C   0  0  0  0  0  0  0  0  0  0  0  0
    9.7412   -0.7437   21.8354 C   0  0  0  0  0  0  0  0  0  0  0  0
    9.5232   -1.0107   20.4293 N   0  0  0  0  0  0  0  0  0  0  0  0
    8.3404   -0.6993   19.7617 C   0  0  0  0  0  0  0  0  0  0  0  0
    7.1127   -0.7638   20.4064 C   0  0  0  0  0  0  0  0  0  0  0  0
    5.9629   -0.4473   19.7046 C   0  0  0  0  0  0  0  0  0  0  0  0
    6.0774   -0.0775   18.3838 C   0  0  0  0  0  0  0  0  0  0  0  0
    7.2436   -0.0067   17.7405 N   0  0  0  0  0  0  0  0  0  0  0  0
    8.3499   -0.3121   18.4251 C   0  0  0  0  0  0  0  0  0  0  0  0
    9.4588   -2.0655   22.5689 C   0  0  0  0  0  0  0  0  0  0  0  0
    9.0819   -3.0220   21.8972 O   0  0  0  0  0  0  0  0  0  0  0  0
    9.6326   -2.1770   23.9137 N   0  0  0  0  0  0  0  0  0  0  0  0
    9.4785   -3.2215   24.8632 C   0  0  0  0  0  0  0  0  0  0  0  0
    9.0683   -3.0641   26.1842 C   0  0  0  0  0  0  0  0  0  0  0  0
    8.9991   -4.1786   26.9974 C   0  0  0  0  0  0  0  0  0  0  0  0
    9.2813   -5.4172   26.5959 N   0  0  0  0  0  0  0  0  0  0  0  0
    9.6410   -5.5621   25.3218 C   0  0  0  0  0  0  0  0  0  0  0  0
    9.7531   -4.5135   24.4312 C   0  0  0  0  0  0  0  0  0  0  0  0
  1  2  1  0
  2  3  2  0
  2  4  1  0
  4  5  1  0
  5  6  1  0
  6  7  1  0
  7  8  2  0
  8  9  1  0
  9 10  1  0
 10 11  2  0
 11 12  1  0
 12 13  2  0
 13 14  1  0
 13 15  1  0
 15 16  2  0
 11 17  1  0
 17 18  1  0
 18 19  1  0
 19 20  2  0
 20 21  1  0
 21 22  2  0
 22 23  1  0
 23 24  2  0
 17 25  1  0
 25 26  2  0
 25 27  1  0
 27 28  1  0
 28 29  2  0
 29 30  1  0
 30 31  2  0
 31 32  1  0
 32 33  2  0
 16  7  1  0
 24 19  1  0
 33 28  1  0
 16 10  1  0
M  END
