CVD-0000252|dock_bobby27042020.28|mol2|3|dock1
     RDKit          3D

 28 30  0  0  0  0  0  0  0  0999 V2000
   13.7036   -1.6986   21.9107 C   0  0  0  0  0  0  0  0  0  0  0  0
   12.3443   -2.1544   22.4027 C   0  0  0  0  0  0  0  0  0  0  0  0
   11.7914   -1.3076   23.5529 C   0  0  0  0  0  0  0  0  0  0  0  0
   10.5653   -1.9384   24.0351 N   0  0  0  0  0  0  0  0  0  0  0  0
    9.9634   -1.5880   25.1752 C   0  0  0  0  0  0  0  0  0  0  0  0
   10.3728   -0.6865   25.9019 O   0  0  0  0  0  0  0  0  0  0  0  0
    8.7104   -2.3884   25.5330 C   0  0  0  0  0  0  0  0  0  0  0  0
    7.9888   -1.7690   26.7223 C   0  0  0  0  0  0  0  0  0  0  0  0
    9.1319   -3.7557   25.8448 N   0  0  0  0  0  0  0  0  0  0  0  0
    9.2298   -4.8194   25.0474 C   0  0  0  0  0  0  0  0  0  0  0  0
    9.6778   -5.8607   25.7129 N   0  0  0  0  0  0  0  0  0  0  0  0
    9.8534   -5.3545   26.9503 C   0  0  0  0  0  0  0  0  0  0  0  0
    9.5471   -4.0837   27.0947 N   0  0  0  0  0  0  0  0  0  0  0  0
   11.5322    0.1224   23.1192 C   0  0  0  0  0  0  0  0  0  0  0  0
   12.4662    1.1295   23.3547 C   0  0  0  0  0  0  0  0  0  0  0  0
   12.2267    2.4325   22.9536 C   0  0  0  0  0  0  0  0  0  0  0  0
   11.0498    2.7483   22.3097 C   0  0  0  0  0  0  0  0  0  0  0  0
   10.1060    1.7651   22.0626 C   0  0  0  0  0  0  0  0  0  0  0  0
   10.3478    0.4569   22.4675 C   0  0  0  0  0  0  0  0  0  0  0  0
    9.4844   -0.5935   22.2715 O   0  0  0  0  0  0  0  0  0  0  0  0
    8.6177   -0.5918   21.1407 C   0  0  0  0  0  0  0  0  0  0  0  0
    7.4047    0.2848   21.4056 C   0  0  0  0  0  0  0  0  0  0  0  0
    7.1838    0.7284   22.5255 O   0  0  0  0  0  0  0  0  0  0  0  0
    6.5929    0.5386   20.3596 N   0  0  0  0  0  0  0  0  0  0  0  0
    5.3937    1.3579   20.4801 C   0  0  0  0  0  0  0  0  0  0  0  0
    4.8168    1.3846   19.1103 C   0  0  0  0  0  0  0  0  0  0  0  0
    5.6313    0.6423   18.2277 C   0  0  0  0  0  0  0  0  0  0  0  0
    6.8128    0.0741   18.9892 C   0  0  0  0  0  0  0  0  0  0  0  0
  1  2  1  0
  2  3  1  0
  3  4  1  0
  4  5  1  0
  5  6  2  0
  5  7  1  0
  7  8  1  0
  7  9  1  0
  9 10  1  0
 10 11  2  0
 11 12  1  0
 12 13  2  0
  3 14  1  0
 14 15  2  0
 15 16  1  0
 16 17  2  0
 17 18  1  0
 18 19  2  0
 19 20  1  0
 20 21  1  0
 21 22  1  0
 22 23  2  0
 22 24  1  0
 24 25  1  0
 25 26  1  0
 26 27  1  0
 27 28  1  0
 13  9  1  0
 19 14  1  0
 28 24  1  0
M  END
