CVD-0002157|dock_bobby27042020.35|mol2|25|dock1
     RDKit          3D

 17 18  0  0  0  0  0  0  0  0999 V2000
   13.3880    4.9602   21.5748 C   0  0  0  0  0  0  0  0  0  0  0  0
   12.6081    4.3602   22.7162 C   0  0  0  0  0  0  0  0  0  0  0  0
   12.6507    2.8887   22.7045 N   0  0  0  0  0  0  0  0  0  0  0  0
   11.6173    2.0306   22.6515 C   0  0  0  0  0  0  0  0  0  0  0  0
   12.1439    0.7449   22.6932 C   0  0  0  0  0  0  0  0  0  0  0  0
   11.3916   -0.5594   22.6624 C   0  0  0  0  0  0  0  0  0  0  0  0
   10.4221   -0.5932   21.5888 N   0  0  0  0  0  0  0  0  0  0  0  0
    9.2099   -0.0539   21.7444 C   0  0  0  0  0  0  0  0  0  0  0  0
    8.8871    0.4831   22.7998 O   0  0  0  0  0  0  0  0  0  0  0  0
    8.2223   -0.1029   20.6140 C   0  0  0  0  0  0  0  0  0  0  0  0
    7.3089    0.9327   20.4594 C   0  0  0  0  0  0  0  0  0  0  0  0
    6.3945    0.8973   19.4218 C   0  0  0  0  0  0  0  0  0  0  0  0
    6.4190   -0.1777   18.5638 C   0  0  0  0  0  0  0  0  0  0  0  0
    7.2818   -1.1873   18.6836 N   0  0  0  0  0  0  0  0  0  0  0  0
    8.1602   -1.1401   19.6902 C   0  0  0  0  0  0  0  0  0  0  0  0
   13.5376    0.9665   22.7877 C   0  0  0  0  0  0  0  0  0  0  0  0
   13.8473    2.2525   22.7995 N   0  0  0  0  0  0  0  0  0  0  0  0
  1  2  1  0
  2  3  1  0
  3  4  1  0
  4  5  2  0
  5  6  1  0
  6  7  1  0
  7  8  1  0
  8  9  2  0
  8 10  1  0
 10 11  2  0
 11 12  1  0
 12 13  2  0
 13 14  1  0
 14 15  2  0
  5 16  1  0
 16 17  2  0
 17  3  1  0
 15 10  1  0
M  END
