CVD-0002003|dock_bobby27042020.22|mol2|6|dock1
     RDKit          3D

 19 21  0  0  0  0  0  0  0  0999 V2000
   14.0555   -2.7544   23.1943 C   0  0  0  0  0  0  0  0  0  0  0  0
   13.1808   -2.2805   22.0363 C   0  0  0  0  0  0  0  0  0  0  0  0
   13.9632   -2.3282   20.7378 C   0  0  0  0  0  0  0  0  0  0  0  0
   14.4392   -3.5163   20.4636 O   0  0  0  0  0  0  0  0  0  0  0  0
   14.1294   -1.3589   20.0305 O   0  0  0  0  0  0  0  0  0  0  0  0
   12.6842   -0.8561   22.2449 C   0  0  0  0  0  0  0  0  0  0  0  0
   11.3209   -0.5861   22.2770 C   0  0  0  0  0  0  0  0  0  0  0  0
   10.8382    0.6969   22.4673 C   0  0  0  0  0  0  0  0  0  0  0  0
   11.7414    1.7439   22.6316 C   0  0  0  0  0  0  0  0  0  0  0  0
   13.1211    1.4689   22.5999 C   0  0  0  0  0  0  0  0  0  0  0  0
   13.5982    0.1770   22.4083 C   0  0  0  0  0  0  0  0  0  0  0  0
   13.8168    2.6493   22.7832 N   0  0  0  0  0  0  0  0  0  0  0  0
   12.9127    3.6851   22.9330 C   0  0  0  0  0  0  0  0  0  0  0  0
   13.1373    5.0418   23.1394 C   0  0  0  0  0  0  0  0  0  0  0  0
   12.0523    5.8935   23.2600 C   0  0  0  0  0  0  0  0  0  0  0  0
   10.7708    5.3889   23.1746 C   0  0  0  0  0  0  0  0  0  0  0  0
    9.4220    6.4794   23.3294 Cl  0  0  0  0  0  0  0  0  0  0  0  0
   10.5223    4.0459   22.9702 C   0  0  0  0  0  0  0  0  0  0  0  0
   11.6029    3.1751   22.8466 C   0  0  0  0  0  0  0  0  0  0  0  0
  2  1  1  0
  2  3  1  0
  3  4  1  0
  3  5  2  0
  2  6  1  0
  6  7  2  0
  7  8  1  0
  8  9  2  0
  9 10  1  0
 10 11  2  0
 10 12  1  0
 12 13  1  0
 13 14  2  0
 14 15  1  0
 15 16  2  0
 16 17  1  0
 16 18  1  0
 18 19  2  0
 11  6  1  0
 19 13  1  0
 19  9  1  0
M  END
