CVD-0000530|dock_bobby27042020.69|mol2|51|dock3
     RDKit          3D

 23 25  0  0  0  0  0  0  0  0999 V2000
   14.0947    5.3504   22.1810 Cl  0  0  0  0  0  0  0  0  0  0  0  0
   12.6991    4.2721   22.0511 C   0  0  0  0  0  0  0  0  0  0  0  0
   13.0737    2.8492   22.4135 C   0  0  0  0  0  0  0  0  0  0  0  0
   14.2270    2.6337   22.7654 O   0  0  0  0  0  0  0  0  0  0  0  0
   12.1243    1.7952   22.3496 N   0  0  0  0  0  0  0  0  0  0  0  0
   10.7866    1.9795   21.9534 C   0  0  0  0  0  0  0  0  0  0  0  0
   10.3117    3.0594   21.6267 O   0  0  0  0  0  0  0  0  0  0  0  0
   10.1082    0.6373   22.0158 C   0  0  0  0  0  0  0  0  0  0  0  0
    8.8135    0.3924   21.7100 C   0  0  0  0  0  0  0  0  0  0  0  0
    7.7445    1.2398   21.2650 C   0  0  0  0  0  0  0  0  0  0  0  0
    7.4950    2.3358   21.7721 O   0  0  0  0  0  0  0  0  0  0  0  0
    6.8538    0.8259   20.1326 C   0  0  0  0  0  0  0  0  0  0  0  0
    5.7642    1.6287   19.8034 C   0  0  0  0  0  0  0  0  0  0  0  0
    4.9124    1.2891   18.7659 C   0  0  0  0  0  0  0  0  0  0  0  0
    5.1306    0.1421   18.0362 C   0  0  0  0  0  0  0  0  0  0  0  0
    6.2023   -0.6656   18.3453 C   0  0  0  0  0  0  0  0  0  0  0  0
    7.0582   -0.3317   19.3820 C   0  0  0  0  0  0  0  0  0  0  0  0
   11.1333   -0.2810   22.4618 C   0  0  0  0  0  0  0  0  0  0  0  0
   11.0826   -1.6538   22.6999 C   0  0  0  0  0  0  0  0  0  0  0  0
   12.2065   -2.3323   23.1287 C   0  0  0  0  0  0  0  0  0  0  0  0
   13.3861   -1.6525   23.3236 C   0  0  0  0  0  0  0  0  0  0  0  0
   13.4708   -0.2887   23.0965 C   0  0  0  0  0  0  0  0  0  0  0  0
   12.3435    0.4174   22.6617 C   0  0  0  0  0  0  0  0  0  0  0  0
  1  2  1  0
  2  3  1  0
  3  4  2  0
  3  5  1  0
  5  6  1  0
  6  7  2  0
  6  8  1  0
  8  9  2  0
  9 10  1  0
 10 11  2  0
 10 12  1  0
 12 13  2  0
 13 14  1  0
 14 15  2  0
 15 16  1  0
 16 17  2  0
  8 18  1  0
 18 19  2  0
 19 20  1  0
 20 21  2  0
 21 22  1  0
 22 23  2  0
 23  5  1  0
 17 12  1  0
 23 18  1  0
M  END
