AAR-POS-8a4e0f60-3
     RDKit          3D

 27 30  0  0  0  0  0  0  0  0999 V2000
    6.9550    0.2390   22.6080 O   0  0  0  0  0  0  0  0  0  0  0  0
    7.0970   -0.9860   22.5640 C   0  0  0  0  0  0  0  0  0  0  0  0
    8.3440   -1.5620   22.3030 N   0  0  0  0  0  0  0  0  0  0  0  0
    9.2430   -2.0080   23.3570 C   0  0  0  0  0  0  0  0  0  0  0  0
   10.5650   -1.2800   23.1720 C   0  0  0  0  0  0  0  0  0  0  0  0
   11.9080   -1.9270   22.9100 N   0  0  0  0  0  0  0  0  0  0  0  0
   12.7740   -0.7590   22.8260 O   0  0  0  0  0  0  0  0  0  0  0  0
   11.6180   -0.7880   23.0180 C   0  0  0  0  0  0  0  0  0  0  0  0
   11.3960   -2.1800   22.9750 C   0  0  0  0  0  0  0  0  0  0  0  0
   12.6980   -1.6690   22.7840 C   0  0  0  0  0  0  0  0  0  0  0  0
   13.1320   -0.1640   22.7950 C   0  0  0  0  0  0  0  0  0  0  0  0
   12.0580    0.8890   23.0360 C   0  0  0  0  0  0  0  0  0  0  0  0
   10.8520    0.1230   23.1990 C   0  0  0  0  0  0  0  0  0  0  0  0
    6.0430   -1.8890   22.7490 N   0  0  0  0  0  0  0  0  0  0  0  0
    5.8280   -2.8520   21.6770 C   0  0  0  0  0  0  0  0  0  0  0  0
    6.2540   -4.2250   22.1190 C   0  0  0  0  0  0  0  0  0  0  0  0
    7.1070   -4.4500   23.1250 C   0  0  0  0  0  0  0  0  0  0  0  0
    7.3330   -5.8380   23.3310 C   0  0  0  0  0  0  0  0  0  0  0  0
    6.6410   -6.6000   22.4760 C   0  0  0  0  0  0  0  0  0  0  0  0
    5.6980   -5.6720   21.3950 S   0  0  0  0  0  0  0  0  0  0  0  0
    5.0220   -1.8110   23.7220 C   0  0  0  0  0  0  0  0  0  0  0  0
    4.9210   -0.6320   24.4540 C   0  0  0  0  0  0  0  0  0  0  0  0
    3.9870   -0.3840   25.4360 C   0  0  0  0  0  0  0  0  0  0  0  0
    3.0520   -1.3970   25.7360 C   0  0  0  0  0  0  0  0  0  0  0  0
    2.1410   -1.1560   26.6910 F   0  0  0  0  0  0  0  0  0  0  0  0
    3.0160   -2.7170   25.0520 C   0  0  0  0  0  0  0  0  0  0  0  0
    4.1410   -2.8430   23.9630 C   0  0  0  0  0  0  0  0  0  0  0  0
  1  2  2  0
  2  3  1  0
  3  4  1  0
  4  5  1  0
  5  6  2  0
  6  7  1  0
  7  8  1  0
  8  9  1  0
  9 10  2  0
 10 11  1  0
 11 12  2  0
  5 13  1  0
  8 13  2  0
 12 13  1  0
  2 14  1  0
 14 15  1  0
 15 16  1  0
 16 17  2  0
 17 18  1  0
 18 19  2  0
 16 20  1  0
 19 20  1  0
 14 21  1  0
 21 22  2  0
 22 23  1  0
 23 24  2  0
 24 25  1  0
 24 26  1  0
 21 27  1  0
 26 27  2  0
M  END
