AAR-POS-fca48359-20
     RDKit          3D

 19 21  0  0  0  0  0  0  0  0999 V2000
   11.4480   -3.2430   24.0580 C   0  0  0  0  0  0  0  0  0  0  0  0
   10.2910   -2.7870   23.2900 C   0  0  1  0  0  0  0  0  0  0  0  0
    8.9210   -2.9790   23.3890 C   0  0  0  0  0  0  0  0  0  0  0  0
    8.1650   -2.2930   22.7020 O   0  0  0  0  0  0  0  0  0  0  0  0
    8.5430   -3.9440   24.2620 O   0  0  0  0  0  0  0  0  0  0  0  0
   10.6160   -1.3390   23.1900 C   0  0  0  0  0  0  0  0  0  0  0  0
    9.5540   -0.3620   23.2920 C   0  0  0  0  0  0  0  0  0  0  0  0
    9.6780    0.9610   23.2250 C   0  0  0  0  0  0  0  0  0  0  0  0
   11.0890    1.4040   23.0320 C   0  0  0  0  0  0  0  0  0  0  0  0
   12.2010    0.5800   22.9280 C   0  0  0  0  0  0  0  0  0  0  0  0
   11.9330   -0.8990   23.0080 C   0  0  0  0  0  0  0  0  0  0  0  0
   13.2480    1.4460   22.7770 N   0  0  0  0  0  0  0  0  0  0  0  0
   12.6860    2.8180   22.7900 C   0  0  0  0  0  0  0  0  0  0  0  0
   13.3010    4.0370   22.6680 C   0  0  0  0  0  0  0  0  0  0  0  0
   12.5300    5.3790   22.7160 C   0  0  0  0  0  0  0  0  0  0  0  0
   10.9930    5.2340   22.9160 C   0  0  0  0  0  0  0  0  0  0  0  0
    9.9380    6.5930   23.0100 Cl  0  0  0  0  0  0  0  0  0  0  0  0
   10.4990    3.7950   23.0230 C   0  0  0  0  0  0  0  0  0  0  0  0
   11.3970    2.7380   22.9480 C   0  0  0  0  0  0  0  0  0  0  0  0
  2  1  1  1
  2  3  1  0
  3  4  2  0
  3  5  1  0
  2  6  1  0
  6  7  2  0
  7  8  1  0
  8  9  2  0
  9 10  1  0
  6 11  1  0
 10 11  2  0
 10 12  1  0
 12 13  1  0
 13 14  1  0
 14 15  2  0
 15 16  1  0
 16 17  1  0
 16 18  2  0
  9 19  1  0
 13 19  2  0
 18 19  1  0
M  END
