AAR-POS-fca48359-15
     RDKit          3D

 21 23  0  0  0  0  0  0  0  0999 V2000
    5.7840   -0.4460   18.1100 O   0  0  0  0  0  0  0  0  0  0  0  0
    5.9730   -0.9580   19.2350 C   0  0  0  0  0  0  0  0  0  0  0  0
    5.3380   -2.1010   19.5720 C   0  0  0  0  0  0  0  0  0  0  0  0
    5.5120   -2.7540   20.9130 C   0  0  0  0  0  0  0  0  0  0  0  0
    4.9250   -3.8030   21.2060 O   0  0  0  0  0  0  0  0  0  0  0  0
    6.3750   -2.1170   21.8060 C   0  0  0  0  0  0  0  0  0  0  0  0
    7.0240   -0.9370   21.4200 C   0  0  0  0  0  0  0  0  0  0  0  0
    6.8390   -0.3450   20.1510 C   0  0  0  0  0  0  0  0  0  0  0  0
    7.8780   -0.2900   22.2650 O   0  0  0  0  0  0  0  0  0  0  0  0
    8.4830   -0.9580   23.4020 C   0  0  2  0  0  0  0  0  0  0  0  0
    9.9650   -1.1290   23.4460 C   0  0  0  0  0  0  0  0  0  0  0  0
   10.6910   -0.5400   24.6050 C   0  0  0  0  0  0  0  0  0  0  0  0
   12.0170   -0.6700   24.7610 C   0  0  0  0  0  0  0  0  0  0  0  0
   12.8360   -1.3970   23.8000 C   0  0  0  0  0  0  0  0  0  0  0  0
   14.1080   -1.5350   24.0040 O   0  0  0  0  0  0  0  0  0  0  0  0
   12.2160   -2.0070   22.5700 C   0  0  0  0  0  0  0  0  0  0  0  0
   13.0530   -2.6660   21.6950 O   0  0  0  0  0  0  0  0  0  0  0  0
   10.8230   -1.8640   22.4270 C   0  0  0  0  0  0  0  0  0  0  0  0
    7.9630   -2.3840   23.7320 C   0  0  2  0  0  0  0  0  0  0  0  0
    8.8560   -3.4260   23.3470 O   0  0  0  0  0  0  0  0  0  0  0  0
    6.5790   -2.6700   23.0810 C   0  0  0  0  0  0  0  0  0  0  0  0
  1  2  1  0
  2  3  2  0
  3  4  1  0
  4  5  1  0
  4  6  2  0
  6  7  1  0
  2  8  1  0
  7  8  2  0
  7  9  1  0
  9 10  1  0
 10 11  1  6
 11 12  2  0
 12 13  1  0
 13 14  2  0
 14 15  1  0
 14 16  1  0
 16 17  1  0
 11 18  1  0
 16 18  2  0
 10 19  1  0
 19 20  1  6
  6 21  1  0
 19 21  1  0
M  END
