AAR-POS-8a4e0f60-6
     RDKit          3D

 31 34  0  0  0  0  0  0  0  0999 V2000
    9.5780   -5.0490   26.0100 C   0  0  0  0  0  0  0  0  0  0  0  0
    9.7590   -4.2540   25.0930 O   0  0  0  0  0  0  0  0  0  0  0  0
   11.0350   -3.7730   24.9900 C   0  0  0  0  0  0  0  0  0  0  0  0
   11.7840   -4.1190   25.9960 C   0  0  0  0  0  0  0  0  0  0  0  0
   13.1630   -3.6610   25.9670 C   0  0  0  0  0  0  0  0  0  0  0  0
   14.0500   -3.7770   26.6600 O   0  0  0  0  0  0  0  0  0  0  0  0
   14.6220   -2.5660   26.2020 C   0  0  0  0  0  0  0  0  0  0  0  0
   13.6690   -2.9030   24.9780 C   0  0  0  0  0  0  0  0  0  0  0  0
   12.9750   -2.5530   24.0050 C   0  0  0  0  0  0  0  0  0  0  0  0
   13.4310   -1.8440   23.1190 O   0  0  0  0  0  0  0  0  0  0  0  0
   12.1990   -1.6120   22.9820 C   0  0  0  0  0  0  0  0  0  0  0  0
   11.5270   -1.3960   24.2520 C   0  0  0  0  0  0  0  0  0  0  0  0
   10.1910   -1.2270   24.2790 C   0  0  0  0  0  0  0  0  0  0  0  0
    9.4560   -1.2490   23.1510 C   0  0  0  0  0  0  0  0  0  0  0  0
    8.1120   -1.1120   23.3090 C   0  0  0  0  0  0  0  0  0  0  0  0
    7.7530   -1.9890   24.4130 N   0  0  0  0  0  0  0  0  0  0  0  0
    7.3470   -3.3860   24.2150 C   0  0  0  0  0  0  0  0  0  0  0  0
    7.9880   -4.2230   23.5910 O   0  0  0  0  0  0  0  0  0  0  0  0
    6.0760   -3.6830   24.8260 C   0  0  0  0  0  0  0  0  0  0  0  0
    6.3370   -4.2600   26.1290 N   0  0  0  0  0  0  0  0  0  0  0  0
    7.3030   -3.7490   26.9090 N   0  0  0  0  0  0  0  0  0  0  0  0
    7.3550   -4.3970   27.9890 N   0  0  0  0  0  0  0  0  0  0  0  0
    6.4020   -5.3760   27.9540 C   0  0  0  0  0  0  0  0  0  0  0  0
    6.0240   -6.3620   28.8620 C   0  0  0  0  0  0  0  0  0  0  0  0
    5.0160   -7.2660   28.6290 C   0  0  0  0  0  0  0  0  0  0  0  0
    4.3130   -7.2240   27.4240 C   0  0  0  0  0  0  0  0  0  0  0  0
    4.5940   -6.2750   26.4090 C   0  0  0  0  0  0  0  0  0  0  0  0
    5.7210   -5.3060   26.7420 C   0  0  0  0  0  0  0  0  0  0  0  0
   10.0690   -1.4250   21.8930 C   0  0  0  0  0  0  0  0  0  0  0  0
   11.5490   -1.6240   21.8040 C   0  0  0  0  0  0  0  0  0  0  0  0
   11.6090   -2.9860   23.9640 C   0  0  0  0  0  0  0  0  0  0  0  0
  1  2  1  0
  2  3  1  0
  3  4  2  0
  4  5  1  0
  5  6  1  0
  6  7  1  0
  5  8  2  0
  8  9  1  0
  9 10  1  0
 10 11  1  0
 11 12  2  0
 12 13  1  0
 13 14  2  0
 14 15  1  0
 15 16  1  0
 16 17  1  0
 17 18  2  0
 17 19  1  0
 19 20  1  0
 20 21  1  0
 21 22  2  0
 22 23  1  0
 23 24  1  0
 24 25  2  0
 25 26  1  0
 26 27  2  0
 20 28  1  0
 23 28  2  0
 27 28  1  0
 14 29  1  0
 11 30  1  0
 29 30  2  0
  3 31  1  0
  9 31  2  0
M  END
