AAR-POS-fca48359-12
     RDKit          3D

 33 34  0  0  0  0  0  0  0  0999 V2000
   14.2600   -6.1510   20.4470 N   0  0  0  0  0  0  0  0  0  0  0  0
   14.6290   -5.1510   20.5850 C   0  0  0  0  0  0  0  0  0  0  0  0
   15.6980   -5.3160   21.2100 N   0  0  0  0  0  0  0  0  0  0  0  0
   14.1430   -3.9300   20.2010 N   0  0  0  0  0  0  0  0  0  0  0  0
   13.2830   -2.8910   20.8520 C   0  0  0  0  0  0  0  0  0  0  0  0
   13.2460   -2.9250   22.3610 C   0  0  0  0  0  0  0  0  0  0  0  0
   13.0480   -1.7910   23.2740 C   0  0  0  0  0  0  0  0  0  0  0  0
   12.3700   -2.2820   24.3840 C   0  0  2  0  0  0  0  0  0  0  0  0
   11.1660   -1.6570   24.7620 N   0  0  0  0  0  0  0  0  0  0  0  0
   10.0210   -2.4640   24.7520 C   0  0  0  0  0  0  0  0  0  0  0  0
   10.1150   -3.4810   25.3270 O   0  0  0  0  0  0  0  0  0  0  0  0
    8.8380   -2.1140   24.0910 C   0  0  1  0  0  0  0  0  0  0  0  0
    9.1120   -1.4550   22.9000 C   0  0  0  0  0  0  0  0  0  0  0  0
   10.3760   -0.8980   22.7840 C   0  0  0  0  0  0  0  0  0  0  0  0
   10.6520    0.3990   23.1640 C   0  0  0  0  0  0  0  0  0  0  0  0
   12.0060    0.9380   23.0500 C   0  0  0  0  0  0  0  0  0  0  0  0
   13.0510    0.2100   22.5750 C   0  0  0  0  0  0  0  0  0  0  0  0
   12.7700   -1.0960   22.1770 C   0  0  0  0  0  0  0  0  0  0  0  0
   11.4610   -1.6330   22.2780 C   0  0  0  0  0  0  0  0  0  0  0  0
    7.8570   -3.0250   24.0510 N   0  0  0  0  0  0  0  0  0  0  0  0
    7.5710   -4.0560   24.9200 C   0  0  0  0  0  0  0  0  0  0  0  0
    8.1180   -5.1560   24.8990 O   0  0  0  0  0  0  0  0  0  0  0  0
    6.6560   -3.7560   25.7180 O   0  0  0  0  0  0  0  0  0  0  0  0
    5.6200   -2.9290   25.1790 C   0  0  0  0  0  0  0  0  0  0  0  0
    4.3500   -3.7570   25.2200 C   0  0  0  0  0  0  0  0  0  0  0  0
    2.9910   -3.0140   25.1350 C   0  0  0  0  0  0  0  0  0  0  0  0
    1.7250   -3.8030   25.1730 C   0  0  0  0  0  0  0  0  0  0  0  0
    1.8700   -5.1330   25.2790 C   0  0  0  0  0  0  0  0  0  0  0  0
    3.1650   -5.8280   25.3590 C   0  0  0  0  0  0  0  0  0  0  0  0
    4.3600   -5.1550   25.3300 C   0  0  0  0  0  0  0  0  0  0  0  0
   13.3540   -2.6390   25.5340 C   0  0  0  0  0  0  0  0  0  0  0  0
   14.0120   -1.8260   26.1270 O   0  0  0  0  0  0  0  0  0  0  0  0
   13.4510   -3.7980   25.8690 O   0  0  0  0  0  0  0  0  0  0  0  0
  1  2  2  3
  2  3  1  0
  2  4  1  0
  4  5  1  0
  5  6  1  0
  6  7  1  0
  8  7  1  6
  8  9  1  0
  9 10  1  0
 10 11  2  0
 10 12  1  0
 12 13  1  6
 13 14  1  0
 14 15  2  0
 15 16  1  0
 16 17  2  0
 17 18  1  0
 14 19  1  0
 18 19  2  0
 12 20  1  0
 20 21  1  0
 21 22  2  0
 21 23  1  0
 23 24  1  0
 24 25  1  0
 25 26  2  0
 26 27  1  0
 27 28  2  0
 28 29  1  0
 25 30  1  0
 29 30  2  0
  8 31  1  0
 31 32  2  0
 31 33  1  0
M  END
