AAR-POS-fca48359-16
     RDKit          3D

 33 36  0  0  0  0  0  0  0  0999 V2000
    7.8640   -1.6650   22.4900 O   0  0  0  0  0  0  0  0  0  0  0  0
    8.8250   -1.8290   23.2540 C   0  0  0  0  0  0  0  0  0  0  0  0
    8.8300   -2.5550   24.4110 O   0  0  0  0  0  0  0  0  0  0  0  0
    7.9410   -3.7010   24.5150 C   0  0  1  0  0  0  0  0  0  0  0  0
    8.1030   -4.3170   25.8860 C   0  0  0  0  0  0  0  0  0  0  0  0
    6.9280   -4.9260   26.3870 C   0  0  0  0  0  0  0  0  0  0  0  0
    6.9320   -5.5130   27.6710 C   0  0  0  0  0  0  0  0  0  0  0  0
    8.1000   -5.4500   28.3770 O   0  0  0  0  0  0  0  0  0  0  0  0
    5.8010   -6.1400   28.2310 C   0  0  0  0  0  0  0  0  0  0  0  0
    4.5970   -6.2110   27.5250 C   0  0  0  0  0  0  0  0  0  0  0  0
    3.5250   -6.8290   28.1000 O   0  0  0  0  0  0  0  0  0  0  0  0
    4.5220   -5.6010   26.1470 C   0  0  0  0  0  0  0  0  0  0  0  0
    5.7630   -4.9500   25.6140 C   0  0  0  0  0  0  0  0  0  0  0  0
    5.6750   -4.3960   24.3670 O   0  0  0  0  0  0  0  0  0  0  0  0
    6.5180   -3.2380   24.2480 C   0  0  1  0  0  0  0  0  0  0  0  0
    6.0690   -2.0070   25.0020 C   0  0  0  0  0  0  0  0  0  0  0  0
    5.2160   -1.0490   24.1480 C   0  0  0  0  0  0  0  0  0  0  0  0
    4.7330    0.1450   24.7490 C   0  0  0  0  0  0  0  0  0  0  0  0
    3.9660    1.0710   24.0930 O   0  0  0  0  0  0  0  0  0  0  0  0
    5.0960    0.3970   26.2110 C   0  0  0  0  0  0  0  0  0  0  0  0
    4.6570    1.5280   26.8480 O   0  0  0  0  0  0  0  0  0  0  0  0
    5.9600   -0.6220   26.9970 C   0  0  0  0  0  0  0  0  0  0  0  0
    6.2750   -0.3860   28.3040 O   0  0  0  0  0  0  0  0  0  0  0  0
    6.4020   -1.7680   26.3550 C   0  0  0  0  0  0  0  0  0  0  0  0
   10.1730   -1.2420   23.0240 C   0  0  0  0  0  0  0  0  0  0  0  0
   10.5310    0.0510   23.4180 C   0  0  0  0  0  0  0  0  0  0  0  0
   11.8230    0.5310   23.1860 C   0  0  0  0  0  0  0  0  0  0  0  0
   12.1890    1.7920   23.5440 O   0  0  0  0  0  0  0  0  0  0  0  0
   12.7610   -0.2550   22.5790 C   0  0  0  0  0  0  0  0  0  0  0  0
   13.9760    0.2860   22.4130 O   0  0  0  0  0  0  0  0  0  0  0  0
   12.4770   -1.5450   22.1440 C   0  0  0  0  0  0  0  0  0  0  0  0
   13.3850   -2.3410   21.5190 O   0  0  0  0  0  0  0  0  0  0  0  0
   11.1020   -2.0570   22.3830 C   0  0  0  0  0  0  0  0  0  0  0  0
  1  2  2  0
  2  3  1  0
  4  3  1  1
  4  5  1  0
  5  6  1  0
  6  7  2  0
  7  8  1  0
  7  9  1  0
  9 10  2  0
 10 11  1  0
 10 12  1  0
  6 13  1  0
 12 13  2  0
 13 14  1  0
  4 15  1  0
 14 15  1  0
 15 16  1  1
 16 17  2  0
 17 18  1  0
 18 19  1  0
 18 20  2  0
 20 21  1  0
 20 22  1  0
 22 23  1  0
 16 24  1  0
 22 24  2  0
  2 25  1  0
 25 26  2  0
 26 27  1  0
 27 28  1  0
 27 29  2  0
 29 30  1  0
 29 31  1  0
 31 32  1  0
 25 33  1  0
 31 33  2  0
M  END
