AAR-POS-fca48359-6
     RDKit          3D

 24 27  0  0  0  0  0  0  0  0999 V2000
    8.2840   -1.0230   21.0560 C   0  0  0  0  0  0  0  0  0  0  0  0
    7.5540   -0.3650   21.7890 O   0  0  0  0  0  0  0  0  0  0  0  0
    6.9390   -1.0930   22.7710 C   0  0  0  0  0  0  0  0  0  0  0  0
    6.3220   -1.6460   21.8620 O   0  0  0  0  0  0  0  0  0  0  0  0
    7.7710   -0.2940   23.4290 C   0  0  1  0  0  0  0  0  0  0  0  0
    9.0660   -0.8700   23.4260 C   0  0  0  0  0  0  0  0  0  0  0  0
   10.0280    0.0680   23.2300 C   0  0  0  0  0  0  0  0  0  0  0  0
    9.9910    1.5170   23.0980 C   0  0  0  0  0  0  0  0  0  0  0  0
   11.4260    1.8880   22.8570 N   0  0  0  0  0  0  0  0  0  0  0  0
   12.1130    0.5590   22.9070 C   0  0  0  0  0  0  0  0  0  0  0  0
   13.4790   -0.1160   22.7970 C   0  0  0  0  0  0  0  0  0  0  0  0
   13.5910   -1.7370   22.9800 C   0  0  0  0  0  0  0  0  0  0  0  0
   12.4010   -2.3150   23.1940 C   0  0  0  0  0  0  0  0  0  0  0  0
   12.0440   -1.2000   23.1120 C   0  0  0  0  0  0  0  0  0  0  0  0
   11.2190   -0.3560   23.1250 C   0  0  0  0  0  0  0  0  0  0  0  0
    8.6060    2.0500   23.2570 C   0  0  1  0  0  0  0  0  0  0  0  0
    8.0070    3.3600   23.1430 C   0  0  0  0  0  0  0  0  0  0  0  0
    7.8280    4.0140   21.9010 C   0  0  0  0  0  0  0  0  0  0  0  0
    7.2540    5.2880   21.7910 C   0  0  0  0  0  0  0  0  0  0  0  0
    6.8390    5.9510   22.9170 C   0  0  0  0  0  0  0  0  0  0  0  0
    6.9910    5.3520   24.1640 C   0  0  0  0  0  0  0  0  0  0  0  0
    7.5700    4.0620   24.3120 C   0  0  0  0  0  0  0  0  0  0  0  0
    7.7110    3.4190   25.9040 Cl  0  0  0  0  0  0  0  0  0  0  0  0
    7.7150    1.0530   22.7850 N   0  0  0  0  0  0  0  0  0  0  0  0
  1  2  1  0
  2  3  1  0
  3  4  2  0
  5  3  1  6
  5  6  1  0
  6  7  1  0
  7  8  2  0
  8  9  1  0
  9 10  1  0
 10 11  1  0
 11 12  2  0
 12 13  1  0
 13 14  2  0
  7 15  1  0
 10 15  2  0
 14 15  1  0
  8 16  1  0
 16 17  1  6
 17 18  2  0
 18 19  1  0
 19 20  2  0
 20 21  1  0
 17 22  1  0
 21 22  2  0
 22 23  1  0
  5 24  1  0
 16 24  1  0
M  END
