AAR-POS-fca48359-9
     RDKit          3D

 26 29  0  0  0  0  0  0  0  0999 V2000
    9.8430   -3.1130   21.1900 O   0  0  0  0  0  0  0  0  0  0  0  0
    9.6740   -2.2940   22.0150 C   0  0  0  0  0  0  0  0  0  0  0  0
    8.4760   -1.9990   22.5850 O   0  0  0  0  0  0  0  0  0  0  0  0
    8.6660   -1.2940   23.8090 C   0  0  1  0  0  0  0  0  0  0  0  0
    8.4260   -2.2470   24.8990 N   0  0  0  0  0  0  0  0  0  0  0  0
    8.4200   -3.6460   24.6980 C   0  0  0  0  0  0  0  0  0  0  0  0
    8.5970   -4.2300   23.6480 O   0  0  0  0  0  0  0  0  0  0  0  0
    8.1200   -4.2590   25.9890 C   0  0  0  0  0  0  0  0  0  0  0  0
    7.5200   -3.2720   26.7700 C   0  0  0  0  0  0  0  0  0  0  0  0
    7.4570   -1.9730   26.0010 C   0  0  1  0  0  0  0  0  0  0  0  0
    7.8090   -0.8370   26.6210 C   0  0  0  0  0  0  0  0  0  0  0  0
    7.1570    0.1980   26.4320 O   0  0  0  0  0  0  0  0  0  0  0  0
    8.9080   -0.7380   27.5170 N   0  0  0  0  0  0  0  0  0  0  0  0
    8.7420   -0.2640   28.8740 C   0  0  0  0  0  0  0  0  0  0  0  0
    7.4650   -0.6720   29.4770 C   0  0  0  0  0  0  0  0  0  0  0  0
    7.2100   -0.2590   30.7930 C   0  0  0  0  0  0  0  0  0  0  0  0
    8.1360    0.5050   31.4920 C   0  0  0  0  0  0  0  0  0  0  0  0
    9.3490    0.8800   30.8950 C   0  0  0  0  0  0  0  0  0  0  0  0
   10.4740    1.8220   31.7870 Cl  0  0  0  0  0  0  0  0  0  0  0  0
    9.6700    0.4990   29.5710 C   0  0  0  0  0  0  0  0  0  0  0  0
   10.0510   -0.7730   23.6470 C   0  0  0  0  0  0  0  0  0  0  0  0
   10.8090    0.1810   24.3380 C   0  0  0  0  0  0  0  0  0  0  0  0
   12.1230    0.4680   23.9750 C   0  0  0  0  0  0  0  0  0  0  0  0
   12.7360   -0.1810   22.9290 C   0  0  0  0  0  0  0  0  0  0  0  0
   12.0180   -1.1340   22.2070 C   0  0  0  0  0  0  0  0  0  0  0  0
   10.6680   -1.4160   22.5650 C   0  0  0  0  0  0  0  0  0  0  0  0
  1  2  2  0
  2  3  1  0
  3  4  1  0
  4  5  1  1
  5  6  1  0
  6  7  2  0
  6  8  1  0
  8  9  1  0
  5 10  1  0
  9 10  1  0
 10 11  1  1
 11 12  2  0
 11 13  1  0
 13 14  1  0
 14 15  2  0
 15 16  1  0
 16 17  2  0
 17 18  1  0
 18 19  1  0
 14 20  1  0
 18 20  2  0
  4 21  1  0
 21 22  2  0
 22 23  1  0
 23 24  2  0
 24 25  1  0
  2 26  1  0
 21 26  1  0
 25 26  2  0
M  END
