AAR-POS-8a4e0f60-2
     RDKit          3D

 28 31  0  0  0  0  0  0  0  0999 V2000
    6.3640   -1.8480   26.4450 C   0  0  0  0  0  0  0  0  0  0  0  0
    6.8120   -2.4560   25.1540 C   0  0  0  0  0  0  0  0  0  0  0  0
    7.8840   -1.8420   24.4920 N   0  0  0  0  0  0  0  0  0  0  0  0
    7.6010   -0.6460   23.6620 C   0  0  0  0  0  0  0  0  0  0  0  0
    6.8520   -1.1310   22.4510 C   0  0  0  0  0  0  0  0  0  0  0  0
    6.5940   -0.4870   21.1000 C   0  0  0  0  0  0  0  0  0  0  0  0
    5.8870   -1.1650   20.1950 C   0  0  0  0  0  0  0  0  0  0  0  0
    5.3290   -2.5120   20.4140 C   0  0  0  0  0  0  0  0  0  0  0  0
    5.6120   -3.1020   21.7650 C   0  0  0  0  0  0  0  0  0  0  0  0
    5.2120   -4.4160   22.3210 C   0  0  0  0  0  0  0  0  0  0  0  0
    3.8980   -4.4420   23.0890 C   0  0  0  0  0  0  0  0  0  0  0  0
    3.5120   -5.7610   23.6790 C   0  0  0  0  0  0  0  0  0  0  0  0
    4.3180   -6.8680   23.5280 N   0  0  0  0  0  0  0  0  0  0  0  0
    5.5160   -6.7610   22.8040 C   0  0  0  0  0  0  0  0  0  0  0  0
    5.9900   -5.5770   22.1920 C   0  0  0  0  0  0  0  0  0  0  0  0
    6.3390   -2.3800   22.6630 C   0  0  0  0  0  0  0  0  0  0  0  0
    8.8380   -2.7590   23.8080 C   0  0  0  0  0  0  0  0  0  0  0  0
    9.1070   -3.8810   24.2220 O   0  0  0  0  0  0  0  0  0  0  0  0
    9.3800   -2.2590   22.6260 C   0  0  0  0  0  0  0  0  0  0  0  0
   10.5350   -1.5380   22.7700 C   0  0  0  0  0  0  0  0  0  0  0  0
   11.7940   -2.2070   22.6390 N   0  0  0  0  0  0  0  0  0  0  0  0
   12.7240   -1.3520   22.7830 O   0  0  0  0  0  0  0  0  0  0  0  0
   11.8410   -0.4540   22.9550 C   0  0  0  0  0  0  0  0  0  0  0  0
   11.5910   -1.7860   22.7200 C   0  0  0  0  0  0  0  0  0  0  0  0
   13.0860   -1.4440   22.7580 C   0  0  0  0  0  0  0  0  0  0  0  0
   13.1080    0.0350   23.0180 C   0  0  0  0  0  0  0  0  0  0  0  0
   11.8230    0.8120   23.1800 C   0  0  0  0  0  0  0  0  0  0  0  0
   10.6990   -0.1250   23.0280 C   0  0  0  0  0  0  0  0  0  0  0  0
  1  2  1  0
  2  3  1  0
  3  4  1  0
  4  5  1  0
  5  6  2  0
  6  7  1  0
  7  8  2  0
  8  9  1  0
  9 10  1  0
 10 11  2  0
 11 12  1  0
 12 13  2  0
 13 14  1  0
 10 15  1  0
 14 15  2  0
  5 16  1  0
  9 16  2  0
  3 17  1  0
 17 18  2  0
 17 19  1  0
 19 20  1  0
 20 21  2  0
 21 22  1  0
 22 23  1  0
 23 24  1  0
 24 25  2  0
 25 26  1  0
 26 27  2  0
 20 28  1  0
 23 28  2  0
 27 28  1  0
M  END
