AAR-POS-dddeddbf-4
     RDKit          3D

 21 22  0  0  0  0  0  0  0  0999 V2000
   13.5970   -2.8630   23.7760 C   0  0  0  0  0  0  0  0  0  0  0  0
   12.7960   -2.7970   22.6130 C   0  0  0  0  0  0  0  0  0  0  0  0
   13.4320   -2.8450   21.3290 O   0  0  0  0  0  0  0  0  0  0  0  0
   11.5110   -2.6540   22.9210 O   0  0  0  0  0  0  0  0  0  0  0  0
   11.4980   -1.3250   22.9850 C   0  0  0  0  0  0  0  0  0  0  0  0
   12.8070   -0.6500   22.8120 C   0  0  0  0  0  0  0  0  0  0  0  0
   12.8230    0.7070   22.8790 C   0  0  0  0  0  0  0  0  0  0  0  0
   11.6960    1.4500   23.0830 C   0  0  0  0  0  0  0  0  0  0  0  0
   10.4700    0.7970   23.2420 C   0  0  0  0  0  0  0  0  0  0  0  0
   10.3590   -0.5830   23.2030 C   0  0  0  0  0  0  0  0  0  0  0  0
    9.0970   -1.1440   23.3970 C   0  0  0  0  0  0  0  0  0  0  0  0
    8.2510   -0.3690   23.8400 O   0  0  0  0  0  0  0  0  0  0  0  0
    8.9220   -2.4740   23.1140 N   0  0  0  0  0  0  0  0  0  0  0  0
    7.6280   -3.1260   23.1560 C   0  0  0  0  0  0  0  0  0  0  0  0
    6.5320   -2.4290   22.9290 N   0  0  0  0  0  0  0  0  0  0  0  0
    5.4280   -3.2390   23.0240 C   0  0  0  0  0  0  0  0  0  0  0  0
    5.7330   -4.5670   23.3310 C   0  0  0  0  0  0  0  0  0  0  0  0
    4.8160   -5.6280   23.4950 N   0  0  0  0  0  0  0  0  0  0  0  0
    4.8020   -6.1460   24.6110 O   0  0  0  0  0  0  0  0  0  0  0  0
    3.9050   -5.6950   22.6650 O   0  0  0  0  0  0  0  0  0  0  0  0
    7.4030   -4.7910   23.4930 S   0  0  0  0  0  0  0  0  0  0  0  0
  1  2  1  0
  2  3  2  0
  2  4  1  0
  4  5  1  0
  5  6  2  0
  6  7  1  0
  7  8  2  0
  8  9  1  0
  5 10  1  0
  9 10  2  0
 10 11  1  0
 11 12  2  0
 11 13  1  0
 13 14  1  0
 14 15  2  0
 15 16  1  0
 16 17  2  0
 17 18  1  0
 18 19  2  0
 18 20  1  0
 14 21  1  0
 17 21  1  0
M  CHG  2  18   1  20  -1
M  END
