AAR-POS-fca48359-5
     RDKit          3D

 24 26  0  0  0  0  0  0  0  0999 V2000
    5.7490   -5.9170   21.2480 C   0  0  0  0  0  0  0  0  0  0  0  0
    5.4160   -6.4200   22.4390 C   0  0  0  0  0  0  0  0  0  0  0  0
    6.1860   -7.1310   23.0870 O   0  0  0  0  0  0  0  0  0  0  0  0
    4.1850   -6.1250   22.9590 N   0  0  0  0  0  0  0  0  0  0  0  0
    3.6910   -4.7680   23.1100 C   0  0  0  0  0  0  0  0  0  0  0  0
    4.0820   -4.3190   24.3610 C   0  0  0  0  0  0  0  0  0  0  0  0
    4.9850   -5.1770   24.9920 C   0  0  0  0  0  0  0  0  0  0  0  0
    5.6930   -4.7520   26.0990 C   0  0  0  0  0  0  0  0  0  0  0  0
    5.1500   -5.0770   27.1610 O   0  0  0  0  0  0  0  0  0  0  0  0
    6.8960   -4.0390   25.9790 N   0  0  0  0  0  0  0  0  0  0  0  0
    8.0400   -4.5230   25.4070 C   0  0  0  0  0  0  0  0  0  0  0  0
    8.2320   -3.9200   24.0610 C   0  0  0  0  0  0  0  0  0  0  0  0
    8.7180   -2.5740   24.3730 C   0  0  0  0  0  0  0  0  0  0  0  0
    8.9790   -1.6910   23.3280 C   0  0  0  0  0  0  0  0  0  0  0  0
   10.4050   -1.2640   23.1100 C   0  0  0  0  0  0  0  0  0  0  0  0
   10.6390    0.2460   23.1600 C   0  0  0  0  0  0  0  0  0  0  0  0
   11.9340    0.7950   22.9710 C   0  0  0  0  0  0  0  0  0  0  0  0
   13.0860   -0.1460   22.7230 C   0  0  0  0  0  0  0  0  0  0  0  0
   12.7720   -1.6480   22.6860 C   0  0  0  0  0  0  0  0  0  0  0  0
   11.4930   -2.1280   22.8730 C   0  0  0  0  0  0  0  0  0  0  0  0
    7.9360   -1.8950   25.3660 C   0  0  0  0  0  0  0  0  0  0  0  0
    6.7900   -2.5450   25.9040 C   0  0  0  0  0  0  0  0  0  0  0  0
    4.2550   -6.5060   25.2500 C   0  0  0  0  0  0  0  0  0  0  0  0
    3.6870   -6.9410   24.0580 C   0  0  0  0  0  0  0  0  0  0  0  0
  1  2  1  0
  2  3  2  0
  2  4  1  0
  4  5  1  0
  5  6  1  0
  6  7  1  0
  7  8  1  0
  8  9  2  0
  8 10  1  0
 10 11  1  0
 11 12  1  0
 12 13  1  0
 13 14  1  0
 14 15  1  0
 15 16  2  0
 16 17  1  0
 17 18  2  0
 18 19  1  0
 15 20  1  0
 19 20  2  0
 13 21  1  0
 10 22  1  0
 21 22  1  0
  7 23  1  0
  4 24  1  0
 23 24  1  0
M  END
