AAR-POS-fca48359-19
     RDKit          3D

 19 21  0  0  0  0  0  0  0  0999 V2000
    8.7770   -2.9900   21.9040 C   0  0  0  0  0  0  0  0  0  0  0  0
    8.9990   -2.5230   23.2630 C   0  0  1  0  0  0  0  0  0  0  0  0
    9.1100   -3.4620   24.2910 C   0  0  0  0  0  0  0  0  0  0  0  0
   10.0380   -4.1820   24.5720 O   0  0  0  0  0  0  0  0  0  0  0  0
    7.9680   -3.5260   25.0240 O   0  0  0  0  0  0  0  0  0  0  0  0
    9.8830   -1.3090   23.1510 C   0  0  0  0  0  0  0  0  0  0  0  0
    9.1410   -0.2020   23.3550 C   0  0  0  0  0  0  0  0  0  0  0  0
    9.6020    1.0420   23.3110 C   0  0  0  0  0  0  0  0  0  0  0  0
   10.9050    1.2650   23.0530 C   0  0  0  0  0  0  0  0  0  0  0  0
   11.8690    0.1970   22.8160 C   0  0  0  0  0  0  0  0  0  0  0  0
   11.2890   -1.2140   22.8590 C   0  0  0  0  0  0  0  0  0  0  0  0
   13.0010    0.9430   22.6320 N   0  0  0  0  0  0  0  0  0  0  0  0
   12.6770    2.3480   22.7420 C   0  0  0  0  0  0  0  0  0  0  0  0
   13.4300    3.5210   22.6280 C   0  0  0  0  0  0  0  0  0  0  0  0
   12.8700    4.8040   22.7870 C   0  0  0  0  0  0  0  0  0  0  0  0
   11.5330    5.0220   23.0670 C   0  0  0  0  0  0  0  0  0  0  0  0
   10.8900    6.6040   23.2590 Cl  0  0  0  0  0  0  0  0  0  0  0  0
   10.6700    3.8160   23.1950 C   0  0  0  0  0  0  0  0  0  0  0  0
   11.3390    2.4900   23.0120 C   0  0  0  0  0  0  0  0  0  0  0  0
  2  1  1  6
  2  3  1  0
  3  4  2  0
  3  5  1  0
  2  6  1  0
  6  7  2  0
  7  8  1  0
  8  9  2  0
  9 10  1  0
  6 11  1  0
 10 11  2  0
 10 12  1  0
 12 13  1  0
 13 14  1  0
 14 15  2  0
 15 16  1  0
 16 17  1  0
 16 18  2  0
  9 19  1  0
 13 19  2  0
 18 19  1  0
M  END
