AAR-POS-dddeddbf-2
     RDKit          3D

 28 29  0  0  0  0  0  0  0  0999 V2000
    9.9890   -2.6460   23.6240 C   0  0  0  0  0  0  0  0  0  0  0  0
   10.5830   -1.3290   23.4100 C   0  0  0  0  0  0  0  0  0  0  0  0
    9.8500   -0.1880   23.1920 C   0  0  0  0  0  0  0  0  0  0  0  0
   10.5660    1.0320   23.0000 C   0  0  0  0  0  0  0  0  0  0  0  0
    9.4630    2.4560   22.7190 S   0  0  0  0  0  0  0  0  0  0  0  0
   10.2220    3.6390   23.0720 O   0  0  0  0  0  0  0  0  0  0  0  0
    8.9760    2.2490   21.3620 O   0  0  0  0  0  0  0  0  0  0  0  0
    8.0040    2.5720   23.7640 C   0  0  0  0  0  0  0  0  0  0  0  0
    7.9050    3.2900   24.9430 C   0  0  0  0  0  0  0  0  0  0  0  0
    9.0120    4.0720   25.5030 N   0  0  0  0  0  0  0  0  0  0  0  0
    9.0470    4.1020   26.7370 O   0  0  0  0  0  0  0  0  0  0  0  0
    9.4600    4.9660   24.7820 O   0  0  0  0  0  0  0  0  0  0  0  0
    6.5900    3.2320   25.6290 C   0  0  0  0  0  0  0  0  0  0  0  0
    5.6520    2.4850   25.0120 C   0  0  0  0  0  0  0  0  0  0  0  0
    4.2040    2.1520   25.3370 C   0  0  0  0  0  0  0  0  0  0  0  0
    3.6820    2.6720   26.4570 F   0  0  0  0  0  0  0  0  0  0  0  0
    4.0070    0.8130   25.4590 F   0  0  0  0  0  0  0  0  0  0  0  0
    3.3630    2.5590   24.3500 F   0  0  0  0  0  0  0  0  0  0  0  0
    5.4800    1.6290   23.7740 C   0  0  0  0  0  0  0  0  0  0  0  0
    6.8370    1.8400   23.3020 C   0  0  0  0  0  0  0  0  0  0  0  0
    6.9160    1.1250   22.1220 N   0  0  0  0  0  0  0  0  0  0  0  0
    6.5450   -0.0560   22.1830 O   0  0  0  0  0  0  0  0  0  0  0  0
    6.9110    1.8170   21.0980 O   0  0  0  0  0  0  0  0  0  0  0  0
   11.9510    1.1830   23.0140 C   0  0  0  0  0  0  0  0  0  0  0  0
   12.6670    2.7810   22.7810 Cl  0  0  0  0  0  0  0  0  0  0  0  0
   12.7640   -0.0770   23.2460 C   0  0  0  0  0  0  0  0  0  0  0  0
   11.9730   -1.3070   23.4430 C   0  0  0  0  0  0  0  0  0  0  0  0
   12.9080   -2.7070   23.7290 Cl  0  0  0  0  0  0  0  0  0  0  0  0
  1  2  1  0
  2  3  2  0
  3  4  1  0
  5  4  1  0
  5  6  2  0
  5  7  2  0
  5  8  1  0
  8  9  2  0
  9 10  1  0
 10 11  2  0
 10 12  1  0
  9 13  1  0
 13 14  2  0
 14 15  1  0
 15 16  1  0
 15 17  1  0
 15 18  1  0
 14 19  1  0
  8 20  1  0
 19 20  2  0
 20 21  1  0
 21 22  2  0
 21 23  1  0
  4 24  2  0
 24 25  1  0
 24 26  1  0
  2 27  1  0
 26 27  2  0
 27 28  1  0
M  CHG  4  10   1  12  -1  21   1  23  -1
M  END
