AAR-POS-8a4e0f60-7
     RDKit          3D

 31 34  0  0  0  0  0  0  0  0999 V2000
    8.8240   -3.1670   23.6550 C   0  0  0  0  0  0  0  0  0  0  0  0
    8.4490   -1.7690   23.5420 N   0  0  0  0  0  0  0  0  0  0  0  0
    7.1740   -1.4560   23.0790 C   0  0  0  0  0  0  0  0  0  0  0  0
    6.9100   -0.7560   21.8500 O   0  0  0  0  0  0  0  0  0  0  0  0
    5.9120   -1.8170   23.8230 C   0  0  0  0  0  0  0  0  0  0  0  0
    5.2870   -2.9940   23.4610 N   0  0  0  0  0  0  0  0  0  0  0  0
    5.8340   -3.7990   22.5200 N   0  0  0  0  0  0  0  0  0  0  0  0
    5.0270   -4.8640   22.3680 N   0  0  0  0  0  0  0  0  0  0  0  0
    3.9750   -4.7100   23.2250 C   0  0  0  0  0  0  0  0  0  0  0  0
    2.8500   -5.5060   23.4860 C   0  0  0  0  0  0  0  0  0  0  0  0
    1.8800   -5.1530   24.4180 C   0  0  0  0  0  0  0  0  0  0  0  0
    2.0610   -3.9600   25.0990 C   0  0  0  0  0  0  0  0  0  0  0  0
    3.1530   -3.1260   24.8890 C   0  0  0  0  0  0  0  0  0  0  0  0
    4.1120   -3.5180   23.9390 C   0  0  0  0  0  0  0  0  0  0  0  0
    9.5740   -0.8970   23.2980 C   0  0  0  0  0  0  0  0  0  0  0  0
    9.7180    0.5230   23.6720 C   0  0  0  0  0  0  0  0  0  0  0  0
   10.9020    1.2030   23.3130 C   0  0  0  0  0  0  0  0  0  0  0  0
   11.8990    0.5730   22.6390 C   0  0  0  0  0  0  0  0  0  0  0  0
   12.9590    1.0170   22.2870 O   0  0  0  0  0  0  0  0  0  0  0  0
   13.1770   -0.1340   22.7750 C   0  0  0  0  0  0  0  0  0  0  0  0
   13.4630   -1.2670   22.0160 C   0  0  0  0  0  0  0  0  0  0  0  0
   13.5420   -2.4540   22.6770 C   0  0  0  0  0  0  0  0  0  0  0  0
   13.3240   -2.4200   24.1190 C   0  0  0  0  0  0  0  0  0  0  0  0
   13.2330   -3.2650   25.2480 C   0  0  0  0  0  0  0  0  0  0  0  0
   13.9820   -4.2240   25.7590 F   0  0  0  0  0  0  0  0  0  0  0  0
   13.4980   -2.3590   26.1630 F   0  0  0  0  0  0  0  0  0  0  0  0
   11.9320   -3.6410   25.1400 F   0  0  0  0  0  0  0  0  0  0  0  0
   13.0540   -1.0880   24.7360 C   0  0  0  0  0  0  0  0  0  0  0  0
   12.9920   -0.0240   24.0660 N   0  0  0  0  0  0  0  0  0  0  0  0
   11.8230   -0.7860   22.2680 C   0  0  0  0  0  0  0  0  0  0  0  0
   10.6690   -1.5810   22.5720 C   0  0  0  0  0  0  0  0  0  0  0  0
  1  2  1  0
  2  3  1  0
  3  4  2  0
  3  5  1  0
  5  6  1  0
  6  7  1  0
  7  8  2  0
  8  9  1  0
  9 10  1  0
 10 11  2  0
 11 12  1  0
 12 13  2  0
  6 14  1  0
  9 14  2  0
 13 14  1  0
  2 15  1  0
 15 16  2  0
 16 17  1  0
 17 18  2  0
 18 19  1  0
 19 20  1  0
 20 21  2  0
 21 22  1  0
 22 23  2  0
 23 24  1  0
 24 25  1  0
 24 26  1  0
 24 27  1  0
 23 28  1  0
 20 29  1  0
 28 29  2  0
 18 30  1  0
 15 31  1  0
 30 31  2  0
M  END
