AAR-POS-fca48359-14
     RDKit          3D

 19 21  0  0  0  0  0  0  0  0999 V2000
    8.7180   -0.6850   22.0940 O   0  0  0  0  0  0  0  0  0  0  0  0
    9.7150   -0.2360   22.6450 C   0  0  0  0  0  0  0  0  0  0  0  0
    9.9640    1.1400   23.0050 C   0  0  0  0  0  0  0  0  0  0  0  0
    9.1840    2.1480   22.6140 C   0  0  0  0  0  0  0  0  0  0  0  0
    8.0040    1.8900   21.7740 C   0  0  0  0  0  0  0  0  0  0  0  0
    6.6830    1.6440   22.2350 C   0  0  0  0  0  0  0  0  0  0  0  0
    5.9560    1.4540   21.0250 C   0  0  0  0  0  0  0  0  0  0  0  0
    6.8430    1.5960   20.0820 C   0  0  0  0  0  0  0  0  0  0  0  0
    8.0040    1.8460   20.4960 O   0  0  0  0  0  0  0  0  0  0  0  0
   11.1970    1.2930   23.8590 C   0  0  0  0  0  0  0  0  0  0  0  0
   12.3650    0.7330   23.1250 C   0  0  0  0  0  0  0  0  0  0  0  0
   12.1420   -0.5870   22.7560 C   0  0  0  0  0  0  0  0  0  0  0  0
   10.8730   -1.0090   23.0770 C   0  0  0  0  0  0  0  0  0  0  0  0
   10.7390   -2.0790   23.8440 C   0  0  0  0  0  0  0  0  0  0  0  0
   11.9540   -2.5150   24.1790 C   0  0  0  0  0  0  0  0  0  0  0  0
   12.8290   -2.7240   23.1380 C   0  0  0  0  0  0  0  0  0  0  0  0
   13.9090   -3.0760   23.7830 C   0  0  0  0  0  0  0  0  0  0  0  0
   13.6040   -3.0540   25.1270 C   0  0  0  0  0  0  0  0  0  0  0  0
   12.4200   -2.7140   25.3070 O   0  0  0  0  0  0  0  0  0  0  0  0
  1  2  2  0
  2  3  1  0
  3  4  2  3
  4  5  1  0
  5  6  2  0
  6  7  1  0
  7  8  2  0
  5  9  1  0
  8  9  1  0
  3 10  1  0
 10 11  1  0
 11 12  1  0
  2 13  1  0
 12 13  1  0
 13 14  2  3
 14 15  1  0
 15 16  2  0
 16 17  1  0
 17 18  2  0
 15 19  1  0
 18 19  1  0
M  END
