AAR-POS-8a4e0f60-9
     RDKit          3D

 28 30  0  0  0  0  0  0  0  0999 V2000
    7.2540   -4.6750   24.5890 C   0  0  0  0  0  0  0  0  0  0  0  0
    7.5660   -3.4090   24.1150 N   0  0  0  0  0  0  0  0  0  0  0  0
    8.9150   -3.0260   23.7730 C   0  0  0  0  0  0  0  0  0  0  0  0
    9.9100   -3.6810   23.9220 O   0  0  0  0  0  0  0  0  0  0  0  0
    8.9770   -1.6570   23.1950 C   0  0  0  0  0  0  0  0  0  0  0  0
   10.4050   -1.1760   23.0310 C   0  0  0  0  0  0  0  0  0  0  0  0
   11.4480   -2.2410   22.7010 N   0  0  0  0  0  0  0  0  0  0  0  0
   12.6490   -1.5450   22.6020 O   0  0  0  0  0  0  0  0  0  0  0  0
   12.0090   -0.4550   22.8690 C   0  0  0  0  0  0  0  0  0  0  0  0
   11.3760   -1.5520   22.8110 C   0  0  0  0  0  0  0  0  0  0  0  0
   12.8220   -1.5110   22.5760 C   0  0  0  0  0  0  0  0  0  0  0  0
   13.2340   -0.0130   22.7280 C   0  0  0  0  0  0  0  0  0  0  0  0
   12.1190    0.9870   23.0610 C   0  0  0  0  0  0  0  0  0  0  0  0
   10.8810    0.1670   23.1480 C   0  0  0  0  0  0  0  0  0  0  0  0
    6.5020   -2.4360   23.8780 C   0  0  0  0  0  0  0  0  0  0  0  0
    6.0320   -2.2860   22.6140 C   0  0  0  0  0  0  0  0  0  0  0  0
    4.9850   -1.3040   22.3830 C   0  0  0  0  0  0  0  0  0  0  0  0
    4.5310   -0.5900   23.4430 C   0  0  0  0  0  0  0  0  0  0  0  0
    3.5330    0.3450   23.1700 N   0  0  0  0  0  0  0  0  0  0  0  0
    3.2640    1.0220   21.9630 C   0  0  0  0  0  0  0  0  0  0  0  0
    4.1770    1.5030   21.0520 O   0  0  0  0  0  0  0  0  0  0  0  0
    1.9140    1.1310   21.8410 O   0  0  0  0  0  0  0  0  0  0  0  0
    1.3220    2.2190   21.0890 C   0  0  0  0  0  0  0  0  0  0  0  0
    1.1740    3.4450   21.6650 C   0  0  0  0  0  0  0  0  0  0  0  0
    2.0270    2.4270   19.9010 C   0  0  0  0  0  0  0  0  0  0  0  0
   -0.0720    1.6760   20.7460 C   0  0  0  0  0  0  0  0  0  0  0  0
    5.0070   -0.7460   24.7360 C   0  0  0  0  0  0  0  0  0  0  0  0
    5.9820   -1.6350   25.0440 C   0  0  0  0  0  0  0  0  0  0  0  0
  1  2  1  0
  2  3  1  0
  3  4  2  0
  3  5  1  0
  5  6  1  0
  6  7  2  0
  7  8  1  0
  8  9  1  0
  9 10  1  0
 10 11  2  0
 11 12  1  0
 12 13  2  0
  6 14  1  0
  9 14  2  0
 13 14  1  0
  2 15  1  0
 15 16  2  0
 16 17  1  0
 17 18  2  0
 18 19  1  0
 19 20  1  0
 20 21  2  0
 20 22  1  0
 23 22  1  0
 23 24  1  0
 23 25  1  0
 23 26  1  0
 18 27  1  0
 15 28  1  0
 27 28  2  0
M  END
