AAR-POS-fca48359-13
     RDKit          3D

 35 40  0  0  0  0  0  0  0  0999 V2000
    7.4430   -5.1440   22.6340 N   0  0  0  0  0  0  0  0  0  0  0  0
    7.4810   -4.0370   23.3110 C   0  0  0  0  0  0  0  0  0  0  0  0
    6.9880   -4.0470   24.4310 O   0  0  0  0  0  0  0  0  0  0  0  0
    8.0280   -2.7200   22.8180 C   0  0  0  0  0  0  0  0  0  0  0  0
    9.5160   -2.6400   22.5060 C   0  0  0  0  0  0  0  0  0  0  0  0
   10.1800   -1.3030   22.7950 C   0  0  1  0  0  0  0  0  0  0  0  0
   11.3020   -0.7780   21.8850 N   0  0  0  0  0  0  0  0  0  0  0  0
   11.4580    0.4410   22.6440 C   0  0  2  0  0  0  0  0  0  0  0  0
   12.5830    1.0510   23.0120 C   0  0  0  0  0  0  0  0  0  0  0  0
   12.8970    2.2080   22.7740 O   0  0  0  0  0  0  0  0  0  0  0  0
   13.2390   -0.0220   23.7570 N   0  0  0  0  0  0  0  0  0  0  0  0
   12.3650   -1.0460   23.9440 C   0  0  0  0  0  0  0  0  0  0  0  0
   12.6130   -2.2790   24.7020 C   0  0  0  0  0  0  0  0  0  0  0  0
   14.0170   -2.6540   25.5500 Cl  0  0  0  0  0  0  0  0  0  0  0  0
   11.5290   -3.2430   24.6960 C   0  0  0  0  0  0  0  0  0  0  0  0
   10.2190   -2.9920   24.0170 C   0  0  0  0  0  0  0  0  0  0  0  0
   10.1700   -1.6810   23.3380 C   0  0  0  0  0  0  0  0  0  0  0  0
   11.1730   -0.8340   23.3190 C   0  0  0  0  0  0  0  0  0  0  0  0
   10.0320    1.0160   22.6470 C   0  0  2  0  0  0  0  0  0  0  0  0
    9.5580    1.8670   23.5330 C   0  0  0  0  0  0  0  0  0  0  0  0
   10.1660    3.0780   23.7640 O   0  0  0  0  0  0  0  0  0  0  0  0
    8.3910    1.4270   24.1420 N   0  0  0  0  0  0  0  0  0  0  0  0
    7.4630    2.1420   24.9130 C   0  0  0  0  0  0  0  0  0  0  0  0
    6.3750    2.6280   24.1730 C   0  0  0  0  0  0  0  0  0  0  0  0
    5.2050    1.8910   24.2010 C   0  0  0  0  0  0  0  0  0  0  0  0
    4.0680    2.3110   23.4790 C   0  0  0  0  0  0  0  0  0  0  0  0
    4.0770    3.5500   22.6680 C   0  0  0  0  0  0  0  0  0  0  0  0
    5.4320    4.2870   22.7180 C   0  0  0  0  0  0  0  0  0  0  0  0
    6.5050    3.8330   23.4360 C   0  0  0  0  0  0  0  0  0  0  0  0
    5.3120    5.3960   21.9460 O   0  0  0  0  0  0  0  0  0  0  0  0
    4.1090    5.0490   21.1890 C   0  0  0  0  0  0  0  0  0  0  0  0
    3.1730    4.1820   21.8940 O   0  0  0  0  0  0  0  0  0  0  0  0
    8.2580    0.1080   23.8150 C   0  0  0  0  0  0  0  0  0  0  0  0
    7.5020   -0.6810   24.3590 O   0  0  0  0  0  0  0  0  0  0  0  0
    9.1380   -0.1860   22.7470 C   0  0  2  0  0  0  0  0  0  0  0  0
  1  2  1  0
  2  3  2  0
  2  4  1  0
  4  5  1  0
  6  5  1  6
  6  7  1  0
  8  7  1  6
  8  9  1  0
  9 10  2  0
  9 11  1  0
 11 12  1  0
 12 13  1  0
 13 14  1  0
 13 15  2  0
 15 16  1  0
 16 17  2  0
  8 18  1  0
 12 18  2  0
 17 18  1  0
  8 19  1  0
 19 20  1  1
 20 21  2  0
 20 22  1  0
 22 23  1  0
 23 24  1  0
 24 25  2  0
 25 26  1  0
 26 27  2  0
 27 28  1  0
 24 29  1  0
 28 29  2  0
 28 30  1  0
 30 31  1  0
 27 32  1  0
 31 32  1  0
 22 33  1  0
 33 34  2  0
  6 35  1  0
 19 35  1  0
 35 33  1  1
M  END
