AAR-POS-8a4e0f60-10
     RDKit          3D

 28 31  0  0  0  0  0  0  0  0999 V2000
    8.1070   -4.7990   23.5940 O   0  0  0  0  0  0  0  0  0  0  0  0
    8.1240   -3.8850   24.3930 C   0  0  0  0  0  0  0  0  0  0  0  0
    7.5590   -4.0370   25.6980 C   0  0  0  0  0  0  0  0  0  0  0  0
    6.1870   -3.9860   25.6330 N   0  0  0  0  0  0  0  0  0  0  0  0
    5.4250   -3.2160   26.4770 N   0  0  0  0  0  0  0  0  0  0  0  0
    4.1070   -3.4000   26.1300 N   0  0  0  0  0  0  0  0  0  0  0  0
    4.0190   -4.2820   25.0670 C   0  0  0  0  0  0  0  0  0  0  0  0
    2.8930   -4.8470   24.2770 C   0  0  0  0  0  0  0  0  0  0  0  0
    3.2320   -5.7460   23.2350 C   0  0  0  0  0  0  0  0  0  0  0  0
    4.5760   -6.0850   22.9670 C   0  0  0  0  0  0  0  0  0  0  0  0
    5.6180   -5.5520   23.7110 C   0  0  0  0  0  0  0  0  0  0  0  0
    5.2930   -4.6750   24.7250 C   0  0  0  0  0  0  0  0  0  0  0  0
    8.6740   -2.6630   24.0930 N   0  0  0  0  0  0  0  0  0  0  0  0
    9.1250   -2.3810   22.7390 C   0  0  0  0  0  0  0  0  0  0  0  0
   10.1580   -1.4580   22.7470 C   0  0  0  0  0  0  0  0  0  0  0  0
    9.8780   -0.1120   23.2000 C   0  0  0  0  0  0  0  0  0  0  0  0
   10.9190    0.7770   23.1820 C   0  0  0  0  0  0  0  0  0  0  0  0
   12.1830    0.4590   22.7860 C   0  0  0  0  0  0  0  0  0  0  0  0
   12.9830    1.3830   22.8410 O   0  0  0  0  0  0  0  0  0  0  0  0
   12.3780    2.6640   22.7600 C   0  0  0  0  0  0  0  0  0  0  0  0
   10.9940    2.7970   22.8070 C   0  0  0  0  0  0  0  0  0  0  0  0
   10.4270    4.0410   22.7300 C   0  0  0  0  0  0  0  0  0  0  0  0
   11.2900    5.2460   22.5900 C   0  0  0  0  0  0  0  0  0  0  0  0
   12.6290    5.1350   22.5370 N   0  0  0  0  0  0  0  0  0  0  0  0
   13.1280    3.8480   22.6260 C   0  0  0  0  0  0  0  0  0  0  0  0
   12.4240   -0.8500   22.3570 C   0  0  0  0  0  0  0  0  0  0  0  0
   13.6300   -1.2220   21.9530 F   0  0  0  0  0  0  0  0  0  0  0  0
   11.4580   -1.7750   22.3270 C   0  0  0  0  0  0  0  0  0  0  0  0
  1  2  2  0
  2  3  1  0
  3  4  1  0
  4  5  1  0
  5  6  2  0
  6  7  1  0
  7  8  1  0
  8  9  2  0
  9 10  1  0
 10 11  2  0
  4 12  1  0
  7 12  2  0
 11 12  1  0
  2 13  1  0
 13 14  1  0
 14 15  1  0
 15 16  2  0
 16 17  1  0
 17 18  2  0
 18 19  1  0
 19 20  1  0
 20 21  2  0
 21 22  1  0
 22 23  2  0
 23 24  1  0
 20 25  1  0
 24 25  2  0
 18 26  1  0
 26 27  1  0
 15 28  1  0
 26 28  2  0
M  END
