AAR-POS-fca48359-10
     RDKit          3D

 34 39  0  0  0  0  0  0  0  0999 V2000
    3.7800    2.3830   24.4950 C   0  0  0  0  0  0  0  0  0  0  0  0
    3.2870    2.4480   25.6160 O   0  0  0  0  0  0  0  0  0  0  0  0
    3.7650    1.5170   26.4970 C   0  0  0  0  0  0  0  0  0  0  0  0
    3.7400    0.2660   26.0130 C   0  0  0  0  0  0  0  0  0  0  0  0
    4.9350   -0.4500   26.1860 N   0  0  0  0  0  0  0  0  0  0  0  0
    6.2080    0.0380   25.7410 C   0  0  0  0  0  0  0  0  0  0  0  0
    6.4760    1.2130   25.5210 O   0  0  0  0  0  0  0  0  0  0  0  0
    7.1810   -0.9750   25.5710 C   0  0  2  0  0  0  0  0  0  0  0  0
    7.2740   -1.6080   24.2380 C   0  0  1  0  0  0  0  0  0  0  0  0
    8.0420   -0.8540   23.4330 C   0  0  0  0  0  0  0  0  0  0  0  0
    9.4520   -1.0980   23.1070 C   0  0  0  0  0  0  0  0  0  0  0  0
    9.6820   -2.4240   22.4040 C   0  0  0  0  0  0  0  0  0  0  0  0
   11.0510   -2.0810   22.3350 N   0  0  0  0  0  0  0  0  0  0  0  0
   11.3630   -0.9250   22.8560 C   0  0  0  0  0  0  0  0  0  0  0  0
   12.3540   -0.2070   23.0320 C   0  0  0  0  0  0  0  0  0  0  0  0
   13.1320   -1.1040   22.4350 C   0  0  0  0  0  0  0  0  0  0  0  0
   13.2160    0.1380   23.0390 C   0  0  0  0  0  0  0  0  0  0  0  0
   11.8560    0.5930   23.5300 C   0  0  0  0  0  0  0  0  0  0  0  0
   10.5120   -0.1160   23.4130 C   0  0  0  0  0  0  0  0  0  0  0  0
    7.8150   -2.7900   24.5430 N   0  0  0  0  0  0  0  0  0  0  0  0
    7.0700   -3.3260   25.7200 C   0  0  2  0  0  0  0  0  0  0  0  0
    7.9000   -4.0910   26.5230 C   0  0  0  0  0  0  0  0  0  0  0  0
    9.3230   -3.8450   26.4150 O   0  0  0  0  0  0  0  0  0  0  0  0
    7.1660   -4.9850   27.2800 N   0  0  0  0  0  0  0  0  0  0  0  0
    6.1090   -5.3350   26.4780 C   0  0  0  0  0  0  0  0  0  0  0  0
    5.2470   -6.4590   26.5790 C   0  0  0  0  0  0  0  0  0  0  0  0
    4.1730   -6.5650   25.5170 C   0  0  0  0  0  0  0  0  0  0  0  0
    4.0480   -5.6160   24.5140 C   0  0  0  0  0  0  0  0  0  0  0  0
    2.7980   -5.7990   23.3310 Cl  0  0  0  0  0  0  0  0  0  0  0  0
    5.0030   -4.4480   24.4800 C   0  0  0  0  0  0  0  0  0  0  0  0
    5.9840   -4.3590   25.4610 C   0  0  0  0  0  0  0  0  0  0  0  0
    6.5380   -2.0870   26.3980 C   0  0  2  0  0  0  0  0  0  0  0  0
    5.0400   -1.7920   26.3210 C   0  0  0  0  0  0  0  0  0  0  0  0
    4.1360   -2.6150   26.3780 O   0  0  0  0  0  0  0  0  0  0  0  0
  1  2  1  0
  2  3  1  0
  3  4  1  0
  4  5  1  0
  5  6  1  0
  6  7  2  0
  8  6  1  6
  8  9  1  0
  9 10  1  6
 10 11  1  0
 11 12  2  0
 12 13  1  0
 13 14  1  0
 14 15  1  0
 15 16  2  0
 16 17  1  0
 17 18  2  0
 11 19  1  0
 14 19  2  0
 18 19  1  0
  9 20  1  0
 21 20  1  6
 21 22  1  0
 22 23  2  0
 22 24  1  0
 24 25  1  0
 25 26  1  0
 26 27  2  0
 27 28  1  0
 28 29  1  0
 28 30  2  0
 21 31  1  0
 25 31  2  0
 30 31  1  0
  8 32  1  0
 21 32  1  0
  5 33  1  0
 32 33  1  6
 33 34  2  0
M  END
