AAR-POS-fca48359-3
     RDKit          3D

 27 28  0  0  0  0  0  0  0  0999 V2000
    5.5500   -6.3320   27.6330 C   0  0  0  0  0  0  0  0  0  0  0  0
    6.7990   -5.4810   27.5010 C   0  0  0  0  0  0  0  0  0  0  0  0
    6.7270   -4.7070   26.2880 O   0  0  0  0  0  0  0  0  0  0  0  0
    7.9390   -4.6130   25.6540 C   0  0  0  0  0  0  0  0  0  0  0  0
    8.9670   -5.1390   26.0760 O   0  0  0  0  0  0  0  0  0  0  0  0
    7.8860   -3.7830   24.3340 C   0  0  2  0  0  0  0  0  0  0  0  0
    9.1390   -2.8810   24.2670 C   0  0  0  0  0  0  0  0  0  0  0  0
    9.1780   -1.9170   23.0690 C   0  0  0  0  0  0  0  0  0  0  0  0
   10.5450   -1.2830   22.9000 C   0  0  0  0  0  0  0  0  0  0  0  0
   10.8000    0.0270   23.3010 C   0  0  0  0  0  0  0  0  0  0  0  0
   12.0760    0.5830   23.1430 C   0  0  0  0  0  0  0  0  0  0  0  0
   13.0950   -0.1580   22.5910 C   0  0  0  0  0  0  0  0  0  0  0  0
   12.8500   -1.4610   22.1800 C   0  0  0  0  0  0  0  0  0  0  0  0
   11.5850   -2.0140   22.3340 C   0  0  0  0  0  0  0  0  0  0  0  0
    6.6630   -2.9120   24.2080 N   0  0  0  0  0  0  0  0  0  0  0  0
    6.2690   -2.5130   22.8200 C   0  0  1  0  0  0  0  0  0  0  0  0
    5.2350   -3.4510   22.1830 C   0  0  0  0  0  0  0  0  0  0  0  0
    5.7660   -1.0380   22.6870 C   0  0  0  0  0  0  0  0  0  0  0  0
    5.2450   -0.4730   23.6530 O   0  0  0  0  0  0  0  0  0  0  0  0
    5.9180   -0.3810   21.4620 N   0  0  0  0  0  0  0  0  0  0  0  0
    6.5300   -1.1130   20.3630 C   0  0  0  0  0  0  0  0  0  0  0  0
    6.2120   -0.3460   19.0840 C   0  0  0  0  0  0  0  0  0  0  0  0
    5.7900    1.0290   19.5660 C   0  0  0  0  0  0  0  0  0  0  0  0
    5.1400    0.7580   20.9260 C   0  0  2  0  0  0  0  0  0  0  0  0
    5.1740    2.0630   21.7450 C   0  0  0  0  0  0  0  0  0  0  0  0
    6.0380    2.3820   22.5490 O   0  0  0  0  0  0  0  0  0  0  0  0
    4.1150    2.8760   21.4770 O   0  0  0  0  0  0  0  0  0  0  0  0
  1  2  1  0
  2  3  1  0
  3  4  1  0
  4  5  2  0
  4  6  1  0
  6  7  1  1
  7  8  1  0
  8  9  1  0
  9 10  2  0
 10 11  1  0
 11 12  2  0
 12 13  1  0
  9 14  1  0
 13 14  2  0
  6 15  1  0
 15 16  1  0
 16 17  1  1
 16 18  1  0
 18 19  2  0
 18 20  1  0
 20 21  1  0
 21 22  1  0
 22 23  1  0
 20 24  1  0
 23 24  1  0
 24 25  1  1
 25 26  2  0
 25 27  1  0
M  END
