ABH-UNI-d4faac8d-1
     RDKit          3D

 42 47  0  0  0  0  0  0  0  0999 V2000
    0.0740  -13.6650   24.2450 C   0  0  0  0  0  0  0  0  0  0  0  0
    0.3430  -13.1550   25.6150 C   0  0  0  0  0  0  0  0  0  0  0  0
    0.2730  -14.1630   26.6260 O   0  0  0  0  0  0  0  0  0  0  0  0
    0.6510  -11.7190   25.8960 C   0  0  0  0  0  0  0  0  0  0  0  0
   -0.0900  -10.5770   25.2330 C   0  0  0  0  0  0  0  0  0  0  0  0
    0.4180   -9.1780   25.6920 C   0  0  2  0  0  0  0  0  0  0  0  0
    0.4630   -8.8870   27.0540 C   0  0  0  0  0  0  0  0  0  0  0  0
    0.2640   -9.9060   27.9890 C   0  0  0  0  0  0  0  0  0  0  0  0
    0.5100  -10.6620   28.8730 C   0  0  0  0  0  0  0  0  0  0  0  0
    0.2370  -11.6630   29.7540 C   0  0  0  0  0  0  0  0  0  0  0  0
   -1.0540  -12.0950   29.5650 C   0  0  0  0  0  0  0  0  0  0  0  0
   -1.7430  -11.3340   28.4620 C   0  0  0  0  0  0  0  0  0  0  0  0
   -1.0890  -10.3030   27.7370 C   0  0  0  0  0  0  0  0  0  0  0  0
   -0.4370   -8.1030   24.9940 C   0  0  0  0  0  0  0  0  0  0  0  0
    0.4320   -7.4090   24.1040 O   0  0  0  0  0  0  0  0  0  0  0  0
    1.6480   -7.9610   24.2960 C   0  0  0  0  0  0  0  0  0  0  0  0
    2.7950   -7.3870   23.4640 C   0  0  0  0  0  0  0  0  0  0  0  0
    3.1530   -6.0110   23.7680 N   0  0  0  0  0  0  0  0  0  0  0  0
    4.1900   -5.3060   23.1700 C   0  0  0  0  0  0  0  0  0  0  0  0
    4.0700   -3.9880   23.8770 C   0  0  0  0  0  0  0  0  0  0  0  0
    3.0210   -4.0790   24.7690 C   0  0  0  0  0  0  0  0  0  0  0  0
    2.4350   -5.2820   24.7360 N   0  0  0  0  0  0  0  0  0  0  0  0
    2.8040   -2.8030   25.5540 C   0  0  0  0  0  0  0  0  0  0  0  0
    4.0510   -1.9800   25.2610 C   0  0  2  0  0  0  0  0  0  0  0  0
    3.7260   -0.5440   25.0780 N   0  0  0  0  0  0  0  0  0  0  0  0
    3.1870    0.1690   26.1020 C   0  0  0  0  0  0  0  0  0  0  0  0
    2.2640   -0.2460   26.8920 N   0  0  0  0  0  0  0  0  0  0  0  0
    3.7460    1.3910   26.1970 N   0  0  0  0  0  0  0  0  0  0  0  0
    4.6910   -2.6280   23.9380 C   0  0  1  0  0  0  0  0  0  0  0  0
    6.1770   -2.5520   24.0150 C   0  0  0  0  0  0  0  0  0  0  0  0
    7.1490   -3.0090   23.2410 N   0  0  0  0  0  0  0  0  0  0  0  0
    8.3130   -2.5790   23.8430 C   0  0  0  0  0  0  0  0  0  0  0  0
    9.6230   -2.9020   23.2410 C   0  0  0  0  0  0  0  0  0  0  0  0
   10.6510   -1.7820   23.1640 C   0  0  0  0  0  0  0  0  0  0  0  0
   10.4060   -0.4000   23.2160 C   0  0  0  0  0  0  0  0  0  0  0  0
   11.4790    0.5040   23.1110 C   0  0  0  0  0  0  0  0  0  0  0  0
   12.7830    0.0600   22.9680 C   0  0  0  0  0  0  0  0  0  0  0  0
   13.0250   -1.2940   22.9220 C   0  0  0  0  0  0  0  0  0  0  0  0
   11.9760   -2.1880   23.0170 C   0  0  0  0  0  0  0  0  0  0  0  0
    7.9670   -1.9000   24.9600 C   0  0  0  0  0  0  0  0  0  0  0  0
    6.6280   -1.8650   25.0950 O   0  0  0  0  0  0  0  0  0  0  0  0
    1.7720   -8.9320   25.1410 N   0  0  0  0  0  0  0  0  0  0  0  0
  1  2  1  0
  2  3  2  0
  2  4  1  0
  4  5  2  3
  6  5  1  1
  6  7  1  0
  7  8  1  0
  8  9  2  0
  9 10  1  0
 10 11  2  0
 11 12  1  0
  8 13  1  0
 12 13  2  0
  6 14  1  0
 14 15  1  0
 15 16  1  0
 16 17  1  0
 17 18  1  0
 18 19  1  0
 19 20  2  0
 20 21  1  0
 18 22  1  0
 21 22  2  0
 21 23  1  0
 23 24  1  0
 24 25  1  6
 25 26  1  0
 26 27  2  3
 26 28  1  0
 20 29  1  0
 24 29  1  0
 29 30  1  1
 30 31  2  0
 31 32  1  0
 32 33  1  0
 33 34  1  0
 34 35  2  0
 35 36  1  0
 36 37  2  0
 37 38  1  0
 34 39  1  0
 38 39  2  0
 32 40  2  0
 30 41  1  0
 40 41  1  0
  6 42  1  0
 16 42  2  0
M  END
