ABH-HOE-1cbf6cd9-2
     RDKit          3D

 48 49  0  0  0  0  0  0  0  0999 V2000
    9.6710    4.8330   24.1120 N   0  0  0  0  0  0  0  0  0  0  0  0
    9.1940    3.7770   24.2040 C   0  0  0  0  0  0  0  0  0  0  0  0
    7.8010    3.6550   24.2430 N   0  0  0  0  0  0  0  0  0  0  0  0
    9.9450    2.5990   24.2740 N   0  0  0  0  0  0  0  0  0  0  0  0
    9.4690    1.2630   24.6460 C   0  0  0  0  0  0  0  0  0  0  0  0
   10.4400    0.3740   24.3940 C   0  0  0  0  0  0  0  0  0  0  0  0
   10.5960   -0.8680   25.2100 C   0  0  0  0  0  0  0  0  0  0  0  0
   11.5480   -1.9210   24.9260 C   0  0  1  0  0  0  0  0  0  0  0  0
   11.0990   -2.9190   23.9790 N   0  0  0  0  0  0  0  0  0  0  0  0
   10.0190   -3.6790   24.2820 C   0  0  0  0  0  0  0  0  0  0  0  0
   10.0740   -4.7660   25.1140 O   0  0  0  0  0  0  0  0  0  0  0  0
    8.9000   -3.2850   23.7050 C   0  0  2  0  0  0  0  0  0  0  0  0
    8.9740   -1.9430   23.0590 C   0  0  0  0  0  0  0  0  0  0  0  0
   10.3570   -1.3600   22.8980 C   0  0  0  0  0  0  0  0  0  0  0  0
   10.6860   -0.1000   23.4520 C   0  0  0  0  0  0  0  0  0  0  0  0
   11.9670    0.4390   23.3250 C   0  0  0  0  0  0  0  0  0  0  0  0
   12.9860   -0.2300   22.6530 C   0  0  0  0  0  0  0  0  0  0  0  0
   14.1080    0.2530   22.5580 O   0  0  0  0  0  0  0  0  0  0  0  0
   12.6910   -1.4850   22.0830 C   0  0  0  0  0  0  0  0  0  0  0  0
   11.3780   -2.0410   22.2050 C   0  0  0  0  0  0  0  0  0  0  0  0
    7.7900   -3.4990   24.6800 N   0  0  0  0  0  0  0  0  0  0  0  0
    7.6150   -4.6560   25.4630 C   0  0  0  0  0  0  0  0  0  0  0  0
    8.4770   -5.4430   25.8350 O   0  0  0  0  0  0  0  0  0  0  0  0
    6.3010   -4.9130   25.8850 C   0  0  0  0  0  0  0  0  0  0  0  0
    5.5230   -3.6720   26.0410 N   0  0  0  0  0  0  0  0  0  0  0  0
   12.9900   -1.4830   24.6090 C   0  0  0  0  0  0  0  0  0  0  0  0
   13.3520   -0.2130   24.3010 O   0  0  0  0  0  0  0  0  0  0  0  0
   13.8980   -2.5200   24.6710 N   0  0  0  0  0  0  0  0  0  0  0  0
   14.1940   -2.9790   25.9800 C   0  0  0  0  0  0  0  0  0  0  0  0
   13.6540   -4.2890   26.2210 C   0  0  0  0  0  0  0  0  0  0  0  0
   12.4610   -4.3610   26.3410 O   0  0  0  0  0  0  0  0  0  0  0  0
   14.4790   -5.4620   26.1440 N   0  0  0  0  0  0  0  0  0  0  0  0
   15.0610   -6.4610   27.1960 C   0  0  1  0  0  0  0  0  0  0  0  0
   15.0490   -8.1680   27.5890 C   0  0  0  0  0  0  0  0  0  0  0  0
   14.8360   -9.5340   29.5320 C   0  0  0  0  0  0  0  0  0  0  0  0
   15.0840  -11.3470   30.0630 C   0  0  0  0  0  0  0  0  0  0  0  0
   14.6860  -11.9490   31.5040 C   0  0  0  0  0  0  0  0  0  0  0  0
   14.0490  -11.1590   32.5420 C   0  0  0  0  0  0  0  0  0  0  0  0
   13.8270   -9.8460   32.2430 C   0  0  0  0  0  0  0  0  0  0  0  0
   14.1710   -9.1110   30.9600 C   0  0  0  0  0  0  0  0  0  0  0  0
   15.8020   -6.3710   28.0860 C   0  0  0  0  0  0  0  0  0  0  0  0
   16.6640   -6.5570   27.6430 O   0  0  0  0  0  0  0  0  0  0  0  0
   15.3180   -6.2130   29.5490 N   0  0  0  0  0  0  0  0  0  0  0  0
   16.6460   -5.9890   31.6620 C   0  0  1  0  0  0  0  0  0  0  0  0
   16.5330   -6.3410   33.0910 C   0  0  0  0  0  0  0  0  0  0  0  0
   17.3760   -7.0210   33.6940 O   0  0  0  0  0  0  0  0  0  0  0  0
   18.0860   -6.4610   32.0640 C   0  0  0  0  0  0  0  0  0  0  0  0
   18.9300   -6.7050   31.0190 O   0  0  0  0  0  0  0  0  0  0  0  0
  1  2  2  3
  2  3  1  0
  2  4  1  0
  4  5  1  0
  5  6  1  0
  6  7  1  0
  8  7  1  6
  8  9  1  0
  9 10  1  0
 10 11  2  0
 10 12  1  0
 12 13  1  1
 13 14  1  0
 14 15  2  0
 15 16  1  0
 16 17  2  0
 17 18  1  0
 17 19  1  0
 14 20  1  0
 19 20  2  0
 12 21  1  0
 21 22  1  0
 22 23  2  0
 22 24  1  0
 24 25  1  0
  8 26  1  0
 26 27  2  0
 26 28  1  0
 28 29  1  0
 29 30  1  0
 30 31  2  0
 30 32  1  0
 32 33  1  0
 33 34  1  6
 34 35  1  0
 35 36  2  0
 36 37  1  0
 37 38  2  0
 38 39  1  0
 35 40  1  0
 39 40  2  0
 33 41  1  0
 41 42  2  0
 41 43  1  0
 43 44  1  0
 44 45  1  1
 45 46  2  0
 44 47  1  0
 47 48  1  0
M  END
