ABH-UNI-fbfec4c4-1
     RDKit          3D

 42 47  0  0  0  0  0  0  0  0999 V2000
   -2.0020    1.7640   30.5080 C   0  0  0  0  0  0  0  0  0  0  0  0
   -1.1450    0.5370   30.6140 C   0  0  0  0  0  0  0  0  0  0  0  0
   -1.5670   -0.6110   30.6130 O   0  0  0  0  0  0  0  0  0  0  0  0
    0.3340    0.7910   30.7300 C   0  0  0  0  0  0  0  0  0  0  0  0
    1.1550    1.2260   29.5290 C   0  0  0  0  0  0  0  0  0  0  0  0
    2.6420    1.5260   29.5000 C   0  0  2  0  0  0  0  0  0  0  0  0
    2.8320    2.7040   30.0800 C   0  0  0  0  0  0  0  0  0  0  0  0
    1.7560    3.5880   30.5620 C   0  0  0  0  0  0  0  0  0  0  0  0
    1.0420    4.4310   29.5500 C   0  0  0  0  0  0  0  0  0  0  0  0
   -0.0600    5.3480   29.9840 C   0  0  0  0  0  0  0  0  0  0  0  0
   -0.3950    5.3670   31.4630 C   0  0  0  0  0  0  0  0  0  0  0  0
    0.4140    4.4580   32.3600 C   0  0  0  0  0  0  0  0  0  0  0  0
    1.3990    3.6500   31.9170 C   0  0  0  0  0  0  0  0  0  0  0  0
    3.2780    1.4240   28.1090 C   0  0  0  0  0  0  0  0  0  0  0  0
    4.5110    0.7510   28.3290 O   0  0  0  0  0  0  0  0  0  0  0  0
    4.3450    0.1290   29.5200 C   0  0  0  0  0  0  0  0  0  0  0  0
    5.3720   -0.9180   29.8630 C   0  0  0  0  0  0  0  0  0  0  0  0
    5.4920   -1.9390   28.8360 N   0  0  0  0  0  0  0  0  0  0  0  0
    5.4490   -1.7410   27.4710 C   0  0  0  0  0  0  0  0  0  0  0  0
    5.6030   -2.9870   26.9270 C   0  0  0  0  0  0  0  0  0  0  0  0
    5.7300   -3.8560   28.0030 C   0  0  0  0  0  0  0  0  0  0  0  0
    5.6670   -3.2460   29.1820 N   0  0  0  0  0  0  0  0  0  0  0  0
    5.9080   -5.2740   27.6110 C   0  0  0  0  0  0  0  0  0  0  0  0
    5.8440   -5.2140   26.0250 C   0  0  1  0  0  0  0  0  0  0  0  0
    4.6740   -5.9940   25.5240 N   0  0  0  0  0  0  0  0  0  0  0  0
    4.6110   -6.4150   24.2310 C   0  0  0  0  0  0  0  0  0  0  0  0
    5.2820   -5.9160   23.2630 N   0  0  0  0  0  0  0  0  0  0  0  0
    3.7470   -7.4400   24.0780 N   0  0  0  0  0  0  0  0  0  0  0  0
    5.6730   -3.6850   25.6240 C   0  0  2  0  0  0  0  0  0  0  0  0
    6.7970   -3.2000   24.7760 C   0  0  0  0  0  0  0  0  0  0  0  0
    8.0800   -3.1160   24.9660 N   0  0  0  0  0  0  0  0  0  0  0  0
    8.8440   -2.5700   23.8890 C   0  0  0  0  0  0  0  0  0  0  0  0
    9.3120   -1.9810   22.6150 C   0  0  0  0  0  0  0  0  0  0  0  0
   10.6240   -1.2620   22.7260 C   0  0  0  0  0  0  0  0  0  0  0  0
   10.7590    0.0180   23.2830 C   0  0  0  0  0  0  0  0  0  0  0  0
   12.0170    0.6300   23.3200 C   0  0  0  0  0  0  0  0  0  0  0  0
   13.1190   -0.0180   22.8230 C   0  0  0  0  0  0  0  0  0  0  0  0
   12.9910   -1.2820   22.2780 C   0  0  0  0  0  0  0  0  0  0  0  0
   11.7550   -1.8950   22.2290 C   0  0  0  0  0  0  0  0  0  0  0  0
    7.6550   -2.4080   23.1100 C   0  0  0  0  0  0  0  0  0  0  0  0
    6.4620   -2.7650   23.6040 O   0  0  0  0  0  0  0  0  0  0  0  0
    3.3400    0.4680   30.2740 N   0  0  0  0  0  0  0  0  0  0  0  0
  1  2  1  0
  2  3  2  0
  2  4  1  0
  4  5  2  3
  6  5  1  6
  6  7  1  0
  7  8  1  0
  8  9  2  0
  9 10  1  0
 10 11  2  0
 11 12  1  0
  8 13  1  0
 12 13  2  0
  6 14  1  0
 14 15  1  0
 15 16  1  0
 16 17  1  0
 17 18  1  0
 18 19  1  0
 19 20  2  0
 20 21  1  0
 18 22  1  0
 21 22  2  0
 21 23  1  0
 23 24  1  0
 24 25  1  1
 25 26  1  0
 26 27  2  3
 26 28  1  0
 20 29  1  0
 24 29  1  0
 29 30  1  6
 30 31  2  0
 31 32  1  0
 32 33  1  0
 33 34  1  0
 34 35  2  0
 35 36  1  0
 36 37  2  0
 37 38  1  0
 34 39  1  0
 38 39  2  0
 32 40  2  0
 30 41  1  0
 40 41  1  0
  6 42  1  0
 16 42  2  0
M  END
