ADA-UNI-f8e79267-11
     RDKit          3D

 21 22  0  0  0  0  0  0  0  0999 V2000
    7.3610   -0.9920   25.9410 C   0  0  0  0  0  0  0  0  0  0  0  0
    8.3210   -1.1900   24.9710 N   0  0  0  0  0  0  0  0  0  0  0  0
    8.6310   -2.3960   24.3030 C   0  0  0  0  0  0  0  0  0  0  0  0
    8.2880   -2.4120   22.9090 C   0  0  0  0  0  0  0  0  0  0  0  0
    9.0570   -1.6200   22.0590 C   0  0  1  0  0  0  0  0  0  0  0  0
    8.5450   -0.3350   21.7790 C   0  0  0  0  0  0  0  0  0  0  0  0
    9.3310    0.5840   21.5580 O   0  0  0  0  0  0  0  0  0  0  0  0
    7.1950   -0.0880   21.7470 N   0  0  0  0  0  0  0  0  0  0  0  0
    6.7350    0.2180   20.4920 C   0  0  0  0  0  0  0  0  0  0  0  0
    5.6630    1.1180   20.5560 C   0  0  0  0  0  0  0  0  0  0  0  0
    4.9650    1.6240   19.3090 C   0  0  0  0  0  0  0  0  0  0  0  0
    5.5020    1.0960   17.9960 C   0  0  0  0  0  0  0  0  0  0  0  0
    6.5290    0.2340   17.9760 N   0  0  0  0  0  0  0  0  0  0  0  0
    7.1450   -0.2100   19.2150 C   0  0  0  0  0  0  0  0  0  0  0  0
   10.3230   -1.6020   22.4660 C   0  0  0  0  0  0  0  0  0  0  0  0
   11.2430   -2.2040   21.6330 C   0  0  0  0  0  0  0  0  0  0  0  0
   12.7150   -2.3380   21.8170 C   0  0  0  0  0  0  0  0  0  0  0  0
   13.1970   -1.7740   23.0690 C   0  0  0  0  0  0  0  0  0  0  0  0
   12.2180   -1.1390   23.9880 C   0  0  0  0  0  0  0  0  0  0  0  0
   12.7760   -0.5560   25.3820 Cl  0  0  0  0  0  0  0  0  0  0  0  0
   10.7520   -1.0480   23.6550 C   0  0  0  0  0  0  0  0  0  0  0  0
  1  2  1  0
  2  3  1  0
  3  4  1  0
  5  4  1  1
  5  6  1  0
  6  7  2  0
  6  8  1  0
  8  9  1  0
  9 10  2  0
 10 11  1  0
 11 12  2  0
 12 13  1  0
  9 14  1  0
 13 14  2  0
  5 15  1  0
 15 16  2  0
 16 17  1  0
 17 18  2  0
 18 19  1  0
 19 20  1  0
 15 21  1  0
 19 21  2  0
M  END
