ADA-UNI-f8e79267-4
     RDKit          3D

 21 22  0  0  0  0  0  0  0  0999 V2000
    6.7220   -3.3280   25.4390 C   0  0  0  0  0  0  0  0  0  0  0  0
    7.1630   -4.0000   24.3000 N   0  0  0  0  0  0  0  0  0  0  0  0
    8.4050   -4.0070   23.6900 C   0  0  0  0  0  0  0  0  0  0  0  0
    9.1450   -2.8960   23.6800 C   0  0  0  0  0  0  0  0  0  0  0  0
    8.3230   -1.7260   23.6370 O   0  0  0  0  0  0  0  0  0  0  0  0
    9.0780   -0.6020   23.1590 C   0  0  2  0  0  0  0  0  0  0  0  0
    8.5430   -0.0530   21.7990 C   0  0  0  0  0  0  0  0  0  0  0  0
    9.2120    1.1840   21.3920 O   0  0  0  0  0  0  0  0  0  0  0  0
    7.5180   -0.7120   21.1320 N   0  0  0  0  0  0  0  0  0  0  0  0
    6.7690   -0.0310   20.2340 C   0  0  0  0  0  0  0  0  0  0  0  0
    5.6790    0.7950   20.5110 C   0  0  0  0  0  0  0  0  0  0  0  0
    5.0220    1.4090   19.4440 C   0  0  0  0  0  0  0  0  0  0  0  0
    5.4180    1.2290   18.1300 C   0  0  0  0  0  0  0  0  0  0  0  0
    6.4720    0.4350   17.8440 N   0  0  0  0  0  0  0  0  0  0  0  0
    7.0920   -0.1540   18.8800 C   0  0  0  0  0  0  0  0  0  0  0  0
   10.5290   -1.0720   23.1940 C   0  0  0  0  0  0  0  0  0  0  0  0
   11.3460   -1.3570   21.9830 C   0  0  0  0  0  0  0  0  0  0  0  0
   12.6610   -1.7790   22.0620 C   0  0  0  0  0  0  0  0  0  0  0  0
   13.3160   -1.9720   23.3160 C   0  0  0  0  0  0  0  0  0  0  0  0
   12.5650   -1.7170   24.4310 C   0  0  0  0  0  0  0  0  0  0  0  0
   11.1140   -1.2550   24.4100 C   0  0  0  0  0  0  0  0  0  0  0  0
  1  2  1  0
  2  3  1  0
  3  4  1  0
  4  5  1  0
  6  5  1  6
  6  7  1  0
  7  8  2  0
  7  9  1  0
  9 10  1  0
 10 11  2  0
 11 12  1  0
 12 13  2  0
 13 14  1  0
 10 15  1  0
 14 15  2  0
  6 16  1  0
 16 17  2  0
 17 18  1  0
 18 19  2  0
 19 20  1  0
 16 21  1  0
 20 21  2  0
M  END
