ADA-UNI-f8e79267-3
     RDKit          3D

 24 26  0  0  0  0  0  0  0  0999 V2000
    5.5610   -6.5160   22.9760 C   0  0  0  0  0  0  0  0  0  0  0  0
    6.7260   -5.3200   22.3830 S   0  0  0  0  0  0  0  0  0  0  0  0
    7.5300   -6.0220   21.4320 O   0  0  0  0  0  0  0  0  0  0  0  0
    5.9860   -4.1220   22.0490 O   0  0  0  0  0  0  0  0  0  0  0  0
    7.6740   -4.9800   23.7410 N   0  0  0  0  0  0  0  0  0  0  0  0
    8.4770   -3.8050   23.9010 C   0  0  0  0  0  0  0  0  0  0  0  0
    8.2680   -2.6790   23.0470 C   0  0  1  0  0  0  0  0  0  0  0  0
    8.2670   -1.6270   23.7710 C   0  0  0  0  0  0  0  0  0  0  0  0
    9.1420   -1.2190   22.9180 C   0  0  2  0  0  0  0  0  0  0  0  0
    8.6960   -0.3240   21.9080 C   0  0  0  0  0  0  0  0  0  0  0  0
    9.2810    0.7170   21.5990 O   0  0  0  0  0  0  0  0  0  0  0  0
    7.5270   -0.8460   21.3920 N   0  0  0  0  0  0  0  0  0  0  0  0
    6.8480   -0.1090   20.4170 C   0  0  0  0  0  0  0  0  0  0  0  0
    5.7250    0.8860   20.6840 C   0  0  0  0  0  0  0  0  0  0  0  0
    5.1240    1.5430   19.4510 C   0  0  0  0  0  0  0  0  0  0  0  0
    5.6210    1.2210   18.0960 C   0  0  0  0  0  0  0  0  0  0  0  0
    6.6000    0.3570   17.9500 N   0  0  0  0  0  0  0  0  0  0  0  0
    7.1670   -0.2670   19.0620 C   0  0  0  0  0  0  0  0  0  0  0  0
   10.4580   -1.4270   23.1020 C   0  0  0  0  0  0  0  0  0  0  0  0
   11.2220   -1.4390   21.8230 C   0  0  0  0  0  0  0  0  0  0  0  0
   12.7120   -1.6800   21.8420 C   0  0  0  0  0  0  0  0  0  0  0  0
   13.4100   -1.9010   23.1470 C   0  0  0  0  0  0  0  0  0  0  0  0
   12.6930   -1.8860   24.4420 C   0  0  0  0  0  0  0  0  0  0  0  0
   11.2210   -1.6560   24.4040 C   0  0  0  0  0  0  0  0  0  0  0  0
  1  2  1  0
  2  3  2  0
  2  4  2  0
  2  5  1  0
  5  6  1  0
  7  6  1  1
  7  8  1  0
  7  9  1  0
  8  9  1  0
  9 10  1  6
 10 11  2  0
 10 12  1  0
 12 13  1  0
 13 14  2  0
 14 15  1  0
 15 16  2  0
 16 17  1  0
 13 18  1  0
 17 18  2  0
  9 19  1  0
 19 20  2  0
 20 21  1  0
 21 22  2  0
 22 23  1  0
 19 24  1  0
 23 24  2  0
M  END
