ADA-UNI-f8e79267-7
     RDKit          3D

 25 26  0  0  0  0  0  0  0  0999 V2000
    6.5470   -5.5470   26.7790 C   0  0  0  0  0  0  0  0  0  0  0  0
    7.6990   -4.1670   26.7580 S   0  0  0  0  0  0  0  0  0  0  0  0
    8.1530   -3.9290   28.1040 O   0  0  0  0  0  0  0  0  0  0  0  0
    7.1220   -3.1370   25.9280 O   0  0  0  0  0  0  0  0  0  0  0  0
    8.9970   -4.7550   25.8900 N   0  0  0  0  0  0  0  0  0  0  0  0
    9.5990   -3.8400   24.8900 C   0  0  0  0  0  0  0  0  0  0  0  0
    9.2940   -2.5420   25.0690 C   0  0  0  0  0  0  0  0  0  0  0  0
    8.5990   -1.9350   23.9390 O   0  0  0  0  0  0  0  0  0  0  0  0
    9.2290   -0.6990   23.4790 C   0  0  2  0  0  0  0  0  0  0  0  0
    8.6170   -0.1570   22.1250 C   0  0  0  0  0  0  0  0  0  0  0  0
    9.1790    0.8090   21.5980 O   0  0  0  0  0  0  0  0  0  0  0  0
    7.5080   -0.7200   21.5500 N   0  0  0  0  0  0  0  0  0  0  0  0
    6.8470   -0.0950   20.5100 C   0  0  0  0  0  0  0  0  0  0  0  0
    5.6900    0.9290   20.6790 C   0  0  0  0  0  0  0  0  0  0  0  0
    5.0230    1.5550   19.4440 C   0  0  0  0  0  0  0  0  0  0  0  0
    5.4890    1.1760   18.1860 C   0  0  0  0  0  0  0  0  0  0  0  0
    6.5800    0.2120   18.0400 N   0  0  0  0  0  0  0  0  0  0  0  0
    7.2530   -0.4230   19.0960 C   0  0  0  0  0  0  0  0  0  0  0  0
   10.6700   -1.1340   23.3000 C   0  0  0  0  0  0  0  0  0  0  0  0
   11.2870   -1.2210   22.0650 C   0  0  0  0  0  0  0  0  0  0  0  0
   12.5910   -1.6330   21.9100 C   0  0  0  0  0  0  0  0  0  0  0  0
   13.2810   -1.9800   23.0260 C   0  0  0  0  0  0  0  0  0  0  0  0
   12.7560   -1.9360   24.2760 C   0  0  0  0  0  0  0  0  0  0  0  0
   13.7590   -2.4530   25.5580 Cl  0  0  0  0  0  0  0  0  0  0  0  0
   11.4420   -1.4980   24.4240 C   0  0  0  0  0  0  0  0  0  0  0  0
  1  2  1  0
  2  3  2  0
  2  4  2  0
  2  5  1  0
  5  6  1  0
  6  7  1  0
  7  8  1  0
  9  8  1  6
  9 10  1  0
 10 11  2  0
 10 12  1  0
 12 13  1  0
 13 14  2  0
 14 15  1  0
 15 16  2  0
 16 17  1  0
 13 18  1  0
 17 18  2  0
  9 19  1  0
 19 20  2  0
 20 21  1  0
 21 22  2  0
 22 23  1  0
 23 24  1  0
 19 25  1  0
 23 25  2  0
M  END
