ADR-MCR-f276533c-1
     RDKit          3D

 42 46  0  0  0  0  0  0  0  0999 V2000
    3.6080   -7.4900   24.6800 C   0  0  0  0  0  0  0  0  0  0  0  0
    3.7620   -6.3550   25.7030 C   0  0  0  0  0  0  0  0  0  0  0  0
    2.3990   -5.6770   25.8820 C   0  0  0  0  0  0  0  0  0  0  0  0
    4.2820   -6.9430   27.0210 C   0  0  0  0  0  0  0  0  0  0  0  0
    4.7230   -5.4390   25.1150 O   0  0  0  0  0  0  0  0  0  0  0  0
    5.6020   -4.7640   25.8950 C   0  0  0  0  0  0  0  0  0  0  0  0
    5.8710   -5.0480   27.0510 O   0  0  0  0  0  0  0  0  0  0  0  0
    6.1220   -3.7320   25.1710 N   0  0  0  0  0  0  0  0  0  0  0  0
    6.3940   -2.4450   25.5830 C   0  0  0  0  0  0  0  0  0  0  0  0
    5.8070   -1.8220   26.6100 C   0  0  0  0  0  0  0  0  0  0  0  0
    6.1710   -0.4800   26.9520 C   0  0  0  0  0  0  0  0  0  0  0  0
    7.0840    0.1830   26.2400 C   0  0  0  0  0  0  0  0  0  0  0  0
    7.7440   -0.3620   25.1370 N   0  0  0  0  0  0  0  0  0  0  0  0
    8.1830    0.5540   24.0370 C   0  0  2  0  0  0  0  0  0  0  0  0
    9.7070    0.6790   23.7300 C   0  0  0  0  0  0  0  0  0  0  0  0
   10.3710    2.0100   23.4860 C   0  0  0  0  0  0  0  0  0  0  0  0
   11.7770    2.2160   23.1740 C   0  0  0  0  0  0  0  0  0  0  0  0
   12.3300    3.6030   22.9240 C   0  0  0  0  0  0  0  0  0  0  0  0
   13.2880    3.7930   22.1940 O   0  0  0  0  0  0  0  0  0  0  0  0
   11.7640    4.8890   23.5340 C   0  0  0  0  0  0  0  0  0  0  0  0
   11.9760    5.2330   24.6790 O   0  0  0  0  0  0  0  0  0  0  0  0
   11.0030    5.6240   22.6660 N   0  0  0  0  0  0  0  0  0  0  0  0
   10.3140    6.7900   23.1140 C   0  0  0  0  0  0  0  0  0  0  0  0
    9.4290    6.5000   24.2900 C   0  0  0  0  0  0  0  0  0  0  0  0
    9.9280    6.6290   25.5950 C   0  0  0  0  0  0  0  0  0  0  0  0
    9.1120    6.3670   26.6930 C   0  0  0  0  0  0  0  0  0  0  0  0
    7.7900    5.9720   26.5050 C   0  0  0  0  0  0  0  0  0  0  0  0
    7.2820    5.8400   25.2130 C   0  0  0  0  0  0  0  0  0  0  0  0
    8.0980    6.1020   24.1100 C   0  0  0  0  0  0  0  0  0  0  0  0
   12.5410    1.0390   23.1170 C   0  0  0  0  0  0  0  0  0  0  0  0
   11.6670    0.0220   23.3780 C   0  0  0  0  0  0  0  0  0  0  0  0
   11.0700    1.1120   23.4180 N   0  0  0  0  0  0  0  0  0  0  0  0
   12.3270    0.4830   23.2010 C   0  0  0  0  0  0  0  0  0  0  0  0
   11.8770   -0.9390   23.4090 C   0  0  0  0  0  0  0  0  0  0  0  0
   12.6390   -2.1750   23.3500 C   0  0  0  0  0  0  0  0  0  0  0  0
   13.3100   -2.5920   24.2900 O   0  0  0  0  0  0  0  0  0  0  0  0
   10.5350   -0.5190   23.6550 C   0  0  0  0  0  0  0  0  0  0  0  0
    7.4030    1.8760   24.0690 C   0  0  0  0  0  0  0  0  0  0  0  0
    7.9600    3.1390   24.6810 C   0  0  0  0  0  0  0  0  0  0  0  0
    7.6100    3.1160   23.2190 C   0  0  0  0  0  0  0  0  0  0  0  0
    7.4550   -1.7060   24.7850 C   0  0  0  0  0  0  0  0  0  0  0  0
    8.0010   -2.3310   23.8690 O   0  0  0  0  0  0  0  0  0  0  0  0
  1  2  1  0
  2  3  1  0
  2  4  1  0
  2  5  1  0
  5  6  1  0
  6  7  2  0
  6  8  1  0
  8  9  1  0
  9 10  2  0
 10 11  1  0
 11 12  2  0
 12 13  1  0
 13 14  1  0
 14 15  1  1
 15 16  2  0
 16 17  1  0
 17 18  1  0
 18 19  2  0
 18 20  1  0
 20 21  2  0
 20 22  1  0
 22 23  1  0
 23 24  1  0
 24 25  2  0
 25 26  1  0
 26 27  2  0
 27 28  1  0
 24 29  1  0
 28 29  2  0
 17 30  2  0
 30 31  1  0
 31 32  1  0
 32 33  1  0
 33 34  2  0
 34 35  1  0
 35 36  2  0
 15 37  1  0
 31 37  2  0
 34 37  1  0
 14 38  1  0
 38 39  1  0
 38 40  1  0
 39 40  1  0
  9 41  1  0
 13 41  1  0
 41 42  2  0
M  END
