AGN-NEW-051944a9-1
     RDKit          3D

 33 35  0  0  0  0  0  0  0  0999 V2000
    7.6750   -1.8990   18.2720 C   0  0  0  0  0  0  0  0  0  0  0  0
    6.2500   -1.7700   18.5010 C   0  0  0  0  0  0  0  0  0  0  0  0
    5.7880   -0.4590   19.0020 C   0  0  0  0  0  0  0  0  0  0  0  0
    5.1130    0.2540   18.0830 N   0  0  0  0  0  0  0  0  0  0  0  0
    4.6750    1.4290   18.5050 C   0  0  0  0  0  0  0  0  0  0  0  0
    4.8510    1.9920   19.8660 C   0  0  0  0  0  0  0  0  0  0  0  0
    4.2810    3.3490   20.2100 C   0  0  0  0  0  0  0  0  0  0  0  0
    5.5800    1.1700   20.7650 C   0  0  0  0  0  0  0  0  0  0  0  0
    5.8580    1.5070   22.0860 C   0  0  0  0  0  0  0  0  0  0  0  0
    4.9430    2.3080   22.8000 C   0  0  0  0  0  0  0  0  0  0  0  0
    3.6460    2.2180   22.4730 N   0  0  0  0  0  0  0  0  0  0  0  0
    2.6990    2.4420   23.4300 C   0  0  0  0  0  0  0  0  0  0  0  0
    2.6980    1.8210   24.4820 O   0  0  0  0  0  0  0  0  0  0  0  0
    1.7910    3.4200   23.0480 C   0  0  0  0  0  0  0  0  0  0  0  0
    0.6130    3.4750   23.8060 N   0  0  0  0  0  0  0  0  0  0  0  0
    0.4990    4.7530   24.5400 C   0  0  0  0  0  0  0  0  0  0  0  0
   -0.9070    5.0170   24.9890 C   0  0  0  0  0  0  0  0  0  0  0  0
   -1.9420    4.3930   24.4090 N   0  0  0  0  0  0  0  0  0  0  0  0
   -1.8020    3.2470   23.6890 C   0  0  0  0  0  0  0  0  0  0  0  0
   -0.5860    3.1260   23.0030 C   0  0  0  0  0  0  0  0  0  0  0  0
    6.0610   -0.0560   20.3130 C   0  0  0  0  0  0  0  0  0  0  0  0
    6.8370   -0.8780   21.2060 N   0  0  0  0  0  0  0  0  0  0  0  0
    8.1020   -0.3630   21.5390 C   0  0  0  0  0  0  0  0  0  0  0  0
    8.4500    0.7400   21.0960 O   0  0  0  0  0  0  0  0  0  0  0  0
    8.9800   -1.0960   22.3870 N   0  0  0  0  0  0  0  0  0  0  0  0
    8.8090   -2.4190   22.7620 C   0  0  0  0  0  0  0  0  0  0  0  0
   10.3030   -0.5640   22.5800 C   0  0  0  0  0  0  0  0  0  0  0  0
   10.4710    0.9390   22.7210 C   0  0  0  0  0  0  0  0  0  0  0  0
   11.9030    1.4390   22.8850 C   0  0  0  0  0  0  0  0  0  0  0  0
   12.0300    2.9550   22.9840 C   0  0  0  0  0  0  0  0  0  0  0  0
   12.9560    0.5600   22.9190 C   0  0  0  0  0  0  0  0  0  0  0  0
   12.6340   -0.9140   22.7790 C   0  0  0  0  0  0  0  0  0  0  0  0
   11.3750   -1.3990   22.6190 N   0  0  0  0  0  0  0  0  0  0  0  0
  1  2  2  3
  2  3  1  0
  3  4  2  0
  4  5  1  0
  5  6  2  0
  6  7  1  0
  6  8  1  0
  8  9  1  0
  9 10  1  0
 10 11  1  0
 11 12  1  0
 12 13  2  0
 12 14  1  0
 14 15  1  0
 15 16  1  0
 16 17  1  0
 17 18  1  0
 18 19  1  0
 15 20  1  0
 19 20  1  0
  3 21  1  0
  8 21  2  0
 21 22  1  0
 22 23  1  0
 23 24  2  0
 23 25  1  0
 25 26  1  0
 25 27  1  0
 27 28  2  0
 28 29  1  0
 29 30  1  0
 29 31  2  0
 31 32  1  0
 27 33  1  0
 32 33  2  0
M  END
