AGN-NEW-891393a6-8
     RDKit          3D

 24 26  0  0  0  0  0  0  0  0999 V2000
    7.4570   -0.4250   24.5070 O   0  0  0  0  0  0  0  0  0  0  0  0
    8.1660   -0.9790   23.3630 S   0  0  0  0  0  0  0  0  0  0  0  0
    8.1830   -2.4060   23.1070 O   0  0  0  0  0  0  0  0  0  0  0  0
    7.6840   -0.1000   21.9510 C   0  0  0  0  0  0  0  0  0  0  0  0
    6.4370   -0.4120   21.4510 C   0  0  0  0  0  0  0  0  0  0  0  0
    5.8340    0.2850   20.3980 C   0  0  0  0  0  0  0  0  0  0  0  0
    4.6990    1.1300   20.1180 C   0  0  0  0  0  0  0  0  0  0  0  0
    4.4970    1.6650   18.7600 C   0  0  0  0  0  0  0  0  0  0  0  0
    5.4120    1.3420   17.7530 C   0  0  0  0  0  0  0  0  0  0  0  0
    6.5980    0.4550   17.9920 N   0  0  0  0  0  0  0  0  0  0  0  0
    6.8080   -0.0780   19.3540 C   0  0  0  0  0  0  0  0  0  0  0  0
    9.8210   -0.4550   23.4930 C   0  0  0  0  0  0  0  0  0  0  0  0
   10.2740    0.7030   24.0670 C   0  0  0  0  0  0  0  0  0  0  0  0
   11.7970    0.9340   24.0260 C   0  0  0  0  0  0  0  0  0  0  0  0
   12.6150   -0.0010   23.4420 C   0  0  0  0  0  0  0  0  0  0  0  0
   11.9980   -1.1150   22.9100 C   0  0  0  0  0  0  0  0  0  0  0  0
   12.5050   -2.1290   22.2550 C   0  0  0  0  0  0  0  0  0  0  0  0
   13.5630   -2.8920   22.4130 C   0  0  0  0  0  0  0  0  0  0  0  0
   13.7980   -3.8770   21.4030 C   0  0  0  0  0  0  0  0  0  0  0  0
   13.0360   -4.0580   20.3780 C   0  0  0  0  0  0  0  0  0  0  0  0
   11.9690   -3.3340   20.3000 C   0  0  0  0  0  0  0  0  0  0  0  0
   11.6960   -2.3460   21.2430 C   0  0  0  0  0  0  0  0  0  0  0  0
   10.6230   -1.5460   21.2350 F   0  0  0  0  0  0  0  0  0  0  0  0
   10.6670   -1.3140   22.9460 C   0  0  0  0  0  0  0  0  0  0  0  0
  1  2  2  0
  2  3  2  0
  2  4  1  0
  4  5  2  3
  5  6  1  0
  6  7  2  0
  7  8  1  0
  8  9  2  0
  9 10  1  0
  6 11  1  0
 10 11  2  0
  2 12  1  0
 12 13  2  0
 13 14  1  0
 14 15  2  0
 15 16  1  0
 16 17  1  0
 17 18  2  0
 18 19  1  0
 19 20  2  0
 20 21  1  0
 17 22  1  0
 21 22  2  0
 22 23  1  0
 12 24  1  0
 16 24  2  0
M  END
