AGN-NEW-fad6815c-2
     RDKit          3D

 36 39  0  0  0  0  0  0  0  0999 V2000
   11.6350    6.2250   22.8880 C   0  0  0  0  0  0  0  0  0  0  0  0
   11.5960    4.7910   23.3250 C   0  0  0  0  0  0  0  0  0  0  0  0
   10.4910    4.3050   24.0290 C   0  0  0  0  0  0  0  0  0  0  0  0
   10.0880    4.9300   25.2130 C   0  0  0  0  0  0  0  0  0  0  0  0
    8.9900    4.4530   25.9170 C   0  0  0  0  0  0  0  0  0  0  0  0
    8.3060    3.3430   25.4210 C   0  0  0  0  0  0  0  0  0  0  0  0
    8.8030    2.7190   24.1410 C   0  0  0  0  0  0  0  0  0  0  0  0
    7.9950    1.4830   23.6590 C   0  0  0  0  0  0  0  0  0  0  0  0
    8.6440    0.4520   22.8020 N   0  0  0  0  0  0  0  0  0  0  0  0
    8.0950    0.4600   21.5500 C   0  0  0  0  0  0  0  0  0  0  0  0
    8.5120    1.1960   20.6770 O   0  0  0  0  0  0  0  0  0  0  0  0
    6.9630   -0.3240   21.2730 N   0  0  0  0  0  0  0  0  0  0  0  0
    6.2250    0.2400   20.2000 C   0  0  0  0  0  0  0  0  0  0  0  0
    5.2310    1.1720   20.4290 C   0  0  0  0  0  0  0  0  0  0  0  0
    4.8220    1.6160   21.8260 C   0  0  0  0  0  0  0  0  0  0  0  0
    5.1110    3.0240   22.2090 N   0  0  0  0  0  0  0  0  0  0  0  0
    4.4590    3.9890   21.2860 C   0  0  0  0  0  0  0  0  0  0  0  0
    3.0740    4.0590   21.4910 C   0  0  0  0  0  0  0  0  0  0  0  0
    2.7780    4.3700   22.8630 O   0  0  0  0  0  0  0  0  0  0  0  0
    3.3460    3.4290   23.7860 C   0  0  0  0  0  0  0  0  0  0  0  0
    4.7120    3.3170   23.6110 C   0  0  0  0  0  0  0  0  0  0  0  0
    4.5870    1.7210   19.3150 C   0  0  0  0  0  0  0  0  0  0  0  0
    5.0120    1.2690   17.9620 C   0  0  0  0  0  0  0  0  0  0  0  0
    5.9480    0.3560   17.7790 N   0  0  0  0  0  0  0  0  0  0  0  0
    6.5200   -0.1340   18.8930 C   0  0  0  0  0  0  0  0  0  0  0  0
    7.5380   -1.1540   18.6350 C   0  0  0  0  0  0  0  0  0  0  0  0
   10.0750    0.3550   22.8430 C   0  0  0  0  0  0  0  0  0  0  0  0
   10.7730    1.4830   22.9440 N   0  0  0  0  0  0  0  0  0  0  0  0
   12.1210    1.4310   22.9820 C   0  0  0  0  0  0  0  0  0  0  0  0
   12.8190    0.2730   22.9190 C   0  0  0  0  0  0  0  0  0  0  0  0
   12.0330   -0.8410   22.8060 C   0  0  0  0  0  0  0  0  0  0  0  0
   12.5640   -2.2120   22.6990 C   0  0  0  0  0  0  0  0  0  0  0  0
   13.1400   -2.3300   21.2970 C   0  0  0  0  0  0  0  0  0  0  0  0
   13.4940   -2.5650   23.8490 C   0  0  0  0  0  0  0  0  0  0  0  0
   10.6990   -0.8040   22.7710 N   0  0  0  0  0  0  0  0  0  0  0  0
    9.8800    3.2210   23.4780 N   0  0  0  0  0  0  0  0  0  0  0  0
  1  2  3  0
  2  3  1  0
  3  4  2  0
  4  5  1  0
  5  6  2  0
  6  7  1  0
  7  8  1  0
  8  9  1  0
  9 10  1  0
 10 11  2  0
 10 12  1  0
 12 13  1  0
 13 14  1  0
 14 15  1  0
 15 16  1  0
 16 17  1  0
 17 18  1  0
 18 19  1  0
 19 20  1  0
 16 21  1  0
 20 21  1  0
 14 22  2  0
 22 23  1  0
 23 24  2  0
 13 25  2  0
 24 25  1  0
 25 26  1  0
  9 27  1  0
 27 28  2  0
 28 29  1  0
 29 30  2  0
 30 31  1  0
 31 32  1  0
 32 33  1  0
 32 34  1  0
 27 35  1  0
 31 35  2  0
  3 36  1  0
  7 36  2  0
M  END
