AGN-NEW-95323f67-4
     RDKit          3D

 26 28  0  0  0  0  0  0  0  0999 V2000
   13.2880   -2.1450   21.2110 C   0  0  0  0  0  0  0  0  0  0  0  0
   13.4940   -1.5760   22.4930 O   0  0  0  0  0  0  0  0  0  0  0  0
   12.5570   -0.6510   22.6760 C   0  0  0  0  0  0  0  0  0  0  0  0
   12.8530    0.8240   22.8480 C   0  0  0  0  0  0  0  0  0  0  0  0
   11.8080    1.7140   22.9870 C   0  0  0  0  0  0  0  0  0  0  0  0
   11.8920    3.1100   23.1220 C   0  0  0  0  0  0  0  0  0  0  0  0
   12.9290    3.9770   22.7550 C   0  0  0  0  0  0  0  0  0  0  0  0
   12.6730    5.2910   23.0300 C   0  0  0  0  0  0  0  0  0  0  0  0
   11.4380    5.4740   23.6140 C   0  0  0  0  0  0  0  0  0  0  0  0
   10.5080    4.0310   23.8640 S   0  0  0  0  0  0  0  0  0  0  0  0
   10.3940    1.0740   22.9700 C   0  0  0  0  0  0  0  0  0  0  0  0
   10.2690   -0.3110   22.8100 C   0  0  0  0  0  0  0  0  0  0  0  0
    8.9820   -0.8100   22.7900 C   0  0  0  0  0  0  0  0  0  0  0  0
    7.9840    0.4270   21.9990 S   0  0  0  0  0  0  0  0  0  0  0  0
    8.8000    1.1990   21.0650 O   0  0  0  0  0  0  0  0  0  0  0  0
    7.1740    1.0870   23.0060 O   0  0  0  0  0  0  0  0  0  0  0  0
    6.9770   -0.5410   21.0350 N   0  0  0  0  0  0  0  0  0  0  0  0
    6.3060    0.1750   20.0420 C   0  0  0  0  0  0  0  0  0  0  0  0
    5.2860    1.0820   20.3680 C   0  0  0  0  0  0  0  0  0  0  0  0
    4.9430    1.2490   21.7110 C   0  0  0  0  0  0  0  0  0  0  0  0
    4.7440    1.7220   19.2000 C   0  0  0  0  0  0  0  0  0  0  0  0
    5.1170    1.5350   17.8730 C   0  0  0  0  0  0  0  0  0  0  0  0
    6.1730    0.5670   17.6740 N   0  0  0  0  0  0  0  0  0  0  0  0
    6.6840   -0.0350   18.7390 C   0  0  0  0  0  0  0  0  0  0  0  0
    7.6480   -0.9230   18.5170 F   0  0  0  0  0  0  0  0  0  0  0  0
   11.3240   -1.1390   22.6690 N   0  0  0  0  0  0  0  0  0  0  0  0
  1  2  1  0
  2  3  1  0
  3  4  2  0
  4  5  1  0
  5  6  1  0
  6  7  2  0
  7  8  1  0
  8  9  2  0
  6 10  1  0
  9 10  1  0
  5 11  2  0
 11 12  1  0
 12 13  1  0
 13 14  1  0
 14 15  2  0
 14 16  2  0
 14 17  1  0
 17 18  1  0
 18 19  2  0
 19 20  1  0
 19 21  1  0
 21 22  2  0
 22 23  1  0
 18 24  1  0
 23 24  2  0
 24 25  1  0
  3 26  1  0
 12 26  2  0
M  END
