AGN-NEW-c7b24fe3-1
     RDKit          3D

 19 20  0  0  0  0  0  0  0  0999 V2000
    6.9920    1.1570   17.7830 C   0  0  0  0  0  0  0  0  0  0  0  0
    7.1670   -0.0970   18.5770 C   0  0  0  0  0  0  0  0  0  0  0  0
    6.1360    0.0310   19.3180 C   0  0  0  0  0  0  0  0  0  0  0  0
    5.1890    0.7690   18.5590 N   0  0  0  0  0  0  0  0  0  0  0  0
    4.0160    1.0860   19.1290 C   0  0  0  0  0  0  0  0  0  0  0  0
    3.7010    0.7220   20.4110 C   0  0  0  0  0  0  0  0  0  0  0  0
    4.7600   -0.0900   21.2040 C   0  0  0  0  0  0  0  0  0  0  0  0
    6.1110   -0.4710   20.5940 C   0  0  0  0  0  0  0  0  0  0  0  0
    7.1660   -1.2230   21.2770 N   0  0  0  0  0  0  0  0  0  0  0  0
    8.2810   -0.3990   21.8010 C   0  0  0  0  0  0  0  0  0  0  0  0
    8.8250    0.5610   21.2640 O   0  0  0  0  0  0  0  0  0  0  0  0
    8.6450   -0.8610   23.0620 C   0  0  0  0  0  0  0  0  0  0  0  0
    9.9710   -1.2790   23.1670 C   0  0  0  0  0  0  0  0  0  0  0  0
   10.4390   -1.5940   24.4360 C   0  0  0  0  0  0  0  0  0  0  0  0
   11.7470   -2.0320   24.7060 C   0  0  0  0  0  0  0  0  0  0  0  0
   12.6580   -2.1560   23.5690 C   0  0  0  0  0  0  0  0  0  0  0  0
   12.1590   -1.8180   22.2040 C   0  0  0  0  0  0  0  0  0  0  0  0
   13.2370   -1.9740   20.9370 Cl  0  0  0  0  0  0  0  0  0  0  0  0
   10.8200   -1.3880   22.0520 C   0  0  0  0  0  0  0  0  0  0  0  0
  1  2  2  3
  2  3  1  0
  3  4  2  0
  4  5  1  0
  5  6  2  0
  6  7  1  0
  3  8  1  0
  7  8  2  0
  8  9  1  0
  9 10  1  0
 10 11  2  0
 10 12  1  0
 12 13  1  0
 13 14  2  0
 14 15  1  0
 15 16  2  0
 16 17  1  0
 17 18  1  0
 13 19  1  0
 17 19  2  0
M  END
