AGN-NEW-891393a6-2
     RDKit          3D

 18 19  0  0  0  0  0  0  0  0999 V2000
    8.7980    1.1820   21.2190 O   0  0  0  0  0  0  0  0  0  0  0  0
    8.3170    0.1130   21.6200 C   0  0  0  0  0  0  0  0  0  0  0  0
    7.2030   -0.5130   21.0930 N   0  0  0  0  0  0  0  0  0  0  0  0
    6.5000    0.0710   20.0370 C   0  0  0  0  0  0  0  0  0  0  0  0
    5.3230    0.7720   20.3160 C   0  0  0  0  0  0  0  0  0  0  0  0
    4.6200    1.3810   19.2800 C   0  0  0  0  0  0  0  0  0  0  0  0
    5.1240    1.2620   18.0020 C   0  0  0  0  0  0  0  0  0  0  0  0
    6.2430    0.5880   17.7090 N   0  0  0  0  0  0  0  0  0  0  0  0
    6.9060    0.0080   18.7260 C   0  0  0  0  0  0  0  0  0  0  0  0
    8.8700   -0.5650   22.6430 O   0  0  0  0  0  0  0  0  0  0  0  0
   10.1580   -0.1820   22.7740 C   0  0  0  0  0  0  0  0  0  0  0  0
   11.0940   -1.2030   22.9490 C   0  0  0  0  0  0  0  0  0  0  0  0
   12.4460   -0.8810   23.0780 C   0  0  0  0  0  0  0  0  0  0  0  0
   13.2260   -1.8180   23.2300 O   0  0  0  0  0  0  0  0  0  0  0  0
   12.8390    0.4610   23.0260 C   0  0  0  0  0  0  0  0  0  0  0  0
   11.8960    1.4820   22.8520 C   0  0  0  0  0  0  0  0  0  0  0  0
   12.3490    3.1440   22.7770 Cl  0  0  0  0  0  0  0  0  0  0  0  0
   10.5380    1.1740   22.7280 C   0  0  0  0  0  0  0  0  0  0  0  0
  1  2  2  0
  2  3  1  0
  3  4  1  0
  4  5  2  0
  5  6  1  0
  6  7  2  0
  7  8  1  0
  4  9  1  0
  8  9  2  0
  2 10  1  0
 10 11  1  0
 11 12  2  0
 12 13  1  0
 13 14  1  0
 13 15  2  0
 15 16  1  0
 16 17  1  0
 11 18  1  0
 16 18  2  0
M  END
