AGN-NEW-051944a9-3
     RDKit          3D

 33 35  0  0  0  0  0  0  0  0999 V2000
    7.1430   -2.2630   18.2320 C   0  0  0  0  0  0  0  0  0  0  0  0
    7.6500   -0.9750   18.7010 C   0  0  0  0  0  0  0  0  0  0  0  0
    6.6210   -0.0570   18.9360 C   0  0  0  0  0  0  0  0  0  0  0  0
    6.0680    0.6320   17.9020 N   0  0  0  0  0  0  0  0  0  0  0  0
    5.0690    1.4970   18.1150 C   0  0  0  0  0  0  0  0  0  0  0  0
    4.5940    1.6860   19.4010 C   0  0  0  0  0  0  0  0  0  0  0  0
    3.5560    2.5640   19.6390 C   0  0  0  0  0  0  0  0  0  0  0  0
    5.2110    0.9270   20.5570 C   0  0  0  0  0  0  0  0  0  0  0  0
    4.6640    1.1550   21.9510 C   0  0  0  0  0  0  0  0  0  0  0  0
    5.4030    2.3390   22.5220 C   0  0  0  0  0  0  0  0  0  0  0  0
    4.3020    3.2780   22.8000 N   0  0  0  0  0  0  0  0  0  0  0  0
    3.3900    3.0110   23.7890 C   0  0  0  0  0  0  0  0  0  0  0  0
    3.1810    1.6440   24.1480 O   0  0  0  0  0  0  0  0  0  0  0  0
    2.5980    3.9530   24.5740 C   0  0  0  0  0  0  0  0  0  0  0  0
    2.2120    5.1850   24.0820 N   0  0  0  0  0  0  0  0  0  0  0  0
    3.0090    6.0660   23.3430 C   0  0  0  0  0  0  0  0  0  0  0  0
    2.3320    7.4440   23.2190 C   0  0  0  0  0  0  0  0  0  0  0  0
    1.9460    8.0050   24.4080 N   0  0  0  0  0  0  0  0  0  0  0  0
    1.3640    7.1710   25.4030 C   0  0  0  0  0  0  0  0  0  0  0  0
    1.0920    5.7880   24.8190 C   0  0  0  0  0  0  0  0  0  0  0  0
    6.2490    0.0450   20.2710 C   0  0  0  0  0  0  0  0  0  0  0  0
    6.8720   -0.6960   21.2460 N   0  0  0  0  0  0  0  0  0  0  0  0
    8.0920   -0.3140   21.5890 C   0  0  0  0  0  0  0  0  0  0  0  0
    8.5010    0.9500   21.0760 O   0  0  0  0  0  0  0  0  0  0  0  0
    8.9440   -1.0510   22.3990 N   0  0  0  0  0  0  0  0  0  0  0  0
    8.3140   -1.4750   23.5300 C   0  0  0  0  0  0  0  0  0  0  0  0
   10.2990   -0.5120   22.6210 C   0  0  0  0  0  0  0  0  0  0  0  0
   10.5250    0.9630   22.6890 C   0  0  0  0  0  0  0  0  0  0  0  0
   11.9470    1.4330   22.8760 C   0  0  0  0  0  0  0  0  0  0  0  0
   12.2170    2.9590   22.9130 C   0  0  0  0  0  0  0  0  0  0  0  0
   12.9380    0.4810   22.9880 C   0  0  0  0  0  0  0  0  0  0  0  0
   12.6040   -0.8660   22.9230 C   0  0  0  0  0  0  0  0  0  0  0  0
   11.3490   -1.3660   22.7450 N   0  0  0  0  0  0  0  0  0  0  0  0
  1  2  3  0
  2  3  1  0
  3  4  2  0
  4  5  1  0
  5  6  2  0
  6  7  1  0
  6  8  1  0
  8  9  1  0
  9 10  1  0
 10 11  1  0
 11 12  1  0
 12 13  2  0
 12 14  1  0
 14 15  1  0
 15 16  1  0
 16 17  1  0
 17 18  1  0
 18 19  1  0
 15 20  1  0
 19 20  1  0
  3 21  1  0
  8 21  2  0
 21 22  1  0
 22 23  1  0
 23 24  2  0
 23 25  1  0
 25 26  1  0
 25 27  1  0
 27 28  2  0
 28 29  1  0
 29 30  1  0
 29 31  2  0
 31 32  1  0
 27 33  1  0
 32 33  2  0
M  END
