AGN-NEW-891393a6-6
     RDKit          3D

 25 27  0  0  0  0  0  0  0  0999 V2000
    8.6210   -2.3490   22.2280 O   0  0  0  0  0  0  0  0  0  0  0  0
    8.0910   -1.1130   22.7620 S   0  0  0  0  0  0  0  0  0  0  0  0
    7.1840   -1.0810   23.8920 O   0  0  0  0  0  0  0  0  0  0  0  0
    7.5070   -0.1600   21.4990 C   0  0  0  0  0  0  0  0  0  0  0  0
    6.2630   -0.4830   21.0820 C   0  0  0  0  0  0  0  0  0  0  0  0
    5.6420    0.2980   20.1390 C   0  0  0  0  0  0  0  0  0  0  0  0
    4.5080    1.1460   19.9360 C   0  0  0  0  0  0  0  0  0  0  0  0
    4.3390    1.7950   18.6330 C   0  0  0  0  0  0  0  0  0  0  0  0
    5.2810    1.5700   17.6200 C   0  0  0  0  0  0  0  0  0  0  0  0
    6.4690    0.6740   17.7990 N   0  0  0  0  0  0  0  0  0  0  0  0
    6.6470    0.0290   19.1030 C   0  0  0  0  0  0  0  0  0  0  0  0
    9.4100   -0.0540   23.1350 C   0  0  0  0  0  0  0  0  0  0  0  0
    9.4140    1.3170   23.3420 C   0  0  0  0  0  0  0  0  0  0  0  0
   10.7800    2.0000   23.6530 C   0  0  0  0  0  0  0  0  0  0  0  0
   11.8750    1.1880   23.7020 C   0  0  0  0  0  0  0  0  0  0  0  0
   11.6440   -0.1450   23.4790 C   0  0  0  0  0  0  0  0  0  0  0  0
   12.4500   -1.0760   23.4960 C   0  0  0  0  0  0  0  0  0  0  0  0
   13.0980   -1.3170   24.6260 C   0  0  0  0  0  0  0  0  0  0  0  0
   12.8990   -0.5690   25.6920 F   0  0  0  0  0  0  0  0  0  0  0  0
   13.9400   -2.3350   24.6340 C   0  0  0  0  0  0  0  0  0  0  0  0
   14.0610   -3.0110   23.4480 C   0  0  0  0  0  0  0  0  0  0  0  0
   13.3810   -2.7530   22.3190 C   0  0  0  0  0  0  0  0  0  0  0  0
   12.5460   -1.7710   22.3510 C   0  0  0  0  0  0  0  0  0  0  0  0
   11.8520   -1.5320   21.2790 F   0  0  0  0  0  0  0  0  0  0  0  0
   10.5020   -0.7290   23.2090 C   0  0  0  0  0  0  0  0  0  0  0  0
  1  2  2  0
  2  3  2  0
  2  4  1  0
  4  5  2  3
  5  6  1  0
  6  7  2  0
  7  8  1  0
  8  9  2  0
  9 10  1  0
  6 11  1  0
 10 11  2  0
  2 12  1  0
 12 13  2  0
 13 14  1  0
 14 15  2  0
 15 16  1  0
 16 17  1  0
 17 18  2  0
 18 19  1  0
 18 20  1  0
 20 21  2  0
 21 22  1  0
 17 23  1  0
 22 23  2  0
 23 24  1  0
 12 25  1  0
 16 25  2  0
M  END
