AGN-NEW-891393a6-10
     RDKit          3D

 23 25  0  0  0  0  0  0  0  0999 V2000
    7.3030   -0.6020   24.3240 O   0  0  0  0  0  0  0  0  0  0  0  0
    8.1410   -0.9460   23.1880 S   0  0  0  0  0  0  0  0  0  0  0  0
    8.4550   -2.3230   22.8530 O   0  0  0  0  0  0  0  0  0  0  0  0
    7.5800   -0.0890   21.8170 C   0  0  0  0  0  0  0  0  0  0  0  0
    6.3590   -0.4570   21.3150 C   0  0  0  0  0  0  0  0  0  0  0  0
    5.7600    0.2660   20.2970 C   0  0  0  0  0  0  0  0  0  0  0  0
    4.6180    1.1020   20.0270 C   0  0  0  0  0  0  0  0  0  0  0  0
    4.4450    1.6860   18.6890 C   0  0  0  0  0  0  0  0  0  0  0  0
    5.3920    1.4160   17.6930 C   0  0  0  0  0  0  0  0  0  0  0  0
    6.5850    0.5360   17.9270 N   0  0  0  0  0  0  0  0  0  0  0  0
    6.7660   -0.0440   19.2700 C   0  0  0  0  0  0  0  0  0  0  0  0
    9.6380   -0.0720   23.3380 C   0  0  0  0  0  0  0  0  0  0  0  0
    9.8370    1.2330   23.7730 C   0  0  0  0  0  0  0  0  0  0  0  0
   11.2970    1.8080   23.7950 C   0  0  0  0  0  0  0  0  0  0  0  0
   12.3460    1.0040   23.3900 C   0  0  0  0  0  0  0  0  0  0  0  0
   11.9870   -0.2620   23.0000 C   0  0  0  0  0  0  0  0  0  0  0  0
   12.5470   -1.3280   22.5780 C   0  0  0  0  0  0  0  0  0  0  0  0
   13.3460   -1.8980   23.4190 N   0  0  0  0  0  0  0  0  0  0  0  0
   13.8090   -2.9860   22.9380 C   0  0  0  0  0  0  0  0  0  0  0  0
   13.5040   -3.4890   21.6630 C   0  0  0  0  0  0  0  0  0  0  0  0
   12.6630   -2.8130   20.9110 C   0  0  0  0  0  0  0  0  0  0  0  0
   12.1750   -1.7230   21.3600 N   0  0  0  0  0  0  0  0  0  0  0  0
   10.6470   -0.8010   22.9680 C   0  0  0  0  0  0  0  0  0  0  0  0
  1  2  2  0
  2  3  2  0
  2  4  1  0
  4  5  2  3
  5  6  1  0
  6  7  2  0
  7  8  1  0
  8  9  2  0
  9 10  1  0
  6 11  1  0
 10 11  2  0
  2 12  1  0
 12 13  2  0
 13 14  1  0
 14 15  2  0
 15 16  1  0
 16 17  1  0
 17 18  2  0
 18 19  1  0
 19 20  2  0
 20 21  1  0
 17 22  1  0
 21 22  2  0
 12 23  1  0
 16 23  2  0
M  END
