AGN-NEW-9d245c51-2
     RDKit          3D

 39 42  0  0  0  0  0  0  0  0999 V2000
    7.0600   -2.2490   18.3520 C   0  0  0  0  0  0  0  0  0  0  0  0
    7.3220   -0.9870   18.4230 C   0  0  0  0  0  0  0  0  0  0  0  0
    6.3750   -0.0250   18.8340 C   0  0  0  0  0  0  0  0  0  0  0  0
    5.8140    0.6870   17.8470 N   0  0  0  0  0  0  0  0  0  0  0  0
    4.8980    1.5760   18.1910 C   0  0  0  0  0  0  0  0  0  0  0  0
    4.4880    1.7960   19.4900 C   0  0  0  0  0  0  0  0  0  0  0  0
    3.4210    2.8260   19.7180 C   0  0  0  0  0  0  0  0  0  0  0  0
    5.1020    1.0370   20.5120 C   0  0  0  0  0  0  0  0  0  0  0  0
    4.7050    1.2130   21.9480 C   0  0  0  0  0  0  0  0  0  0  0  0
    5.3680    2.3540   22.6820 C   0  0  0  0  0  0  0  0  0  0  0  0
    4.3430    3.2690   23.1240 N   0  0  0  0  0  0  0  0  0  0  0  0
    3.1900    2.9980   23.8160 C   0  0  0  0  0  0  0  0  0  0  0  0
    3.0110    1.8620   24.2670 O   0  0  0  0  0  0  0  0  0  0  0  0
    2.1970    4.1640   23.9980 C   0  0  0  0  0  0  0  0  0  0  0  0
    2.7830    5.4350   24.4710 N   0  0  0  0  0  0  0  0  0  0  0  0
    3.3550    5.3740   25.8230 C   0  0  0  0  0  0  0  0  0  0  0  0
    4.1390    6.6630   26.1750 C   0  0  0  0  0  0  0  0  0  0  0  0
    3.5090    7.9290   25.7670 N   0  0  0  0  0  0  0  0  0  0  0  0
    2.1150    7.7380   25.3280 C   0  0  0  0  0  0  0  0  0  0  0  0
    1.9160    6.6110   24.2870 C   0  0  0  0  0  0  0  0  0  0  0  0
    6.0820    0.1140   20.1650 C   0  0  0  0  0  0  0  0  0  0  0  0
    6.7600   -0.6690   21.1440 N   0  0  0  0  0  0  0  0  0  0  0  0
    8.0630   -0.3010   21.5240 C   0  0  0  0  0  0  0  0  0  0  0  0
    8.6190    0.7360   21.1610 O   0  0  0  0  0  0  0  0  0  0  0  0
    8.6510   -1.2440   22.3670 N   0  0  0  0  0  0  0  0  0  0  0  0
    8.1100   -2.5930   22.3880 C   0  0  0  0  0  0  0  0  0  0  0  0
    7.0460   -2.8730   23.2910 C   0  0  0  0  0  0  0  0  0  0  0  0
    6.7860   -4.3630   23.5810 C   0  0  0  0  0  0  0  0  0  0  0  0
    5.9160   -4.7380   24.6130 C   0  0  0  0  0  0  0  0  0  0  0  0
    6.1160   -3.9440   25.7770 O   0  0  0  0  0  0  0  0  0  0  0  0
    6.1980   -2.5380   25.5480 C   0  0  0  0  0  0  0  0  0  0  0  0
    7.1900   -2.1180   24.4600 C   0  0  0  0  0  0  0  0  0  0  0  0
   10.0540   -1.1930   22.6380 C   0  0  0  0  0  0  0  0  0  0  0  0
   10.5750   -0.7610   23.8240 C   0  0  0  0  0  0  0  0  0  0  0  0
   12.0300   -0.7790   23.9540 C   0  0  0  0  0  0  0  0  0  0  0  0
   12.4500   -0.3590   25.1430 C   0  0  0  0  0  0  0  0  0  0  0  0
   12.8610   -1.1800   22.9670 C   0  0  0  0  0  0  0  0  0  0  0  0
   12.2560   -1.5900   21.8320 C   0  0  0  0  0  0  0  0  0  0  0  0
   10.9060   -1.6030   21.6650 N   0  0  0  0  0  0  0  0  0  0  0  0
  1  2  2  3
  2  3  1  0
  3  4  2  0
  4  5  1  0
  5  6  2  0
  6  7  1  0
  6  8  1  0
  8  9  1  0
  9 10  1  0
 10 11  1  0
 11 12  1  0
 12 13  2  0
 12 14  1  0
 14 15  1  0
 15 16  1  0
 16 17  1  0
 17 18  1  0
 18 19  1  0
 15 20  1  0
 19 20  1  0
  3 21  1  0
  8 21  2  0
 21 22  1  0
 22 23  1  0
 23 24  2  0
 23 25  1  0
 25 26  1  0
 26 27  1  0
 27 28  1  0
 28 29  1  0
 29 30  1  0
 30 31  1  0
 27 32  1  0
 31 32  1  0
 25 33  1  0
 33 34  2  0
 34 35  1  0
 35 36  1  0
 35 37  2  0
 37 38  1  0
 33 39  1  0
 38 39  2  0
M  END
