AGN-NEW-891393a6-11
     RDKit          3D

 25 27  0  0  0  0  0  0  0  0999 V2000
    9.1450   -1.1870   21.5040 C   0  0  0  0  0  0  0  0  0  0  0  0
   10.1860   -0.2130   21.6320 O   0  0  0  0  0  0  0  0  0  0  0  0
   10.9690   -0.5000   22.7220 C   0  0  0  0  0  0  0  0  0  0  0  0
   10.8670    0.1820   23.9430 C   0  0  0  0  0  0  0  0  0  0  0  0
   11.7790   -0.2890   25.0120 C   0  0  0  0  0  0  0  0  0  0  0  0
   12.7310   -1.3920   24.7770 C   0  0  0  0  0  0  0  0  0  0  0  0
   13.7550   -1.9780   26.0510 S   0  0  0  0  0  0  0  0  0  0  0  0
   13.1890   -3.2430   25.7190 O   0  0  0  0  0  0  0  0  0  0  0  0
   13.3770   -0.5890   26.2210 O   0  0  0  0  0  0  0  0  0  0  0  0
   15.2330   -2.2080   25.7070 C   0  0  0  0  0  0  0  0  0  0  0  0
   16.6550   -1.7600   26.1250 C   0  0  0  0  0  0  0  0  0  0  0  0
   18.3740   -1.7820   25.7860 C   0  0  0  0  0  0  0  0  0  0  0  0
   19.0320   -1.3990   24.5060 C   0  0  0  0  0  0  0  0  0  0  0  0
   20.5420   -1.3870   24.2160 C   0  0  0  0  0  0  0  0  0  0  0  0
   21.3870   -1.7440   25.1770 C   0  0  0  0  0  0  0  0  0  0  0  0
   20.9250   -2.0890   26.3480 N   0  0  0  0  0  0  0  0  0  0  0  0
   19.5780   -2.0960   26.5990 C   0  0  0  0  0  0  0  0  0  0  0  0
   12.7470   -1.9250   23.6260 C   0  0  0  0  0  0  0  0  0  0  0  0
   11.9400   -1.5450   22.6490 C   0  0  0  0  0  0  0  0  0  0  0  0
   12.2730   -2.3550   21.7140 C   0  0  0  0  0  0  0  0  0  0  0  0
   13.4240   -2.9310   21.8710 N   0  0  0  0  0  0  0  0  0  0  0  0
   13.8350   -3.7570   20.9100 C   0  0  0  0  0  0  0  0  0  0  0  0
   13.1560   -4.0060   19.8700 C   0  0  0  0  0  0  0  0  0  0  0  0
   11.9570   -3.3620   19.9130 C   0  0  0  0  0  0  0  0  0  0  0  0
   11.4970   -2.5330   20.7970 N   0  0  0  0  0  0  0  0  0  0  0  0
  1  2  1  0
  2  3  1  0
  3  4  2  0
  4  5  1  0
  5  6  2  0
  6  7  1  0
  7  8  2  0
  7  9  2  0
  7 10  1  0
 10 11  2  3
 11 12  1  0
 12 13  2  0
 13 14  1  0
 14 15  2  0
 15 16  1  0
 12 17  1  0
 16 17  2  0
  6 18  1  0
  3 19  1  0
 18 19  2  0
 19 20  1  0
 20 21  2  0
 21 22  1  0
 22 23  2  0
 23 24  1  0
 20 25  1  0
 24 25  2  0
M  END
