AGN-NEW-817c14da-6
     RDKit          3D

 30 32  0  0  0  0  0  0  0  0999 V2000
    7.5660    4.8320   23.0100 C   0  0  0  0  0  0  0  0  0  0  0  0
    8.5830    3.9390   23.6740 C   0  0  0  0  0  0  0  0  0  0  0  0
    7.9110    2.8890   24.5140 C   0  0  0  0  0  0  0  0  0  0  0  0
    7.0990    3.1510   25.7870 C   0  0  0  0  0  0  0  0  0  0  0  0
    6.5550    1.9130   26.4120 C   0  0  0  0  0  0  0  0  0  0  0  0
    6.7710    0.6660   25.8830 C   0  0  0  0  0  0  0  0  0  0  0  0
    7.5830    0.5320   24.6290 C   0  0  0  0  0  0  0  0  0  0  0  0
    7.8490   -0.7270   24.0220 C   0  0  0  0  0  0  0  0  0  0  0  0
    8.6780   -0.5970   22.8160 N   0  0  0  0  0  0  0  0  0  0  0  0
    8.0450   -0.1040   21.6920 C   0  0  0  0  0  0  0  0  0  0  0  0
    8.5630    0.8210   21.0660 O   0  0  0  0  0  0  0  0  0  0  0  0
    6.8620   -0.6150   21.2840 N   0  0  0  0  0  0  0  0  0  0  0  0
    6.2080    0.0240   20.2160 C   0  0  0  0  0  0  0  0  0  0  0  0
    5.1320    1.0350   20.5010 C   0  0  0  0  0  0  0  0  0  0  0  0
    4.8100    1.2630   21.9680 C   0  0  0  0  0  0  0  0  0  0  0  0
    4.5160    1.6890   19.4420 C   0  0  0  0  0  0  0  0  0  0  0  0
    5.0040    1.3090   18.0460 C   0  0  0  0  0  0  0  0  0  0  0  0
    5.9570    0.3900   17.8310 N   0  0  0  0  0  0  0  0  0  0  0  0
    6.5250   -0.2250   18.9060 C   0  0  0  0  0  0  0  0  0  0  0  0
    7.4690   -1.1470   18.6070 C   0  0  0  0  0  0  0  0  0  0  0  0
   10.0040   -0.2020   23.0330 C   0  0  0  0  0  0  0  0  0  0  0  0
   10.2350    1.0190   23.5380 N   0  0  0  0  0  0  0  0  0  0  0  0
   11.5020    1.3890   23.7090 C   0  0  0  0  0  0  0  0  0  0  0  0
   12.5620    0.5760   23.3990 C   0  0  0  0  0  0  0  0  0  0  0  0
   12.2270   -0.6610   22.9010 C   0  0  0  0  0  0  0  0  0  0  0  0
   13.2440   -1.6510   22.5440 C   0  0  0  0  0  0  0  0  0  0  0  0
   13.4430   -2.6160   23.7070 C   0  0  0  0  0  0  0  0  0  0  0  0
   12.9680   -2.3130   21.2090 C   0  0  0  0  0  0  0  0  0  0  0  0
   10.9780   -1.0440   22.7160 N   0  0  0  0  0  0  0  0  0  0  0  0
    8.1050    1.6370   24.0130 N   0  0  0  0  0  0  0  0  0  0  0  0
  1  2  3  0
  2  3  1  0
  3  4  2  0
  4  5  1  0
  5  6  2  0
  6  7  1  0
  7  8  1  0
  8  9  1  0
  9 10  1  0
 10 11  2  0
 10 12  1  0
 12 13  1  0
 13 14  2  0
 14 15  1  0
 14 16  1  0
 16 17  2  0
 17 18  1  0
 13 19  1  0
 18 19  2  0
 19 20  1  0
  9 21  1  0
 21 22  2  0
 22 23  1  0
 23 24  2  0
 24 25  1  0
 25 26  1  0
 26 27  1  0
 26 28  1  0
 21 29  1  0
 25 29  2  0
  3 30  1  0
  7 30  2  0
M  END
