AGN-NEW-9315dc74-5
     RDKit          3D

 21 22  0  0  0  0  0  0  0  0999 V2000
    4.9230    0.9870   21.7330 C   0  0  0  0  0  0  0  0  0  0  0  0
    5.3990    0.8140   20.4290 C   0  0  0  0  0  0  0  0  0  0  0  0
    4.7690    1.4860   19.3640 C   0  0  0  0  0  0  0  0  0  0  0  0
    5.2360    1.3300   18.0550 C   0  0  0  0  0  0  0  0  0  0  0  0
    6.2810    0.5520   17.7340 N   0  0  0  0  0  0  0  0  0  0  0  0
    6.8930   -0.1000   18.7440 C   0  0  0  0  0  0  0  0  0  0  0  0
    6.4990   -0.0110   20.1380 C   0  0  0  0  0  0  0  0  0  0  0  0
    7.2250   -0.7410   21.1570 N   0  0  0  0  0  0  0  0  0  0  0  0
    6.4160   -1.9960   21.9870 S   0  0  0  0  0  0  0  0  0  0  0  0
    7.4790   -2.9240   22.3310 O   0  0  0  0  0  0  0  0  0  0  0  0
    5.3240   -2.4610   21.1540 O   0  0  0  0  0  0  0  0  0  0  0  0
    5.8300   -1.3320   23.4710 C   0  0  0  0  0  0  0  0  0  0  0  0
    5.1140   -2.0710   24.4180 C   0  0  0  0  0  0  0  0  0  0  0  0
    4.5750   -1.7250   25.6410 N   0  0  0  0  0  0  0  0  0  0  0  0
    3.4100   -0.9920   25.8460 C   0  0  0  0  0  0  0  0  0  0  0  0
    3.3410    0.2310   25.9270 O   0  0  0  0  0  0  0  0  0  0  0  0
    2.2830   -1.8140   25.9530 C   0  0  0  0  0  0  0  0  0  0  0  0
    2.1060   -3.0530   25.3660 C   0  0  0  0  0  0  0  0  0  0  0  0
    0.9260   -3.7050   25.5860 C   0  0  0  0  0  0  0  0  0  0  0  0
    0.1290   -2.9080   26.4070 C   0  0  0  0  0  0  0  0  0  0  0  0
    0.8650   -1.4140   26.8620 S   0  0  0  0  0  0  0  0  0  0  0  0
  1  2  1  0
  2  3  2  0
  3  4  1  0
  4  5  2  0
  5  6  1  0
  2  7  1  0
  6  7  2  0
  7  8  1  0
  8  9  1  0
  9 10  2  0
  9 11  2  0
  9 12  1  0
 12 13  2  3
 13 14  1  0
 14 15  1  0
 15 16  2  0
 15 17  1  0
 17 18  2  0
 18 19  1  0
 19 20  2  0
 17 21  1  0
 20 21  1  0
M  END
