AGN-NEW-c7b24fe3-5
     RDKit          3D

 19 20  0  0  0  0  0  0  0  0999 V2000
    7.7170   -1.8420   18.3760 C   0  0  0  0  0  0  0  0  0  0  0  0
    6.2930   -1.6030   18.4560 C   0  0  0  0  0  0  0  0  0  0  0  0
    6.0000   -0.3270   18.8300 C   0  0  0  0  0  0  0  0  0  0  0  0
    5.4800    0.3690   17.7840 N   0  0  0  0  0  0  0  0  0  0  0  0
    5.0510    1.7170   17.9700 C   0  0  0  0  0  0  0  0  0  0  0  0
    5.2530    2.2110   19.3560 C   0  0  0  0  0  0  0  0  0  0  0  0
    5.8200    1.4490   20.3720 C   0  0  0  0  0  0  0  0  0  0  0  0
    6.2200    0.1370   20.1210 C   0  0  0  0  0  0  0  0  0  0  0  0
    6.7850   -0.6600   21.0520 N   0  0  0  0  0  0  0  0  0  0  0  0
    8.0790   -0.3520   21.4020 C   0  0  0  0  0  0  0  0  0  0  0  0
    8.6300    0.7290   21.1750 O   0  0  0  0  0  0  0  0  0  0  0  0
    8.7900   -1.4800   22.1180 C   0  0  0  0  0  0  0  0  0  0  0  0
    7.9850   -2.0630   23.1050 C   0  0  0  0  0  0  0  0  0  0  0  0
    7.5300   -1.3220   24.1940 C   0  0  0  0  0  0  0  0  0  0  0  0
    6.7190   -1.9030   25.1760 C   0  0  0  0  0  0  0  0  0  0  0  0
    6.3560   -3.2410   25.0630 C   0  0  0  0  0  0  0  0  0  0  0  0
    6.8160   -3.9730   23.9700 C   0  0  0  0  0  0  0  0  0  0  0  0
    6.3830   -5.6210   23.7940 Cl  0  0  0  0  0  0  0  0  0  0  0  0
    7.6140   -3.3980   23.0170 C   0  0  0  0  0  0  0  0  0  0  0  0
  1  2  3  0
  2  3  1  0
  3  4  2  0
  4  5  1  0
  5  6  2  0
  6  7  1  0
  3  8  1  0
  7  8  2  0
  8  9  1  0
  9 10  1  0
 10 11  2  0
 10 12  1  0
 12 13  1  0
 13 14  2  0
 14 15  1  0
 15 16  2  0
 16 17  1  0
 17 18  1  0
 13 19  1  0
 17 19  2  0
M  END
