AGN-NEW-891393a6-4
     RDKit          3D

 20 21  0  0  0  0  0  0  0  0999 V2000
   13.2880   -1.7160   21.3970 C   0  0  0  0  0  0  0  0  0  0  0  0
   13.3890   -0.6200   22.3060 O   0  0  0  0  0  0  0  0  0  0  0  0
   12.1960   -0.5910   23.0500 C   0  0  0  0  0  0  0  0  0  0  0  0
   11.8530   -0.1170   24.4120 C   0  0  0  0  0  0  0  0  0  0  0  0
   10.3740   -0.2680   24.9290 C   0  0  0  0  0  0  0  0  0  0  0  0
    9.6120    0.1340   26.4320 Cl  0  0  0  0  0  0  0  0  0  0  0  0
    9.4990   -0.8180   24.0870 C   0  0  0  0  0  0  0  0  0  0  0  0
    9.8440   -1.2430   22.8460 C   0  0  0  0  0  0  0  0  0  0  0  0
    8.8320   -1.8000   22.1080 C   0  0  0  0  0  0  0  0  0  0  0  0
    8.2070   -0.6250   21.0770 S   0  0  0  0  0  0  0  0  0  0  0  0
    8.8820    0.6260   21.3310 O   0  0  0  0  0  0  0  0  0  0  0  0
    8.1680   -1.2180   19.7920 O   0  0  0  0  0  0  0  0  0  0  0  0
    6.5780   -0.4270   21.3130 N   0  0  0  0  0  0  0  0  0  0  0  0
    6.0410    0.2090   20.2380 C   0  0  0  0  0  0  0  0  0  0  0  0
    4.7790    1.0310   20.2350 C   0  0  0  0  0  0  0  0  0  0  0  0
    4.3670    1.6720   18.9510 C   0  0  0  0  0  0  0  0  0  0  0  0
    5.1130    1.5190   17.7950 C   0  0  0  0  0  0  0  0  0  0  0  0
    6.2320    0.7810   17.7720 N   0  0  0  0  0  0  0  0  0  0  0  0
    6.6910    0.1290   18.9950 C   0  0  0  0  0  0  0  0  0  0  0  0
   11.1320   -1.1400   22.3370 C   0  0  0  0  0  0  0  0  0  0  0  0
  1  2  1  0
  2  3  1  0
  3  4  2  0
  4  5  1  0
  5  6  1  0
  5  7  2  0
  7  8  1  0
  8  9  1  0
  9 10  1  0
 10 11  2  0
 10 12  2  0
 10 13  1  0
 13 14  1  0
 14 15  2  0
 15 16  1  0
 16 17  2  0
 17 18  1  0
 14 19  1  0
 18 19  2  0
  3 20  1  0
  8 20  2  0
M  END
