AGN-NEW-9315dc74-4
     RDKit          3D

 22 23  0  0  0  0  0  0  0  0999 V2000
    4.9150    1.2640   21.7110 C   0  0  0  0  0  0  0  0  0  0  0  0
    5.3430    1.0040   20.4020 C   0  0  0  0  0  0  0  0  0  0  0  0
    4.7470    1.6740   19.3210 C   0  0  0  0  0  0  0  0  0  0  0  0
    5.1750    1.4170   18.0110 C   0  0  0  0  0  0  0  0  0  0  0  0
    6.1410    0.5410   17.7090 N   0  0  0  0  0  0  0  0  0  0  0  0
    6.7080   -0.1010   18.7370 C   0  0  0  0  0  0  0  0  0  0  0  0
    7.6650   -0.9840   18.4460 F   0  0  0  0  0  0  0  0  0  0  0  0
    6.3590    0.0850   20.1200 C   0  0  0  0  0  0  0  0  0  0  0  0
    7.0420   -0.6620   21.1360 N   0  0  0  0  0  0  0  0  0  0  0  0
    8.4480    0.0280   21.8080 S   0  0  0  0  0  0  0  0  0  0  0  0
    8.6840    1.2760   21.0870 O   0  0  0  0  0  0  0  0  0  0  0  0
    9.4740   -0.9970   21.8030 O   0  0  0  0  0  0  0  0  0  0  0  0
    7.9880    0.3890   23.4380 C   0  0  0  0  0  0  0  0  0  0  0  0
    7.9970   -0.6260   24.4040 C   0  0  0  0  0  0  0  0  0  0  0  0
    7.6600   -0.5030   25.7370 N   0  0  0  0  0  0  0  0  0  0  0  0
    6.4720   -0.0380   26.2870 C   0  0  0  0  0  0  0  0  0  0  0  0
    6.2790    1.0990   26.7070 O   0  0  0  0  0  0  0  0  0  0  0  0
    5.4740   -1.0280   26.3230 C   0  0  0  0  0  0  0  0  0  0  0  0
    5.8110   -2.3470   26.6780 C   0  0  0  0  0  0  0  0  0  0  0  0
    5.0930   -2.7850   27.7720 C   0  0  0  0  0  0  0  0  0  0  0  0
    4.2470   -1.7790   28.1750 C   0  0  0  0  0  0  0  0  0  0  0  0
    4.3790   -0.6380   27.3600 C   0  0  0  0  0  0  0  0  0  0  0  0
  1  2  1  0
  2  3  2  0
  3  4  1  0
  4  5  2  0
  5  6  1  0
  6  7  1  0
  2  8  1  0
  6  8  2  0
  8  9  1  0
  9 10  1  0
 10 11  2  0
 10 12  2  0
 10 13  1  0
 13 14  2  3
 14 15  1  0
 15 16  1  0
 16 17  2  0
 16 18  1  0
 18 19  1  0
 19 20  1  0
 20 21  1  0
 18 22  1  0
 21 22  1  0
M  END
