AGN-NEW-95323f67-2
     RDKit          3D

 20 20  0  0  0  0  0  0  0  0999 V2000
    3.9240    0.6060   21.4710 C   0  0  0  0  0  0  0  0  0  0  0  0
    4.8200    0.5800   20.2010 C   0  0  0  0  0  0  0  0  0  0  0  0
    4.4500    1.3780   19.1190 C   0  0  0  0  0  0  0  0  0  0  0  0
    5.1550    1.4360   17.9380 C   0  0  0  0  0  0  0  0  0  0  0  0
    6.2670    0.7000   17.7510 N   0  0  0  0  0  0  0  0  0  0  0  0
    6.6430   -0.0740   18.7680 C   0  0  0  0  0  0  0  0  0  0  0  0
    7.7260   -0.8100   18.5830 F   0  0  0  0  0  0  0  0  0  0  0  0
    5.9700   -0.2190   20.1170 C   0  0  0  0  0  0  0  0  0  0  0  0
    6.6410   -1.1050   20.9340 N   0  0  0  0  0  0  0  0  0  0  0  0
    6.5500   -1.0200   22.6450 S   0  0  0  0  0  0  0  0  0  0  0  0
    7.8750   -0.6700   23.1160 O   0  0  0  0  0  0  0  0  0  0  0  0
    5.4100   -0.1840   22.9350 O   0  0  0  0  0  0  0  0  0  0  0  0
    6.1590   -2.6340   23.1280 C   0  0  0  0  0  0  0  0  0  0  0  0
    6.5960   -3.2510   24.3020 C   0  0  0  0  0  0  0  0  0  0  0  0
    6.1260   -4.6440   24.4650 N   0  0  0  0  0  0  0  0  0  0  0  0
    6.6540   -5.6950   23.6650 C   0  0  0  0  0  0  0  0  0  0  0  0
    7.8430   -5.9680   23.6880 O   0  0  0  0  0  0  0  0  0  0  0  0
    5.7990   -6.4130   22.8500 C   0  0  0  0  0  0  0  0  0  0  0  0
    5.6880   -5.9310   21.5520 C   0  0  0  0  0  0  0  0  0  0  0  0
    4.4000   -6.4220   23.4720 C   0  0  0  0  0  0  0  0  0  0  0  0
  1  2  1  0
  2  3  2  0
  3  4  1  0
  4  5  2  0
  5  6  1  0
  6  7  1  0
  2  8  1  0
  6  8  2  0
  8  9  1  0
  9 10  1  0
 10 11  2  0
 10 12  2  0
 10 13  1  0
 13 14  2  3
 14 15  1  0
 15 16  1  0
 16 17  2  0
 16 18  1  0
 18 19  1  0
 18 20  1  0
M  END
