AGN-NEW-817c14da-2
     RDKit          3D

 36 39  0  0  0  0  0  0  0  0999 V2000
    5.3710   -5.8280   26.8820 C   0  0  0  0  0  0  0  0  0  0  0  0
    5.3720   -5.3550   25.4550 C   0  0  0  0  0  0  0  0  0  0  0  0
    6.0020   -4.1360   25.1680 C   0  0  0  0  0  0  0  0  0  0  0  0
    6.0030   -3.0890   26.0660 C   0  0  0  0  0  0  0  0  0  0  0  0
    6.6030   -1.8840   25.8380 C   0  0  0  0  0  0  0  0  0  0  0  0
    7.2470   -1.7230   24.6180 C   0  0  0  0  0  0  0  0  0  0  0  0
    7.2500   -2.8430   23.6540 C   0  0  0  0  0  0  0  0  0  0  0  0
    7.8530   -2.7790   22.4350 C   0  0  0  0  0  0  0  0  0  0  0  0
    8.5960   -1.5300   22.2280 N   0  0  0  0  0  0  0  0  0  0  0  0
    8.0030   -0.4970   21.5120 C   0  0  0  0  0  0  0  0  0  0  0  0
    8.5960    0.5550   21.2310 O   0  0  0  0  0  0  0  0  0  0  0  0
    6.7250   -0.6150   21.0910 N   0  0  0  0  0  0  0  0  0  0  0  0
    6.0400    0.1590   20.1250 C   0  0  0  0  0  0  0  0  0  0  0  0
    5.0340    1.1690   20.3840 C   0  0  0  0  0  0  0  0  0  0  0  0
    4.6070    1.4600   21.6860 C   0  0  0  0  0  0  0  0  0  0  0  0
    3.3750    2.2790   21.8850 N   0  0  0  0  0  0  0  0  0  0  0  0
    2.1740    1.5590   22.2830 C   0  0  0  0  0  0  0  0  0  0  0  0
    2.3690    0.9130   23.5040 C   0  0  0  0  0  0  0  0  0  0  0  0
    3.1300    1.7960   24.4820 C   0  0  0  0  0  0  0  0  0  0  0  0
    2.9680    3.2190   23.9530 C   0  0  0  0  0  0  0  0  0  0  0  0
    3.5970    3.4510   22.7340 C   0  0  0  0  0  0  0  0  0  0  0  0
    4.5060    1.8460   19.2880 C   0  0  0  0  0  0  0  0  0  0  0  0
    4.9620    1.5260   18.0020 C   0  0  0  0  0  0  0  0  0  0  0  0
    5.8750    0.5790   17.7480 N   0  0  0  0  0  0  0  0  0  0  0  0
    6.3790   -0.0750   18.8110 C   0  0  0  0  0  0  0  0  0  0  0  0
    7.3790   -1.1430   18.5130 C   0  0  0  0  0  0  0  0  0  0  0  0
    9.8090   -1.4300   22.8820 C   0  0  0  0  0  0  0  0  0  0  0  0
    9.7650   -1.3650   24.1980 N   0  0  0  0  0  0  0  0  0  0  0  0
   10.9130   -1.2820   24.8230 C   0  0  0  0  0  0  0  0  0  0  0  0
   12.1190   -1.2520   24.2230 C   0  0  0  0  0  0  0  0  0  0  0  0
   12.0410   -1.3270   22.8840 C   0  0  0  0  0  0  0  0  0  0  0  0
   13.2760   -1.2880   22.2440 C   0  0  0  0  0  0  0  0  0  0  0  0
   13.3930    0.1830   22.2170 C   0  0  0  0  0  0  0  0  0  0  0  0
   13.2140   -1.8870   20.8790 C   0  0  0  0  0  0  0  0  0  0  0  0
   10.9290   -1.4130   22.1760 N   0  0  0  0  0  0  0  0  0  0  0  0
    6.6200   -4.0350   23.9560 N   0  0  0  0  0  0  0  0  0  0  0  0
  1  2  3  0
  2  3  1  0
  3  4  2  0
  4  5  1  0
  5  6  2  0
  6  7  1  0
  7  8  1  0
  8  9  1  0
  9 10  1  0
 10 11  2  0
 10 12  1  0
 12 13  1  0
 13 14  1  0
 14 15  1  0
 15 16  1  0
 16 17  1  0
 17 18  1  0
 18 19  1  0
 19 20  1  0
 16 21  1  0
 20 21  1  0
 14 22  2  0
 22 23  1  0
 23 24  2  0
 13 25  2  0
 24 25  1  0
 25 26  1  0
  9 27  1  0
 27 28  2  0
 28 29  1  0
 29 30  2  0
 30 31  1  0
 31 32  1  0
 32 33  1  0
 32 34  1  0
 27 35  1  0
 31 35  2  0
  3 36  1  0
  7 36  2  0
M  END
