AGN-NEW-817c14da-1
     RDKit          3D

 36 39  0  0  0  0  0  0  0  0999 V2000
    5.7240   -2.6990   28.3640 C   0  0  0  0  0  0  0  0  0  0  0  0
    5.9420   -1.2160   28.2870 C   0  0  0  0  0  0  0  0  0  0  0  0
    7.0050   -0.7500   27.4990 C   0  0  0  0  0  0  0  0  0  0  0  0
    8.2140   -0.4180   28.0520 C   0  0  0  0  0  0  0  0  0  0  0  0
    9.2780    0.0290   27.3290 C   0  0  0  0  0  0  0  0  0  0  0  0
    9.1230    0.1620   25.9640 C   0  0  0  0  0  0  0  0  0  0  0  0
    7.8230   -0.1870   25.3590 C   0  0  0  0  0  0  0  0  0  0  0  0
    7.5310   -0.0820   24.0300 C   0  0  0  0  0  0  0  0  0  0  0  0
    8.5300   -0.5710   23.0480 N   0  0  0  0  0  0  0  0  0  0  0  0
    8.1100   -0.2330   21.7550 C   0  0  0  0  0  0  0  0  0  0  0  0
    8.7950    0.5410   21.0960 O   0  0  0  0  0  0  0  0  0  0  0  0
    6.9540   -0.6200   21.1650 N   0  0  0  0  0  0  0  0  0  0  0  0
    6.2200    0.1320   20.1830 C   0  0  0  0  0  0  0  0  0  0  0  0
    5.2410    1.1830   20.4550 C   0  0  0  0  0  0  0  0  0  0  0  0
    4.8830    1.5780   21.7450 C   0  0  0  0  0  0  0  0  0  0  0  0
    3.9470    2.7360   21.9200 N   0  0  0  0  0  0  0  0  0  0  0  0
    3.5110    3.0120   23.2840 C   0  0  0  0  0  0  0  0  0  0  0  0
    3.4500    4.3870   23.5070 C   0  0  0  0  0  0  0  0  0  0  0  0
    4.6110    4.7950   23.5840 O   0  0  0  0  0  0  0  0  0  0  0  0
    5.2470    4.6860   22.3020 C   0  0  0  0  0  0  0  0  0  0  0  0
    4.3650    3.8900   21.3420 C   0  0  0  0  0  0  0  0  0  0  0  0
    4.6610    1.8110   19.3520 C   0  0  0  0  0  0  0  0  0  0  0  0
    5.0100    1.4450   18.0670 C   0  0  0  0  0  0  0  0  0  0  0  0
    5.9760    0.3940   17.7590 N   0  0  0  0  0  0  0  0  0  0  0  0
    6.4990   -0.1800   18.8530 C   0  0  0  0  0  0  0  0  0  0  0  0
    7.4050   -1.1790   18.6000 C   0  0  0  0  0  0  0  0  0  0  0  0
    9.9280   -0.1380   23.1970 C   0  0  0  0  0  0  0  0  0  0  0  0
   10.1910    1.1090   23.6110 N   0  0  0  0  0  0  0  0  0  0  0  0
   11.4690    1.4880   23.7030 C   0  0  0  0  0  0  0  0  0  0  0  0
   12.5150    0.6470   23.3920 C   0  0  0  0  0  0  0  0  0  0  0  0
   12.1800   -0.6260   22.9840 C   0  0  0  0  0  0  0  0  0  0  0  0
   13.1590   -1.5310   22.6740 C   0  0  0  0  0  0  0  0  0  0  0  0
   13.4180   -2.5750   23.7220 C   0  0  0  0  0  0  0  0  0  0  0  0
   12.9420   -2.1680   21.2980 C   0  0  0  0  0  0  0  0  0  0  0  0
   10.9050   -1.0150   22.8800 N   0  0  0  0  0  0  0  0  0  0  0  0
    6.7850   -0.6440   26.1590 N   0  0  0  0  0  0  0  0  0  0  0  0
  1  2  3  0
  2  3  1  0
  3  4  2  0
  4  5  1  0
  5  6  2  0
  6  7  1  0
  7  8  1  0
  8  9  1  0
  9 10  1  0
 10 11  2  0
 10 12  1  0
 12 13  1  0
 13 14  1  0
 14 15  1  0
 15 16  1  0
 16 17  1  0
 17 18  1  0
 18 19  1  0
 19 20  1  0
 16 21  1  0
 20 21  1  0
 14 22  2  0
 22 23  1  0
 23 24  2  0
 13 25  2  0
 24 25  1  0
 25 26  1  0
  9 27  1  0
 27 28  2  0
 28 29  1  0
 29 30  2  0
 30 31  1  0
 31 32  1  0
 32 33  1  0
 32 34  1  0
 27 35  1  0
 31 35  2  0
  3 36  1  0
  7 36  2  0
M  END
