AGN-NEW-c7b24fe3-6
     RDKit          3D

 19 20  0  0  0  0  0  0  0  0999 V2000
    7.3050   -2.1240   18.2830 C   0  0  0  0  0  0  0  0  0  0  0  0
    7.6160   -0.9370   18.7250 C   0  0  0  0  0  0  0  0  0  0  0  0
    6.5970    0.0210   18.9970 C   0  0  0  0  0  0  0  0  0  0  0  0
    6.0430    0.5680   17.8940 N   0  0  0  0  0  0  0  0  0  0  0  0
    5.0680    1.4630   18.0740 C   0  0  0  0  0  0  0  0  0  0  0  0
    4.6390    1.8050   19.3450 C   0  0  0  0  0  0  0  0  0  0  0  0
    5.2350    1.2250   20.4690 C   0  0  0  0  0  0  0  0  0  0  0  0
    6.2580    0.3010   20.3040 C   0  0  0  0  0  0  0  0  0  0  0  0
    6.9650   -0.3530   21.3600 N   0  0  0  0  0  0  0  0  0  0  0  0
    8.2660   -0.0320   21.7500 C   0  0  0  0  0  0  0  0  0  0  0  0
    8.9140    0.9140   21.2950 O   0  0  0  0  0  0  0  0  0  0  0  0
    8.9110   -0.9210   22.8260 C   0  0  0  0  0  0  0  0  0  0  0  0
    8.0820   -2.0710   23.3670 C   0  0  0  0  0  0  0  0  0  0  0  0
    8.1410   -3.3000   22.7300 C   0  0  0  0  0  0  0  0  0  0  0  0
    7.3960   -4.3850   23.1980 C   0  0  0  0  0  0  0  0  0  0  0  0
    6.5840   -4.2410   24.3170 C   0  0  0  0  0  0  0  0  0  0  0  0
    6.5100   -3.0130   24.9820 C   0  0  0  0  0  0  0  0  0  0  0  0
    5.6330   -2.8800   26.1930 C   0  0  0  0  0  0  0  0  0  0  0  0
    7.2620   -1.9290   24.5010 C   0  0  0  0  0  0  0  0  0  0  0  0
  1  2  3  0
  2  3  1  0
  3  4  2  0
  4  5  1  0
  5  6  2  0
  6  7  1  0
  3  8  1  0
  7  8  2  0
  8  9  1  0
  9 10  1  0
 10 11  2  0
 10 12  1  0
 12 13  1  0
 13 14  2  0
 14 15  1  0
 15 16  2  0
 16 17  1  0
 17 18  1  0
 13 19  1  0
 17 19  2  0
M  END
