AGN-NEW-9315dc74-3
     RDKit          3D

 20 20  0  0  0  0  0  0  0  0999 V2000
    4.6240    1.9080   21.6180 C   0  0  0  0  0  0  0  0  0  0  0  0
    5.2320    1.3300   20.3440 C   0  0  0  0  0  0  0  0  0  0  0  0
    4.7320    1.7700   19.1220 C   0  0  0  0  0  0  0  0  0  0  0  0
    5.2480    1.2790   17.9310 C   0  0  0  0  0  0  0  0  0  0  0  0
    6.2290    0.3700   17.8570 N   0  0  0  0  0  0  0  0  0  0  0  0
    6.7350   -0.0840   19.0240 C   0  0  0  0  0  0  0  0  0  0  0  0
    7.6910   -0.9930   18.9270 F   0  0  0  0  0  0  0  0  0  0  0  0
    6.2660    0.3830   20.3680 C   0  0  0  0  0  0  0  0  0  0  0  0
    6.7220   -0.0080   21.5930 N   0  0  0  0  0  0  0  0  0  0  0  0
    8.1000   -0.8880   21.9990 S   0  0  0  0  0  0  0  0  0  0  0  0
    8.3390   -1.7030   20.8490 O   0  0  0  0  0  0  0  0  0  0  0  0
    7.8330   -1.5260   23.2730 O   0  0  0  0  0  0  0  0  0  0  0  0
    9.4960    0.1470   22.1640 C   0  0  0  0  0  0  0  0  0  0  0  0
    9.5020    1.6310   22.5690 C   0  0  0  0  0  0  0  0  0  0  0  0
   10.6490    2.4030   22.6890 N   0  0  0  0  0  0  0  0  0  0  0  0
   10.8470    3.7600   22.8970 C   0  0  0  0  0  0  0  0  0  0  0  0
   10.0920    4.3160   23.6980 O   0  0  0  0  0  0  0  0  0  0  0  0
   11.9790    4.4940   22.1500 C   0  0  0  0  0  0  0  0  0  0  0  0
   13.0930    3.9550   22.7590 C   0  0  0  0  0  0  0  0  0  0  0  0
   11.9650    5.8930   22.2700 C   0  0  0  0  0  0  0  0  0  0  0  0
  1  2  1  0
  2  3  2  0
  3  4  1  0
  4  5  2  0
  5  6  1  0
  6  7  1  0
  2  8  1  0
  6  8  2  0
  8  9  1  0
  9 10  1  0
 10 11  2  0
 10 12  2  0
 10 13  1  0
 13 14  2  3
 14 15  1  0
 15 16  1  0
 16 17  2  0
 16 18  1  0
 18 19  1  0
 18 20  1  0
M  END
