AGN-NEW-051944a9-2
     RDKit          3D

 39 42  0  0  0  0  0  0  0  0999 V2000
    7.7300   -1.9340   18.2200 C   0  0  0  0  0  0  0  0  0  0  0  0
    6.4870   -1.7990   18.4060 C   0  0  0  0  0  0  0  0  0  0  0  0
    6.0160   -0.5470   18.8750 C   0  0  0  0  0  0  0  0  0  0  0  0
    5.4130    0.1930   17.9350 N   0  0  0  0  0  0  0  0  0  0  0  0
    4.9060    1.3630   18.3340 C   0  0  0  0  0  0  0  0  0  0  0  0
    4.9680    1.8410   19.6360 C   0  0  0  0  0  0  0  0  0  0  0  0
    4.3190    3.1670   19.9020 C   0  0  0  0  0  0  0  0  0  0  0  0
    5.6420    1.0430   20.6080 C   0  0  0  0  0  0  0  0  0  0  0  0
    5.8050    1.4130   22.0690 C   0  0  0  0  0  0  0  0  0  0  0  0
    5.1020    2.6870   22.5320 C   0  0  0  0  0  0  0  0  0  0  0  0
    3.6660    2.5500   22.6120 N   0  0  0  0  0  0  0  0  0  0  0  0
    2.8820    2.6170   23.7260 C   0  0  0  0  0  0  0  0  0  0  0  0
    2.8640    1.6400   24.4770 O   0  0  0  0  0  0  0  0  0  0  0  0
    2.0860    3.9120   23.9910 C   0  0  0  0  0  0  0  0  0  0  0  0
    1.4190    4.5390   22.8320 N   0  0  0  0  0  0  0  0  0  0  0  0
    0.0520    4.0480   22.6000 C   0  0  0  0  0  0  0  0  0  0  0  0
   -0.9520    5.2050   22.3650 C   0  0  0  0  0  0  0  0  0  0  0  0
   -0.9400    6.2720   23.3740 N   0  0  0  0  0  0  0  0  0  0  0  0
    0.4280    6.7540   23.6250 C   0  0  0  0  0  0  0  0  0  0  0  0
    1.5160    6.0090   22.8130 C   0  0  0  0  0  0  0  0  0  0  0  0
    6.1930   -0.1700   20.2070 C   0  0  0  0  0  0  0  0  0  0  0  0
    6.9170   -0.9570   21.1840 N   0  0  0  0  0  0  0  0  0  0  0  0
    8.1730   -0.4200   21.6020 C   0  0  0  0  0  0  0  0  0  0  0  0
    8.5660    0.6580   21.1570 O   0  0  0  0  0  0  0  0  0  0  0  0
    8.9420   -1.1650   22.5440 N   0  0  0  0  0  0  0  0  0  0  0  0
    8.7730   -2.6190   22.6080 C   0  0  0  0  0  0  0  0  0  0  0  0
    7.9250   -3.1420   23.7040 N   0  0  0  0  0  0  0  0  0  0  0  0
    7.0430   -4.2470   23.2420 C   0  0  0  0  0  0  0  0  0  0  0  0
    6.0530   -4.7520   24.3030 C   0  0  0  0  0  0  0  0  0  0  0  0
    5.3460   -3.7010   24.9760 O   0  0  0  0  0  0  0  0  0  0  0  0
    6.1910   -2.6550   25.4760 C   0  0  0  0  0  0  0  0  0  0  0  0
    7.1610   -2.1000   24.4200 C   0  0  0  0  0  0  0  0  0  0  0  0
   10.2700   -0.6180   22.7130 C   0  0  0  0  0  0  0  0  0  0  0  0
   10.4950    0.7540   22.7530 C   0  0  0  0  0  0  0  0  0  0  0  0
   11.7970    1.2650   22.8870 C   0  0  0  0  0  0  0  0  0  0  0  0
   12.0430    2.7460   22.9060 C   0  0  0  0  0  0  0  0  0  0  0  0
   12.8540    0.3800   22.9910 C   0  0  0  0  0  0  0  0  0  0  0  0
   12.5750   -0.9640   22.9540 C   0  0  0  0  0  0  0  0  0  0  0  0
   11.3230   -1.4700   22.8180 N   0  0  0  0  0  0  0  0  0  0  0  0
  1  2  2  3
  2  3  1  0
  3  4  2  0
  4  5  1  0
  5  6  2  0
  6  7  1  0
  6  8  1  0
  8  9  1  0
  9 10  1  0
 10 11  1  0
 11 12  1  0
 12 13  2  0
 12 14  1  0
 14 15  1  0
 15 16  1  0
 16 17  1  0
 17 18  1  0
 18 19  1  0
 15 20  1  0
 19 20  1  0
  3 21  1  0
  8 21  2  0
 21 22  1  0
 22 23  1  0
 23 24  2  0
 23 25  1  0
 25 26  1  0
 26 27  1  0
 27 28  1  0
 28 29  1  0
 29 30  1  0
 30 31  1  0
 27 32  1  0
 31 32  1  0
 25 33  1  0
 33 34  2  0
 34 35  1  0
 35 36  1  0
 35 37  2  0
 37 38  1  0
 33 39  1  0
 38 39  2  0
M  END
