AGN-NEW-891393a6-7
     RDKit          3D

 25 27  0  0  0  0  0  0  0  0999 V2000
    6.7680   -0.2090   24.4750 O   0  0  0  0  0  0  0  0  0  0  0  0
    7.7790   -0.6390   23.5280 S   0  0  0  0  0  0  0  0  0  0  0  0
    8.2080   -2.0190   23.4290 O   0  0  0  0  0  0  0  0  0  0  0  0
    7.4240   -0.0010   21.9490 C   0  0  0  0  0  0  0  0  0  0  0  0
    6.1660   -0.3950   21.1910 C   0  0  0  0  0  0  0  0  0  0  0  0
    5.8380    0.2150   20.0180 C   0  0  0  0  0  0  0  0  0  0  0  0
    4.7000    0.9530   20.0070 C   0  0  0  0  0  0  0  0  0  0  0  0
    4.4030    1.5820   18.8460 C   0  0  0  0  0  0  0  0  0  0  0  0
    5.3330    1.4340   17.6460 C   0  0  0  0  0  0  0  0  0  0  0  0
    6.4750    0.6440   17.7410 N   0  0  0  0  0  0  0  0  0  0  0  0
    6.7140    0.0400   18.9440 C   0  0  0  0  0  0  0  0  0  0  0  0
    9.1620    0.3910   23.6990 C   0  0  0  0  0  0  0  0  0  0  0  0
    9.2510    1.7580   23.9330 C   0  0  0  0  0  0  0  0  0  0  0  0
   10.5080    2.3820   23.9960 C   0  0  0  0  0  0  0  0  0  0  0  0
   11.6440    1.6300   23.8310 C   0  0  0  0  0  0  0  0  0  0  0  0
   11.4110    0.3260   23.6290 C   0  0  0  0  0  0  0  0  0  0  0  0
   12.1750   -0.7300   23.4180 C   0  0  0  0  0  0  0  0  0  0  0  0
   11.8770   -1.1570   22.0770 C   0  0  0  0  0  0  0  0  0  0  0  0
   12.5010   -2.1740   21.6340 C   0  0  0  0  0  0  0  0  0  0  0  0
   13.4740   -2.8510   22.5520 C   0  0  0  0  0  0  0  0  0  0  0  0
   14.0530   -3.7940   22.1150 F   0  0  0  0  0  0  0  0  0  0  0  0
   13.6460   -2.2710   23.9740 C   0  0  0  0  0  0  0  0  0  0  0  0
   12.9750   -1.2140   24.3350 C   0  0  0  0  0  0  0  0  0  0  0  0
   13.0860   -0.6860   25.5390 F   0  0  0  0  0  0  0  0  0  0  0  0
   10.2480   -0.2830   23.5590 C   0  0  0  0  0  0  0  0  0  0  0  0
  1  2  2  0
  2  3  2  0
  2  4  1  0
  4  5  2  3
  5  6  1  0
  6  7  2  0
  7  8  1  0
  8  9  2  0
  9 10  1  0
  6 11  1  0
 10 11  2  0
  2 12  1  0
 12 13  2  0
 13 14  1  0
 14 15  2  0
 15 16  1  0
 16 17  1  0
 17 18  2  0
 18 19  1  0
 19 20  2  0
 20 21  1  0
 20 22  1  0
 17 23  1  0
 22 23  2  0
 23 24  1  0
 12 25  1  0
 16 25  2  0
M  END
