AGN-NEW-891393a6-5
     RDKit          3D

 21 22  0  0  0  0  0  0  0  0999 V2000
    7.4800   -0.5180   20.7520 C   0  0  0  0  0  0  0  0  0  0  0  0
    8.1000   -1.5610   21.4300 C   0  0  0  0  0  0  0  0  0  0  0  0
    7.3450   -2.5120   22.1580 C   0  0  0  0  0  0  0  0  0  0  0  0
    9.2690   -1.0450   22.2170 C   0  0  0  0  0  0  0  0  0  0  0  0
    9.0830    0.0480   23.1580 C   0  0  0  0  0  0  0  0  0  0  0  0
   10.1450    0.4830   23.8430 C   0  0  0  0  0  0  0  0  0  0  0  0
    9.6000    1.7970   24.8680 Cl  0  0  0  0  0  0  0  0  0  0  0  0
   11.4400   -0.0230   23.7420 C   0  0  0  0  0  0  0  0  0  0  0  0
   11.5850   -1.0750   22.8170 C   0  0  0  0  0  0  0  0  0  0  0  0
   13.0850   -1.8490   22.4870 S   0  0  0  0  0  0  0  0  0  0  0  0
   13.6560   -2.2250   23.7650 O   0  0  0  0  0  0  0  0  0  0  0  0
   12.9190   -2.7530   21.3770 O   0  0  0  0  0  0  0  0  0  0  0  0
   13.7000   -0.3730   21.9250 C   0  0  0  0  0  0  0  0  0  0  0  0
   14.0620   -0.1740   20.3950 C   0  0  0  0  0  0  0  0  0  0  0  0
   14.6350    1.0640   19.9380 C   0  0  0  0  0  0  0  0  0  0  0  0
   14.9250    1.2930   18.6480 C   0  0  0  0  0  0  0  0  0  0  0  0
   15.4030    2.4680   18.2380 C   0  0  0  0  0  0  0  0  0  0  0  0
   15.5840    3.4730   19.1180 C   0  0  0  0  0  0  0  0  0  0  0  0
   15.3350    3.3420   20.3710 N   0  0  0  0  0  0  0  0  0  0  0  0
   14.8880    2.1250   20.7410 C   0  0  0  0  0  0  0  0  0  0  0  0
   10.5280   -1.5700   22.0770 C   0  0  0  0  0  0  0  0  0  0  0  0
  1  2  1  0
  2  3  1  0
  2  4  1  0
  4  5  2  0
  5  6  1  0
  6  7  1  0
  6  8  2  0
  8  9  1  0
  9 10  1  0
 10 11  2  0
 10 12  2  0
 10 13  1  0
 13 14  2  3
 14 15  1  0
 15 16  2  0
 16 17  1  0
 17 18  2  0
 18 19  1  0
 15 20  1  0
 19 20  2  0
  4 21  1  0
  9 21  2  0
M  END
