AGN-NEW-817c14da-5
     RDKit          3D

 30 32  0  0  0  0  0  0  0  0999 V2000
    4.5610   -5.7010   22.6240 C   0  0  0  0  0  0  0  0  0  0  0  0
    5.9660   -5.4750   22.2080 C   0  0  0  0  0  0  0  0  0  0  0  0
    6.7490   -4.7240   23.0770 C   0  0  0  0  0  0  0  0  0  0  0  0
    7.6780   -5.3920   24.0220 C   0  0  0  0  0  0  0  0  0  0  0  0
    8.4240   -4.5940   24.8660 C   0  0  0  0  0  0  0  0  0  0  0  0
    9.2790   -5.1260   25.7470 F   0  0  0  0  0  0  0  0  0  0  0  0
    8.2340   -3.1100   24.7480 C   0  0  0  0  0  0  0  0  0  0  0  0
    7.3620   -2.6020   23.8520 C   0  0  0  0  0  0  0  0  0  0  0  0
    7.1720   -1.1120   23.7370 C   0  0  0  0  0  0  0  0  0  0  0  0
    8.0940   -0.4770   22.7880 N   0  0  0  0  0  0  0  0  0  0  0  0
    7.6340   -0.2960   21.5130 C   0  0  0  0  0  0  0  0  0  0  0  0
    8.3040    0.3940   20.7610 O   0  0  0  0  0  0  0  0  0  0  0  0
    6.4550   -0.8030   21.1340 N   0  0  0  0  0  0  0  0  0  0  0  0
    5.9200   -0.0380   20.1580 C   0  0  0  0  0  0  0  0  0  0  0  0
    4.8320    0.9670   20.3330 C   0  0  0  0  0  0  0  0  0  0  0  0
    4.4140    1.6860   19.2120 C   0  0  0  0  0  0  0  0  0  0  0  0
    5.0260    1.4380   17.9840 C   0  0  0  0  0  0  0  0  0  0  0  0
    6.0030    0.5330   17.7980 N   0  0  0  0  0  0  0  0  0  0  0  0
    6.4190   -0.1760   18.8750 C   0  0  0  0  0  0  0  0  0  0  0  0
    7.4050   -1.0900   18.6450 C   0  0  0  0  0  0  0  0  0  0  0  0
    8.8020    0.6050   23.2890 C   0  0  0  0  0  0  0  0  0  0  0  0
    8.0650    1.8150   23.6990 N   0  0  0  0  0  0  0  0  0  0  0  0
    8.7860    2.8140   24.1350 C   0  0  0  0  0  0  0  0  0  0  0  0
   10.3090    2.8270   24.2500 C   0  0  0  0  0  0  0  0  0  0  0  0
   10.8570    1.4800   23.7850 C   0  0  0  0  0  0  0  0  0  0  0  0
   12.2730    1.0920   23.7640 C   0  0  0  0  0  0  0  0  0  0  0  0
   12.4280   -0.0820   24.6050 C   0  0  0  0  0  0  0  0  0  0  0  0
   12.7570    0.6370   22.4850 C   0  0  0  0  0  0  0  0  0  0  0  0
   10.1030    0.4840   23.3450 N   0  0  0  0  0  0  0  0  0  0  0  0
    6.6120   -3.3850   23.0120 N   0  0  0  0  0  0  0  0  0  0  0  0
  1  2  3  0
  2  3  1  0
  3  4  2  0
  4  5  1  0
  5  6  1  0
  5  7  2  0
  7  8  1  0
  8  9  1  0
  9 10  1  0
 10 11  1  0
 11 12  2  0
 11 13  1  0
 13 14  1  0
 14 15  2  0
 15 16  1  0
 16 17  2  0
 17 18  1  0
 14 19  1  0
 18 19  2  0
 19 20  1  0
 10 21  1  0
 21 22  2  0
 22 23  1  0
 23 24  2  0
 24 25  1  0
 25 26  1  0
 26 27  1  0
 26 28  1  0
 21 29  1  0
 25 29  2  0
  3 30  1  0
  8 30  2  0
M  END
