AGN-NEW-051944a9-4
     RDKit          3D

 39 42  0  0  0  0  0  0  0  0999 V2000
    6.6310   -2.1470   18.1240 C   0  0  0  0  0  0  0  0  0  0  0  0
    7.4960   -1.0480   18.6130 C   0  0  0  0  0  0  0  0  0  0  0  0
    6.5550   -0.0600   18.9160 C   0  0  0  0  0  0  0  0  0  0  0  0
    6.0120    0.6640   17.9080 N   0  0  0  0  0  0  0  0  0  0  0  0
    5.0640    1.5770   18.1560 C   0  0  0  0  0  0  0  0  0  0  0  0
    4.6350    1.7750   19.4560 C   0  0  0  0  0  0  0  0  0  0  0  0
    3.6460    2.6980   19.7240 C   0  0  0  0  0  0  0  0  0  0  0  0
    5.2450    0.9800   20.5920 C   0  0  0  0  0  0  0  0  0  0  0  0
    4.7370    1.2200   22.0040 C   0  0  0  0  0  0  0  0  0  0  0  0
    5.3350    2.5170   22.4820 C   0  0  0  0  0  0  0  0  0  0  0  0
    4.1400    3.3530   22.6820 N   0  0  0  0  0  0  0  0  0  0  0  0
    3.2550    3.1020   23.7030 C   0  0  0  0  0  0  0  0  0  0  0  0
    3.1000    1.7510   24.1370 O   0  0  0  0  0  0  0  0  0  0  0  0
    2.4490    4.0690   24.4450 C   0  0  0  0  0  0  0  0  0  0  0  0
    1.1290    4.3170   24.1360 N   0  0  0  0  0  0  0  0  0  0  0  0
    0.0340    3.6460   24.6790 C   0  0  0  0  0  0  0  0  0  0  0  0
   -1.2060    3.8910   23.8100 C   0  0  0  0  0  0  0  0  0  0  0  0
   -1.5240    5.2140   23.6450 N   0  0  0  0  0  0  0  0  0  0  0  0
   -0.5530    6.2150   23.9500 C   0  0  0  0  0  0  0  0  0  0  0  0
    0.8660    5.6980   23.7060 C   0  0  0  0  0  0  0  0  0  0  0  0
    6.2420    0.0500   20.2670 C   0  0  0  0  0  0  0  0  0  0  0  0
    6.8740   -0.7280   21.2140 N   0  0  0  0  0  0  0  0  0  0  0  0
    8.0800   -0.3050   21.6000 C   0  0  0  0  0  0  0  0  0  0  0  0
    8.4920    0.9320   21.0300 O   0  0  0  0  0  0  0  0  0  0  0  0
    8.9170   -0.9600   22.5020 N   0  0  0  0  0  0  0  0  0  0  0  0
    8.5800   -2.2890   22.6670 C   0  0  0  0  0  0  0  0  0  0  0  0
    7.4180   -2.6560   23.2660 N   0  0  0  0  0  0  0  0  0  0  0  0
    7.2880   -3.9930   23.4320 C   0  0  0  0  0  0  0  0  0  0  0  0
    6.2910   -4.5810   24.4080 C   0  0  0  0  0  0  0  0  0  0  0  0
    6.1020   -4.0460   25.5040 O   0  0  0  0  0  0  0  0  0  0  0  0
    6.1130   -2.6050   25.4520 C   0  0  0  0  0  0  0  0  0  0  0  0
    7.2220   -1.9640   24.5610 C   0  0  0  0  0  0  0  0  0  0  0  0
   10.2830   -0.5290   22.6880 C   0  0  0  0  0  0  0  0  0  0  0  0
   10.5780    0.8160   22.7460 C   0  0  0  0  0  0  0  0  0  0  0  0
   11.8820    1.3030   22.8950 C   0  0  0  0  0  0  0  0  0  0  0  0
   12.1310    2.6800   22.9270 C   0  0  0  0  0  0  0  0  0  0  0  0
   12.9010    0.3850   22.9960 C   0  0  0  0  0  0  0  0  0  0  0  0
   12.5760   -0.9470   22.9410 C   0  0  0  0  0  0  0  0  0  0  0  0
   11.3050   -1.4270   22.7920 N   0  0  0  0  0  0  0  0  0  0  0  0
  1  2  3  0
  2  3  1  0
  3  4  2  0
  4  5  1  0
  5  6  2  0
  6  7  1  0
  6  8  1  0
  8  9  1  0
  9 10  1  0
 10 11  1  0
 11 12  1  0
 12 13  2  0
 12 14  1  0
 14 15  1  0
 15 16  1  0
 16 17  1  0
 17 18  1  0
 18 19  1  0
 15 20  1  0
 19 20  1  0
  3 21  1  0
  8 21  2  0
 21 22  1  0
 22 23  1  0
 23 24  2  0
 23 25  1  0
 25 26  1  0
 26 27  1  0
 27 28  1  0
 28 29  1  0
 29 30  1  0
 30 31  1  0
 27 32  1  0
 31 32  1  0
 25 33  1  0
 33 34  2  0
 34 35  1  0
 35 36  1  0
 35 37  2  0
 37 38  1  0
 33 39  1  0
 38 39  2  0
M  END
