AGN-NEW-95323f67-5
     RDKit          3D

 22 23  0  0  0  0  0  0  0  0999 V2000
    4.8140    1.4060   21.7780 C   0  0  0  0  0  0  0  0  0  0  0  0
    5.3170    1.0770   20.4010 C   0  0  0  0  0  0  0  0  0  0  0  0
    4.7140    1.8160   19.2500 C   0  0  0  0  0  0  0  0  0  0  0  0
    5.1530    1.5620   17.8520 C   0  0  0  0  0  0  0  0  0  0  0  0
    6.1230    0.6180   17.6580 N   0  0  0  0  0  0  0  0  0  0  0  0
    6.7390   -0.1340   18.7150 C   0  0  0  0  0  0  0  0  0  0  0  0
    7.6680   -1.0400   18.4330 F   0  0  0  0  0  0  0  0  0  0  0  0
    6.3140    0.1200   20.1340 C   0  0  0  0  0  0  0  0  0  0  0  0
    6.9800   -0.6610   21.1230 N   0  0  0  0  0  0  0  0  0  0  0  0
    8.0850    0.1070   22.1580 S   0  0  0  0  0  0  0  0  0  0  0  0
    9.2800    0.5150   21.3590 O   0  0  0  0  0  0  0  0  0  0  0  0
    7.4280    1.2850   22.8290 O   0  0  0  0  0  0  0  0  0  0  0  0
    8.4510   -1.1120   23.3080 C   0  0  0  0  0  0  0  0  0  0  0  0
    7.7660   -2.4360   23.1420 C   0  0  0  0  0  0  0  0  0  0  0  0
    7.9670   -3.4400   23.9980 N   0  0  0  0  0  0  0  0  0  0  0  0
    6.7310   -3.8320   24.5500 C   0  0  0  0  0  0  0  0  0  0  0  0
    6.0760   -3.0560   25.2340 O   0  0  0  0  0  0  0  0  0  0  0  0
    6.2580   -5.1170   24.3240 C   0  0  0  0  0  0  0  0  0  0  0  0
    4.9130   -5.3390   24.0320 C   0  0  0  0  0  0  0  0  0  0  0  0
    4.8420   -6.4340   23.0210 C   0  0  0  0  0  0  0  0  0  0  0  0
    6.1300   -6.6060   22.5210 C   0  0  0  0  0  0  0  0  0  0  0  0
    7.0390   -5.7640   23.1550 C   0  0  0  0  0  0  0  0  0  0  0  0
  1  2  1  0
  2  3  2  0
  3  4  1  0
  4  5  2  0
  5  6  1  0
  6  7  1  0
  2  8  1  0
  6  8  2  0
  8  9  1  0
  9 10  1  0
 10 11  2  0
 10 12  2  0
 10 13  1  0
 13 14  2  3
 14 15  1  0
 15 16  1  0
 16 17  2  0
 16 18  1  0
 18 19  1  0
 19 20  1  0
 20 21  1  0
 18 22  1  0
 21 22  1  0
M  END
