AGN-NEW-9315dc74-6
     RDKit          3D

 26 28  0  0  0  0  0  0  0  0999 V2000
   13.2810   -2.1860   21.2070 C   0  0  0  0  0  0  0  0  0  0  0  0
   13.5070   -1.5830   22.4690 O   0  0  0  0  0  0  0  0  0  0  0  0
   12.5630   -0.6640   22.6640 C   0  0  0  0  0  0  0  0  0  0  0  0
   12.8520    0.8120   22.8520 C   0  0  0  0  0  0  0  0  0  0  0  0
   11.7970    1.6950   23.0000 C   0  0  0  0  0  0  0  0  0  0  0  0
   11.8720    3.0870   23.1430 C   0  0  0  0  0  0  0  0  0  0  0  0
   12.8800    3.9740   22.7540 C   0  0  0  0  0  0  0  0  0  0  0  0
   12.6190    5.2790   23.0450 C   0  0  0  0  0  0  0  0  0  0  0  0
   11.3990    5.4390   23.6710 C   0  0  0  0  0  0  0  0  0  0  0  0
   10.4950    3.9800   23.9390 S   0  0  0  0  0  0  0  0  0  0  0  0
   10.3910    1.0490   22.9780 C   0  0  0  0  0  0  0  0  0  0  0  0
   10.2700   -0.3320   22.8050 C   0  0  0  0  0  0  0  0  0  0  0  0
    8.9840   -0.8380   22.7800 C   0  0  0  0  0  0  0  0  0  0  0  0
    7.9910    0.4140   21.9900 S   0  0  0  0  0  0  0  0  0  0  0  0
    8.8150    1.1790   21.0610 O   0  0  0  0  0  0  0  0  0  0  0  0
    7.1790    1.0840   22.9890 O   0  0  0  0  0  0  0  0  0  0  0  0
    6.9750   -0.5450   21.0300 N   0  0  0  0  0  0  0  0  0  0  0  0
    6.3030    0.1750   20.0440 C   0  0  0  0  0  0  0  0  0  0  0  0
    5.2830    1.0850   20.3700 C   0  0  0  0  0  0  0  0  0  0  0  0
    4.9410    1.2480   21.7130 C   0  0  0  0  0  0  0  0  0  0  0  0
    4.7420    1.7270   19.2040 C   0  0  0  0  0  0  0  0  0  0  0  0
    5.1120    1.5450   17.8750 C   0  0  0  0  0  0  0  0  0  0  0  0
    6.1680    0.5740   17.6760 N   0  0  0  0  0  0  0  0  0  0  0  0
    6.6780   -0.0310   18.7400 C   0  0  0  0  0  0  0  0  0  0  0  0
    7.6410   -0.9200   18.5170 F   0  0  0  0  0  0  0  0  0  0  0  0
   11.3320   -1.1570   22.6520 N   0  0  0  0  0  0  0  0  0  0  0  0
  1  2  1  0
  2  3  1  0
  3  4  2  0
  4  5  1  0
  5  6  1  0
  6  7  2  0
  7  8  1  0
  8  9  2  0
  6 10  1  0
  9 10  1  0
  5 11  2  0
 11 12  1  0
 12 13  1  0
 13 14  1  0
 14 15  2  0
 14 16  2  0
 14 17  1  0
 17 18  1  0
 18 19  2  0
 19 20  1  0
 19 21  1  0
 21 22  2  0
 22 23  1  0
 18 24  1  0
 23 24  2  0
 24 25  1  0
  3 26  1  0
 12 26  2  0
M  END
