AGN-NEW-95323f67-1
     RDKit          3D

 21 22  0  0  0  0  0  0  0  0999 V2000
    4.8380    1.1600   21.7730 C   0  0  0  0  0  0  0  0  0  0  0  0
    5.4040    0.8970   20.3830 C   0  0  0  0  0  0  0  0  0  0  0  0
    4.7920    1.5470   19.3100 C   0  0  0  0  0  0  0  0  0  0  0  0
    5.2600    1.3610   18.0100 C   0  0  0  0  0  0  0  0  0  0  0  0
    6.2960    0.5700   17.6980 N   0  0  0  0  0  0  0  0  0  0  0  0
    6.9060   -0.0760   18.7080 C   0  0  0  0  0  0  0  0  0  0  0  0
    6.5040    0.0420   20.1330 C   0  0  0  0  0  0  0  0  0  0  0  0
    7.1480   -0.6250   21.1220 N   0  0  0  0  0  0  0  0  0  0  0  0
    7.4990   -0.0130   22.6510 S   0  0  0  0  0  0  0  0  0  0  0  0
    8.8590   -0.4450   22.9070 O   0  0  0  0  0  0  0  0  0  0  0  0
    7.1800    1.3970   22.6720 O   0  0  0  0  0  0  0  0  0  0  0  0
    6.4560   -0.8860   23.7270 C   0  0  0  0  0  0  0  0  0  0  0  0
    6.9530   -1.9680   24.6920 C   0  0  0  0  0  0  0  0  0  0  0  0
    6.2740   -2.7540   25.5920 N   0  0  0  0  0  0  0  0  0  0  0  0
    5.8110   -4.0550   25.5430 C   0  0  0  0  0  0  0  0  0  0  0  0
    5.2410   -4.4910   26.5440 O   0  0  0  0  0  0  0  0  0  0  0  0
    6.0260   -4.8700   24.2650 C   0  0  0  0  0  0  0  0  0  0  0  0
    4.9280   -5.4990   23.7230 C   0  0  0  0  0  0  0  0  0  0  0  0
    5.2700   -6.1900   22.5750 C   0  0  0  0  0  0  0  0  0  0  0  0
    6.6190   -6.0860   22.2480 C   0  0  0  0  0  0  0  0  0  0  0  0
    7.4670   -5.1160   23.3850 S   0  0  0  0  0  0  0  0  0  0  0  0
  1  2  1  0
  2  3  2  0
  3  4  1  0
  4  5  2  0
  5  6  1  0
  2  7  1  0
  6  7  2  0
  7  8  1  0
  8  9  1  0
  9 10  2  0
  9 11  2  0
  9 12  1  0
 12 13  2  3
 13 14  1  0
 14 15  1  0
 15 16  2  0
 15 17  1  0
 17 18  2  0
 18 19  1  0
 19 20  2  0
 17 21  1  0
 20 21  1  0
M  END
