ALE-HEI-f28a35b5-13
     RDKit          3D

 14 14  0  0  0  0  0  0  0  0999 V2000
    5.2920    1.2580   21.9450 C   0  0  0  0  0  0  0  0  0  0  0  0
    5.7130    0.8780   20.5560 C   0  0  0  0  0  0  0  0  0  0  0  0
    4.9070    1.4060   19.4370 C   0  0  0  0  0  0  0  0  0  0  0  0
    5.2590    1.0780   18.1260 C   0  0  0  0  0  0  0  0  0  0  0  0
    6.3610    0.2570   17.9660 N   0  0  0  0  0  0  0  0  0  0  0  0
    7.1260   -0.2510   18.9920 C   0  0  0  0  0  0  0  0  0  0  0  0
    6.8250    0.0510   20.2950 C   0  0  0  0  0  0  0  0  0  0  0  0
    7.6570   -0.5010   21.2460 N   0  0  0  0  0  0  0  0  0  0  0  0
    8.6290    0.3750   21.7520 C   0  0  0  0  0  0  0  0  0  0  0  0
    8.9360    1.4860   21.2990 O   0  0  0  0  0  0  0  0  0  0  0  0
    9.2710   -0.1860   22.8680 N   0  0  0  0  0  0  0  0  0  0  0  0
   10.6610   -0.6970   22.7880 C   0  0  0  0  0  0  0  0  0  0  0  0
   10.8140   -1.9770   23.6180 C   0  0  0  0  0  0  0  0  0  0  0  0
   12.6400   -2.1740   24.2910 Br  0  0  0  0  0  0  0  0  0  0  0  0
  1  2  1  0
  2  3  2  0
  3  4  1  0
  4  5  2  0
  5  6  1  0
  2  7  1  0
  6  7  2  0
  7  8  1  0
  8  9  1  0
  9 10  2  0
  9 11  1  0
 11 12  1  0
 12 13  1  0
 13 14  1  0
M  END
