ALE-UNK-fca05062-7
     RDKit          3D

 18 18  0  0  0  0  0  0  0  0999 V2000
    3.8740   -2.0930   29.2370 C   0  0  0  0  0  0  0  0  0  0  0  0
    5.0310   -2.6540   29.5970 C   0  0  0  0  0  0  0  0  0  0  0  0
    6.1580   -2.6840   28.6170 C   0  0  0  0  0  0  0  0  0  0  0  0
    6.6020   -3.9310   28.1390 C   0  0  0  0  0  0  0  0  0  0  0  0
    7.8750   -3.9960   27.5530 C   0  0  0  0  0  0  0  0  0  0  0  0
    8.2000   -4.9890   26.6100 C   0  0  2  0  0  0  0  0  0  0  0  0
    9.2330   -5.9010   26.8290 C   0  0  0  0  0  0  0  0  0  0  0  0
    8.6120   -3.9950   25.5750 N   0  0  0  0  0  0  0  0  0  0  0  0
    7.8690   -3.7000   24.3330 C   0  0  0  0  0  0  0  0  0  0  0  0
    6.9590   -4.6200   24.7760 O   0  0  0  0  0  0  0  0  0  0  0  0
    9.0800   -2.8060   24.2470 C   0  0  0  0  0  0  0  0  0  0  0  0
    9.1140   -1.9260   23.1080 O   0  0  0  0  0  0  0  0  0  0  0  0
   10.4180   -1.3420   22.9190 C   0  0  0  0  0  0  0  0  0  0  0  0
   10.6550    0.0800   23.3280 C   0  0  0  0  0  0  0  0  0  0  0  0
   12.0750    0.6490   23.1260 C   0  0  0  0  0  0  0  0  0  0  0  0
   13.1490   -0.0510   22.5940 C   0  0  0  0  0  0  0  0  0  0  0  0
   12.8860   -1.4690   22.1770 C   0  0  0  0  0  0  0  0  0  0  0  0
   11.4790   -2.0580   22.3690 C   0  0  0  0  0  0  0  0  0  0  0  0
  1  2  1  0
  2  3  1  0
  3  4  1  0
  4  5  1  0
  5  6  1  0
  6  7  1  1
  6  8  1  0
  8  9  1  0
  9 10  2  0
  9 11  1  0
 11 12  1  0
 12 13  1  0
 13 14  2  0
 14 15  1  0
 15 16  2  0
 16 17  1  0
 13 18  1  0
 17 18  2  0
M  END
