ALE-UNK-fca05062-3
     RDKit          3D

 21 22  0  0  0  0  0  0  0  0999 V2000
    4.1380   -7.1100   25.6950 C   0  0  0  0  0  0  0  0  0  0  0  0
    3.6660   -5.8750   25.4950 C   0  0  0  0  0  0  0  0  0  0  0  0
    2.2230   -5.5820   25.7340 C   0  0  0  0  0  0  0  0  0  0  0  0
    1.7390   -4.2970   25.5210 C   0  0  0  0  0  0  0  0  0  0  0  0
    2.5210   -3.2300   25.0900 C   0  0  0  0  0  0  0  0  0  0  0  0
    3.8890   -3.3970   24.8340 C   0  0  0  0  0  0  0  0  0  0  0  0
    4.6640   -2.3220   24.3950 C   0  0  0  0  0  0  0  0  0  0  0  0
    4.4860   -4.7990   25.0540 C   0  0  0  0  0  0  0  0  0  0  0  0
    5.8290   -5.0010   24.8150 O   0  0  0  0  0  0  0  0  0  0  0  0
    6.6170   -4.8200   26.0140 C   0  0  0  0  0  0  0  0  0  0  0  0
    7.9270   -4.4520   25.6470 C   0  0  0  0  0  0  0  0  0  0  0  0
    8.9390   -5.0860   25.9850 O   0  0  0  0  0  0  0  0  0  0  0  0
    7.9140   -3.2990   24.8900 N   0  0  0  0  0  0  0  0  0  0  0  0
    8.9850   -3.2410   23.8490 C   0  0  0  0  0  0  0  0  0  0  0  0
    9.0540   -1.8600   23.1650 C   0  0  0  0  0  0  0  0  0  0  0  0
   10.3750   -1.4120   22.9250 C   0  0  0  0  0  0  0  0  0  0  0  0
   10.6870   -0.0020   23.3550 C   0  0  0  0  0  0  0  0  0  0  0  0
   12.0980    0.5920   23.1570 C   0  0  0  0  0  0  0  0  0  0  0  0
   13.0490   -0.1880   22.5850 C   0  0  0  0  0  0  0  0  0  0  0  0
   12.7130   -1.4960   22.1870 C   0  0  0  0  0  0  0  0  0  0  0  0
   11.4420   -2.1120   22.3340 C   0  0  0  0  0  0  0  0  0  0  0  0
  1  2  1  0
  2  3  2  0
  3  4  1  0
  4  5  2  0
  5  6  1  0
  6  7  1  0
  2  8  1  0
  6  8  2  0
  8  9  1  0
  9 10  1  0
 10 11  1  0
 11 12  2  0
 11 13  1  0
 13 14  1  0
 14 15  1  0
 15 16  1  0
 16 17  2  0
 17 18  1  0
 18 19  2  0
 19 20  1  0
 16 21  1  0
 20 21  2  0
M  END
