ALE-MCD-a1893bfb-1
     RDKit          3D

 20 21  0  0  0  0  0  0  0  0999 V2000
    6.5550   -2.8490   21.1150 C   0  0  0  0  0  0  0  0  0  0  0  0
    6.0570   -4.2500   20.8950 C   0  0  0  0  0  0  0  0  0  0  0  0
    5.3840   -4.5330   19.9010 O   0  0  0  0  0  0  0  0  0  0  0  0
    6.4310   -5.1390   21.8780 N   0  0  0  0  0  0  0  0  0  0  0  0
    7.2030   -4.6660   23.0220 C   0  0  0  0  0  0  0  0  0  0  0  0
    6.3260   -4.3760   24.0450 C   0  0  0  0  0  0  0  0  0  0  0  0
    5.3860   -5.4020   24.3240 N   0  0  0  0  0  0  0  0  0  0  0  0
    4.6480   -5.5140   25.8530 S   0  0  0  0  0  0  0  0  0  0  0  0
    3.9640   -6.7850   25.9340 O   0  0  0  0  0  0  0  0  0  0  0  0
    5.6560   -5.1350   26.8200 O   0  0  0  0  0  0  0  0  0  0  0  0
    3.3880   -4.2640   25.8570 C   0  0  0  0  0  0  0  0  0  0  0  0
    3.7680   -2.9140   25.9250 C   0  0  0  0  0  0  0  0  0  0  0  0
    2.8710   -1.8470   25.9540 C   0  0  0  0  0  0  0  0  0  0  0  0
    3.2680   -0.5720   26.0240 F   0  0  0  0  0  0  0  0  0  0  0  0
    1.4160   -2.2260   25.9100 C   0  0  0  0  0  0  0  0  0  0  0  0
    1.0190   -3.6690   25.8280 C   0  0  0  0  0  0  0  0  0  0  0  0
   -0.2730   -4.0170   25.7820 F   0  0  0  0  0  0  0  0  0  0  0  0
    2.0280   -4.6540   25.8040 C   0  0  0  0  0  0  0  0  0  0  0  0
    4.6490   -5.9520   23.1550 C   0  0  0  0  0  0  0  0  0  0  0  0
    5.5530   -6.2760   22.1360 C   0  0  0  0  0  0  0  0  0  0  0  0
  1  2  1  0
  2  3  2  0
  2  4  1  0
  4  5  1  0
  5  6  1  0
  6  7  1  0
  7  8  1  0
  8  9  2  0
  8 10  2  0
  8 11  1  0
 11 12  2  0
 12 13  1  0
 13 14  1  0
 13 15  2  0
 15 16  1  0
 16 17  1  0
 11 18  1  0
 16 18  2  0
  7 19  1  0
  4 20  1  0
 19 20  1  0
M  END
