ALE-ACE-2610ee4d-1
     RDKit          3D

 17 18  0  0  0  0  0  0  0  0999 V2000
   13.2400   -2.1510   20.9620 C   0  0  0  0  0  0  0  0  0  0  0  0
   13.5300   -1.8870   22.3070 O   0  0  0  0  0  0  0  0  0  0  0  0
   12.5640   -1.1570   22.8720 C   0  0  0  0  0  0  0  0  0  0  0  0
   11.4620   -1.6480   23.5410 C   0  0  0  0  0  0  0  0  0  0  0  0
   10.5350   -0.7680   24.0590 C   0  0  0  0  0  0  0  0  0  0  0  0
   10.7740    0.7030   23.8530 C   0  0  0  0  0  0  0  0  0  0  0  0
    9.8790    1.6840   24.3360 N   0  0  0  0  0  0  0  0  0  0  0  0
   10.5310    2.9070   23.8870 C   0  0  0  0  0  0  0  0  0  0  0  0
   11.7060    2.6460   23.2060 C   0  0  0  0  0  0  0  0  0  0  0  0
   12.6050    3.7350   22.6060 C   0  0  0  0  0  0  0  0  0  0  0  0
   12.4100    5.1440   23.1230 C   0  0  0  0  0  0  0  0  0  0  0  0
   11.2210    5.6180   22.5930 N   0  0  0  0  0  0  0  0  0  0  0  0
   10.1570    6.2080   23.3210 C   0  0  0  0  0  0  0  0  0  0  0  0
    9.0460    6.6560   22.6010 C   0  0  0  0  0  0  0  0  0  0  0  0
   10.1940    6.3430   24.7110 O   0  0  0  0  0  0  0  0  0  0  0  0
   11.9080    1.2540   23.1610 C   0  0  0  0  0  0  0  0  0  0  0  0
   12.8010    0.3150   22.6850 C   0  0  0  0  0  0  0  0  0  0  0  0
  1  2  1  0
  2  3  1  0
  3  4  2  0
  4  5  1  0
  5  6  2  0
  6  7  1  0
  7  8  1  0
  8  9  2  0
  9 10  1  0
 10 11  1  0
 11 12  1  0
 12 13  1  0
 13 14  1  0
 13 15  2  0
  6 16  1  0
  9 16  1  0
  3 17  1  0
 16 17  2  0
M  END
