ALE-UNK-fca05062-5
     RDKit          3D

 17 17  0  0  0  0  0  0  0  0999 V2000
   10.9120    5.1090   24.9620 C   0  0  0  0  0  0  0  0  0  0  0  0
   10.1350    6.2130   24.3820 C   0  0  0  0  0  0  0  0  0  0  0  0
    9.2020    5.9670   23.4490 C   0  0  1  0  0  0  0  0  0  0  0  0
    9.0120    6.9790   22.3780 C   0  0  0  0  0  0  0  0  0  0  0  0
    9.3890    4.7140   22.8480 N   0  0  0  0  0  0  0  0  0  0  0  0
    8.8740    3.4610   23.4490 C   0  0  0  0  0  0  0  0  0  0  0  0
    8.0750    3.4680   24.5530 O   0  0  0  0  0  0  0  0  0  0  0  0
    9.3330    2.2600   22.7020 C   0  0  0  0  0  0  0  0  0  0  0  0
    9.5700    1.1260   23.5530 O   0  0  0  0  0  0  0  0  0  0  0  0
   10.6090    0.3290   23.1210 C   0  0  0  0  0  0  0  0  0  0  0  0
   10.3980   -1.1010   22.8740 C   0  0  0  0  0  0  0  0  0  0  0  0
    9.1380   -1.8480   23.0420 C   0  0  0  0  0  0  0  0  0  0  0  0
   11.6000   -1.9310   22.3840 C   0  0  0  0  0  0  0  0  0  0  0  0
   12.8070   -1.3150   22.2270 C   0  0  0  0  0  0  0  0  0  0  0  0
   12.9100    0.0260   22.4900 C   0  0  0  0  0  0  0  0  0  0  0  0
   11.8860    0.8970   22.9100 C   0  0  0  0  0  0  0  0  0  0  0  0
   12.1490    2.2930   23.0850 C   0  0  0  0  0  0  0  0  0  0  0  0
  1  2  1  0
  2  3  1  0
  3  4  1  6
  3  5  1  0
  5  6  1  0
  6  7  2  0
  6  8  1  0
  8  9  1  0
  9 10  1  0
 10 11  2  0
 11 12  1  0
 11 13  1  0
 13 14  2  0
 14 15  1  0
 10 16  1  0
 15 16  2  0
 16 17  1  0
M  END
