ALE-HEI-f28a35b5-11
     RDKit          3D

 17 17  0  0  0  0  0  0  0  0999 V2000
    5.2960    1.3400   21.9830 C   0  0  0  0  0  0  0  0  0  0  0  0
    5.6290    0.9770   20.5500 C   0  0  0  0  0  0  0  0  0  0  0  0
    4.8710    1.3740   19.5420 C   0  0  0  0  0  0  0  0  0  0  0  0
    5.1470    1.0520   18.1160 C   0  0  0  0  0  0  0  0  0  0  0  0
    6.1920    0.3230   17.7470 N   0  0  0  0  0  0  0  0  0  0  0  0
    7.0310   -0.1290   18.7630 C   0  0  0  0  0  0  0  0  0  0  0  0
    6.7660    0.2020   20.2230 C   0  0  0  0  0  0  0  0  0  0  0  0
    7.6120   -0.2260   21.2560 N   0  0  0  0  0  0  0  0  0  0  0  0
    8.6800    0.5180   21.7340 C   0  0  0  0  0  0  0  0  0  0  0  0
    9.0580    1.5980   21.2760 O   0  0  0  0  0  0  0  0  0  0  0  0
    9.3160   -0.1890   22.8810 N   0  0  0  0  0  0  0  0  0  0  0  0
   10.5540   -0.8530   22.8330 C   0  0  0  0  0  0  0  0  0  0  0  0
   10.5920   -2.1450   23.3100 C   0  0  0  0  0  0  0  0  0  0  0  0
   11.6370   -2.3100   24.4280 C   0  0  0  0  0  0  0  0  0  0  0  0
   12.9050   -2.0400   24.0150 C   0  0  0  0  0  0  0  0  0  0  0  0
   13.3000   -2.0450   22.7340 N   0  0  0  0  0  0  0  0  0  0  0  0
   13.8230   -2.7570   24.7410 N   0  0  0  0  0  0  0  0  0  0  0  0
  1  2  1  0
  2  3  2  0
  3  4  1  0
  4  5  2  0
  5  6  1  0
  2  7  1  0
  6  7  2  0
  7  8  1  0
  8  9  1  0
  9 10  2  0
  9 11  1  0
 11 12  1  0
 12 13  1  0
 13 14  1  0
 14 15  1  0
 15 16  1  0
 15 17  1  0
M  END
