ALE-HEI-f28a35b5-2
     RDKit          3D

 17 18  0  0  0  0  0  0  0  0999 V2000
   13.3890   -2.4750   25.0330 C   0  0  0  0  0  0  0  0  0  0  0  0
   12.4060   -1.8780   24.1320 C   0  0  0  0  0  0  0  0  0  0  0  0
   12.5890   -0.6730   23.4820 N   0  0  0  0  0  0  0  0  0  0  0  0
   11.4760   -0.4130   22.7030 N   0  0  0  0  0  0  0  0  0  0  0  0
   10.5460   -1.3680   22.7850 C   0  0  0  0  0  0  0  0  0  0  0  0
    9.3590   -1.4470   22.1680 N   0  0  0  0  0  0  0  0  0  0  0  0
    8.6620   -0.3010   21.7260 C   0  0  0  0  0  0  0  0  0  0  0  0
    9.1270    0.8440   21.7260 O   0  0  0  0  0  0  0  0  0  0  0  0
    7.4070   -0.6030   21.3040 N   0  0  0  0  0  0  0  0  0  0  0  0
    6.6790    0.0150   20.2700 C   0  0  0  0  0  0  0  0  0  0  0  0
    6.9700   -0.1490   18.8040 C   0  0  0  0  0  0  0  0  0  0  0  0
    6.2780    0.4450   17.7620 N   0  0  0  0  0  0  0  0  0  0  0  0
    5.2560    1.2330   18.1010 C   0  0  0  0  0  0  0  0  0  0  0  0
    4.8480    1.4840   19.5140 C   0  0  0  0  0  0  0  0  0  0  0  0
    5.6040    0.8400   20.6090 C   0  0  0  0  0  0  0  0  0  0  0  0
    5.2300    1.0740   21.8790 C   0  0  0  0  0  0  0  0  0  0  0  0
   10.8800   -2.6940   23.8040 S   0  0  0  0  0  0  0  0  0  0  0  0
  1  2  1  0
  2  3  2  0
  3  4  1  0
  4  5  2  0
  5  6  1  0
  6  7  1  0
  7  8  2  0
  7  9  1  0
  9 10  1  0
 10 11  2  0
 11 12  1  0
 12 13  2  0
 13 14  1  0
 10 15  1  0
 14 15  2  0
 15 16  1  0
  2 17  1  0
  5 17  1  0
M  END
