ALE-HEI-f28a35b5-3
     RDKit          3D

 17 18  0  0  0  0  0  0  0  0999 V2000
   12.7460    3.9400   22.7520 C   0  0  0  0  0  0  0  0  0  0  0  0
   12.0060    2.6260   22.7840 C   0  0  0  0  0  0  0  0  0  0  0  0
   12.7590    1.4660   22.9270 N   0  0  0  0  0  0  0  0  0  0  0  0
   11.8750    0.4420   22.8980 N   0  0  0  0  0  0  0  0  0  0  0  0
   10.5530    0.7900   22.7500 C   0  0  0  0  0  0  0  0  0  0  0  0
    9.4470   -0.0580   22.6600 C   0  0  0  0  0  0  0  0  0  0  0  0
    8.6210    0.3940   21.6220 C   0  0  0  0  0  0  0  0  0  0  0  0
    8.8530    1.5080   21.1430 O   0  0  0  0  0  0  0  0  0  0  0  0
    7.5780   -0.4060   21.1700 N   0  0  0  0  0  0  0  0  0  0  0  0
    6.6160    0.1580   20.2280 C   0  0  0  0  0  0  0  0  0  0  0  0
    6.9310   -0.0910   18.8840 C   0  0  0  0  0  0  0  0  0  0  0  0
    6.2740    0.2970   17.7930 N   0  0  0  0  0  0  0  0  0  0  0  0
    5.2050    0.9960   18.0780 C   0  0  0  0  0  0  0  0  0  0  0  0
    4.7200    1.3480   19.4700 C   0  0  0  0  0  0  0  0  0  0  0  0
    5.4830    0.8960   20.6940 C   0  0  0  0  0  0  0  0  0  0  0  0
    5.7140    0.7890   22.1250 C   0  0  0  0  0  0  0  0  0  0  0  0
   10.3100    2.4880   22.6480 S   0  0  0  0  0  0  0  0  0  0  0  0
  1  2  1  0
  2  3  2  0
  3  4  1  0
  4  5  2  0
  5  6  1  0
  6  7  1  0
  7  8  2  0
  7  9  1  0
  9 10  1  0
 10 11  2  0
 11 12  1  0
 12 13  2  0
 13 14  1  0
 10 15  1  0
 14 15  2  0
 15 16  1  0
  2 17  1  0
  5 17  1  0
M  END
