ALE-UNK-fca05062-2
     RDKit          3D

 50 53  0  0  0  0  0  0  0  0999 V2000
   -0.2940   -8.0190   20.7530 C   0  0  0  0  0  0  0  0  0  0  0  0
   -1.0730   -6.7720   21.0250 C   0  0  0  0  0  0  0  0  0  0  0  0
   -2.5620   -6.9730   21.0650 C   0  0  0  0  0  0  0  0  0  0  0  0
   -0.5940   -6.1580   22.3090 C   0  0  0  0  0  0  0  0  0  0  0  0
    0.4780   -6.5810   23.0080 N   0  0  0  0  0  0  0  0  0  0  0  0
    0.8160   -5.9510   24.1460 C   0  0  0  0  0  0  0  0  0  0  0  0
    1.8220   -6.2120   24.9650 C   0  0  0  0  0  0  0  0  0  0  0  0
    2.9670   -6.9140   24.4660 N   0  0  0  0  0  0  0  0  0  0  0  0
    3.0540   -6.7360   23.0130 C   0  0  0  0  0  0  0  0  0  0  0  0
    4.1750   -6.6770   25.2360 C   0  0  0  0  0  0  0  0  0  0  0  0
    4.3670   -7.1770   26.5000 O   0  0  0  0  0  0  0  0  0  0  0  0
    5.1060   -5.8970   24.5850 N   0  0  0  0  0  0  0  0  0  0  0  0
    6.0300   -5.0460   25.3470 C   0  0  1  0  0  0  0  0  0  0  0  0
    7.0280   -4.3920   24.3540 C   0  0  0  0  0  0  0  0  0  0  0  0
    7.8880   -5.2690   24.2100 O   0  0  0  0  0  0  0  0  0  0  0  0
    7.4430   -3.5610   23.6100 N   0  0  0  0  0  0  0  0  0  0  0  0
    8.4580   -2.6470   23.8430 C   0  0  1  0  0  0  0  0  0  0  0  0
    9.1250   -2.2950   22.7170 C   0  0  0  0  0  0  0  0  0  0  0  0
   10.3950   -1.5950   22.8880 C   0  0  0  0  0  0  0  0  0  0  0  0
   10.3860   -0.2660   22.9620 C   0  0  0  0  0  0  0  0  0  0  0  0
   11.6720    0.4770   23.1020 C   0  0  0  0  0  0  0  0  0  0  0  0
   12.8760   -0.2040   23.1640 C   0  0  0  0  0  0  0  0  0  0  0  0
   12.8790   -1.5660   23.0960 C   0  0  0  0  0  0  0  0  0  0  0  0
   11.6450   -2.2260   22.9600 C   0  0  0  0  0  0  0  0  0  0  0  0
    7.8940   -1.3800   24.5200 C   0  0  0  0  0  0  0  0  0  0  0  0
    6.3890   -1.0050   24.1820 C   0  0  2  0  0  0  0  0  0  0  0  0
    6.1180   -0.8120   22.9970 O   0  0  0  0  0  0  0  0  0  0  0  0
    5.9030    0.1040   24.8890 C   0  0  2  0  0  0  0  0  0  0  0  0
    4.7950   -0.1210   25.7260 C   0  0  0  0  0  0  0  0  0  0  0  0
    5.0800   -0.4410   27.1650 C   0  0  0  0  0  0  0  0  0  0  0  0
    6.3810   -0.7680   27.5370 C   0  0  0  0  0  0  0  0  0  0  0  0
    6.7420   -1.1010   28.9470 C   0  0  0  0  0  0  0  0  0  0  0  0
    5.5670   -1.0420   29.8950 C   0  0  0  0  0  0  0  0  0  0  0  0
    4.2850   -0.7050   29.4500 C   0  0  0  0  0  0  0  0  0  0  0  0
    4.0470   -0.4110   28.1120 C   0  0  0  0  0  0  0  0  0  0  0  0
    5.5830    1.1070   24.0340 N   0  0  0  0  0  0  0  0  0  0  0  0
    5.1490    2.3440   24.4440 C   0  0  0  0  0  0  0  0  0  0  0  0
    3.9700    2.6310   24.6910 O   0  0  0  0  0  0  0  0  0  0  0  0
    6.1970    3.2050   24.5330 O   0  0  0  0  0  0  0  0  0  0  0  0
    7.0390    3.0840   25.6960 C   0  0  0  0  0  0  0  0  0  0  0  0
    6.9690    4.2740   26.4330 C   0  0  0  0  0  0  0  0  0  0  0  0
    7.5810    5.5420   25.8670 C   0  0  0  0  0  0  0  0  0  0  0  0
    7.4260    6.6220   26.7180 N   0  0  0  0  0  0  0  0  0  0  0  0
    6.7710    6.2390   27.8160 C   0  0  0  0  0  0  0  0  0  0  0  0
    6.2710    4.5830   27.9640 S   0  0  0  0  0  0  0  0  0  0  0  0
    5.2260   -4.1370   26.3170 C   0  0  0  0  0  0  0  0  0  0  0  0
    6.0330   -3.2880   27.2780 C   0  0  0  0  0  0  0  0  0  0  0  0
    4.1950   -3.2760   25.5650 C   0  0  0  0  0  0  0  0  0  0  0  0
   -0.1000   -4.9170   24.3570 C   0  0  0  0  0  0  0  0  0  0  0  0
   -1.3080   -4.8240   23.1120 S   0  0  0  0  0  0  0  0  0  0  0  0
  1  2  1  0
  2  3  1  0
  2  4  1  0
  4  5  2  0
  5  6  1  0
  6  7  1  0
  7  8  1  0
  8  9  1  0
  8 10  1  0
 10 11  2  0
 10 12  1  0
 13 12  1  6
 13 14  1  0
 14 15  2  0
 14 16  1  0
 16 17  1  0
 17 18  1  6
 18 19  1  0
 19 20  2  0
 20 21  1  0
 21 22  2  0
 22 23  1  0
 19 24  1  0
 23 24  2  0
 17 25  1  0
 25 26  1  0
 26 27  1  6
 26 28  1  0
 28 29  1  6
 29 30  1  0
 30 31  2  0
 31 32  1  0
 32 33  2  0
 33 34  1  0
 30 35  1  0
 34 35  2  0
 28 36  1  0
 36 37  1  0
 37 38  2  0
 37 39  1  0
 39 40  1  0
 40 41  1  0
 41 42  2  0
 42 43  1  0
 43 44  2  0
 41 45  1  0
 44 45  1  0
 13 46  1  0
 46 47  1  0
 46 48  1  0
  6 49  2  0
  4 50  1  0
 49 50  1  0
M  END
