ALE-UNK-fca05062-4
     RDKit          3D

 19 20  0  0  0  0  0  0  0  0999 V2000
    9.1120   -5.1400   25.8650 O   0  0  0  0  0  0  0  0  0  0  0  0
    8.1660   -4.3710   25.6940 C   0  0  0  0  0  0  0  0  0  0  0  0
    6.9170   -4.5650   26.4630 C   0  0  0  0  0  0  0  0  0  0  0  0
    6.3220   -5.6110   26.2260 O   0  0  0  0  0  0  0  0  0  0  0  0
    5.6840   -6.2430   27.2650 C   0  0  0  0  0  0  0  0  0  0  0  0
    6.4100   -6.3160   28.5500 C   0  0  0  0  0  0  0  0  0  0  0  0
    5.8420   -6.9450   29.6650 C   0  0  0  0  0  0  0  0  0  0  0  0
    4.5110   -7.5510   29.6020 C   0  0  0  0  0  0  0  0  0  0  0  0
    3.8440   -7.4900   28.4420 C   0  0  0  0  0  0  0  0  0  0  0  0
    4.4010   -6.8360   27.2310 C   0  0  0  0  0  0  0  0  0  0  0  0
    8.1430   -3.2780   24.8290 N   0  0  0  0  0  0  0  0  0  0  0  0
    8.8950   -3.0680   23.6270 C   0  0  0  0  0  0  0  0  0  0  0  0
    9.0990   -1.7670   23.0980 C   0  0  0  0  0  0  0  0  0  0  0  0
   10.3940   -1.2960   22.9060 C   0  0  0  0  0  0  0  0  0  0  0  0
   10.7640   -0.0270   23.3430 C   0  0  0  0  0  0  0  0  0  0  0  0
   12.0780    0.5070   23.1800 C   0  0  0  0  0  0  0  0  0  0  0  0
   13.0700   -0.2680   22.5520 C   0  0  0  0  0  0  0  0  0  0  0  0
   12.7000   -1.5490   22.1010 C   0  0  0  0  0  0  0  0  0  0  0  0
   11.4060   -2.0380   22.2730 C   0  0  0  0  0  0  0  0  0  0  0  0
  1  2  2  0
  2  3  1  0
  3  4  1  0
  4  5  1  0
  5  6  2  0
  6  7  1  0
  7  8  2  0
  8  9  1  0
  5 10  1  0
  9 10  2  0
  2 11  1  0
 11 12  1  0
 12 13  1  0
 13 14  1  0
 14 15  2  0
 15 16  1  0
 16 17  2  0
 17 18  1  0
 14 19  1  0
 18 19  2  0
M  END
