ALE-HEI-f28a35b5-12
     RDKit          3D

 14 14  0  0  0  0  0  0  0  0999 V2000
    5.3620    1.2040   22.0460 C   0  0  0  0  0  0  0  0  0  0  0  0
    5.6820    0.9390   20.6300 C   0  0  0  0  0  0  0  0  0  0  0  0
    4.9220    1.5080   19.5800 C   0  0  0  0  0  0  0  0  0  0  0  0
    5.2310    1.2470   18.1440 C   0  0  0  0  0  0  0  0  0  0  0  0
    6.2700    0.4360   17.8020 N   0  0  0  0  0  0  0  0  0  0  0  0
    7.0490   -0.1490   18.7450 C   0  0  0  0  0  0  0  0  0  0  0  0
    6.8800    0.0160   20.2170 C   0  0  0  0  0  0  0  0  0  0  0  0
    7.7330   -0.6210   21.0690 N   0  0  0  0  0  0  0  0  0  0  0  0
    8.5200    0.2750   21.6460 C   0  0  0  0  0  0  0  0  0  0  0  0
    8.7860    1.3720   21.1140 O   0  0  0  0  0  0  0  0  0  0  0  0
    9.1770    0.1080   22.9860 C   0  0  0  0  0  0  0  0  0  0  0  0
   10.6640   -0.2330   22.9970 C   0  0  0  0  0  0  0  0  0  0  0  0
   10.9980   -1.6010   22.4110 C   0  0  0  0  0  0  0  0  0  0  0  0
   12.9250   -1.8170   22.3200 Br  0  0  0  0  0  0  0  0  0  0  0  0
  1  2  1  0
  2  3  2  0
  3  4  1  0
  4  5  2  0
  5  6  1  0
  2  7  1  0
  6  7  2  0
  7  8  1  0
  8  9  1  0
  9 10  2  0
  9 11  1  0
 11 12  1  0
 12 13  1  0
 13 14  1  0
M  END
