ALE-HEI-f28a35b5-4
     RDKit          3D

 16 17  0  0  0  0  0  0  0  0999 V2000
   13.0710    4.8740   22.6030 C   0  0  0  0  0  0  0  0  0  0  0  0
   11.5970    4.4570   22.7480 C   0  0  0  0  0  0  0  0  0  0  0  0
   10.6190    5.4270   22.9500 N   0  0  0  0  0  0  0  0  0  0  0  0
    9.3660    4.8460   23.0440 N   0  0  0  0  0  0  0  0  0  0  0  0
    9.4360    3.4930   22.9140 C   0  0  0  0  0  0  0  0  0  0  0  0
    8.1780    2.7520   22.9850 N   0  0  0  0  0  0  0  0  0  0  0  0
    8.1010    1.3260   22.6440 C   0  0  0  0  0  0  0  0  0  0  0  0
    9.0350    0.5340   22.6780 O   0  0  0  0  0  0  0  0  0  0  0  0
    6.8160    0.9680   22.2500 N   0  0  0  0  0  0  0  0  0  0  0  0
    6.4080    0.8500   20.9100 C   0  0  0  0  0  0  0  0  0  0  0  0
    5.3460    1.5270   20.4400 C   0  0  0  0  0  0  0  0  0  0  0  0
    4.8950    1.4640   19.1260 C   0  0  0  0  0  0  0  0  0  0  0  0
    5.3900    0.7200   18.0270 C   0  0  0  0  0  0  0  0  0  0  0  0
    6.4620    0.0830   18.6590 N   0  0  0  0  0  0  0  0  0  0  0  0
    6.9490    0.1070   19.9280 C   0  0  0  0  0  0  0  0  0  0  0  0
   11.0010    2.8520   22.6850 S   0  0  0  0  0  0  0  0  0  0  0  0
  1  2  1  0
  2  3  2  0
  3  4  1  0
  4  5  2  0
  5  6  1  0
  6  7  1  0
  7  8  2  0
  7  9  1  0
  9 10  1  0
 10 11  2  0
 11 12  1  0
 12 13  2  0
 13 14  1  0
 10 15  1  0
 14 15  2  0
  2 16  1  0
  5 16  1  0
M  END
