ALE-HEI-f28a35b5-6
     RDKit          3D

 17 18  0  0  0  0  0  0  0  0999 V2000
    5.2110    1.1570   21.9280 C   0  0  0  0  0  0  0  0  0  0  0  0
    5.5960    0.8890   20.4790 C   0  0  0  0  0  0  0  0  0  0  0  0
    4.8400    1.4460   19.4520 C   0  0  0  0  0  0  0  0  0  0  0  0
    5.2060    1.1900   18.1370 C   0  0  0  0  0  0  0  0  0  0  0  0
    6.2450    0.4270   17.7640 N   0  0  0  0  0  0  0  0  0  0  0  0
    6.9420   -0.0890   18.7900 C   0  0  0  0  0  0  0  0  0  0  0  0
    6.6970    0.0900   20.1350 C   0  0  0  0  0  0  0  0  0  0  0  0
    7.4780   -0.4690   21.1370 N   0  0  0  0  0  0  0  0  0  0  0  0
    8.6280    0.3150   21.5750 C   0  0  0  0  0  0  0  0  0  0  0  0
    9.0100    1.4510   21.2790 O   0  0  0  0  0  0  0  0  0  0  0  0
    9.4560   -0.3500   22.4560 C   0  0  0  0  0  0  0  0  0  0  0  0
   10.6730   -0.8350   22.9070 C   0  0  0  0  0  0  0  0  0  0  0  0
   11.3930   -1.6910   22.0820 C   0  0  0  0  0  0  0  0  0  0  0  0
   12.7650   -1.7220   22.2330 C   0  0  0  0  0  0  0  0  0  0  0  0
   12.9880   -1.0710   23.5930 C   0  0  0  0  0  0  0  0  0  0  0  0
   12.0510   -1.8610   24.4910 C   0  0  0  0  0  0  0  0  0  0  0  0
   10.7240   -1.5280   24.2640 C   0  0  0  0  0  0  0  0  0  0  0  0
  1  2  1  0
  2  3  2  0
  3  4  1  0
  4  5  2  0
  5  6  1  0
  2  7  1  0
  6  7  2  0
  7  8  1  0
  8  9  1  0
  9 10  2  0
  9 11  1  0
 11 12  1  0
 12 13  1  0
 13 14  1  0
 14 15  1  0
 15 16  1  0
 12 17  1  0
 16 17  1  0
M  END
