ALE-UNK-fca05062-8
     RDKit          3D

 16 16  0  0  0  0  0  0  0  0999 V2000
    3.5360    1.3410   19.4360 C   0  0  0  0  0  0  0  0  0  0  0  0
    4.5420    2.4200   19.6490 C   0  0  0  0  0  0  0  0  0  0  0  0
    4.9170    2.6660   21.0820 C   0  0  0  0  0  0  0  0  0  0  0  0
    6.3850    2.7810   21.4230 C   0  0  1  0  0  0  0  0  0  0  0  0
    7.0000    4.0180   22.0450 C   0  0  0  0  0  0  0  0  0  0  0  0
    6.8180    1.6730   22.0980 N   0  0  0  0  0  0  0  0  0  0  0  0
    8.0070    0.9690   21.9900 C   0  0  0  0  0  0  0  0  0  0  0  0
    8.9270    1.2990   21.2200 O   0  0  0  0  0  0  0  0  0  0  0  0
    8.1000   -0.2220   22.8580 C   0  0  0  0  0  0  0  0  0  0  0  0
    8.9480   -1.2000   22.4100 O   0  0  0  0  0  0  0  0  0  0  0  0
   10.3460   -0.9640   22.5510 C   0  0  0  0  0  0  0  0  0  0  0  0
   10.7300    0.3900   23.0240 C   0  0  0  0  0  0  0  0  0  0  0  0
   12.1940    0.6980   23.1790 C   0  0  0  0  0  0  0  0  0  0  0  0
   13.1030   -0.4240   22.8360 C   0  0  0  0  0  0  0  0  0  0  0  0
   12.6790   -1.6280   22.4170 C   0  0  0  0  0  0  0  0  0  0  0  0
   11.2960   -1.9300   22.2620 C   0  0  0  0  0  0  0  0  0  0  0  0
  1  2  1  0
  2  3  1  0
  3  4  1  0
  4  5  1  1
  4  6  1  0
  6  7  1  0
  7  8  2  0
  7  9  1  0
  9 10  1  0
 10 11  1  0
 11 12  2  0
 12 13  1  0
 13 14  2  0
 14 15  1  0
 11 16  1  0
 15 16  2  0
M  END
