ALI-DIA-59c2fdb0-6
     RDKit          3D

 26 27  0  0  0  0  0  0  0  0999 V2000
    6.3700   -1.7200   27.1460 C   0  0  0  0  0  0  0  0  0  0  0  0
    6.2450   -0.7270   26.0160 C   0  0  0  0  0  0  0  0  0  0  0  0
    5.2290   -0.7300   25.3030 O   0  0  0  0  0  0  0  0  0  0  0  0
    5.1380   -1.8030   24.3470 C   0  0  0  0  0  0  0  0  0  0  0  0
    5.3170   -1.5940   22.8600 C   0  0  0  0  0  0  0  0  0  0  0  0
    5.2360   -2.6220   21.9350 N   0  0  0  0  0  0  0  0  0  0  0  0
    5.7910   -2.6380   20.5830 C   0  0  0  0  0  0  0  0  0  0  0  0
    5.4050   -3.7270   19.7140 O   0  0  0  0  0  0  0  0  0  0  0  0
    6.6650   -1.6450   20.0820 N   0  0  0  0  0  0  0  0  0  0  0  0
    7.7680   -1.2420   20.7650 C   0  0  0  0  0  0  0  0  0  0  0  0
    7.5240   -1.3490   22.1400 N   0  0  0  0  0  0  0  0  0  0  0  0
    8.1410   -2.4180   22.7900 C   0  0  0  0  0  0  0  0  0  0  0  0
    9.3420   -2.1830   23.5430 O   0  0  0  0  0  0  0  0  0  0  0  0
    7.5450   -3.7900   22.6670 C   0  0  0  0  0  0  0  0  0  0  0  0
    6.2890   -3.9730   22.1140 C   0  0  0  0  0  0  0  0  0  0  0  0
    6.0580   -5.2690   21.6550 C   0  0  0  0  0  0  0  0  0  0  0  0
    6.2730   -6.2520   22.6150 C   0  0  0  0  0  0  0  0  0  0  0  0
    7.2180   -5.8620   23.7210 C   0  0  0  0  0  0  0  0  0  0  0  0
    7.6310   -4.5430   23.7910 C   0  0  0  0  0  0  0  0  0  0  0  0
    6.6720   -1.3990   18.6400 C   0  0  0  0  0  0  0  0  0  0  0  0
    5.9910   -0.1010   18.4110 C   0  0  0  0  0  0  0  0  0  0  0  0
    4.9780    0.1820   19.2770 C   0  0  0  0  0  0  0  0  0  0  0  0
    4.5080    1.4080   18.8880 C   0  0  0  0  0  0  0  0  0  0  0  0
    3.4730    2.1390   19.4560 C   0  0  0  0  0  0  0  0  0  0  0  0
    5.2380    1.8230   17.8100 O   0  0  0  0  0  0  0  0  0  0  0  0
    6.1900    0.8430   17.5090 N   0  0  0  0  0  0  0  0  0  0  0  0
  1  2  1  0
  2  3  1  0
  3  4  1  0
  4  5  2  3
  5  6  1  0
  6  7  1  0
  7  8  2  0
  7  9  1  0
  9 10  1  0
 10 11  1  0
 11 12  1  0
 12 13  2  0
 12 14  1  0
 14 15  1  0
 15 16  1  0
 16 17  1  0
 17 18  1  0
 14 19  1  0
 18 19  1  0
  9 20  1  0
 20 21  1  0
 21 22  1  0
 22 23  2  0
 23 24  1  0
 23 25  1  0
 21 26  2  0
 25 26  1  0
M  END
