ALI-DIA-59c2fdb0-2
     RDKit          3D

 29 31  0  0  0  0  0  0  0  0999 V2000
   12.9860   -2.6210   25.0370 C   0  0  0  0  0  0  0  0  0  0  0  0
   13.5520   -2.3730   23.8000 C   0  0  0  0  0  0  0  0  0  0  0  0
   13.2630   -1.4420   23.0740 O   0  0  0  0  0  0  0  0  0  0  0  0
   12.5270   -1.9340   21.9670 C   0  0  0  0  0  0  0  0  0  0  0  0
   11.1770   -1.9600   22.3540 C   0  0  1  0  0  0  0  0  0  0  0  0
   10.6290   -1.0270   23.2650 C   0  0  0  0  0  0  0  0  0  0  0  0
   10.1850   -0.9720   22.0480 N   0  0  0  0  0  0  0  0  0  0  0  0
    8.9030   -1.6100   21.7620 C   0  0  0  0  0  0  0  0  0  0  0  0
    7.9900   -0.8540   21.0110 C   0  0  0  0  0  0  0  0  0  0  0  0
    8.0220    0.3730   20.9940 O   0  0  0  0  0  0  0  0  0  0  0  0
    7.0540   -1.5370   20.2990 N   0  0  0  0  0  0  0  0  0  0  0  0
    6.1710   -2.4550   20.8370 C   0  0  0  0  0  0  0  0  0  0  0  0
    5.4940   -1.8810   21.8830 N   0  0  0  0  0  0  0  0  0  0  0  0
    4.8220   -2.9850   22.9830 S   0  0  0  0  0  0  0  0  0  0  0  0
    3.6270   -3.5700   22.4830 O   0  0  0  0  0  0  0  0  0  0  0  0
    4.7070   -2.4600   24.3270 O   0  0  0  0  0  0  0  0  0  0  0  0
    5.9580   -4.3110   22.8200 C   0  0  0  0  0  0  0  0  0  0  0  0
    6.6700   -4.4580   23.9720 C   0  0  0  0  0  0  0  0  0  0  0  0
    7.5150   -5.5130   23.8730 C   0  0  0  0  0  0  0  0  0  0  0  0
    7.2740   -6.3990   22.8390 C   0  0  0  0  0  0  0  0  0  0  0  0
    5.9220   -6.6420   22.6400 C   0  0  0  0  0  0  0  0  0  0  0  0
    5.2720   -5.4500   22.3820 C   0  0  0  0  0  0  0  0  0  0  0  0
    6.8700   -1.3030   18.8560 C   0  0  0  0  0  0  0  0  0  0  0  0
    6.1140   -0.1780   18.6360 C   0  0  0  0  0  0  0  0  0  0  0  0
    5.1060    0.2170   19.3830 C   0  0  0  0  0  0  0  0  0  0  0  0
    4.5170    1.4070   18.9200 C   0  0  0  0  0  0  0  0  0  0  0  0
    3.4440    2.1400   19.4270 C   0  0  0  0  0  0  0  0  0  0  0  0
    5.2590    1.7220   17.7970 O   0  0  0  0  0  0  0  0  0  0  0  0
    6.2750    0.7360   17.5930 N   0  0  0  0  0  0  0  0  0  0  0  0
  1  2  2  3
  2  3  1  0
  3  4  1  0
  5  4  1  6
  5  6  1  0
  5  7  1  0
  6  7  1  0
  7  8  1  0
  8  9  1  0
  9 10  2  0
  9 11  1  0
 11 12  1  0
 12 13  1  0
 14 13  1  0
 14 15  2  0
 14 16  2  0
 14 17  1  0
 17 18  1  0
 18 19  1  0
 19 20  1  0
 20 21  1  0
 17 22  1  0
 21 22  1  0
 11 23  1  0
 23 24  1  0
 24 25  1  0
 25 26  2  0
 26 27  1  0
 26 28  1  0
 24 29  2  0
 28 29  1  0
M  END
