ALI-DIA-59c2fdb0-5
     RDKit          3D

 28 30  0  0  0  0  0  0  0  0999 V2000
    7.4670   -6.0730   23.1400 C   0  0  0  0  0  0  0  0  0  0  0  0
    6.5650   -7.0520   22.4500 C   0  0  0  0  0  0  0  0  0  0  0  0
    5.3630   -6.5680   21.6930 C   0  0  0  0  0  0  0  0  0  0  0  0
    5.3910   -5.2900   21.3810 N   0  0  0  0  0  0  0  0  0  0  0  0
    5.1110   -4.4080   22.4120 C   0  0  1  0  0  0  0  0  0  0  0  0
    5.6050   -4.5560   23.5900 C   0  0  0  0  0  0  0  0  0  0  0  0
    6.4570   -3.6250   22.9560 C   0  0  2  0  0  0  0  0  0  0  0  0
    6.2740   -2.3200   22.4580 N   0  0  0  0  0  0  0  0  0  0  0  0
    6.1660   -2.2550   21.0630 C   0  0  0  0  0  0  0  0  0  0  0  0
    5.4100   -2.9870   20.4100 O   0  0  0  0  0  0  0  0  0  0  0  0
    6.9880   -1.2960   20.3540 N   0  0  0  0  0  0  0  0  0  0  0  0
    8.1290   -0.8290   21.1640 C   0  0  0  0  0  0  0  0  0  0  0  0
    7.9330    0.5480   21.5620 N   0  0  0  0  0  0  0  0  0  0  0  0
    8.7920    1.3920   22.2100 C   0  0  0  0  0  0  0  0  0  0  0  0
   10.1450    0.9200   22.4600 O   0  0  0  0  0  0  0  0  0  0  0  0
    8.3250    2.6590   22.5980 C   0  0  0  0  0  0  0  0  0  0  0  0
    7.5380    2.6990   23.7430 C   0  0  0  0  0  0  0  0  0  0  0  0
    7.7270    3.9710   24.5210 C   0  0  0  0  0  0  0  0  0  0  0  0
    9.0280    4.1190   25.0260 C   0  0  0  0  0  0  0  0  0  0  0  0
    9.9780    4.0570   23.9870 C   0  0  0  0  0  0  0  0  0  0  0  0
    9.3460    3.7750   22.6340 C   0  0  0  0  0  0  0  0  0  0  0  0
    6.9320   -1.1690   18.9980 C   0  0  0  0  0  0  0  0  0  0  0  0
    6.1390   -0.0810   18.7080 C   0  0  0  0  0  0  0  0  0  0  0  0
    5.0960    0.3460   19.4700 C   0  0  0  0  0  0  0  0  0  0  0  0
    4.5660    1.4280   18.8780 C   0  0  0  0  0  0  0  0  0  0  0  0
    3.4830    2.1630   19.3480 C   0  0  0  0  0  0  0  0  0  0  0  0
    5.2510    1.7110   17.7330 O   0  0  0  0  0  0  0  0  0  0  0  0
    6.2630    0.7300   17.6320 N   0  0  0  0  0  0  0  0  0  0  0  0
  1  2  2  3
  2  3  1  0
  3  4  1  0
  5  4  1  6
  5  6  1  0
  5  7  1  0
  6  7  1  0
  7  8  1  1
  8  9  1  0
  9 10  2  0
  9 11  1  0
 11 12  1  0
 12 13  1  0
 13 14  1  0
 14 15  2  0
 14 16  1  0
 16 17  1  0
 17 18  1  0
 18 19  1  0
 19 20  1  0
 16 21  1  0
 20 21  1  0
 11 22  1  0
 22 23  1  0
 23 24  1  0
 24 25  2  0
 25 26  1  0
 25 27  1  0
 23 28  2  0
 27 28  1  0
M  END
