ALI-DIA-59c2fdb0-3
     RDKit          3D

 29 31  0  0  0  0  0  0  0  0999 V2000
    5.6750   -2.7710   28.5560 C   0  0  0  0  0  0  0  0  0  0  0  0
    6.3390   -2.1540   27.5620 C   0  0  0  0  0  0  0  0  0  0  0  0
    5.5260   -1.3120   26.7230 O   0  0  0  0  0  0  0  0  0  0  0  0
    6.3470   -0.5070   25.8610 C   0  0  0  0  0  0  0  0  0  0  0  0
    5.6200   -0.0920   24.5510 C   0  0  1  0  0  0  0  0  0  0  0  0
    6.0940    1.1360   23.9930 C   0  0  0  0  0  0  0  0  0  0  0  0
    6.1390    0.1980   23.2300 N   0  0  0  0  0  0  0  0  0  0  0  0
    7.2580   -0.6570   22.7990 C   0  0  0  0  0  0  0  0  0  0  0  0
    7.4090   -0.6940   21.3980 C   0  0  0  0  0  0  0  0  0  0  0  0
    8.1830    0.4090   20.9420 O   0  0  0  0  0  0  0  0  0  0  0  0
    6.8370   -1.6810   20.5360 N   0  0  0  0  0  0  0  0  0  0  0  0
    6.1910   -2.8180   21.0280 C   0  0  0  0  0  0  0  0  0  0  0  0
    6.9520   -3.4780   21.9630 N   0  0  0  0  0  0  0  0  0  0  0  0
    6.7950   -5.1010   22.5450 S   0  0  0  0  0  0  0  0  0  0  0  0
    7.3420   -5.9110   21.4850 O   0  0  0  0  0  0  0  0  0  0  0  0
    7.3770   -5.1740   23.8600 O   0  0  0  0  0  0  0  0  0  0  0  0
    5.1220   -5.3340   22.6390 C   0  0  0  0  0  0  0  0  0  0  0  0
    4.3640   -4.1760   23.2430 C   0  0  0  0  0  0  0  0  0  0  0  0
    3.2550   -4.5250   24.0230 C   0  0  0  0  0  0  0  0  0  0  0  0
    3.3730   -5.6240   24.8780 C   0  0  0  0  0  0  0  0  0  0  0  0
    4.3400   -6.5680   24.5390 C   0  0  0  0  0  0  0  0  0  0  0  0
    4.8350   -6.5640   23.2290 C   0  0  0  0  0  0  0  0  0  0  0  0
    6.7590   -1.4170   19.0950 C   0  0  0  0  0  0  0  0  0  0  0  0
    6.0530   -0.2710   18.8050 C   0  0  0  0  0  0  0  0  0  0  0  0
    5.0180    0.1840   19.5660 C   0  0  0  0  0  0  0  0  0  0  0  0
    4.5480    1.4360   18.8960 C   0  0  0  0  0  0  0  0  0  0  0  0
    3.5090    2.2760   19.2880 C   0  0  0  0  0  0  0  0  0  0  0  0
    5.3330    1.6170   17.8050 O   0  0  0  0  0  0  0  0  0  0  0  0
    6.2550    0.5630   17.7510 N   0  0  0  0  0  0  0  0  0  0  0  0
  1  2  1  0
  2  3  1  0
  3  4  1  0
  5  4  1  1
  5  6  1  0
  5  7  1  0
  6  7  1  0
  7  8  1  0
  8  9  1  0
  9 10  2  0
  9 11  1  0
 11 12  1  0
 12 13  1  0
 14 13  1  0
 14 15  2  0
 14 16  2  0
 14 17  1  0
 17 18  1  0
 18 19  1  0
 19 20  1  0
 20 21  1  0
 17 22  1  0
 21 22  1  0
 11 23  1  0
 23 24  1  0
 24 25  1  0
 25 26  2  0
 26 27  1  0
 26 28  1  0
 24 29  2  0
 28 29  1  0
M  END
