ALI-DIA-59c2fdb0-9
     RDKit          3D

 27 28  0  0  0  0  0  0  0  0999 V2000
    2.4400   -8.5770   25.2160 C   0  0  0  0  0  0  0  0  0  0  0  0
    3.4030   -7.3620   25.2990 C   0  0  0  0  0  0  0  0  0  0  0  0
    4.0670   -7.0460   23.9510 C   0  0  0  0  0  0  0  0  0  0  0  0
    4.3340   -5.5960   23.8750 N   0  0  0  0  0  0  0  0  0  0  0  0
    5.2720   -5.0270   23.0590 C   0  0  0  0  0  0  0  0  0  0  0  0
    5.4890   -3.6660   22.8660 C   0  0  0  0  0  0  0  0  0  0  0  0
    6.4800   -3.4290   21.9530 N   0  0  0  0  0  0  0  0  0  0  0  0
    6.1920   -2.9270   20.7010 C   0  0  0  0  0  0  0  0  0  0  0  0
    5.3660   -3.4500   19.9470 O   0  0  0  0  0  0  0  0  0  0  0  0
    6.9090   -1.8060   20.3390 N   0  0  0  0  0  0  0  0  0  0  0  0
    8.1550   -1.4390   20.9770 C   0  0  0  0  0  0  0  0  0  0  0  0
    8.0310   -1.2580   22.3950 N   0  0  0  0  0  0  0  0  0  0  0  0
    8.8460   -0.3240   22.9870 C   0  0  0  0  0  0  0  0  0  0  0  0
    8.4510    0.9840   23.1370 O   0  0  0  0  0  0  0  0  0  0  0  0
   10.2050   -0.8410   23.4310 C   0  0  0  0  0  0  0  0  0  0  0  0
   10.6280   -2.0790   22.9550 C   0  0  0  0  0  0  0  0  0  0  0  0
   11.9820   -2.2740   22.6210 C   0  0  0  0  0  0  0  0  0  0  0  0
   12.9340   -1.2490   22.8080 C   0  0  0  0  0  0  0  0  0  0  0  0
   12.4740    0.0500   22.9800 C   0  0  0  0  0  0  0  0  0  0  0  0
   11.1050    0.2480   22.8760 C   0  0  0  0  0  0  0  0  0  0  0  0
    6.8380   -1.4340   18.9170 C   0  0  0  0  0  0  0  0  0  0  0  0
    6.0940   -0.2840   18.7610 C   0  0  0  0  0  0  0  0  0  0  0  0
    5.0130    0.2240   19.5720 C   0  0  0  0  0  0  0  0  0  0  0  0
    4.4900    1.4750   19.0730 C   0  0  0  0  0  0  0  0  0  0  0  0
    3.8360    2.4690   18.9550 C   0  0  0  0  0  0  0  0  0  0  0  0
    5.3360    1.5990   17.9730 O   0  0  0  0  0  0  0  0  0  0  0  0
    6.2720    0.5810   17.7780 N   0  0  0  0  0  0  0  0  0  0  0  0
  1  2  1  0
  2  3  1  0
  3  4  1  0
  4  5  1  0
  5  6  2  3
  6  7  1  0
  7  8  1  0
  8  9  2  0
  8 10  1  0
 10 11  1  0
 11 12  1  0
 12 13  1  0
 13 14  2  0
 13 15  1  0
 15 16  1  0
 16 17  1  0
 17 18  1  0
 18 19  1  0
 15 20  1  0
 19 20  1  0
 10 21  1  0
 21 22  1  0
 22 23  1  0
 23 24  2  0
 24 25  1  0
 24 26  1  0
 22 27  2  0
 26 27  1  0
M  END
