ALI-DIA-59c2fdb0-8
     RDKit          3D

 26 27  0  0  0  0  0  0  0  0999 V2000
    3.5490   -6.1580   23.2180 C   0  0  0  0  0  0  0  0  0  0  0  0
    4.8680   -6.6910   23.7030 C   0  0  0  0  0  0  0  0  0  0  0  0
    6.0380   -6.5470   22.7700 C   0  0  0  0  0  0  0  0  0  0  0  0
    6.1090   -5.1760   22.2160 C   0  0  0  0  0  0  0  0  0  0  0  0
    6.0930   -4.0340   22.9900 C   0  0  0  0  0  0  0  0  0  0  0  0
    6.1690   -2.7580   22.2820 N   0  0  0  0  0  0  0  0  0  0  0  0
    6.1120   -2.7530   20.8400 C   0  0  0  0  0  0  0  0  0  0  0  0
    5.3980   -3.4910   20.1560 O   0  0  0  0  0  0  0  0  0  0  0  0
    7.0050   -1.7790   20.2730 N   0  0  0  0  0  0  0  0  0  0  0  0
    8.0220   -1.2910   21.0980 C   0  0  0  0  0  0  0  0  0  0  0  0
    7.7580   -0.5600   22.3400 N   0  0  0  0  0  0  0  0  0  0  0  0
    8.4930    0.7080   22.4640 C   0  0  0  0  0  0  0  0  0  0  0  0
    9.9150    0.7890   22.3400 O   0  0  0  0  0  0  0  0  0  0  0  0
    7.6780    1.8290   22.7220 C   0  0  0  0  0  0  0  0  0  0  0  0
    7.7340    2.8120   21.7320 C   0  0  0  0  0  0  0  0  0  0  0  0
    6.7980    3.8440   21.8860 C   0  0  0  0  0  0  0  0  0  0  0  0
    6.3010    4.0290   23.2920 C   0  0  0  0  0  0  0  0  0  0  0  0
    7.2100    3.6320   24.2790 C   0  0  0  0  0  0  0  0  0  0  0  0
    7.7680    2.3790   24.0040 C   0  0  0  0  0  0  0  0  0  0  0  0
    6.8570   -1.2050   18.9480 C   0  0  0  0  0  0  0  0  0  0  0  0
    5.9960   -0.1320   18.8300 C   0  0  0  0  0  0  0  0  0  0  0  0
    4.9690    0.3860   19.5160 C   0  0  0  0  0  0  0  0  0  0  0  0
    4.5150    1.4930   18.8880 C   0  0  0  0  0  0  0  0  0  0  0  0
    3.4710    2.3180   19.2820 C   0  0  0  0  0  0  0  0  0  0  0  0
    5.3420    1.6730   17.6900 O   0  0  0  0  0  0  0  0  0  0  0  0
    6.3070    0.6380   17.6270 N   0  0  0  0  0  0  0  0  0  0  0  0
  1  2  1  0
  2  3  1  0
  3  4  1  0
  4  5  2  3
  5  6  1  0
  6  7  1  0
  7  8  2  0
  7  9  1  0
  9 10  1  0
 10 11  1  0
 11 12  1  0
 12 13  2  0
 12 14  1  0
 14 15  1  0
 15 16  1  0
 16 17  1  0
 17 18  1  0
 14 19  1  0
 18 19  1  0
  9 20  1  0
 20 21  1  0
 21 22  1  0
 22 23  2  0
 23 24  1  0
 23 25  1  0
 21 26  2  0
 25 26  1  0
M  END
