ALI-DIA-59c2fdb0-1
     RDKit          3D

 29 31  0  0  0  0  0  0  0  0999 V2000
    3.4740    2.3790   19.3420 C   0  0  0  0  0  0  0  0  0  0  0  0
    4.5190    1.3970   18.9730 C   0  0  0  0  0  0  0  0  0  0  0  0
    4.8490    0.2470   19.5420 C   0  0  0  0  0  0  0  0  0  0  0  0
    5.9650   -0.2600   18.7060 C   0  0  0  0  0  0  0  0  0  0  0  0
    6.7940   -1.4290   18.7300 C   0  0  0  0  0  0  0  0  0  0  0  0
    6.6750   -1.8140   20.1110 N   0  0  0  0  0  0  0  0  0  0  0  0
    7.6010   -1.1450   20.9270 C   0  0  0  0  0  0  0  0  0  0  0  0
    7.5300    0.2250   21.2020 C   0  0  0  0  0  0  0  0  0  0  0  0
    8.5640    0.8230   22.5290 S   0  0  0  0  0  0  0  0  0  0  0  0
    9.8270    0.1310   22.4260 O   0  0  0  0  0  0  0  0  0  0  0  0
    7.7030    0.6900   23.6720 O   0  0  0  0  0  0  0  0  0  0  0  0
    8.8330    2.6040   22.3140 C   0  0  0  0  0  0  0  0  0  0  0  0
    7.6800    3.3770   22.9390 C   0  0  0  0  0  0  0  0  0  0  0  0
    7.8600    4.7490   22.9400 C   0  0  0  0  0  0  0  0  0  0  0  0
    9.1280    5.0800   23.5330 C   0  0  0  0  0  0  0  0  0  0  0  0
   10.1600    4.0250   23.7670 C   0  0  0  0  0  0  0  0  0  0  0  0
   10.1020    3.0080   22.7270 C   0  0  0  0  0  0  0  0  0  0  0  0
    6.0320   -3.0000   20.5690 C   0  0  0  0  0  0  0  0  0  0  0  0
    5.4910   -3.8310   19.8070 O   0  0  0  0  0  0  0  0  0  0  0  0
    6.0510   -3.1840   21.9680 N   0  0  0  0  0  0  0  0  0  0  0  0
    6.4440   -4.5170   22.4710 C   0  0  2  0  0  0  0  0  0  0  0  0
    5.8560   -5.5040   21.8850 C   0  0  0  0  0  0  0  0  0  0  0  0
    5.3460   -5.6060   23.0590 C   0  0  2  0  0  0  0  0  0  0  0  0
    4.0600   -5.1760   23.4140 C   0  0  0  0  0  0  0  0  0  0  0  0
    3.1520   -6.1650   23.3150 C   0  0  0  0  0  0  0  0  0  0  0  0
    2.5250   -6.3970   24.5900 C   0  0  0  0  0  0  0  0  0  0  0  0
    3.6660   -7.1700   25.7210 Cl  0  0  0  0  0  0  0  0  0  0  0  0
    6.2690    0.5770   17.6830 N   0  0  0  0  0  0  0  0  0  0  0  0
    5.3410    1.6150   17.8700 O   0  0  0  0  0  0  0  0  0  0  0  0
  1  2  1  0
  2  3  2  0
  3  4  1  0
  4  5  1  0
  5  6  1  0
  6  7  1  0
  7  8  1  0
  9  8  1  0
  9 10  2  0
  9 11  2  0
  9 12  1  0
 12 13  1  0
 13 14  1  0
 14 15  1  0
 15 16  1  0
 12 17  1  0
 16 17  1  0
  6 18  1  0
 18 19  2  0
 18 20  1  0
 21 20  1  6
 21 22  1  0
 21 23  1  0
 22 23  1  0
 23 24  1  6
 24 25  1  0
 25 26  1  0
 26 27  1  0
  4 28  2  0
  2 29  1  0
 28 29  1  0
M  END
