ALP-POS-8df010a9-1
     RDKit          3D

 33 35  0  0  0  0  0  0  0  0999 V2000
    1.9920   -8.1490   25.9020 C   0  0  0  0  0  0  0  0  0  0  0  0
    2.1240   -6.8490   25.4430 N   0  0  0  0  0  0  0  0  0  0  0  0
    1.0110   -6.0550   25.0890 C   0  0  0  0  0  0  0  0  0  0  0  0
    3.3960   -6.2950   25.2140 C   0  0  0  0  0  0  0  0  0  0  0  0
    4.0360   -5.4510   26.2440 C   0  0  0  0  0  0  0  0  0  0  0  0
    5.3110   -4.8510   26.1300 C   0  0  0  0  0  0  0  0  0  0  0  0
    6.0920   -5.0670   24.8940 C   0  0  0  0  0  0  0  0  0  0  0  0
    7.3130   -4.5850   24.6530 C   0  0  0  0  0  0  0  0  0  0  0  0
    8.1400   -5.4310   24.4130 O   0  0  0  0  0  0  0  0  0  0  0  0
    7.6920   -3.2160   24.7450 N   0  0  0  0  0  0  0  0  0  0  0  0
    7.9560   -2.3010   23.6470 C   0  0  1  0  0  0  0  0  0  0  0  0
    8.9940   -1.3610   24.1070 C   0  0  0  0  0  0  0  0  0  0  0  0
   10.3220   -1.1840   23.6320 C   0  0  0  0  0  0  0  0  0  0  0  0
   10.7060    0.1120   23.3890 C   0  0  0  0  0  0  0  0  0  0  0  0
   11.9600    0.5190   22.9590 C   0  0  0  0  0  0  0  0  0  0  0  0
   12.9170   -0.4720   22.7450 C   0  0  0  0  0  0  0  0  0  0  0  0
   12.5920   -1.8420   22.9650 C   0  0  0  0  0  0  0  0  0  0  0  0
   11.2770   -2.1880   23.4150 C   0  0  0  0  0  0  0  0  0  0  0  0
    8.1860   -2.9400   22.2970 C   0  0  0  0  0  0  0  0  0  0  0  0
    8.0560   -4.1560   22.1730 O   0  0  0  0  0  0  0  0  0  0  0  0
    8.4610   -1.9460   21.3620 N   0  0  0  0  0  0  0  0  0  0  0  0
    7.9380   -0.6350   21.4620 C   0  0  0  0  0  0  0  0  0  0  0  0
    8.7210    0.5130   21.6410 C   0  0  0  0  0  0  0  0  0  0  0  0
    8.1670    1.8250   21.7590 C   0  0  0  0  0  0  0  0  0  0  0  0
    6.6500    1.9630   21.6840 C   0  0  0  0  0  0  0  0  0  0  0  0
    6.0180    3.2810   21.8090 N   0  0  0  0  0  0  0  0  0  0  0  0
    6.6220    4.1190   22.4990 O   0  0  0  0  0  0  0  0  0  0  0  0
    4.8010    3.3380   21.5830 O   0  0  0  0  0  0  0  0  0  0  0  0
    5.8630    0.8270   21.4990 C   0  0  0  0  0  0  0  0  0  0  0  0
    6.5410   -0.5040   21.3870 C   0  0  0  0  0  0  0  0  0  0  0  0
    5.5430   -1.8980   21.1630 Cl  0  0  0  0  0  0  0  0  0  0  0  0
    5.5310   -5.8550   23.8800 C   0  0  0  0  0  0  0  0  0  0  0  0
    4.1410   -6.4890   24.0460 C   0  0  0  0  0  0  0  0  0  0  0  0
  1  2  1  0
  2  3  1  0
  2  4  1  0
  4  5  2  0
  5  6  1  0
  6  7  2  0
  7  8  1  0
  8  9  2  0
  8 10  1  0
 10 11  1  0
 11 12  1  1
 12 13  1  0
 13 14  2  0
 14 15  1  0
 15 16  2  0
 16 17  1  0
 13 18  1  0
 17 18  2  0
 11 19  1  0
 19 20  2  0
 19 21  1  0
 21 22  1  0
 22 23  2  0
 23 24  1  0
 24 25  2  0
 25 26  1  0
 26 27  2  0
 26 28  1  0
 25 29  1  0
 22 30  1  0
 29 30  2  0
 30 31  1  0
  7 32  1  0
  4 33  1  0
 32 33  2  0
M  CHG  2  26   1  28  -1
M  END
