ALV-UNI-7ff1a6f9-31
     RDKit          3D

 26 30  0  0  0  0  0  0  0  0999 V2000
    4.3850    0.8660   18.9080 C   0  0  0  0  0  0  0  0  0  0  0  0
    5.3970    0.3770   19.9470 C   0  0  0  0  0  0  0  0  0  0  0  0
    6.7150    0.8560   19.8240 C   0  0  0  0  0  0  0  0  0  0  0  0
    7.6710    0.4290   20.7410 C   0  0  0  0  0  0  0  0  0  0  0  0
    7.2140   -0.4390   21.6620 C   0  0  0  0  0  0  0  0  0  0  0  0
    7.9180   -1.0510   22.6380 C   0  0  0  0  0  0  0  0  0  0  0  0
    9.2640   -0.8070   22.7010 C   0  0  0  0  0  0  0  0  0  0  0  0
   10.2130   -1.7350   22.4110 C   0  0  0  0  0  0  0  0  0  0  0  0
   11.5360   -1.9500   22.3010 C   0  0  0  0  0  0  0  0  0  0  0  0
   12.1580   -0.7790   22.5820 C   0  0  0  0  0  0  0  0  0  0  0  0
   13.4440   -0.5500   22.5680 C   0  0  0  0  0  0  0  0  0  0  0  0
   13.7240    0.7270   22.8810 N   0  0  0  0  0  0  0  0  0  0  0  0
   12.4830    1.3160   23.1130 N   0  0  0  0  0  0  0  0  0  0  0  0
   11.4660    0.3240   22.9130 C   0  0  0  0  0  0  0  0  0  0  0  0
    9.9560    0.5040   23.0390 C   0  0  0  0  0  0  0  0  0  0  0  0
    7.0830   -1.8440   23.3980 C   0  0  0  0  0  0  0  0  0  0  0  0
    7.3650   -2.6280   24.5080 C   0  0  0  0  0  0  0  0  0  0  0  0
    8.4400   -3.5130   24.5660 C   0  0  0  0  0  0  0  0  0  0  0  0
    8.7310   -4.3030   25.6550 C   0  0  0  0  0  0  0  0  0  0  0  0
    7.8750   -4.2600   26.9100 C   0  0  0  0  0  0  0  0  0  0  0  0
    8.1460   -5.0180   27.9770 F   0  0  0  0  0  0  0  0  0  0  0  0
    6.6880   -3.3020   26.8940 C   0  0  0  0  0  0  0  0  0  0  0  0
    6.4460   -2.5280   25.7510 C   0  0  0  0  0  0  0  0  0  0  0  0
    5.7300   -1.7090   22.7840 N   0  0  0  0  0  0  0  0  0  0  0  0
    5.9380   -0.8550   21.7580 N   0  0  0  0  0  0  0  0  0  0  0  0
    4.9600   -0.4450   20.8820 N   0  0  0  0  0  0  0  0  0  0  0  0
  1  2  1  0
  2  3  1  0
  3  4  2  0
  4  5  1  0
  5  6  2  0
  6  7  1  0
  7  8  2  0
  8  9  1  0
  9 10  2  0
 10 11  1  0
 11 12  2  0
 12 13  1  0
 10 14  1  0
 13 14  1  0
  7 15  1  0
 14 15  2  0
  6 16  1  0
 16 17  1  0
 17 18  2  0
 18 19  1  0
 19 20  2  0
 20 21  1  0
 20 22  1  0
 17 23  1  0
 22 23  2  0
 16 24  2  0
  5 25  1  0
 24 25  1  0
  2 26  2  0
 25 26  1  0
M  END
