ALV-UNI-7ff1a6f9-12
     RDKit          3D

 26 30  0  0  0  0  0  0  0  0999 V2000
    9.4860    4.1400   25.1900 C   0  0  0  0  0  0  0  0  0  0  0  0
    8.4410    3.7020   24.1970 C   0  0  0  0  0  0  0  0  0  0  0  0
    8.8280    2.9430   23.0160 C   0  0  0  0  0  0  0  0  0  0  0  0
    7.9610    2.5190   22.0650 N   0  0  0  0  0  0  0  0  0  0  0  0
    6.6700    2.8530   22.2720 C   0  0  0  0  0  0  0  0  0  0  0  0
    5.6200    2.5570   21.4460 C   0  0  0  0  0  0  0  0  0  0  0  0
    5.7000    1.8640   20.2430 C   0  0  0  0  0  0  0  0  0  0  0  0
    4.9890    2.3230   19.1130 C   0  0  0  0  0  0  0  0  0  0  0  0
    5.1220    1.5790   17.8160 C   0  0  0  0  0  0  0  0  0  0  0  0
    5.9840    0.4410   17.8930 N   0  0  0  0  0  0  0  0  0  0  0  0
    6.5810    0.1380   19.0770 C   0  0  0  0  0  0  0  0  0  0  0  0
    7.4710   -0.9840   19.3190 N   0  0  0  0  0  0  0  0  0  0  0  0
    7.8040   -0.8210   20.7060 C   0  0  0  0  0  0  0  0  0  0  0  0
    7.0570   -0.2390   19.7050 C   0  0  0  0  0  0  0  0  0  0  0  0
    6.5660    0.7420   20.3860 C   0  0  0  0  0  0  0  0  0  0  0  0
    4.4950    3.1070   22.0490 C   0  0  0  0  0  0  0  0  0  0  0  0
    3.0580    3.0860   21.5360 C   0  0  0  0  0  0  0  0  0  0  0  0
    2.3220    4.3940   21.7250 C   0  0  0  0  0  0  0  0  0  0  0  0
    0.8920    4.4940   21.2620 C   0  0  0  0  0  0  0  0  0  0  0  0
    0.2420    3.2790   20.6250 C   0  0  0  0  0  0  0  0  0  0  0  0
   -1.0310    3.3800   20.2190 F   0  0  0  0  0  0  0  0  0  0  0  0
    0.9180    2.0300   20.4340 C   0  0  0  0  0  0  0  0  0  0  0  0
    2.3890    1.8340   20.8740 C   0  0  0  0  0  0  0  0  0  0  0  0
    4.8750    3.7290   23.2510 N   0  0  0  0  0  0  0  0  0  0  0  0
    6.2100    3.5610   23.3580 N   0  0  0  0  0  0  0  0  0  0  0  0
    7.0880    3.9960   24.3490 C   0  0  0  0  0  0  0  0  0  0  0  0
  1  2  1  0
  2  3  1  0
  3  4  2  0
  4  5  1  0
  5  6  2  0
  6  7  1  0
  7  8  2  0
  8  9  1  0
  9 10  2  0
 10 11  1  0
 11 12  1  0
 12 13  1  0
 13 14  2  0
  7 15  1  0
 11 15  2  0
 14 15  1  0
  6 16  1  0
 16 17  1  0
 17 18  2  0
 18 19  1  0
 19 20  2  0
 20 21  1  0
 20 22  1  0
 17 23  1  0
 22 23  2  0
 16 24  2  0
  5 25  1  0
 24 25  1  0
  2 26  2  0
 25 26  1  0
M  END
