ALV-UNI-7ff1a6f9-21
     RDKit          3D

 26 30  0  0  0  0  0  0  0  0999 V2000
   12.9260   -0.1730   23.6390 C   0  0  0  0  0  0  0  0  0  0  0  0
   11.5490   -0.4600   23.2300 C   0  0  0  0  0  0  0  0  0  0  0  0
   10.8860    0.4770   22.4530 C   0  0  0  0  0  0  0  0  0  0  0  0
    9.7010    0.4330   21.9120 N   0  0  0  0  0  0  0  0  0  0  0  0
    9.0060   -0.7060   22.1620 C   0  0  0  0  0  0  0  0  0  0  0  0
    7.7570   -1.2090   21.7710 C   0  0  0  0  0  0  0  0  0  0  0  0
    6.7650   -0.5300   20.8160 C   0  0  0  0  0  0  0  0  0  0  0  0
    6.7110   -0.1680   19.2800 C   0  0  0  0  0  0  0  0  0  0  0  0
    5.2570    0.6190   18.8700 C   0  0  0  0  0  0  0  0  0  0  0  0
    4.0580    0.9640   19.9140 C   0  0  0  0  0  0  0  0  0  0  0  0
    4.5730    0.4900   20.9440 C   0  0  0  0  0  0  0  0  0  0  0  0
    5.0230    0.5540   19.6800 N   0  0  0  0  0  0  0  0  0  0  0  0
    6.0730    0.2690   18.7070 N   0  0  0  0  0  0  0  0  0  0  0  0
    5.0590    0.5970   19.4060 C   0  0  0  0  0  0  0  0  0  0  0  0
    5.6540    0.0210   20.7260 C   0  0  0  0  0  0  0  0  0  0  0  0
    7.6410   -2.5580   22.5270 C   0  0  0  0  0  0  0  0  0  0  0  0
    6.5900   -3.4780   22.5640 C   0  0  0  0  0  0  0  0  0  0  0  0
    5.3120   -3.0130   22.8060 C   0  0  0  0  0  0  0  0  0  0  0  0
    4.2300   -3.8980   22.8930 C   0  0  0  0  0  0  0  0  0  0  0  0
    4.4090   -5.2730   22.7330 C   0  0  0  0  0  0  0  0  0  0  0  0
    3.3660   -6.1060   22.8250 F   0  0  0  0  0  0  0  0  0  0  0  0
    5.7880   -5.7910   22.4600 C   0  0  0  0  0  0  0  0  0  0  0  0
    6.8280   -4.8590   22.3900 C   0  0  0  0  0  0  0  0  0  0  0  0
    8.7830   -2.7730   23.2300 N   0  0  0  0  0  0  0  0  0  0  0  0
    9.5660   -1.6960   23.0000 N   0  0  0  0  0  0  0  0  0  0  0  0
   10.8350   -1.5420   23.5110 C   0  0  0  0  0  0  0  0  0  0  0  0
  1  2  1  0
  2  3  1  0
  3  4  2  0
  4  5  1  0
  5  6  2  0
  6  7  1  0
  7  8  2  0
  8  9  1  0
  9 10  2  0
 10 11  1  0
 11 12  1  0
 12 13  1  0
 13 14  2  0
  7 15  1  0
 11 15  2  0
 14 15  1  0
  6 16  1  0
 16 17  1  0
 17 18  2  0
 18 19  1  0
 19 20  2  0
 20 21  1  0
 20 22  1  0
 17 23  1  0
 22 23  2  0
 16 24  2  0
  5 25  1  0
 24 25  1  0
  2 26  2  0
 25 26  1  0
M  END
