ALV-UNI-7ff1a6f9-39
     RDKit          3D

 26 30  0  0  0  0  0  0  0  0999 V2000
   -0.7450    2.4530   23.7870 C   0  0  0  0  0  0  0  0  0  0  0  0
    0.5870    2.2820   23.1840 C   0  0  0  0  0  0  0  0  0  0  0  0
    0.7050    1.7520   21.9010 C   0  0  0  0  0  0  0  0  0  0  0  0
    1.9220    1.5720   21.2990 C   0  0  0  0  0  0  0  0  0  0  0  0
    2.9830    1.9300   22.0080 N   0  0  0  0  0  0  0  0  0  0  0  0
    4.2590    1.8320   21.6180 C   0  0  0  0  0  0  0  0  0  0  0  0
    4.9580    1.3370   20.3790 C   0  0  0  0  0  0  0  0  0  0  0  0
    4.4450    1.9090   19.0580 C   0  0  0  0  0  0  0  0  0  0  0  0
    5.1470    1.4100   17.8500 C   0  0  0  0  0  0  0  0  0  0  0  0
    6.1390    0.5290   17.9230 N   0  0  0  0  0  0  0  0  0  0  0  0
    6.4750    0.1220   19.1590 C   0  0  0  0  0  0  0  0  0  0  0  0
    7.5630   -0.8560   19.3960 N   0  0  0  0  0  0  0  0  0  0  0  0
    7.8360   -1.1920   20.7080 C   0  0  0  0  0  0  0  0  0  0  0  0
    6.9680   -0.3930   20.1560 C   0  0  0  0  0  0  0  0  0  0  0  0
    6.0120    0.4080   20.5070 C   0  0  0  0  0  0  0  0  0  0  0  0
    4.9970    2.3860   22.8180 C   0  0  0  0  0  0  0  0  0  0  0  0
    6.3920    2.4580   22.7960 C   0  0  0  0  0  0  0  0  0  0  0  0
    7.1120    1.3310   23.1470 C   0  0  0  0  0  0  0  0  0  0  0  0
    8.5020    1.2810   23.1570 C   0  0  0  0  0  0  0  0  0  0  0  0
    9.2170    2.4240   22.7960 C   0  0  0  0  0  0  0  0  0  0  0  0
   10.5550    2.4130   22.7950 F   0  0  0  0  0  0  0  0  0  0  0  0
    8.4700    3.6790   22.4070 C   0  0  0  0  0  0  0  0  0  0  0  0
    7.0600    3.6390   22.4230 C   0  0  0  0  0  0  0  0  0  0  0  0
    4.1030    2.7550   23.8040 N   0  0  0  0  0  0  0  0  0  0  0  0
    2.8880    2.4730   23.3050 C   0  0  0  0  0  0  0  0  0  0  0  0
    1.6430    2.6450   23.8860 N   0  0  0  0  0  0  0  0  0  0  0  0
  1  2  1  0
  2  3  1  0
  3  4  2  0
  4  5  1  0
  5  6  1  0
  6  7  1  0
  7  8  2  0
  8  9  1  0
  9 10  2  0
 10 11  1  0
 11 12  1  0
 12 13  1  0
 13 14  2  0
  7 15  1  0
 11 15  2  0
 14 15  1  0
  6 16  2  0
 16 17  1  0
 17 18  2  0
 18 19  1  0
 19 20  2  0
 20 21  1  0
 20 22  1  0
 17 23  1  0
 22 23  2  0
 16 24  1  0
  5 25  1  0
 24 25  2  0
  2 26  2  0
 25 26  1  0
M  END
