ALV-UNI-7ff1a6f9-7
     RDKit          3D

 23 26  0  0  0  0  0  0  0  0999 V2000
    5.1480    1.0970   22.4010 C   0  0  0  0  0  0  0  0  0  0  0  0
    4.3830    0.7620   21.1210 C   0  0  0  0  0  0  0  0  0  0  0  0
    4.5190    0.4980   19.8180 C   0  0  0  0  0  0  0  0  0  0  0  0
    3.8970    1.6630   19.3040 C   0  0  0  0  0  0  0  0  0  0  0  0
    4.6450    1.2300   18.3900 N   0  0  0  0  0  0  0  0  0  0  0  0
    5.2830    1.1540   19.7130 C   0  0  0  0  0  0  0  0  0  0  0  0
    4.4930    1.7030   20.7620 C   0  0  0  0  0  0  0  0  0  0  0  0
    3.3980    0.9770   21.3500 C   0  0  0  0  0  0  0  0  0  0  0  0
    2.5330    1.5790   22.4770 C   0  0  0  0  0  0  0  0  0  0  0  0
    2.9170    2.9350   22.8900 N   0  0  0  0  0  0  0  0  0  0  0  0
    3.9600    3.6460   22.3390 C   0  0  0  0  0  0  0  0  0  0  0  0
    4.7660    3.0180   21.2490 C   0  0  0  0  0  0  0  0  0  0  0  0
    6.6520    0.5340   19.6580 C   0  0  0  0  0  0  0  0  0  0  0  0
    7.6410    0.2590   20.6290 C   0  0  0  0  0  0  0  0  0  0  0  0
    8.4540    1.3740   21.3040 C   0  0  0  0  0  0  0  0  0  0  0  0
    9.5190    1.0200   22.3400 C   0  0  0  0  0  0  0  0  0  0  0  0
    9.7720   -0.4430   22.7020 C   0  0  0  0  0  0  0  0  0  0  0  0
   10.7090   -0.7570   23.6030 F   0  0  0  0  0  0  0  0  0  0  0  0
    8.9620   -1.5530   22.0460 C   0  0  0  0  0  0  0  0  0  0  0  0
    7.9020   -1.1910   21.0140 C   0  0  0  0  0  0  0  0  0  0  0  0
    6.8920    0.2240   18.3540 N   0  0  0  0  0  0  0  0  0  0  0  0
    5.7540    0.7860   18.7770 C   0  0  0  0  0  0  0  0  0  0  0  0
    5.6910    1.0010   20.4230 C   0  0  0  0  0  0  0  0  0  0  0  0
  1  2  1  0
  2  3  1  0
  3  4  2  0
  4  5  1  0
  5  6  1  0
  6  7  1  0
  7  8  2  0
  8  9  1  0
  9 10  2  0
 10 11  1  0
  7 12  1  0
 11 12  2  0
  6 13  2  0
 13 14  1  0
 14 15  2  0
 15 16  1  0
 16 17  2  0
 17 18  1  0
 17 19  1  0
 14 20  1  0
 19 20  2  0
 13 21  1  0
  5 22  1  0
 21 22  2  0
  2 23  2  0
 22 23  1  0
M  END
