ALV-UNI-7ff1a6f9-22
     RDKit          3D

 26 30  0  0  0  0  0  0  0  0999 V2000
    4.6480    0.8460   18.5430 C   0  0  0  0  0  0  0  0  0  0  0  0
    5.6400    0.3440   19.5890 C   0  0  0  0  0  0  0  0  0  0  0  0
    6.8780    0.8430   19.5680 C   0  0  0  0  0  0  0  0  0  0  0  0
    7.9230    0.4370   20.5180 N   0  0  0  0  0  0  0  0  0  0  0  0
    7.4880   -0.5710   21.4530 C   0  0  0  0  0  0  0  0  0  0  0  0
    8.2670   -1.2710   22.5370 C   0  0  0  0  0  0  0  0  0  0  0  0
    9.7030   -0.8530   22.6120 C   0  0  0  0  0  0  0  0  0  0  0  0
   10.8680   -1.8640   22.4460 C   0  0  0  0  0  0  0  0  0  0  0  0
   12.2690   -1.1770   22.5280 C   0  0  0  0  0  0  0  0  0  0  0  0
   12.4490    0.1600   22.7180 C   0  0  0  0  0  0  0  0  0  0  0  0
   13.5990    1.0080   22.8150 N   0  0  0  0  0  0  0  0  0  0  0  0
   13.3090    2.3280   22.9910 N   0  0  0  0  0  0  0  0  0  0  0  0
   11.9850    2.2250   23.0050 C   0  0  0  0  0  0  0  0  0  0  0  0
   11.4230    1.0200   22.8580 C   0  0  0  0  0  0  0  0  0  0  0  0
   10.0060    0.5970   22.8240 C   0  0  0  0  0  0  0  0  0  0  0  0
    7.4240   -2.1380   23.2040 C   0  0  0  0  0  0  0  0  0  0  0  0
    7.6790   -2.9700   24.2900 C   0  0  0  0  0  0  0  0  0  0  0  0
    7.9760   -4.3060   24.1310 C   0  0  0  0  0  0  0  0  0  0  0  0
    8.2100   -5.0780   25.2530 C   0  0  0  0  0  0  0  0  0  0  0  0
    8.1470   -4.5260   26.5300 C   0  0  0  0  0  0  0  0  0  0  0  0
    8.3760   -5.3060   27.5940 F   0  0  0  0  0  0  0  0  0  0  0  0
    7.8520   -3.1870   26.7340 C   0  0  0  0  0  0  0  0  0  0  0  0
    7.6170   -2.4070   25.5690 C   0  0  0  0  0  0  0  0  0  0  0  0
    6.1150   -2.0160   22.5270 N   0  0  0  0  0  0  0  0  0  0  0  0
    6.2360   -1.0730   21.4970 N   0  0  0  0  0  0  0  0  0  0  0  0
    5.3200   -0.6070   20.5650 C   0  0  0  0  0  0  0  0  0  0  0  0
  1  2  1  0
  2  3  1  0
  3  4  2  0
  4  5  1  0
  5  6  2  0
  6  7  1  0
  7  8  2  0
  8  9  1  0
  9 10  2  0
 10 11  1  0
 11 12  1  0
 12 13  2  0
 10 14  1  0
 13 14  1  0
  7 15  1  0
 14 15  2  0
  6 16  1  0
 16 17  1  0
 17 18  2  0
 18 19  1  0
 19 20  2  0
 20 21  1  0
 20 22  1  0
 17 23  1  0
 22 23  2  0
 16 24  2  0
  5 25  1  0
 24 25  1  0
  2 26  2  0
 25 26  1  0
M  END
