ALV-UNI-7ff1a6f9-26
     RDKit          3D

 24 27  0  0  0  0  0  0  0  0999 V2000
    6.1710    3.1680   27.3870 C   0  0  0  0  0  0  0  0  0  0  0  0
    6.0630    2.2850   26.2150 C   0  0  0  0  0  0  0  0  0  0  0  0
    5.7050    2.8300   24.9800 C   0  0  0  0  0  0  0  0  0  0  0  0
    5.5590    2.2410   23.8310 N   0  0  0  0  0  0  0  0  0  0  0  0
    5.7970    0.8890   23.8390 C   0  0  0  0  0  0  0  0  0  0  0  0
    5.7610   -0.1040   22.8460 C   0  0  0  0  0  0  0  0  0  0  0  0
    5.3790    0.2860   21.4380 C   0  0  0  0  0  0  0  0  0  0  0  0
    6.3750    0.1450   20.2760 C   0  0  0  0  0  0  0  0  0  0  0  0
    5.7920    0.6040   18.9580 C   0  0  0  0  0  0  0  0  0  0  0  0
    4.5300    1.0810   18.8480 N   0  0  0  0  0  0  0  0  0  0  0  0
    3.7450    1.1500   19.9530 C   0  0  0  0  0  0  0  0  0  0  0  0
    2.4500    1.6300   19.8420 N   0  0  0  0  0  0  0  0  0  0  0  0
    4.1180    0.7860   21.1860 C   0  0  0  0  0  0  0  0  0  0  0  0
    6.1210   -1.3190   23.5270 C   0  0  0  0  0  0  0  0  0  0  0  0
    6.2650   -2.6450   23.0840 C   0  0  0  0  0  0  0  0  0  0  0  0
    7.1910   -3.4700   23.7310 C   0  0  0  0  0  0  0  0  0  0  0  0
    7.3780   -4.7960   23.3490 C   0  0  0  0  0  0  0  0  0  0  0  0
    6.6350   -5.3100   22.3140 C   0  0  0  0  0  0  0  0  0  0  0  0
    6.8190   -6.5760   21.9550 F   0  0  0  0  0  0  0  0  0  0  0  0
    5.6970   -4.5100   21.6420 C   0  0  0  0  0  0  0  0  0  0  0  0
    5.5070   -3.1710   22.0260 C   0  0  0  0  0  0  0  0  0  0  0  0
    6.3550   -1.0790   24.8280 N   0  0  0  0  0  0  0  0  0  0  0  0
    6.1570    0.2410   25.0090 N   0  0  0  0  0  0  0  0  0  0  0  0
    6.2790    0.9620   26.1920 C   0  0  0  0  0  0  0  0  0  0  0  0
  1  2  1  0
  2  3  1  0
  3  4  2  0
  4  5  1  0
  5  6  2  0
  6  7  1  0
  7  8  2  0
  8  9  1  0
  9 10  2  0
 10 11  1  0
 11 12  1  0
  7 13  1  0
 11 13  2  0
  6 14  1  0
 14 15  1  0
 15 16  2  0
 16 17  1  0
 17 18  2  0
 18 19  1  0
 18 20  1  0
 15 21  1  0
 20 21  2  0
 14 22  2  0
  5 23  1  0
 22 23  1  0
  2 24  2  0
 23 24  1  0
M  END
