ALV-UNI-7ff1a6f9-4
     RDKit          3D

 23 26  0  0  0  0  0  0  0  0999 V2000
    7.9430    0.6340   21.0580 C   0  0  0  0  0  0  0  0  0  0  0  0
    8.6470   -0.0570   22.0030 C   0  0  0  0  0  0  0  0  0  0  0  0
    9.4320   -0.8310   23.0590 C   0  0  0  0  0  0  0  0  0  0  0  0
    9.2390   -2.0930   23.3350 N   0  0  0  0  0  0  0  0  0  0  0  0
    8.3190   -2.5590   22.6120 C   0  0  0  0  0  0  0  0  0  0  0  0
    7.3800   -2.6850   21.7520 C   0  0  0  0  0  0  0  0  0  0  0  0
    7.7100   -1.1490   21.5060 C   0  0  0  0  0  0  0  0  0  0  0  0
    6.4960   -2.4820   20.8390 N   0  0  0  0  0  0  0  0  0  0  0  0
    7.0940   -1.2520   20.9980 C   0  0  0  0  0  0  0  0  0  0  0  0
    6.4220   -0.2580   20.0300 C   0  0  0  0  0  0  0  0  0  0  0  0
    5.1790    0.3150   20.7200 C   0  0  0  0  0  0  0  0  0  0  0  0
    4.3710    1.2090   20.1070 C   0  0  0  0  0  0  0  0  0  0  0  0
    4.7840    1.5840   18.7290 C   0  0  0  0  0  0  0  0  0  0  0  0
    4.0450    2.4660   18.0510 F   0  0  0  0  0  0  0  0  0  0  0  0
    5.9230    1.0330   18.1550 C   0  0  0  0  0  0  0  0  0  0  0  0
    6.9810   -0.0140   18.7160 C   0  0  0  0  0  0  0  0  0  0  0  0
    8.1240   -1.2120   21.9770 N   0  0  0  0  0  0  0  0  0  0  0  0
    8.8750   -0.1350   22.3540 C   0  0  0  0  0  0  0  0  0  0  0  0
    8.2850    0.8930   23.3700 C   0  0  0  0  0  0  0  0  0  0  0  0
    9.0640    1.9830   23.7330 C   0  0  0  0  0  0  0  0  0  0  0  0
   10.3090    2.1950   23.2420 N   0  0  0  0  0  0  0  0  0  0  0  0
   10.8280    1.2950   22.3620 C   0  0  0  0  0  0  0  0  0  0  0  0
   10.1830    0.1340   21.8860 C   0  0  0  0  0  0  0  0  0  0  0  0
  1  2  1  0
  2  3  2  0
  3  4  1  0
  4  5  2  0
  5  6  1  0
  2  7  1  0
  6  7  2  0
  6  8  1  0
  8  9  2  0
  9 10  1  0
 10 11  2  0
 11 12  1  0
 12 13  2  0
 13 14  1  0
 13 15  1  0
 10 16  1  0
 15 16  2  0
  5 17  1  0
  9 17  1  0
 17 18  1  0
 18 19  2  0
 19 20  1  0
 20 21  2  0
 21 22  1  0
 18 23  1  0
 22 23  2  0
M  END
