ALV-UNI-7ff1a6f9-2
     RDKit          3D

 23 26  0  0  0  0  0  0  0  0999 V2000
   11.8980    2.8110   23.0220 C   0  0  0  0  0  0  0  0  0  0  0  0
   10.6140    2.1670   22.6640 C   0  0  0  0  0  0  0  0  0  0  0  0
    9.6240    2.8650   22.0280 C   0  0  0  0  0  0  0  0  0  0  0  0
    8.3640    2.1370   21.5690 C   0  0  0  0  0  0  0  0  0  0  0  0
    8.2920    0.7790   21.8920 C   0  0  0  0  0  0  0  0  0  0  0  0
    7.2990   -0.1410   21.6240 C   0  0  0  0  0  0  0  0  0  0  0  0
    6.2100    0.3140   20.8840 C   0  0  0  0  0  0  0  0  0  0  0  0
    6.4350    0.2040   19.3760 C   0  0  0  0  0  0  0  0  0  0  0  0
    5.2970    0.7040   18.4680 C   0  0  0  0  0  0  0  0  0  0  0  0
    4.1550    1.2150   19.0590 N   0  0  0  0  0  0  0  0  0  0  0  0
    3.9730    1.2980   20.3910 C   0  0  0  0  0  0  0  0  0  0  0  0
    4.9030    0.8910   21.3740 C   0  0  0  0  0  0  0  0  0  0  0  0
    7.7810   -1.3530   22.2600 C   0  0  0  0  0  0  0  0  0  0  0  0
    7.2190   -2.6910   22.3960 C   0  0  0  0  0  0  0  0  0  0  0  0
    6.0120   -3.1060   21.8120 C   0  0  0  0  0  0  0  0  0  0  0  0
    5.5640   -4.4200   22.0110 C   0  0  0  0  0  0  0  0  0  0  0  0
    6.3040   -5.3040   22.7800 C   0  0  0  0  0  0  0  0  0  0  0  0
    5.8620   -6.5530   22.9630 F   0  0  0  0  0  0  0  0  0  0  0  0
    7.4900   -4.9130   23.3620 C   0  0  0  0  0  0  0  0  0  0  0  0
    7.9490   -3.6090   23.1710 C   0  0  0  0  0  0  0  0  0  0  0  0
    9.0030   -1.1420   22.8270 N   0  0  0  0  0  0  0  0  0  0  0  0
    9.2850    0.1800   22.5710 N   0  0  0  0  0  0  0  0  0  0  0  0
   10.4190    0.7880   22.9480 N   0  0  0  0  0  0  0  0  0  0  0  0
  1  2  1  0
  2  3  1  0
  3  4  2  0
  4  5  1  0
  5  6  2  0
  6  7  1  0
  7  8  2  0
  8  9  1  0
  9 10  2  0
 10 11  1  0
  7 12  1  0
 11 12  2  0
  6 13  1  0
 13 14  1  0
 14 15  2  0
 15 16  1  0
 16 17  2  0
 17 18  1  0
 17 19  1  0
 14 20  1  0
 19 20  2  0
 13 21  2  0
  5 22  1  0
 21 22  1  0
  2 23  2  0
 22 23  1  0
M  END
