ALV-UNI-7ff1a6f9-14
     RDKit          3D

 26 30  0  0  0  0  0  0  0  0999 V2000
    5.5500    3.7890   21.5690 C   0  0  0  0  0  0  0  0  0  0  0  0
    6.1340    2.4220   21.3350 C   0  0  0  0  0  0  0  0  0  0  0  0
    7.2580    1.9100   21.9510 C   0  0  0  0  0  0  0  0  0  0  0  0
    7.7370    0.5780   21.6420 C   0  0  0  0  0  0  0  0  0  0  0  0
    7.3670   -0.5490   20.7510 N   0  0  0  0  0  0  0  0  0  0  0  0
    8.1540   -0.3990   21.4590 C   0  0  0  0  0  0  0  0  0  0  0  0
    8.2710    0.7850   22.2520 C   0  0  0  0  0  0  0  0  0  0  0  0
    9.0380    1.9680   21.9390 C   0  0  0  0  0  0  0  0  0  0  0  0
    9.0890    3.1650   22.9080 C   0  0  0  0  0  0  0  0  0  0  0  0
    8.2400    2.8900   24.1460 C   0  0  0  0  0  0  0  0  0  0  0  0
    8.0430    3.8100   25.2910 N   0  0  0  0  0  0  0  0  0  0  0  0
    7.1990    3.2590   26.2650 N   0  0  0  0  0  0  0  0  0  0  0  0
    6.9230    1.9850   25.6310 C   0  0  0  0  0  0  0  0  0  0  0  0
    7.5390    1.7350   24.3550 C   0  0  0  0  0  0  0  0  0  0  0  0
    7.5080    0.6440   23.4620 C   0  0  0  0  0  0  0  0  0  0  0  0
    8.9300   -1.0610   21.6950 C   0  0  0  0  0  0  0  0  0  0  0  0
   10.1600   -1.1380   22.6030 C   0  0  0  0  0  0  0  0  0  0  0  0
   11.1980   -0.0420   22.6210 C   0  0  0  0  0  0  0  0  0  0  0  0
   12.4270   -0.2140   23.4950 C   0  0  0  0  0  0  0  0  0  0  0  0
   12.5540   -1.4800   24.3290 C   0  0  0  0  0  0  0  0  0  0  0  0
   13.5940   -1.7020   25.1160 F   0  0  0  0  0  0  0  0  0  0  0  0
   11.5790   -2.4830   24.3170 C   0  0  0  0  0  0  0  0  0  0  0  0
   10.3240   -2.4030   23.4730 C   0  0  0  0  0  0  0  0  0  0  0  0
    7.9300    0.2790   21.6590 N   0  0  0  0  0  0  0  0  0  0  0  0
    6.6120    0.1700   20.5460 C   0  0  0  0  0  0  0  0  0  0  0  0
    5.7510    1.4410   20.5530 C   0  0  0  0  0  0  0  0  0  0  0  0
  1  2  1  0
  2  3  1  0
  3  4  2  0
  4  5  1  0
  5  6  1  0
  6  7  1  0
  7  8  2  0
  8  9  1  0
  9 10  2  0
 10 11  1  0
 11 12  1  0
 12 13  2  0
 10 14  1  0
 13 14  1  0
  7 15  1  0
 14 15  2  0
  6 16  2  0
 16 17  1  0
 17 18  2  0
 18 19  1  0
 19 20  2  0
 20 21  1  0
 20 22  1  0
 17 23  1  0
 22 23  2  0
 16 24  1  0
  5 25  1  0
 24 25  2  0
  2 26  2  0
 25 26  1  0
M  END
