ALV-UNI-7ff1a6f9-36
     RDKit          3D

 23 26  0  0  0  0  0  0  0  0999 V2000
    6.4800   -2.1480   27.7850 C   0  0  0  0  0  0  0  0  0  0  0  0
    6.4310   -2.4010   26.2850 C   0  0  0  0  0  0  0  0  0  0  0  0
    6.5550   -1.5140   25.3280 C   0  0  0  0  0  0  0  0  0  0  0  0
    6.4550   -2.1070   23.9950 C   0  0  0  0  0  0  0  0  0  0  0  0
    6.5470   -1.2960   22.6880 C   0  0  0  0  0  0  0  0  0  0  0  0
    7.0930    0.0740   22.4960 C   0  0  0  0  0  0  0  0  0  0  0  0
    7.6590    1.1250   23.2740 C   0  0  0  0  0  0  0  0  0  0  0  0
    7.5640    2.5920   23.5160 C   0  0  0  0  0  0  0  0  0  0  0  0
    6.6570    2.8720   22.7430 C   0  0  0  0  0  0  0  0  0  0  0  0
    5.8160    3.8300   22.1890 C   0  0  0  0  0  0  0  0  0  0  0  0
    5.4750    5.1240   22.1720 F   0  0  0  0  0  0  0  0  0  0  0  0
    5.5080    2.6550   21.6430 C   0  0  0  0  0  0  0  0  0  0  0  0
    6.4480    1.4110   22.2250 C   0  0  0  0  0  0  0  0  0  0  0  0
    7.0220    0.5590   21.2070 N   0  0  0  0  0  0  0  0  0  0  0  0
    6.4300   -0.4160   20.6000 N   0  0  0  0  0  0  0  0  0  0  0  0
    6.2240   -0.0810   19.4320 N   0  0  0  0  0  0  0  0  0  0  0  0
    5.5030   -1.0780   18.8570 C   0  0  0  0  0  0  0  0  0  0  0  0
    5.2290   -0.4980   17.7030 C   0  0  0  0  0  0  0  0  0  0  0  0
    5.1310   -2.3570   19.3640 C   0  0  0  0  0  0  0  0  0  0  0  0
    5.4620   -2.6240   20.6890 C   0  0  0  0  0  0  0  0  0  0  0  0
    6.0960   -1.5730   21.2880 C   0  0  0  0  0  0  0  0  0  0  0  0
    6.2680   -3.4020   24.2690 N   0  0  0  0  0  0  0  0  0  0  0  0
    6.2440   -3.6220   25.6810 N   0  0  0  0  0  0  0  0  0  0  0  0
  1  2  1  0
  2  3  1  0
  3  4  2  0
  4  5  1  0
  5  6  1  0
  6  7  1  0
  7  8  2  0
  8  9  1  0
  9 10  2  0
 10 11  1  0
 10 12  1  0
  7 13  1  0
 12 13  2  0
  6 14  2  0
 14 15  1  0
 15 16  1  0
 16 17  2  0
 17 18  1  0
 17 19  1  0
 19 20  2  0
  5 21  2  0
 15 21  1  0
 20 21  1  0
  4 22  1  0
  2 23  2  0
 22 23  1  0
M  END
