ALV-UNI-7ff1a6f9-47
     RDKit          3D

 22 24  0  0  0  0  0  0  0  0999 V2000
   13.4480   -2.0410   20.9040 C   0  0  0  0  0  0  0  0  0  0  0  0
   12.1150   -2.3590   21.0430 O   0  0  0  0  0  0  0  0  0  0  0  0
   11.6580   -1.9880   22.2390 C   0  0  0  0  0  0  0  0  0  0  0  0
   12.4130   -2.3500   23.4350 C   0  0  0  0  0  0  0  0  0  0  0  0
   11.9240   -1.9500   24.5960 C   0  0  0  0  0  0  0  0  0  0  0  0
   10.7840   -1.2580   24.4210 N   0  0  0  0  0  0  0  0  0  0  0  0
   10.0760   -0.9220   23.2880 C   0  0  0  0  0  0  0  0  0  0  0  0
    8.9220   -0.2010   23.3320 N   0  0  0  0  0  0  0  0  0  0  0  0
    8.6120    0.1740   22.0510 C   0  0  0  0  0  0  0  0  0  0  0  0
    8.9360    1.3820   21.3040 O   0  0  0  0  0  0  0  0  0  0  0  0
    7.8380   -0.7850   21.3500 C   0  0  0  0  0  0  0  0  0  0  0  0
    7.1050   -0.2130   20.1500 C   0  0  0  0  0  0  0  0  0  0  0  0
    7.2620   -0.3390   18.7170 C   0  0  0  0  0  0  0  0  0  0  0  0
    6.0820    0.6290   18.6530 C   0  0  0  0  0  0  0  0  0  0  0  0
    5.0650    1.4370   19.4550 C   0  0  0  0  0  0  0  0  0  0  0  0
    4.0670    2.3000   18.7100 C   0  0  0  0  0  0  0  0  0  0  0  0
    3.1030    3.0360   19.5640 C   0  0  0  0  0  0  0  0  0  0  0  0
    3.9340    2.3120   20.3950 C   0  0  0  0  0  0  0  0  0  0  0  0
    4.2800    1.9640   21.6580 C   0  0  0  0  0  0  0  0  0  0  0  0
    5.3800    1.1080   21.0050 C   0  0  0  0  0  0  0  0  0  0  0  0
    5.9900    0.6670   19.7720 C   0  0  0  0  0  0  0  0  0  0  0  0
   10.4960   -1.2950   21.9860 C   0  0  0  0  0  0  0  0  0  0  0  0
  1  2  1  0
  2  3  1  0
  3  4  2  0
  4  5  1  0
  5  6  2  0
  6  7  1  0
  7  8  1  0
  8  9  1  0
  9 10  2  0
  9 11  1  0
 11 12  1  0
 12 13  2  0
 13 14  1  0
 14 15  2  0
 15 16  1  0
 16 17  2  0
 17 18  1  0
 18 19  2  0
 15 20  1  0
 19 20  1  0
 12 21  1  0
 20 21  2  0
  3 22  1  0
  7 22  2  0
M  END
