ALV-UNI-7ff1a6f9-45
     RDKit          3D

 21 23  0  0  0  0  0  0  0  0999 V2000
   12.5260   -2.1480   21.3240 C   0  0  0  0  0  0  0  0  0  0  0  0
   11.4070   -1.4600   22.0870 C   0  0  0  0  0  0  0  0  0  0  0  0
   10.0580   -1.6330   21.9340 C   0  0  0  0  0  0  0  0  0  0  0  0
    8.9330   -0.8930   22.7500 C   0  0  0  0  0  0  0  0  0  0  0  0
    9.2190    0.0200   23.7180 N   0  0  0  0  0  0  0  0  0  0  0  0
   10.5600   -0.0490   23.6300 C   0  0  0  0  0  0  0  0  0  0  0  0
    9.9530   -0.8910   22.6140 N   0  0  0  0  0  0  0  0  0  0  0  0
    8.9610   -0.3260   21.7730 C   0  0  0  0  0  0  0  0  0  0  0  0
    8.9680    0.8140   21.2920 O   0  0  0  0  0  0  0  0  0  0  0  0
    7.7260   -1.2240   21.4650 C   0  0  0  0  0  0  0  0  0  0  0  0
    7.0480   -0.6420   20.1760 C   0  0  0  0  0  0  0  0  0  0  0  0
    7.2040   -0.6240   18.8050 C   0  0  0  0  0  0  0  0  0  0  0  0
    6.0610    0.0860   19.5720 C   0  0  0  0  0  0  0  0  0  0  0  0
    4.9440    0.8750   19.2980 C   0  0  0  0  0  0  0  0  0  0  0  0
    4.1110    1.3310   20.5480 C   0  0  0  0  0  0  0  0  0  0  0  0
    3.0460    2.0300   20.8890 C   0  0  0  0  0  0  0  0  0  0  0  0
    2.5960    2.4310   19.8590 C   0  0  0  0  0  0  0  0  0  0  0  0
    3.8170    1.6090   19.6970 C   0  0  0  0  0  0  0  0  0  0  0  0
    4.8630    0.8160   20.5450 C   0  0  0  0  0  0  0  0  0  0  0  0
    5.9290    0.1370   20.0050 C   0  0  0  0  0  0  0  0  0  0  0  0
   11.6980   -0.5510   23.0650 C   0  0  0  0  0  0  0  0  0  0  0  0
  1  2  1  0
  2  3  2  0
  3  4  1  0
  4  5  2  0
  5  6  1  0
  6  7  1  0
  7  8  1  0
  8  9  2  0
  8 10  1  0
 10 11  1  0
 11 12  2  0
 12 13  1  0
 13 14  2  0
 14 15  1  0
 15 16  2  0
 16 17  1  0
 17 18  2  0
 14 19  1  0
 18 19  1  0
 11 20  1  0
 19 20  2  0
  2 21  1  0
  6 21  2  0
M  END
