ALV-UNI-7ff1a6f9-43
     RDKit          3D

 22 25  0  0  0  0  0  0  0  0999 V2000
    2.7100    5.8530   23.3970 C   0  0  0  0  0  0  0  0  0  0  0  0
    3.3020    4.4690   23.6420 C   0  0  0  0  0  0  0  0  0  0  0  0
    3.7630    3.6570   22.6960 C   0  0  0  0  0  0  0  0  0  0  0  0
    4.2570    2.4210   23.2460 N   0  0  0  0  0  0  0  0  0  0  0  0
    4.8430    1.2700   22.5630 C   0  0  0  0  0  0  0  0  0  0  0  0
    5.0430    1.1730   21.0490 C   0  0  0  0  0  0  0  0  0  0  0  0
    6.2210    0.3020   20.6720 C   0  0  0  0  0  0  0  0  0  0  0  0
    6.4620    0.1720   19.1660 C   0  0  0  0  0  0  0  0  0  0  0  0
    5.5270    0.9080   18.1640 C   0  0  0  0  0  0  0  0  0  0  0  0
    4.4020    1.7360   18.6260 N   0  0  0  0  0  0  0  0  0  0  0  0
    4.2480    1.8020   20.0940 C   0  0  0  0  0  0  0  0  0  0  0  0
    5.1230    0.4090   23.6320 C   0  0  0  0  0  0  0  0  0  0  0  0
    5.6970   -0.8430   23.5780 C   0  0  0  0  0  0  0  0  0  0  0  0
    5.3790   -1.7960   22.4540 C   0  0  0  0  0  0  0  0  0  0  0  0
    5.9500   -3.0500   22.3810 C   0  0  0  0  0  0  0  0  0  0  0  0
    6.8480   -3.4790   23.3500 C   0  0  0  0  0  0  0  0  0  0  0  0
    7.4040   -4.6970   23.2820 F   0  0  0  0  0  0  0  0  0  0  0  0
    7.1630   -2.6080   24.4070 C   0  0  0  0  0  0  0  0  0  0  0  0
    6.6130   -1.3280   24.5320 C   0  0  0  0  0  0  0  0  0  0  0  0
    4.7400    0.9550   24.9690 N   0  0  0  0  0  0  0  0  0  0  0  0
    4.1880    2.2730   24.5620 C   0  0  0  0  0  0  0  0  0  0  0  0
    3.4700    3.7080   25.2730 S   0  0  0  0  0  0  0  0  0  0  0  0
  1  2  1  0
  2  3  2  0
  3  4  1  0
  4  5  1  0
  5  6  1  0
  6  7  2  0
  7  8  1  0
  8  9  2  0
  9 10  1  0
  6 11  1  0
 10 11  2  0
  5 12  2  0
 12 13  1  0
 13 14  2  0
 14 15  1  0
 15 16  2  0
 16 17  1  0
 16 18  1  0
 13 19  1  0
 18 19  2  0
 12 20  1  0
  4 21  1  0
 20 21  2  0
  2 22  1  0
 21 22  1  0
M  END
