ALV-UNI-7ff1a6f9-27
     RDKit          3D

 24 27  0  0  0  0  0  0  0  0999 V2000
    6.3520   -6.4720   22.7500 C   0  0  0  0  0  0  0  0  0  0  0  0
    6.6120   -5.0080   22.4090 C   0  0  0  0  0  0  0  0  0  0  0  0
    5.7550   -4.4410   21.4390 C   0  0  0  0  0  0  0  0  0  0  0  0
    5.8580   -3.1190   21.0010 N   0  0  0  0  0  0  0  0  0  0  0  0
    6.8410   -2.5040   21.5700 C   0  0  0  0  0  0  0  0  0  0  0  0
    7.2600   -1.2210   21.3290 C   0  0  0  0  0  0  0  0  0  0  0  0
    6.6370   -0.3690   20.3730 C   0  0  0  0  0  0  0  0  0  0  0  0
    7.0880   -0.4210   18.9520 C   0  0  0  0  0  0  0  0  0  0  0  0
    6.4480    0.4520   17.9430 N   0  0  0  0  0  0  0  0  0  0  0  0
    5.8670    0.6980   19.0910 C   0  0  0  0  0  0  0  0  0  0  0  0
    6.4910   -0.1300   19.9800 N   0  0  0  0  0  0  0  0  0  0  0  0
    5.0200    1.3350   19.7190 N   0  0  0  0  0  0  0  0  0  0  0  0
    5.5550    0.5660   20.7100 C   0  0  0  0  0  0  0  0  0  0  0  0
    8.3620   -0.8940   22.1330 C   0  0  0  0  0  0  0  0  0  0  0  0
    9.1670    0.2270   22.3040 C   0  0  0  0  0  0  0  0  0  0  0  0
    8.4200    1.5410   22.1340 C   0  0  0  0  0  0  0  0  0  0  0  0
    9.3520    2.7420   22.3500 C   0  0  0  0  0  0  0  0  0  0  0  0
   10.7060    2.5760   22.6590 C   0  0  0  0  0  0  0  0  0  0  0  0
   11.4700    3.6630   22.8380 F   0  0  0  0  0  0  0  0  0  0  0  0
   11.2910    1.3140   22.7850 C   0  0  0  0  0  0  0  0  0  0  0  0
   10.5320    0.1580   22.6120 C   0  0  0  0  0  0  0  0  0  0  0  0
    8.6280   -2.0040   22.8810 N   0  0  0  0  0  0  0  0  0  0  0  0
    7.7100   -2.9600   22.5220 N   0  0  0  0  0  0  0  0  0  0  0  0
    7.5680   -4.2470   22.9510 C   0  0  0  0  0  0  0  0  0  0  0  0
  1  2  1  0
  2  3  1  0
  3  4  2  0
  4  5  1  0
  5  6  2  0
  6  7  1  0
  7  8  2  0
  8  9  1  0
  9 10  2  0
 10 11  1  0
 10 12  1  0
  7 13  1  0
 12 13  2  0
  6 14  1  0
 14 15  1  0
 15 16  2  0
 16 17  1  0
 17 18  2  0
 18 19  1  0
 18 20  1  0
 15 21  1  0
 20 21  2  0
 14 22  2  0
  5 23  1  0
 22 23  1  0
  2 24  2  0
 23 24  1  0
M  END
