ALV-UNI-7ff1a6f9-6
     RDKit          3D

 26 30  0  0  0  0  0  0  0  0999 V2000
    3.6700    6.6170   24.2240 C   0  0  0  0  0  0  0  0  0  0  0  0
    4.0090    5.3760   23.4920 C   0  0  0  0  0  0  0  0  0  0  0  0
    4.3210    5.4320   22.1250 C   0  0  0  0  0  0  0  0  0  0  0  0
    4.6450    4.2840   21.4140 C   0  0  0  0  0  0  0  0  0  0  0  0
    4.6300    3.1240   22.1580 C   0  0  0  0  0  0  0  0  0  0  0  0
    4.8980    1.8250   21.7980 C   0  0  0  0  0  0  0  0  0  0  0  0
    5.2650    1.4200   20.5180 C   0  0  0  0  0  0  0  0  0  0  0  0
    4.6850    1.9770   19.3290 C   0  0  0  0  0  0  0  0  0  0  0  0
    5.1120    1.5110   17.9830 C   0  0  0  0  0  0  0  0  0  0  0  0
    6.0380    0.5620   17.8490 N   0  0  0  0  0  0  0  0  0  0  0  0
    6.5240    0.1000   19.0390 C   0  0  0  0  0  0  0  0  0  0  0  0
    7.6440   -1.0450   19.1080 N   0  0  0  0  0  0  0  0  0  0  0  0
    7.9470   -1.2870   20.5710 C   0  0  0  0  0  0  0  0  0  0  0  0
    7.0560   -0.4100   19.9350 C   0  0  0  0  0  0  0  0  0  0  0  0
    6.2480    0.4220   20.4390 C   0  0  0  0  0  0  0  0  0  0  0  0
    4.7100    1.0930   23.0200 C   0  0  0  0  0  0  0  0  0  0  0  0
    4.8480   -0.2790   23.2440 C   0  0  0  0  0  0  0  0  0  0  0  0
    4.8300   -0.8090   24.5230 C   0  0  0  0  0  0  0  0  0  0  0  0
    4.9690   -2.1830   24.7150 C   0  0  0  0  0  0  0  0  0  0  0  0
    5.1270   -3.0310   23.6230 C   0  0  0  0  0  0  0  0  0  0  0  0
    5.2580   -4.3480   23.8290 F   0  0  0  0  0  0  0  0  0  0  0  0
    5.1510   -2.5380   22.3290 C   0  0  0  0  0  0  0  0  0  0  0  0
    5.0100   -1.1570   22.1490 C   0  0  0  0  0  0  0  0  0  0  0  0
    4.3530    1.9330   24.0300 N   0  0  0  0  0  0  0  0  0  0  0  0
    4.3130    3.1600   23.4790 N   0  0  0  0  0  0  0  0  0  0  0  0
    3.9920    4.2680   24.1950 N   0  0  0  0  0  0  0  0  0  0  0  0
  1  2  1  0
  2  3  1  0
  3  4  2  0
  4  5  1  0
  5  6  2  0
  6  7  1  0
  7  8  2  0
  8  9  1  0
  9 10  2  0
 10 11  1  0
 11 12  1  0
 12 13  1  0
 13 14  2  0
  7 15  1  0
 11 15  2  0
 14 15  1  0
  6 16  1  0
 16 17  1  0
 17 18  2  0
 18 19  1  0
 19 20  2  0
 20 21  1  0
 20 22  1  0
 17 23  1  0
 22 23  2  0
 16 24  2  0
  5 25  1  0
 24 25  1  0
  2 26  2  0
 25 26  1  0
M  END
