ALV-UNI-7ff1a6f9-18
     RDKit          3D

 23 26  0  0  0  0  0  0  0  0999 V2000
    2.9370    1.3050   21.9790 C   0  0  0  0  0  0  0  0  0  0  0  0
    3.6440    1.3110   20.6240 C   0  0  0  0  0  0  0  0  0  0  0  0
    2.8860    1.8770   19.5970 C   0  0  0  0  0  0  0  0  0  0  0  0
    4.0990    1.3140   19.4190 C   0  0  0  0  0  0  0  0  0  0  0  0
    4.9140    1.0820   18.5970 N   0  0  0  0  0  0  0  0  0  0  0  0
    5.5170    0.6790   19.9760 C   0  0  0  0  0  0  0  0  0  0  0  0
    5.0700    0.7100   21.4620 C   0  0  0  0  0  0  0  0  0  0  0  0
    4.5200   -0.3560   22.3800 C   0  0  0  0  0  0  0  0  0  0  0  0
    4.2460   -0.0210   23.6680 N   0  0  0  0  0  0  0  0  0  0  0  0
    4.6160    1.3230   23.6800 N   0  0  0  0  0  0  0  0  0  0  0  0
    4.5010    2.0930   24.8610 C   0  0  0  0  0  0  0  0  0  0  0  0
    5.1080    1.8570   22.4590 C   0  0  0  0  0  0  0  0  0  0  0  0
    6.8650    0.1530   19.8400 C   0  0  0  0  0  0  0  0  0  0  0  0
    7.7470   -0.3080   20.8130 C   0  0  0  0  0  0  0  0  0  0  0  0
    8.7650    0.5970   21.4490 C   0  0  0  0  0  0  0  0  0  0  0  0
    9.6420    0.1460   22.4110 C   0  0  0  0  0  0  0  0  0  0  0  0
    9.5920   -1.1840   22.8170 C   0  0  0  0  0  0  0  0  0  0  0  0
   10.4470   -1.6270   23.7480 F   0  0  0  0  0  0  0  0  0  0  0  0
    8.6490   -2.0620   22.2560 C   0  0  0  0  0  0  0  0  0  0  0  0
    7.7370   -1.6380   21.2740 C   0  0  0  0  0  0  0  0  0  0  0  0
    6.9790    0.2750   18.4790 N   0  0  0  0  0  0  0  0  0  0  0  0
    5.8230    0.6590   19.0280 C   0  0  0  0  0  0  0  0  0  0  0  0
    5.1230    0.7210   20.3620 C   0  0  0  0  0  0  0  0  0  0  0  0
  1  2  1  0
  2  3  1  0
  3  4  2  0
  4  5  1  0
  5  6  1  0
  6  7  1  0
  7  8  1  0
  8  9  2  0
  9 10  1  0
 10 11  1  0
  7 12  2  0
 10 12  1  0
  6 13  2  0
 13 14  1  0
 14 15  2  0
 15 16  1  0
 16 17  2  0
 17 18  1  0
 17 19  1  0
 14 20  1  0
 19 20  2  0
 13 21  1  0
  5 22  1  0
 21 22  2  0
  2 23  2  0
 22 23  1  0
M  END
