ALV-UNI-7ff1a6f9-46
     RDKit          3D

 24 26  0  0  0  0  0  0  0  0999 V2000
    9.0840    1.8880   21.3440 O   0  0  0  0  0  0  0  0  0  0  0  0
    8.4730    0.8880   21.0230 C   0  0  0  0  0  0  0  0  0  0  0  0
    7.2600    1.0980   20.1410 C   0  0  0  0  0  0  0  0  0  0  0  0
    6.6540   -0.1610   19.9560 C   0  0  0  0  0  0  0  0  0  0  0  0
    6.9880   -0.3510   18.7780 C   0  0  0  0  0  0  0  0  0  0  0  0
    6.2360   -1.5160   19.3790 C   0  0  0  0  0  0  0  0  0  0  0  0
    5.6740   -1.6800   20.7930 C   0  0  0  0  0  0  0  0  0  0  0  0
    5.0300   -2.8100   21.2850 C   0  0  0  0  0  0  0  0  0  0  0  0
    4.5580   -2.6360   22.7590 C   0  0  0  0  0  0  0  0  0  0  0  0
    4.4420   -1.7640   24.0610 C   0  0  0  0  0  0  0  0  0  0  0  0
    5.1600   -0.9470   23.0890 C   0  0  0  0  0  0  0  0  0  0  0  0
    5.7230   -0.7180   21.8350 C   0  0  0  0  0  0  0  0  0  0  0  0
    6.3340    0.1310   21.2340 C   0  0  0  0  0  0  0  0  0  0  0  0
    8.7560   -0.4580   21.2830 N   0  0  0  0  0  0  0  0  0  0  0  0
    9.1070   -0.8920   22.6350 C   0  0  0  0  0  0  0  0  0  0  0  0
   10.4340   -1.1440   22.0030 C   0  0  0  0  0  0  0  0  0  0  0  0
   11.5290   -1.7980   22.8760 C   0  0  0  0  0  0  0  0  0  0  0  0
   12.9640   -1.6320   22.4270 C   0  0  0  0  0  0  0  0  0  0  0  0
   13.2610   -1.9400   21.1570 F   0  0  0  0  0  0  0  0  0  0  0  0
   13.7680   -2.4070   23.1970 F   0  0  0  0  0  0  0  0  0  0  0  0
   13.4000   -0.3590   22.6130 F   0  0  0  0  0  0  0  0  0  0  0  0
   11.4150   -2.6950   24.1040 C   0  0  0  0  0  0  0  0  0  0  0  0
   10.0940   -3.0270   23.9820 C   0  0  0  0  0  0  0  0  0  0  0  0
    9.6850   -1.6170   23.6360 N   0  0  0  0  0  0  0  0  0  0  0  0
  1  2  2  0
  2  3  1  0
  3  4  1  0
  4  5  2  0
  5  6  1  0
  6  7  2  0
  7  8  1  0
  8  9  2  0
  9 10  1  0
 10 11  2  0
  7 12  1  0
 11 12  1  0
  4 13  1  0
 12 13  2  0
  2 14  1  0
 14 15  1  0
 15 16  2  0
 16 17  1  0
 17 18  1  0
 18 19  1  0
 18 20  1  0
 18 21  1  0
 17 22  2  0
 22 23  1  0
 15 24  1  0
 23 24  2  0
M  END
