ALV-UNI-7ff1a6f9-8
     RDKit          3D

 23 26  0  0  0  0  0  0  0  0999 V2000
    9.2880   -2.4220   23.0210 C   0  0  0  0  0  0  0  0  0  0  0  0
    9.7750   -1.0340   23.3270 C   0  0  0  0  0  0  0  0  0  0  0  0
    8.9670    0.0670   23.7300 C   0  0  0  0  0  0  0  0  0  0  0  0
    9.7120    1.4280   23.9920 C   0  0  0  0  0  0  0  0  0  0  0  0
   11.0970    1.2920   23.7780 N   0  0  0  0  0  0  0  0  0  0  0  0
   10.7710   -0.2350   23.3970 C   0  0  0  0  0  0  0  0  0  0  0  0
   11.6510   -1.1850   23.0190 C   0  0  0  0  0  0  0  0  0  0  0  0
   11.4670   -1.5880   21.7290 C   0  0  0  0  0  0  0  0  0  0  0  0
   12.3860   -2.6280   21.2250 C   0  0  0  0  0  0  0  0  0  0  0  0
   13.4030   -3.1210   22.2120 C   0  0  0  0  0  0  0  0  0  0  0  0
   13.5700   -2.7350   23.4340 N   0  0  0  0  0  0  0  0  0  0  0  0
   12.6430   -1.7090   23.8550 C   0  0  0  0  0  0  0  0  0  0  0  0
    9.5280   -0.2850   23.5270 C   0  0  0  0  0  0  0  0  0  0  0  0
    8.2190   -1.0580   23.4580 C   0  0  0  0  0  0  0  0  0  0  0  0
    7.5140   -1.1230   22.1700 C   0  0  0  0  0  0  0  0  0  0  0  0
    6.3050   -1.8290   22.0240 C   0  0  0  0  0  0  0  0  0  0  0  0
    5.7240   -2.4980   23.1080 C   0  0  0  0  0  0  0  0  0  0  0  0
    4.5730   -3.1640   22.9310 F   0  0  0  0  0  0  0  0  0  0  0  0
    6.3170   -2.4920   24.3720 C   0  0  0  0  0  0  0  0  0  0  0  0
    7.5110   -1.8200   24.6080 C   0  0  0  0  0  0  0  0  0  0  0  0
   10.0880    0.8100   23.7660 N   0  0  0  0  0  0  0  0  0  0  0  0
   11.5860    0.3520   23.4600 C   0  0  0  0  0  0  0  0  0  0  0  0
   11.1380   -0.8520   23.1910 C   0  0  0  0  0  0  0  0  0  0  0  0
  1  2  1  0
  2  3  1  0
  3  4  2  0
  4  5  1  0
  5  6  1  0
  6  7  1  0
  7  8  2  0
  8  9  1  0
  9 10  2  0
 10 11  1  0
  7 12  1  0
 11 12  2  0
  6 13  2  0
 13 14  1  0
 14 15  2  0
 15 16  1  0
 16 17  2  0
 17 18  1  0
 17 19  1  0
 14 20  1  0
 19 20  2  0
 13 21  1  0
  5 22  1  0
 21 22  2  0
  2 23  2  0
 22 23  1  0
M  END
