ALV-UNI-7ff1a6f9-3
     RDKit          3D

 23 26  0  0  0  0  0  0  0  0999 V2000
    5.4910   -6.4460   22.6270 C   0  0  0  0  0  0  0  0  0  0  0  0
    6.3810   -5.2380   22.6140 C   0  0  0  0  0  0  0  0  0  0  0  0
    7.6300   -5.2020   23.3450 C   0  0  0  0  0  0  0  0  0  0  0  0
    8.3960   -4.0410   23.2630 C   0  0  0  0  0  0  0  0  0  0  0  0
    7.9340   -2.9830   22.4860 C   0  0  0  0  0  0  0  0  0  0  0  0
    6.7790   -3.0110   21.8150 C   0  0  0  0  0  0  0  0  0  0  0  0
    5.9480   -4.1510   21.8570 C   0  0  0  0  0  0  0  0  0  0  0  0
    6.6140   -1.7630   21.1190 N   0  0  0  0  0  0  0  0  0  0  0  0
    7.7450   -0.7920   21.3130 C   0  0  0  0  0  0  0  0  0  0  0  0
    6.7670   -0.0620   20.3720 C   0  0  0  0  0  0  0  0  0  0  0  0
    5.6270    0.6320   20.9040 C   0  0  0  0  0  0  0  0  0  0  0  0
    4.5120    1.3990   20.5650 C   0  0  0  0  0  0  0  0  0  0  0  0
    4.5140    1.5440   19.1810 C   0  0  0  0  0  0  0  0  0  0  0  0
    3.5280    2.2540   18.6380 F   0  0  0  0  0  0  0  0  0  0  0  0
    5.6460    0.8890   18.2880 C   0  0  0  0  0  0  0  0  0  0  0  0
    6.8110    0.0510   18.9620 C   0  0  0  0  0  0  0  0  0  0  0  0
    8.4760   -1.7550   22.2200 N   0  0  0  0  0  0  0  0  0  0  0  0
    9.6800   -1.6290   22.8700 C   0  0  0  0  0  0  0  0  0  0  0  0
    9.6400   -0.9590   24.2280 C   0  0  0  0  0  0  0  0  0  0  0  0
   10.9950   -0.8580   24.8980 C   0  0  0  0  0  0  0  0  0  0  0  0
   12.1970   -1.3450   24.3190 N   0  0  0  0  0  0  0  0  0  0  0  0
   12.3040   -1.9860   23.0250 C   0  0  0  0  0  0  0  0  0  0  0  0
   10.9620   -2.1190   22.2890 C   0  0  0  0  0  0  0  0  0  0  0  0
  1  2  1  0
  2  3  2  0
  3  4  1  0
  4  5  2  0
  5  6  1  0
  2  7  1  0
  6  7  2  0
  6  8  1  0
  8  9  2  0
  9 10  1  0
 10 11  2  0
 11 12  1  0
 12 13  2  0
 13 14  1  0
 13 15  1  0
 10 16  1  0
 15 16  2  0
  5 17  1  0
  9 17  1  0
 17 18  1  0
 18 19  2  0
 19 20  1  0
 20 21  2  0
 21 22  1  0
 18 23  1  0
 22 23  2  0
M  END
