ALV-UNI-7ff1a6f9-17
     RDKit          3D

 23 26  0  0  0  0  0  0  0  0999 V2000
    4.1960    0.1060   21.8560 C   0  0  0  0  0  0  0  0  0  0  0  0
    4.1190    0.6170   20.4370 C   0  0  0  0  0  0  0  0  0  0  0  0
    4.7130    0.7440   19.2460 C   0  0  0  0  0  0  0  0  0  0  0  0
    4.3420    2.2090   19.0080 C   0  0  0  0  0  0  0  0  0  0  0  0
    5.2240    1.4840   18.3190 N   0  0  0  0  0  0  0  0  0  0  0  0
    5.3610    0.8320   19.6020 C   0  0  0  0  0  0  0  0  0  0  0  0
    4.5190    1.4450   20.7440 C   0  0  0  0  0  0  0  0  0  0  0  0
    3.2390    1.2510   21.0810 C   0  0  0  0  0  0  0  0  0  0  0  0
    2.9160    2.1030   22.2610 C   0  0  0  0  0  0  0  0  0  0  0  0
    4.0170    2.7860   22.5980 N   0  0  0  0  0  0  0  0  0  0  0  0
    4.9690    2.3860   21.6820 N   0  0  0  0  0  0  0  0  0  0  0  0
    6.2940    2.9590   21.7690 C   0  0  0  0  0  0  0  0  0  0  0  0
    6.3520   -0.3080   19.4860 C   0  0  0  0  0  0  0  0  0  0  0  0
    6.8080   -1.2840   20.5540 C   0  0  0  0  0  0  0  0  0  0  0  0
    5.9440   -2.2900   20.9970 C   0  0  0  0  0  0  0  0  0  0  0  0
    6.2580   -3.2200   21.9730 C   0  0  0  0  0  0  0  0  0  0  0  0
    7.5230   -3.1520   22.5520 C   0  0  0  0  0  0  0  0  0  0  0  0
    7.8690   -4.0350   23.5010 F   0  0  0  0  0  0  0  0  0  0  0  0
    8.4290   -2.1640   22.1450 C   0  0  0  0  0  0  0  0  0  0  0  0
    8.0760   -1.2330   21.1510 C   0  0  0  0  0  0  0  0  0  0  0  0
    6.7300   -0.2050   18.1780 N   0  0  0  0  0  0  0  0  0  0  0  0
    5.9160    0.5010   18.7240 C   0  0  0  0  0  0  0  0  0  0  0  0
    5.4470    0.2750   20.2480 C   0  0  0  0  0  0  0  0  0  0  0  0
  1  2  1  0
  2  3  1  0
  3  4  2  0
  4  5  1  0
  5  6  1  0
  6  7  1  0
  7  8  2  0
  8  9  1  0
  9 10  2  0
  7 11  1  0
 10 11  1  0
 11 12  1  0
  6 13  2  0
 13 14  1  0
 14 15  2  0
 15 16  1  0
 16 17  2  0
 17 18  1  0
 17 19  1  0
 14 20  1  0
 19 20  2  0
 13 21  1  0
  5 22  1  0
 21 22  2  0
  2 23  2  0
 22 23  1  0
M  END
