ALV-UNI-7ff1a6f9-38
     RDKit          3D

 23 26  0  0  0  0  0  0  0  0999 V2000
   -1.5760    3.8170   22.3430 C   0  0  0  0  0  0  0  0  0  0  0  0
   -0.1400    3.4510   22.0600 C   0  0  0  0  0  0  0  0  0  0  0  0
    0.1130    2.5470   20.9430 C   0  0  0  0  0  0  0  0  0  0  0  0
    1.4380    2.2100   20.6880 C   0  0  0  0  0  0  0  0  0  0  0  0
    2.4190    2.7520   21.5070 N   0  0  0  0  0  0  0  0  0  0  0  0
    3.8030    2.5850   21.4820 C   0  0  0  0  0  0  0  0  0  0  0  0
    4.4710    1.7920   20.5700 C   0  0  0  0  0  0  0  0  0  0  0  0
    5.0540    0.5890   21.0090 C   0  0  0  0  0  0  0  0  0  0  0  0
    5.8090   -0.3240   20.0360 C   0  0  0  0  0  0  0  0  0  0  0  0
    5.8710    0.1720   18.5860 C   0  0  0  0  0  0  0  0  0  0  0  0
    5.2260    1.4400   18.2640 N   0  0  0  0  0  0  0  0  0  0  0  0
    4.5860    2.1580   19.2220 C   0  0  0  0  0  0  0  0  0  0  0  0
    4.2700    3.3650   22.5280 C   0  0  0  0  0  0  0  0  0  0  0  0
    5.5640    3.6120   23.0110 C   0  0  0  0  0  0  0  0  0  0  0  0
    6.0490    3.0010   24.3320 C   0  0  0  0  0  0  0  0  0  0  0  0
    7.4620    3.2880   24.8290 C   0  0  0  0  0  0  0  0  0  0  0  0
    8.3900    4.1840   24.0140 C   0  0  0  0  0  0  0  0  0  0  0  0
    9.6270    4.4320   24.4580 F   0  0  0  0  0  0  0  0  0  0  0  0
    7.9170    4.7970   22.6950 C   0  0  0  0  0  0  0  0  0  0  0  0
    6.5050    4.5130   22.1970 C   0  0  0  0  0  0  0  0  0  0  0  0
    3.2920    4.0210   23.2290 N   0  0  0  0  0  0  0  0  0  0  0  0
    2.0860    3.6140   22.5550 C   0  0  0  0  0  0  0  0  0  0  0  0
    0.7850    3.9600   22.8220 N   0  0  0  0  0  0  0  0  0  0  0  0
  1  2  1  0
  2  3  1  0
  3  4  2  0
  4  5  1  0
  5  6  1  0
  6  7  1  0
  7  8  2  0
  8  9  1  0
  9 10  2  0
 10 11  1  0
  7 12  1  0
 11 12  2  0
  6 13  2  0
 13 14  1  0
 14 15  2  0
 15 16  1  0
 16 17  2  0
 17 18  1  0
 17 19  1  0
 14 20  1  0
 19 20  2  0
 13 21  1  0
  5 22  1  0
 21 22  2  0
  2 23  2  0
 22 23  1  0
M  END
