ALV-UNI-7ff1a6f9-9
     RDKit          3D

 26 30  0  0  0  0  0  0  0  0999 V2000
    6.0730   -2.0880   26.3670 C   0  0  0  0  0  0  0  0  0  0  0  0
    5.9490   -1.1220   25.2100 C   0  0  0  0  0  0  0  0  0  0  0  0
    5.8320   -1.6770   23.8540 C   0  0  0  0  0  0  0  0  0  0  0  0
    5.7350   -0.8340   22.7260 C   0  0  0  0  0  0  0  0  0  0  0  0
    5.7540    0.5580   22.8770 N   0  0  0  0  0  0  0  0  0  0  0  0
    5.7090    1.6060   21.9580 C   0  0  0  0  0  0  0  0  0  0  0  0
    5.6370    1.4510   20.5750 C   0  0  0  0  0  0  0  0  0  0  0  0
    4.8690    2.2010   19.6490 C   0  0  0  0  0  0  0  0  0  0  0  0
    4.9530    1.8620   18.1630 C   0  0  0  0  0  0  0  0  0  0  0  0
    5.8600    0.7560   17.9160 N   0  0  0  0  0  0  0  0  0  0  0  0
    6.5050    0.1620   18.9600 C   0  0  0  0  0  0  0  0  0  0  0  0
    7.4370   -0.9510   18.9130 N   0  0  0  0  0  0  0  0  0  0  0  0
    7.7960   -1.1460   20.3020 C   0  0  0  0  0  0  0  0  0  0  0  0
    7.0270   -0.3720   19.4760 C   0  0  0  0  0  0  0  0  0  0  0  0
    6.5140    0.3830   20.3680 C   0  0  0  0  0  0  0  0  0  0  0  0
    5.7730    2.7890   22.7290 C   0  0  0  0  0  0  0  0  0  0  0  0
    5.7720    4.2360   22.2430 C   0  0  0  0  0  0  0  0  0  0  0  0
    7.1300    4.8600   21.9590 C   0  0  0  0  0  0  0  0  0  0  0  0
    7.1890    6.3090   21.4960 C   0  0  0  0  0  0  0  0  0  0  0  0
    5.8860    7.0900   21.3320 C   0  0  0  0  0  0  0  0  0  0  0  0
    5.9330    8.3670   20.9340 F   0  0  0  0  0  0  0  0  0  0  0  0
    4.6100    6.4960   21.5930 C   0  0  0  0  0  0  0  0  0  0  0  0
    4.4460    5.0440   22.0620 C   0  0  0  0  0  0  0  0  0  0  0  0
    5.8540    2.5010   24.0780 N   0  0  0  0  0  0  0  0  0  0  0  0
    5.8460    1.1520   24.1130 C   0  0  0  0  0  0  0  0  0  0  0  0
    5.9440    0.2800   25.3590 C   0  0  0  0  0  0  0  0  0  0  0  0
  1  2  1  0
  2  3  1  0
  3  4  2  0
  4  5  1  0
  5  6  1  0
  6  7  1  0
  7  8  2  0
  8  9  1  0
  9 10  2  0
 10 11  1  0
 11 12  1  0
 12 13  1  0
 13 14  2  0
  7 15  1  0
 11 15  2  0
 14 15  1  0
  6 16  2  0
 16 17  1  0
 17 18  2  0
 18 19  1  0
 19 20  2  0
 20 21  1  0
 20 22  1  0
 17 23  1  0
 22 23  2  0
 16 24  1  0
  5 25  1  0
 24 25  2  0
  2 26  2  0
 25 26  1  0
M  END
