ALV-UNI-7ff1a6f9-44
     RDKit          3D

 25 29  0  0  0  0  0  0  0  0999 V2000
    3.8780   -2.3800   24.2670 C   0  0  0  0  0  0  0  0  0  0  0  0
    4.1910   -0.9650   23.9450 C   0  0  0  0  0  0  0  0  0  0  0  0
    4.5560   -0.4800   22.7510 C   0  0  0  0  0  0  0  0  0  0  0  0
    4.7670    0.8800   22.7870 N   0  0  0  0  0  0  0  0  0  0  0  0
    5.1310    1.8440   21.8860 C   0  0  0  0  0  0  0  0  0  0  0  0
    5.3910    1.4750   20.5020 C   0  0  0  0  0  0  0  0  0  0  0  0
    4.7670    2.0690   19.4030 C   0  0  0  0  0  0  0  0  0  0  0  0
    5.0910    1.6250   18.1390 C   0  0  0  0  0  0  0  0  0  0  0  0
    5.9730    0.6490   17.8740 N   0  0  0  0  0  0  0  0  0  0  0  0
    6.5180    0.1420   18.9870 C   0  0  0  0  0  0  0  0  0  0  0  0
    7.5330   -0.9600   19.0200 N   0  0  0  0  0  0  0  0  0  0  0  0
    7.8370   -1.1720   20.3830 C   0  0  0  0  0  0  0  0  0  0  0  0
    7.0810   -0.4070   19.7550 C   0  0  0  0  0  0  0  0  0  0  0  0
    6.3340    0.4470   20.3720 C   0  0  0  0  0  0  0  0  0  0  0  0
    5.1520    3.0170   22.6660 C   0  0  0  0  0  0  0  0  0  0  0  0
    5.4820    4.3870   22.2870 C   0  0  0  0  0  0  0  0  0  0  0  0
    6.7790    4.7800   21.9130 C   0  0  0  0  0  0  0  0  0  0  0  0
    7.0490    6.1130   21.5730 C   0  0  0  0  0  0  0  0  0  0  0  0
    6.0230    7.0490   21.6070 C   0  0  0  0  0  0  0  0  0  0  0  0
    6.2720    8.3250   21.2880 F   0  0  0  0  0  0  0  0  0  0  0  0
    4.7340    6.6800   21.9690 C   0  0  0  0  0  0  0  0  0  0  0  0
    4.4650    5.3540   22.3080 C   0  0  0  0  0  0  0  0  0  0  0  0
    4.7960    2.7470   23.9870 N   0  0  0  0  0  0  0  0  0  0  0  0
    4.5800    1.4660   23.9930 C   0  0  0  0  0  0  0  0  0  0  0  0
    4.1020    0.3040   25.1900 S   0  0  0  0  0  0  0  0  0  0  0  0
  1  2  1  0
  2  3  2  0
  3  4  1  0
  4  5  1  0
  5  6  1  0
  6  7  2  0
  7  8  1  0
  8  9  2  0
  9 10  1  0
 10 11  1  0
 11 12  1  0
 12 13  2  0
  6 14  1  0
 10 14  2  0
 13 14  1  0
  5 15  2  0
 15 16  1  0
 16 17  2  0
 17 18  1  0
 18 19  2  0
 19 20  1  0
 19 21  1  0
 16 22  1  0
 21 22  2  0
 15 23  1  0
  4 24  1  0
 23 24  2  0
  2 25  1  0
 24 25  1  0
M  END
