ALV-UNI-7ff1a6f9-20
     RDKit          3D

 23 26  0  0  0  0  0  0  0  0999 V2000
    6.5100    2.2370   23.4380 C   0  0  0  0  0  0  0  0  0  0  0  0
    5.6150    2.7250   22.2920 C   0  0  0  0  0  0  0  0  0  0  0  0
    4.9210    3.9160   22.4690 C   0  0  0  0  0  0  0  0  0  0  0  0
    4.8120    3.1860   21.2760 C   0  0  0  0  0  0  0  0  0  0  0  0
    4.2950    3.1440   20.1620 N   0  0  0  0  0  0  0  0  0  0  0  0
    5.1930    1.8990   20.3520 C   0  0  0  0  0  0  0  0  0  0  0  0
    6.1270    1.2460   21.3840 C   0  0  0  0  0  0  0  0  0  0  0  0
    7.5930    1.5710   21.3400 C   0  0  0  0  0  0  0  0  0  0  0  0
    8.1970    0.7080   22.4490 C   0  0  0  0  0  0  0  0  0  0  0  0
    9.4950    0.5460   22.9060 C   0  0  0  0  0  0  0  0  0  0  0  0
    7.0000   -0.0180   23.0180 N   0  0  0  0  0  0  0  0  0  0  0  0
    5.7910    0.3070   22.3840 N   0  0  0  0  0  0  0  0  0  0  0  0
    5.1580    1.0770   19.2110 C   0  0  0  0  0  0  0  0  0  0  0  0
    5.7540   -0.0070   19.0140 C   0  0  0  0  0  0  0  0  0  0  0  0
    5.1340   -1.3160   19.2190 C   0  0  0  0  0  0  0  0  0  0  0  0
    5.8260   -2.4430   18.9900 C   0  0  0  0  0  0  0  0  0  0  0  0
    7.1270   -2.2620   18.5640 C   0  0  0  0  0  0  0  0  0  0  0  0
    7.9920   -3.1910   18.2760 F   0  0  0  0  0  0  0  0  0  0  0  0
    7.6360   -1.0390   18.3950 C   0  0  0  0  0  0  0  0  0  0  0  0
    7.0010    0.0980   18.6070 C   0  0  0  0  0  0  0  0  0  0  0  0
    4.3600    1.7150   18.3900 N   0  0  0  0  0  0  0  0  0  0  0  0
    4.6190    2.2220   19.5980 C   0  0  0  0  0  0  0  0  0  0  0  0
    5.3480    2.0770   20.8920 C   0  0  0  0  0  0  0  0  0  0  0  0
  1  2  1  0
  2  3  1  0
  3  4  2  0
  4  5  1  0
  5  6  1  0
  6  7  1  0
  7  8  2  0
  8  9  1  0
  9 10  1  0
  9 11  2  0
  7 12  1  0
 11 12  1  0
  6 13  2  0
 13 14  1  0
 14 15  2  0
 15 16  1  0
 16 17  2  0
 17 18  1  0
 17 19  1  0
 14 20  1  0
 19 20  2  0
 13 21  1  0
  5 22  1  0
 21 22  2  0
  2 23  2  0
 22 23  1  0
M  END
