ALV-UNI-7ff1a6f9-25
     RDKit          3D

 23 26  0  0  0  0  0  0  0  0999 V2000
    9.8090    3.0440   21.3730 C   0  0  0  0  0  0  0  0  0  0  0  0
    8.5920    2.2770   21.0390 C   0  0  0  0  0  0  0  0  0  0  0  0
    7.2740    2.9980   20.8960 C   0  0  0  0  0  0  0  0  0  0  0  0
    5.9260    2.6300   20.6600 N   0  0  0  0  0  0  0  0  0  0  0  0
    5.8380    1.2970   20.6440 C   0  0  0  0  0  0  0  0  0  0  0  0
    4.9650    0.2730   20.6280 C   0  0  0  0  0  0  0  0  0  0  0  0
    3.5020    0.6310   20.5980 C   0  0  0  0  0  0  0  0  0  0  0  0
    2.6330    0.3730   21.7990 C   0  0  0  0  0  0  0  0  0  0  0  0
    1.3250    0.7850   21.6520 N   0  0  0  0  0  0  0  0  0  0  0  0
    1.3720    1.3080   20.3390 N   0  0  0  0  0  0  0  0  0  0  0  0
    0.2970    1.8670   19.7310 C   0  0  0  0  0  0  0  0  0  0  0  0
    2.6080    1.2120   19.7350 C   0  0  0  0  0  0  0  0  0  0  0  0
    5.7300   -0.8170   20.6910 C   0  0  0  0  0  0  0  0  0  0  0  0
    5.4540   -2.1830   20.7680 C   0  0  0  0  0  0  0  0  0  0  0  0
    5.3350   -3.0780   19.7080 C   0  0  0  0  0  0  0  0  0  0  0  0
    5.1120   -4.4280   19.9400 C   0  0  0  0  0  0  0  0  0  0  0  0
    4.9780   -4.9530   21.2220 C   0  0  0  0  0  0  0  0  0  0  0  0
    4.7640   -6.2460   21.4350 F   0  0  0  0  0  0  0  0  0  0  0  0
    5.0740   -4.0750   22.2670 C   0  0  0  0  0  0  0  0  0  0  0  0
    5.3130   -2.7090   22.0740 C   0  0  0  0  0  0  0  0  0  0  0  0
    7.0780   -0.2750   20.7350 N   0  0  0  0  0  0  0  0  0  0  0  0
    7.1290    1.1300   20.7150 N   0  0  0  0  0  0  0  0  0  0  0  0
    8.4280    0.9620   20.7860 C   0  0  0  0  0  0  0  0  0  0  0  0
  1  2  1  0
  2  3  1  0
  3  4  2  0
  4  5  1  0
  5  6  2  0
  6  7  1  0
  7  8  1  0
  8  9  2  0
  9 10  1  0
 10 11  1  0
  7 12  2  0
 10 12  1  0
  6 13  1  0
 13 14  1  0
 14 15  2  0
 15 16  1  0
 16 17  2  0
 17 18  1  0
 17 19  1  0
 14 20  1  0
 19 20  2  0
 13 21  2  0
  5 22  1  0
 21 22  1  0
  2 23  2  0
 22 23  1  0
M  END
