AME-UNI-e7596d22-1
     RDKit          3D

 25 28  0  0  0  0  0  0  0  0999 V2000
    9.0500   -2.5890   21.7230 C   0  0  0  0  0  0  0  0  0  0  0  0
    9.7410   -2.3940   22.9620 C   0  0  2  0  0  0  0  0  0  0  0  0
    8.9570   -2.6300   24.0340 C   0  0  0  0  0  0  0  0  0  0  0  0
    9.1800   -2.1330   25.1210 O   0  0  0  0  0  0  0  0  0  0  0  0
    7.8570   -3.4630   23.7940 N   0  0  0  0  0  0  0  0  0  0  0  0
    7.3260   -4.3950   24.7700 C   0  0  0  0  0  0  0  0  0  0  0  0
    7.7440   -4.6730   26.0620 C   0  0  0  0  0  0  0  0  0  0  0  0
    6.7610   -5.5030   26.7210 C   0  0  0  0  0  0  0  0  0  0  0  0
    6.7450   -6.0120   27.9530 C   0  0  0  0  0  0  0  0  0  0  0  0
    5.8620   -5.5820   28.9130 C   0  0  0  0  0  0  0  0  0  0  0  0
    5.3720   -6.7970   28.4820 C   0  0  0  0  0  0  0  0  0  0  0  0
    5.7740   -5.6920   25.7780 N   0  0  0  0  0  0  0  0  0  0  0  0
    6.2170   -5.2180   24.5620 N   0  0  0  0  0  0  0  0  0  0  0  0
   10.4840   -1.2060   22.9400 C   0  0  0  0  0  0  0  0  0  0  0  0
    9.7970   -0.0850   23.1930 C   0  0  0  0  0  0  0  0  0  0  0  0
   10.4070    1.1150   23.1900 C   0  0  0  0  0  0  0  0  0  0  0  0
   11.7530    1.3320   22.9520 C   0  0  0  0  0  0  0  0  0  0  0  0
   12.0090    2.8040   23.0620 N   0  0  0  0  0  0  0  0  0  0  0  0
   12.8650    3.6330   22.3870 C   0  0  0  0  0  0  0  0  0  0  0  0
   12.6910    4.9840   22.7540 C   0  0  0  0  0  0  0  0  0  0  0  0
   11.4250    4.9310   23.4430 N   0  0  0  0  0  0  0  0  0  0  0  0
   10.9630    3.6030   23.5070 C   0  0  0  0  0  0  0  0  0  0  0  0
    9.8260    3.3400   23.9020 O   0  0  0  0  0  0  0  0  0  0  0  0
   12.5270    0.1790   22.6800 C   0  0  0  0  0  0  0  0  0  0  0  0
   11.8810   -1.0950   22.6670 C   0  0  0  0  0  0  0  0  0  0  0  0
  2  1  1  6
  2  3  1  0
  3  4  2  0
  3  5  1  0
  5  6  2  3
  6  7  1  0
  7  8  2  0
  8  9  1  0
  9 10  1  0
  9 11  1  0
 10 11  1  0
  8 12  1  0
  6 13  1  0
 12 13  2  0
  2 14  1  0
 14 15  2  0
 15 16  1  0
 16 17  2  0
 17 18  1  0
 18 19  1  0
 19 20  1  0
 20 21  1  0
 18 22  1  0
 21 22  1  0
 22 23  2  0
 17 24  1  0
 14 25  1  0
 24 25  2  0
M  END
