AME-NAT-624a42b4-1
     RDKit          3D

 23 26  0  0  0  0  0  0  0  0999 V2000
   13.5020    0.7500   22.8370 Cl  0  0  0  0  0  0  0  0  0  0  0  0
   12.1750   -0.1900   23.0560 C   0  0  0  0  0  0  0  0  0  0  0  0
   11.2280    0.1810   24.0640 C   0  0  0  0  0  0  0  0  0  0  0  0
   10.1410   -0.5580   24.2280 C   0  0  0  0  0  0  0  0  0  0  0  0
    9.8930   -1.7570   23.3840 C   0  0  0  0  0  0  0  0  0  0  0  0
    8.7520   -2.5770   23.5020 C   0  0  0  0  0  0  0  0  0  0  0  0
    7.4650   -1.8680   23.4940 N   0  0  0  0  0  0  0  0  0  0  0  0
    6.8860   -0.9740   22.4890 C   0  0  0  0  0  0  0  0  0  0  0  0
    7.5430   -0.6840   21.3590 C   0  0  0  0  0  0  0  0  0  0  0  0
    6.7140   -0.2970   20.2480 N   0  0  0  0  0  0  0  0  0  0  0  0
    5.4310   -0.9280   19.9560 C   0  0  0  0  0  0  0  0  0  0  0  0
    4.8170    0.0480   19.0340 C   0  0  0  0  0  0  0  0  0  0  0  0
    5.6960    1.0760   18.8020 C   0  0  0  0  0  0  0  0  0  0  0  0
    6.9130    0.8050   19.3720 C   0  0  0  0  0  0  0  0  0  0  0  0
    5.6970   -0.4260   22.6570 N   0  0  0  0  0  0  0  0  0  0  0  0
    5.3810   -1.0200   23.9650 C   0  0  0  0  0  0  0  0  0  0  0  0
    4.2000   -0.8140   24.7000 C   0  0  0  0  0  0  0  0  0  0  0  0
    4.0480   -1.4750   25.9650 C   0  0  0  0  0  0  0  0  0  0  0  0
    5.1100   -2.3230   26.4390 C   0  0  0  0  0  0  0  0  0  0  0  0
    6.2860   -2.5130   25.6860 C   0  0  0  0  0  0  0  0  0  0  0  0
    6.3690   -1.8540   24.4840 C   0  0  0  0  0  0  0  0  0  0  0  0
   10.8330   -2.1150   22.4100 C   0  0  0  0  0  0  0  0  0  0  0  0
   11.9720   -1.3370   22.2480 C   0  0  0  0  0  0  0  0  0  0  0  0
  1  2  1  0
  2  3  2  0
  3  4  1  0
  4  5  2  0
  5  6  1  0
  6  7  1  0
  7  8  1  0
  8  9  1  0
  9 10  1  0
 10 11  1  0
 11 12  1  0
 12 13  1  0
 10 14  1  0
 13 14  1  0
  8 15  2  0
 15 16  1  0
 16 17  2  0
 17 18  1  0
 18 19  2  0
 19 20  1  0
  7 21  1  0
 16 21  1  0
 20 21  2  0
  5 22  1  0
  2 23  1  0
 22 23  2  0
M  END
