AMI-CSI-2339ae1c-4
     RDKit          3D

 17 19  0  0  0  0  0  0  0  0999 V2000
    9.3330   -3.0230   21.4730 O   0  0  0  0  0  0  0  0  0  0  0  0
    8.7140   -3.0140   22.5020 C   0  0  0  0  0  0  0  0  0  0  0  0
    7.3740   -3.7700   22.7060 C   0  0  1  0  0  0  0  0  0  0  0  0
    7.0780   -4.8720   21.9570 C   0  0  0  0  0  0  0  0  0  0  0  0
    5.9610   -5.6040   22.3310 C   0  0  0  0  0  0  0  0  0  0  0  0
    5.1640   -5.2180   23.4110 C   0  0  0  0  0  0  0  0  0  0  0  0
    6.2830   -5.1100   24.2650 C   0  0  0  0  0  0  0  0  0  0  0  0
    7.3620   -4.2690   23.9540 C   0  0  2  0  0  0  0  0  0  0  0  0
    7.4800   -2.4470   24.6150 Se  0  0  0  0  0  2  0  0  0  0  0  0
    9.1240   -2.2780   23.5750 N   0  0  0  0  0  0  0  0  0  0  0  0
   10.4670   -2.0640   24.0950 C   0  0  0  0  0  0  0  0  0  0  0  0
   10.8430   -0.7350   24.2100 C   0  0  0  0  0  0  0  0  0  0  0  0
   12.0650   -0.4060   24.7190 C   0  0  0  0  0  0  0  0  0  0  0  0
   12.9410   -1.3520   25.1310 C   0  0  0  0  0  0  0  0  0  0  0  0
   12.6790   -2.7720   25.0390 C   0  0  0  0  0  0  0  0  0  0  0  0
   13.5950   -3.6410   25.4560 F   0  0  0  0  0  0  0  0  0  0  0  0
   11.3220   -3.0730   24.4690 C   0  0  0  0  0  0  0  0  0  0  0  0
  1  2  2  0
  2  3  1  0
  3  4  1  6
  4  5  2  0
  5  6  1  0
  6  7  2  0
  3  8  1  0
  8  7  1  1
  8  9  1  0
  2 10  1  0
  9 10  1  0
 10 11  1  0
 11 12  2  0
 12 13  1  0
 13 14  2  0
 14 15  1  0
 15 16  1  0
 11 17  1  0
 15 17  2  0
M  END
