AMI-CSI-2ea5bed6-10
     RDKit          3D

 24 27  0  0  0  0  0  0  0  0999 V2000
   12.7370   -3.9600   28.6710 N   0  0  0  0  0  0  0  0  0  0  0  0
   12.8290   -4.4550   27.0260 S   0  0  0  0  0  0  0  0  0  0  0  0
   11.7370   -5.5100   26.8210 O   0  0  0  0  0  0  0  0  0  0  0  0
   14.1170   -5.0640   26.7080 O   0  0  0  0  0  0  0  0  0  0  0  0
   12.4480   -3.1100   25.9760 C   0  0  0  0  0  0  0  0  0  0  0  0
   11.5610   -3.3040   24.9680 C   0  0  0  0  0  0  0  0  0  0  0  0
   11.3260   -2.2570   24.2200 C   0  0  0  0  0  0  0  0  0  0  0  0
   11.9410   -1.0590   24.4540 C   0  0  0  0  0  0  0  0  0  0  0  0
   11.1990   -0.4790   23.3070 C   0  0  0  0  0  0  0  0  0  0  0  0
   11.2680    0.7210   22.9150 C   0  0  0  0  0  0  0  0  0  0  0  0
   12.1010    1.4170   23.6370 C   0  0  0  0  0  0  0  0  0  0  0  0
   12.1470    2.7130   23.2260 N   0  0  0  0  0  0  0  0  0  0  0  0
   10.6540    3.7860   23.7780 Se  0  0  0  0  0  2  0  0  0  0  0  0
    9.9240    2.0490   23.2060 C   0  0  1  0  0  0  0  0  0  0  0  0
    8.4960    1.5220   23.1540 C   0  0  0  0  0  0  0  0  0  0  0  0
    8.1910    0.4520   22.2420 C   0  0  0  0  0  0  0  0  0  0  0  0
    9.2150   -0.0410   21.3710 C   0  0  0  0  0  0  0  0  0  0  0  0
   10.3990    0.7970   21.1280 C   0  0  0  0  0  0  0  0  0  0  0  0
   10.4670    2.0400   21.7550 C   0  0  2  0  0  0  0  0  0  0  0  0
   11.7560    2.6410   21.9090 C   0  0  0  0  0  0  0  0  0  0  0  0
   12.5030    3.0900   20.9330 O   0  0  0  0  0  0  0  0  0  0  0  0
   12.8400    0.8190   24.7390 C   0  0  0  0  0  0  0  0  0  0  0  0
   12.9130   -0.5490   25.4170 C   0  0  0  0  0  0  0  0  0  0  0  0
   12.9830   -1.8560   26.0630 C   0  0  0  0  0  0  0  0  0  0  0  0
  2  1  1  0
  2  3  2  0
  2  4  2  0
  2  5  1  0
  5  6  2  0
  6  7  1  0
  7  8  2  0
  8  9  1  0
  9 10  2  0
 10 11  1  0
 11 12  1  0
 12 13  1  0
 13 14  1  0
 14 15  1  6
 15 16  2  0
 16 17  1  0
 17 18  2  0
 14 19  1  0
 19 18  1  1
 12 20  1  0
 19 20  1  0
 20 21  2  0
 11 22  2  0
  8 23  1  0
 22 23  1  0
  5 24  1  0
 23 24  2  0
M  END
