AMI-SHA-0ab64bbd-1
     RDKit          3D

 20 21  0  0  0  0  0  0  0  0999 V2000
    5.3930   -1.8070   19.7490 C   0  0  0  0  0  0  0  0  0  0  0  0
    5.9010   -1.7510   21.1340 C   0  0  0  0  0  0  0  0  0  0  0  0
    6.9150   -0.9280   21.4560 C   0  0  0  0  0  0  0  0  0  0  0  0
    7.7380   -1.1620   22.6800 C   0  0  1  0  0  0  0  0  0  0  0  0
    8.2620    0.0100   23.2790 C   0  0  0  0  0  0  0  0  0  0  0  0
    7.0360   -1.8360   23.7000 C   0  0  0  0  0  0  0  0  0  0  0  0
    6.6230   -1.0490   24.7060 C   0  0  0  0  0  0  0  0  0  0  0  0
    5.8600   -0.1120   24.4680 O   0  0  0  0  0  0  0  0  0  0  0  0
    6.9770   -1.2340   25.8650 O   0  0  0  0  0  0  0  0  0  0  0  0
    8.8620   -1.9300   22.4080 C   0  0  0  0  0  0  0  0  0  0  0  0
   10.2360   -1.4060   22.5680 C   0  0  0  0  0  0  0  0  0  0  0  0
   11.1810   -2.3020   22.5260 C   0  0  0  0  0  0  0  0  0  0  0  0
   12.3540   -1.7830   22.6680 N   0  0  0  0  0  0  0  0  0  0  0  0
   12.4640   -0.3050   22.8500 C   0  0  0  0  0  0  0  0  0  0  0  0
   13.6220   -1.1080   22.8410 C   0  0  0  0  0  0  0  0  0  0  0  0
   12.3890   -1.4040   22.7240 C   0  0  0  0  0  0  0  0  0  0  0  0
   12.8440    0.0570   22.9120 C   0  0  0  0  0  0  0  0  0  0  0  0
   12.3820    1.3960   23.0180 C   0  0  0  0  0  0  0  0  0  0  0  0
   11.6060    0.8360   22.9170 C   0  0  0  0  0  0  0  0  0  0  0  0
   10.7850   -0.0920   22.7560 C   0  0  0  0  0  0  0  0  0  0  0  0
  1  2  1  0
  2  3  1  0
  4  3  1  0
  4  5  1  1
  4  6  1  0
  6  7  1  0
  7  8  2  0
  7  9  1  0
  4 10  1  0
 10 11  1  0
 11 12  2  0
 12 13  1  0
 13 14  1  0
 14 15  1  0
 15 16  2  0
 16 17  1  0
 17 18  1  0
 17 19  2  0
 11 20  1  0
 14 20  2  0
 19 20  1  0
M  END
