AMI-CSI-2ea5bed6-2
     RDKit          3D

 17 19  0  0  0  0  0  0  0  0999 V2000
    8.0540   -1.1780   23.3770 O   0  0  0  0  0  0  0  0  0  0  0  0
    8.2090   -2.4080   23.3360 C   0  0  0  0  0  0  0  0  0  0  0  0
    7.0770   -3.1880   23.2150 C   0  0  1  0  0  0  0  0  0  0  0  0
    6.7080   -3.5400   21.7910 C   0  0  0  0  0  0  0  0  0  0  0  0
    6.1780   -4.9970   21.3990 C   0  0  0  0  0  0  0  0  0  0  0  0
    6.0660   -5.9660   22.3460 C   0  0  0  0  0  0  0  0  0  0  0  0
    6.5170   -5.4250   23.4780 C   0  0  0  0  0  0  0  0  0  0  0  0
    7.0320   -4.3080   24.0500 C   0  0  1  0  0  0  0  0  0  0  0  0
    8.9110   -4.5940   24.2660 Se  0  0  0  0  0  2  0  0  0  0  0  0
    9.4980   -3.0130   23.4070 N   0  0  0  0  0  0  0  0  0  0  0  0
   10.7280   -2.5200   23.8040 C   0  0  0  0  0  0  0  0  0  0  0  0
   11.3970   -1.1560   23.6530 C   0  0  0  0  0  0  0  0  0  0  0  0
   12.7840   -0.9880   24.2670 C   0  0  0  0  0  0  0  0  0  0  0  0
   13.3050   -2.1180   24.9220 C   0  0  0  0  0  0  0  0  0  0  0  0
   14.4790   -2.2590   25.5700 F   0  0  0  0  0  0  0  0  0  0  0  0
   12.6670   -3.2450   24.9880 C   0  0  0  0  0  0  0  0  0  0  0  0
   11.4410   -3.4690   24.4610 C   0  0  0  0  0  0  0  0  0  0  0  0
  1  2  2  0
  2  3  1  0
  3  4  1  6
  4  5  2  0
  5  6  1  0
  6  7  2  0
  3  8  1  0
  8  7  1  6
  8  9  1  0
  2 10  1  0
  9 10  1  0
 10 11  1  0
 11 12  2  0
 12 13  1  0
 13 14  2  0
 14 15  1  0
 14 16  1  0
 11 17  1  0
 16 17  2  0
M  END
