AMI-CSI-2ea5bed6-7
     RDKit          3D

 20 23  0  0  0  0  0  0  0  0999 V2000
    7.6760   -2.1130   20.3010 O   0  0  0  0  0  0  0  0  0  0  0  0
    8.0300   -2.5260   21.3990 C   0  0  0  0  0  0  0  0  0  0  0  0
    6.5750   -2.6360   21.2570 C   0  0  2  0  0  0  0  0  0  0  0  0
    5.9560   -1.4200   21.1610 C   0  0  0  0  0  0  0  0  0  0  0  0
    5.0940   -1.5230   20.1300 C   0  0  0  0  0  0  0  0  0  0  0  0
    5.0900   -2.9270   19.5520 C   0  0  0  0  0  0  0  0  0  0  0  0
    5.4480   -4.0420   20.3700 C   0  0  0  0  0  0  0  0  0  0  0  0
    5.8300   -3.7210   21.6620 C   0  0  1  0  0  0  0  0  0  0  0  0
    7.2150   -4.8160   22.4120 Se  0  0  0  0  0  2  0  0  0  0  0  0
    7.9650   -3.0650   22.7080 N   0  0  0  0  0  0  0  0  0  0  0  0
    9.2680   -2.7680   23.2310 C   0  0  0  0  0  0  0  0  0  0  0  0
    8.7400   -4.0580   23.7220 C   0  0  0  0  0  0  0  0  0  0  0  0
    9.8570   -3.4390   23.9430 C   0  0  0  0  0  0  0  0  0  0  0  0
   10.0200   -2.1690   23.3100 C   0  0  0  0  0  0  0  0  0  0  0  0
   11.1640   -1.8840   23.7450 C   0  0  0  0  0  0  0  0  0  0  0  0
   11.4270   -0.7000   23.2360 C   0  0  0  0  0  0  0  0  0  0  0  0
   12.6420   -0.6090   23.8180 C   0  0  0  0  0  0  0  0  0  0  0  0
   12.8930   -1.7810   24.5910 C   0  0  0  0  0  0  0  0  0  0  0  0
   11.9310   -2.8970   24.6980 C   0  0  0  0  0  0  0  0  0  0  0  0
   10.5850   -3.0450   24.0760 C   0  0  0  0  0  0  0  0  0  0  0  0
  1  2  2  0
  2  3  1  0
  3  4  1  1
  4  5  2  0
  5  6  1  0
  6  7  2  0
  3  8  1  0
  8  7  1  6
  8  9  1  0
  2 10  1  0
  9 10  1  0
 10 11  1  0
 11 12  2  0
 12 13  1  0
 13 14  2  0
 14 15  1  0
 15 16  1  0
 16 17  2  0
 17 18  1  0
 18 19  2  0
 11 20  1  0
 15 20  2  0
 19 20  1  0
M  END
