AMI-CSI-2339ae1c-2
     RDKit          3D

 17 19  0  0  0  0  0  0  0  0999 V2000
    8.4220   -0.8990   22.1430 O   0  0  0  0  0  0  0  0  0  0  0  0
    8.4840   -2.0200   22.6180 C   0  0  0  0  0  0  0  0  0  0  0  0
    7.5800   -3.0080   22.1920 C   0  0  2  0  0  0  0  0  0  0  0  0
    6.6900   -2.6310   21.1620 C   0  0  0  0  0  0  0  0  0  0  0  0
    5.6310   -3.5870   20.7650 C   0  0  0  0  0  0  0  0  0  0  0  0
    5.7090   -4.8010   21.5940 C   0  0  0  0  0  0  0  0  0  0  0  0
    6.3340   -4.9830   22.7980 C   0  0  0  0  0  0  0  0  0  0  0  0
    6.9280   -3.7540   23.2060 C   0  0  1  0  0  0  0  0  0  0  0  0
    8.6590   -4.0890   23.9310 Se  0  0  0  0  0  2  0  0  0  0  0  0
    9.3660   -2.4110   23.5410 N   0  0  0  0  0  0  0  0  0  0  0  0
   10.7240   -2.1310   23.9010 C   0  0  0  0  0  0  0  0  0  0  0  0
   11.4550   -0.9520   23.7050 C   0  0  0  0  0  0  0  0  0  0  0  0
   12.9280   -0.9100   24.2300 C   0  0  0  0  0  0  0  0  0  0  0  0
   13.3770   -2.0530   24.8550 C   0  0  0  0  0  0  0  0  0  0  0  0
   14.4400   -2.2660   25.3520 O   0  0  0  0  0  0  0  0  0  0  0  0
   12.6240   -3.1100   24.9820 C   0  0  0  0  0  0  0  0  0  0  0  0
   11.3600   -3.1790   24.5310 C   0  0  0  0  0  0  0  0  0  0  0  0
  1  2  2  0
  2  3  1  0
  3  4  1  1
  4  5  2  0
  5  6  1  0
  6  7  2  0
  3  8  1  0
  8  7  1  6
  8  9  1  0
  2 10  1  0
  9 10  1  0
 10 11  1  0
 11 12  2  0
 12 13  1  0
 13 14  2  0
 14 15  1  0
 14 16  1  0
 11 17  1  0
 16 17  2  0
M  END
