AMI-CSI-2ea5bed6-11
     RDKit          3D

 20 22  0  0  0  0  0  0  0  0999 V2000
    6.6180   -3.8820   24.7050 N   0  0  0  0  0  0  0  0  0  0  0  0
    7.0350   -2.2360   24.9130 S   0  0  0  0  0  0  0  0  0  0  0  0
    7.1050   -1.8420   26.3740 O   0  0  0  0  0  0  0  0  0  0  0  0
    5.9330   -1.4220   24.2790 O   0  0  0  0  0  0  0  0  0  0  0  0
    8.5690   -1.7620   24.1470 C   0  0  0  0  0  0  0  0  0  0  0  0
    8.5880   -0.3720   23.6170 C   0  0  0  0  0  0  0  0  0  0  0  0
    9.7810    0.1110   22.9710 C   0  0  0  0  0  0  0  0  0  0  0  0
   10.8730   -0.7870   22.8660 C   0  0  0  0  0  0  0  0  0  0  0  0
   11.9570   -0.3820   22.2340 N   0  0  0  0  0  0  0  0  0  0  0  0
   13.2240    0.1770   23.4680 Se  0  0  0  0  0  2  0  0  0  0  0  0
   13.6850   -1.7170   23.5980 C   0  0  1  0  0  0  0  0  0  0  0  0
   14.0500   -2.3950   24.8750 C   0  0  0  0  0  0  0  0  0  0  0  0
   13.1830   -3.3800   25.3280 C   0  0  0  0  0  0  0  0  0  0  0  0
   11.9010   -3.5670   24.5830 C   0  0  0  0  0  0  0  0  0  0  0  0
   11.6320   -2.9110   23.4470 C   0  0  0  0  0  0  0  0  0  0  0  0
   12.5070   -2.0200   22.9980 C   0  0  2  0  0  0  0  0  0  0  0  0
   12.6100   -1.4630   21.8290 C   0  0  0  0  0  0  0  0  0  0  0  0
   13.1480   -1.7930   20.7070 O   0  0  0  0  0  0  0  0  0  0  0  0
   10.8180   -2.0650   23.3850 C   0  0  0  0  0  0  0  0  0  0  0  0
    9.6840   -2.5600   24.0190 C   0  0  0  0  0  0  0  0  0  0  0  0
  2  1  1  0
  2  3  2  0
  2  4  2  0
  2  5  1  0
  5  6  2  0
  6  7  1  0
  7  8  2  0
  8  9  1  0
  9 10  1  0
 10 11  1  0
 11 12  1  1
 12 13  2  0
 13 14  1  0
 14 15  2  0
 11 16  1  0
 16 15  1  6
  9 17  1  0
 16 17  1  0
 17 18  2  0
  8 19  1  0
  5 20  1  0
 19 20  2  0
M  END
