AMI-SHA-7fcb2bd6-1
     RDKit          3D

 17 18  0  0  0  0  0  0  0  0999 V2000
    6.4890   -5.2380   25.8390 F   0  0  0  0  0  0  0  0  0  0  0  0
    7.4230   -4.4090   25.2880 C   0  0  0  0  0  0  0  0  0  0  0  0
    7.0430   -3.8960   23.9400 C   0  0  0  0  0  0  0  0  0  0  0  0
    5.9450   -4.5300   23.5260 C   0  0  0  0  0  0  0  0  0  0  0  0
    5.2630   -4.3090   22.3030 C   0  0  0  0  0  0  0  0  0  0  0  0
    5.8530   -3.3490   21.5510 C   0  0  0  0  0  0  0  0  0  0  0  0
    7.0780   -2.6900   22.0700 C   0  0  0  0  0  0  0  0  0  0  0  0
    7.8230   -2.8240   23.2320 C   0  0  0  0  0  0  0  0  0  0  0  0
    8.4430   -1.7680   22.3400 C   0  0  0  0  0  0  0  0  0  0  0  0
    9.7900   -1.1510   22.6480 C   0  0  0  0  0  0  0  0  0  0  0  0
   10.0430    0.2340   22.8520 C   0  0  0  0  0  0  0  0  0  0  0  0
   11.3190    0.7580   23.1210 C   0  0  0  0  0  0  0  0  0  0  0  0
   12.4100   -0.0730   23.2220 C   0  0  0  0  0  0  0  0  0  0  0  0
   12.3400   -1.4420   23.0610 C   0  0  0  0  0  0  0  0  0  0  0  0
   13.3770   -2.3510   23.1680 C   0  0  0  0  0  0  0  0  0  0  0  0
   13.6070   -2.6360   24.8350 S   0  0  0  0  0  0  0  0  0  0  0  0
   11.0030   -2.0490   22.7430 C   0  0  0  0  0  0  0  0  0  0  0  0
  1  2  1  0
  2  3  1  0
  3  4  2  0
  4  5  1  0
  5  6  2  0
  6  7  1  0
  3  8  1  0
  7  8  2  0
  8  9  1  0
  9 10  1  0
 10 11  2  0
 11 12  1  0
 12 13  2  0
 13 14  1  0
 14 15  1  0
 15 16  1  0
 10 17  1  0
 14 17  2  0
M  END
