AMI-CSI-2339ae1c-5
     RDKit          3D

 17 19  0  0  0  0  0  0  0  0999 V2000
    9.8960   -2.9540   22.0680 O   0  0  0  0  0  0  0  0  0  0  0  0
    9.1230   -3.1800   22.9880 C   0  0  0  0  0  0  0  0  0  0  0  0
    7.9200   -4.0500   22.7480 C   0  0  2  0  0  0  0  0  0  0  0  0
    6.9220   -3.2000   22.2530 C   0  0  0  0  0  0  0  0  0  0  0  0
    5.5870   -3.4710   22.4570 C   0  0  0  0  0  0  0  0  0  0  0  0
    5.2740   -4.6900   23.2290 C   0  0  0  0  0  0  0  0  0  0  0  0
    6.2960   -5.3270   23.9080 C   0  0  0  0  0  0  0  0  0  0  0  0
    7.6170   -4.8420   23.8740 C   0  0  2  0  0  0  0  0  0  0  0  0
    7.8710   -3.4550   25.2560 Se  0  0  0  0  0  2  0  0  0  0  0  0
    9.2930   -2.6310   24.2660 N   0  0  0  0  0  0  0  0  0  0  0  0
   10.6650   -2.6210   24.5130 C   0  0  0  0  0  0  0  0  0  0  0  0
   11.5120   -1.6830   23.7100 C   0  0  0  0  0  0  0  0  0  0  0  0
   12.9050   -1.6320   23.9560 C   0  0  0  0  0  0  0  0  0  0  0  0
   13.5190   -2.4430   24.9160 C   0  0  0  0  0  0  0  0  0  0  0  0
   12.8220   -3.3460   25.6800 C   0  0  0  0  0  0  0  0  0  0  0  0
   13.4770   -4.0830   26.5570 F   0  0  0  0  0  0  0  0  0  0  0  0
   11.4700   -3.4380   25.5000 C   0  0  0  0  0  0  0  0  0  0  0  0
  1  2  2  0
  2  3  1  0
  3  4  1  1
  4  5  2  0
  5  6  1  0
  6  7  2  0
  3  8  1  0
  8  7  1  6
  8  9  1  0
  2 10  1  0
  9 10  1  0
 10 11  1  0
 11 12  2  0
 12 13  1  0
 13 14  2  0
 14 15  1  0
 15 16  1  0
 11 17  1  0
 15 17  2  0
M  END
