AMI-CSI-2339ae1c-3
     RDKit          3D

 18 20  0  0  0  0  0  0  0  0999 V2000
    8.9710   -3.0580   22.1480 O   0  0  0  0  0  0  0  0  0  0  0  0
    8.7300   -3.4910   23.2670 C   0  0  0  0  0  0  0  0  0  0  0  0
    7.9410   -4.7810   23.4610 C   0  0  2  0  0  0  0  0  0  0  0  0
    7.4090   -5.3820   22.3340 C   0  0  0  0  0  0  0  0  0  0  0  0
    6.1620   -5.0150   22.0170 C   0  0  0  0  0  0  0  0  0  0  0  0
    5.5480   -3.9950   22.8900 C   0  0  0  0  0  0  0  0  0  0  0  0
    5.8800   -3.6600   24.2290 C   0  0  0  0  0  0  0  0  0  0  0  0
    6.9140   -4.6300   24.3610 C   0  0  2  0  0  0  0  0  0  0  0  0
    8.0630   -3.8110   25.7410 Se  0  0  0  0  0  2  0  0  0  0  0  0
    9.1360   -2.8430   24.4700 N   0  0  0  0  0  0  0  0  0  0  0  0
   10.5350   -2.7120   24.5810 C   0  0  0  0  0  0  0  0  0  0  0  0
   11.2930   -1.6970   23.7620 C   0  0  0  0  0  0  0  0  0  0  0  0
   12.7070   -1.6000   23.9450 C   0  0  0  0  0  0  0  0  0  0  0  0
   13.3690   -2.4350   24.8530 C   0  0  0  0  0  0  0  0  0  0  0  0
   14.5560   -2.4360   25.0780 O   0  0  0  0  0  0  0  0  0  0  0  0
   12.7890   -3.3840   25.6260 C   0  0  0  0  0  0  0  0  0  0  0  0
   13.5580   -4.1530   26.4780 O   0  0  0  0  0  0  0  0  0  0  0  0
   11.4360   -3.5270   25.5060 C   0  0  0  0  0  0  0  0  0  0  0  0
  1  2  2  0
  2  3  1  0
  3  4  1  6
  4  5  2  0
  5  6  1  0
  6  7  2  0
  3  8  1  0
  8  7  1  6
  8  9  1  0
  2 10  1  0
  9 10  1  0
 10 11  1  0
 11 12  2  0
 12 13  1  0
 13 14  2  0
 14 15  1  0
 14 16  1  0
 16 17  1  0
 11 18  1  0
 16 18  2  0
M  END
