AMI-CSI-2ea5bed6-4
     RDKit          3D

 19 21  0  0  0  0  0  0  0  0999 V2000
    9.7100   -4.2590   26.0490 N   0  0  0  0  0  0  0  0  0  0  0  0
   10.2370   -3.3010   25.3830 C   0  0  0  0  0  0  0  0  0  0  0  0
    9.4100   -2.4680   24.5840 O   0  0  0  0  0  0  0  0  0  0  0  0
   11.7700   -3.0810   25.4780 C   0  0  0  0  0  0  0  0  0  0  0  0
   12.3710   -1.9490   24.7970 C   0  0  0  0  0  0  0  0  0  0  0  0
   13.7330   -1.7690   24.8640 C   0  0  0  0  0  0  0  0  0  0  0  0
   14.8490   -2.5830   25.5940 C   0  0  0  0  0  0  0  0  0  0  0  0
   16.7930   -2.3980   25.5270 N   0  0  0  0  0  0  0  0  0  0  0  0
   18.5470   -1.5390   24.1950 Se  0  0  0  0  0  2  0  0  0  0  0  0
   19.5990   -0.3770   25.2280 C   0  0  2  0  0  0  0  0  0  0  0  0
   20.9180   -0.4530   24.7800 C   0  0  0  0  0  0  0  0  0  0  0  0
   21.8010   -1.4740   25.0700 C   0  0  0  0  0  0  0  0  0  0  0  0
   21.2390   -2.5540   25.9180 C   0  0  0  0  0  0  0  0  0  0  0  0
   19.9430   -2.3270   26.3800 C   0  0  0  0  0  0  0  0  0  0  0  0
   19.0770   -1.2190   26.1820 C   0  0  2  0  0  0  0  0  0  0  0  0
   17.5440   -1.5830   26.1640 C   0  0  0  0  0  0  0  0  0  0  0  0
   16.7000   -1.1080   26.8900 O   0  0  0  0  0  0  0  0  0  0  0  0
   14.0570   -3.6390   26.2280 C   0  0  0  0  0  0  0  0  0  0  0  0
   12.6520   -3.8680   26.1650 C   0  0  0  0  0  0  0  0  0  0  0  0
  1  2  1  0
  2  3  2  0
  2  4  1  0
  4  5  2  0
  5  6  1  0
  6  7  2  0
  7  8  1  0
  8  9  1  0
  9 10  1  0
 10 11  1  6
 11 12  2  0
 12 13  1  0
 13 14  2  0
 10 15  1  0
 15 14  1  6
  8 16  1  0
 15 16  1  0
 16 17  2  0
  7 18  1  0
  4 19  1  0
 18 19  2  0
M  END
