AND-WAB-7d3788f1-1
     RDKit          3D

 27 29  0  0  0  0  0  0  0  0999 V2000
    6.5740   -4.8000   25.9830 C   0  0  0  0  0  0  0  0  0  0  0  0
    8.1420   -4.1470   25.4300 S   0  0  0  0  0  0  0  0  0  0  0  0
    8.9780   -5.2790   25.1140 O   0  0  0  0  0  0  0  0  0  0  0  0
    8.5370   -3.2400   26.4600 O   0  0  0  0  0  0  0  0  0  0  0  0
    7.7890   -3.2170   24.0140 N   0  0  0  0  0  0  0  0  0  0  0  0
    8.8510   -2.7100   23.1570 C   0  0  0  0  0  0  0  0  0  0  0  0
    9.0120   -1.3370   22.8450 N   0  0  0  0  0  0  0  0  0  0  0  0
    8.3390   -0.6440   21.8010 C   0  0  0  0  0  0  0  0  0  0  0  0
    8.7600    0.4350   21.3760 O   0  0  0  0  0  0  0  0  0  0  0  0
    7.1140   -1.1830   21.2170 N   0  0  0  0  0  0  0  0  0  0  0  0
    6.2460   -0.5280   20.1790 C   0  0  2  0  0  0  0  0  0  0  0  0
    6.9280   -0.3780   18.9870 C   0  0  0  0  0  0  0  0  0  0  0  0
    6.4440    0.4260   17.9920 N   0  0  0  0  0  0  0  0  0  0  0  0
    5.2370    1.0880   18.2380 C   0  0  0  0  0  0  0  0  0  0  0  0
    4.7370    1.1180   19.5560 C   0  0  0  0  0  0  0  0  0  0  0  0
    5.6310    0.6740   20.5670 C   0  0  0  0  0  0  0  0  0  0  0  0
   10.3620   -0.8920   22.9680 C   0  0  0  0  0  0  0  0  0  0  0  0
   10.8110   -0.4400   24.2080 C   0  0  0  0  0  0  0  0  0  0  0  0
   11.9630    0.3460   24.2530 C   0  0  0  0  0  0  0  0  0  0  0  0
   12.7290    0.1660   22.9510 C   0  0  0  0  0  0  0  0  0  0  0  0
   12.6850   -1.2940   22.5260 C   0  0  0  0  0  0  0  0  0  0  0  0
   11.4250   -1.8520   22.3840 C   0  0  0  0  0  0  0  0  0  0  0  0
    6.6580   -3.7990   23.1790 C   0  0  0  0  0  0  0  0  0  0  0  0
    5.3920   -3.7830   23.8140 C   0  0  0  0  0  0  0  0  0  0  0  0
    4.7350   -5.0040   23.8800 C   0  0  0  0  0  0  0  0  0  0  0  0
    5.6300   -6.0330   23.2310 C   0  0  0  0  0  0  0  0  0  0  0  0
    6.8570   -5.2620   22.7980 C   0  0  0  0  0  0  0  0  0  0  0  0
  1  2  1  0
  2  3  2  0
  2  4  2  0
  2  5  1  0
  5  6  1  0
  6  7  1  0
  7  8  1  0
  8  9  2  0
  8 10  1  0
 11 10  1  1
 11 12  1  0
 12 13  2  0
 13 14  1  0
 14 15  1  0
 11 16  1  0
 15 16  1  0
  7 17  1  0
 17 18  1  0
 18 19  1  0
 19 20  1  0
 20 21  1  0
 17 22  1  0
 21 22  1  0
  5 23  1  0
 23 24  1  0
 24 25  2  0
 25 26  1  0
 23 27  1  0
 26 27  2  0
M  END
