AND-WAB-9085730e-1
     RDKit          3D

 16 17  0  0  0  0  0  0  0  0999 V2000
   13.3590   -1.3090   22.7470 C   0  0  0  0  0  0  0  0  0  0  0  0
   12.0610   -1.1100   23.3340 N   0  0  0  0  0  0  0  0  0  0  0  0
   11.1020   -1.9110   22.5560 C   0  0  0  0  0  0  0  0  0  0  0  0
    9.7710   -1.7090   22.8920 C   0  0  0  0  0  0  0  0  0  0  0  0
    9.4220   -0.2840   22.8990 N   0  0  0  0  0  0  0  0  0  0  0  0
    8.4140    0.2730   21.9850 C   0  0  1  0  0  0  0  0  0  0  0  0
    8.9190    1.3910   21.2540 O   0  0  0  0  0  0  0  0  0  0  0  0
    7.8980   -0.7270   21.1480 C   0  0  0  0  0  0  0  0  0  0  0  0
    6.6580   -0.3850   20.2840 C   0  0  0  0  0  0  0  0  0  0  0  0
    7.0710   -0.2180   18.8380 C   0  0  0  0  0  0  0  0  0  0  0  0
    5.9110   -0.2060   17.9930 N   0  0  0  0  0  0  0  0  0  0  0  0
    5.1050    0.9630   18.2730 C   0  0  0  0  0  0  0  0  0  0  0  0
    4.7570    1.0600   19.6830 N   0  0  0  0  0  0  0  0  0  0  0  0
    5.8820    0.8860   20.6200 C   0  0  0  0  0  0  0  0  0  0  0  0
   10.3770    0.6070   23.5590 C   0  0  0  0  0  0  0  0  0  0  0  0
   11.7260    0.3200   23.3740 C   0  0  0  0  0  0  0  0  0  0  0  0
  1  2  1  0
  2  3  1  0
  3  4  1  0
  4  5  1  0
  5  6  1  0
  6  7  1  6
  6  8  1  0
  8  9  1  0
  9 10  1  0
 10 11  1  0
 11 12  1  0
 12 13  1  0
  9 14  1  0
 13 14  1  0
  5 15  1  0
  2 16  1  0
 15 16  1  0
M  END
