AND-WAB-6ed53ced-1
     RDKit          3D

 23 24  0  0  0  0  0  0  0  0999 V2000
    4.9150   -0.1430   18.8640 C   0  0  0  0  0  0  0  0  0  0  0  0
    6.6210    0.1020   19.3110 S   0  0  0  0  0  0  0  0  0  0  0  0
    6.9230    1.5060   19.2330 O   0  0  0  0  0  0  0  0  0  0  0  0
    7.3960   -0.8970   18.6290 O   0  0  0  0  0  0  0  0  0  0  0  0
    6.6890   -0.3180   20.9350 N   0  0  0  0  0  0  0  0  0  0  0  0
    7.9730   -0.4500   21.5130 C   0  0  0  0  0  0  0  0  0  0  0  0
    8.1730   -1.0650   22.7540 C   0  0  0  0  0  0  0  0  0  0  0  0
    9.2950   -1.8820   22.9440 C   0  0  1  0  0  0  0  0  0  0  0  0
   10.5670   -1.2950   22.8660 C   0  0  0  0  0  0  0  0  0  0  0  0
   10.7790    0.0340   23.3580 C   0  0  0  0  0  0  0  0  0  0  0  0
   12.0520    0.6560   23.2990 C   0  0  0  0  0  0  0  0  0  0  0  0
   12.9080   -0.1880   22.7450 C   0  0  0  0  0  0  0  0  0  0  0  0
   12.9240   -1.4240   22.2320 C   0  0  0  0  0  0  0  0  0  0  0  0
   11.6680   -2.0060   22.3000 C   0  0  0  0  0  0  0  0  0  0  0  0
    9.1860   -2.9170   24.1210 C   0  0  1  0  0  0  0  0  0  0  0  0
    8.8620   -2.2310   25.3250 O   0  0  0  0  0  0  0  0  0  0  0  0
    8.1990   -3.9740   23.9210 N   0  0  0  0  0  0  0  0  0  0  0  0
    6.7650   -3.6560   24.0060 C   0  0  0  0  0  0  0  0  0  0  0  0
    6.3300   -2.3450   24.6320 C   0  0  0  0  0  0  0  0  0  0  0  0
    4.9770   -2.0580   24.7050 C   0  0  0  0  0  0  0  0  0  0  0  0
    4.0810   -3.0040   24.1940 C   0  0  0  0  0  0  0  0  0  0  0  0
    4.5650   -4.2030   23.6270 C   0  0  0  0  0  0  0  0  0  0  0  0
    5.8770   -4.5530   23.5200 N   0  0  0  0  0  0  0  0  0  0  0  0
  1  2  1  0
  2  3  2  0
  2  4  2  0
  2  5  1  0
  5  6  1  0
  6  7  1  0
  8  7  1  1
  8  9  1  0
  9 10  2  0
 10 11  1  0
 11 12  2  0
 12 13  1  0
  9 14  1  0
 13 14  2  0
  8 15  1  0
 15 16  1  1
 15 17  1  0
 17 18  1  0
 18 19  2  0
 19 20  1  0
 20 21  2  0
 21 22  1  0
 18 23  1  0
 22 23  2  0
M  END
