ANT-DIA-b7f58f21-5
     RDKit          3D

 12 12  0  0  0  0  0  0  0  0999 V2000
   12.7290   -1.5030   24.3420 C   0  0  0  0  0  0  0  0  0  0  0  0
   12.7150   -0.4590   22.8900 S   0  0  0  0  0  0  0  0  0  0  0  0
   13.2620    0.8180   23.2440 O   0  0  0  0  0  0  0  0  0  0  0  0
   13.2100   -1.2210   21.7650 O   0  0  0  0  0  0  0  0  0  0  0  0
   11.0970   -0.0690   22.6350 N   0  0  0  0  0  0  0  0  0  0  0  0
    9.9950   -0.7600   23.3550 C   0  0  0  0  0  0  0  0  0  0  0  0
    9.5390   -2.1690   22.7880 C   0  0  0  0  0  0  0  0  0  0  0  0
    9.0260   -3.0590   23.9760 C   0  0  0  0  0  0  0  0  0  0  0  0
   10.5030   -3.1340   23.9210 C   0  0  0  0  0  0  0  0  0  0  0  0
   10.1470   -2.1320   22.5290 S   0  0  0  0  0  0  0  0  0  0  0  0
    8.4010   -2.0060   22.5680 C   0  0  0  0  0  0  0  0  0  0  0  0
    7.8720   -2.6500   23.5400 N   0  0  0  0  0  0  0  0  0  0  0  0
  1  2  1  0
  2  3  2  0
  2  4  2  0
  2  5  1  0
  5  6  1  0
  6  7  1  0
  7  8  1  0
  8  9  2  0
  9 10  1  0
 10 11  1  0
  8 12  1  0
 11 12  2  0
M  END
