ANT-OPE-47f3bb65-1
     RDKit          3D

 20 21  0  0  0  0  0  0  0  0999 V2000
   12.6240   -2.2360   21.0080 C   0  0  0  0  0  0  0  0  0  0  0  0
   13.2480   -3.1570   21.9070 N   0  0  0  0  0  0  0  0  0  0  0  0
   13.0490   -2.8380   23.5380 S   0  0  0  0  0  0  0  0  0  0  0  0
   11.6650   -2.9670   23.9170 O   0  0  0  0  0  0  0  0  0  0  0  0
   14.1330   -3.3740   24.2980 O   0  0  0  0  0  0  0  0  0  0  0  0
   13.5090   -1.2570   23.0890 C   0  0  0  0  0  0  0  0  0  0  0  0
   12.4110   -0.4610   23.0530 C   0  0  0  0  0  0  0  0  0  0  0  0
   11.0110   -1.0830   23.1670 C   0  0  0  0  0  0  0  0  0  0  0  0
    9.9480   -0.2620   23.1690 C   0  0  0  0  0  0  0  0  0  0  0  0
   10.2020    1.0880   23.0680 C   0  0  0  0  0  0  0  0  0  0  0  0
    9.3070    2.1680   23.0630 N   0  0  0  0  0  0  0  0  0  0  0  0
    9.9540    3.3810   22.9440 C   0  0  0  0  0  0  0  0  0  0  0  0
   11.4110    2.9580   22.8720 C   0  0  0  0  0  0  0  0  0  0  0  0
   12.5250    3.9790   22.7370 C   0  0  0  0  0  0  0  0  0  0  0  0
   12.0910    5.1410   23.5690 C   0  0  0  0  0  0  0  0  0  0  0  0
   10.9060    5.5740   23.1660 N   0  0  0  0  0  0  0  0  0  0  0  0
    9.9310    5.7830   24.0490 C   0  0  0  0  0  0  0  0  0  0  0  0
   11.1700    6.5490   22.3630 C   0  0  0  0  0  0  0  0  0  0  0  0
   11.5040    1.6080   22.9510 C   0  0  0  0  0  0  0  0  0  0  0  0
   12.6070    0.8600   22.9380 C   0  0  0  0  0  0  0  0  0  0  0  0
  1  2  1  0
  3  2  1  0
  3  4  2  0
  3  5  2  0
  3  6  1  0
  6  7  1  0
  7  8  2  0
  8  9  1  0
  9 10  2  0
 10 11  1  0
 11 12  1  0
 12 13  2  0
 13 14  1  0
 14 15  1  0
 15 16  1  0
 16 17  1  0
 16 18  1  0
 10 19  1  0
 13 19  1  0
  7 20  1  0
 19 20  2  0
M  END
