ANT-DIA-b7f58f21-2
     RDKit          3D

 14 14  0  0  0  0  0  0  0  0999 V2000
    6.4680   -4.9760   26.1700 C   0  0  0  0  0  0  0  0  0  0  0  0
    7.9750   -4.0290   26.1300 S   0  0  0  0  0  0  0  0  0  0  0  0
    9.0500   -4.9380   25.8160 O   0  0  0  0  0  0  0  0  0  0  0  0
    8.0130   -3.3240   27.3910 O   0  0  0  0  0  0  0  0  0  0  0  0
    7.8210   -2.8170   24.9110 N   0  0  0  0  0  0  0  0  0  0  0  0
    8.6600   -2.8840   23.7020 C   0  0  0  0  0  0  0  0  0  0  0  0
    8.9490   -1.5740   23.2410 C   0  0  0  0  0  0  0  0  0  0  0  0
   10.2710   -1.2440   22.9390 C   0  0  0  0  0  0  0  0  0  0  0  0
   10.7030   -0.0300   23.4000 C   0  0  0  0  0  0  0  0  0  0  0  0
   11.9780    0.5290   23.2510 C   0  0  0  0  0  0  0  0  0  0  0  0
   12.9630   -0.2130   22.5460 C   0  0  0  0  0  0  0  0  0  0  0  0
   12.5730   -1.5740   21.9750 C   0  0  0  0  0  0  0  0  0  0  0  0
   13.3930   -2.3850   21.2680 O   0  0  0  0  0  0  0  0  0  0  0  0
   11.1650   -2.0210   22.2300 C   0  0  0  0  0  0  0  0  0  0  0  0
  1  2  1  0
  2  3  2  0
  2  4  2  0
  2  5  1  0
  5  6  1  0
  6  7  1  0
  7  8  1  0
  8  9  2  0
  9 10  1  0
 10 11  2  0
 11 12  1  0
 12 13  1  0
  8 14  1  0
 12 14  2  0
M  END
