ANT-OPE-47f3bb65-5
     RDKit          3D

 20 21  0  0  0  0  0  0  0  0999 V2000
   10.3010    5.9190   23.7920 C   0  0  0  0  0  0  0  0  0  0  0  0
   11.5590    5.9880   23.2240 N   0  0  0  0  0  0  0  0  0  0  0  0
   11.7550    6.0930   21.9060 C   0  0  0  0  0  0  0  0  0  0  0  0
   12.3870    4.9970   23.7430 C   0  0  0  0  0  0  0  0  0  0  0  0
   12.3180    3.8530   22.9560 C   0  0  0  0  0  0  0  0  0  0  0  0
   11.4080    2.9380   23.3970 C   0  0  0  0  0  0  0  0  0  0  0  0
   10.0150    3.2360   23.9180 C   0  0  0  0  0  0  0  0  0  0  0  0
    9.4900    2.0340   24.2570 N   0  0  0  0  0  0  0  0  0  0  0  0
   10.4040    0.9710   24.0020 C   0  0  0  0  0  0  0  0  0  0  0  0
   10.0620   -0.3260   24.2820 C   0  0  0  0  0  0  0  0  0  0  0  0
   10.9580   -1.3190   24.0170 C   0  0  0  0  0  0  0  0  0  0  0  0
   12.1600   -0.9110   23.4730 C   0  0  0  0  0  0  0  0  0  0  0  0
   13.1290   -2.1490   23.1580 S   0  0  0  0  0  0  0  0  0  0  0  0
   14.0670   -1.4550   22.4100 O   0  0  0  0  0  0  0  0  0  0  0  0
   13.3360   -2.9840   24.3210 O   0  0  0  0  0  0  0  0  0  0  0  0
   12.1350   -2.7560   22.0150 N   0  0  0  0  0  0  0  0  0  0  0  0
   10.8710   -2.3880   22.0650 C   0  0  0  0  0  0  0  0  0  0  0  0
   12.8170   -2.5010   20.8140 C   0  0  0  0  0  0  0  0  0  0  0  0
   12.5810    0.3770   23.1710 C   0  0  0  0  0  0  0  0  0  0  0  0
   11.5860    1.4420   23.4720 C   0  0  0  0  0  0  0  0  0  0  0  0
  1  2  1  0
  2  3  1  0
  2  4  1  0
  4  5  1  0
  5  6  1  0
  6  7  2  0
  7  8  1  0
  8  9  1  0
  9 10  1  0
 10 11  2  0
 11 12  1  0
 12 13  1  0
 13 14  2  0
 13 15  2  0
 13 16  1  0
 16 17  1  0
 16 18  1  0
 12 19  2  0
  6 20  1  0
  9 20  2  0
 19 20  1  0
M  END
