ANT-DIA-045cfdc4-2
     RDKit          3D

 17 18  0  0  0  0  0  0  0  0999 V2000
    8.6550    7.4340   22.7210 C   0  0  0  0  0  0  0  0  0  0  0  0
    8.9610    6.3270   23.5650 O   0  0  0  0  0  0  0  0  0  0  0  0
    9.5500    5.3430   22.8510 C   0  0  0  0  0  0  0  0  0  0  0  0
   10.0790    4.1000   23.4960 C   0  0  0  0  0  0  0  0  0  0  0  0
   10.3270    3.0990   22.5700 N   0  0  0  0  0  0  0  0  0  0  0  0
    9.4020    2.0090   22.3700 C   0  0  0  0  0  0  0  0  0  0  0  0
    8.8660    1.6290   21.3220 O   0  0  0  0  0  0  0  0  0  0  0  0
    9.0300    1.2840   23.5210 C   0  0  1  0  0  0  0  0  0  0  0  0
    7.5140    1.0490   23.6970 C   0  0  0  0  0  0  0  0  0  0  0  0
    7.2450   -0.3420   23.1620 C   0  0  0  0  0  0  0  0  0  0  0  0
    8.5880   -0.9500   23.0140 C   0  0  0  0  0  0  0  0  0  0  0  0
    9.5810   -0.1830   23.6270 C   0  0  1  0  0  0  0  0  0  0  0  0
   10.8850   -0.3590   23.1550 C   0  0  0  0  0  0  0  0  0  0  0  0
   11.9080    0.5440   23.3250 C   0  0  0  0  0  0  0  0  0  0  0  0
   13.2000    0.1730   22.7570 C   0  0  0  0  0  0  0  0  0  0  0  0
   13.0760   -1.3510   22.0100 S   0  0  0  0  0  0  0  0  0  0  0  0
   11.3910   -1.4640   22.4380 C   0  0  0  0  0  0  0  0  0  0  0  0
  1  2  1  0
  2  3  1  0
  3  4  1  0
  4  5  1  0
  5  6  1  0
  6  7  2  0
  8  6  1  6
  8  9  1  0
  9 10  1  0
 10 11  1  0
  8 12  1  0
 11 12  1  0
 12 13  1  6
 13 14  1  0
 14 15  2  0
 15 16  1  0
 13 17  2  0
 16 17  1  0
M  END
