ANT-DIA-3c79be55-5
     RDKit          3D

 21 23  0  0  0  0  0  0  0  0999 V2000
    8.6280    1.1290   21.2540 O   0  0  0  0  0  0  0  0  0  0  0  0
    8.6490   -0.0790   21.4940 C   0  0  0  0  0  0  0  0  0  0  0  0
    7.5380   -0.9190   21.1190 N   0  0  0  0  0  0  0  0  0  0  0  0
    6.7080   -0.2430   20.1030 C   0  0  0  0  0  0  0  0  0  0  0  0
    5.4880    0.4810   20.4760 C   0  0  0  0  0  0  0  0  0  0  0  0
    4.7240    1.1290   19.5220 C   0  0  0  0  0  0  0  0  0  0  0  0
    5.1730    1.0580   18.2120 C   0  0  0  0  0  0  0  0  0  0  0  0
    6.2940    0.3940   17.8180 N   0  0  0  0  0  0  0  0  0  0  0  0
    7.0400   -0.2430   18.7560 C   0  0  0  0  0  0  0  0  0  0  0  0
    9.8320   -0.6320   22.1540 C   0  0  0  0  0  0  0  0  0  0  0  0
   11.2170   -0.8660   22.9320 C   0  0  0  0  0  0  0  0  0  0  0  0
   11.0030    0.3920   22.8370 C   0  0  0  0  0  0  0  0  0  0  0  0
   11.0360    1.5590   22.8820 C   0  0  0  0  0  0  0  0  0  0  0  0
   11.5730    2.8830   23.2330 N   0  0  0  0  0  0  0  0  0  0  0  0
   10.6310    3.7410   23.8380 C   0  0  0  0  0  0  0  0  0  0  0  0
   10.3000    4.9550   23.2820 C   0  0  0  0  0  0  0  0  0  0  0  0
   11.4740    5.8230   22.8130 C   0  0  0  0  0  0  0  0  0  0  0  0
   11.6580    6.8490   23.7850 O   0  0  0  0  0  0  0  0  0  0  0  0
   12.6780    5.1180   22.7030 C   0  0  0  0  0  0  0  0  0  0  0  0
   12.5410    3.6080   22.3920 C   0  0  0  0  0  0  0  0  0  0  0  0
    9.9140    0.9810   22.2320 O   0  0  0  0  0  0  0  0  0  0  0  0
  1  2  2  0
  2  3  1  0
  3  4  1  0
  4  5  2  0
  5  6  1  0
  6  7  2  0
  7  8  1  0
  4  9  1  0
  8  9  2  0
  2 10  1  0
 10 11  2  0
 11 12  1  0
 12 13  2  0
 13 14  1  0
 14 15  1  0
 15 16  1  0
 16 17  1  0
 17 18  1  0
 17 19  1  0
 14 20  1  0
 19 20  1  0
 10 21  1  0
 13 21  1  0
M  END
