ANT-DIA-b7f58f21-6
     RDKit          3D

 17 18  0  0  0  0  0  0  0  0999 V2000
    4.3130   -4.0790   26.1330 C   0  0  0  0  0  0  0  0  0  0  0  0
    6.0540   -4.2030   26.0080 S   0  0  0  0  0  0  0  0  0  0  0  0
    6.3450   -5.6050   25.8340 O   0  0  0  0  0  0  0  0  0  0  0  0
    6.6440   -3.4540   27.0980 O   0  0  0  0  0  0  0  0  0  0  0  0
    6.4630   -3.3960   24.5770 N   0  0  0  0  0  0  0  0  0  0  0  0
    7.8040   -3.4380   24.1400 C   0  0  0  0  0  0  0  0  0  0  0  0
    8.1500   -2.8580   22.8940 C   0  0  0  0  0  0  0  0  0  0  0  0
    9.1510   -1.9270   22.9660 C   0  0  0  0  0  0  0  0  0  0  0  0
    8.8850   -0.6450   23.4380 C   0  0  0  0  0  0  0  0  0  0  0  0
    9.7850    0.3480   23.5270 C   0  0  0  0  0  0  0  0  0  0  0  0
   11.0580    0.0620   23.1210 C   0  0  0  0  0  0  0  0  0  0  0  0
   11.9870    0.9150   23.1340 N   0  0  0  0  0  0  0  0  0  0  0  0
   13.0420    0.3760   22.7090 C   0  0  0  0  0  0  0  0  0  0  0  0
   14.0790    1.2530   22.6750 N   0  0  0  0  0  0  0  0  0  0  0  0
   13.0710   -1.2490   22.2390 S   0  0  0  0  0  0  0  0  0  0  0  0
   11.4200   -1.1870   22.6560 C   0  0  0  0  0  0  0  0  0  0  0  0
   10.4460   -2.2500   22.5620 C   0  0  0  0  0  0  0  0  0  0  0  0
  1  2  1  0
  2  3  2  0
  2  4  2  0
  2  5  1  0
  5  6  1  0
  6  7  1  0
  7  8  1  0
  8  9  2  0
  9 10  1  0
 10 11  2  0
 11 12  1  0
 12 13  2  0
 13 14  1  0
 13 15  1  0
 11 16  1  0
 15 16  1  0
  8 17  1  0
 16 17  2  0
M  END
