ANT-OPE-997bdc93-1
     RDKit          3D

 18 20  0  0  0  0  0  0  0  0999 V2000
    8.9740    6.6150   22.6000 C   0  0  0  0  0  0  0  0  0  0  0  0
   10.2320    6.1840   23.3700 C   0  0  0  0  0  0  0  0  0  0  0  0
   10.3460    6.2450   24.5890 O   0  0  0  0  0  0  0  0  0  0  0  0
   11.2460    5.6970   22.4720 N   0  0  0  0  0  0  0  0  0  0  0  0
   12.4110    5.0010   22.8770 C   0  0  0  0  0  0  0  0  0  0  0  0
   12.3270    3.6480   22.5220 C   0  0  0  0  0  0  0  0  0  0  0  0
   11.6810    2.7840   23.3930 C   0  0  1  0  0  0  0  0  0  0  0  0
   10.6850    1.8470   23.1750 C   0  0  0  0  0  0  0  0  0  0  0  0
   11.3680    0.4720   23.1810 C   0  0  0  0  0  0  0  0  0  0  0  0
   12.7610    0.6380   22.8740 C   0  0  0  0  0  0  0  0  0  0  0  0
   12.9530   -0.7150   22.6590 C   0  0  0  0  0  0  0  0  0  0  0  0
   11.9240   -1.6010   22.8310 C   0  0  0  0  0  0  0  0  0  0  0  0
   10.7150   -1.0680   23.2300 C   0  0  0  0  0  0  0  0  0  0  0  0
   10.5380    0.4360   23.4610 C   0  0  0  0  0  0  0  0  0  0  0  0
   11.7860    1.3820   23.2230 C   0  0  0  0  0  0  0  0  0  0  0  0
    9.1980    0.5910   23.8540 C   0  0  0  0  0  0  0  0  0  0  0  0
    8.5870   -0.8080   23.8980 C   0  0  0  0  0  0  0  0  0  0  0  0
    9.5280   -1.7680   23.4710 C   0  0  0  0  0  0  0  0  0  0  0  0
  1  2  1  0
  2  3  2  0
  2  4  1  0
  4  5  1  0
  5  6  1  0
  7  6  1  6
  7  8  1  0
  8  9  1  0
  9 10  1  0
 10 11  2  0
 11 12  1  0
 12 13  2  0
 13 14  1  0
  7 15  1  0
 10 15  1  0
 14 15  2  0
 14 16  1  0
 16 17  1  0
 13 18  1  0
 17 18  1  0
M  END
