ANT-OPE-47f3bb65-4
     RDKit          3D

 18 19  0  0  0  0  0  0  0  0999 V2000
   10.2490    6.5070   23.3390 C   0  0  0  0  0  0  0  0  0  0  0  0
   10.7570    5.2990   22.9430 N   0  0  0  0  0  0  0  0  0  0  0  0
    9.8980    4.2230   22.6050 C   0  0  0  0  0  0  0  0  0  0  0  0
   12.1580    5.1390   23.0920 C   0  0  0  0  0  0  0  0  0  0  0  0
   12.5600    3.8360   22.8190 C   0  0  0  0  0  0  0  0  0  0  0  0
   11.7020    2.8480   23.2890 C   0  0  0  0  0  0  0  0  0  0  0  0
   10.5330    3.0540   24.0030 C   0  0  0  0  0  0  0  0  0  0  0  0
    9.8340    1.9300   24.3580 N   0  0  0  0  0  0  0  0  0  0  0  0
   10.5780    0.9550   23.8470 C   0  0  0  0  0  0  0  0  0  0  0  0
   10.2500   -0.3760   23.9460 C   0  0  0  0  0  0  0  0  0  0  0  0
   11.0820   -1.2680   23.3520 C   0  0  0  0  0  0  0  0  0  0  0  0
   12.2240   -0.8840   22.6860 C   0  0  0  0  0  0  0  0  0  0  0  0
   13.0010   -2.1350   22.0180 S   0  0  0  0  0  0  0  0  0  0  0  0
   13.7550   -2.8010   23.3720 N   0  0  0  0  0  0  0  0  0  0  0  0
   13.8310   -1.5950   20.9730 O   0  0  0  0  0  0  0  0  0  0  0  0
   11.8260   -2.8650   21.7280 O   0  0  0  0  0  0  0  0  0  0  0  0
   12.6210    0.3970   22.5840 C   0  0  0  0  0  0  0  0  0  0  0  0
   11.7340    1.4070   23.1850 C   0  0  0  0  0  0  0  0  0  0  0  0
  1  2  1  0
  2  3  1  0
  2  4  1  0
  4  5  1  0
  5  6  1  0
  6  7  2  0
  7  8  1  0
  8  9  1  0
  9 10  1  0
 10 11  2  0
 11 12  1  0
 12 13  1  0
 13 14  1  0
 13 15  2  0
 13 16  2  0
 12 17  2  0
  6 18  1  0
  9 18  2  0
 17 18  1  0
M  END
