ANT-OPE-45835252-1
     RDKit          3D

 23 25  0  0  0  0  0  0  0  0999 V2000
    8.8780    1.4320   21.2290 O   0  0  0  0  0  0  0  0  0  0  0  0
    9.1560    0.2950   21.6090 C   0  0  0  0  0  0  0  0  0  0  0  0
    8.3200   -0.7500   21.4190 C   0  0  0  0  0  0  0  0  0  0  0  0
    7.2930   -0.1900   20.6050 N   0  0  0  0  0  0  0  0  0  0  0  0
    6.5820   -0.3910   21.5090 N   0  0  0  0  0  0  0  0  0  0  0  0
    6.1500    0.1430   20.4330 N   0  0  0  0  0  0  0  0  0  0  0  0
    6.9100    0.4780   19.1680 C   0  0  0  0  0  0  0  0  0  0  0  0
    6.3830    1.1080   17.9680 C   0  0  0  0  0  0  0  0  0  0  0  0
    4.9720    1.5210   17.8240 C   0  0  0  0  0  0  0  0  0  0  0  0
    4.0920    1.2840   18.8840 C   0  0  0  0  0  0  0  0  0  0  0  0
    4.5730    0.6790   20.0350 C   0  0  0  0  0  0  0  0  0  0  0  0
    5.9060    0.3730   20.0100 C   0  0  0  0  0  0  0  0  0  0  0  0
   10.3990    0.0410   22.2590 C   0  0  0  0  0  0  0  0  0  0  0  0
   11.2040    1.1700   22.8750 C   0  0  0  0  0  0  0  0  0  0  0  0
   12.3600    0.8410   23.4760 C   0  0  0  0  0  0  0  0  0  0  0  0
   12.7380   -0.4870   23.5130 C   0  0  0  0  0  0  0  0  0  0  0  0
   13.7990   -1.0180   24.0870 O   0  0  0  0  0  0  0  0  0  0  0  0
   13.5170   -2.2970   24.6440 C   0  0  0  0  0  0  0  0  0  0  0  0
   12.1840   -2.4760   24.8890 F   0  0  0  0  0  0  0  0  0  0  0  0
   13.8080   -3.1750   23.6800 F   0  0  0  0  0  0  0  0  0  0  0  0
   14.2240   -2.5740   25.7580 F   0  0  0  0  0  0  0  0  0  0  0  0
   11.9900   -1.5080   22.9210 C   0  0  0  0  0  0  0  0  0  0  0  0
   10.8150   -1.2660   22.2860 C   0  0  0  0  0  0  0  0  0  0  0  0
  1  2  2  0
  2  3  1  0
  3  4  1  0
  4  5  1  0
  5  6  2  0
  6  7  1  0
  7  8  1  0
  8  9  2  0
  9 10  1  0
 10 11  2  0
  4 12  1  0
  7 12  2  0
 11 12  1  0
  2 13  1  0
 13 14  2  0
 14 15  1  0
 15 16  2  0
 16 17  1  0
 17 18  1  0
 18 19  1  0
 18 20  1  0
 18 21  1  0
 16 22  1  0
 13 23  1  0
 22 23  2  0
M  END
