ANT-OPE-47f3bb65-3
     RDKit          3D

 21 22  0  0  0  0  0  0  0  0999 V2000
    9.9030    5.7820   23.9330 C   0  0  0  0  0  0  0  0  0  0  0  0
   10.8450    5.4890   23.0200 N   0  0  0  0  0  0  0  0  0  0  0  0
   11.1160    6.5510   22.3270 C   0  0  0  0  0  0  0  0  0  0  0  0
   12.0770    4.9570   23.5570 C   0  0  0  0  0  0  0  0  0  0  0  0
   12.2890    3.6070   22.9900 C   0  0  0  0  0  0  0  0  0  0  0  0
   11.2470    2.6090   23.4110 C   0  0  0  0  0  0  0  0  0  0  0  0
   10.1530    3.0270   24.1020 C   0  0  0  0  0  0  0  0  0  0  0  0
    9.3460    1.9410   24.3560 N   0  0  0  0  0  0  0  0  0  0  0  0
    9.9430    0.8240   23.8190 C   0  0  0  0  0  0  0  0  0  0  0  0
    9.5150   -0.5100   23.8090 C   0  0  0  0  0  0  0  0  0  0  0  0
   10.4170   -1.3460   23.1650 C   0  0  0  0  0  0  0  0  0  0  0  0
   11.7260   -0.8680   22.5390 C   0  0  0  0  0  0  0  0  0  0  0  0
   12.6000   -1.6420   22.0070 C   0  0  0  0  0  0  0  0  0  0  0  0
   13.2300   -0.8830   23.5020 S   0  0  0  0  0  0  0  0  0  0  0  0
   12.1550   -0.6470   24.4500 O   0  0  0  0  0  0  0  0  0  0  0  0
   14.0670    0.1750   23.0460 O   0  0  0  0  0  0  0  0  0  0  0  0
   13.9290   -2.2130   24.0450 N   0  0  0  0  0  0  0  0  0  0  0  0
   13.4550   -2.6270   25.2300 C   0  0  0  0  0  0  0  0  0  0  0  0
   13.4820   -2.9390   23.0010 C   0  0  0  0  0  0  0  0  0  0  0  0
   12.1070    0.4560   22.5610 C   0  0  0  0  0  0  0  0  0  0  0  0
   11.2600    1.2590   23.1680 C   0  0  0  0  0  0  0  0  0  0  0  0
  1  2  1  0
  2  3  1  0
  2  4  1  0
  4  5  1  0
  5  6  1  0
  6  7  2  0
  7  8  1  0
  8  9  1  0
  9 10  1  0
 10 11  2  0
 11 12  1  0
 12 13  1  0
 13 14  1  0
 14 15  2  0
 14 16  2  0
 14 17  1  0
 17 18  1  0
 17 19  1  0
 12 20  2  0
  6 21  1  0
  9 21  2  0
 20 21  1  0
M  END
