ANT-DIA-b7f58f21-7
     RDKit          3D

 16 17  0  0  0  0  0  0  0  0999 V2000
    6.4060   -5.3170   26.5230 C   0  0  0  0  0  0  0  0  0  0  0  0
    7.9830   -4.4430   26.4640 S   0  0  0  0  0  0  0  0  0  0  0  0
    9.0380   -5.3610   26.1060 O   0  0  0  0  0  0  0  0  0  0  0  0
    8.0580   -3.6180   27.6430 O   0  0  0  0  0  0  0  0  0  0  0  0
    7.7380   -3.3890   25.1790 N   0  0  0  0  0  0  0  0  0  0  0  0
    8.4300   -3.7180   23.9170 C   0  0  0  0  0  0  0  0  0  0  0  0
    8.3700   -2.7130   23.0340 C   0  0  0  0  0  0  0  0  0  0  0  0
    9.4350   -1.6840   22.9800 C   0  0  0  0  0  0  0  0  0  0  0  0
    9.1040   -0.2670   23.3520 C   0  0  0  0  0  0  0  0  0  0  0  0
   10.1720    0.7880   23.3320 C   0  0  0  0  0  0  0  0  0  0  0  0
   11.5870    0.3940   22.9490 C   0  0  0  0  0  0  0  0  0  0  0  0
   12.5580    1.2460   22.9400 N   0  0  0  0  0  0  0  0  0  0  0  0
   13.6060    0.5070   22.5630 C   0  0  0  0  0  0  0  0  0  0  0  0
   13.4310   -1.2310   22.1850 S   0  0  0  0  0  0  0  0  0  0  0  0
   11.8300   -0.9610   22.5930 C   0  0  0  0  0  0  0  0  0  0  0  0
   10.7230   -2.0060   22.6060 C   0  0  0  0  0  0  0  0  0  0  0  0
  1  2  1  0
  2  3  2  0
  2  4  2  0
  2  5  1  0
  5  6  1  0
  6  7  1  0
  7  8  1  0
  8  9  2  0
  9 10  1  0
 10 11  2  0
 11 12  1  0
 12 13  2  0
 13 14  1  0
 11 15  1  0
 14 15  1  0
  8 16  1  0
 15 16  2  0
M  END
