ANT-OPE-ab37bd51-1
     RDKit          3D

 18 19  0  0  0  0  0  0  0  0999 V2000
    7.4140    4.8540   21.8820 C   0  0  0  0  0  0  0  0  0  0  0  0
    7.7740    5.2350   23.2360 N   0  0  0  0  0  0  0  0  0  0  0  0
    7.9820    4.1140   24.1640 C   0  0  0  0  0  0  0  0  0  0  0  0
    8.6690    6.2470   23.2410 C   0  0  0  0  0  0  0  0  0  0  0  0
   10.1360    6.0050   23.4640 C   0  0  0  0  0  0  0  0  0  0  0  0
   10.9230    5.0570   22.8180 C   0  0  0  0  0  0  0  0  0  0  0  0
   12.4040    4.7690   22.9600 C   0  0  0  0  0  0  0  0  0  0  0  0
   13.2140    5.6710   23.0930 O   0  0  0  0  0  0  0  0  0  0  0  0
   12.8270    3.3960   22.9020 N   0  0  0  0  0  0  0  0  0  0  0  0
   11.9460    2.3670   23.2520 C   0  0  0  0  0  0  0  0  0  0  0  0
   10.6350    2.6120   23.8740 C   0  0  0  0  0  0  0  0  0  0  0  0
    9.9820    1.4670   24.1130 N   0  0  0  0  0  0  0  0  0  0  0  0
   10.8860    0.4720   23.6320 C   0  0  0  0  0  0  0  0  0  0  0  0
   10.6610   -0.9200   23.6480 C   0  0  0  0  0  0  0  0  0  0  0  0
   11.6270   -1.8040   23.1360 C   0  0  0  0  0  0  0  0  0  0  0  0
   12.8930   -1.2310   22.5880 C   0  0  0  0  0  0  0  0  0  0  0  0
   13.0700    0.1380   22.6050 C   0  0  0  0  0  0  0  0  0  0  0  0
   12.1070    0.9950   23.1000 C   0  0  0  0  0  0  0  0  0  0  0  0
  1  2  1  0
  2  3  1  0
  2  4  1  0
  4  5  1  0
  5  6  2  3
  6  7  1  0
  7  8  2  0
  7  9  1  0
  9 10  1  0
 10 11  2  0
 11 12  1  0
 12 13  1  0
 13 14  1  0
 14 15  2  0
 15 16  1  0
 16 17  2  0
 10 18  1  0
 13 18  2  0
 17 18  1  0
M  END
