ANT-OPE-7824651a-1
     RDKit          3D

 26 28  0  0  0  0  0  0  0  0999 V2000
   -5.0900   -3.0780   24.9080 C   0  0  0  0  0  0  0  0  0  0  0  0
   -4.1500   -4.0340   25.3780 O   0  0  0  0  0  0  0  0  0  0  0  0
   -2.8420   -3.6330   25.4590 C   0  0  0  0  0  0  0  0  0  0  0  0
   -2.2890   -2.3670   25.1710 C   0  0  0  0  0  0  0  0  0  0  0  0
   -0.9350   -2.0540   25.2840 C   0  0  0  0  0  0  0  0  0  0  0  0
    0.0250   -3.1130   25.7380 C   0  0  0  0  0  0  0  0  0  0  0  0
    1.3960   -2.9030   25.8850 C   0  0  0  0  0  0  0  0  0  0  0  0
    1.8850   -1.5940   26.1080 C   0  0  0  0  0  0  0  0  0  0  0  0
    3.3810   -1.3650   26.2630 C   0  0  0  0  0  0  0  0  0  0  0  0
    4.2250   -2.5940   26.1650 C   0  0  0  0  0  0  0  0  0  0  0  0
    3.6760   -3.8540   25.9490 C   0  0  0  0  0  0  0  0  0  0  0  0
    4.7670   -5.1800   25.8780 S   0  0  0  0  0  0  0  0  0  0  0  0
    5.8380   -4.9000   26.8010 O   0  0  0  0  0  0  0  0  0  0  0  0
    3.9650   -6.3790   25.9970 O   0  0  0  0  0  0  0  0  0  0  0  0
    5.4000   -5.1550   24.3090 N   0  0  0  0  0  0  0  0  0  0  0  0
    6.3350   -4.0990   23.9120 C   0  0  0  0  0  0  0  0  0  0  0  0
    7.2120   -4.6040   22.9460 C   0  0  0  0  0  0  0  0  0  0  0  0
    6.4690   -5.1330   21.9080 N   0  0  0  0  0  0  0  0  0  0  0  0
    6.1240   -4.1690   20.9670 C   0  0  0  0  0  0  0  0  0  0  0  0
    6.5010   -2.8260   21.0720 C   0  0  0  0  0  0  0  0  0  0  0  0
    5.4610   -4.4810   19.9650 O   0  0  0  0  0  0  0  0  0  0  0  0
    5.6260   -6.2660   22.2560 C   0  0  0  0  0  0  0  0  0  0  0  0
    4.6910   -5.8550   23.2090 C   0  0  0  0  0  0  0  0  0  0  0  0
    2.2860   -4.0080   25.8090 C   0  0  0  0  0  0  0  0  0  0  0  0
   -0.4710   -4.3830   26.0330 C   0  0  0  0  0  0  0  0  0  0  0  0
   -1.8130   -4.6700   25.9160 C   0  0  0  0  0  0  0  0  0  0  0  0
  1  2  1  0
  2  3  1  0
  3  4  2  0
  4  5  1  0
  5  6  2  0
  6  7  1  0
  7  8  2  0
  8  9  1  0
  9 10  2  0
 10 11  1  0
 12 11  1  0
 12 13  2  0
 12 14  2  0
 12 15  1  0
 15 16  1  0
 16 17  1  0
 17 18  1  0
 18 19  1  0
 19 20  1  0
 19 21  2  0
 18 22  1  0
 15 23  1  0
 22 23  1  0
  7 24  1  0
 11 24  2  0
  6 25  1  0
  3 26  1  0
 25 26  2  0
M  END
