ANT-DIA-b7f58f21-3
     RDKit          3D

 14 14  0  0  0  0  0  0  0  0999 V2000
    6.2980   -5.0910   26.2330 C   0  0  0  0  0  0  0  0  0  0  0  0
    7.7710   -4.2350   25.9630 S   0  0  0  0  0  0  0  0  0  0  0  0
    8.8110   -5.2180   25.7440 O   0  0  0  0  0  0  0  0  0  0  0  0
    7.9290   -3.3090   27.0620 O   0  0  0  0  0  0  0  0  0  0  0  0
    7.7120   -3.3060   24.5490 N   0  0  0  0  0  0  0  0  0  0  0  0
    8.9830   -2.7050   24.2490 C   0  0  0  0  0  0  0  0  0  0  0  0
    9.0130   -1.8200   23.1530 C   0  0  0  0  0  0  0  0  0  0  0  0
   10.3410   -1.0800   22.9810 C   0  0  0  0  0  0  0  0  0  0  0  0
   10.5410    0.2490   23.3580 C   0  0  0  0  0  0  0  0  0  0  0  0
   11.8760    0.9470   23.2080 C   0  0  0  0  0  0  0  0  0  0  0  0
   12.9380    0.3680   22.7210 C   0  0  0  0  0  0  0  0  0  0  0  0
   12.8120   -1.0330   22.2810 C   0  0  0  0  0  0  0  0  0  0  0  0
   11.4690   -1.7340   22.4270 C   0  0  0  0  0  0  0  0  0  0  0  0
   11.4690   -2.9880   22.0020 O   0  0  0  0  0  0  0  0  0  0  0  0
  1  2  1  0
  2  3  2  0
  2  4  2  0
  2  5  1  0
  5  6  1  0
  6  7  1  0
  7  8  1  0
  8  9  2  0
  9 10  1  0
 10 11  2  0
 11 12  1  0
  8 13  1  0
 12 13  2  0
 13 14  1  0
M  END
