ANT-DIA-b7f58f21-4
     RDKit          3D

 12 12  0  0  0  0  0  0  0  0999 V2000
    5.1400   -3.4400   22.1840 C   0  0  0  0  0  0  0  0  0  0  0  0
    6.3780   -2.8420   22.7360 C   0  0  0  0  0  0  0  0  0  0  0  0
    6.7250   -3.1870   23.8640 O   0  0  0  0  0  0  0  0  0  0  0  0
    7.0890   -1.9740   22.0500 N   0  0  0  0  0  0  0  0  0  0  0  0
    7.9550   -1.2850   22.8710 C   0  0  0  0  0  0  0  0  0  0  0  0
    9.1180   -2.0670   23.4360 C   0  0  0  0  0  0  0  0  0  0  0  0
   10.4760   -1.3840   23.2290 C   0  0  0  0  0  0  0  0  0  0  0  0
   10.5600    0.1360   23.3500 C   0  0  0  0  0  0  0  0  0  0  0  0
   11.8840    0.9260   23.1560 C   0  0  0  0  0  0  0  0  0  0  0  0
   13.0960    0.0480   22.8310 C   0  0  0  0  0  0  0  0  0  0  0  0
   12.9510   -1.3450   22.7310 C   0  0  0  0  0  0  0  0  0  0  0  0
   11.6270   -2.1020   22.9290 C   0  0  0  0  0  0  0  0  0  0  0  0
  1  2  1  0
  2  3  2  0
  2  4  1  0
  4  5  1  0
  5  6  1  0
  6  7  1  0
  7  8  2  0
  8  9  1  0
  9 10  2  0
 10 11  1  0
  7 12  1  0
 11 12  2  0
M  END
