ANT-LOU-17aa1493-2
     RDKit          3D

 30 31  0  0  0  0  0  0  0  0999 V2000
   10.0490   -3.3940   24.1210 C   0  0  0  0  0  0  0  0  0  0  0  0
   11.0010   -2.8840   23.1890 O   0  0  0  0  0  0  0  0  0  0  0  0
   10.8790   -1.5540   23.1510 C   0  0  0  0  0  0  0  0  0  0  0  0
    9.6000   -0.9660   23.4600 C   0  0  0  0  0  0  0  0  0  0  0  0
    9.4210    0.3940   23.4580 C   0  0  0  0  0  0  0  0  0  0  0  0
    8.1610    0.8540   23.7960 N   0  0  0  0  0  0  0  0  0  0  0  0
    7.2450    0.2450   24.6690 C   0  0  0  0  0  0  0  0  0  0  0  0
    6.6960   -0.8320   24.4370 O   0  0  0  0  0  0  0  0  0  0  0  0
    6.9190    0.8610   25.8740 C   0  0  0  0  0  0  0  0  0  0  0  0
    6.4390    1.6990   26.6310 O   0  0  0  0  0  0  0  0  0  0  0  0
    6.4190    1.5970   24.8270 N   0  0  0  0  0  0  0  0  0  0  0  0
    5.0870    1.9740   24.9780 C   0  0  0  0  0  0  0  0  0  0  0  0
    3.7950    1.1540   24.9660 C   0  0  0  0  0  0  0  0  0  0  0  0
    2.5330    2.0130   25.1700 C   0  0  0  0  0  0  0  0  0  0  0  0
    1.2440    1.5230   25.2010 O   0  0  0  0  0  0  0  0  0  0  0  0
    0.4370    1.8860   26.3150 C   0  0  0  0  0  0  0  0  0  0  0  0
    2.6640    3.4010   25.3390 C   0  0  0  0  0  0  0  0  0  0  0  0
    1.5270    4.1540   25.5200 O   0  0  0  0  0  0  0  0  0  0  0  0
    1.2050    4.8260   24.3030 C   0  0  0  0  0  0  0  0  0  0  0  0
    3.9070    4.0670   25.3340 C   0  0  0  0  0  0  0  0  0  0  0  0
    3.8430    5.4260   25.5160 O   0  0  0  0  0  0  0  0  0  0  0  0
    4.6040    6.2360   24.6280 C   0  0  0  0  0  0  0  0  0  0  0  0
    5.0950    3.3520   25.1550 C   0  0  0  0  0  0  0  0  0  0  0  0
   10.4880    1.1940   23.1430 C   0  0  0  0  0  0  0  0  0  0  0  0
   11.8460    0.6420   22.8270 C   0  0  0  0  0  0  0  0  0  0  0  0
   12.8860    1.4520   22.5520 O   0  0  0  0  0  0  0  0  0  0  0  0
   12.6230    2.8490   22.7220 C   0  0  0  0  0  0  0  0  0  0  0  0
   11.9940   -0.7480   22.8380 C   0  0  0  0  0  0  0  0  0  0  0  0
   13.2000   -1.3210   22.5560 O   0  0  0  0  0  0  0  0  0  0  0  0
   13.0610   -1.9920   21.3170 C   0  0  0  0  0  0  0  0  0  0  0  0
  1  2  1  0
  2  3  1  0
  3  4  2  0
  4  5  1  0
  5  6  1  0
  6  7  1  0
  7  8  2  0
  7  9  1  0
  9 10  2  0
  9 11  1  0
 11 12  1  0
 12 13  2  0
 13 14  1  0
 14 15  1  0
 15 16  1  0
 14 17  2  0
 17 18  1  0
 18 19  1  0
 17 20  1  0
 20 21  1  0
 21 22  1  0
 12 23  1  0
 20 23  2  0
  5 24  2  0
 24 25  1  0
 25 26  1  0
 26 27  1  0
  3 28  1  0
 25 28  2  0
 28 29  1  0
 29 30  1  0
M  END
