ANT-DIA-045cfdc4-5
     RDKit          3D

 20 22  0  0  0  0  0  0  0  0999 V2000
    8.8550    1.6680   21.0170 O   0  0  0  0  0  0  0  0  0  0  0  0
    9.1440    2.0590   22.1390 C   0  0  0  0  0  0  0  0  0  0  0  0
    9.6320    3.3310   22.3790 N   0  0  0  0  0  0  0  0  0  0  0  0
    9.1640    4.0390   23.5580 C   0  0  0  0  0  0  0  0  0  0  0  0
   10.0790    4.9780   24.0450 C   0  0  0  0  0  0  0  0  0  0  0  0
   10.3380    5.0360   25.4250 C   0  0  0  0  0  0  0  0  0  0  0  0
   11.2430    5.9700   25.9280 C   0  0  0  0  0  0  0  0  0  0  0  0
   11.8830    6.8660   24.9210 C   0  0  0  0  0  0  0  0  0  0  0  0
   11.6440    6.8190   23.6000 N   0  0  0  0  0  0  0  0  0  0  0  0
   10.7500    5.8790   23.2000 C   0  0  0  0  0  0  0  0  0  0  0  0
    8.9720    1.2040   23.3910 C   0  0  1  0  0  0  0  0  0  0  0  0
    7.4970    0.9110   23.6060 C   0  0  0  0  0  0  0  0  0  0  0  0
    7.3040   -0.5250   23.1060 C   0  0  0  0  0  0  0  0  0  0  0  0
    8.5700   -0.9700   22.7280 C   0  0  0  0  0  0  0  0  0  0  0  0
    9.5550   -0.2280   23.3600 C   0  0  1  0  0  0  0  0  0  0  0  0
   10.8830   -0.4070   22.9730 C   0  0  0  0  0  0  0  0  0  0  0  0
   11.9100    0.5960   23.0930 C   0  0  0  0  0  0  0  0  0  0  0  0
   13.1310    0.1670   22.6550 C   0  0  0  0  0  0  0  0  0  0  0  0
   13.0840   -1.4340   22.0790 S   0  0  0  0  0  0  0  0  0  0  0  0
   11.4160   -1.5610   22.4250 C   0  0  0  0  0  0  0  0  0  0  0  0
  1  2  2  0
  2  3  1  0
  3  4  1  0
  4  5  1  0
  5  6  2  0
  6  7  1  0
  7  8  2  0
  8  9  1  0
  5 10  1  0
  9 10  2  0
 11  2  1  6
 11 12  1  0
 12 13  1  0
 13 14  1  0
 11 15  1  0
 14 15  1  0
 15 16  1  6
 16 17  1  0
 17 18  2  0
 18 19  1  0
 16 20  2  0
 19 20  1  0
M  END
