ANT-OPE-7c194559-1
     RDKit          3D

 16 17  0  0  0  0  0  0  0  0999 V2000
    8.4660    7.0860   22.1150 C   0  0  0  0  0  0  0  0  0  0  0  0
    8.8650    6.0830   23.0010 C   0  0  0  0  0  0  0  0  0  0  0  0
   10.2050    6.0230   23.4170 C   0  0  0  0  0  0  0  0  0  0  0  0
   10.3580    6.1770   24.8290 O   0  0  0  0  0  0  0  0  0  0  0  0
   11.2100    5.8500   22.5790 N   0  0  0  0  0  0  0  0  0  0  0  0
   12.1550    5.0710   23.2010 C   0  0  0  0  0  0  0  0  0  0  0  0
   12.4970    3.8440   22.7970 C   0  0  0  0  0  0  0  0  0  0  0  0
   11.4590    2.8120   22.7130 C   0  0  2  0  0  0  0  0  0  0  0  0
   10.8670    2.0440   23.7110 C   0  0  0  0  0  0  0  0  0  0  0  0
   11.4480    0.6160   23.5170 C   0  0  0  0  0  0  0  0  0  0  0  0
   12.5890    0.5820   22.5660 C   0  0  0  0  0  0  0  0  0  0  0  0
   12.8910   -0.7510   22.7630 C   0  0  0  0  0  0  0  0  0  0  0  0
   12.0950   -1.4270   23.6260 C   0  0  0  0  0  0  0  0  0  0  0  0
   11.0690   -0.6960   24.2160 C   0  0  0  0  0  0  0  0  0  0  0  0
   10.8810    0.6930   23.9100 C   0  0  0  0  0  0  0  0  0  0  0  0
   11.7260    1.4260   22.9780 C   0  0  0  0  0  0  0  0  0  0  0  0
  1  2  1  0
  2  3  1  0
  3  4  2  0
  3  5  1  0
  5  6  1  0
  6  7  1  0
  8  7  1  1
  8  9  1  0
  9 10  1  0
 10 11  1  0
 11 12  2  0
 12 13  1  0
 13 14  2  0
 14 15  1  0
  8 16  1  0
 11 16  1  0
 15 16  2  0
M  END
