ANT-OPE-45835252-2
     RDKit          3D

 23 25  0  0  0  0  0  0  0  0999 V2000
    8.0060   -2.0430   22.1830 O   0  0  0  0  0  0  0  0  0  0  0  0
    8.6780   -1.0480   21.8810 C   0  0  0  0  0  0  0  0  0  0  0  0
    8.3600   -0.1310   20.9940 O   0  0  0  0  0  0  0  0  0  0  0  0
    7.0160    0.0330   21.1130 N   0  0  0  0  0  0  0  0  0  0  0  0
    6.4300   -0.1820   22.0780 N   0  0  0  0  0  0  0  0  0  0  0  0
    6.0090    0.2640   20.8780 N   0  0  0  0  0  0  0  0  0  0  0  0
    6.8950    0.5220   19.6010 C   0  0  0  0  0  0  0  0  0  0  0  0
    6.6690    0.9980   18.2290 C   0  0  0  0  0  0  0  0  0  0  0  0
    5.1990    1.3760   17.8440 C   0  0  0  0  0  0  0  0  0  0  0  0
    4.2050    1.2340   18.7970 C   0  0  0  0  0  0  0  0  0  0  0  0
    4.5840    0.7700   20.0190 C   0  0  0  0  0  0  0  0  0  0  0  0
    5.9130    0.5230   20.1120 C   0  0  0  0  0  0  0  0  0  0  0  0
    9.9520   -0.7540   22.5310 C   0  0  0  0  0  0  0  0  0  0  0  0
   10.2460    0.4790   23.3820 C   0  0  0  0  0  0  0  0  0  0  0  0
   11.6220    0.5010   23.9810 C   0  0  0  0  0  0  0  0  0  0  0  0
   12.4640   -0.5680   23.7220 C   0  0  0  0  0  0  0  0  0  0  0  0
   13.6640   -0.8530   24.1560 O   0  0  0  0  0  0  0  0  0  0  0  0
   13.5690   -2.2070   24.6150 C   0  0  0  0  0  0  0  0  0  0  0  0
   12.2590   -2.5160   24.9180 F   0  0  0  0  0  0  0  0  0  0  0  0
   14.2730   -2.4390   25.7390 F   0  0  0  0  0  0  0  0  0  0  0  0
   13.9710   -3.0450   23.6520 F   0  0  0  0  0  0  0  0  0  0  0  0
   12.1180   -1.6220   22.9080 C   0  0  0  0  0  0  0  0  0  0  0  0
   10.8990   -1.7190   22.3240 C   0  0  0  0  0  0  0  0  0  0  0  0
  1  2  2  0
  2  3  1  0
  3  4  1  0
  4  5  1  0
  5  6  2  0
  6  7  1  0
  7  8  1  0
  8  9  2  0
  9 10  1  0
 10 11  2  0
  4 12  1  0
  7 12  2  0
 11 12  1  0
  2 13  1  0
 13 14  2  0
 14 15  1  0
 15 16  2  0
 16 17  1  0
 17 18  1  0
 18 19  1  0
 18 20  1  0
 18 21  1  0
 16 22  1  0
 13 23  1  0
 22 23  2  0
M  END
