ANT-OPE-47f3bb65-2
     RDKit          3D

 19 20  0  0  0  0  0  0  0  0999 V2000
   10.2270    6.4010   23.8020 C   0  0  0  0  0  0  0  0  0  0  0  0
   11.4980    6.1230   23.3540 N   0  0  0  0  0  0  0  0  0  0  0  0
   11.7050    6.0700   21.9810 C   0  0  0  0  0  0  0  0  0  0  0  0
   12.1140    5.1420   24.0290 C   0  0  0  0  0  0  0  0  0  0  0  0
   12.3590    4.1070   23.1320 C   0  0  0  0  0  0  0  0  0  0  0  0
   11.4450    3.0760   23.1680 C   0  0  0  0  0  0  0  0  0  0  0  0
    9.9870    3.2080   23.4550 C   0  0  0  0  0  0  0  0  0  0  0  0
    9.2540    2.0930   23.4440 N   0  0  0  0  0  0  0  0  0  0  0  0
   10.1510    1.1470   23.1530 C   0  0  0  0  0  0  0  0  0  0  0  0
    9.8080   -0.3200   23.0190 C   0  0  0  0  0  0  0  0  0  0  0  0
   10.9540   -1.2110   22.6940 C   0  0  0  0  0  0  0  0  0  0  0  0
   12.2840   -0.4820   22.5630 C   0  0  0  0  0  0  0  0  0  0  0  0
   13.2440   -1.2890   22.2910 C   0  0  0  0  0  0  0  0  0  0  0  0
   13.0210   -2.6200   23.3960 S   0  0  0  0  0  0  0  0  0  0  0  0
   13.4300   -3.3560   21.9830 N   0  0  0  0  0  0  0  0  0  0  0  0
   11.6510   -2.9810   23.6870 O   0  0  0  0  0  0  0  0  0  0  0  0
   14.0830   -2.8350   24.3370 O   0  0  0  0  0  0  0  0  0  0  0  0
   12.5640    0.8500   22.6950 C   0  0  0  0  0  0  0  0  0  0  0  0
   11.5650    1.6890   22.9730 C   0  0  0  0  0  0  0  0  0  0  0  0
  1  2  1  0
  2  3  1  0
  2  4  1  0
  4  5  1  0
  5  6  1  0
  6  7  2  0
  7  8  1  0
  8  9  1  0
  9 10  1  0
 10 11  2  0
 11 12  1  0
 12 13  1  0
 13 14  1  0
 14 15  1  0
 14 16  2  0
 14 17  2  0
 12 18  2  0
  6 19  1  0
  9 19  2  0
 18 19  1  0
M  END
