ANT-DIA-045cfdc4-3
     RDKit          3D

 19 21  0  0  0  0  0  0  0  0999 V2000
    9.1540    1.6540   21.2530 O   0  0  0  0  0  0  0  0  0  0  0  0
    9.1580    2.1150   22.3900 C   0  0  0  0  0  0  0  0  0  0  0  0
    9.1400    3.4720   22.7170 N   0  0  0  0  0  0  0  0  0  0  0  0
   10.3870    4.2410   22.7310 C   0  0  0  0  0  0  0  0  0  0  0  0
   11.6780    3.4580   22.5480 C   0  0  0  0  0  0  0  0  0  0  0  0
   12.8780    4.0740   22.5430 N   0  0  0  0  0  0  0  0  0  0  0  0
   12.8630    5.4120   22.7100 C   0  0  0  0  0  0  0  0  0  0  0  0
   11.7820    6.2000   22.8820 N   0  0  0  0  0  0  0  0  0  0  0  0
   10.5660    5.6000   22.8880 C   0  0  0  0  0  0  0  0  0  0  0  0
    9.0950    1.2410   23.6610 C   0  0  1  0  0  0  0  0  0  0  0  0
    7.7360    1.0290   23.9170 C   0  0  0  0  0  0  0  0  0  0  0  0
    7.3510   -0.2140   23.4330 C   0  0  0  0  0  0  0  0  0  0  0  0
    8.5830   -0.9690   23.0470 C   0  0  0  0  0  0  0  0  0  0  0  0
    9.6200   -0.2340   23.6420 C   0  0  1  0  0  0  0  0  0  0  0  0
   10.9110   -0.4280   23.1500 C   0  0  0  0  0  0  0  0  0  0  0  0
   11.9460    0.4660   23.3370 C   0  0  0  0  0  0  0  0  0  0  0  0
   13.1590    0.1380   22.7940 C   0  0  0  0  0  0  0  0  0  0  0  0
   13.0800   -1.3650   21.9970 S   0  0  0  0  0  0  0  0  0  0  0  0
   11.4020   -1.5120   22.4070 C   0  0  0  0  0  0  0  0  0  0  0  0
  1  2  2  0
  2  3  1  0
  3  4  1  0
  4  5  2  0
  5  6  1  0
  6  7  2  0
  7  8  1  0
  4  9  1  0
  8  9  2  0
 10  2  1  6
 10 11  1  0
 11 12  1  0
 12 13  1  0
 10 14  1  0
 13 14  1  0
 14 15  1  6
 15 16  1  0
 16 17  2  0
 17 18  1  0
 15 19  2  0
 18 19  1  0
M  END
