ANT-OPE-ab37bd51-2
     RDKit          3D

 19 20  0  0  0  0  0  0  0  0999 V2000
    5.6210    5.6340   21.7730 C   0  0  0  0  0  0  0  0  0  0  0  0
    6.7860    6.4410   22.0480 N   0  0  0  0  0  0  0  0  0  0  0  0
    7.2070    7.4560   21.2350 C   0  0  0  0  0  0  0  0  0  0  0  0
    7.7260    5.7020   22.7100 C   0  0  0  0  0  0  0  0  0  0  0  0
    8.7710    6.5420   23.4870 C   0  0  0  0  0  0  0  0  0  0  0  0
   10.0930    6.1790   23.6090 C   0  0  0  0  0  0  0  0  0  0  0  0
   10.7010    5.0610   23.0720 C   0  0  0  0  0  0  0  0  0  0  0  0
   10.0320    4.2150   22.4710 O   0  0  0  0  0  0  0  0  0  0  0  0
   12.0820    4.8240   23.1940 N   0  0  0  0  0  0  0  0  0  0  0  0
   12.6360    3.6630   22.7130 C   0  0  0  0  0  0  0  0  0  0  0  0
   11.7710    2.4790   23.2160 C   0  0  0  0  0  0  0  0  0  0  0  0
   10.4520    2.5970   23.9300 C   0  0  0  0  0  0  0  0  0  0  0  0
    9.9850    1.3530   24.2050 N   0  0  0  0  0  0  0  0  0  0  0  0
   10.9240    0.3940   23.7080 C   0  0  0  0  0  0  0  0  0  0  0  0
   10.7820   -1.0010   23.7960 C   0  0  0  0  0  0  0  0  0  0  0  0
   11.7800   -1.8170   23.2540 C   0  0  0  0  0  0  0  0  0  0  0  0
   12.9060   -1.2800   22.6490 C   0  0  0  0  0  0  0  0  0  0  0  0
   13.1220    0.0810   22.5370 C   0  0  0  0  0  0  0  0  0  0  0  0
   12.0670    0.9750   23.0870 C   0  0  0  0  0  0  0  0  0  0  0  0
  1  2  1  0
  2  3  1  0
  2  4  1  0
  4  5  1  0
  5  6  2  3
  6  7  1  0
  7  8  2  0
  7  9  1  0
  9 10  1  0
 10 11  1  0
 11 12  2  0
 12 13  1  0
 13 14  1  0
 14 15  1  0
 15 16  2  0
 16 17  1  0
 17 18  2  0
 11 19  1  0
 14 19  2  0
 18 19  1  0
M  END
