AUS-ARG-7cfdce8f-3
     RDKit          3D

 22 24  0  0  0  0  0  0  0  0999 V2000
   14.2880   -2.5240   25.9100 C   0  0  0  0  0  0  0  0  0  0  0  0
   13.6060   -1.2910   26.1770 O   0  0  0  0  0  0  0  0  0  0  0  0
   12.5950   -1.1100   25.3530 C   0  0  0  0  0  0  0  0  0  0  0  0
   11.2500   -0.6420   25.6370 C   0  0  0  0  0  0  0  0  0  0  0  0
   10.3160   -0.5600   24.7390 C   0  0  0  0  0  0  0  0  0  0  0  0
   10.6870   -0.9150   23.6220 C   0  0  0  0  0  0  0  0  0  0  0  0
   12.0230   -1.3700   23.2230 C   0  0  0  0  0  0  0  0  0  0  0  0
   12.9980   -1.4840   24.0360 C   0  0  0  0  0  0  0  0  0  0  0  0
   12.4110   -1.7670   21.9250 C   0  0  0  0  0  0  0  0  0  0  0  0
   11.1700   -2.1100   21.5480 C   0  0  0  0  0  0  0  0  0  0  0  0
   10.2560   -1.0350   21.5510 C   0  0  0  0  0  0  0  0  0  0  0  0
    9.5630   -0.8520   22.6460 C   0  0  2  0  0  0  0  0  0  0  0  0
    9.0200    0.4060   22.8300 C   0  0  0  0  0  0  0  0  0  0  0  0
    7.5800    0.3160   23.0410 N   0  0  0  0  0  0  0  0  0  0  0  0
    6.7070    1.1970   23.6750 C   0  0  0  0  0  0  0  0  0  0  0  0
    6.8370    1.4490   25.0580 C   0  0  0  0  0  0  0  0  0  0  0  0
    6.0930    2.2520   25.8460 N   0  0  0  0  0  0  0  0  0  0  0  0
    5.0990    2.8860   25.2050 N   0  0  0  0  0  0  0  0  0  0  0  0
    4.8610    2.7290   23.7810 C   0  0  0  0  0  0  0  0  0  0  0  0
    3.8340    3.3900   23.0250 O   0  0  0  0  0  0  0  0  0  0  0  0
    5.6950    1.8630   23.0730 C   0  0  0  0  0  0  0  0  0  0  0  0
    5.4100    1.6560   21.3900 Cl  0  0  0  0  0  0  0  0  0  0  0  0
  1  2  1  0
  2  3  1  0
  3  4  2  0
  4  5  1  0
  5  6  2  0
  6  7  1  0
  3  8  1  0
  7  8  2  0
  7  9  1  0
  9 10  1  0
 10 11  1  0
  6 12  1  0
 11 12  1  0
 12 13  1  6
 13 14  1  0
 14 15  1  0
 15 16  1  0
 16 17  2  0
 17 18  1  0
 18 19  1  0
 19 20  2  0
 15 21  2  0
 19 21  1  0
 21 22  1  0
M  END
