AUS-ARG-7cfdce8f-11
     RDKit          3D

 23 25  0  0  0  0  0  0  0  0999 V2000
    8.8630    1.3120   22.7420 O   0  0  0  0  0  0  0  0  0  0  0  0
    9.0290    0.2590   22.1710 C   0  0  0  0  0  0  0  0  0  0  0  0
   10.3850   -0.2210   22.1520 C   0  0  0  0  0  0  0  0  0  0  0  0
   11.0750   -0.9360   23.2520 C   0  0  0  0  0  0  0  0  0  0  0  0
   11.3990   -2.2810   23.0170 C   0  0  0  0  0  0  0  0  0  0  0  0
   12.2670   -1.6250   22.2430 C   0  0  0  0  0  0  0  0  0  0  0  0
   11.6450   -0.3550   22.8380 C   0  0  0  0  0  0  0  0  0  0  0  0
   10.5770   -0.1110   23.8130 C   0  0  0  0  0  0  0  0  0  0  0  0
    9.9190   -1.2440   24.3750 C   0  0  0  0  0  0  0  0  0  0  0  0
   10.3890   -2.4510   23.9210 C   0  0  0  0  0  0  0  0  0  0  0  0
   10.7720   -0.5700   24.6910 C   0  0  0  0  0  0  0  0  0  0  0  0
   12.1430   -0.5530   24.7660 C   0  0  0  0  0  0  0  0  0  0  0  0
   12.9890   -0.8930   23.6660 C   0  0  0  0  0  0  0  0  0  0  0  0
   11.9000   -1.2000   22.6700 C   0  0  0  0  0  0  0  0  0  0  0  0
   10.4040   -1.1820   22.7080 C   0  0  0  0  0  0  0  0  0  0  0  0
    9.7450   -0.8080   23.8860 C   0  0  0  0  0  0  0  0  0  0  0  0
    7.9170   -0.3770   21.4530 N   0  0  0  0  0  0  0  0  0  0  0  0
    7.1160    0.0360   20.3500 C   0  0  0  0  0  0  0  0  0  0  0  0
    6.0840    0.9370   20.5920 C   0  0  0  0  0  0  0  0  0  0  0  0
    5.1850    1.4650   19.5580 C   0  0  0  0  0  0  0  0  0  0  0  0
    5.3750    1.0370   18.2450 C   0  0  0  0  0  0  0  0  0  0  0  0
    6.3660    0.1530   17.9570 N   0  0  0  0  0  0  0  0  0  0  0  0
    7.2370   -0.3520   19.0130 C   0  0  0  0  0  0  0  0  0  0  0  0
  1  2  2  0
  2  3  1  0
  3  4  1  0
  4  5  1  0
  5  6  2  0
  6  7  1  0
  7  8  2  0
  8  9  1  0
  5 10  1  0
  9 10  2  0
  4 11  1  0
 11 12  2  0
 12 13  1  0
 13 14  2  0
 14 15  1  0
 11 16  1  0
 15 16  2  0
  2 17  1  0
 17 18  1  0
 18 19  2  0
 19 20  1  0
 20 21  2  0
 21 22  1  0
 18 23  1  0
 22 23  2  0
M  END
