AUS-ARG-7cfdce8f-12
     RDKit          3D

 30 32  0  0  0  0  0  0  0  0999 V2000
    6.8450    3.2850   26.6170 C   0  0  0  0  0  0  0  0  0  0  0  0
    6.2130    1.8670   26.7100 C   0  0  0  0  0  0  0  0  0  0  0  0
    4.8520    1.7960   26.9260 N   0  0  0  0  0  0  0  0  0  0  0  0
    4.5610    0.4550   26.9620 N   0  0  0  0  0  0  0  0  0  0  0  0
    3.2030    0.0210   27.1680 C   0  0  0  0  0  0  0  0  0  0  0  0
    2.6500   -0.9690   26.3470 C   0  0  0  0  0  0  0  0  0  0  0  0
    1.3360   -1.3940   26.5460 C   0  0  0  0  0  0  0  0  0  0  0  0
    0.5760   -0.8270   27.5630 C   0  0  0  0  0  0  0  0  0  0  0  0
   -0.7400   -1.2480   27.7650 C   0  0  0  0  0  0  0  0  0  0  0  0
   -0.8120   -2.5390   28.1980 F   0  0  0  0  0  0  0  0  0  0  0  0
   -1.5070   -1.1940   26.6350 F   0  0  0  0  0  0  0  0  0  0  0  0
   -1.4010   -0.5060   28.6910 F   0  0  0  0  0  0  0  0  0  0  0  0
    1.1800    0.1660   28.3590 C   0  0  0  0  0  0  0  0  0  0  0  0
    2.4790    0.5930   28.1720 N   0  0  0  0  0  0  0  0  0  0  0  0
    5.7230   -0.3010   26.7760 C   0  0  0  0  0  0  0  0  0  0  0  0
    5.8510   -1.6890   26.7510 C   0  0  0  0  0  0  0  0  0  0  0  0
    6.7870    0.5820   26.6110 C   0  0  0  0  0  0  0  0  0  0  0  0
    8.1050    0.1720   26.3950 C   0  0  0  0  0  0  0  0  0  0  0  0
    8.1460   -0.4640   25.1470 C   0  0  0  0  0  0  0  0  0  0  0  0
    7.6940   -1.5920   24.9130 O   0  0  0  0  0  0  0  0  0  0  0  0
    8.7460    0.3800   24.2360 N   0  0  0  0  0  0  0  0  0  0  0  0
    9.0830   -0.1560   23.0360 C   0  0  1  0  0  0  0  0  0  0  0  0
    8.9830    0.8280   22.0560 C   0  0  0  0  0  0  0  0  0  0  0  0
   10.4720   -0.6690   23.1340 C   0  0  0  0  0  0  0  0  0  0  0  0
   11.2460   -1.3830   22.1080 C   0  0  0  0  0  0  0  0  0  0  0  0
   12.5080   -1.7020   22.6110 C   0  0  0  0  0  0  0  0  0  0  0  0
   13.2080   -1.6370   23.5100 C   0  0  0  0  0  0  0  0  0  0  0  0
   12.5260   -0.9590   24.5340 C   0  0  0  0  0  0  0  0  0  0  0  0
   13.1380   -0.7680   25.6860 F   0  0  0  0  0  0  0  0  0  0  0  0
   11.1850   -0.4800   24.3600 C   0  0  0  0  0  0  0  0  0  0  0  0
  1  2  1  0
  2  3  2  0
  3  4  1  0
  4  5  1  0
  5  6  2  0
  6  7  1  0
  7  8  2  0
  8  9  1  0
  9 10  1  0
  9 11  1  0
  9 12  1  0
  8 13  1  0
  5 14  1  0
 13 14  2  0
  4 15  1  0
 15 16  1  0
  2 17  1  0
 15 17  2  0
 17 18  1  0
 18 19  1  0
 19 20  2  0
 19 21  1  0
 21 22  1  0
 22 23  1  6
 22 24  1  0
 24 25  2  0
 25 26  1  0
 26 27  2  0
 27 28  1  0
 28 29  1  0
 24 30  1  0
 28 30  2  0
M  END
