AUS-ARG-7cfdce8f-15
     RDKit          3D

 29 33  0  0  0  0  0  0  0  0999 V2000
    6.4350    0.5600   32.6750 O   0  0  0  0  0  0  0  0  0  0  0  0
    5.9560    0.1420   31.3700 S   0  0  0  0  0  0  0  0  0  0  0  0
    5.0540   -0.9710   31.2020 O   0  0  0  0  0  0  0  0  0  0  0  0
    5.2650    1.5460   30.5120 C   0  0  0  0  0  0  0  0  0  0  0  0
    5.7360    1.3240   29.2660 C   0  0  0  0  0  0  0  0  0  0  0  0
    7.1590    0.9420   29.1300 C   0  0  2  0  0  0  0  0  0  0  0  0
    7.5190    0.5180   27.8800 N   0  0  0  0  0  0  0  0  0  0  0  0
    7.2970    1.3380   26.8300 C   0  0  0  0  0  0  0  0  0  0  0  0
    7.5950    0.9790   25.5230 C   0  0  0  0  0  0  0  0  0  0  0  0
    8.8800    0.2800   25.3930 N   0  0  0  0  0  0  0  0  0  0  0  0
    9.1470   -0.5610   24.3370 C   0  0  0  0  0  0  0  0  0  0  0  0
    8.1310   -1.3820   23.9940 N   0  0  0  0  0  0  0  0  0  0  0  0
    8.3190   -2.2560   23.0040 C   0  0  0  0  0  0  0  0  0  0  0  0
    7.1800   -3.2320   22.6330 C   0  0  0  0  0  0  0  0  0  0  0  0
    7.4760   -4.6800   22.9890 C   0  0  0  0  0  0  0  0  0  0  0  0
    6.4210   -5.6820   22.6540 C   0  0  0  0  0  0  0  0  0  0  0  0
    5.2630   -5.2200   22.0560 C   0  0  0  0  0  0  0  0  0  0  0  0
    4.9880   -3.9330   21.7380 N   0  0  0  0  0  0  0  0  0  0  0  0
    5.9320   -2.9800   22.0260 C   0  0  0  0  0  0  0  0  0  0  0  0
    9.4560   -2.3610   22.3170 N   0  0  0  0  0  0  0  0  0  0  0  0
   10.4760   -1.5610   22.6410 C   0  0  0  0  0  0  0  0  0  0  0  0
   11.6380   -1.7560   21.8920 C   0  0  0  0  0  0  0  0  0  0  0  0
   12.8470   -0.9350   22.1820 C   0  0  0  0  0  0  0  0  0  0  0  0
   12.8550    0.0310   23.1640 C   0  0  0  0  0  0  0  0  0  0  0  0
   11.6980    0.2450   23.9180 C   0  0  0  0  0  0  0  0  0  0  0  0
   10.4160   -0.6010   23.6630 C   0  0  0  0  0  0  0  0  0  0  0  0
    9.2450   -0.5050   26.5920 C   0  0  0  0  0  0  0  0  0  0  0  0
    8.8980    0.0370   27.8270 C   0  0  0  0  0  0  0  0  0  0  0  0
    7.3440   -0.0850   30.2720 C   0  0  0  0  0  0  0  0  0  0  0  0
  1  2  2  0
  2  3  2  0
  2  4  1  0
  4  5  1  0
  5  6  1  0
  6  7  1  6
  7  8  1  0
  8  9  1  0
  9 10  1  0
 10 11  1  0
 11 12  2  0
 12 13  1  0
 13 14  1  0
 14 15  2  0
 15 16  1  0
 16 17  2  0
 17 18  1  0
 14 19  1  0
 18 19  2  0
 13 20  2  0
 20 21  1  0
 21 22  1  0
 22 23  2  0
 23 24  1  0
 24 25  2  0
 11 26  1  0
 21 26  2  0
 25 26  1  0
 10 27  1  0
  7 28  1  0
 27 28  1  0
  2 29  1  0
  6 29  1  0
M  END
