AUS-ARG-7cfdce8f-1
     RDKit          3D

 21 23  0  0  0  0  0  0  0  0999 V2000
    8.5440   -1.0700   27.6200 C   0  0  0  0  0  0  0  0  0  0  0  0
    8.1410   -1.9000   26.5350 O   0  0  0  0  0  0  0  0  0  0  0  0
    7.7610   -1.1500   25.3820 C   0  0  2  0  0  0  0  0  0  0  0  0
    7.2300   -1.7070   24.1180 C   0  0  0  0  0  0  0  0  0  0  0  0
    8.2760   -1.5730   23.0180 C   0  0  1  0  0  0  0  0  0  0  0  0
    7.8130   -1.3120   21.7390 C   0  0  0  0  0  0  0  0  0  0  0  0
    7.5710    0.0750   21.4880 O   0  0  0  0  0  0  0  0  0  0  0  0
    6.7830    0.4280   20.4270 C   0  0  0  0  0  0  0  0  0  0  0  0
    5.6870    1.3180   20.5190 C   0  0  0  0  0  0  0  0  0  0  0  0
    4.8740    1.6580   19.2550 C   0  0  0  0  0  0  0  0  0  0  0  0
    5.3480    0.9840   18.0000 C   0  0  0  0  0  0  0  0  0  0  0  0
    6.4330    0.1260   18.0300 N   0  0  0  0  0  0  0  0  0  0  0  0
    7.1130   -0.1400   19.1910 C   0  0  0  0  0  0  0  0  0  0  0  0
    9.2190   -0.6240   23.4480 N   0  0  0  0  0  0  0  0  0  0  0  0
   10.5420   -0.7640   22.9900 C   0  0  0  0  0  0  0  0  0  0  0  0
   11.4790    0.1450   23.3730 N   0  0  0  0  0  0  0  0  0  0  0  0
   12.7410   -0.0230   22.9150 C   0  0  0  0  0  0  0  0  0  0  0  0
   13.0440   -1.0900   22.0880 C   0  0  0  0  0  0  0  0  0  0  0  0
   12.0390   -1.9610   21.7460 C   0  0  0  0  0  0  0  0  0  0  0  0
   10.7860   -1.8190   22.1820 N   0  0  0  0  0  0  0  0  0  0  0  0
    8.9830   -0.3020   24.8700 C   0  0  0  0  0  0  0  0  0  0  0  0
  1  2  1  0
  3  2  1  1
  3  4  1  0
  4  5  1  0
  5  6  1  6
  6  7  1  0
  7  8  1  0
  8  9  2  0
  9 10  1  0
 10 11  2  0
 11 12  1  0
  8 13  1  0
 12 13  2  0
  5 14  1  0
 14 15  1  0
 15 16  2  0
 16 17  1  0
 17 18  2  0
 18 19  1  0
 15 20  1  0
 19 20  2  0
  3 21  1  0
 14 21  1  0
M  END
