AUS-ARG-7cfdce8f-18
     RDKit          3D

 22 26  0  0  0  0  0  0  0  0999 V2000
    5.3080    1.1910   20.4200 C   0  0  0  0  0  0  0  0  0  0  0  0
    4.3400    2.1300   19.5960 C   0  0  0  0  0  0  0  0  0  0  0  0
    4.6290    1.9980   18.3140 N   0  0  0  0  0  0  0  0  0  0  0  0
    5.6090    1.0820   18.7000 C   0  0  0  0  0  0  0  0  0  0  0  0
    5.7840    0.8260   20.0190 N   0  0  0  0  0  0  0  0  0  0  0  0
    6.8040   -0.1010   20.1210 C   0  0  0  0  0  0  0  0  0  0  0  0
    7.2950   -0.6500   21.6210 S   0  0  0  0  0  0  0  0  0  0  0  0
    8.8350    0.2600   21.9160 C   0  0  0  0  0  0  0  0  0  0  0  0
    9.2240    0.1410   23.2480 C   0  0  0  0  0  0  0  0  0  0  0  0
   10.3310   -0.6880   23.4290 C   0  0  2  0  0  0  0  0  0  0  0  0
   11.1660   -0.6690   22.2990 C   0  0  0  0  0  0  0  0  0  0  0  0
   12.6320   -1.0150   22.5060 C   0  0  1  0  0  0  0  0  0  0  0  0
   13.0990   -0.5470   23.7070 C   0  0  0  0  0  0  0  0  0  0  0  0
   12.2690   -0.8090   24.7920 C   0  0  2  0  0  0  0  0  0  0  0  0
   12.0520   -2.1840   24.8850 C   0  0  0  0  0  0  0  0  0  0  0  0
   11.5390   -2.6520   23.7040 C   0  0  2  0  0  0  0  0  0  0  0  0
   12.4120   -2.4760   22.6650 C   0  0  0  0  0  0  0  0  0  0  0  0
   10.2380   -2.0950   23.7080 C   0  0  0  0  0  0  0  0  0  0  0  0
   11.0550   -0.1720   24.6580 C   0  0  0  0  0  0  0  0  0  0  0  0
    7.3830   -0.5400   18.9620 N   0  0  0  0  0  0  0  0  0  0  0  0
    6.5530    0.2630   18.2780 N   0  0  0  0  0  0  0  0  0  0  0  0
    6.3900    0.2940   19.6630 C   0  0  0  0  0  0  0  0  0  0  0  0
  1  2  1  0
  2  3  2  0
  3  4  1  0
  4  5  2  0
  5  6  1  0
  6  7  1  0
  7  8  1  0
  8  9  1  0
 10  9  1  6
 10 11  1  0
 12 11  1  1
 12 13  1  0
 14 13  1  6
 14 15  1  0
 16 15  1  1
 12 17  1  0
 16 17  1  0
 10 18  1  0
 16 18  1  0
 10 19  1  0
 14 19  1  0
  6 20  2  0
  4 21  1  0
 20 21  1  0
  1 22  2  0
 21 22  1  0
M  END
