AUS-ARG-7cfdce8f-17
     RDKit          3D

 23 25  0  0  0  0  0  0  0  0999 V2000
    9.7430   -2.8240   23.5640 C   0  0  0  0  0  0  0  0  0  0  0  0
    8.4860   -3.4930   23.6560 O   0  0  0  0  0  0  0  0  0  0  0  0
    7.3780   -2.7760   24.0530 C   0  0  2  0  0  0  0  0  0  0  0  0
    6.2210   -2.8640   23.3840 C   0  0  0  0  0  0  0  0  0  0  0  0
    5.9250   -1.5510   22.7250 C   0  0  1  0  0  0  0  0  0  0  0  0
    4.6320   -0.9080   23.2590 C   0  0  0  0  0  0  0  0  0  0  0  0
    3.9790    0.1690   22.7660 N   0  0  0  0  0  0  0  0  0  0  0  0
    2.9520    0.2770   23.6040 C   0  0  0  0  0  0  0  0  0  0  0  0
    1.6580    0.9600   24.1000 C   0  0  0  0  0  0  0  0  0  0  0  0
    2.8260   -0.7110   24.7240 C   0  0  0  0  0  0  0  0  0  0  0  0
    1.8790   -0.8400   25.7230 C   0  0  0  0  0  0  0  0  0  0  0  0
    4.0260   -1.5390   24.4620 N   0  0  0  0  0  0  0  0  0  0  0  0
    7.0480   -0.7900   22.9390 N   0  0  0  0  0  0  0  0  0  0  0  0
    8.0720   -0.1140   21.7540 S   0  0  0  0  0  0  0  0  0  0  0  0
    8.9410   -1.1910   21.3490 O   0  0  0  0  0  0  0  0  0  0  0  0
    8.6260    1.1010   22.3140 O   0  0  0  0  0  0  0  0  0  0  0  0
    7.0210    0.3120   20.3210 C   0  0  0  0  0  0  0  0  0  0  0  0
    5.9960    1.2140   20.4750 C   0  0  0  0  0  0  0  0  0  0  0  0
    5.1180    1.6070   19.3070 C   0  0  0  0  0  0  0  0  0  0  0  0
    5.3280    1.0680   18.0560 C   0  0  0  0  0  0  0  0  0  0  0  0
    6.4190    0.1120   17.9440 N   0  0  0  0  0  0  0  0  0  0  0  0
    7.1990   -0.2260   19.0310 C   0  0  0  0  0  0  0  0  0  0  0  0
    7.6890   -1.3560   24.0830 C   0  0  0  0  0  0  0  0  0  0  0  0
  1  2  1  0
  3  2  1  6
  3  4  1  0
  4  5  1  0
  5  6  1  1
  6  7  2  0
  7  8  1  0
  8  9  1  0
  8 10  2  0
 10 11  1  0
  6 12  1  0
 10 12  1  0
  5 13  1  0
 13 14  1  0
 14 15  2  0
 14 16  2  0
 14 17  1  0
 17 18  2  0
 18 19  1  0
 19 20  2  0
 20 21  1  0
 17 22  1  0
 21 22  2  0
  3 23  1  0
 13 23  1  0
M  END
