AUS-WAB-916db9c0-1
     RDKit          3D

 26 28  0  0  0  0  0  0  0  0999 V2000
   12.6710    0.3710   22.9130 C   0  0  0  0  0  0  0  0  0  0  0  0
   12.7520   -1.1330   22.8960 C   0  0  0  0  0  0  0  0  0  0  0  0
   11.5990   -1.8660   23.1170 N   0  0  0  0  0  0  0  0  0  0  0  0
   11.3790   -2.8860   24.0330 C   0  0  0  0  0  0  0  0  0  0  0  0
   10.2710   -3.6880   23.8860 C   0  0  0  0  0  0  0  0  0  0  0  0
    9.8420   -4.7200   24.6110 N   0  0  0  0  0  0  0  0  0  0  0  0
   10.6230   -4.9930   25.6140 C   0  0  0  0  0  0  0  0  0  0  0  0
   11.7830   -4.2550   25.8980 C   0  0  0  0  0  0  0  0  0  0  0  0
   12.1970   -3.1750   25.1040 C   0  0  0  0  0  0  0  0  0  0  0  0
   13.4770   -2.4240   25.4410 C   0  0  0  0  0  0  0  0  0  0  0  0
   10.3840   -1.6270   22.4700 C   0  0  1  0  0  0  0  0  0  0  0  0
   10.2040   -2.6050   21.4610 O   0  0  0  0  0  0  0  0  0  0  0  0
    9.1140   -1.5150   23.2880 C   0  0  1  0  0  0  0  0  0  0  0  0
    7.9930   -0.6420   23.6440 C   0  0  0  0  0  0  0  0  0  0  0  0
    8.4180   -2.7720   23.0750 C   0  0  2  0  0  0  0  0  0  0  0  0
    6.8340   -2.5610   22.9340 C   0  0  0  0  0  0  0  0  0  0  0  0
    6.1810   -2.6540   24.3510 N   0  0  0  0  0  0  0  0  0  0  0  0
    7.2210   -2.3080   25.3240 C   0  0  0  0  0  0  0  0  0  0  0  0
    8.0760   -2.1050   24.2490 C   0  0  0  0  0  0  0  0  0  0  0  0
    8.6600   -2.8090   22.9630 C   0  0  0  0  0  0  0  0  0  0  0  0
    7.9580   -4.2520   23.2940 C   0  0  0  0  0  0  0  0  0  0  0  0
    8.1820   -5.1810   22.2470 O   0  0  0  0  0  0  0  0  0  0  0  0
    7.1180   -6.1270   22.1040 C   0  0  0  0  0  0  0  0  0  0  0  0
    7.2110   -4.7060   24.3980 C   0  0  0  0  0  0  0  0  0  0  0  0
    7.0180   -3.7000   25.4130 C   0  0  0  0  0  0  0  0  0  0  0  0
    7.7310   -3.5180   24.0900 C   0  0  0  0  0  0  0  0  0  0  0  0
  1  2  2  3
  2  3  1  0
  3  4  1  0
  4  5  2  0
  5  6  1  0
  6  7  2  0
  7  8  1  0
  4  9  1  0
  8  9  2  0
  9 10  1  0
  3 11  1  0
 11 12  1  6
 11 13  1  0
 13 14  1  6
 13 15  1  0
 15 16  1  6
 16 17  1  0
 17 18  2  0
 18 19  1  0
 19 20  2  0
 20 21  1  0
 21 22  1  0
 22 23  1  0
 21 24  2  0
 24 25  1  0
 15 26  1  0
 19 26  1  0
 25 26  2  0
M  END
