AUS-ARG-7cfdce8f-14
     RDKit          3D

 29 31  0  0  0  0  0  0  0  0999 V2000
    5.3260    2.5680   20.3620 C   0  0  0  0  0  0  0  0  0  0  0  0
    6.0310    2.8350   21.4850 C   0  0  0  0  0  0  0  0  0  0  0  0
    6.4360    4.1880   21.9130 N   0  0  0  0  0  0  0  0  0  0  0  0
    7.1220    4.0740   23.0800 N   0  0  0  0  0  0  0  0  0  0  0  0
    7.5600    5.2180   23.5990 C   0  0  0  0  0  0  0  0  0  0  0  0
    7.6180    6.4530   22.6770 C   0  0  0  0  0  0  0  0  0  0  0  0
    8.0680    7.6320   23.2260 C   0  0  0  0  0  0  0  0  0  0  0  0
    8.4510    7.6640   24.5790 C   0  0  0  0  0  0  0  0  0  0  0  0
    8.9080    8.8550   25.1610 C   0  0  0  0  0  0  0  0  0  0  0  0
    8.5110    9.9640   24.4650 F   0  0  0  0  0  0  0  0  0  0  0  0
    8.4530    9.0450   26.4360 F   0  0  0  0  0  0  0  0  0  0  0  0
   10.2700    8.9170   25.2370 F   0  0  0  0  0  0  0  0  0  0  0  0
    8.3770    6.5010   25.3500 C   0  0  0  0  0  0  0  0  0  0  0  0
    7.9430    5.2890   24.8950 N   0  0  0  0  0  0  0  0  0  0  0  0
    7.1290    2.7340   23.3470 C   0  0  0  0  0  0  0  0  0  0  0  0
    7.5410    1.6100   24.2690 C   0  0  0  0  0  0  0  0  0  0  0  0
    6.4900    1.7290   22.4570 C   0  0  0  0  0  0  0  0  0  0  0  0
    6.3510    0.3330   22.4870 C   0  0  0  0  0  0  0  0  0  0  0  0
    7.5830   -0.3200   22.6310 C   0  0  0  0  0  0  0  0  0  0  0  0
    7.8330   -0.8920   23.8460 O   0  0  0  0  0  0  0  0  0  0  0  0
    8.4770   -0.4240   21.6560 N   0  0  0  0  0  0  0  0  0  0  0  0
    9.6100    0.1830   21.9800 C   0  0  0  0  0  0  0  0  0  0  0  0
   10.7230   -0.6860   22.5090 C   0  0  0  0  0  0  0  0  0  0  0  0
   11.6160   -1.5280   21.8270 C   0  0  0  0  0  0  0  0  0  0  0  0
   12.5850   -2.2510   22.4640 C   0  0  0  0  0  0  0  0  0  0  0  0
   12.6740   -2.1470   23.9560 C   0  0  0  0  0  0  0  0  0  0  0  0
   13.7250   -2.9140   25.0280 Cl  0  0  0  0  0  0  0  0  0  0  0  0
   11.7920   -1.3400   24.5320 C   0  0  0  0  0  0  0  0  0  0  0  0
   10.8310   -0.6050   23.8520 C   0  0  0  0  0  0  0  0  0  0  0  0
  1  2  1  0
  2  3  2  0
  3  4  1  0
  4  5  1  0
  5  6  2  0
  6  7  1  0
  7  8  2  0
  8  9  1  0
  9 10  1  0
  9 11  1  0
  9 12  1  0
  8 13  1  0
  5 14  1  0
 13 14  2  0
  4 15  1  0
 15 16  1  0
  2 17  1  0
 15 17  2  0
 17 18  1  0
 18 19  1  0
 19 20  2  0
 19 21  1  0
 21 22  1  0
 22 23  1  0
 23 24  2  0
 24 25  1  0
 25 26  2  0
 26 27  1  0
 26 28  1  0
 23 29  1  0
 28 29  2  0
M  END
