AUS-ARG-7cfdce8f-10
     RDKit          3D

 25 28  0  0  0  0  0  0  0  0999 V2000
    7.9950   -0.8210   23.7970 F   0  0  0  0  0  0  0  0  0  0  0  0
    9.2080   -0.5270   23.3670 C   0  0  0  0  0  0  0  0  0  0  0  0
   10.0850   -1.6270   22.8870 C   0  0  0  0  0  0  0  0  0  0  0  0
   11.3070   -1.2440   22.4520 C   0  0  0  0  0  0  0  0  0  0  0  0
   11.5880    0.1010   22.5060 C   0  0  0  0  0  0  0  0  0  0  0  0
   12.7230    0.3010   22.0420 O   0  0  0  0  0  0  0  0  0  0  0  0
   12.9920   -0.9900   21.9070 C   0  0  0  0  0  0  0  0  0  0  0  0
   13.1050   -1.7680   20.6880 N   0  0  0  0  0  0  0  0  0  0  0  0
   13.5440   -2.9920   21.1900 C   0  0  0  0  0  0  0  0  0  0  0  0
   14.3430   -3.9920   20.5820 C   0  0  0  0  0  0  0  0  0  0  0  0
   14.8170   -5.3100   20.8570 C   0  0  0  0  0  0  0  0  0  0  0  0
   15.6150   -5.9270   20.5050 C   0  0  0  0  0  0  0  0  0  0  0  0
   16.4070   -5.5150   19.8310 C   0  0  0  0  0  0  0  0  0  0  0  0
   16.2060   -4.4390   19.4590 N   0  0  0  0  0  0  0  0  0  0  0  0
   14.9250   -3.6660   19.8710 C   0  0  0  0  0  0  0  0  0  0  0  0
   13.6520   -3.3440   22.4210 N   0  0  0  0  0  0  0  0  0  0  0  0
   13.4670   -2.5370   23.4060 C   0  0  0  0  0  0  0  0  0  0  0  0
   13.7050   -3.1470   24.5660 C   0  0  0  0  0  0  0  0  0  0  0  0
   13.6580   -2.5320   25.6350 C   0  0  0  0  0  0  0  0  0  0  0  0
   13.3640   -1.3050   25.5250 C   0  0  0  0  0  0  0  0  0  0  0  0
   13.0810   -0.6340   24.3310 C   0  0  0  0  0  0  0  0  0  0  0  0
   13.1580   -1.3270   23.2200 C   0  0  0  0  0  0  0  0  0  0  0  0
   10.8210    1.1510   22.9500 C   0  0  0  0  0  0  0  0  0  0  0  0
   11.3470    2.8020   22.9360 Cl  0  0  0  0  0  0  0  0  0  0  0  0
    9.5900    0.8070   23.3900 C   0  0  0  0  0  0  0  0  0  0  0  0
  1  2  1  0
  2  3  2  0
  3  4  1  0
  4  5  2  0
  5  6  1  0
  6  7  1  0
  7  8  2  0
  8  9  1  0
  9 10  1  0
 10 11  2  0
 11 12  1  0
 12 13  2  0
 13 14  1  0
 10 15  1  0
 14 15  2  0
  9 16  2  0
 16 17  1  0
 17 18  1  0
 18 19  2  0
 19 20  1  0
 20 21  2  0
  7 22  1  0
 17 22  2  0
 21 22  1  0
  5 23  1  0
 23 24  1  0
  2 25  1  0
 23 25  2  0
M  END
