AUS-ARG-7cfdce8f-16
     RDKit          3D

 27 31  0  0  0  0  0  0  0  0999 V2000
    3.6420   -3.3560   24.3820 C   0  0  0  0  0  0  0  0  0  0  0  0
    3.8120   -4.2200   23.1200 C   0  0  0  0  0  0  0  0  0  0  0  0
    4.6940   -3.8120   22.1600 N   0  0  0  0  0  0  0  0  0  0  0  0
    5.4530   -2.5690   22.3690 C   0  0  0  0  0  0  0  0  0  0  0  0
    5.3030   -1.7740   23.5300 C   0  0  0  0  0  0  0  0  0  0  0  0
    6.0470   -0.6050   23.6820 C   0  0  0  0  0  0  0  0  0  0  0  0
    7.2530   -0.3200   23.1510 N   0  0  0  0  0  0  0  0  0  0  0  0
    7.8480    0.8960   23.4190 C   0  0  0  0  0  0  0  0  0  0  0  0
    8.9440    1.2160   22.9640 O   0  0  0  0  0  0  0  0  0  0  0  0
    9.9880    0.3260   23.0570 C   0  0  0  0  0  0  0  0  0  0  0  0
   10.2290   -0.4920   21.9520 C   0  0  0  0  0  0  0  0  0  0  0  0
   11.2440   -1.4230   21.9250 C   0  0  0  0  0  0  0  0  0  0  0  0
   12.0470   -1.5880   22.9800 C   0  0  0  0  0  0  0  0  0  0  0  0
   12.9800   -2.5260   22.8330 C   0  0  0  0  0  0  0  0  0  0  0  0
   13.8390   -2.8330   23.8160 C   0  0  0  0  0  0  0  0  0  0  0  0
   13.7840   -2.1130   25.1210 C   0  0  0  0  0  0  0  0  0  0  0  0
   12.7290   -1.0290   25.2150 C   0  0  0  0  0  0  0  0  0  0  0  0
   11.9050   -0.8400   24.1340 C   0  0  0  0  0  0  0  0  0  0  0  0
   10.7930    0.2020   24.1760 C   0  0  0  0  0  0  0  0  0  0  0  0
    7.1470    1.7940   24.2510 C   0  0  0  0  0  0  0  0  0  0  0  0
    7.6210    3.0490   24.6040 C   0  0  0  0  0  0  0  0  0  0  0  0
    6.9230    3.9290   25.4200 C   0  0  0  0  0  0  0  0  0  0  0  0
    5.6840    3.5430   25.9190 C   0  0  0  0  0  0  0  0  0  0  0  0
    5.1700    2.2900   25.5900 C   0  0  0  0  0  0  0  0  0  0  0  0
    5.8880    1.4150   24.7630 C   0  0  0  0  0  0  0  0  0  0  0  0
    5.3330    0.2360   24.4910 N   0  0  0  0  0  0  0  0  0  0  0  0
    4.3870   -2.1870   24.5270 C   0  0  0  0  0  0  0  0  0  0  0  0
  1  2  2  0
  2  3  1  0
  3  4  2  0
  4  5  1  0
  5  6  1  0
  6  7  2  0
  7  8  1  0
  8  9  1  0
  9 10  1  0
 10 11  2  0
 11 12  1  0
 12 13  2  0
 13 14  1  0
 14 15  2  0
 15 16  1  0
 16 17  2  0
 13 18  1  0
 17 18  1  0
 10 19  1  0
 18 19  2  0
  8 20  2  0
 20 21  1  0
 21 22  2  0
 22 23  1  0
 23 24  2  0
 20 25  1  0
 24 25  1  0
  6 26  1  0
 25 26  2  0
  1 27  1  0
  5 27  2  0
M  END
