AUS-ARG-7cfdce8f-4
     RDKit          3D

 25 28  0  0  0  0  0  0  0  0999 V2000
    7.5960    0.7070   23.3880 C   0  0  0  0  0  0  0  0  0  0  0  0
    7.5660   -0.6950   23.6620 O   0  0  0  0  0  0  0  0  0  0  0  0
    8.7740   -1.2420   23.5460 C   0  0  0  0  0  0  0  0  0  0  0  0
    9.1450   -1.8500   22.2250 C   0  0  0  0  0  0  0  0  0  0  0  0
   10.4610   -2.4290   22.0500 C   0  0  0  0  0  0  0  0  0  0  0  0
   11.2000   -2.3300   23.1400 C   0  0  0  0  0  0  0  0  0  0  0  0
   12.4670   -2.8520   23.0280 N   0  0  0  0  0  0  0  0  0  0  0  0
   12.9780   -2.5800   24.2550 C   0  0  0  0  0  0  0  0  0  0  0  0
   12.0050   -1.8700   25.2290 C   0  0  0  0  0  0  0  0  0  0  0  0
   13.3110   -2.2090   25.4450 C   0  0  0  0  0  0  0  0  0  0  0  0
   13.3380   -3.2800   24.6940 C   0  0  0  0  0  0  0  0  0  0  0  0
   13.3860   -2.9070   23.3200 C   0  0  0  0  0  0  0  0  0  0  0  0
   12.3670   -1.9210   23.0590 N   0  0  0  0  0  0  0  0  0  0  0  0
   11.7740   -1.5300   21.8680 C   0  0  1  0  0  0  0  0  0  0  0  0
   12.7590   -2.1520   20.9220 C   0  0  0  0  0  0  0  0  0  0  0  0
   10.3470   -1.8060   21.7460 C   0  0  0  0  0  0  0  0  0  0  0  0
   10.1170   -0.3850   21.6630 C   0  0  0  0  0  0  0  0  0  0  0  0
    8.7290    0.1750   21.4730 N   0  0  0  0  0  0  0  0  0  0  0  0
    7.5110   -0.6640   21.3790 C   0  0  0  0  0  0  0  0  0  0  0  0
    7.7860   -1.9860   21.4980 C   0  0  0  0  0  0  0  0  0  0  0  0
    9.0970   -1.4200   21.6010 N   0  0  0  0  0  0  0  0  0  0  0  0
   13.3990   -1.0550   23.3130 C   0  0  0  0  0  0  0  0  0  0  0  0
   13.3400   -1.0980   24.6640 C   0  0  0  0  0  0  0  0  0  0  0  0
   10.9180   -1.7860   24.3870 C   0  0  0  0  0  0  0  0  0  0  0  0
    9.6720   -1.2510   24.5750 C   0  0  0  0  0  0  0  0  0  0  0  0
  1  2  1  0
  2  3  1  0
  3  4  2  0
  4  5  1  0
  5  6  2  0
  6  7  1  0
  7  8  1  0
  8  9  2  0
  9 10  1  0
 10 11  1  0
 11 12  1  0
 12 13  1  0
 13 14  1  0
 14 15  1  6
 14 16  1  0
 16 17  2  0
 17 18  1  0
 18 19  2  0
 19 20  1  0
 16 21  1  0
 20 21  2  0
 13 22  1  0
 10 23  1  0
 22 23  1  0
  6 24  1  0
  9 24  1  0
  3 25  1  0
 24 25  2  0
M  END
