AUS-ARG-7cfdce8f-2
     RDKit          3D

 23 25  0  0  0  0  0  0  0  0999 V2000
    9.3310   -0.1950   21.8630 C   0  0  0  0  0  0  0  0  0  0  0  0
    9.7840   -0.1850   23.2110 O   0  0  0  0  0  0  0  0  0  0  0  0
   11.0660   -0.5910   23.5170 C   0  0  0  0  0  0  0  0  0  0  0  0
   12.2760   -0.2860   22.9650 C   0  0  0  0  0  0  0  0  0  0  0  0
   13.4760   -0.8140   23.4990 C   0  0  0  0  0  0  0  0  0  0  0  0
   13.5930   -1.7040   24.6600 C   0  0  0  0  0  0  0  0  0  0  0  0
   14.8190   -2.4820   25.5500 C   0  0  2  0  0  0  0  0  0  0  0  0
   15.7970   -1.9830   26.6030 C   0  0  0  0  0  0  0  0  0  0  0  0
   17.6130   -2.2800   26.0400 C   0  0  2  0  0  0  0  0  0  0  0  0
   19.2610   -2.1320   26.4550 C   0  0  0  0  0  0  0  0  0  0  0  0
   18.1310   -1.8550   25.0870 N   0  0  0  0  0  0  0  0  0  0  0  0
   19.9980   -1.7540   25.1220 S   0  0  0  0  0  0  0  0  0  0  0  0
   20.4660   -2.2990   23.8710 O   0  0  0  0  0  0  0  0  0  0  0  0
   20.2540   -0.4330   25.3700 O   0  0  0  0  0  0  0  0  0  0  0  0
   21.2820   -2.2960   26.2080 C   0  0  0  0  0  0  0  0  0  0  0  0
   21.4700   -1.6140   27.3780 C   0  0  0  0  0  0  0  0  0  0  0  0
   22.5050   -1.9760   28.2420 C   0  0  0  0  0  0  0  0  0  0  0  0
   23.3140   -3.0420   27.8720 C   0  0  0  0  0  0  0  0  0  0  0  0
   23.1570   -3.7350   26.7210 N   0  0  0  0  0  0  0  0  0  0  0  0
   22.1410   -3.3390   25.9080 C   0  0  0  0  0  0  0  0  0  0  0  0
   16.4880   -2.1870   26.0730 C   0  0  0  0  0  0  0  0  0  0  0  0
   12.3240   -1.9500   25.0800 C   0  0  0  0  0  0  0  0  0  0  0  0
   11.1250   -1.4390   24.5640 C   0  0  0  0  0  0  0  0  0  0  0  0
  1  2  1  0
  2  3  1  0
  3  4  2  0
  4  5  1  0
  5  6  2  0
  7  6  1  6
  7  8  1  0
  8  9  1  0
  9 10  1  1
  9 11  1  0
 11 12  1  0
 12 13  2  0
 12 14  2  0
 12 15  1  0
 15 16  2  0
 16 17  1  0
 17 18  2  0
 18 19  1  0
 15 20  1  0
 19 20  2  0
  7 21  1  0
 11 21  1  0
  6 22  1  0
  3 23  1  0
 22 23  2  0
M  END
