AVI-UNI-c9bf710f-2
     RDKit          3D

 27 29  0  0  0  0  0  0  0  0999 V2000
    4.2080   -4.2280   22.1610 O   0  0  0  0  0  0  0  0  0  0  0  0
    5.3870   -4.4280   21.9630 C   0  0  0  0  0  0  0  0  0  0  0  0
    6.0630   -6.0400   22.0460 Cl  0  0  0  0  0  0  0  0  0  0  0  0
    6.3110   -3.3560   21.6960 N   0  0  0  0  0  0  0  0  0  0  0  0
    7.3820   -3.3570   22.4790 C   0  0  0  0  0  0  0  0  0  0  0  0
    7.4130   -2.5550   23.5230 C   0  0  0  0  0  0  0  0  0  0  0  0
    8.1660   -1.5000   23.1600 N   0  0  0  0  0  0  0  0  0  0  0  0
    9.2400   -1.4650   23.9750 C   0  0  0  0  0  0  0  0  0  0  0  0
   10.3230   -0.4520   23.7690 C   0  0  0  0  0  0  0  0  0  0  0  0
   11.5690   -1.0000   23.0860 C   0  0  0  0  0  0  0  0  0  0  0  0
   12.7150   -0.0170   22.8210 C   0  0  0  0  0  0  0  0  0  0  0  0
   13.7340   -0.3870   22.2840 O   0  0  0  0  0  0  0  0  0  0  0  0
   12.3700    1.4150   23.3140 C   0  0  0  0  0  0  0  0  0  0  0  0
   11.2510    1.8970   23.9280 C   0  0  0  0  0  0  0  0  0  0  0  0
   10.1520    0.8820   24.1760 C   0  0  0  0  0  0  0  0  0  0  0  0
    9.1710    1.3570   24.7310 O   0  0  0  0  0  0  0  0  0  0  0  0
    8.3570   -1.2370   21.7140 C   0  0  0  0  0  0  0  0  0  0  0  0
    7.0780   -1.1120   20.8820 C   0  0  2  0  0  0  0  0  0  0  0  0
    6.5160    0.1690   20.8550 C   0  0  0  0  0  0  0  0  0  0  0  0
    6.3900    1.0580   21.9200 C   0  0  0  0  0  0  0  0  0  0  0  0
    5.8100    2.3260   21.8120 C   0  0  0  0  0  0  0  0  0  0  0  0
    5.7050    3.1020   22.7500 O   0  0  0  0  0  0  0  0  0  0  0  0
    5.3370    2.6970   20.5590 C   0  0  0  0  0  0  0  0  0  0  0  0
    5.4720    1.7940   19.5040 C   0  0  0  0  0  0  0  0  0  0  0  0
    6.0460    0.5440   19.6060 C   0  0  0  0  0  0  0  0  0  0  0  0
    6.1530   -0.2920   18.5390 O   0  0  0  0  0  0  0  0  0  0  0  0
    5.9790   -2.0630   21.4120 C   0  0  0  0  0  0  0  0  0  0  0  0
  1  2  2  0
  2  3  1  0
  2  4  1  0
  4  5  1  0
  5  6  1  0
  6  7  1  0
  7  8  1  0
  8  9  1  0
  9 10  2  0
 10 11  1  0
 11 12  1  0
 11 13  2  0
 13 14  1  0
  9 15  1  0
 14 15  2  0
 15 16  1  0
  7 17  1  0
 17 18  1  0
 18 19  1  1
 19 20  2  0
 20 21  1  0
 21 22  1  0
 21 23  2  0
 23 24  1  0
 19 25  1  0
 24 25  2  0
 25 26  1  0
  4 27  1  0
 18 27  1  0
M  END
