AVI-UNI-c9bf710f-1
     RDKit          3D

 26 28  0  0  0  0  0  0  0  0999 V2000
    4.2030   -4.1460   22.2500 O   0  0  0  0  0  0  0  0  0  0  0  0
    5.4010   -4.3750   22.2230 C   0  0  0  0  0  0  0  0  0  0  0  0
    5.9850   -5.9990   22.5010 Cl  0  0  0  0  0  0  0  0  0  0  0  0
    6.3920   -3.4390   22.0180 N   0  0  0  0  0  0  0  0  0  0  0  0
    7.6390   -3.5260   22.6360 C   0  0  0  0  0  0  0  0  0  0  0  0
    8.0210   -2.4050   23.4570 C   0  0  0  0  0  0  0  0  0  0  0  0
    8.9960   -1.8410   22.6930 N   0  0  0  0  0  0  0  0  0  0  0  0
   10.3690   -1.6710   23.1530 C   0  0  0  0  0  0  0  0  0  0  0  0
   10.4610   -0.2960   23.1000 C   0  0  0  0  0  0  0  0  0  0  0  0
    9.2360    0.2610   23.1690 C   0  0  0  0  0  0  0  0  0  0  0  0
    9.1130    1.6320   23.1160 C   0  0  0  0  0  0  0  0  0  0  0  0
   10.2730    2.5570   22.9840 C   0  0  0  0  0  0  0  0  0  0  0  0
   11.6250    1.9220   22.9120 C   0  0  0  0  0  0  0  0  0  0  0  0
   12.9200    3.0100   22.7600 Cl  0  0  0  0  0  0  0  0  0  0  0  0
   11.6510    0.4060   22.9820 C   0  0  0  0  0  0  0  0  0  0  0  0
    8.4280   -1.2930   21.4250 C   0  0  0  0  0  0  0  0  0  0  0  0
    7.0380   -0.9770   21.4920 C   0  0  1  0  0  0  0  0  0  0  0  0
    6.3960    0.0680   20.5530 C   0  0  0  0  0  0  0  0  0  0  0  0
    5.7810    1.2700   21.2660 C   0  0  0  0  0  0  0  0  0  0  0  0
    5.0840    2.3820   20.4840 C   0  0  0  0  0  0  0  0  0  0  0  0
    4.5780    3.3660   21.0320 O   0  0  0  0  0  0  0  0  0  0  0  0
    5.0760    2.1570   18.9750 C   0  0  0  0  0  0  0  0  0  0  0  0
    5.7250    0.9240   18.3510 C   0  0  0  0  0  0  0  0  0  0  0  0
    6.3560   -0.0660   19.1520 C   0  0  0  0  0  0  0  0  0  0  0  0
    6.8990   -1.1270   18.5030 O   0  0  0  0  0  0  0  0  0  0  0  0
    6.0650   -2.1820   21.3380 C   0  0  0  0  0  0  0  0  0  0  0  0
  1  2  2  0
  2  3  1  0
  2  4  1  0
  4  5  1  0
  5  6  1  0
  6  7  1  0
  7  8  1  0
  8  9  1  0
  9 10  2  0
 10 11  1  0
 11 12  2  0
 12 13  1  0
 13 14  1  0
  9 15  1  0
 13 15  2  0
  7 16  1  0
 16 17  1  0
 17 18  1  6
 18 19  2  0
 19 20  1  0
 20 21  1  0
 20 22  2  0
 22 23  1  0
 18 24  1  0
 23 24  2  0
 24 25  1  0
  4 26  1  0
 17 26  1  0
M  END
