AVI-UNI-cf069e49-2
     RDKit          3D

 34 39  0  0  0  0  0  0  0  0999 V2000
   12.0270   -1.3130   24.3850 C   0  0  0  0  0  0  0  0  0  0  0  0
   10.6620   -1.1300   24.0480 N   0  0  0  0  0  0  0  0  0  0  0  0
   10.4020   -0.8500   22.6270 C   0  0  0  0  0  0  0  0  0  0  0  0
    9.8610    0.4650   22.4430 C   0  0  0  0  0  0  0  0  0  0  0  0
    8.7390    0.8400   21.5990 C   0  0  0  0  0  0  0  0  0  0  0  0
    8.3310    2.1870   21.5720 C   0  0  0  0  0  0  0  0  0  0  0  0
    7.1070    1.8290   20.7530 C   0  0  0  0  0  0  0  0  0  0  0  0
    5.7030    2.1160   21.1280 C   0  0  0  0  0  0  0  0  0  0  0  0
    5.0210    1.5630   19.9730 C   0  0  0  0  0  0  0  0  0  0  0  0
    3.8200    1.5150   19.7090 O   0  0  0  0  0  0  0  0  0  0  0  0
    5.9830    0.9700   18.9710 C   0  0  0  0  0  0  0  0  0  0  0  0
    7.1890    1.1530   19.4540 O   0  0  0  0  0  0  0  0  0  0  0  0
    9.4910    1.9190   22.2260 C   0  0  0  0  0  0  0  0  0  0  0  0
    9.7480    0.5330   22.0730 C   0  0  0  0  0  0  0  0  0  0  0  0
    8.8130   -0.4620   21.7060 C   0  0  0  0  0  0  0  0  0  0  0  0
    9.2270   -1.6190   21.6020 O   0  0  0  0  0  0  0  0  0  0  0  0
   10.5810   -1.5470   21.9060 C   0  0  0  0  0  0  0  0  0  0  0  0
   11.4220   -2.6340   21.8990 N   0  0  0  0  0  0  0  0  0  0  0  0
   12.8750   -2.3190   22.2640 C   0  0  0  0  0  0  0  0  0  0  0  0
   13.1900   -1.0130   22.5590 C   0  0  0  0  0  0  0  0  0  0  0  0
   12.2770    0.0090   22.5410 C   0  0  0  0  0  0  0  0  0  0  0  0
   10.9410   -0.2170   22.2120 C   0  0  0  0  0  0  0  0  0  0  0  0
   10.4240    2.7690   22.9670 C   0  0  0  0  0  0  0  0  0  0  0  0
   11.3430    2.9840   23.7500 O   0  0  0  0  0  0  0  0  0  0  0  0
   10.5340    1.4030   23.1970 N   0  0  0  0  0  0  0  0  0  0  0  0
   10.8000    0.9890   24.5070 C   0  0  0  0  0  0  0  0  0  0  0  0
   10.0920   -0.1490   24.8320 C   0  0  1  0  0  0  0  0  0  0  0  0
    8.6990   -0.0800   24.5100 C   0  0  2  0  0  0  0  0  0  0  0  0
    8.1280    1.1920   24.6650 C   0  0  0  0  0  0  0  0  0  0  0  0
    6.8060    1.2950   24.2440 C   0  0  0  0  0  0  0  0  0  0  0  0
    6.0200    0.3430   24.9680 N   0  0  0  0  0  0  0  0  0  0  0  0
    6.5380   -0.9080   25.1730 C   0  0  0  0  0  0  0  0  0  0  0  0
    5.8380   -1.9160   25.1160 O   0  0  0  0  0  0  0  0  0  0  0  0
    7.9090   -0.9940   25.4690 C   0  0  0  0  0  0  0  0  0  0  0  0
  1  2  1  0
  2  3  1  0
  3  4  1  0
  4  5  2  0
  5  6  1  0
  6  7  1  0
  7  8  2  0
  8  9  1  0
  9 10  2  0
  9 11  1  0
  7 12  1  0
 11 12  1  0
  6 13  2  0
 13 14  1  0
 14 15  2  0
 15 16  1  0
 16 17  1  0
 17 18  1  0
 18 19  2  0
 19 20  1  0
 20 21  2  0
 14 22  1  0
 17 22  2  0
 21 22  1  0
 13 23  1  0
 23 24  2  0
  4 25  1  0
 23 25  1  0
 25 26  1  0
  2 27  1  0
 27 26  1  6
 27 28  1  0
 28 29  1  1
 29 30  1  0
 30 31  1  0
 31 32  1  0
 32 33  2  0
 28 34  1  0
 32 34  1  0
M  END
