BAR-COM-4e090d3a-1
     RDKit          3D

 34 39  0  0  0  0  0  0  0  0999 V2000
   12.7090    3.1160   22.6760 C   0  0  0  0  0  0  0  0  0  0  0  0
   12.2180    1.6910   22.7580 C   0  0  0  0  0  0  0  0  0  0  0  0
   12.9680    0.5590   22.7000 N   0  0  0  0  0  0  0  0  0  0  0  0
   12.1060   -0.5930   22.8020 C   0  0  0  0  0  0  0  0  0  0  0  0
   10.4650   -0.2830   22.9660 S   0  0  0  0  0  0  0  0  0  0  0  0
   10.7660    1.4270   22.9170 C   0  0  0  0  0  0  0  0  0  0  0  0
    9.8390    2.5950   23.0300 C   0  0  0  0  0  0  0  0  0  0  0  0
   10.2720    3.6600   23.9790 N   0  0  0  0  0  0  0  0  0  0  0  0
    9.2190    4.6530   23.8940 C   0  0  0  0  0  0  0  0  0  0  0  0
    9.1770    5.8450   24.6040 C   0  0  0  0  0  0  0  0  0  0  0  0
    7.9790    6.7750   24.3770 C   0  0  0  0  0  0  0  0  0  0  0  0
    6.9390    6.2730   23.3670 C   0  0  0  0  0  0  0  0  0  0  0  0
    7.1170    5.0290   22.7150 C   0  0  0  0  0  0  0  0  0  0  0  0
    8.2510    4.2810   23.0140 C   0  0  0  0  0  0  0  0  0  0  0  0
    8.6300    2.9680   22.4530 N   0  0  0  0  0  0  0  0  0  0  0  0
    7.7130    2.4140   21.4850 C   0  0  0  0  0  0  0  0  0  0  0  0
    7.7410    1.0130   21.4400 C   0  0  0  0  0  0  0  0  0  0  0  0
    8.7690    0.3560   21.5440 O   0  0  0  0  0  0  0  0  0  0  0  0
    6.4260    0.5920   21.2160 N   0  0  0  0  0  0  0  0  0  0  0  0
    5.5570    1.5860   20.6570 C   0  0  0  0  0  0  0  0  0  0  0  0
    5.2820    1.2060   19.4360 C   0  0  0  0  0  0  0  0  0  0  0  0
    5.7920    0.0260   19.1030 C   0  0  0  0  0  0  0  0  0  0  0  0
    7.0440   -0.0410   18.6840 C   0  0  0  0  0  0  0  0  0  0  0  0
    7.5320   -1.2370   18.3400 C   0  0  0  0  0  0  0  0  0  0  0  0
    6.8080   -2.3610   18.3980 C   0  0  0  0  0  0  0  0  0  0  0  0
    5.4520   -2.3450   18.8660 N   0  0  0  0  0  0  0  0  0  0  0  0
    5.0330   -1.1310   19.1910 C   0  0  0  0  0  0  0  0  0  0  0  0
    4.4850    1.9100   18.4040 N   0  0  0  0  0  0  0  0  0  0  0  0
    5.0960    1.0410   18.6890 C   0  0  0  0  0  0  0  0  0  0  0  0
    5.6650    0.7630   19.9700 C   0  0  0  0  0  0  0  0  0  0  0  0
    5.3440    1.7280   21.1500 C   0  0  0  0  0  0  0  0  0  0  0  0
    4.5230    2.9770   21.0720 C   0  0  0  0  0  0  0  0  0  0  0  0
    4.2050    3.1590   19.7980 C   0  0  0  0  0  0  0  0  0  0  0  0
    4.8460    2.0540   19.6470 N   0  0  0  0  0  0  0  0  0  0  0  0
  1  2  1  0
  2  3  1  0
  3  4  2  0
  4  5  1  0
  2  6  2  0
  5  6  1  0
  6  7  1  0
  7  8  2  0
  8  9  1  0
  9 10  2  0
 10 11  1  0
 11 12  2  0
 12 13  1  0
  9 14  1  0
 13 14  2  0
  7 15  1  0
 14 15  1  0
 15 16  1  0
 16 17  1  0
 17 18  2  0
 17 19  1  0
 19 20  1  0
 20 21  2  0
 21 22  1  0
 22 23  2  0
 23 24  1  0
 24 25  2  0
 25 26  1  0
 22 27  1  0
 26 27  2  0
 21 28  1  0
 28 29  2  0
 29 30  1  0
 30 31  2  0
 31 32  1  0
 32 33  2  0
 20 34  1  0
 29 34  1  0
 33 34  1  0
M  END
