BAR-COM-4e090d3a-60
     RDKit          3D

 22 24  0  0  0  0  0  0  0  0999 V2000
    8.2280    1.2630   20.7170 O   0  0  0  0  0  0  0  0  0  0  0  0
    7.8440    0.1620   21.1460 C   0  0  0  0  0  0  0  0  0  0  0  0
    6.8460   -0.7020   20.5910 N   0  0  0  0  0  0  0  0  0  0  0  0
    5.9450   -0.0550   19.5970 C   0  0  0  0  0  0  0  0  0  0  0  0
    4.8340    0.4110   20.3250 C   0  0  0  0  0  0  0  0  0  0  0  0
    4.9230    1.2950   19.3290 C   0  0  0  0  0  0  0  0  0  0  0  0
    5.9630    1.1070   18.2600 C   0  0  0  0  0  0  0  0  0  0  0  0
    6.4890   -0.1370   18.8620 C   0  0  0  0  0  0  0  0  0  0  0  0
    6.2090   -0.9830   20.0510 N   0  0  0  0  0  0  0  0  0  0  0  0
    5.2430   -0.6620   20.9180 N   0  0  0  0  0  0  0  0  0  0  0  0
    8.4110   -0.3760   22.2930 N   0  0  0  0  0  0  0  0  0  0  0  0
    9.7390    0.0250   22.6840 C   0  0  0  0  0  0  0  0  0  0  0  0
    9.9320    1.3730   23.3250 C   0  0  0  0  0  0  0  0  0  0  0  0
   11.2870    1.8140   23.7020 C   0  0  0  0  0  0  0  0  0  0  0  0
   12.3760    1.0160   23.4850 C   0  0  0  0  0  0  0  0  0  0  0  0
   12.1650   -0.2100   22.9150 C   0  0  0  0  0  0  0  0  0  0  0  0
   13.1540   -1.0230   22.7060 N   0  0  0  0  0  0  0  0  0  0  0  0
   13.1000   -1.9140   21.5340 C   0  0  0  0  0  0  0  0  0  0  0  0
   13.2320   -2.8160   22.5280 C   0  0  0  0  0  0  0  0  0  0  0  0
   13.4560   -2.0340   23.5630 C   0  0  0  0  0  0  0  0  0  0  0  0
   13.7750   -2.3770   24.7050 O   0  0  0  0  0  0  0  0  0  0  0  0
   10.9350   -0.7000   22.5270 C   0  0  0  0  0  0  0  0  0  0  0  0
  1  2  2  0
  2  3  1  0
  3  4  1  0
  4  5  1  0
  5  6  2  0
  6  7  1  0
  7  8  2  0
  8  9  1  0
  5 10  1  0
  9 10  2  0
  2 11  1  0
 11 12  1  0
 12 13  2  0
 13 14  1  0
 14 15  2  0
 15 16  1  0
 16 17  1  0
 17 18  1  0
 18 19  1  0
 17 20  1  0
 19 20  1  0
 20 21  2  0
 12 22  1  0
 16 22  2  0
M  END
