BAR-COM-4e090d3a-66
     RDKit          3D

 25 27  0  0  0  0  0  0  0  0999 V2000
   13.6060   -1.6930   20.6810 C   0  0  0  0  0  0  0  0  0  0  0  0
   13.6420   -0.6030   21.4650 C   0  0  2  0  0  0  0  0  0  0  0  0
   12.5780   -0.9110   22.3900 C   0  0  0  0  0  0  0  0  0  0  0  0
   12.7690   -0.9750   23.7450 C   0  0  0  0  0  0  0  0  0  0  0  0
   11.7400   -1.2730   24.5220 C   0  0  0  0  0  0  0  0  0  0  0  0
   10.3830   -1.5180   24.0450 C   0  0  0  0  0  0  0  0  0  0  0  0
    9.9820   -1.5060   22.7350 C   0  0  0  0  0  0  0  0  0  0  0  0
    8.7960   -1.7260   22.1580 N   0  0  0  0  0  0  0  0  0  0  0  0
    8.1940   -0.5590   21.6710 C   0  0  0  0  0  0  0  0  0  0  0  0
    8.8930    0.4130   21.3910 O   0  0  0  0  0  0  0  0  0  0  0  0
    6.7830   -0.5460   21.5210 C   0  0  0  0  0  0  0  0  0  0  0  0
    6.1710    0.2520   20.5170 C   0  0  0  0  0  0  0  0  0  0  0  0
    5.3070    1.3140   20.6860 C   0  0  0  0  0  0  0  0  0  0  0  0
    4.6900    2.0980   19.6340 N   0  0  0  0  0  0  0  0  0  0  0  0
    4.9450    1.8170   18.3340 C   0  0  0  0  0  0  0  0  0  0  0  0
    5.8020    0.7610   18.0840 C   0  0  0  0  0  0  0  0  0  0  0  0
    6.4460   -0.0620   19.0450 C   0  0  0  0  0  0  0  0  0  0  0  0
    7.4500   -1.3270   18.6140 Cl  0  0  0  0  0  0  0  0  0  0  0  0
   11.1580   -1.2030   21.8590 C   0  0  0  0  0  0  0  0  0  0  0  0
   14.1960    0.8300   20.6000 N   0  0  0  0  0  0  0  0  0  0  0  0
   14.8600    0.6430   19.2910 C   0  0  0  0  0  0  0  0  0  0  0  0
   14.8420    1.6250   18.2990 C   0  0  0  0  0  0  0  0  0  0  0  0
   14.3890    2.8320   18.8040 O   0  0  0  0  0  0  0  0  0  0  0  0
   15.1740    2.9960   19.9280 C   0  0  0  0  0  0  0  0  0  0  0  0
   14.7280    2.2110   21.0240 C   0  0  0  0  0  0  0  0  0  0  0  0
  2  1  1  6
  2  3  1  0
  3  4  2  0
  4  5  1  0
  5  6  2  0
  6  7  1  0
  7  8  1  0
  8  9  1  0
  9 10  2  0
  9 11  1  0
 11 12  1  0
 12 13  2  0
 13 14  1  0
 14 15  2  0
 15 16  1  0
 12 17  1  0
 16 17  2  0
 17 18  1  0
  3 19  1  0
  7 19  2  0
  2 20  1  0
 20 21  1  0
 21 22  1  0
 22 23  1  0
 23 24  1  0
 20 25  1  0
 24 25  1  0
M  END
