BAR-COM-4e090d3a-10
     RDKit          3D

 30 32  0  0  0  0  0  0  0  0999 V2000
    9.4780   -2.0840   24.2070 O   0  0  0  0  0  0  0  0  0  0  0  0
   10.6760   -1.8360   24.1680 C   0  0  0  0  0  0  0  0  0  0  0  0
   11.6770   -2.6300   24.6600 N   0  0  0  0  0  0  0  0  0  0  0  0
   12.9910   -2.0640   24.5180 C   0  0  0  0  0  0  0  0  0  0  0  0
   13.0640   -1.8390   23.0090 C   0  0  0  0  0  0  0  0  0  0  0  0
   11.9790   -1.5740   22.2690 N   0  0  0  0  0  0  0  0  0  0  0  0
   11.6940   -2.5270   21.4190 C   0  0  0  0  0  0  0  0  0  0  0  0
   12.7010   -3.2750   20.9050 C   0  0  0  0  0  0  0  0  0  0  0  0
   12.5460   -4.2690   20.0200 C   0  0  0  0  0  0  0  0  0  0  0  0
   11.3300   -4.6370   19.5420 C   0  0  0  0  0  0  0  0  0  0  0  0
   10.3180   -3.9150   20.0480 N   0  0  0  0  0  0  0  0  0  0  0  0
   10.4880   -2.8900   20.9590 N   0  0  0  0  0  0  0  0  0  0  0  0
   11.0280   -0.5730   23.6000 C   0  0  0  0  0  0  0  0  0  0  0  0
   12.4700   -0.1190   23.5880 C   0  0  0  0  0  0  0  0  0  0  0  0
   12.6460    1.1240   23.0580 C   0  0  0  0  0  0  0  0  0  0  0  0
   11.6560    1.9410   22.5840 C   0  0  0  0  0  0  0  0  0  0  0  0
   10.3580    1.4550   22.6060 C   0  0  0  0  0  0  0  0  0  0  0  0
   10.0370    0.2200   23.0870 C   0  0  0  0  0  0  0  0  0  0  0  0
    8.7010   -0.0730   22.9950 N   0  0  0  0  0  0  0  0  0  0  0  0
    7.7400    0.6950   21.8320 S   0  0  0  0  0  0  0  0  0  0  0  0
    8.6430    1.4090   20.9590 O   0  0  0  0  0  0  0  0  0  0  0  0
    6.6930    1.4300   22.5120 O   0  0  0  0  0  0  0  0  0  0  0  0
    6.9510   -0.5320   20.9280 C   0  0  0  0  0  0  0  0  0  0  0  0
    6.6980   -1.7500   21.6620 C   0  0  0  0  0  0  0  0  0  0  0  0
    6.0360   -2.8300   20.9940 C   0  0  0  0  0  0  0  0  0  0  0  0
    5.7840   -3.9740   21.6560 F   0  0  0  0  0  0  0  0  0  0  0  0
    5.6250   -2.6930   19.5800 C   0  0  0  0  0  0  0  0  0  0  0  0
    6.0350   -1.3880   19.2150 C   0  0  0  0  0  0  0  0  0  0  0  0
    6.5530   -0.4090   19.5740 C   0  0  0  0  0  0  0  0  0  0  0  0
    6.7170    0.6550   18.7800 F   0  0  0  0  0  0  0  0  0  0  0  0
  1  2  2  0
  2  3  1  0
  3  4  1  0
  4  5  1  0
  5  6  1  0
  6  7  1  0
  7  8  2  0
  8  9  1  0
  9 10  2  0
 10 11  1  0
  7 12  1  0
 11 12  2  0
  2 13  1  0
 13 14  2  0
 14 15  1  0
 15 16  2  0
 16 17  1  0
 13 18  1  0
 17 18  2  0
 18 19  1  0
 20 19  1  0
 20 21  2  0
 20 22  2  0
 20 23  1  0
 23 24  2  0
 24 25  1  0
 25 26  1  0
 25 27  2  0
 27 28  1  0
 23 29  1  0
 28 29  2  0
 29 30  1  0
M  END
