BAR-COM-4e090d3a-18
     RDKit          3D

 25 27  0  0  0  0  0  0  0  0999 V2000
    4.7220   -0.5860   20.0310 C   0  0  0  0  0  0  0  0  0  0  0  0
    5.7580    0.2740   19.2920 C   0  0  0  0  0  0  0  0  0  0  0  0
    6.9920    0.6420   20.1100 C   0  0  0  0  0  0  0  0  0  0  0  0
    7.4390    1.7950   20.1720 O   0  0  0  0  0  0  0  0  0  0  0  0
    7.5250   -0.5530   20.7940 N   0  0  0  0  0  0  0  0  0  0  0  0
    8.1560   -0.5260   22.0130 C   0  0  0  0  0  0  0  0  0  0  0  0
    9.1020   -1.4370   22.4890 C   0  0  2  0  0  0  0  0  0  0  0  0
    8.6640   -1.8570   23.7320 N   0  0  0  0  0  0  0  0  0  0  0  0
    7.7360   -2.8510   23.9290 C   0  0  0  0  0  0  0  0  0  0  0  0
    7.8840   -4.1420   23.3250 O   0  0  0  0  0  0  0  0  0  0  0  0
    6.6530   -2.5570   24.7570 C   0  0  0  0  0  0  0  0  0  0  0  0
    5.5400   -3.4060   24.6240 C   0  0  0  0  0  0  0  0  0  0  0  0
    4.7330   -3.5260   25.8950 C   0  0  0  0  0  0  0  0  0  0  0  0
    5.2240   -4.0760   27.0470 C   0  0  0  0  0  0  0  0  0  0  0  0
    4.3390   -4.0910   28.0720 N   0  0  0  0  0  0  0  0  0  0  0  0
    3.1980   -3.5040   27.5270 N   0  0  0  0  0  0  0  0  0  0  0  0
    3.4540   -3.1720   26.2300 N   0  0  0  0  0  0  0  0  0  0  0  0
   10.4910   -0.8390   22.6820 C   0  0  0  0  0  0  0  0  0  0  0  0
   10.6100    0.3610   23.4130 C   0  0  0  0  0  0  0  0  0  0  0  0
   11.8600    0.9640   23.6120 C   0  0  0  0  0  0  0  0  0  0  0  0
   12.9580    0.3330   23.0680 C   0  0  0  0  0  0  0  0  0  0  0  0
   12.8880   -0.8420   22.3570 C   0  0  0  0  0  0  0  0  0  0  0  0
   11.6430   -1.4210   22.1680 C   0  0  0  0  0  0  0  0  0  0  0  0
    4.6440    1.5130   19.0070 C   0  0  0  0  0  0  0  0  0  0  0  0
    5.4730    0.8630   18.1450 C   0  0  0  0  0  0  0  0  0  0  0  0
  1  2  1  0
  2  3  1  0
  3  4  2  0
  3  5  1  0
  5  6  1  0
  7  6  1  1
  7  8  1  0
  8  9  1  0
  9 10  2  0
  9 11  1  0
 11 12  1  0
 12 13  1  0
 13 14  2  0
 14 15  1  0
 15 16  2  0
 13 17  1  0
 16 17  1  0
  7 18  1  0
 18 19  2  0
 19 20  1  0
 20 21  2  0
 21 22  1  0
 18 23  1  0
 22 23  2  0
  2 24  1  0
  2 25  1  0
 24 25  1  0
M  END
