BAR-COM-4e090d3a-17
     RDKit          3D

 27 29  0  0  0  0  0  0  0  0999 V2000
   13.3450    0.0960   22.8890 C   0  0  0  0  0  0  0  0  0  0  0  0
   12.2120   -0.2760   23.4850 C   0  0  1  0  0  0  0  0  0  0  0  0
   11.4090   -1.1440   22.6040 C   0  0  0  0  0  0  0  0  0  0  0  0
   12.2720   -2.3480   22.2160 C   0  0  1  0  0  0  0  0  0  0  0  0
   12.9950   -2.2290   21.0750 C   0  0  0  0  0  0  0  0  0  0  0  0
   13.0900   -2.6370   23.4550 C   0  0  0  0  0  0  0  0  0  0  0  0
   12.1850   -2.4140   24.5310 N   0  0  0  0  0  0  0  0  0  0  0  0
   10.8590   -2.1930   24.0200 C   0  0  0  0  0  0  0  0  0  0  0  0
    9.9300   -3.0050   23.9620 O   0  0  0  0  0  0  0  0  0  0  0  0
   10.8200   -0.7180   23.5900 C   0  0  0  0  0  0  0  0  0  0  0  0
   12.1560   -0.0740   23.9550 C   0  0  0  0  0  0  0  0  0  0  0  0
   12.2340    1.3750   23.6030 C   0  0  0  0  0  0  0  0  0  0  0  0
   11.1830    2.0110   23.0290 C   0  0  0  0  0  0  0  0  0  0  0  0
   10.0090    1.3460   22.7240 C   0  0  0  0  0  0  0  0  0  0  0  0
    9.7980   -0.0020   22.9740 C   0  0  0  0  0  0  0  0  0  0  0  0
    8.5740   -0.5340   22.5720 N   0  0  0  0  0  0  0  0  0  0  0  0
    8.0050    0.0040   21.4410 C   0  0  0  0  0  0  0  0  0  0  0  0
    8.3880    1.2730   20.8490 O   0  0  0  0  0  0  0  0  0  0  0  0
    7.0370   -0.7680   20.9150 N   0  0  0  0  0  0  0  0  0  0  0  0
    5.7580   -0.4670   21.2690 C   0  0  0  0  0  0  0  0  0  0  0  0
    5.0630    0.3590   20.3800 C   0  0  0  0  0  0  0  0  0  0  0  0
    4.5870    1.1670   19.2590 C   0  0  0  0  0  0  0  0  0  0  0  0
    5.2420    1.4420   17.8680 C   0  0  0  0  0  0  0  0  0  0  0  0
    6.3910    0.9200   17.5530 N   0  0  0  0  0  0  0  0  0  0  0  0
    6.5740    0.3000   18.6390 C   0  0  0  0  0  0  0  0  0  0  0  0
    6.2440   -0.0690   19.8270 N   0  0  0  0  0  0  0  0  0  0  0  0
   12.4630   -1.0400   24.8290 C   0  0  0  0  0  0  0  0  0  0  0  0
  2  1  1  6
  2  3  1  0
  3  4  1  0
  4  5  1  6
  4  6  1  0
  6  7  1  0
  7  8  1  0
  8  9  2  0
  8 10  1  0
 10 11  2  0
 11 12  1  0
 12 13  2  0
 13 14  1  0
 10 15  1  0
 14 15  2  0
 15 16  1  0
 16 17  1  0
 17 18  2  0
 17 19  1  0
 19 20  1  0
 20 21  1  0
 21 22  2  0
 22 23  1  0
 23 24  2  0
 24 25  1  0
 21 26  1  0
 25 26  2  0
  2 27  1  0
  7 27  1  0
M  END
