BAR-COM-4e090d3a-55
     RDKit          3D

 28 30  0  0  0  0  0  0  0  0999 V2000
    6.3120   -0.3900   25.1300 C   0  0  0  0  0  0  0  0  0  0  0  0
    6.3660   -1.1140   23.9310 C   0  0  1  0  0  0  0  0  0  0  0  0
    5.5450   -1.9940   23.7280 O   0  0  0  0  0  0  0  0  0  0  0  0
    6.1170   -3.1180   23.0500 C   0  0  0  0  0  0  0  0  0  0  0  0
    5.5740   -4.2850   23.5970 C   0  0  1  0  0  0  0  0  0  0  0  0
    4.9040   -5.0870   22.7620 C   0  0  0  0  0  0  0  0  0  0  0  0
    5.5260   -6.3270   22.3380 C   0  0  0  0  0  0  0  0  0  0  0  0
    6.8940   -6.3850   22.5110 C   0  0  0  0  0  0  0  0  0  0  0  0
    7.4080   -5.5610   23.5020 C   0  0  0  0  0  0  0  0  0  0  0  0
    6.6440   -4.9780   24.2650 O   0  0  0  0  0  0  0  0  0  0  0  0
    6.5960   -0.1030   22.7720 C   0  0  0  0  0  0  0  0  0  0  0  0
    6.3630    1.0830   22.9850 O   0  0  0  0  0  0  0  0  0  0  0  0
    7.0450   -0.5190   21.5330 N   0  0  0  0  0  0  0  0  0  0  0  0
    8.4860   -0.5650   21.3780 C   0  0  0  0  0  0  0  0  0  0  0  0
    9.1850   -1.0500   22.4810 C   0  0  0  0  0  0  0  0  0  0  0  0
   10.4700   -0.5630   22.6040 C   0  0  0  0  0  0  0  0  0  0  0  0
   10.6660    0.7860   22.8850 C   0  0  0  0  0  0  0  0  0  0  0  0
   11.9780    1.3010   23.0000 C   0  0  0  0  0  0  0  0  0  0  0  0
   13.0860    0.4620   22.8410 C   0  0  0  0  0  0  0  0  0  0  0  0
   12.8420   -0.8650   22.5670 C   0  0  0  0  0  0  0  0  0  0  0  0
   11.5860   -1.3840   22.4460 C   0  0  0  0  0  0  0  0  0  0  0  0
    6.3110   -0.3230   20.2870 C   0  0  0  0  0  0  0  0  0  0  0  0
    5.0390    0.2190   20.4900 C   0  0  0  0  0  0  0  0  0  0  0  0
    5.0690    0.8360   19.3680 C   0  0  0  0  0  0  0  0  0  0  0  0
    5.7980    1.0500   18.3150 C   0  0  0  0  0  0  0  0  0  0  0  0
    4.8050    1.8100   17.9120 C   0  0  0  0  0  0  0  0  0  0  0  0
    3.7760    1.7880   18.8970 N   0  0  0  0  0  0  0  0  0  0  0  0
    3.8980    1.0170   20.1290 C   0  0  0  0  0  0  0  0  0  0  0  0
  2  1  1  1
  2  3  1  0
  3  4  1  0
  5  4  1  6
  5  6  1  0
  6  7  1  0
  7  8  1  0
  8  9  1  0
  5 10  1  0
  9 10  1  0
  2 11  1  0
 11 12  2  0
 11 13  1  0
 13 14  1  0
 14 15  1  0
 15 16  1  0
 16 17  2  0
 17 18  1  0
 18 19  2  0
 19 20  1  0
 16 21  1  0
 20 21  2  0
 13 22  1  0
 22 23  1  0
 23 24  2  0
 24 25  1  0
 25 26  2  0
 26 27  1  0
 23 28  1  0
 27 28  2  0
M  END
