BAR-COM-4e090d3a-7
     RDKit          3D

 26 28  0  0  0  0  0  0  0  0999 V2000
    6.9850    3.0970   22.0710 C   0  0  0  0  0  0  0  0  0  0  0  0
    6.8820    2.0350   20.9390 C   0  0  1  0  0  0  0  0  0  0  0  0
    7.3640    0.7950   21.2940 N   0  0  0  0  0  0  0  0  0  0  0  0
    8.8080    0.6410   21.4060 C   0  0  0  0  0  0  0  0  0  0  0  0
    8.7600    1.8650   21.2550 O   0  0  0  0  0  0  0  0  0  0  0  0
    8.2940   -0.6610   21.5200 C   0  0  1  0  0  0  0  0  0  0  0  0
    8.9750   -1.4300   22.4460 C   0  0  0  0  0  0  0  0  0  0  0  0
   10.4090   -0.9520   22.6120 C   0  0  0  0  0  0  0  0  0  0  0  0
   10.6370    0.2790   23.4330 C   0  0  0  0  0  0  0  0  0  0  0  0
   11.8820    0.8420   23.6580 C   0  0  0  0  0  0  0  0  0  0  0  0
   12.9870    0.2330   23.0960 C   0  0  0  0  0  0  0  0  0  0  0  0
   12.8750   -0.9160   22.3260 C   0  0  0  0  0  0  0  0  0  0  0  0
   11.6730   -1.5740   22.0280 C   0  0  0  0  0  0  0  0  0  0  0  0
    6.8410   -0.6990   21.7780 N   0  0  0  0  0  0  0  0  0  0  0  0
    5.9800   -1.7730   21.2120 C   0  0  0  0  0  0  0  0  0  0  0  0
    5.8470   -1.9170   20.0000 O   0  0  0  0  0  0  0  0  0  0  0  0
    5.2770   -2.6630   22.2370 C   0  0  0  0  0  0  0  0  0  0  0  0
    5.3610   -2.4780   23.7570 C   0  0  0  0  0  0  0  0  0  0  0  0
    4.5920   -3.4750   24.3110 C   0  0  0  0  0  0  0  0  0  0  0  0
    4.0290   -4.2830   23.1360 C   0  0  0  0  0  0  0  0  0  0  0  0
    4.4540   -3.7720   21.9280 O   0  0  0  0  0  0  0  0  0  0  0  0
    5.4770    1.9200   20.4650 C   0  0  0  0  0  0  0  0  0  0  0  0
    5.0650    1.6660   19.2260 N   0  0  0  0  0  0  0  0  0  0  0  0
    3.7080    1.6770   19.3330 C   0  0  0  0  0  0  0  0  0  0  0  0
    3.3330    1.9360   20.6440 C   0  0  0  0  0  0  0  0  0  0  0  0
    4.4700    2.0940   21.3790 O   0  0  0  0  0  0  0  0  0  0  0  0
  2  1  1  1
  2  3  1  0
  3  4  1  0
  4  5  2  0
  4  6  1  0
  6  7  1  1
  7  8  1  0
  8  9  2  0
  9 10  1  0
 10 11  2  0
 11 12  1  0
  8 13  1  0
 12 13  2  0
  6 14  1  0
 14 15  1  0
 15 16  2  0
 15 17  1  0
 17 18  2  0
 18 19  1  0
 19 20  2  0
 17 21  1  0
 20 21  1  0
  2 22  1  0
 22 23  2  0
 23 24  1  0
 24 25  2  0
 22 26  1  0
 25 26  1  0
M  END
