BAR-COM-4e090d3a-65
     RDKit          3D

 22 24  0  0  0  0  0  0  0  0999 V2000
    8.3890   -0.8200   23.5950 O   0  0  0  0  0  0  0  0  0  0  0  0
    8.9640   -0.3710   22.6190 C   0  0  0  0  0  0  0  0  0  0  0  0
    8.5320   -0.5080   21.3140 N   0  0  0  0  0  0  0  0  0  0  0  0
    7.1730   -0.6760   21.2980 C   0  0  0  0  0  0  0  0  0  0  0  0
    6.5930   -0.0620   20.1440 C   0  0  0  0  0  0  0  0  0  0  0  0
    5.2950    0.5720   20.0010 C   0  0  0  0  0  0  0  0  0  0  0  0
    5.1300    1.0520   18.6370 C   0  0  0  0  0  0  0  0  0  0  0  0
    6.2610    0.7420   17.9520 N   0  0  0  0  0  0  0  0  0  0  0  0
    7.1510    0.0630   18.8750 O   0  0  0  0  0  0  0  0  0  0  0  0
   10.2400    0.4170   22.8130 C   0  0  0  0  0  0  0  0  0  0  0  0
   10.1330    1.7690   22.5940 C   0  0  0  0  0  0  0  0  0  0  0  0
   11.2180    2.6480   22.7070 C   0  0  0  0  0  0  0  0  0  0  0  0
   12.4540    2.1400   23.0420 C   0  0  0  0  0  0  0  0  0  0  0  0
   12.5990    0.6690   23.3030 C   0  0  0  0  0  0  0  0  0  0  0  0
   11.4870   -0.0830   23.1860 C   0  0  0  0  0  0  0  0  0  0  0  0
   11.6490   -1.3330   23.4610 O   0  0  0  0  0  0  0  0  0  0  0  0
   12.9990   -1.7110   23.4990 C   0  0  0  0  0  0  0  0  0  0  0  0
   12.7930   -2.6970   24.3690 C   0  0  0  0  0  0  0  0  0  0  0  0
   11.4450   -3.0020   24.1880 C   0  0  0  0  0  0  0  0  0  0  0  0
   10.8520   -2.6430   22.9430 C   0  0  0  0  0  0  0  0  0  0  0  0
   11.6600   -2.2400   21.8320 C   0  0  0  0  0  0  0  0  0  0  0  0
   13.0320   -2.1320   22.0820 C   0  0  0  0  0  0  0  0  0  0  0  0
  1  2  2  0
  2  3  1  0
  3  4  1  0
  4  5  1  0
  5  6  2  0
  6  7  1  0
  7  8  2  0
  5  9  1  0
  8  9  1  0
  2 10  1  0
 10 11  2  0
 11 12  1  0
 12 13  2  0
 13 14  1  0
 10 15  1  0
 14 15  2  0
 15 16  1  0
 16 17  1  0
 17 18  1  0
 18 19  1  0
 19 20  1  0
 20 21  1  0
 17 22  1  0
 21 22  1  0
M  END
