BAR-COM-4e090d3a-15
     RDKit          3D

 26 28  0  0  0  0  0  0  0  0999 V2000
    8.5160    1.2950   20.9650 O   0  0  0  0  0  0  0  0  0  0  0  0
    8.2720    0.2100   21.5090 C   0  0  0  0  0  0  0  0  0  0  0  0
    7.0110   -0.3620   21.3230 C   0  0  0  0  0  0  0  0  0  0  0  0
    6.2080    0.5490   20.6190 C   0  0  0  0  0  0  0  0  0  0  0  0
    5.9690    1.8350   21.1490 C   0  0  0  0  0  0  0  0  0  0  0  0
    5.2120    2.7430   20.5120 C   0  0  0  0  0  0  0  0  0  0  0  0
    4.5860    2.4510   19.2220 C   0  0  0  0  0  0  0  0  0  0  0  0
    4.7690    1.1500   18.5840 N   0  0  0  0  0  0  0  0  0  0  0  0
    5.6270    0.2390   19.3950 C   0  0  0  0  0  0  0  0  0  0  0  0
    5.8360   -1.2840   18.6460 Cl  0  0  0  0  0  0  0  0  0  0  0  0
    9.1670   -0.5140   22.3270 N   0  0  0  0  0  0  0  0  0  0  0  0
   10.4260   -0.0250   22.5180 C   0  0  0  0  0  0  0  0  0  0  0  0
   10.6620    1.2430   23.0150 C   0  0  0  0  0  0  0  0  0  0  0  0
   11.9560    1.7450   23.1790 C   0  0  0  0  0  0  0  0  0  0  0  0
   13.0380    0.9840   22.8460 C   0  0  0  0  0  0  0  0  0  0  0  0
   12.8680   -0.2660   22.3510 C   0  0  0  0  0  0  0  0  0  0  0  0
   13.7710   -1.0030   21.9970 O   0  0  0  0  0  0  0  0  0  0  0  0
   13.5910   -1.6980   20.7610 C   0  0  0  0  0  0  0  0  0  0  0  0
   12.8410   -2.7640   21.0330 C   0  0  0  0  0  0  0  0  0  0  0  0
   12.3390   -2.4950   22.2820 C   0  0  0  0  0  0  0  0  0  0  0  0
   10.9710   -2.3210   22.4660 C   0  0  0  0  0  0  0  0  0  0  0  0
   10.5660   -2.0020   23.7260 C   0  0  0  0  0  0  0  0  0  0  0  0
   11.5040   -1.8500   24.8030 C   0  0  0  0  0  0  0  0  0  0  0  0
   12.8490   -2.0530   24.6060 C   0  0  0  0  0  0  0  0  0  0  0  0
   13.2560   -2.3790   23.3420 C   0  0  0  0  0  0  0  0  0  0  0  0
   11.5620   -0.7760   22.1940 C   0  0  0  0  0  0  0  0  0  0  0  0
  1  2  2  0
  2  3  1  0
  3  4  1  0
  4  5  2  0
  5  6  1  0
  6  7  2  0
  7  8  1  0
  4  9  1  0
  8  9  2  0
  9 10  1  0
  2 11  1  0
 11 12  1  0
 12 13  2  0
 13 14  1  0
 14 15  2  0
 15 16  1  0
 16 17  1  0
 17 18  1  0
 18 19  1  0
 19 20  1  0
 20 21  2  0
 21 22  1  0
 22 23  2  0
 23 24  1  0
 20 25  1  0
 24 25  2  0
 12 26  1  0
 16 26  2  0
M  END
