BAR-COM-4e090d3a-6
     RDKit          3D

 27 30  0  0  0  0  0  0  0  0999 V2000
    9.2230   -5.6980   25.9510 C   0  0  0  0  0  0  0  0  0  0  0  0
    7.8370   -5.5100   25.5850 N   0  0  0  0  0  0  0  0  0  0  0  0
    6.8440   -5.8530   26.4420 N   0  0  0  0  0  0  0  0  0  0  0  0
    5.6160   -5.5750   25.8550 N   0  0  0  0  0  0  0  0  0  0  0  0
    5.8870   -5.0580   24.6260 C   0  0  0  0  0  0  0  0  0  0  0  0
    7.2290   -4.9860   24.3860 C   0  0  0  0  0  0  0  0  0  0  0  0
    8.0140   -4.4830   23.1690 C   0  0  0  0  0  0  0  0  0  0  0  0
    8.8730   -3.4180   23.4600 C   0  0  0  0  0  0  0  0  0  0  0  0
    9.3920   -3.3150   24.5600 O   0  0  0  0  0  0  0  0  0  0  0  0
    9.0570   -2.5040   22.4390 N   0  0  0  0  0  0  0  0  0  0  0  0
    8.9240   -1.0700   22.6570 C   0  0  1  0  0  0  0  0  0  0  0  0
   10.2280   -0.5130   22.7730 C   0  0  0  0  0  0  0  0  0  0  0  0
   10.5060    0.7100   23.3760 C   0  0  0  0  0  0  0  0  0  0  0  0
   11.8140    1.1960   23.4710 C   0  0  0  0  0  0  0  0  0  0  0  0
   12.9020    0.3920   22.9260 C   0  0  0  0  0  0  0  0  0  0  0  0
   12.6290   -0.8470   22.3030 C   0  0  0  0  0  0  0  0  0  0  0  0
   11.2840   -1.3200   22.2110 C   0  0  0  0  0  0  0  0  0  0  0  0
    8.0500   -0.5250   21.5220 C   0  0  0  0  0  0  0  0  0  0  0  0
    8.3650   -0.2360   20.3420 N   0  0  0  0  0  0  0  0  0  0  0  0
    7.5430    0.2960   19.2900 C   0  0  0  0  0  0  0  0  0  0  0  0
    6.7010    0.8400   18.2160 C   0  0  0  0  0  0  0  0  0  0  0  0
    5.3850    1.2130   18.0200 C   0  0  0  0  0  0  0  0  0  0  0  0
    4.4980    1.1160   18.9900 C   0  0  0  0  0  0  0  0  0  0  0  0
    5.0490    0.5890   20.2410 C   0  0  0  0  0  0  0  0  0  0  0  0
    6.4130    0.2380   20.3250 C   0  0  0  0  0  0  0  0  0  0  0  0
    6.7990   -0.2450   21.5640 N   0  0  0  0  0  0  0  0  0  0  0  0
    5.9280   -0.3990   22.7100 C   0  0  0  0  0  0  0  0  0  0  0  0
  1  2  1  0
  2  3  1  0
  3  4  2  0
  4  5  1  0
  2  6  1  0
  5  6  2  0
  6  7  1  0
  7  8  1  0
  8  9  2  0
  8 10  1  0
 11 10  1  6
 11 12  1  0
 12 13  2  0
 13 14  1  0
 14 15  2  0
 15 16  1  0
 12 17  1  0
 16 17  2  0
 11 18  1  0
 18 19  2  0
 19 20  1  0
 20 21  2  0
 21 22  1  0
 22 23  2  0
 23 24  1  0
 20 25  1  0
 24 25  2  0
 18 26  1  0
 25 26  1  0
 26 27  1  0
M  END
