BAR-COM-4e090d3a-61
     RDKit          3D

 23 25  0  0  0  0  0  0  0  0999 V2000
    8.3730    0.8880   20.9150 O   0  0  0  0  0  0  0  0  0  0  0  0
    7.9610    0.1390   21.7830 C   0  0  0  0  0  0  0  0  0  0  0  0
    6.7290   -0.6170   21.7310 N   0  0  0  0  0  0  0  0  0  0  0  0
    6.1660   -0.8890   20.4150 C   0  0  0  0  0  0  0  0  0  0  0  0
    5.2090    0.1740   19.9770 C   0  0  0  0  0  0  0  0  0  0  0  0
    4.6130    1.2510   19.0690 C   0  0  0  0  0  0  0  0  0  0  0  0
    5.1400    1.6140   17.8700 C   0  0  0  0  0  0  0  0  0  0  0  0
    6.2470    0.9690   17.4940 N   0  0  0  0  0  0  0  0  0  0  0  0
    6.4710   -0.0640   18.7820 S   0  0  0  0  0  0  0  0  0  0  0  0
    8.5880   -0.1150   22.9790 N   0  0  0  0  0  0  0  0  0  0  0  0
    9.8930    0.0800   23.2090 C   0  0  0  0  0  0  0  0  0  0  0  0
   10.6280    1.3470   22.8290 C   0  0  0  0  0  0  0  0  0  0  0  0
   12.1020    1.3610   23.1510 C   0  0  0  0  0  0  0  0  0  0  0  0
   12.7030    0.2700   23.7560 C   0  0  0  0  0  0  0  0  0  0  0  0
   11.9900   -0.8340   24.0960 C   0  0  0  0  0  0  0  0  0  0  0  0
   12.4720   -1.9740   24.7160 C   0  0  0  0  0  0  0  0  0  0  0  0
   12.4040   -2.8010   23.7150 N   0  0  0  0  0  0  0  0  0  0  0  0
   13.3980   -2.4240   22.8990 C   0  0  0  0  0  0  0  0  0  0  0  0
   12.9810   -1.8500   21.7110 C   0  0  0  0  0  0  0  0  0  0  0  0
   11.6170   -2.0250   21.7110 C   0  0  0  0  0  0  0  0  0  0  0  0
   11.2420   -2.7790   22.9540 C   0  0  0  0  0  0  0  0  0  0  0  0
    9.9970   -3.2990   23.2000 O   0  0  0  0  0  0  0  0  0  0  0  0
   10.6280   -1.0210   23.8710 C   0  0  0  0  0  0  0  0  0  0  0  0
  1  2  2  0
  2  3  1  0
  3  4  1  0
  4  5  1  0
  5  6  2  0
  6  7  1  0
  7  8  2  0
  5  9  1  0
  8  9  1  0
  2 10  1  0
 10 11  1  0
 11 12  2  0
 12 13  1  0
 13 14  2  0
 14 15  1  0
 15 16  1  0
 16 17  1  0
 17 18  1  0
 18 19  1  0
 19 20  1  0
 17 21  1  0
 20 21  1  0
 21 22  2  0
 11 23  1  0
 15 23  2  0
M  END
