BAR-COM-4e090d3a-25
     RDKit          3D

 25 27  0  0  0  0  0  0  0  0999 V2000
    6.3330   -1.6350   21.1380 O   0  0  0  0  0  0  0  0  0  0  0  0
    7.0110   -0.7530   20.6320 C   0  0  0  0  0  0  0  0  0  0  0  0
    6.6110    0.0060   19.3270 C   0  0  0  0  0  0  0  0  0  0  0  0
    5.2480   -0.0710   18.9860 C   0  0  0  0  0  0  0  0  0  0  0  0
    4.3620    0.8590   19.5390 C   0  0  0  0  0  0  0  0  0  0  0  0
    4.2410    1.1230   20.8750 C   0  0  0  0  0  0  0  0  0  0  0  0
    3.2180    2.1460   21.0680 N   0  0  0  0  0  0  0  0  0  0  0  0
    2.7780    2.4440   19.8470 N   0  0  0  0  0  0  0  0  0  0  0  0
    3.4460    1.6910   18.9360 N   0  0  0  0  0  0  0  0  0  0  0  0
    8.2130   -0.3240   21.1580 N   0  0  0  0  0  0  0  0  0  0  0  0
    8.8360   -0.8640   22.3750 C   0  0  1  0  0  0  0  0  0  0  0  0
    8.8070   -2.3780   22.5110 C   0  0  0  0  0  0  0  0  0  0  0  0
    9.5000   -2.8190   23.7110 N   0  0  0  0  0  0  0  0  0  0  0  0
   10.6040   -2.1410   24.1900 C   0  0  0  0  0  0  0  0  0  0  0  0
   10.5470   -0.9830   24.5290 O   0  0  0  0  0  0  0  0  0  0  0  0
   11.7610   -2.8890   24.2360 C   0  0  0  0  0  0  0  0  0  0  0  0
   12.8290   -2.5840   25.0020 C   0  0  0  0  0  0  0  0  0  0  0  0
   13.5090   -2.2540   23.8970 C   0  0  0  0  0  0  0  0  0  0  0  0
   12.4800   -2.4220   22.9390 C   0  0  0  0  0  0  0  0  0  0  0  0
   10.2650   -0.3600   22.4750 C   0  0  0  0  0  0  0  0  0  0  0  0
   10.5310    1.0610   22.8770 C   0  0  0  0  0  0  0  0  0  0  0  0
   11.8470    1.5370   22.9830 C   0  0  0  0  0  0  0  0  0  0  0  0
   13.1360    0.7180   22.7310 C   0  0  0  0  0  0  0  0  0  0  0  0
   12.6800   -0.7110   22.3180 C   0  0  0  0  0  0  0  0  0  0  0  0
   11.3630   -1.1640   22.2120 C   0  0  0  0  0  0  0  0  0  0  0  0
  1  2  2  0
  2  3  1  0
  3  4  1  0
  4  5  1  0
  5  6  2  0
  6  7  1  0
  7  8  2  0
  5  9  1  0
  8  9  1  0
  2 10  1  0
 10 11  1  0
 11 12  1  6
 12 13  1  0
 13 14  1  0
 14 15  2  0
 14 16  1  0
 16 17  1  0
 17 18  1  0
 16 19  1  0
 18 19  1  0
 11 20  1  0
 20 21  2  0
 21 22  1  0
 22 23  2  0
 23 24  1  0
 20 25  1  0
 24 25  2  0
M  END
