BAR-COM-4e090d3a-44
     RDKit          3D

 26 28  0  0  0  0  0  0  0  0999 V2000
   14.9300    1.8810   18.1780 C   0  0  0  0  0  0  0  0  0  0  0  0
   14.9970    1.1620   19.5060 C   0  0  1  0  0  0  0  0  0  0  0  0
   14.7550    2.2580   20.3390 C   0  0  0  0  0  0  0  0  0  0  0  0
   14.4430    2.1420   21.7280 C   0  0  1  0  0  0  0  0  0  0  0  0
   13.8770    3.2900   22.3900 C   0  0  0  0  0  0  0  0  0  0  0  0
   13.6540    0.7680   22.0340 C   0  0  0  0  0  0  0  0  0  0  0  0
   13.7420   -0.2900   21.0880 N   0  0  0  0  0  0  0  0  0  0  0  0
   12.9370   -1.3910   21.3250 C   0  0  0  0  0  0  0  0  0  0  0  0
   12.9970   -2.3960   20.6480 O   0  0  0  0  0  0  0  0  0  0  0  0
   12.0890   -1.3510   22.3520 C   0  0  0  0  0  0  0  0  0  0  0  0
   12.8810   -1.4330   23.4510 C   0  0  0  0  0  0  0  0  0  0  0  0
   12.4290   -1.4270   24.6780 C   0  0  0  0  0  0  0  0  0  0  0  0
   11.1060   -1.3290   24.8680 C   0  0  0  0  0  0  0  0  0  0  0  0
   10.1210   -1.2230   23.8070 C   0  0  0  0  0  0  0  0  0  0  0  0
   10.6520   -1.2420   22.4230 C   0  0  0  0  0  0  0  0  0  0  0  0
    9.7760   -1.1570   21.3850 N   0  0  0  0  0  0  0  0  0  0  0  0
    8.4620   -0.5850   21.4740 C   0  0  0  0  0  0  0  0  0  0  0  0
    8.0250    0.2140   22.4680 O   0  0  0  0  0  0  0  0  0  0  0  0
    7.6190   -0.9040   20.4270 N   0  0  0  0  0  0  0  0  0  0  0  0
    6.7690    0.0010   19.7430 C   0  0  0  0  0  0  0  0  0  0  0  0
    5.4990    0.3040   20.2510 C   0  0  0  0  0  0  0  0  0  0  0  0
    4.9990    0.9060   19.2220 C   0  0  0  0  0  0  0  0  0  0  0  0
    5.1490    1.2900   18.0950 C   0  0  0  0  0  0  0  0  0  0  0  0
    3.9420    1.5860   18.5640 O   0  0  0  0  0  0  0  0  0  0  0  0
    4.1460    0.9500   19.9700 C   0  0  0  0  0  0  0  0  0  0  0  0
   14.3270   -0.1300   19.7510 C   0  0  0  0  0  0  0  0  0  0  0  0
  2  1  1  6
  2  3  1  0
  3  4  1  0
  4  5  1  6
  4  6  1  0
  6  7  1  0
  7  8  1  0
  8  9  2  0
  8 10  1  0
 10 11  2  0
 11 12  1  0
 12 13  2  0
 13 14  1  0
 10 15  1  0
 14 15  2  0
 15 16  1  0
 16 17  1  0
 17 18  2  0
 17 19  1  0
 19 20  1  0
 20 21  1  0
 21 22  1  0
 22 23  2  0
 23 24  1  0
 21 25  2  0
 24 25  1  0
  2 26  1  0
  7 26  1  0
M  END
