BAR-COM-4e090d3a-39
     RDKit          3D

 22 24  0  0  0  0  0  0  0  0999 V2000
    8.3210    1.3500   20.7550 O   0  0  0  0  0  0  0  0  0  0  0  0
    7.6680    0.3130   20.6030 C   0  0  0  0  0  0  0  0  0  0  0  0
    6.3830    0.2300   19.8220 C   0  0  0  0  0  0  0  0  0  0  0  0
    5.3780    1.3190   20.0850 C   0  0  0  0  0  0  0  0  0  0  0  0
    5.7770    2.2950   21.1620 C   0  0  0  0  0  0  0  0  0  0  0  0
    4.9000    3.3080   21.4380 N   0  0  0  0  0  0  0  0  0  0  0  0
    3.6680    3.3800   20.6950 C   0  0  0  0  0  0  0  0  0  0  0  0
    3.2780    2.4850   19.6960 N   0  0  0  0  0  0  0  0  0  0  0  0
    4.1640    1.4870   19.4370 C   0  0  0  0  0  0  0  0  0  0  0  0
    8.0940   -0.8770   21.1330 N   0  0  0  0  0  0  0  0  0  0  0  0
    8.9730   -0.7650   22.1730 C   0  0  0  0  0  0  0  0  0  0  0  0
    8.7190   -0.7380   23.6090 C   0  0  0  0  0  0  0  0  0  0  0  0
    9.7670   -0.5970   24.4420 C   0  0  0  0  0  0  0  0  0  0  0  0
   11.0460   -0.4530   23.9660 C   0  0  0  0  0  0  0  0  0  0  0  0
   11.2660   -0.4960   22.7310 C   0  0  0  0  0  0  0  0  0  0  0  0
   12.3170   -0.4250   22.3600 O   0  0  0  0  0  0  0  0  0  0  0  0
   12.3990   -1.5000   21.5150 C   0  0  1  0  0  0  0  0  0  0  0  0
   13.5260   -1.5440   20.9510 C   0  0  0  0  0  0  0  0  0  0  0  0
   13.4650   -2.8500   20.9570 C   0  0  0  0  0  0  0  0  0  0  0  0
   14.1560   -3.7230   20.1980 O   0  0  0  0  0  0  0  0  0  0  0  0
   12.5230   -2.7510   21.9650 N   0  0  0  0  0  0  0  0  0  0  0  0
   10.2900   -0.6530   21.8370 C   0  0  0  0  0  0  0  0  0  0  0  0
  1  2  2  0
  2  3  1  0
  3  4  1  0
  4  5  2  0
  5  6  1  0
  6  7  2  0
  7  8  1  0
  4  9  1  0
  8  9  2  0
  2 10  1  0
 10 11  1  0
 11 12  2  0
 12 13  1  0
 13 14  2  0
 14 15  1  0
 15 16  1  0
 17 16  1  1
 17 18  1  0
 18 19  1  0
 19 20  2  0
 17 21  1  0
 19 21  1  0
 11 22  1  0
 15 22  2  0
M  END
