BAR-COM-21d20d65-8
     RDKit          3D

 23 24  0  0  0  0  0  0  0  0999 V2000
   12.5930   -2.6880   24.5660 C   0  0  0  0  0  0  0  0  0  0  0  0
   11.8760   -2.7170   23.3050 N   0  0  0  0  0  0  0  0  0  0  0  0
   12.8670   -2.4990   22.2390 C   0  0  0  0  0  0  0  0  0  0  0  0
   13.2850   -1.1890   22.1970 C   0  0  0  0  0  0  0  0  0  0  0  0
   12.3190   -0.3550   22.6490 C   0  0  0  0  0  0  0  0  0  0  0  0
   12.5320    0.7770   23.2920 C   0  0  0  0  0  0  0  0  0  0  0  0
   11.4280    1.5720   23.7550 C   0  0  0  0  0  0  0  0  0  0  0  0
   10.1550    1.1170   23.5080 C   0  0  0  0  0  0  0  0  0  0  0  0
    9.9320   -0.0650   22.8240 C   0  0  0  0  0  0  0  0  0  0  0  0
    8.6310   -0.4280   22.6170 N   0  0  0  0  0  0  0  0  0  0  0  0
    7.9410   -0.0180   21.5300 C   0  0  0  0  0  0  0  0  0  0  0  0
    8.3430    0.9870   20.9510 O   0  0  0  0  0  0  0  0  0  0  0  0
    6.8880   -0.7210   21.1910 N   0  0  0  0  0  0  0  0  0  0  0  0
    6.3070   -0.0430   20.1510 C   0  0  0  0  0  0  0  0  0  0  0  0
    5.1210    0.6880   20.2760 C   0  0  0  0  0  0  0  0  0  0  0  0
    4.5960    1.3600   19.1860 C   0  0  0  0  0  0  0  0  0  0  0  0
    5.2070    1.3420   17.9480 C   0  0  0  0  0  0  0  0  0  0  0  0
    6.3440    0.6740   17.7000 N   0  0  0  0  0  0  0  0  0  0  0  0
    6.8850    0.0040   18.7370 C   0  0  0  0  0  0  0  0  0  0  0  0
   11.0130   -0.7760   22.4030 C   0  0  0  0  0  0  0  0  0  0  0  0
   10.4870   -2.7550   23.0150 C   0  0  0  0  0  0  0  0  0  0  0  0
    9.6180   -2.7130   24.0710 N   0  0  0  0  0  0  0  0  0  0  0  0
   10.0070   -2.8270   21.8930 O   0  0  0  0  0  0  0  0  0  0  0  0
  1  2  1  0
  2  3  1  0
  3  4  1  0
  4  5  1  0
  5  6  2  0
  6  7  1  0
  7  8  2  0
  8  9  1  0
  9 10  1  0
 10 11  1  0
 11 12  2  0
 11 13  1  0
 13 14  1  0
 14 15  2  0
 15 16  1  0
 16 17  2  0
 17 18  1  0
 14 19  1  0
 18 19  2  0
  5 20  1  0
  9 20  2  0
  2 21  1  0
 21 22  1  0
 21 23  2  0
M  END
