BAR-COM-5694a99d-2
     RDKit          3D

 23 24  0  0  0  0  0  0  0  0999 V2000
   16.1030   -5.1990   19.6360 C   0  0  0  0  0  0  0  0  0  0  0  0
   14.7800   -5.1360   20.2270 C   0  0  0  0  0  0  0  0  0  0  0  0
   14.3290   -6.1000   20.7630 O   0  0  0  0  0  0  0  0  0  0  0  0
   14.1460   -3.9640   20.0180 N   0  0  0  0  0  0  0  0  0  0  0  0
   13.1980   -3.6010   20.8570 C   0  0  0  0  0  0  0  0  0  0  0  0
   12.7730   -2.2450   21.2320 C   0  0  0  0  0  0  0  0  0  0  0  0
   11.6130   -2.0770   21.5500 O   0  0  0  0  0  0  0  0  0  0  0  0
   11.4680   -0.8870   22.2660 C   0  0  0  0  0  0  0  0  0  0  0  0
   12.6740   -0.0690   22.6120 C   0  0  0  0  0  0  0  0  0  0  0  0
   12.4840    1.2150   23.3620 C   0  0  0  0  0  0  0  0  0  0  0  0
   11.0920    1.5950   23.7440 C   0  0  0  0  0  0  0  0  0  0  0  0
   10.0030    0.8040   23.4050 C   0  0  0  0  0  0  0  0  0  0  0  0
   10.1580   -0.3770   22.6900 C   0  0  0  0  0  0  0  0  0  0  0  0
    8.9670   -1.1030   22.3410 N   0  0  0  0  0  0  0  0  0  0  0  0
    8.1370   -0.3300   21.5060 C   0  0  0  0  0  0  0  0  0  0  0  0
    8.5240    0.8590   21.1570 O   0  0  0  0  0  0  0  0  0  0  0  0
    6.9550   -0.9140   21.1220 N   0  0  0  0  0  0  0  0  0  0  0  0
    6.3750   -0.1900   20.0900 C   0  0  0  0  0  0  0  0  0  0  0  0
    5.2080    0.5180   20.3960 C   0  0  0  0  0  0  0  0  0  0  0  0
    4.6210    1.2540   19.3740 C   0  0  0  0  0  0  0  0  0  0  0  0
    5.2170    1.2910   17.9960 C   0  0  0  0  0  0  0  0  0  0  0  0
    6.3340    0.5910   17.7620 N   0  0  0  0  0  0  0  0  0  0  0  0
    6.8880   -0.1260   18.7810 C   0  0  0  0  0  0  0  0  0  0  0  0
  1  2  1  0
  2  3  2  0
  2  4  1  0
  4  5  1  0
  5  6  1  0
  6  7  1  0
  7  8  1  0
  8  9  2  0
  9 10  1  0
 10 11  2  0
 11 12  1  0
  8 13  1  0
 12 13  2  0
 13 14  1  0
 14 15  1  0
 15 16  2  0
 15 17  1  0
 17 18  1  0
 18 19  2  0
 19 20  1  0
 20 21  2  0
 21 22  1  0
 18 23  1  0
 22 23  2  0
M  END
