BAR-COM-4e090d3a-40
     RDKit          3D

 23 25  0  0  0  0  0  0  0  0999 V2000
    6.0790   -2.0590   21.0350 O   0  0  0  0  0  0  0  0  0  0  0  0
    6.5930   -0.9650   20.8130 C   0  0  0  0  0  0  0  0  0  0  0  0
    7.7100   -0.4140   21.5080 N   0  0  0  0  0  0  0  0  0  0  0  0
    8.4440   -1.3710   22.2990 C   0  0  0  0  0  0  0  0  0  0  0  0
    9.5800   -0.6740   22.5340 C   0  0  0  0  0  0  0  0  0  0  0  0
    9.4730    0.6530   22.9150 C   0  0  0  0  0  0  0  0  0  0  0  0
   10.6450    1.2590   23.0920 N   0  0  0  0  0  0  0  0  0  0  0  0
   11.4070    0.2390   22.8170 N   0  0  0  0  0  0  0  0  0  0  0  0
   12.7260    0.4350   22.8580 C   0  0  0  0  0  0  0  0  0  0  0  0
   13.6420   -0.5180   23.5050 C   0  0  0  0  0  0  0  0  0  0  0  0
   12.4830   -1.0010   23.8640 C   0  0  0  0  0  0  0  0  0  0  0  0
   12.2220   -0.8890   22.5390 C   0  0  0  0  0  0  0  0  0  0  0  0
   10.9200   -1.0480   22.4540 C   0  0  0  0  0  0  0  0  0  0  0  0
    6.0720   -0.0620   19.7810 C   0  0  0  0  0  0  0  0  0  0  0  0
    4.9140    0.6730   20.0360 C   0  0  0  0  0  0  0  0  0  0  0  0
    4.3930    1.5500   19.0990 C   0  0  0  0  0  0  0  0  0  0  0  0
    5.0120    1.7220   17.8750 C   0  0  0  0  0  0  0  0  0  0  0  0
    6.1210    1.0790   17.5040 N   0  0  0  0  0  0  0  0  0  0  0  0
    6.6420    0.2260   18.3830 C   0  0  0  0  0  0  0  0  0  0  0  0
    7.8100   -0.4340   17.9410 O   0  0  0  0  0  0  0  0  0  0  0  0
    7.7110   -0.5880   16.5080 C   0  0  0  0  0  0  0  0  0  0  0  0
    7.4490   -1.9120   16.2500 C   0  0  0  0  0  0  0  0  0  0  0  0
    6.8770   -2.1130   15.1880 O   0  0  0  0  0  0  0  0  0  0  0  0
  1  2  2  0
  2  3  1  0
  3  4  1  0
  4  5  1  0
  5  6  1  0
  6  7  2  0
  7  8  1  0
  8  9  1  0
  9 10  2  0
 10 11  1  0
 11 12  2  0
  5 13  2  0
  8 13  1  0
 12 13  1  0
  2 14  1  0
 14 15  2  0
 15 16  1  0
 16 17  2  0
 17 18  1  0
 14 19  1  0
 18 19  2  0
 19 20  1  0
 20 21  1  0
 21 22  1  0
 22 23  1  0
M  END
