BAR-COM-21d20d65-9
     RDKit          3D

 23 24  0  0  0  0  0  0  0  0999 V2000
   14.7580   -5.1960   20.8250 N   0  0  0  0  0  0  0  0  0  0  0  0
   14.0500   -4.1840   21.2210 C   0  0  0  0  0  0  0  0  0  0  0  0
   13.8800   -3.5590   22.5170 O   0  0  0  0  0  0  0  0  0  0  0  0
   13.4190   -3.4470   20.3090 C   0  0  1  0  0  0  0  0  0  0  0  0
   12.6980   -4.2300   19.4840 F   0  0  0  0  0  0  0  0  0  0  0  0
   12.5390   -2.4610   21.0470 C   0  0  0  0  0  0  0  0  0  0  0  0
   13.1870   -1.5350   21.8550 C   0  0  0  0  0  0  0  0  0  0  0  0
   12.2930   -0.7190   22.4740 C   0  0  0  0  0  0  0  0  0  0  0  0
   12.6020    0.3950   23.2290 C   0  0  0  0  0  0  0  0  0  0  0  0
   11.6350    1.1820   23.8260 C   0  0  0  0  0  0  0  0  0  0  0  0
   10.3060    0.8260   23.6530 C   0  0  0  0  0  0  0  0  0  0  0  0
    9.9060   -0.3650   22.8400 C   0  0  0  0  0  0  0  0  0  0  0  0
    8.6380   -0.7360   22.6270 N   0  0  0  0  0  0  0  0  0  0  0  0
    8.1110   -0.1030   21.5700 C   0  0  0  0  0  0  0  0  0  0  0  0
    8.5450    0.9550   21.1280 O   0  0  0  0  0  0  0  0  0  0  0  0
    7.0310   -0.7640   21.0510 N   0  0  0  0  0  0  0  0  0  0  0  0
    6.3720   -0.0650   20.1080 C   0  0  0  0  0  0  0  0  0  0  0  0
    5.1930    0.6630   20.2790 C   0  0  0  0  0  0  0  0  0  0  0  0
    4.6250    1.3480   19.2160 C   0  0  0  0  0  0  0  0  0  0  0  0
    5.2010    1.3350   17.9620 C   0  0  0  0  0  0  0  0  0  0  0  0
    6.3410    0.6400   17.7510 N   0  0  0  0  0  0  0  0  0  0  0  0
    6.8820   -0.0300   18.8080 C   0  0  0  0  0  0  0  0  0  0  0  0
   10.9520   -1.0690   22.2980 C   0  0  0  0  0  0  0  0  0  0  0  0
  1  2  1  0
  2  3  2  0
  2  4  1  0
  4  5  1  6
  4  6  1  0
  6  7  1  0
  7  8  1  0
  8  9  2  0
  9 10  1  0
 10 11  2  0
 11 12  1  0
 12 13  1  0
 13 14  1  0
 14 15  2  0
 14 16  1  0
 16 17  1  0
 17 18  2  0
 18 19  1  0
 19 20  2  0
 20 21  1  0
 17 22  1  0
 21 22  2  0
  8 23  1  0
 12 23  2  0
M  END
