BAR-COM-4e090d3a-11
     RDKit          3D

 25 27  0  0  0  0  0  0  0  0999 V2000
    8.4790    0.7370   21.0920 O   0  0  0  0  0  0  0  0  0  0  0  0
    8.1070   -0.3760   21.4330 C   0  0  0  0  0  0  0  0  0  0  0  0
    7.0960   -1.0390   20.7650 C   0  0  0  0  0  0  0  0  0  0  0  0
    6.8020   -2.3450   21.2590 C   0  0  0  0  0  0  0  0  0  0  0  0
    5.4450   -2.9030   21.0580 C   0  0  0  0  0  0  0  0  0  0  0  0
    5.0830   -4.1920   21.5100 N   0  0  0  0  0  0  0  0  0  0  0  0
    6.1470   -4.9060   22.1620 C   0  0  0  0  0  0  0  0  0  0  0  0
    7.3910   -4.4510   22.3640 N   0  0  0  0  0  0  0  0  0  0  0  0
    7.6890   -3.1970   21.9260 C   0  0  0  0  0  0  0  0  0  0  0  0
    8.6180   -1.0550   22.4850 N   0  0  0  0  0  0  0  0  0  0  0  0
    9.7020   -0.6880   23.1920 C   0  0  0  0  0  0  0  0  0  0  0  0
    9.6200   -0.9190   24.5330 C   0  0  0  0  0  0  0  0  0  0  0  0
   10.7230   -0.5480   25.2510 C   0  0  0  0  0  0  0  0  0  0  0  0
   11.9310    0.0720   24.5700 C   0  0  0  0  0  0  0  0  0  0  0  0
   11.9040    0.2770   23.2630 C   0  0  0  0  0  0  0  0  0  0  0  0
   12.9570    0.8770   22.7130 C   0  0  0  0  0  0  0  0  0  0  0  0
   12.7890    2.2660   22.8770 C   0  0  0  0  0  0  0  0  0  0  0  0
   11.8220    3.0980   22.3020 C   0  0  0  0  0  0  0  0  0  0  0  0
   11.3790    4.1430   23.1090 C   0  0  0  0  0  0  0  0  0  0  0  0
   10.0150    4.2570   23.4170 C   0  0  0  0  0  0  0  0  0  0  0  0
    9.5630    5.3070   24.2230 C   0  0  0  0  0  0  0  0  0  0  0  0
   10.4580    6.2660   24.7400 C   0  0  0  0  0  0  0  0  0  0  0  0
   11.7980    6.1370   24.4250 C   0  0  0  0  0  0  0  0  0  0  0  0
   12.2710    5.1000   23.6250 C   0  0  0  0  0  0  0  0  0  0  0  0
   10.7690   -0.1200   22.5540 C   0  0  0  0  0  0  0  0  0  0  0  0
  1  2  2  0
  2  3  1  0
  3  4  1  0
  4  5  2  0
  5  6  1  0
  6  7  2  0
  7  8  1  0
  4  9  1  0
  8  9  2  0
  2 10  1  0
 10 11  1  0
 11 12  2  0
 12 13  1  0
 13 14  2  0
 14 15  1  0
 15 16  1  0
 16 17  1  0
 17 18  1  0
 18 19  1  0
 19 20  2  0
 20 21  1  0
 21 22  2  0
 22 23  1  0
 19 24  1  0
 23 24  2  0
 11 25  1  0
 15 25  2  0
M  END
