BAR-COM-21d20d65-3
     RDKit          3D

 24 26  0  0  0  0  0  0  0  0999 V2000
    8.3460    0.8440   20.9720 O   0  0  0  0  0  0  0  0  0  0  0  0
    7.9460   -0.1310   21.5960 C   0  0  0  0  0  0  0  0  0  0  0  0
    6.8360   -0.8120   21.1520 N   0  0  0  0  0  0  0  0  0  0  0  0
    6.3100   -0.0830   20.0250 C   0  0  0  0  0  0  0  0  0  0  0  0
    5.0360    0.7130   20.2760 C   0  0  0  0  0  0  0  0  0  0  0  0
    4.5890    1.4070   19.1460 C   0  0  0  0  0  0  0  0  0  0  0  0
    5.1870    1.4280   17.8750 C   0  0  0  0  0  0  0  0  0  0  0  0
    6.3410    0.6770   17.7180 N   0  0  0  0  0  0  0  0  0  0  0  0
    6.9260   -0.0670   18.7020 C   0  0  0  0  0  0  0  0  0  0  0  0
    8.6000   -0.4800   22.6980 N   0  0  0  0  0  0  0  0  0  0  0  0
    9.9220   -0.0630   23.0310 C   0  0  0  0  0  0  0  0  0  0  0  0
   10.4670    1.1950   22.7640 C   0  0  0  0  0  0  0  0  0  0  0  0
   11.8850    1.5010   23.1590 C   0  0  0  0  0  0  0  0  0  0  0  0
   12.5340    0.4670   23.7710 C   0  0  0  0  0  0  0  0  0  0  0  0
   11.9960   -0.7590   24.0420 C   0  0  0  0  0  0  0  0  0  0  0  0
   12.6930   -1.7820   24.6770 C   0  0  0  0  0  0  0  0  0  0  0  0
   11.9040   -2.8800   24.3730 C   0  0  0  0  0  0  0  0  0  0  0  0
   11.1570   -2.5540   23.2530 C   0  0  0  0  0  0  0  0  0  0  0  0
   12.0960   -1.8850   22.5450 C   0  0  0  0  0  0  0  0  0  0  0  0
   12.5970   -2.2430   21.3080 C   0  0  0  0  0  0  0  0  0  0  0  0
   13.5810   -1.2710   20.9860 C   0  0  0  0  0  0  0  0  0  0  0  0
   13.5730   -0.3580   22.1010 C   0  0  0  0  0  0  0  0  0  0  0  0
   12.6880   -0.7570   22.9940 N   0  0  0  0  0  0  0  0  0  0  0  0
   10.6860   -1.0110   23.6640 C   0  0  0  0  0  0  0  0  0  0  0  0
  1  2  2  0
  2  3  1  0
  3  4  1  0
  4  5  2  0
  5  6  1  0
  6  7  2  0
  7  8  1  0
  4  9  1  0
  8  9  2  0
  2 10  1  0
 10 11  1  0
 11 12  2  0
 12 13  1  0
 13 14  2  0
 14 15  1  0
 15 16  1  0
 16 17  1  0
 17 18  1  0
 18 19  1  0
 19 20  2  0
 20 21  1  0
 21 22  2  0
 19 23  1  0
 22 23  1  0
 11 24  1  0
 15 24  2  0
M  END
