BAR-COM-21d20d65-4
     RDKit          3D

 23 25  0  0  0  0  0  0  0  0999 V2000
    8.6870    0.5730   21.3260 O   0  0  0  0  0  0  0  0  0  0  0  0
    8.2260   -0.5590   21.4520 C   0  0  0  0  0  0  0  0  0  0  0  0
    6.9340   -0.7960   21.0300 N   0  0  0  0  0  0  0  0  0  0  0  0
    6.2780   -0.0510   20.0430 C   0  0  0  0  0  0  0  0  0  0  0  0
    5.0900    0.6670   20.2160 C   0  0  0  0  0  0  0  0  0  0  0  0
    4.5460    1.3810   19.1430 C   0  0  0  0  0  0  0  0  0  0  0  0
    5.2080    1.3530   17.9300 C   0  0  0  0  0  0  0  0  0  0  0  0
    6.3480    0.6660   17.7390 N   0  0  0  0  0  0  0  0  0  0  0  0
    6.8490   -0.0110   18.7850 C   0  0  0  0  0  0  0  0  0  0  0  0
    8.9610   -1.5770   22.0070 N   0  0  0  0  0  0  0  0  0  0  0  0
   10.3280   -1.5120   22.3690 C   0  0  0  0  0  0  0  0  0  0  0  0
   10.9880   -0.4970   21.9060 C   0  0  0  0  0  0  0  0  0  0  0  0
   12.4030   -0.2440   22.1570 C   0  0  0  0  0  0  0  0  0  0  0  0
   13.1210   -1.0090   22.8930 C   0  0  0  0  0  0  0  0  0  0  0  0
   12.4490   -2.0010   23.3540 C   0  0  0  0  0  0  0  0  0  0  0  0
   12.9940   -2.9210   24.1880 C   0  0  0  0  0  0  0  0  0  0  0  0
   11.6160   -3.2910   24.6930 C   0  0  0  0  0  0  0  0  0  0  0  0
   10.2770   -2.8070   23.9710 C   0  0  0  0  0  0  0  0  0  0  0  0
    9.0830   -3.7260   23.6960 C   0  0  0  0  0  0  0  0  0  0  0  0
    7.8650   -3.2400   24.2620 O   0  0  0  0  0  0  0  0  0  0  0  0
   10.3530   -1.5940   23.0990 C   0  0  0  0  0  0  0  0  0  0  0  0
    9.8050   -1.4700   24.4860 C   0  0  0  0  0  0  0  0  0  0  0  0
   11.1010   -2.3030   23.1240 C   0  0  0  0  0  0  0  0  0  0  0  0
  1  2  2  0
  2  3  1  0
  3  4  1  0
  4  5  2  0
  5  6  1  0
  6  7  2  0
  7  8  1  0
  4  9  1  0
  8  9  2  0
  2 10  1  0
 10 11  1  0
 11 12  2  0
 12 13  1  0
 13 14  2  0
 14 15  1  0
 15 16  1  0
 16 17  1  0
 18 17  1  0
 18 19  1  0
 19 20  1  0
 18 21  1  0
 18 22  1  0
 21 22  1  0
 11 23  1  0
 15 23  2  0
M  END
