BAR-COM-4e090d3a-27
     RDKit          3D

 29 31  0  0  0  0  0  0  0  0999 V2000
    7.6550    0.4880   24.5990 C   0  0  0  0  0  0  0  0  0  0  0  0
    7.9650   -0.8680   24.5320 C   0  0  0  0  0  0  0  0  0  0  0  0
    9.0880   -1.3450   23.8090 C   0  0  1  0  0  0  0  0  0  0  0  0
    8.6610   -1.8570   22.5940 N   0  0  0  0  0  0  0  0  0  0  0  0
    7.3110   -2.1650   22.1630 C   0  0  0  0  0  0  0  0  0  0  0  0
    6.6070   -3.3730   22.4640 O   0  0  0  0  0  0  0  0  0  0  0  0
    6.8020   -1.0780   21.4010 N   0  0  0  0  0  0  0  0  0  0  0  0
    5.6480   -1.1140   20.6990 C   0  0  0  0  0  0  0  0  0  0  0  0
    5.2050    0.0560   20.0770 C   0  0  0  0  0  0  0  0  0  0  0  0
    4.5270    1.0010   20.8270 C   0  0  0  0  0  0  0  0  0  0  0  0
    4.0410    2.1930   20.3000 N   0  0  0  0  0  0  0  0  0  0  0  0
    4.2300    2.5130   18.8910 C   0  0  0  0  0  0  0  0  0  0  0  0
    4.9190    1.5690   18.1250 C   0  0  0  0  0  0  0  0  0  0  0  0
    5.3970    0.3420   18.7500 N   0  0  0  0  0  0  0  0  0  0  0  0
   10.3240   -0.4830   23.5070 C   0  0  0  0  0  0  0  0  0  0  0  0
   10.3270    0.7800   24.0600 C   0  0  0  0  0  0  0  0  0  0  0  0
   11.4270    1.6160   23.8260 C   0  0  0  0  0  0  0  0  0  0  0  0
   12.5250    1.2310   23.0690 C   0  0  0  0  0  0  0  0  0  0  0  0
   12.5530   -0.0200   22.5040 C   0  0  0  0  0  0  0  0  0  0  0  0
   11.5030   -0.9070   22.6750 C   0  0  0  0  0  0  0  0  0  0  0  0
   11.5830   -2.1080   22.0900 O   0  0  0  0  0  0  0  0  0  0  0  0
   12.7850   -2.3800   21.4350 C   0  0  0  0  0  0  0  0  0  0  0  0
   13.6620   -3.2140   22.1040 C   0  0  0  0  0  0  0  0  0  0  0  0
   13.8720   -3.1640   23.4580 O   0  0  0  0  0  0  0  0  0  0  0  0
   14.4420   -4.2020   21.0820 N   0  0  0  0  0  0  0  0  0  0  0  0
   15.3340   -5.3370   21.3450 C   0  0  0  0  0  0  0  0  0  0  0  0
   15.8910   -5.6410   20.2870 C   0  0  0  0  0  0  0  0  0  0  0  0
   15.5060   -4.8950   19.5030 C   0  0  0  0  0  0  0  0  0  0  0  0
   14.4600   -4.0650   19.7790 C   0  0  0  0  0  0  0  0  0  0  0  0
  1  2  1  0
  3  2  1  6
  3  4  1  0
  4  5  1  0
  5  6  2  0
  5  7  1  0
  7  8  1  0
  8  9  1  0
  9 10  2  0
 10 11  1  0
 11 12  2  0
 12 13  1  0
  9 14  1  0
 13 14  2  0
  3 15  1  0
 15 16  2  0
 16 17  1  0
 17 18  2  0
 18 19  1  0
 15 20  1  0
 19 20  2  0
 20 21  1  0
 21 22  1  0
 22 23  1  0
 23 24  2  0
 23 25  1  0
 25 26  1  0
 26 27  1  0
 27 28  1  0
 25 29  1  0
 28 29  1  0
M  END
