BAR-COM-4e090d3a-31
     RDKit          3D

 28 30  0  0  0  0  0  0  0  0999 V2000
    8.1650    2.6630   21.5390 C   0  0  0  0  0  0  0  0  0  0  0  0
    7.8530    1.5540   22.5750 C   0  0  0  0  0  0  0  0  0  0  0  0
    8.3850    0.3140   22.2250 C   0  0  2  0  0  0  0  0  0  0  0  0
    7.7170   -0.6900   23.0530 N   0  0  0  0  0  0  0  0  0  0  0  0
    6.6730   -1.5480   22.6280 C   0  0  0  0  0  0  0  0  0  0  0  0
    6.1310   -1.3800   21.5300 O   0  0  0  0  0  0  0  0  0  0  0  0
    6.2350   -2.5900   23.4410 C   0  0  2  0  0  0  0  0  0  0  0  0
    6.9650   -2.4350   24.7780 C   0  0  0  0  0  0  0  0  0  0  0  0
    6.1780   -3.8600   22.9460 N   0  0  0  0  0  0  0  0  0  0  0  0
    6.9500   -4.9000   23.5650 C   0  0  0  0  0  0  0  0  0  0  0  0
    6.6780   -6.0810   22.8400 N   0  0  0  0  0  0  0  0  0  0  0  0
    5.8140   -5.6770   21.8920 C   0  0  0  0  0  0  0  0  0  0  0  0
    5.4570   -4.3830   21.8750 N   0  0  0  0  0  0  0  0  0  0  0  0
    9.9460    0.2600   22.4130 C   0  0  0  0  0  0  0  0  0  0  0  0
   10.5310    1.3920   22.9640 C   0  0  0  0  0  0  0  0  0  0  0  0
   11.9130    1.5090   23.1850 C   0  0  0  0  0  0  0  0  0  0  0  0
   12.7960    0.4920   22.8800 C   0  0  0  0  0  0  0  0  0  0  0  0
   12.2410   -0.7670   22.2790 C   0  0  0  0  0  0  0  0  0  0  0  0
   10.7150   -0.8530   22.0370 C   0  0  0  0  0  0  0  0  0  0  0  0
   10.2390   -1.8560   21.5300 O   0  0  0  0  0  0  0  0  0  0  0  0
    9.3600   -2.5570   22.3610 C   0  0  0  0  0  0  0  0  0  0  0  0
   10.0590   -3.1650   23.5410 C   0  0  0  0  0  0  0  0  0  0  0  0
    9.3140   -3.9570   24.3380 O   0  0  0  0  0  0  0  0  0  0  0  0
   11.3820   -2.8680   23.6670 N   0  0  0  0  0  0  0  0  0  0  0  0
   12.2620   -2.2410   22.7030 C   0  0  0  0  0  0  0  0  0  0  0  0
   13.4280   -2.1450   23.4140 C   0  0  0  0  0  0  0  0  0  0  0  0
   13.2500   -2.3830   24.7450 C   0  0  0  0  0  0  0  0  0  0  0  0
   11.9550   -2.7740   24.9570 C   0  0  0  0  0  0  0  0  0  0  0  0
  1  2  1  0
  3  2  1  1
  3  4  1  0
  4  5  1  0
  5  6  2  0
  5  7  1  0
  7  8  1  1
  7  9  1  0
  9 10  1  0
 10 11  2  0
 11 12  1  0
  9 13  1  0
 12 13  2  0
  3 14  1  0
 14 15  2  0
 15 16  1  0
 16 17  2  0
 17 18  1  0
 14 19  1  0
 18 19  2  0
 19 20  1  0
 20 21  1  0
 21 22  1  0
 22 23  2  0
 22 24  1  0
 24 25  1  0
 25 26  1  0
 26 27  1  0
 24 28  1  0
 27 28  1  0
M  END
