BAR-COM-4e090d3a-45
     RDKit          3D

 24 26  0  0  0  0  0  0  0  0999 V2000
    9.0060    1.7610   21.1800 O   0  0  0  0  0  0  0  0  0  0  0  0
    8.0320    1.0660   21.4330 C   0  0  0  0  0  0  0  0  0  0  0  0
    6.6920    1.6930   21.7210 C   0  0  0  0  0  0  0  0  0  0  0  0
    6.6880    3.1250   22.1840 C   0  0  0  0  0  0  0  0  0  0  0  0
    6.4160    3.2350   23.5330 N   0  0  0  0  0  0  0  0  0  0  0  0
    7.1460    2.5890   24.5760 C   0  0  0  0  0  0  0  0  0  0  0  0
    6.5080    3.0000   25.7010 C   0  0  0  0  0  0  0  0  0  0  0  0
    5.4360    3.8560   25.4490 N   0  0  0  0  0  0  0  0  0  0  0  0
    5.4020    3.9850   24.0710 N   0  0  0  0  0  0  0  0  0  0  0  0
    8.1360   -0.3330   21.4570 N   0  0  0  0  0  0  0  0  0  0  0  0
    8.9190   -1.2410   22.3220 C   0  0  2  0  0  0  0  0  0  0  0  0
    8.1570   -1.5740   23.6150 C   0  0  0  0  0  0  0  0  0  0  0  0
    7.6570   -2.9730   23.5710 N   0  0  0  0  0  0  0  0  0  0  0  0
    6.2140   -3.1200   23.9240 C   0  0  0  0  0  0  0  0  0  0  0  0
    5.9330   -4.2530   24.7070 C   0  0  0  0  0  0  0  0  0  0  0  0
    6.6700   -4.0910   25.9440 O   0  0  0  0  0  0  0  0  0  0  0  0
    8.0550   -3.8970   25.6710 C   0  0  0  0  0  0  0  0  0  0  0  0
    8.5340   -3.8740   24.3610 C   0  0  0  0  0  0  0  0  0  0  0  0
   10.2890   -0.6720   22.6370 C   0  0  0  0  0  0  0  0  0  0  0  0
   10.4010    0.4770   23.4210 C   0  0  0  0  0  0  0  0  0  0  0  0
   11.6300    1.0350   23.7130 C   0  0  0  0  0  0  0  0  0  0  0  0
   12.8790    0.3940   23.1780 C   0  0  0  0  0  0  0  0  0  0  0  0
   12.6960   -0.7530   22.4160 C   0  0  0  0  0  0  0  0  0  0  0  0
   11.4470   -1.3050   22.1300 C   0  0  0  0  0  0  0  0  0  0  0  0
  1  2  2  0
  2  3  1  0
  3  4  1  0
  4  5  1  0
  5  6  1  0
  6  7  2  0
  7  8  1  0
  5  9  1  0
  8  9  2  0
  2 10  1  0
 10 11  1  0
 11 12  1  1
 12 13  1  0
 13 14  1  0
 14 15  1  0
 15 16  1  0
 16 17  1  0
 13 18  1  0
 17 18  1  0
 11 19  1  0
 19 20  2  0
 20 21  1  0
 21 22  2  0
 22 23  1  0
 19 24  1  0
 23 24  2  0
M  END
