BAR-COM-4e090d3a-48
     RDKit          3D

 26 28  0  0  0  0  0  0  0  0999 V2000
   14.2290   -2.6020   26.1650 C   0  0  0  0  0  0  0  0  0  0  0  0
   13.7770   -2.1710   24.9080 C   0  0  0  0  0  0  0  0  0  0  0  0
   13.7980   -3.1110   23.9620 C   0  0  0  0  0  0  0  0  0  0  0  0
   13.4620   -2.8520   22.6180 C   0  0  0  0  0  0  0  0  0  0  0  0
   13.1260   -1.6460   22.3720 C   0  0  0  0  0  0  0  0  0  0  0  0
   12.8520   -1.3330   21.4090 O   0  0  0  0  0  0  0  0  0  0  0  0
   11.9420   -0.5130   22.0680 C   0  0  0  0  0  0  0  0  0  0  0  0
   12.3670    0.8560   22.5640 C   0  0  0  0  0  0  0  0  0  0  0  0
   11.2460    1.6260   23.1360 C   0  0  0  0  0  0  0  0  0  0  0  0
    9.9470    1.0850   23.2220 C   0  0  0  0  0  0  0  0  0  0  0  0
    9.6600   -0.1950   22.7610 C   0  0  0  0  0  0  0  0  0  0  0  0
    8.4390   -0.6880   22.8240 N   0  0  0  0  0  0  0  0  0  0  0  0
    7.7690   -0.1860   21.7940 C   0  0  0  0  0  0  0  0  0  0  0  0
    8.1790    0.7170   21.0640 O   0  0  0  0  0  0  0  0  0  0  0  0
    6.5510   -0.7000   21.5570 N   0  0  0  0  0  0  0  0  0  0  0  0
    5.4720   -0.1240   20.7760 C   0  0  0  0  0  0  0  0  0  0  0  0
    6.0750    0.0980   19.5670 C   0  0  0  0  0  0  0  0  0  0  0  0
    7.2050   -0.5290   19.1970 C   0  0  0  0  0  0  0  0  0  0  0  0
    7.5510   -0.0950   17.9640 N   0  0  0  0  0  0  0  0  0  0  0  0
    6.6560    0.8000   17.5410 N   0  0  0  0  0  0  0  0  0  0  0  0
    5.7550    0.9180   18.5110 N   0  0  0  0  0  0  0  0  0  0  0  0
    4.7320    1.7620   18.3360 C   0  0  0  0  0  0  0  0  0  0  0  0
   10.5850   -1.0460   22.1780 C   0  0  0  0  0  0  0  0  0  0  0  0
   13.0620   -0.6490   23.2750 C   0  0  0  0  0  0  0  0  0  0  0  0
   12.7230    0.6690   23.0460 C   0  0  0  0  0  0  0  0  0  0  0  0
   13.4040   -0.9630   24.6250 C   0  0  0  0  0  0  0  0  0  0  0  0
  1  2  1  0
  2  3  2  0
  3  4  1  0
  4  5  2  0
  5  6  1  0
  6  7  1  0
  7  8  2  0
  8  9  1  0
  9 10  2  0
 10 11  1  0
 11 12  1  0
 12 13  1  0
 13 14  2  0
 13 15  1  0
 15 16  1  0
 16 17  1  0
 17 18  2  0
 18 19  1  0
 19 20  2  0
 17 21  1  0
 20 21  1  0
 21 22  1  0
  7 23  1  0
 11 23  2  0
  5 24  1  0
 24 25  1  0
  2 26  1  0
 24 26  2  0
M  END
