BAR-COM-21d20d65-6
     RDKit          3D

 24 25  0  0  0  0  0  0  0  0999 V2000
   12.6430   -2.5800   20.8540 C   0  0  0  0  0  0  0  0  0  0  0  0
   11.4850   -2.3460   21.8020 C   0  0  0  0  0  0  0  0  0  0  0  0
   11.7580   -1.2150   22.4660 C   0  0  0  0  0  0  0  0  0  0  0  0
   13.0880   -0.9510   22.5940 C   0  0  2  0  0  0  0  0  0  0  0  0
   13.3160    0.3670   22.9040 C   0  0  0  0  0  0  0  0  0  0  0  0
   13.7690   -1.1470   21.6060 O   0  0  0  0  0  0  0  0  0  0  0  0
   13.5060   -2.0260   23.6650 C   0  0  0  0  0  0  0  0  0  0  0  0
   12.4790   -2.2220   24.5100 C   0  0  0  0  0  0  0  0  0  0  0  0
   11.6460   -1.2090   24.1680 C   0  0  0  0  0  0  0  0  0  0  0  0
   12.0460    0.0980   24.3510 C   0  0  0  0  0  0  0  0  0  0  0  0
   11.2900    1.1850   24.0090 C   0  0  0  0  0  0  0  0  0  0  0  0
   10.0670    1.0080   23.4600 C   0  0  0  0  0  0  0  0  0  0  0  0
    9.5990   -0.4030   23.2470 C   0  0  0  0  0  0  0  0  0  0  0  0
    8.3670   -0.5600   22.6780 N   0  0  0  0  0  0  0  0  0  0  0  0
    8.0320    0.1210   21.4680 C   0  0  0  0  0  0  0  0  0  0  0  0
    8.6010    1.1470   21.0450 O   0  0  0  0  0  0  0  0  0  0  0  0
    7.0070   -0.5140   20.8950 N   0  0  0  0  0  0  0  0  0  0  0  0
    6.2890    0.1580   19.9260 C   0  0  0  0  0  0  0  0  0  0  0  0
    4.9790    0.8790   20.1600 C   0  0  0  0  0  0  0  0  0  0  0  0
    4.3850    1.5350   19.0870 C   0  0  0  0  0  0  0  0  0  0  0  0
    5.1440    1.4370   17.8140 C   0  0  0  0  0  0  0  0  0  0  0  0
    6.3130    0.7840   17.6030 N   0  0  0  0  0  0  0  0  0  0  0  0
    6.8410    0.1680   18.6620 C   0  0  0  0  0  0  0  0  0  0  0  0
   10.4060   -1.4540   23.6090 C   0  0  0  0  0  0  0  0  0  0  0  0
  1  2  1  0
  2  3  1  0
  3  4  1  0
  4  5  1  1
  4  6  1  0
  4  7  1  0
  7  8  1  0
  8  9  1  0
  9 10  2  0
 10 11  1  0
 11 12  2  0
 12 13  1  0
 13 14  1  0
 14 15  1  0
 15 16  2  0
 15 17  1  0
 17 18  1  0
 18 19  2  0
 19 20  1  0
 20 21  2  0
 21 22  1  0
 18 23  1  0
 22 23  2  0
  9 24  1  0
 13 24  2  0
M  END
