BAR-COM-4e090d3a-67
     RDKit          3D

 25 27  0  0  0  0  0  0  0  0999 V2000
    6.4900   -2.3380   23.2260 O   0  0  0  0  0  0  0  0  0  0  0  0
    7.5300   -2.9450   23.0720 C   0  0  0  0  0  0  0  0  0  0  0  0
    7.6330   -4.2820   23.4510 C   0  0  0  0  0  0  0  0  0  0  0  0
    6.4490   -4.7740   24.0580 C   0  0  0  0  0  0  0  0  0  0  0  0
    6.3150   -4.3730   25.5020 C   0  0  0  0  0  0  0  0  0  0  0  0
    6.7630   -5.2690   26.6470 C   0  0  0  0  0  0  0  0  0  0  0  0
    6.6790   -5.0070   27.9720 N   0  0  0  0  0  0  0  0  0  0  0  0
    6.1380   -3.8130   28.2440 C   0  0  0  0  0  0  0  0  0  0  0  0
    5.6860   -2.8950   27.2770 N   0  0  0  0  0  0  0  0  0  0  0  0
    5.7760   -3.1770   25.9300 C   0  0  0  0  0  0  0  0  0  0  0  0
    8.6740   -2.3840   22.5270 N   0  0  0  0  0  0  0  0  0  0  0  0
    8.8530   -0.9270   22.4820 C   0  0  2  0  0  0  0  0  0  0  0  0
    8.3490   -0.3880   21.3060 C   0  0  0  0  0  0  0  0  0  0  0  0
    6.9100   -0.4410   21.1560 N   0  0  0  0  0  0  0  0  0  0  0  0
    6.3390   -0.3590   19.9080 C   0  0  0  0  0  0  0  0  0  0  0  0
    6.8670   -1.0210   18.7590 O   0  0  0  0  0  0  0  0  0  0  0  0
    5.2030    0.4080   19.7590 C   0  0  0  0  0  0  0  0  0  0  0  0
    5.3000    1.6840   19.5120 C   0  0  0  0  0  0  0  0  0  0  0  0
    4.9730    1.2410   18.3430 C   0  0  0  0  0  0  0  0  0  0  0  0
   10.3210   -0.5470   22.6480 C   0  0  0  0  0  0  0  0  0  0  0  0
   10.6690    0.7570   23.0170 C   0  0  0  0  0  0  0  0  0  0  0  0
   12.0060    1.1410   23.1640 C   0  0  0  0  0  0  0  0  0  0  0  0
   12.9970    0.2140   22.9440 C   0  0  0  0  0  0  0  0  0  0  0  0
   12.6700   -1.0920   22.5770 C   0  0  0  0  0  0  0  0  0  0  0  0
   11.3450   -1.4900   22.4230 C   0  0  0  0  0  0  0  0  0  0  0  0
  1  2  2  0
  2  3  1  0
  3  4  1  0
  4  5  1  0
  5  6  2  0
  6  7  1  0
  7  8  2  0
  8  9  1  0
  5 10  1  0
  9 10  2  0
  2 11  1  0
 11 12  1  0
 12 13  1  6
 13 14  1  0
 14 15  1  0
 15 16  2  0
 15 17  1  0
 17 18  1  0
 17 19  1  0
 18 19  1  0
 12 20  1  0
 20 21  2  0
 21 22  1  0
 22 23  2  0
 23 24  1  0
 20 25  1  0
 24 25  2  0
M  END
