BAR-COM-5694a99d-4
     RDKit          3D

 23 24  0  0  0  0  0  0  0  0999 V2000
   10.6300   -2.5070   24.1130 C   0  0  0  0  0  0  0  0  0  0  0  0
    9.0860   -2.6850   23.9590 C   0  0  0  0  0  0  0  0  0  0  0  0
    8.3270   -1.6680   24.5530 C   0  0  0  0  0  0  0  0  0  0  0  0
    8.6420   -2.7840   22.5070 C   0  0  2  0  0  0  0  0  0  0  0  0
    8.1100   -3.8990   22.4160 O   0  0  0  0  0  0  0  0  0  0  0  0
    9.6180   -2.4420   21.5880 C   0  0  0  0  0  0  0  0  0  0  0  0
   11.0640   -2.3540   22.0500 C   0  0  0  0  0  0  0  0  0  0  0  0
   11.3970   -0.9820   22.5270 C   0  0  0  0  0  0  0  0  0  0  0  0
   12.6970   -0.5720   22.6890 C   0  0  0  0  0  0  0  0  0  0  0  0
   12.9680    0.6830   23.1160 C   0  0  0  0  0  0  0  0  0  0  0  0
   12.0170    1.6210   23.4310 C   0  0  0  0  0  0  0  0  0  0  0  0
   10.7020    1.2320   23.2800 C   0  0  0  0  0  0  0  0  0  0  0  0
   10.3740   -0.0490   22.8230 C   0  0  0  0  0  0  0  0  0  0  0  0
    9.0340   -0.3840   22.6420 N   0  0  0  0  0  0  0  0  0  0  0  0
    8.3380    0.2250   21.5970 C   0  0  0  0  0  0  0  0  0  0  0  0
    8.6910    1.4520   21.0720 O   0  0  0  0  0  0  0  0  0  0  0  0
    7.2490   -0.3920   21.0490 N   0  0  0  0  0  0  0  0  0  0  0  0
    6.4330    0.1820   20.0900 C   0  0  0  0  0  0  0  0  0  0  0  0
    5.2270    0.8060   20.3580 C   0  0  0  0  0  0  0  0  0  0  0  0
    4.3640    1.4640   19.2500 C   0  0  0  0  0  0  0  0  0  0  0  0
    5.1380    1.2590   17.8990 C   0  0  0  0  0  0  0  0  0  0  0  0
    6.3100    0.6290   17.7040 N   0  0  0  0  0  0  0  0  0  0  0  0
    6.8800    0.1280   18.8120 C   0  0  0  0  0  0  0  0  0  0  0  0
  1  2  1  0
  2  3  1  0
  2  4  1  0
  4  5  1  6
  4  6  1  0
  6  7  1  0
  7  8  1  0
  8  9  2  0
  9 10  1  0
 10 11  2  0
 11 12  1  0
  8 13  1  0
 12 13  2  0
 13 14  1  0
 14 15  1  0
 15 16  2  0
 15 17  1  0
 17 18  1  0
 18 19  2  0
 19 20  1  0
 20 21  2  0
 21 22  1  0
 18 23  1  0
 22 23  2  0
M  END
