BAR-COM-21d20d65-5
     RDKit          3D

 24 26  0  0  0  0  0  0  0  0999 V2000
    8.3870   -2.0340   23.5380 C   0  0  0  0  0  0  0  0  0  0  0  0
    9.7530   -2.0000   22.7980 C   0  0  0  0  0  0  0  0  0  0  0  0
    9.9370   -2.7460   21.7070 N   0  0  0  0  0  0  0  0  0  0  0  0
   11.2810   -2.4810   21.3300 C   0  0  0  0  0  0  0  0  0  0  0  0
   11.8960   -1.6390   22.1300 C   0  0  0  0  0  0  0  0  0  0  0  0
   13.2110   -1.3150   21.9060 C   0  0  0  0  0  0  0  0  0  0  0  0
   13.5730   -0.1440   22.7460 C   0  0  0  0  0  0  0  0  0  0  0  0
   12.3390    0.5760   22.8620 C   0  0  0  0  0  0  0  0  0  0  0  0
   12.3260    1.9180   23.0510 C   0  0  0  0  0  0  0  0  0  0  0  0
   11.1200    2.5900   23.1530 C   0  0  0  0  0  0  0  0  0  0  0  0
    9.8860    1.9370   23.0720 C   0  0  0  0  0  0  0  0  0  0  0  0
    9.8410    0.5680   22.8750 C   0  0  0  0  0  0  0  0  0  0  0  0
    8.7280   -0.0890   22.7710 N   0  0  0  0  0  0  0  0  0  0  0  0
    8.1550    0.3470   21.5210 C   0  0  0  0  0  0  0  0  0  0  0  0
    8.6060    1.4850   20.9020 O   0  0  0  0  0  0  0  0  0  0  0  0
    7.1340   -0.4380   21.0410 N   0  0  0  0  0  0  0  0  0  0  0  0
    6.3650    0.1360   20.1110 C   0  0  0  0  0  0  0  0  0  0  0  0
    5.0350    0.8570   20.3110 C   0  0  0  0  0  0  0  0  0  0  0  0
    4.3950    1.4320   19.2210 C   0  0  0  0  0  0  0  0  0  0  0  0
    5.0730    1.3090   17.8470 C   0  0  0  0  0  0  0  0  0  0  0  0
    6.2350    0.6680   17.6400 N   0  0  0  0  0  0  0  0  0  0  0  0
    6.8640    0.0760   18.8390 C   0  0  0  0  0  0  0  0  0  0  0  0
   11.1750   -0.1100   22.7690 C   0  0  0  0  0  0  0  0  0  0  0  0
   10.9270   -1.2820   23.0820 N   0  0  0  0  0  0  0  0  0  0  0  0
  1  2  1  0
  2  3  2  0
  3  4  1  0
  4  5  2  0
  5  6  1  0
  6  7  1  0
  7  8  1  0
  8  9  2  0
  9 10  1  0
 10 11  2  0
 11 12  1  0
 12 13  1  0
 13 14  1  0
 14 15  2  0
 14 16  1  0
 16 17  1  0
 17 18  2  0
 18 19  1  0
 19 20  2  0
 20 21  1  0
 17 22  1  0
 21 22  2  0
  8 23  1  0
 12 23  2  0
  2 24  1  0
  5 24  1  0
M  END
