BAR-COM-5694a99d-1
     RDKit          3D

 23 25  0  0  0  0  0  0  0  0999 V2000
    8.7310    1.2810   21.1490 O   0  0  0  0  0  0  0  0  0  0  0  0
    8.1940    0.2690   21.6210 C   0  0  0  0  0  0  0  0  0  0  0  0
    7.1380   -0.4030   21.0440 N   0  0  0  0  0  0  0  0  0  0  0  0
    6.4490    0.1630   19.9860 C   0  0  0  0  0  0  0  0  0  0  0  0
    5.2890    0.8850   20.2540 C   0  0  0  0  0  0  0  0  0  0  0  0
    4.5990    1.4840   19.2060 C   0  0  0  0  0  0  0  0  0  0  0  0
    5.1050    1.3290   17.9350 C   0  0  0  0  0  0  0  0  0  0  0  0
    6.2100    0.6280   17.6540 N   0  0  0  0  0  0  0  0  0  0  0  0
    6.8560    0.0620   18.6820 C   0  0  0  0  0  0  0  0  0  0  0  0
    8.5650   -0.3370   22.7940 N   0  0  0  0  0  0  0  0  0  0  0  0
    9.8360   -0.1690   23.3390 C   0  0  0  0  0  0  0  0  0  0  0  0
   10.4930    1.0360   23.3190 C   0  0  0  0  0  0  0  0  0  0  0  0
   11.7690    1.1590   23.8680 C   0  0  0  0  0  0  0  0  0  0  0  0
   12.3890    0.1090   24.4060 C   0  0  0  0  0  0  0  0  0  0  0  0
   11.7720   -1.0410   24.4450 C   0  0  0  0  0  0  0  0  0  0  0  0
   10.5040   -1.2070   23.9360 C   0  0  0  0  0  0  0  0  0  0  0  0
   10.0450   -2.5710   24.1470 C   0  0  0  0  0  0  0  0  0  0  0  0
   11.3520   -3.1350   24.6690 C   0  0  0  0  0  0  0  0  0  0  0  0
   12.1990   -3.1150   23.4600 N   0  0  0  0  0  0  0  0  0  0  0  0
   11.6750   -2.2720   22.3390 C   0  0  0  0  0  0  0  0  0  0  0  0
   13.1280   -2.3240   21.8490 C   0  0  0  0  0  0  0  0  0  0  0  0
   13.5820   -1.1980   21.0760 O   0  0  0  0  0  0  0  0  0  0  0  0
   13.4500   -2.3500   23.3790 C   0  0  0  0  0  0  0  0  0  0  0  0
  1  2  2  0
  2  3  1  0
  3  4  1  0
  4  5  2  0
  5  6  1  0
  6  7  2  0
  7  8  1  0
  4  9  1  0
  8  9  2  0
  2 10  1  0
 10 11  1  0
 11 12  2  0
 12 13  1  0
 13 14  2  0
 14 15  1  0
 11 16  1  0
 15 16  2  0
 16 17  1  0
 17 18  1  0
 18 19  1  0
 19 20  1  0
 20 21  1  0
 21 22  1  0
 19 23  1  0
 21 23  1  0
M  END
