BAR-COM-4e090d3a-64
     RDKit          3D

 28 31  0  0  0  0  0  0  0  0999 V2000
    5.8040   -0.1120   23.3950 O   0  0  0  0  0  0  0  0  0  0  0  0
    6.6330   -0.5570   22.6090 C   0  0  0  0  0  0  0  0  0  0  0  0
    6.3590   -1.2170   21.4220 N   0  0  0  0  0  0  0  0  0  0  0  0
    5.3150   -2.2200   21.5920 C   0  0  0  0  0  0  0  0  0  0  0  0
    5.9700   -3.3680   22.3590 C   0  0  0  0  0  0  0  0  0  0  0  0
    5.1460   -4.4170   22.6950 C   0  0  0  0  0  0  0  0  0  0  0  0
    5.6850   -5.5130   23.4020 N   0  0  0  0  0  0  0  0  0  0  0  0
    7.1340   -5.4430   23.7330 C   0  0  0  0  0  0  0  0  0  0  0  0
    7.9000   -4.3250   23.3520 C   0  0  0  0  0  0  0  0  0  0  0  0
    7.2690   -3.3120   22.6630 N   0  0  0  0  0  0  0  0  0  0  0  0
    8.1590   -0.4540   22.8290 C   0  0  0  0  0  0  0  0  0  0  0  0
    8.9720   -1.8120   23.4610 S   0  0  0  0  0  0  0  0  0  0  0  0
   10.4930   -1.0280   23.4260 C   0  0  0  0  0  0  0  0  0  0  0  0
   11.7940   -1.5780   23.8520 C   0  0  0  0  0  0  0  0  0  0  0  0
   12.8970   -0.7700   23.7310 C   0  0  0  0  0  0  0  0  0  0  0  0
   12.8180    0.5070   23.2390 C   0  0  0  0  0  0  0  0  0  0  0  0
   11.6120    1.0410   22.8510 C   0  0  0  0  0  0  0  0  0  0  0  0
   11.6020    2.2960   22.4130 F   0  0  0  0  0  0  0  0  0  0  0  0
   10.4360    0.2690   22.9380 C   0  0  0  0  0  0  0  0  0  0  0  0
    9.1540    0.6910   22.5800 C   0  0  0  0  0  0  0  0  0  0  0  0
    8.6930    1.9060   22.0760 C   0  0  0  0  0  0  0  0  0  0  0  0
    9.5960    2.7230   21.4960 O   0  0  0  0  0  0  0  0  0  0  0  0
   10.3050    3.5160   22.3800 C   0  0  0  0  0  0  0  0  0  0  0  0
   11.6220    4.0700   21.9230 C   0  0  0  0  0  0  0  0  0  0  0  0
   12.1540    4.8420   22.9720 C   0  0  0  0  0  0  0  0  0  0  0  0
   11.9390    5.1970   24.0470 C   0  0  0  0  0  0  0  0  0  0  0  0
   10.7260    4.7170   24.5470 C   0  0  0  0  0  0  0  0  0  0  0  0
    9.8970    3.8740   23.7230 C   0  0  0  0  0  0  0  0  0  0  0  0
  1  2  2  0
  2  3  1  0
  3  4  1  0
  4  5  1  0
  5  6  2  0
  6  7  1  0
  7  8  2  0
  8  9  1  0
  5 10  1  0
  9 10  2  0
  2 11  1  0
 11 12  1  0
 12 13  1  0
 13 14  2  0
 14 15  1  0
 15 16  2  0
 16 17  1  0
 17 18  1  0
 13 19  1  0
 17 19  2  0
 11 20  2  0
 19 20  1  0
 20 21  1  0
 21 22  1  0
 22 23  1  0
 23 24  2  0
 24 25  1  0
 25 26  2  0
 26 27  1  0
 23 28  1  0
 27 28  2  0
M  END
