BAR-COM-4e090d3a-52
     RDKit          3D

 22 23  0  0  0  0  0  0  0  0999 V2000
    3.9900    1.4360   19.3540 C   0  0  0  0  0  0  0  0  0  0  0  0
    5.2030    0.9390   18.9800 N   0  0  0  0  0  0  0  0  0  0  0  0
    5.8510    1.2430   17.8190 C   0  0  0  0  0  0  0  0  0  0  0  0
    6.9900    0.6670   17.6650 N   0  0  0  0  0  0  0  0  0  0  0  0
    7.1160   -0.0840   18.7880 C   0  0  0  0  0  0  0  0  0  0  0  0
    6.0610    0.0480   19.6270 C   0  0  0  0  0  0  0  0  0  0  0  0
    5.9460   -0.5970   20.8340 C   0  0  0  0  0  0  0  0  0  0  0  0
    7.2150   -1.0210   21.2110 N   0  0  0  0  0  0  0  0  0  0  0  0
    8.3320   -0.2860   21.4860 C   0  0  0  0  0  0  0  0  0  0  0  0
    8.3730    0.8610   21.0440 O   0  0  0  0  0  0  0  0  0  0  0  0
    9.3230   -0.8590   22.2270 N   0  0  0  0  0  0  0  0  0  0  0  0
   10.5100   -0.1910   22.5040 C   0  0  0  0  0  0  0  0  0  0  0  0
   10.5260    1.0770   22.9470 C   0  0  0  0  0  0  0  0  0  0  0  0
   11.7610    1.5830   23.1420 C   0  0  0  0  0  0  0  0  0  0  0  0
   12.8780    0.8270   22.9000 C   0  0  0  0  0  0  0  0  0  0  0  0
   13.0790   -0.4950   22.4420 C   0  0  0  0  0  0  0  0  0  0  0  0
   13.1090   -1.6280   22.0470 O   0  0  0  0  0  0  0  0  0  0  0  0
   12.9300   -2.5840   23.0140 C   0  0  0  0  0  0  0  0  0  0  0  0
   12.4970   -2.2380   24.4180 C   0  0  0  0  0  0  0  0  0  0  0  0
   11.6610   -3.2310   24.7880 F   0  0  0  0  0  0  0  0  0  0  0  0
   13.5630   -2.3390   25.2520 F   0  0  0  0  0  0  0  0  0  0  0  0
   11.7550   -0.9100   22.2770 N   0  0  0  0  0  0  0  0  0  0  0  0
  1  2  1  0
  2  3  1  0
  3  4  2  0
  4  5  1  0
  2  6  1  0
  5  6  2  0
  6  7  1  0
  7  8  1  0
  8  9  1  0
  9 10  2  0
  9 11  1  0
 11 12  1  0
 12 13  2  0
 13 14  1  0
 14 15  2  0
 15 16  1  0
 16 17  1  0
 17 18  1  0
 18 19  1  0
 19 20  1  0
 19 21  1  0
 12 22  1  0
 16 22  2  0
M  END
