BAR-COM-4e090d3a-9
     RDKit          3D

 29 32  0  0  0  0  0  0  0  0999 V2000
    7.8320   -4.2550   27.8450 C   0  0  0  0  0  0  0  0  0  0  0  0
    7.8240   -2.7150   27.5800 C   0  0  0  0  0  0  0  0  0  0  0  0
    7.9810   -1.9490   28.6940 N   0  0  0  0  0  0  0  0  0  0  0  0
    7.9330   -0.6750   28.1590 O   0  0  0  0  0  0  0  0  0  0  0  0
    7.7540   -0.7450   26.7990 C   0  0  0  0  0  0  0  0  0  0  0  0
    7.6810    0.4780   26.1360 C   0  0  0  0  0  0  0  0  0  0  0  0
    7.6810   -2.0630   26.3900 C   0  0  0  0  0  0  0  0  0  0  0  0
    7.5080   -2.5580   25.1090 C   0  0  0  0  0  0  0  0  0  0  0  0
    7.7260   -1.5300   24.1320 O   0  0  0  0  0  0  0  0  0  0  0  0
    8.8640   -1.6530   23.3840 C   0  0  0  0  0  0  0  0  0  0  0  0
   10.0240   -1.1540   23.7060 C   0  0  0  0  0  0  0  0  0  0  0  0
   11.3380   -1.2730   22.8940 C   0  0  0  0  0  0  0  0  0  0  0  0
   11.1820   -1.9550   21.8200 C   0  0  0  0  0  0  0  0  0  0  0  0
    9.9750   -2.4890   21.4920 C   0  0  0  0  0  0  0  0  0  0  0  0
    8.8210   -2.3400   22.2500 C   0  0  0  0  0  0  0  0  0  0  0  0
    7.5960   -2.9000   21.8800 C   0  0  0  0  0  0  0  0  0  0  0  0
    6.8980   -2.3000   21.0620 O   0  0  0  0  0  0  0  0  0  0  0  0
    7.1580   -4.0610   22.4320 N   0  0  0  0  0  0  0  0  0  0  0  0
    5.9610   -4.7660   21.9720 C   0  0  1  0  0  0  0  0  0  0  0  0
    6.2390   -6.1360   21.9570 C   0  0  0  0  0  0  0  0  0  0  0  0
    4.8690   -4.4560   22.9550 C   0  0  0  0  0  0  0  0  0  0  0  0
    4.3730   -3.2050   23.2230 N   0  0  0  0  0  0  0  0  0  0  0  0
    3.3900   -3.3260   24.1740 N   0  0  0  0  0  0  0  0  0  0  0  0
    3.2710   -4.6320   24.4940 C   0  0  0  0  0  0  0  0  0  0  0  0
    2.4490   -5.2740   25.3750 N   0  0  0  0  0  0  0  0  0  0  0  0
    2.5760   -6.5710   25.4660 C   0  0  0  0  0  0  0  0  0  0  0  0
    3.3380   -7.2930   24.8600 C   0  0  0  0  0  0  0  0  0  0  0  0
    4.2230   -6.7300   23.9300 C   0  0  0  0  0  0  0  0  0  0  0  0
    4.1810   -5.3610   23.7500 N   0  0  0  0  0  0  0  0  0  0  0  0
  1  2  1  0
  2  3  2  0
  3  4  1  0
  4  5  1  0
  5  6  1  0
  2  7  1  0
  5  7  2  0
  7  8  1  0
  8  9  1  0
  9 10  1  0
 10 11  2  0
 11 12  1  0
 12 13  2  0
 13 14  1  0
 10 15  1  0
 14 15  2  0
 15 16  1  0
 16 17  2  0
 16 18  1  0
 18 19  1  0
 19 20  1  1
 19 21  1  0
 21 22  2  0
 22 23  1  0
 23 24  2  0
 24 25  1  0
 25 26  2  0
 26 27  1  0
 27 28  2  0
 21 29  1  0
 24 29  1  0
 28 29  1  0
M  END
