BAR-COM-4e090d3a-12
     RDKit          3D

 26 28  0  0  0  0  0  0  0  0999 V2000
   11.8830   -2.2680   21.6880 C   0  0  0  0  0  0  0  0  0  0  0  0
   11.7760   -1.0950   22.2850 C   0  0  0  0  0  0  0  0  0  0  0  0
   12.9190   -0.2710   22.6180 C   0  0  0  0  0  0  0  0  0  0  0  0
   12.6720    1.0670   23.2960 C   0  0  0  0  0  0  0  0  0  0  0  0
   11.3970    1.4310   23.5820 C   0  0  0  0  0  0  0  0  0  0  0  0
   10.3310    0.6130   23.2500 C   0  0  0  0  0  0  0  0  0  0  0  0
   10.5230   -0.6100   22.6110 C   0  0  0  0  0  0  0  0  0  0  0  0
    9.2410   -1.3570   22.2810 C   0  0  2  0  0  0  0  0  0  0  0  0
    8.4090   -0.3160   21.5350 C   0  0  0  0  0  0  0  0  0  0  0  0
    8.7800    0.8520   21.4290 O   0  0  0  0  0  0  0  0  0  0  0  0
    7.1900   -0.6100   20.9030 N   0  0  0  0  0  0  0  0  0  0  0  0
    6.6110    0.1760   19.9120 C   0  0  0  0  0  0  0  0  0  0  0  0
    5.2440    0.3670   20.1020 C   0  0  2  0  0  0  0  0  0  0  0  0
    4.6040   -0.6450   20.4130 O   0  0  0  0  0  0  0  0  0  0  0  0
    4.5990    1.0420   19.0550 C   0  0  0  0  0  0  0  0  0  0  0  0
    3.4650    1.8060   19.5140 N   0  0  0  0  0  0  0  0  0  0  0  0
    2.8910    2.9250   19.0100 C   0  0  0  0  0  0  0  0  0  0  0  0
    1.8490    3.2940   19.7610 C   0  0  0  0  0  0  0  0  0  0  0  0
    1.6860    2.4480   20.7860 N   0  0  0  0  0  0  0  0  0  0  0  0
    2.6990    1.5190   20.6290 N   0  0  0  0  0  0  0  0  0  0  0  0
    8.5730   -1.8350   23.5740 C   0  0  0  0  0  0  0  0  0  0  0  0
    8.8070   -3.1530   23.9750 C   0  0  0  0  0  0  0  0  0  0  0  0
    8.2290   -3.6390   25.1330 C   0  0  0  0  0  0  0  0  0  0  0  0
    7.3320   -2.7230   25.9690 C   0  0  0  0  0  0  0  0  0  0  0  0
    7.1330   -1.4190   25.5230 C   0  0  0  0  0  0  0  0  0  0  0  0
    7.7480   -0.9820   24.3420 C   0  0  0  0  0  0  0  0  0  0  0  0
  1  2  1  0
  2  3  2  0
  3  4  1  0
  4  5  2  0
  5  6  1  0
  2  7  1  0
  6  7  2  0
  7  8  1  0
  8  9  1  1
  9 10  2  0
  9 11  1  0
 11 12  1  0
 12 13  1  0
 13 14  1  6
 13 15  1  0
 15 16  1  0
 16 17  1  0
 17 18  2  0
 18 19  1  0
 16 20  1  0
 19 20  2  0
  8 21  1  0
 21 22  2  0
 22 23  1  0
 23 24  2  0
 24 25  1  0
 21 26  1  0
 25 26  2  0
M  END
