BAR-COM-4e090d3a-8
     RDKit          3D

 27 30  0  0  0  0  0  0  0  0999 V2000
   11.7010   -2.2920   21.5800 C   0  0  0  0  0  0  0  0  0  0  0  0
   11.4920   -0.9810   22.3330 C   0  0  0  0  0  0  0  0  0  0  0  0
   12.6680   -0.3210   22.6190 C   0  0  0  0  0  0  0  0  0  0  0  0
   12.7400    0.8720   23.2750 C   0  0  0  0  0  0  0  0  0  0  0  0
   11.5750    1.4610   23.7030 C   0  0  0  0  0  0  0  0  0  0  0  0
   10.2610    0.7970   23.4290 C   0  0  0  0  0  0  0  0  0  0  0  0
    9.0330    1.5460   23.9450 C   0  0  0  0  0  0  0  0  0  0  0  0
    8.5480    2.7640   23.4080 N   0  0  0  0  0  0  0  0  0  0  0  0
    7.4740    3.1000   24.1160 N   0  0  0  0  0  0  0  0  0  0  0  0
    7.2350    2.1810   25.0710 N   0  0  0  0  0  0  0  0  0  0  0  0
    8.1840    1.2310   24.9760 N   0  0  0  0  0  0  0  0  0  0  0  0
    8.2380    0.0580   25.8810 C   0  0  2  0  0  0  0  0  0  0  0  0
    7.1880   -0.6370   26.2480 C   0  0  0  0  0  0  0  0  0  0  0  0
    7.4440    0.0360   27.3300 C   0  0  1  0  0  0  0  0  0  0  0  0
    8.0320   -0.5470   28.4550 C   0  0  0  0  0  0  0  0  0  0  0  0
   10.2520   -0.4260   22.7230 C   0  0  0  0  0  0  0  0  0  0  0  0
    8.9960   -0.9990   22.4410 N   0  0  0  0  0  0  0  0  0  0  0  0
    8.2010   -0.4050   21.4680 C   0  0  0  0  0  0  0  0  0  0  0  0
    8.3190    0.7500   21.0750 O   0  0  0  0  0  0  0  0  0  0  0  0
    7.1390   -1.3600   20.8950 C   0  0  0  0  0  0  0  0  0  0  0  0
    5.8340   -0.9580   21.2590 C   0  0  0  0  0  0  0  0  0  0  0  0
    5.2550    0.2190   20.4310 C   0  0  0  0  0  0  0  0  0  0  0  0
    5.8640   -0.0050   19.0520 C   0  0  0  0  0  0  0  0  0  0  0  0
    5.5260    0.9080   18.0780 C   0  0  0  0  0  0  0  0  0  0  0  0
    4.6590    1.9550   18.4320 C   0  0  0  0  0  0  0  0  0  0  0  0
    4.1070    2.1570   19.6770 N   0  0  0  0  0  0  0  0  0  0  0  0
    4.4140    1.2810   20.6670 C   0  0  0  0  0  0  0  0  0  0  0  0
  1  2  1  0
  2  3  2  0
  3  4  1  0
  4  5  2  0
  5  6  1  0
  6  7  1  0
  7  8  2  0
  8  9  1  0
  9 10  2  0
  7 11  1  0
 10 11  1  0
 12 11  1  6
 12 13  1  0
 12 14  1  0
 13 14  1  0
 14 15  1  1
  2 16  1  0
  6 16  2  0
 16 17  1  0
 17 18  1  0
 18 19  2  0
 18 20  1  0
 20 21  1  0
 21 22  1  0
 22 23  2  0
 23 24  1  0
 24 25  2  0
 25 26  1  0
 22 27  1  0
 26 27  2  0
M  END
