BAR-COM-4e090d3a-42
     RDKit          3D

 24 26  0  0  0  0  0  0  0  0999 V2000
    8.8240   -2.6910   22.7930 O   0  0  0  0  0  0  0  0  0  0  0  0
    9.2390   -1.6400   22.3370 C   0  0  0  0  0  0  0  0  0  0  0  0
    8.4560   -0.6860   21.5210 N   0  0  0  0  0  0  0  0  0  0  0  0
    7.0390   -0.9650   21.2200 C   0  0  0  0  0  0  0  0  0  0  0  0
    6.5150   -0.2120   20.0080 C   0  0  0  0  0  0  0  0  0  0  0  0
    5.2260    0.5010   20.0010 C   0  0  0  0  0  0  0  0  0  0  0  0
    5.1180    1.0250   18.7600 C   0  0  0  0  0  0  0  0  0  0  0  0
    6.2440    0.6980   17.9740 N   0  0  0  0  0  0  0  0  0  0  0  0
    7.0700   -0.0810   18.8470 O   0  0  0  0  0  0  0  0  0  0  0  0
   10.6350   -1.1540   22.5790 C   0  0  0  0  0  0  0  0  0  0  0  0
   10.5800    0.3630   22.7660 C   0  0  0  0  0  0  0  0  0  0  0  0
   11.8680    1.0670   22.9800 C   0  0  0  0  0  0  0  0  0  0  0  0
   13.0480    0.3770   23.0270 C   0  0  0  0  0  0  0  0  0  0  0  0
   13.1200   -1.0090   22.8790 C   0  0  0  0  0  0  0  0  0  0  0  0
   12.0220   -1.8580   22.6520 C   0  0  0  0  0  0  0  0  0  0  0  0
   12.3010   -3.1900   22.5080 O   0  0  0  0  0  0  0  0  0  0  0  0
   13.2950   -3.3430   21.4200 C   0  0  0  0  0  0  0  0  0  0  0  0
   14.1290   -4.4670   20.9310 C   0  0  0  0  0  0  0  0  0  0  0  0
   14.9340   -4.6040   20.0410 C   0  0  0  0  0  0  0  0  0  0  0  0
   15.1350   -3.4960   19.3700 C   0  0  0  0  0  0  0  0  0  0  0  0
   16.4930   -3.7060   18.2390 Cl  0  0  0  0  0  0  0  0  0  0  0  0
   14.2630   -2.2170   19.8740 C   0  0  0  0  0  0  0  0  0  0  0  0
   13.3810   -2.2690   20.8870 C   0  0  0  0  0  0  0  0  0  0  0  0
   12.4020   -1.1890   21.6740 Cl  0  0  0  0  0  0  0  0  0  0  0  0
  1  2  2  0
  2  3  1  0
  3  4  1  0
  4  5  1  0
  5  6  2  0
  6  7  1  0
  7  8  2  0
  5  9  1  0
  8  9  1  0
  2 10  1  0
 10 11  2  0
 11 12  1  0
 12 13  2  0
 13 14  1  0
 10 15  1  0
 14 15  2  0
 15 16  1  0
 16 17  1  0
 17 18  2  0
 18 19  1  0
 19 20  2  0
 20 21  1  0
 20 22  1  0
 17 23  1  0
 22 23  2  0
 23 24  1  0
M  END
