BAR-COM-4e090d3a-58
     RDKit          3D

 22 24  0  0  0  0  0  0  0  0999 V2000
    8.3530    1.3430   20.8180 O   0  0  0  0  0  0  0  0  0  0  0  0
    7.8670    0.3170   21.3070 C   0  0  0  0  0  0  0  0  0  0  0  0
    7.0470   -0.5260   20.5920 N   0  0  0  0  0  0  0  0  0  0  0  0
    6.1760   -0.1500   19.5620 C   0  0  0  0  0  0  0  0  0  0  0  0
    5.2470    0.8720   19.7530 C   0  0  0  0  0  0  0  0  0  0  0  0
    4.7170    1.5450   18.5990 C   0  0  0  0  0  0  0  0  0  0  0  0
    3.8900    2.4100   19.3170 N   0  0  0  0  0  0  0  0  0  0  0  0
    3.8150    2.4010   20.6090 C   0  0  0  0  0  0  0  0  0  0  0  0
    4.7820    1.2800   21.3500 S   0  0  0  0  0  0  0  0  0  0  0  0
    8.1710    0.0160   22.5810 N   0  0  0  0  0  0  0  0  0  0  0  0
    9.5190    0.1770   22.9460 C   0  0  0  0  0  0  0  0  0  0  0  0
    9.9750    1.2830   23.6210 C   0  0  0  0  0  0  0  0  0  0  0  0
   11.3010    1.3840   23.9150 C   0  0  0  0  0  0  0  0  0  0  0  0
   12.2180    0.4240   23.5790 C   0  0  0  0  0  0  0  0  0  0  0  0
   11.7080   -0.6900   22.8990 C   0  0  0  0  0  0  0  0  0  0  0  0
   12.4030   -1.7350   22.4840 N   0  0  0  0  0  0  0  0  0  0  0  0
   11.9180   -2.5040   21.3520 C   0  0  0  0  0  0  0  0  0  0  0  0
   13.0020   -3.4660   20.9290 C   0  0  0  0  0  0  0  0  0  0  0  0
   14.0100   -2.7400   20.4000 O   0  0  0  0  0  0  0  0  0  0  0  0
   13.6190   -1.4530   20.6620 C   0  0  0  0  0  0  0  0  0  0  0  0
   13.6030   -1.1620   22.1210 C   0  0  0  0  0  0  0  0  0  0  0  0
   10.3890   -0.7970   22.5920 C   0  0  0  0  0  0  0  0  0  0  0  0
  1  2  2  0
  2  3  1  0
  3  4  1  0
  4  5  1  0
  5  6  2  0
  6  7  1  0
  7  8  2  0
  5  9  1  0
  8  9  1  0
  2 10  1  0
 10 11  1  0
 11 12  2  0
 12 13  1  0
 13 14  2  0
 14 15  1  0
 15 16  1  0
 16 17  1  0
 17 18  1  0
 18 19  1  0
 19 20  1  0
 16 21  1  0
 20 21  1  0
 11 22  1  0
 15 22  2  0
M  END
