BAR-COM-4e090d3a-21
     RDKit          3D

 23 25  0  0  0  0  0  0  0  0999 V2000
    7.4800    4.7800   26.5840 N   0  0  0  0  0  0  0  0  0  0  0  0
    8.1170    3.8330   25.6580 C   0  0  0  0  0  0  0  0  0  0  0  0
    9.3630    4.1210   25.0320 O   0  0  0  0  0  0  0  0  0  0  0  0
    7.4920    2.6650   25.4250 C   0  0  1  0  0  0  0  0  0  0  0  0
    6.0150    2.6680   25.3520 C   0  0  0  0  0  0  0  0  0  0  0  0
    5.5010    1.2280   25.1200 C   0  0  0  0  0  0  0  0  0  0  0  0
    4.2850    0.7670   25.5920 C   0  0  0  0  0  0  0  0  0  0  0  0
    3.8300   -0.5440   25.3790 C   0  0  0  0  0  0  0  0  0  0  0  0
    4.5420   -1.5290   24.6750 C   0  0  0  0  0  0  0  0  0  0  0  0
    5.9020   -1.0970   24.1190 C   0  0  0  0  0  0  0  0  0  0  0  0
    6.4400    0.3080   24.3210 C   0  0  0  0  0  0  0  0  0  0  0  0
    7.6630    0.7940   23.8560 N   0  0  0  0  0  0  0  0  0  0  0  0
    8.5130    0.0550   23.0020 C   0  0  0  0  0  0  0  0  0  0  0  0
    8.2440    0.3580   21.6630 C   0  0  0  0  0  0  0  0  0  0  0  0
    8.7990    1.3190   21.0840 O   0  0  0  0  0  0  0  0  0  0  0  0
    7.3650   -0.3970   20.9680 N   0  0  0  0  0  0  0  0  0  0  0  0
    6.6410    0.1690   19.9840 C   0  0  0  0  0  0  0  0  0  0  0  0
    6.9770   -0.0360   18.7080 C   0  0  0  0  0  0  0  0  0  0  0  0
    6.2770    0.5230   17.7560 N   0  0  0  0  0  0  0  0  0  0  0  0
    5.2320    1.2850   18.1190 C   0  0  0  0  0  0  0  0  0  0  0  0
    4.6480    1.6600   19.4870 C   0  0  0  0  0  0  0  0  0  0  0  0
    5.5600    0.9560   20.2790 N   0  0  0  0  0  0  0  0  0  0  0  0
    7.9930    2.1100   24.0880 C   0  0  0  0  0  0  0  0  0  0  0  0
  1  2  1  0
  2  3  2  0
  4  2  1  6
  4  5  1  0
  5  6  1  0
  6  7  1  0
  7  8  2  0
  8  9  1  0
  9 10  2  0
  6 11  2  0
 10 11  1  0
 11 12  1  0
 12 13  1  0
 13 14  1  0
 14 15  2  0
 14 16  1  0
 16 17  1  0
 17 18  2  0
 18 19  1  0
 19 20  2  0
 20 21  1  0
 17 22  1  0
 21 22  2  0
  4 23  1  0
 12 23  1  0
M  END
