BAR-COM-4e090d3a-43
     RDKit          3D

 24 27  0  0  0  0  0  0  0  0999 V2000
    9.0920   -2.3040   23.0840 O   0  0  0  0  0  0  0  0  0  0  0  0
    9.1750   -1.1950   22.5450 C   0  0  0  0  0  0  0  0  0  0  0  0
    8.1110   -0.5670   21.8090 N   0  0  0  0  0  0  0  0  0  0  0  0
    7.5080   -1.1570   20.7460 C   0  0  0  0  0  0  0  0  0  0  0  0
    6.3590   -0.3460   20.3710 C   0  0  0  0  0  0  0  0  0  0  0  0
    5.2620   -0.2130   21.2010 N   0  0  0  0  0  0  0  0  0  0  0  0
    4.3020    0.6020   20.6230 O   0  0  0  0  0  0  0  0  0  0  0  0
    4.8300    0.9380   19.4910 C   0  0  0  0  0  0  0  0  0  0  0  0
    4.2140    1.8280   18.4790 C   0  0  0  0  0  0  0  0  0  0  0  0
    4.9790    2.1070   17.2560 C   0  0  0  0  0  0  0  0  0  0  0  0
    6.0550    1.4120   17.4660 C   0  0  0  0  0  0  0  0  0  0  0  0
    5.2690    1.2010   18.5680 C   0  0  0  0  0  0  0  0  0  0  0  0
    6.2210    0.3770   19.1660 C   0  0  0  0  0  0  0  0  0  0  0  0
   10.4330   -0.4080   22.6340 C   0  0  0  0  0  0  0  0  0  0  0  0
   10.2670    0.9580   22.8400 C   0  0  0  0  0  0  0  0  0  0  0  0
   11.3620    1.8240   22.9390 C   0  0  0  0  0  0  0  0  0  0  0  0
   12.6680    1.3650   22.8500 C   0  0  0  0  0  0  0  0  0  0  0  0
   12.9060    0.0290   22.6460 C   0  0  0  0  0  0  0  0  0  0  0  0
   11.7350   -0.8820   22.5310 C   0  0  0  0  0  0  0  0  0  0  0  0
   11.9230   -2.0580   22.3510 O   0  0  0  0  0  0  0  0  0  0  0  0
   13.1810   -2.3390   22.8110 C   0  0  0  0  0  0  0  0  0  0  0  0
   13.1760   -1.8770   24.1080 C   0  0  0  0  0  0  0  0  0  0  0  0
   12.1780   -2.3330   24.8840 C   0  0  0  0  0  0  0  0  0  0  0  0
   13.5680   -2.6950   25.2670 C   0  0  0  0  0  0  0  0  0  0  0  0
  1  2  2  0
  2  3  1  0
  3  4  1  0
  4  5  1  0
  5  6  2  0
  6  7  1  0
  7  8  1  0
  8  9  1  0
  9 10  2  0
 10 11  1  0
 11 12  2  0
  5 13  1  0
  8 13  2  0
 12 13  1  0
  2 14  1  0
 14 15  2  0
 15 16  1  0
 16 17  2  0
 17 18  1  0
 14 19  1  0
 18 19  2  0
 19 20  1  0
 20 21  1  0
 21 22  1  0
 22 23  1  0
 22 24  1  0
 23 24  1  0
M  END
