BAR-COM-5694a99d-3
     RDKit          3D

 23 24  0  0  0  0  0  0  0  0999 V2000
   15.9150   -4.6240   19.7940 C   0  0  0  0  0  0  0  0  0  0  0  0
   14.6170   -4.6870   20.0530 C   0  0  0  0  0  0  0  0  0  0  0  0
   14.6750   -6.0030   20.4070 C   0  0  0  0  0  0  0  0  0  0  0  0
   13.8220   -4.6290   18.9560 O   0  0  0  0  0  0  0  0  0  0  0  0
   13.6950   -3.8030   20.9820 C   0  0  0  0  0  0  0  0  0  0  0  0
   13.3170   -2.6650   20.7060 O   0  0  0  0  0  0  0  0  0  0  0  0
   12.1230   -2.5100   21.5240 C   0  0  0  0  0  0  0  0  0  0  0  0
   11.9010   -1.2440   22.0170 C   0  0  0  0  0  0  0  0  0  0  0  0
   13.0390   -0.5230   22.2160 C   0  0  0  0  0  0  0  0  0  0  0  0
   13.0730    0.8910   22.7250 C   0  0  0  0  0  0  0  0  0  0  0  0
   11.7530    1.4820   23.0170 C   0  0  0  0  0  0  0  0  0  0  0  0
   10.5490    0.6350   22.7980 C   0  0  0  0  0  0  0  0  0  0  0  0
   10.6330   -0.6640   22.3150 C   0  0  0  0  0  0  0  0  0  0  0  0
    9.3320   -1.3160   22.1450 N   0  0  0  0  0  0  0  0  0  0  0  0
    8.4060   -0.3890   21.5120 C   0  0  0  0  0  0  0  0  0  0  0  0
    8.6270    0.9160   21.3500 O   0  0  0  0  0  0  0  0  0  0  0  0
    7.1490   -0.8660   21.0030 N   0  0  0  0  0  0  0  0  0  0  0  0
    6.3840   -0.1260   20.1120 C   0  0  0  0  0  0  0  0  0  0  0  0
    5.2330    0.6220   20.3860 C   0  0  0  0  0  0  0  0  0  0  0  0
    4.5830    1.3560   19.2710 C   0  0  0  0  0  0  0  0  0  0  0  0
    5.1180    1.2840   18.0170 C   0  0  0  0  0  0  0  0  0  0  0  0
    6.2240    0.5580   17.7340 N   0  0  0  0  0  0  0  0  0  0  0  0
    6.8100   -0.1130   18.7710 C   0  0  0  0  0  0  0  0  0  0  0  0
  1  2  1  0
  2  3  1  0
  2  4  1  0
  2  5  1  0
  5  6  1  0
  6  7  1  0
  7  8  1  0
  8  9  2  0
  9 10  1  0
 10 11  2  0
 11 12  1  0
  8 13  1  0
 12 13  2  0
 13 14  1  0
 14 15  1  0
 15 16  2  0
 15 17  1  0
 17 18  1  0
 18 19  2  0
 19 20  1  0
 20 21  2  0
 21 22  1  0
 18 23  1  0
 22 23  2  0
M  END
