BAR-COM-4e090d3a-62
     RDKit          3D

 22 23  0  0  0  0  0  0  0  0999 V2000
    6.8700   -2.2520   21.9400 C   0  0  0  0  0  0  0  0  0  0  0  0
    7.4940   -1.1180   21.0750 C   0  0  2  0  0  0  0  0  0  0  0  0
    8.2230   -0.2700   21.8420 N   0  0  0  0  0  0  0  0  0  0  0  0
    9.0460   -0.8250   22.9030 C   0  0  0  0  0  0  0  0  0  0  0  0
    8.8160   -1.7760   23.6510 O   0  0  0  0  0  0  0  0  0  0  0  0
   10.2350   -0.1520   23.0480 C   0  0  0  0  0  0  0  0  0  0  0  0
   10.1240    1.1940   22.8760 C   0  0  0  0  0  0  0  0  0  0  0  0
   11.3270    2.0760   22.9710 C   0  0  0  0  0  0  0  0  0  0  0  0
   12.6210    1.4290   23.2580 C   0  0  0  0  0  0  0  0  0  0  0  0
   12.6570    0.0620   23.4380 C   0  0  0  0  0  0  0  0  0  0  0  0
   11.5000   -0.7040   23.3350 C   0  0  0  0  0  0  0  0  0  0  0  0
   11.5570   -1.8820   23.4890 O   0  0  0  0  0  0  0  0  0  0  0  0
   12.3000   -2.5100   22.4870 C   0  0  0  0  0  0  0  0  0  0  0  0
   13.1540   -1.5810   21.9170 C   0  0  0  0  0  0  0  0  0  0  0  0
   13.5880   -1.7640   20.7170 N   0  0  0  0  0  0  0  0  0  0  0  0
   13.6310   -0.4320   22.4670 O   0  0  0  0  0  0  0  0  0  0  0  0
    6.6940   -0.2840   20.2920 C   0  0  0  0  0  0  0  0  0  0  0  0
    5.4470    0.4750   20.7120 C   0  0  0  0  0  0  0  0  0  0  0  0
    4.8460    1.2040   19.7850 N   0  0  0  0  0  0  0  0  0  0  0  0
    5.6570    0.9550   18.7550 N   0  0  0  0  0  0  0  0  0  0  0  0
    5.4710    1.4830   17.4750 C   0  0  0  0  0  0  0  0  0  0  0  0
    6.8150    0.0590   18.9680 C   0  0  0  0  0  0  0  0  0  0  0  0
  2  1  1  1
  2  3  1  0
  3  4  1  0
  4  5  2  0
  4  6  1  0
  6  7  2  0
  7  8  1  0
  8  9  2  0
  9 10  1  0
  6 11  1  0
 10 11  2  0
 11 12  1  0
 12 13  1  0
 13 14  1  0
 14 15  1  0
 14 16  2  0
  2 17  1  0
 17 18  1  0
 18 19  2  0
 19 20  1  0
 20 21  1  0
 17 22  2  0
 20 22  1  0
M  END
