BAR-COM-4e090d3a-3
     RDKit          3D

 26 28  0  0  0  0  0  0  0  0999 V2000
   12.8680   -3.1570   21.2310 C   0  0  0  0  0  0  0  0  0  0  0  0
   13.0580   -1.8410   21.8350 C   0  0  0  0  0  0  0  0  0  0  0  0
   13.4710   -0.8790   20.9990 C   0  0  0  0  0  0  0  0  0  0  0  0
   13.6690    0.3880   21.4180 C   0  0  0  0  0  0  0  0  0  0  0  0
   13.4300    0.6460   22.8050 C   0  0  0  0  0  0  0  0  0  0  0  0
   13.0320   -0.3320   23.6420 C   0  0  0  0  0  0  0  0  0  0  0  0
   12.8240   -1.5970   23.1810 C   0  0  0  0  0  0  0  0  0  0  0  0
   12.3300   -2.5890   24.1490 C   0  0  0  0  0  0  0  0  0  0  0  0
   11.0550   -2.2140   23.8490 N   0  0  0  0  0  0  0  0  0  0  0  0
   11.1120   -0.9150   23.4590 C   0  0  0  0  0  0  0  0  0  0  0  0
   12.3960   -0.3020   23.5480 C   0  0  0  0  0  0  0  0  0  0  0  0
   12.5340    1.0330   23.1940 C   0  0  0  0  0  0  0  0  0  0  0  0
   11.4540    1.7540   22.7820 C   0  0  0  0  0  0  0  0  0  0  0  0
   10.2120    1.1640   22.6820 C   0  0  0  0  0  0  0  0  0  0  0  0
   10.0110   -0.1690   22.9950 C   0  0  0  0  0  0  0  0  0  0  0  0
    8.7560   -0.7610   22.8470 N   0  0  0  0  0  0  0  0  0  0  0  0
    8.0810   -0.1470   21.6870 C   0  0  0  0  0  0  0  0  0  0  0  0
    8.5170    0.7970   21.0360 O   0  0  0  0  0  0  0  0  0  0  0  0
    6.8460   -0.6850   21.3200 C   0  0  2  0  0  0  0  0  0  0  0  0
    7.0320   -1.8390   21.0350 O   0  0  0  0  0  0  0  0  0  0  0  0
    6.2720   -0.0340   20.2180 C   0  0  0  0  0  0  0  0  0  0  0  0
    5.0980    0.7040   20.3250 C   0  0  0  0  0  0  0  0  0  0  0  0
    4.5800    1.3380   19.2010 C   0  0  0  0  0  0  0  0  0  0  0  0
    5.2400    1.2260   17.9920 C   0  0  0  0  0  0  0  0  0  0  0  0
    6.3730    0.5160   17.8530 N   0  0  0  0  0  0  0  0  0  0  0  0
    6.8650   -0.0990   18.9560 C   0  0  0  0  0  0  0  0  0  0  0  0
  1  2  1  0
  2  3  2  0
  3  4  1  0
  4  5  2  0
  5  6  1  0
  2  7  1  0
  6  7  2  0
  7  8  1  0
  8  9  1  0
  9 10  1  0
 10 11  2  0
 11 12  1  0
 12 13  2  0
 13 14  1  0
 10 15  1  0
 14 15  2  0
 15 16  1  0
 16 17  1  0
 17 18  2  0
 17 19  1  0
 19 20  1  6
 19 21  1  0
 21 22  2  0
 22 23  1  0
 23 24  2  0
 24 25  1  0
 21 26  1  0
 25 26  2  0
M  END
