BAR-COM-4e090d3a-38
     RDKit          3D

 25 27  0  0  0  0  0  0  0  0999 V2000
   13.2700   -1.9240   24.9400 C   0  0  0  0  0  0  0  0  0  0  0  0
   12.0260   -2.1710   24.5220 C   0  0  0  0  0  0  0  0  0  0  0  0
   11.6180   -3.5260   24.6030 N   0  0  0  0  0  0  0  0  0  0  0  0
   10.3240   -3.4760   24.0860 O   0  0  0  0  0  0  0  0  0  0  0  0
   10.1170   -2.1040   23.7660 C   0  0  0  0  0  0  0  0  0  0  0  0
    8.7210   -1.8490   23.1480 C   0  0  0  0  0  0  0  0  0  0  0  0
    8.8660   -0.7010   22.4130 C   0  0  2  0  0  0  0  0  0  0  0  0
    8.4480   -0.8050   21.0110 N   0  0  0  0  0  0  0  0  0  0  0  0
    7.1160   -0.9020   20.6480 C   0  0  0  0  0  0  0  0  0  0  0  0
    6.2450   -1.1750   21.4660 O   0  0  0  0  0  0  0  0  0  0  0  0
    6.9000   -0.6730   19.2770 C   0  0  1  0  0  0  0  0  0  0  0  0
    5.6020   -1.3550   18.8350 C   0  0  0  0  0  0  0  0  0  0  0  0
    6.6890    0.8430   19.1670 C   0  0  0  0  0  0  0  0  0  0  0  0
    5.3930    1.2740   19.3840 N   0  0  0  0  0  0  0  0  0  0  0  0
    4.5690    0.9770   20.5070 C   0  0  0  0  0  0  0  0  0  0  0  0
    3.3710    1.6050   20.3220 C   0  0  0  0  0  0  0  0  0  0  0  0
    3.3820    2.2660   19.1810 N   0  0  0  0  0  0  0  0  0  0  0  0
    4.5990    2.0790   18.5890 C   0  0  0  0  0  0  0  0  0  0  0  0
   10.3340   -0.3180   22.4990 C   0  0  0  0  0  0  0  0  0  0  0  0
   10.6560    0.9740   22.8810 C   0  0  0  0  0  0  0  0  0  0  0  0
   12.0850    1.4230   23.0050 C   0  0  0  0  0  0  0  0  0  0  0  0
   13.1240    0.5520   22.7490 C   0  0  0  0  0  0  0  0  0  0  0  0
   12.8430   -0.7460   22.3630 C   0  0  0  0  0  0  0  0  0  0  0  0
   11.3810   -1.2080   22.2250 C   0  0  0  0  0  0  0  0  0  0  0  0
   11.1210   -1.2910   24.0290 N   0  0  0  0  0  0  0  0  0  0  0  0
  1  2  1  0
  2  3  2  0
  3  4  1  0
  4  5  1  0
  5  6  1  0
  7  6  1  6
  7  8  1  0
  8  9  1  0
  9 10  2  0
  9 11  1  0
 11 12  1  1
 11 13  1  0
 13 14  1  0
 14 15  1  0
 15 16  2  0
 16 17  1  0
 14 18  1  0
 17 18  2  0
  7 19  1  0
 19 20  2  0
 20 21  1  0
 21 22  2  0
 22 23  1  0
 19 24  1  0
 23 24  2  0
  2 25  1  0
  5 25  2  0
M  END
