BAR-COM-4e090d3a-54
     RDKit          3D

 26 28  0  0  0  0  0  0  0  0999 V2000
    8.2920    0.8230   20.9560 O   0  0  0  0  0  0  0  0  0  0  0  0
    7.8560   -0.2540   21.3260 C   0  0  0  0  0  0  0  0  0  0  0  0
    6.9690   -1.0330   20.6830 N   0  0  0  0  0  0  0  0  0  0  0  0
    6.2550   -0.3120   19.7840 C   0  0  0  0  0  0  0  0  0  0  0  0
    5.3020    0.4000   20.5390 C   0  0  0  0  0  0  0  0  0  0  0  0
    5.0470    1.1390   19.4160 C   0  0  0  0  0  0  0  0  0  0  0  0
    5.3320    1.3870   18.0620 C   0  0  0  0  0  0  0  0  0  0  0  0
    4.4200    2.3350   18.2070 C   0  0  0  0  0  0  0  0  0  0  0  0
    3.8800    2.3460   19.5880 N   0  0  0  0  0  0  0  0  0  0  0  0
    4.3040    1.4320   20.6630 N   0  0  0  0  0  0  0  0  0  0  0  0
    8.1910   -0.8770   22.4940 N   0  0  0  0  0  0  0  0  0  0  0  0
    9.3840   -0.4430   23.1430 C   0  0  0  0  0  0  0  0  0  0  0  0
    9.4730   -0.5850   24.5070 C   0  0  0  0  0  0  0  0  0  0  0  0
   10.6280   -0.1620   25.1090 C   0  0  0  0  0  0  0  0  0  0  0  0
   11.7610    0.4440   24.2920 C   0  0  0  0  0  0  0  0  0  0  0  0
   11.5480    0.5350   22.9730 C   0  0  0  0  0  0  0  0  0  0  0  0
   12.4220    0.9980   22.3710 O   0  0  0  0  0  0  0  0  0  0  0  0
   13.5010    0.1740   22.6020 C   0  0  0  0  0  0  0  0  0  0  0  0
   13.1230   -1.0970   22.2140 C   0  0  0  0  0  0  0  0  0  0  0  0
   12.5410   -1.7520   23.3550 N   0  0  0  0  0  0  0  0  0  0  0  0
   13.4810   -2.5180   23.9180 C   0  0  0  0  0  0  0  0  0  0  0  0
   12.9520   -3.0110   25.0620 C   0  0  0  0  0  0  0  0  0  0  0  0
   11.6670   -3.6090   24.8750 O   0  0  0  0  0  0  0  0  0  0  0  0
   10.7660   -2.8710   24.1400 C   0  0  0  0  0  0  0  0  0  0  0  0
   11.4250   -2.4380   22.9870 C   0  0  0  0  0  0  0  0  0  0  0  0
   10.3810    0.0970   22.3760 C   0  0  0  0  0  0  0  0  0  0  0  0
  1  2  2  0
  2  3  1  0
  3  4  1  0
  4  5  1  0
  5  6  2  0
  6  7  1  0
  7  8  2  0
  8  9  1  0
  5 10  1  0
  9 10  2  0
  2 11  1  0
 11 12  1  0
 12 13  2  0
 13 14  1  0
 14 15  2  0
 15 16  1  0
 16 17  1  0
 17 18  1  0
 18 19  1  0
 19 20  1  0
 20 21  1  0
 21 22  1  0
 22 23  1  0
 23 24  1  0
 20 25  1  0
 24 25  1  0
 12 26  1  0
 16 26  2  0
M  END
