BAR-COM-5694a99d-5
     RDKit          3D

 23 25  0  0  0  0  0  0  0  0999 V2000
    8.3160    1.0630   20.9290 O   0  0  0  0  0  0  0  0  0  0  0  0
    7.9020    0.1680   21.6550 C   0  0  0  0  0  0  0  0  0  0  0  0
    6.8480   -0.7160   21.2270 N   0  0  0  0  0  0  0  0  0  0  0  0
    6.2580   -0.0420   20.0770 C   0  0  0  0  0  0  0  0  0  0  0  0
    4.9840    0.7090   20.3100 C   0  0  0  0  0  0  0  0  0  0  0  0
    4.4470    1.4070   19.1000 C   0  0  0  0  0  0  0  0  0  0  0  0
    5.1340    1.3150   17.8980 C   0  0  0  0  0  0  0  0  0  0  0  0
    6.3150    0.5900   17.7440 N   0  0  0  0  0  0  0  0  0  0  0  0
    6.8260   -0.0520   18.8060 C   0  0  0  0  0  0  0  0  0  0  0  0
    8.3980   -0.0460   22.9170 N   0  0  0  0  0  0  0  0  0  0  0  0
    9.6570    0.5070   23.1180 C   0  0  0  0  0  0  0  0  0  0  0  0
    9.9910    1.7890   23.7470 C   0  0  0  0  0  0  0  0  0  0  0  0
   11.3070    2.2070   23.8190 C   0  0  0  0  0  0  0  0  0  0  0  0
   12.3760    1.4580   23.3320 C   0  0  0  0  0  0  0  0  0  0  0  0
   12.1830    0.2490   22.7420 C   0  0  0  0  0  0  0  0  0  0  0  0
   10.7980   -0.2720   22.6080 C   0  0  0  0  0  0  0  0  0  0  0  0
   10.4630   -1.4130   22.0440 C   0  0  0  0  0  0  0  0  0  0  0  0
   11.4380   -2.2750   22.1420 C   0  0  0  0  0  0  0  0  0  0  0  0
   12.8160   -1.7320   22.1260 C   0  0  0  0  0  0  0  0  0  0  0  0
   13.3130   -0.8440   23.0370 O   0  0  0  0  0  0  0  0  0  0  0  0
   13.3060   -2.9820   22.1660 C   0  0  0  0  0  0  0  0  0  0  0  0
   13.5100   -3.1320   20.7390 N   0  0  0  0  0  0  0  0  0  0  0  0
   13.2980   -1.7060   20.7090 C   0  0  0  0  0  0  0  0  0  0  0  0
  1  2  2  0
  2  3  1  0
  3  4  1  0
  4  5  2  0
  5  6  1  0
  6  7  2  0
  7  8  1  0
  4  9  1  0
  8  9  2  0
  2 10  1  0
 10 11  1  0
 11 12  2  0
 12 13  1  0
 13 14  2  0
 14 15  1  0
 11 16  1  0
 15 16  2  0
 16 17  1  0
 17 18  1  0
 18 19  1  0
 19 20  1  0
 19 21  1  0
 21 22  1  0
 19 23  1  0
 22 23  1  0
M  END
