BEL-FAC-240e5663-1
     RDKit          3D

 21 22  0  0  0  0  0  0  0  0999 V2000
   -1.5760    0.8760   26.1960 N   0  0  0  0  0  0  0  0  0  0  0  0
   -0.6100    0.9940   25.3460 C   0  0  0  0  0  0  0  0  0  0  0  0
   -0.0100   -0.0460   24.6880 N   0  0  0  0  0  0  0  0  0  0  0  0
   -0.0450    2.2000   24.9750 N   0  0  0  0  0  0  0  0  0  0  0  0
    1.4410    2.5890   24.9400 C   0  0  1  0  0  0  0  0  0  0  0  0
    2.1800    2.0350   23.8550 C   0  0  0  0  0  0  0  0  0  0  0  0
    1.9300    0.6100   23.8370 O   0  0  0  0  0  0  0  0  0  0  0  0
    3.0130    2.6180   22.9490 N   0  0  0  0  0  0  0  0  0  0  0  0
    4.1260    1.9160   22.2670 C   0  0  1  0  0  0  0  0  0  0  0  0
    3.6700    1.2580   21.1180 C   0  0  0  0  0  0  0  0  0  0  0  0
    4.4250    1.4040   19.9520 C   0  0  0  0  0  0  0  0  0  0  0  0
    4.9610   -0.1300   19.2220 S   0  0  0  0  0  0  0  0  0  0  0  0
    5.2500    2.8860   21.9890 C   0  0  0  0  0  0  0  0  0  0  0  0
    5.1090    4.1100   22.0860 O   0  0  0  0  0  0  0  0  0  0  0  0
    6.5130    2.3920   21.6180 C   0  0  0  0  0  0  0  0  0  0  0  0
    7.5560    3.2360   21.9010 N   0  0  0  0  0  0  0  0  0  0  0  0
    6.6830    1.0810   20.9880 O   0  0  0  0  0  0  0  0  0  0  0  0
    1.4750    4.0190   25.0970 C   0  0  0  0  0  0  0  0  0  0  0  0
    0.1630    4.3280   25.3450 C   0  0  2  0  0  0  0  0  0  0  0  0
   -0.4740    3.2810   26.0470 C   0  0  0  0  0  0  0  0  0  0  0  0
   -0.8330    3.3820   24.7500 C   0  0  2  0  0  0  0  0  0  0  0  0
  1  2  2  3
  2  3  1  0
  2  4  1  0
  4  5  1  0
  5  6  1  6
  6  7  2  0
  6  8  1  0
  8  9  1  0
  9 10  1  6
 10 11  1  0
 11 12  1  0
  9 13  1  0
 13 14  2  0
 13 15  1  0
 15 16  1  0
 15 17  2  0
  5 18  1  0
 19 18  1  6
 19 20  1  0
  4 21  1  0
 19 21  1  0
 21 20  1  1
M  END
