BEN-VAN-c986b20b-3
     RDKit          3D

 24 26  0  0  0  0  0  0  0  0999 V2000
    5.9340   -1.9940   18.6680 C   0  0  0  0  0  0  0  0  0  0  0  0
    5.6520   -2.9100   19.8320 C   0  0  0  0  0  0  0  0  0  0  0  0
    5.3190   -4.0940   19.6690 O   0  0  0  0  0  0  0  0  0  0  0  0
    5.8020   -2.3640   21.0770 N   0  0  0  0  0  0  0  0  0  0  0  0
    5.5950   -3.1160   22.3130 C   0  0  0  0  0  0  0  0  0  0  0  0
    6.8010   -3.0180   23.2510 C   0  0  0  0  0  0  0  0  0  0  0  0
    8.0690   -2.7420   22.5610 N   0  0  0  0  0  0  0  0  0  0  0  0
    9.1360   -2.6370   23.5090 C   0  0  0  0  0  0  0  0  0  0  0  0
    9.8630   -1.3230   23.4150 C   0  0  0  0  0  0  0  0  0  0  0  0
    9.2890   -0.1630   23.8720 C   0  0  0  0  0  0  0  0  0  0  0  0
    9.9760    1.0200   23.7520 C   0  0  0  0  0  0  0  0  0  0  0  0
   11.2370    1.1290   23.2000 C   0  0  0  0  0  0  0  0  0  0  0  0
   11.5460    2.5700   23.2000 C   0  0  0  0  0  0  0  0  0  0  0  0
   12.6460    3.2630   22.7710 C   0  0  0  0  0  0  0  0  0  0  0  0
   12.5600    4.6520   22.8590 C   0  0  0  0  0  0  0  0  0  0  0  0
   13.6680    5.5050   22.3940 C   0  0  0  0  0  0  0  0  0  0  0  0
   11.4980    5.3110   23.3500 N   0  0  0  0  0  0  0  0  0  0  0  0
   10.4970    4.5530   23.7510 C   0  0  0  0  0  0  0  0  0  0  0  0
   10.4680    3.2270   23.6980 N   0  0  0  0  0  0  0  0  0  0  0  0
   11.8500   -0.0920   22.7810 C   0  0  0  0  0  0  0  0  0  0  0  0
   13.3920   -0.3950   22.1300 Cl  0  0  0  0  0  0  0  0  0  0  0  0
   11.1440   -1.2720   22.8750 C   0  0  0  0  0  0  0  0  0  0  0  0
    8.0400   -1.5540   21.6840 C   0  0  0  0  0  0  0  0  0  0  0  0
    6.6470   -1.1760   21.2010 C   0  0  0  0  0  0  0  0  0  0  0  0
  1  2  1  0
  2  3  2  0
  2  4  1  0
  4  5  1  0
  5  6  1  0
  6  7  1  0
  7  8  1  0
  8  9  1  0
  9 10  2  0
 10 11  1  0
 11 12  2  0
 12 13  1  0
 13 14  2  0
 14 15  1  0
 15 16  1  0
 15 17  2  0
 17 18  1  0
 13 19  1  0
 18 19  2  0
 12 20  1  0
 20 21  1  0
  9 22  1  0
 20 22  2  0
  7 23  1  0
  4 24  1  0
 23 24  1  0
M  END
