BEN-VAN-d8fd1356-10
     RDKit          3D

 25 28  0  0  0  0  0  0  0  0999 V2000
   10.8620    5.8990   22.6010 C   0  0  0  0  0  0  0  0  0  0  0  0
   11.9180    4.8730   22.1920 C   0  0  0  0  0  0  0  0  0  0  0  0
   12.3880    4.0680   23.1220 C   0  0  0  0  0  0  0  0  0  0  0  0
   12.4970    2.5600   22.9560 C   0  0  0  0  0  0  0  0  0  0  0  0
   11.1660    2.8390   23.7500 C   0  0  0  0  0  0  0  0  0  0  0  0
   10.3950    1.8270   24.1490 N   0  0  0  0  0  0  0  0  0  0  0  0
   11.0110    0.7540   23.7290 C   0  0  0  0  0  0  0  0  0  0  0  0
   10.6180   -0.7200   23.8910 C   0  0  0  0  0  0  0  0  0  0  0  0
    9.6480   -1.1390   24.4770 O   0  0  0  0  0  0  0  0  0  0  0  0
    8.4030   -0.8590   23.9830 C   0  0  0  0  0  0  0  0  0  0  0  0
    7.5230   -1.9090   23.8800 C   0  0  0  0  0  0  0  0  0  0  0  0
    6.1410   -1.5660   23.3320 C   0  0  0  0  0  0  0  0  0  0  0  0
    5.2710   -2.6050   23.2280 C   0  0  0  0  0  0  0  0  0  0  0  0
    5.1670   -3.4670   21.9980 C   0  0  0  0  0  0  0  0  0  0  0  0
    4.1700   -4.4490   22.2380 N   0  0  0  0  0  0  0  0  0  0  0  0
    3.6690   -4.2000   23.5820 C   0  0  0  0  0  0  0  0  0  0  0  0
    4.3420   -3.1150   24.1170 N   0  0  0  0  0  0  0  0  0  0  0  0
    5.8490   -0.2440   22.9750 C   0  0  0  0  0  0  0  0  0  0  0  0
    6.8210    0.7330   23.1230 C   0  0  0  0  0  0  0  0  0  0  0  0
    8.0750    0.5470   23.5950 N   0  0  0  0  0  0  0  0  0  0  0  0
   11.4800   -1.6520   23.3060 C   0  0  0  0  0  0  0  0  0  0  0  0
   12.6380   -1.2780   22.6250 C   0  0  0  0  0  0  0  0  0  0  0  0
   13.4200   -2.2000   22.0800 F   0  0  0  0  0  0  0  0  0  0  0  0
   12.9760    0.0490   22.5140 C   0  0  0  0  0  0  0  0  0  0  0  0
   12.1690    1.0640   23.0570 C   0  0  0  0  0  0  0  0  0  0  0  0
  1  2  1  0
  2  3  1  0
  3  4  1  0
  4  5  2  0
  5  6  1  0
  6  7  1  0
  7  8  1  0
  8  9  1  0
  9 10  1  0
 10 11  2  0
 11 12  1  0
 12 13  1  0
 13 14  2  0
 14 15  1  0
 15 16  2  0
 13 17  1  0
 16 17  1  0
 12 18  2  0
 18 19  1  0
 10 20  1  0
 19 20  2  0
  8 21  2  0
 21 22  1  0
 22 23  1  0
 22 24  2  0
  4 25  1  0
  7 25  2  0
 24 25  1  0
M  END
