BEN-VAN-d8fd1356-4
     RDKit          3D

 22 24  0  0  0  0  0  0  0  0999 V2000
   11.8730    5.7260   24.1450 C   0  0  0  0  0  0  0  0  0  0  0  0
   11.3400    4.5950   23.2920 C   0  0  0  0  0  0  0  0  0  0  0  0
   12.3280    3.6620   22.7340 C   0  0  0  0  0  0  0  0  0  0  0  0
   12.1510    2.2610   22.8500 C   0  0  0  0  0  0  0  0  0  0  0  0
   11.0880    2.7900   23.6110 C   0  0  0  0  0  0  0  0  0  0  0  0
   10.1750    1.9820   24.2630 N   0  0  0  0  0  0  0  0  0  0  0  0
   10.5810    0.7220   23.9710 C   0  0  0  0  0  0  0  0  0  0  0  0
    9.9330   -0.4520   24.4380 C   0  0  0  0  0  0  0  0  0  0  0  0
    8.9510   -0.4740   25.1640 O   0  0  0  0  0  0  0  0  0  0  0  0
    7.6970   -0.1170   24.6820 C   0  0  0  0  0  0  0  0  0  0  0  0
    6.6070   -0.3200   25.7260 C   0  0  0  0  0  0  0  0  0  0  0  0
    5.1430   -0.0200   25.5190 C   0  0  0  0  0  0  0  0  0  0  0  0
    3.7410    0.0560   25.9160 C   0  0  0  0  0  0  0  0  0  0  0  0
    5.0050    0.4690   24.2080 C   0  0  0  0  0  0  0  0  0  0  0  0
    6.0920    0.6780   23.1340 C   0  0  0  0  0  0  0  0  0  0  0  0
    7.4350    0.3920   23.3550 N   0  0  0  0  0  0  0  0  0  0  0  0
   10.4710   -1.6590   24.0400 C   0  0  0  0  0  0  0  0  0  0  0  0
   11.6750   -1.7150   23.1630 C   0  0  0  0  0  0  0  0  0  0  0  0
   12.2680   -2.8180   22.7260 F   0  0  0  0  0  0  0  0  0  0  0  0
   12.2690   -0.4660   22.7360 C   0  0  0  0  0  0  0  0  0  0  0  0
   13.5460   -0.7840   21.7830 Cl  0  0  0  0  0  0  0  0  0  0  0  0
   11.7220    0.8810   23.1470 C   0  0  0  0  0  0  0  0  0  0  0  0
  1  2  1  0
  2  3  1  0
  3  4  1  0
  4  5  2  0
  5  6  1  0
  6  7  1  0
  7  8  1  0
  8  9  1  0
  9 10  1  0
 10 11  2  0
 11 12  1  0
 12 13  1  0
 12 14  2  0
 14 15  1  0
 10 16  1  0
 15 16  2  0
  8 17  2  0
 17 18  1  0
 18 19  1  0
 18 20  2  0
 20 21  1  0
  4 22  1  0
  7 22  2  0
 20 22  1  0
M  END
