BEN-VAN-d8fd1356-5
     RDKit          3D

 27 30  0  0  0  0  0  0  0  0999 V2000
   11.7840    5.8300   24.4650 C   0  0  0  0  0  0  0  0  0  0  0  0
   11.1360    4.7720   23.6140 C   0  0  0  0  0  0  0  0  0  0  0  0
   12.0000    3.8570   23.0100 C   0  0  0  0  0  0  0  0  0  0  0  0
   11.8080    2.4600   23.0320 C   0  0  0  0  0  0  0  0  0  0  0  0
   10.4830    2.7880   23.3980 C   0  0  0  0  0  0  0  0  0  0  0  0
    9.5450    1.8940   23.6210 N   0  0  0  0  0  0  0  0  0  0  0  0
   10.0820    0.7460   23.4350 C   0  0  0  0  0  0  0  0  0  0  0  0
    9.4030   -0.6250   23.5440 C   0  0  0  0  0  0  0  0  0  0  0  0
    8.2020   -0.7570   23.8150 O   0  0  0  0  0  0  0  0  0  0  0  0
    7.7250   -0.9250   25.1120 C   0  0  0  0  0  0  0  0  0  0  0  0
    6.8260   -2.1120   25.3180 C   0  0  0  0  0  0  0  0  0  0  0  0
    6.2170   -2.4170   26.6630 C   0  0  0  0  0  0  0  0  0  0  0  0
    5.3070   -3.6310   26.8390 C   0  0  0  0  0  0  0  0  0  0  0  0
    5.0780   -4.4670   25.7390 C   0  0  0  0  0  0  0  0  0  0  0  0
    4.9190   -4.1330   24.4300 C   0  0  0  0  0  0  0  0  0  0  0  0
    4.6960   -5.3250   23.5790 C   0  0  0  0  0  0  0  0  0  0  0  0
    4.7130   -6.4100   24.3660 N   0  0  0  0  0  0  0  0  0  0  0  0
    4.9460   -5.8840   25.6760 N   0  0  0  0  0  0  0  0  0  0  0  0
    6.5910   -1.4490   27.7350 C   0  0  0  0  0  0  0  0  0  0  0  0
    7.5040   -0.2880   27.4260 C   0  0  0  0  0  0  0  0  0  0  0  0
    8.0490   -0.0600   26.1010 N   0  0  0  0  0  0  0  0  0  0  0  0
   10.2260   -1.7130   23.2910 C   0  0  0  0  0  0  0  0  0  0  0  0
   11.6700   -1.3940   22.9460 C   0  0  0  0  0  0  0  0  0  0  0  0
   12.5490   -2.3800   22.6760 F   0  0  0  0  0  0  0  0  0  0  0  0
   12.1540   -0.0900   22.8820 C   0  0  0  0  0  0  0  0  0  0  0  0
   13.6800    0.1540   22.5160 Cl  0  0  0  0  0  0  0  0  0  0  0  0
   11.3980    1.0090   23.1080 C   0  0  0  0  0  0  0  0  0  0  0  0
  1  2  1  0
  2  3  1  0
  3  4  1  0
  4  5  2  0
  5  6  1  0
  6  7  1  0
  7  8  1  0
  8  9  1  0
  9 10  1  0
 10 11  2  0
 11 12  1  0
 12 13  1  0
 13 14  1  0
 14 15  2  0
 15 16  1  0
 16 17  2  0
 14 18  1  0
 17 18  1  0
 12 19  2  0
 19 20  1  0
 10 21  1  0
 20 21  2  0
  8 22  2  0
 22 23  1  0
 23 24  1  0
 23 25  2  0
 25 26  1  0
  4 27  1  0
  7 27  2  0
 25 27  1  0
M  END
