BEN-DND-362d364a-5
     RDKit          3D

 31 33  0  0  0  0  0  0  0  0999 V2000
    6.1850    8.3900   20.4670 C   0  0  0  0  0  0  0  0  0  0  0  0
    5.7070    8.1710   21.8510 C   0  0  0  0  0  0  0  0  0  0  0  0
    5.7040    9.0940   22.6660 O   0  0  0  0  0  0  0  0  0  0  0  0
    5.2670    6.8780   22.1460 N   0  0  0  0  0  0  0  0  0  0  0  0
    5.2010    5.9310   21.0450 C   0  0  0  0  0  0  0  0  0  0  0  0
    4.7030    4.7130   21.4990 C   0  0  0  0  0  0  0  0  0  0  0  0
    5.6350    4.0160   22.4100 N   0  0  0  0  0  0  0  0  0  0  0  0
    5.0300    2.5660   23.0780 S   0  0  0  0  0  0  0  0  0  0  0  0
    5.3420    1.5070   22.1420 O   0  0  0  0  0  0  0  0  0  0  0  0
    5.4630    2.5250   24.4590 O   0  0  0  0  0  0  0  0  0  0  0  0
    3.2670    2.8000   23.0570 C   0  0  0  0  0  0  0  0  0  0  0  0
    2.5630    3.2120   24.3250 C   0  0  0  0  0  0  0  0  0  0  0  0
    1.0570    3.4000   24.2640 C   0  0  0  0  0  0  0  0  0  0  0  0
    0.3920    3.1610   22.9520 C   0  0  0  0  0  0  0  0  0  0  0  0
    1.1830    2.7550   21.7530 C   0  0  0  0  0  0  0  0  0  0  0  0
    0.3730    2.4880   20.2640 Cl  0  0  0  0  0  0  0  0  0  0  0  0
    2.5430    2.5950   21.8500 C   0  0  0  0  0  0  0  0  0  0  0  0
    6.2500    4.8720   23.3490 C   0  0  1  0  0  0  0  0  0  0  0  0
    7.6140    5.0490   22.9250 N   0  0  0  0  0  0  0  0  0  0  0  0
    8.5380    3.9630   22.8770 C   0  0  0  0  0  0  0  0  0  0  0  0
    9.7390    4.0990   23.5980 C   0  0  0  0  0  0  0  0  0  0  0  0
   10.8910    3.3720   23.1630 C   0  0  0  0  0  0  0  0  0  0  0  0
   11.4290    4.6710   23.2800 C   0  0  0  0  0  0  0  0  0  0  0  0
   12.5610    3.9350   22.8600 C   0  0  0  0  0  0  0  0  0  0  0  0
   11.5160    3.0730   22.9570 C   0  0  0  0  0  0  0  0  0  0  0  0
   11.2900    1.6370   22.7510 C   0  0  0  0  0  0  0  0  0  0  0  0
   10.0490    2.1920   23.1440 C   0  0  0  0  0  0  0  0  0  0  0  0
    8.2530    6.2700   23.0720 C   0  0  0  0  0  0  0  0  0  0  0  0
    8.5760    6.9970   21.9410 C   0  0  0  0  0  0  0  0  0  0  0  0
    8.5360    6.7300   24.1860 O   0  0  0  0  0  0  0  0  0  0  0  0
    5.5410    6.2740   23.4550 C   0  0  0  0  0  0  0  0  0  0  0  0
  1  2  1  0
  2  3  2  0
  2  4  1  0
  4  5  1  0
  5  6  1  0
  6  7  1  0
  7  8  1  0
  8  9  2  0
  8 10  2  0
  8 11  1  0
 11 12  2  0
 12 13  1  0
 13 14  2  0
 14 15  1  0
 15 16  1  0
 11 17  1  0
 15 17  2  0
  7 18  1  0
 18 19  1  6
 19 20  1  0
 20 21  1  0
 21 22  1  0
 22 23  2  0
 23 24  1  0
 24 25  2  0
 25 26  1  0
 22 27  1  0
 26 27  2  0
 19 28  1  0
 28 29  1  0
 28 30  2  0
  4 31  1  0
 18 31  1  0
M  END
