BEN-VAN-d8fd1356-25
     RDKit          3D

 22 24  0  0  0  0  0  0  0  0999 V2000
   12.4720    4.7990   21.7420 C   0  0  0  0  0  0  0  0  0  0  0  0
   12.4330    4.0480   23.0380 C   0  0  0  0  0  0  0  0  0  0  0  0
   12.4310    2.6490   22.9630 C   0  0  0  0  0  0  0  0  0  0  0  0
   11.1640    2.8170   23.5390 C   0  0  0  0  0  0  0  0  0  0  0  0
   10.3160    1.8950   23.8620 N   0  0  0  0  0  0  0  0  0  0  0  0
   10.9140    0.8000   23.5260 C   0  0  0  0  0  0  0  0  0  0  0  0
   10.4550   -0.4960   23.6390 C   0  0  0  0  0  0  0  0  0  0  0  0
    9.2070   -0.6780   24.1750 O   0  0  0  0  0  0  0  0  0  0  0  0
    8.6660   -1.9780   23.9160 C   0  0  0  0  0  0  0  0  0  0  0  0
    7.3550   -2.2870   24.6060 C   0  0  0  0  0  0  0  0  0  0  0  0
    6.8180   -3.6200   24.1080 C   0  0  0  0  0  0  0  0  0  0  0  0
    6.4100   -3.3780   22.7390 N   0  0  0  0  0  0  0  0  0  0  0  0
    5.1280   -3.6970   22.3240 C   0  0  0  0  0  0  0  0  0  0  0  0
    4.0330   -3.7150   23.3770 C   0  0  0  0  0  0  0  0  0  0  0  0
    4.8650   -3.9490   21.1600 O   0  0  0  0  0  0  0  0  0  0  0  0
    6.9590   -2.2010   22.2000 C   0  0  0  0  0  0  0  0  0  0  0  0
    8.3420   -2.0160   22.4190 C   0  0  0  0  0  0  0  0  0  0  0  0
   11.3410   -1.7100   23.1630 C   0  0  0  0  0  0  0  0  0  0  0  0
   12.5540   -1.2010   22.6710 C   0  0  0  0  0  0  0  0  0  0  0  0
   13.4360   -2.0860   22.2150 F   0  0  0  0  0  0  0  0  0  0  0  0
   12.9370    0.1360   22.6010 C   0  0  0  0  0  0  0  0  0  0  0  0
   12.1400    1.1880   23.0120 C   0  0  0  0  0  0  0  0  0  0  0  0
  1  2  1  0
  2  3  1  0
  3  4  2  0
  4  5  1  0
  5  6  1  0
  6  7  1  0
  7  8  1  0
  8  9  1  0
  9 10  1  0
 10 11  1  0
 11 12  1  0
 12 13  1  0
 13 14  1  0
 13 15  2  0
 12 16  1  0
  9 17  1  0
 16 17  1  0
  7 18  2  0
 18 19  1  0
 19 20  1  0
 19 21  2  0
  3 22  1  0
  6 22  2  0
 21 22  1  0
M  END
