BEN-VAN-5787f7d3-14
     RDKit          3D

 31 34  0  0  0  0  0  0  0  0999 V2000
    5.3110   -0.5830   18.2470 C   0  0  0  0  0  0  0  0  0  0  0  0
    6.3370    0.4560   18.4540 C   0  0  0  0  0  0  0  0  0  0  0  0
    6.1810    1.2760   19.3080 O   0  0  0  0  0  0  0  0  0  0  0  0
    4.9360    1.8180   19.3800 C   0  0  0  0  0  0  0  0  0  0  0  0
    4.3230    2.7510   18.4400 C   0  0  0  0  0  0  0  0  0  0  0  0
    3.0610    3.2440   18.6400 N   0  0  0  0  0  0  0  0  0  0  0  0
    2.2830    2.9140   19.6980 C   0  0  0  0  0  0  0  0  0  0  0  0
    0.9130    3.5480   19.7950 C   0  0  0  0  0  0  0  0  0  0  0  0
    0.7470    4.8240   19.3470 C   0  0  0  0  0  0  0  0  0  0  0  0
   -0.4170    5.5350   19.3620 N   0  0  0  0  0  0  0  0  0  0  0  0
   -1.5000    4.9360   19.8590 C   0  0  0  0  0  0  0  0  0  0  0  0
   -1.5560    3.5320   20.4090 C   0  0  0  0  0  0  0  0  0  0  0  0
   -0.1860    2.8730   20.3240 C   0  0  0  0  0  0  0  0  0  0  0  0
   -0.1530    1.4790   20.8490 C   0  0  0  0  0  0  0  0  0  0  0  0
    2.8360    1.9930   20.6190 C   0  0  0  0  0  0  0  0  0  0  0  0
    4.1540    1.4470   20.4520 C   0  0  0  0  0  0  0  0  0  0  0  0
    4.7360    0.5200   21.3010 C   0  0  0  0  0  0  0  0  0  0  0  0
    5.0850    0.8130   22.6290 C   0  0  0  0  0  0  0  0  0  0  0  0
    5.6660   -0.1390   23.4970 C   0  0  0  0  0  0  0  0  0  0  0  0
    6.0630    0.2730   25.1210 Cl  0  0  0  0  0  0  0  0  0  0  0  0
    5.9210   -1.5560   22.9330 C   0  0  0  0  0  0  0  0  0  0  0  0
    5.5110   -1.7850   21.4750 C   0  0  0  0  0  0  0  0  0  0  0  0
    5.7600   -3.2080   20.9240 C   0  0  0  0  0  0  0  0  0  0  0  0
    5.3830   -3.5410   19.7810 O   0  0  0  0  0  0  0  0  0  0  0  0
    6.3730   -4.0030   21.8490 N   0  0  0  0  0  0  0  0  0  0  0  0
    5.5790   -4.8290   22.5760 C   0  0  0  0  0  0  0  0  0  0  0  0
    5.5500   -6.2760   22.6980 C   0  0  0  0  0  0  0  0  0  0  0  0
    4.5100   -6.5550   23.5810 C   0  0  0  0  0  0  0  0  0  0  0  0
    3.7980   -5.2780   24.0890 C   0  0  0  0  0  0  0  0  0  0  0  0
    4.5920   -4.3660   23.3640 O   0  0  0  0  0  0  0  0  0  0  0  0
    4.9530   -0.7580   20.7450 C   0  0  0  0  0  0  0  0  0  0  0  0
  1  2  1  0
  2  3  1  0
  3  4  1  0
  4  5  2  0
  5  6  1  0
  6  7  2  0
  7  8  1  0
  8  9  2  0
  9 10  1  0
 10 11  2  0
 11 12  1  0
  8 13  1  0
 12 13  2  0
 13 14  1  0
  7 15  1  0
  4 16  1  0
 15 16  2  0
 16 17  1  0
 17 18  2  0
 18 19  1  0
 19 20  1  0
 19 21  2  0
 21 22  1  0
 22 23  1  0
 23 24  2  0
 23 25  1  0
 25 26  1  0
 26 27  2  0
 27 28  1  0
 28 29  2  0
 26 30  1  0
 29 30  1  0
 17 31  1  0
 22 31  2  0
M  END
