BEN-VAN-c986b20b-11
     RDKit          3D

 28 30  0  0  0  0  0  0  0  0999 V2000
    8.7320    0.7120   26.3050 C   0  0  0  0  0  0  0  0  0  0  0  0
    8.6610    1.3860   24.9520 C   0  0  0  0  0  0  0  0  0  0  0  0
    9.7100    1.6530   24.3720 O   0  0  0  0  0  0  0  0  0  0  0  0
   10.3980    0.5870   23.8830 C   0  0  0  0  0  0  0  0  0  0  0  0
    9.9040   -0.6710   24.1010 C   0  0  0  0  0  0  0  0  0  0  0  0
   10.4600   -1.8370   23.6660 C   0  0  0  0  0  0  0  0  0  0  0  0
    9.7620   -2.9800   23.9440 C   0  0  0  0  0  0  0  0  0  0  0  0
    8.4740   -2.7960   23.2250 N   0  0  0  0  0  0  0  0  0  0  0  0
    7.5950   -3.8780   23.1070 C   0  0  0  0  0  0  0  0  0  0  0  0
    6.2470   -3.4470   22.4980 C   0  0  0  0  0  0  0  0  0  0  0  0
    6.3890   -2.6380   21.2820 N   0  0  0  0  0  0  0  0  0  0  0  0
    5.8720   -2.9990   20.0370 C   0  0  0  0  0  0  0  0  0  0  0  0
    5.9660   -1.9880   18.9300 C   0  0  0  0  0  0  0  0  0  0  0  0
    5.3670   -4.1090   19.8090 O   0  0  0  0  0  0  0  0  0  0  0  0
    7.3970   -1.5670   21.3710 C   0  0  0  0  0  0  0  0  0  0  0  0
    8.6020   -2.0270   21.9580 C   0  0  0  0  0  0  0  0  0  0  0  0
   11.6650   -1.7670   22.9610 C   0  0  0  0  0  0  0  0  0  0  0  0
   12.3460   -0.4380   22.6390 C   0  0  0  0  0  0  0  0  0  0  0  0
   13.4890   -0.4100   21.9490 F   0  0  0  0  0  0  0  0  0  0  0  0
   11.5680    0.7980   23.1610 C   0  0  0  0  0  0  0  0  0  0  0  0
   12.0060    2.2440   22.8860 C   0  0  0  0  0  0  0  0  0  0  0  0
   10.8450    3.1870   23.1550 C   0  0  0  0  0  0  0  0  0  0  0  0
   11.0660    4.5640   22.9250 C   0  0  0  0  0  0  0  0  0  0  0  0
    9.8500    5.4700   23.2120 C   0  0  0  0  0  0  0  0  0  0  0  0
    9.8700    6.7580   22.4110 C   0  0  0  0  0  0  0  0  0  0  0  0
   12.2230    5.0830   22.4900 N   0  0  0  0  0  0  0  0  0  0  0  0
   13.2250    4.1050   22.2730 C   0  0  0  0  0  0  0  0  0  0  0  0
   13.1880    2.7590   22.4410 N   0  0  0  0  0  0  0  0  0  0  0  0
  1  2  1  0
  2  3  1  0
  3  4  1  0
  4  5  2  0
  5  6  1  0
  6  7  1  0
  7  8  1  0
  8  9  1  0
  9 10  1  0
 10 11  1  0
 11 12  1  0
 12 13  1  0
 12 14  2  0
 11 15  1  0
  8 16  1  0
 15 16  1  0
  6 17  2  0
 17 18  1  0
 18 19  1  0
  4 20  1  0
 18 20  2  0
 20 21  1  0
 21 22  2  0
 22 23  1  0
 23 24  1  0
 24 25  1  0
 23 26  2  0
 26 27  1  0
 21 28  1  0
 27 28  2  0
M  END
