BEN-VAN-77cef4f8-2
     RDKit          3D

 29 31  0  0  0  0  0  0  0  0999 V2000
    6.8660   -2.1850   18.9940 C   0  0  0  0  0  0  0  0  0  0  0  0
    6.1130   -2.9690   20.0580 C   0  0  0  0  0  0  0  0  0  0  0  0
    5.4280   -3.9630   19.7350 O   0  0  0  0  0  0  0  0  0  0  0  0
    6.2480   -2.5470   21.3850 N   0  0  0  0  0  0  0  0  0  0  0  0
    5.9070   -3.4770   22.4370 C   0  0  0  0  0  0  0  0  0  0  0  0
    6.9490   -4.3890   22.4310 C   0  0  0  0  0  0  0  0  0  0  0  0
    8.1090   -3.6890   22.9200 O   0  0  0  0  0  0  0  0  0  0  0  0
    8.4740   -2.5310   22.1030 C   0  0  2  0  0  0  0  0  0  0  0  0
    9.6730   -1.9810   22.6080 C   0  0  0  0  0  0  0  0  0  0  0  0
    9.9150   -1.8700   23.9120 C   0  0  0  0  0  0  0  0  0  0  0  0
   11.1120   -1.3810   24.1130 C   0  0  0  0  0  0  0  0  0  0  0  0
   11.2540   -1.3730   25.3800 F   0  0  0  0  0  0  0  0  0  0  0  0
   12.2220   -0.9190   23.5050 C   0  0  0  0  0  0  0  0  0  0  0  0
   13.2780   -0.4740   24.1380 F   0  0  0  0  0  0  0  0  0  0  0  0
   12.0940   -0.9980   22.1350 C   0  0  0  0  0  0  0  0  0  0  0  0
   13.2510   -0.5900   21.3000 C   0  0  0  0  0  0  0  0  0  0  0  0
   13.3230   -0.6980   19.7340 O   0  0  0  0  0  0  0  0  0  0  0  0
   14.6130   -0.6650   18.8300 C   0  0  2  0  0  0  0  0  0  0  0  0
   14.8050    0.9580   18.8440 C   0  0  0  0  0  0  0  0  0  0  0  0
   15.4810   -2.2260   16.7940 N   0  0  0  0  0  0  0  0  0  0  0  0
   15.4950   -3.9320   16.5050 C   0  0  0  0  0  0  0  0  0  0  0  0
   16.4180   -4.4630   17.0900 C   0  0  0  0  0  0  0  0  0  0  0  0
   16.4010   -5.5950   17.0190 C   0  0  0  0  0  0  0  0  0  0  0  0
   15.7240   -6.3100   16.5110 C   0  0  0  0  0  0  0  0  0  0  0  0
   14.8030   -6.1350   15.8010 N   0  0  0  0  0  0  0  0  0  0  0  0
   14.7400   -4.8690   15.8560 C   0  0  0  0  0  0  0  0  0  0  0  0
   13.5480   -4.6700   15.0020 Cl  0  0  0  0  0  0  0  0  0  0  0  0
   10.7780   -1.5270   21.7810 C   0  0  0  0  0  0  0  0  0  0  0  0
    7.4120   -1.7030   21.7700 C   0  0  0  0  0  0  0  0  0  0  0  0
  1  2  1  0
  2  3  2  0
  2  4  1  0
  4  5  1  0
  5  6  1  0
  6  7  1  0
  7  8  1  0
  8  9  1  1
  9 10  2  0
 10 11  1  0
 11 12  1  0
 11 13  2  0
 13 14  1  0
 13 15  1  0
 15 16  1  0
 16 17  1  0
 17 18  1  0
 18 19  1  6
 18 20  1  0
 20 21  1  0
 21 22  2  0
 22 23  1  0
 23 24  2  0
 24 25  1  0
 21 26  1  0
 25 26  2  0
 26 27  1  0
  9 28  1  0
 15 28  2  0
  4 29  1  0
  8 29  1  0
M  END
