BEN-VAN-5787f7d3-1
     RDKit          3D

 28 31  0  0  0  0  0  0  0  0999 V2000
    7.1350    1.5760   21.0730 C   0  0  0  0  0  0  0  0  0  0  0  0
    8.4420    1.1130   21.7230 C   0  0  0  0  0  0  0  0  0  0  0  0
    9.3590    2.0780   22.1220 C   0  0  0  0  0  0  0  0  0  0  0  0
   10.5580    1.6810   22.7050 C   0  0  0  0  0  0  0  0  0  0  0  0
   11.4180    2.6470   23.0650 F   0  0  0  0  0  0  0  0  0  0  0  0
   10.9220    0.3920   22.9260 N   0  0  0  0  0  0  0  0  0  0  0  0
   10.0020   -0.5100   22.5310 C   0  0  0  0  0  0  0  0  0  0  0  0
   10.3480   -1.7910   22.7490 F   0  0  0  0  0  0  0  0  0  0  0  0
    8.7660   -0.2500   21.9340 C   0  0  0  0  0  0  0  0  0  0  0  0
    7.9070   -1.2890   21.5610 C   0  0  0  0  0  0  0  0  0  0  0  0
    7.2810   -1.3480   20.3960 C   0  0  0  0  0  0  0  0  0  0  0  0
    6.5210   -2.2850   19.9230 C   0  0  0  0  0  0  0  0  0  0  0  0
    6.0990   -3.4640   20.3740 C   0  0  0  0  0  0  0  0  0  0  0  0
    5.4620   -4.2720   19.6960 O   0  0  0  0  0  0  0  0  0  0  0  0
    6.6000   -3.5050   21.7760 N   0  0  0  0  0  0  0  0  0  0  0  0
    5.7510   -4.2020   22.6320 C   0  0  0  0  0  0  0  0  0  0  0  0
    5.4680   -5.7080   22.4670 C   0  0  0  0  0  0  0  0  0  0  0  0
    4.4890   -6.2950   23.5020 C   0  0  0  0  0  0  0  0  0  0  0  0
    3.8950   -5.5370   24.5180 C   0  0  0  0  0  0  0  0  0  0  0  0
    4.1780   -4.1870   24.6330 C   0  0  0  0  0  0  0  0  0  0  0  0
    3.5570   -3.5050   25.6620 N   0  0  0  0  0  0  0  0  0  0  0  0
    2.1190   -3.5280   25.9660 C   0  0  0  0  0  0  0  0  0  0  0  0
    1.7710   -2.5480   26.8640 C   0  0  0  0  0  0  0  0  0  0  0  0
    3.0600   -1.8350   27.2310 C   0  0  0  0  0  0  0  0  0  0  0  0
    4.1270   -2.4290   26.3130 C   0  0  0  0  0  0  0  0  0  0  0  0
    5.2570   -1.9760   26.2220 O   0  0  0  0  0  0  0  0  0  0  0  0
    5.1280   -3.5040   23.6670 C   0  0  0  0  0  0  0  0  0  0  0  0
    7.5410   -2.4410   22.2860 C   0  0  0  0  0  0  0  0  0  0  0  0
  1  2  1  0
  2  3  2  0
  3  4  1  0
  4  5  1  0
  4  6  2  0
  6  7  1  0
  7  8  1  0
  2  9  1  0
  7  9  2  0
  9 10  1  0
 10 11  1  0
 11 12  2  0
 12 13  1  0
 13 14  2  0
 13 15  1  0
 15 16  1  0
 16 17  2  0
 17 18  1  0
 18 19  2  0
 19 20  1  0
 20 21  1  0
 21 22  1  0
 22 23  1  0
 23 24  1  0
 21 25  1  0
 24 25  1  0
 25 26  2  0
 16 27  1  0
 20 27  2  0
 10 28  2  0
 15 28  1  0
M  END
