BEN-VAN-d8fd1356-29
     RDKit          3D

 25 27  0  0  0  0  0  0  0  0999 V2000
   13.2210    5.4290   21.7860 C   0  0  0  0  0  0  0  0  0  0  0  0
   11.9990    4.6570   22.1170 C   0  0  0  0  0  0  0  0  0  0  0  0
   11.9280    3.9810   23.2550 C   0  0  0  0  0  0  0  0  0  0  0  0
   11.7150    2.4450   23.2390 C   0  0  0  0  0  0  0  0  0  0  0  0
   10.3070    2.7540   23.6830 C   0  0  0  0  0  0  0  0  0  0  0  0
    9.4660    4.2060   23.9960 Cl  0  0  0  0  0  0  0  0  0  0  0  0
    9.4770    1.6280   23.8880 N   0  0  0  0  0  0  0  0  0  0  0  0
   10.1390    0.5150   23.6210 C   0  0  0  0  0  0  0  0  0  0  0  0
    9.7430   -0.8370   23.6630 C   0  0  0  0  0  0  0  0  0  0  0  0
    8.5970   -1.0930   24.0080 O   0  0  0  0  0  0  0  0  0  0  0  0
    8.2750   -2.4920   24.1300 C   0  0  0  0  0  0  0  0  0  0  0  0
    8.1450   -3.0250   22.7100 C   0  0  0  0  0  0  0  0  0  0  0  0
    7.1050   -3.9130   22.5390 C   0  0  0  0  0  0  0  0  0  0  0  0
    6.4030   -4.4190   23.5720 N   0  0  0  0  0  0  0  0  0  0  0  0
    6.0230   -5.7140   23.4480 C   0  0  0  0  0  0  0  0  0  0  0  0
    6.6420   -6.6430   22.4650 C   0  0  0  0  0  0  0  0  0  0  0  0
    5.1320   -6.1570   24.1740 O   0  0  0  0  0  0  0  0  0  0  0  0
    6.7080   -3.9090   24.9080 C   0  0  0  0  0  0  0  0  0  0  0  0
    7.1000   -2.5590   24.8790 C   0  0  0  0  0  0  0  0  0  0  0  0
   10.6810   -1.8200   23.3060 C   0  0  0  0  0  0  0  0  0  0  0  0
   11.9220   -1.3850   22.9490 C   0  0  0  0  0  0  0  0  0  0  0  0
   12.9020   -2.2310   22.5850 F   0  0  0  0  0  0  0  0  0  0  0  0
   12.2000   -0.0670   22.9540 C   0  0  0  0  0  0  0  0  0  0  0  0
   13.6770    0.3660   22.5510 Cl  0  0  0  0  0  0  0  0  0  0  0  0
   11.3810    0.9700   23.2630 C   0  0  0  0  0  0  0  0  0  0  0  0
  1  2  1  0
  2  3  1  0
  3  4  1  0
  4  5  2  0
  5  6  1  0
  5  7  1  0
  7  8  1  0
  8  9  1  0
  9 10  1  0
 10 11  1  0
 11 12  1  0
 12 13  1  0
 13 14  1  0
 14 15  1  0
 15 16  1  0
 15 17  2  0
 14 18  1  0
 11 19  1  0
 18 19  1  0
  9 20  2  0
 20 21  1  0
 21 22  1  0
 21 23  2  0
 23 24  1  0
  4 25  1  0
  8 25  2  0
 23 25  1  0
M  END
