BEN-VAN-5787f7d3-17
     RDKit          3D

 32 35  0  0  0  0  0  0  0  0999 V2000
    3.0190    2.4920   19.2160 C   0  0  0  0  0  0  0  0  0  0  0  0
    2.6040    2.8630   20.6320 C   0  0  0  0  0  0  0  0  0  0  0  0
    2.8510    2.0740   21.5430 O   0  0  0  0  0  0  0  0  0  0  0  0
    3.7900    2.3890   22.4910 C   0  0  0  0  0  0  0  0  0  0  0  0
    3.6570    3.4380   23.5560 C   0  0  0  0  0  0  0  0  0  0  0  0
    4.5520    3.7710   24.4800 N   0  0  0  0  0  0  0  0  0  0  0  0
    5.7470    3.0470   24.4330 C   0  0  0  0  0  0  0  0  0  0  0  0
    6.7470    3.4730   25.4950 C   0  0  0  0  0  0  0  0  0  0  0  0
    7.8550    4.4280   25.0410 C   0  0  0  0  0  0  0  0  0  0  0  0
    8.8130    4.9180   25.8580 N   0  0  0  0  0  0  0  0  0  0  0  0
    8.7870    4.5390   27.1610 C   0  0  0  0  0  0  0  0  0  0  0  0
    9.7480    5.0540   27.9410 F   0  0  0  0  0  0  0  0  0  0  0  0
    7.8700    3.6750   27.7730 C   0  0  0  0  0  0  0  0  0  0  0  0
    6.7720    3.1110   26.8400 C   0  0  0  0  0  0  0  0  0  0  0  0
    5.8690    2.2650   27.4350 C   0  0  0  0  0  0  0  0  0  0  0  0
    5.9700    2.0240   23.4670 C   0  0  0  0  0  0  0  0  0  0  0  0
    5.0090    1.6800   22.4910 C   0  0  0  0  0  0  0  0  0  0  0  0
    5.2190    0.6870   21.5210 C   0  0  0  0  0  0  0  0  0  0  0  0
    5.2860    1.1690   20.2380 C   0  0  0  0  0  0  0  0  0  0  0  0
    5.4720    0.3200   19.1830 C   0  0  0  0  0  0  0  0  0  0  0  0
    5.5250    1.0440   17.6470 Cl  0  0  0  0  0  0  0  0  0  0  0  0
    5.6030   -1.0610   19.3590 C   0  0  0  0  0  0  0  0  0  0  0  0
    5.5440   -1.5870   20.6430 C   0  0  0  0  0  0  0  0  0  0  0  0
    5.6800   -3.0230   20.7210 C   0  0  0  0  0  0  0  0  0  0  0  0
    5.3540   -3.7310   19.7490 O   0  0  0  0  0  0  0  0  0  0  0  0
    6.1500   -3.5150   21.9150 N   0  0  0  0  0  0  0  0  0  0  0  0
    5.5150   -4.5650   22.5120 C   0  0  0  0  0  0  0  0  0  0  0  0
    5.6570   -5.8790   22.5270 C   0  0  0  0  0  0  0  0  0  0  0  0
    4.5460   -6.3310   23.4290 C   0  0  0  0  0  0  0  0  0  0  0  0
    3.7520   -5.2790   23.9460 C   0  0  0  0  0  0  0  0  0  0  0  0
    4.4590   -4.2540   23.2970 O   0  0  0  0  0  0  0  0  0  0  0  0
    5.3510   -0.7100   21.7440 C   0  0  0  0  0  0  0  0  0  0  0  0
  1  2  1  0
  2  3  1  0
  3  4  1  0
  4  5  2  0
  5  6  1  0
  6  7  2  0
  7  8  1  0
  8  9  2  0
  9 10  1  0
 10 11  2  0
 11 12  1  0
 11 13  1  0
  8 14  1  0
 13 14  2  0
 14 15  1  0
  7 16  1  0
  4 17  1  0
 16 17  2  0
 17 18  1  0
 18 19  2  0
 19 20  1  0
 20 21  1  0
 20 22  2  0
 22 23  1  0
 23 24  1  0
 24 25  2  0
 24 26  1  0
 26 27  1  0
 27 28  2  0
 28 29  1  0
 29 30  2  0
 27 31  1  0
 30 31  1  0
 18 32  1  0
 23 32  2  0
M  END
