BEN-VAN-ed886787-14
     RDKit          3D

 29 31  0  0  0  0  0  0  0  0999 V2000
   14.7880   -2.6210   26.3750 C   0  0  0  0  0  0  0  0  0  0  0  0
   13.6680   -2.2600   25.5590 C   0  0  0  0  0  0  0  0  0  0  0  0
   12.8240   -3.1560   25.1760 N   0  0  0  0  0  0  0  0  0  0  0  0
   12.6950   -2.6870   23.9450 C   0  0  0  0  0  0  0  0  0  0  0  0
   13.6640   -2.9740   22.9960 C   0  0  0  0  0  0  0  0  0  0  0  0
   13.4080   -2.3380   21.7290 C   0  0  0  0  0  0  0  0  0  0  0  0
   12.3410   -1.4440   21.2410 C   0  0  0  0  0  0  0  0  0  0  0  0
   13.3170   -1.7280   20.3980 F   0  0  0  0  0  0  0  0  0  0  0  0
   11.2530   -1.2210   22.4190 C   0  0  0  0  0  0  0  0  0  0  0  0
   10.4240   -1.2310   23.7340 C   0  0  0  0  0  0  0  0  0  0  0  0
   10.0350   -0.2180   24.7090 C   0  0  0  0  0  0  0  0  0  0  0  0
   11.4350    0.2280   24.0530 C   0  0  0  0  0  0  0  0  0  0  0  0
   10.4220   -0.8250   23.8890 C   0  0  0  0  0  0  0  0  0  0  0  0
   10.3230   -1.9360   22.9890 O   0  0  0  0  0  0  0  0  0  0  0  0
    9.3150   -1.8680   21.9320 C   0  0  0  0  0  0  0  0  0  0  0  0
    8.6560   -0.6660   21.5540 C   0  0  0  0  0  0  0  0  0  0  0  0
    9.4520    0.5000   21.4700 O   0  0  0  0  0  0  0  0  0  0  0  0
    7.2940   -0.7680   21.2710 N   0  0  0  0  0  0  0  0  0  0  0  0
    6.5940   -0.0870   20.1480 C   0  0  0  0  0  0  0  0  0  0  0  0
    5.4030    0.6050   20.3700 C   0  0  0  0  0  0  0  0  0  0  0  0
    4.6660    1.2840   19.4050 C   0  0  0  0  0  0  0  0  0  0  0  0
    5.1770    1.2820   17.9850 C   0  0  0  0  0  0  0  0  0  0  0  0
    6.3090    0.6420   17.6600 N   0  0  0  0  0  0  0  0  0  0  0  0
    7.0020   -0.0170   18.6720 C   0  0  0  0  0  0  0  0  0  0  0  0
    9.7480   -0.2150   24.8720 C   0  0  0  0  0  0  0  0  0  0  0  0
    8.5260   -0.3170   25.6540 C   0  0  0  0  0  0  0  0  0  0  0  0
    9.6500    0.7840   25.6740 C   0  0  0  0  0  0  0  0  0  0  0  0
    8.5700    1.4320   26.8680 Cl  0  0  0  0  0  0  0  0  0  0  0  0
   11.6880   -1.9150   23.5600 N   0  0  0  0  0  0  0  0  0  0  0  0
  1  2  1  0
  2  3  1  0
  3  4  1  0
  4  5  2  0
  5  6  1  0
  6  7  2  0
  7  8  1  0
  7  9  1  0
  9 10  1  0
 10 11  1  0
 11 12  2  0
 12 13  1  0
 13 14  1  0
 14 15  1  0
 15 16  1  0
 16 17  2  0
 16 18  1  0
 18 19  1  0
 19 20  2  0
 20 21  1  0
 21 22  2  0
 22 23  1  0
 19 24  1  0
 23 24  2  0
 13 25  2  0
 25 26  1  0
 11 27  1  0
 26 27  2  0
 27 28  1  0
  4 29  1  0
  9 29  2  0
M  END
