BEN-VAN-d8fd1356-13
     RDKit          3D

 23 25  0  0  0  0  0  0  0  0999 V2000
   11.4040    6.2040   22.7760 C   0  0  0  0  0  0  0  0  0  0  0  0
   12.2490    5.0380   22.3270 C   0  0  0  0  0  0  0  0  0  0  0  0
   12.5600    4.1320   23.3230 N   0  0  0  0  0  0  0  0  0  0  0  0
   12.4180    2.6960   23.0710 C   0  0  0  0  0  0  0  0  0  0  0  0
   11.0350    3.1950   23.1350 C   0  0  0  0  0  0  0  0  0  0  0  0
    9.9130    2.3350   22.9460 N   0  0  0  0  0  0  0  0  0  0  0  0
   10.5530    1.0970   22.7240 C   0  0  0  0  0  0  0  0  0  0  0  0
    9.8690   -0.1200   22.4530 C   0  0  0  0  0  0  0  0  0  0  0  0
    8.4560   -0.3530   22.3210 O   0  0  0  0  0  0  0  0  0  0  0  0
    7.6490   -0.0910   21.1440 C   0  0  0  0  0  0  0  0  0  0  0  0
    6.5800    0.4410   20.8950 C   0  0  0  0  0  0  0  0  0  0  0  0
    5.4550    1.0930   21.3470 C   0  0  0  0  0  0  0  0  0  0  0  0
    4.9770    1.5080   22.7170 C   0  0  0  0  0  0  0  0  0  0  0  0
    5.1450    1.1120   20.0290 C   0  0  0  0  0  0  0  0  0  0  0  0
    3.5950    1.8870   19.2940 Br  0  0  0  0  0  0  0  0  0  0  0  0
    6.3280    0.3630   19.2310 C   0  0  0  0  0  0  0  0  0  0  0  0
    7.6040   -0.2640   19.7790 N   0  0  0  0  0  0  0  0  0  0  0  0
   10.7180   -1.1940   22.3100 C   0  0  0  0  0  0  0  0  0  0  0  0
    9.9040   -2.6450   22.0280 Cl  0  0  0  0  0  0  0  0  0  0  0  0
   12.1280   -1.0720   22.3970 C   0  0  0  0  0  0  0  0  0  0  0  0
   12.9470   -2.1220   22.2430 F   0  0  0  0  0  0  0  0  0  0  0  0
   12.7240    0.1660   22.6420 C   0  0  0  0  0  0  0  0  0  0  0  0
   11.9500    1.3120   22.8170 C   0  0  0  0  0  0  0  0  0  0  0  0
  1  2  1  0
  2  3  1  0
  3  4  1  0
  4  5  2  0
  5  6  1  0
  6  7  1  0
  7  8  1  0
  8  9  1  0
  9 10  1  0
 10 11  2  0
 11 12  1  0
 12 13  1  0
 12 14  2  0
 14 15  1  0
 14 16  1  0
 10 17  1  0
 16 17  2  0
  8 18  2  0
 18 19  1  0
 18 20  1  0
 20 21  1  0
 20 22  2  0
  4 23  1  0
  7 23  2  0
 22 23  1  0
M  END
