BEN-BAS-ec4a2f8b-1
     RDKit          3D

 24 27  0  0  0  0  0  0  0  0999 V2000
    9.0410    1.6290   21.2950 O   0  0  0  0  0  0  0  0  0  0  0  0
    8.9230    0.4710   21.6980 C   0  0  0  0  0  0  0  0  0  0  0  0
   10.0660   -0.0920   22.4160 C   0  0  0  0  0  0  0  0  0  0  0  0
   10.0610   -1.3080   23.0410 C   0  0  0  0  0  0  0  0  0  0  0  0
   11.4150   -1.0450   23.3630 O   0  0  0  0  0  0  0  0  0  0  0  0
   12.2030    0.0740   23.0740 C   0  0  0  0  0  0  0  0  0  0  0  0
   11.1900    0.6430   22.4500 N   0  0  0  0  0  0  0  0  0  0  0  0
    7.7150   -0.3120   21.4530 N   0  0  0  0  0  0  0  0  0  0  0  0
    6.9060    0.1150   20.2720 C   0  0  0  0  0  0  0  0  0  0  0  0
    5.7470    0.9920   20.5690 C   0  0  0  0  0  0  0  0  0  0  0  0
    4.9310    1.4590   19.5080 C   0  0  0  0  0  0  0  0  0  0  0  0
    5.2500    1.0750   18.2090 C   0  0  0  0  0  0  0  0  0  0  0  0
    6.3160    0.2640   17.9480 N   0  0  0  0  0  0  0  0  0  0  0  0
    7.1400   -0.2230   18.9510 C   0  0  0  0  0  0  0  0  0  0  0  0
    6.9630   -0.9470   22.5330 C   0  0  0  0  0  0  0  0  0  0  0  0
    6.3770   -0.1960   23.5330 C   0  0  0  0  0  0  0  0  0  0  0  0
    5.7320   -1.0050   24.4300 N   0  0  0  0  0  0  0  0  0  0  0  0
    5.9150   -2.2460   23.9900 C   0  0  0  0  0  0  0  0  0  0  0  0
    5.4130   -3.3780   24.6290 C   0  0  0  0  0  0  0  0  0  0  0  0
    4.1860   -3.3810   25.3010 C   0  0  0  0  0  0  0  0  0  0  0  0
    3.9030   -4.6190   25.8600 C   0  0  0  0  0  0  0  0  0  0  0  0
    5.1800   -5.6880   25.5090 S   0  0  0  0  0  0  0  0  0  0  0  0
    6.0630   -4.5570   24.6540 N   0  0  0  0  0  0  0  0  0  0  0  0
    6.6650   -2.2570   22.8260 N   0  0  0  0  0  0  0  0  0  0  0  0
  1  2  2  0
  2  3  1  0
  3  4  2  0
  4  5  1  0
  5  6  1  0
  3  7  1  0
  6  7  2  0
  2  8  1  0
  8  9  1  0
  9 10  2  0
 10 11  1  0
 11 12  2  0
 12 13  1  0
  9 14  1  0
 13 14  2  0
  8 15  1  0
 15 16  2  0
 16 17  1  0
 17 18  2  0
 18 19  1  0
 19 20  1  0
 20 21  2  0
 21 22  1  0
 19 23  2  0
 22 23  1  0
 15 24  1  0
 18 24  1  0
M  END
