BEN-DND-362d364a-9
     RDKit          3D

 21 22  0  0  0  0  0  0  0  0999 V2000
    2.0370   -7.7500   22.7150 C   0  0  0  0  0  0  0  0  0  0  0  0
    0.6420   -6.7150   23.1140 S   0  0  0  0  0  0  0  0  0  0  0  0
   -0.2500   -7.4760   23.9560 O   0  0  0  0  0  0  0  0  0  0  0  0
    0.1850   -6.0840   21.9020 O   0  0  0  0  0  0  0  0  0  0  0  0
    1.3430   -5.4940   24.0490 N   0  0  0  0  0  0  0  0  0  0  0  0
    2.7970   -5.2530   23.9670 C   0  0  0  0  0  0  0  0  0  0  0  0
    3.2000   -4.0900   24.5720 C   0  0  0  0  0  0  0  0  0  0  0  0
    2.8630   -3.8900   26.0940 C   0  0  0  0  0  0  0  0  0  0  0  0
    1.8000   -3.0990   25.8170 C   0  0  0  0  0  0  0  0  0  0  0  0
    0.8550   -2.4380   26.5870 C   0  0  0  0  0  0  0  0  0  0  0  0
    0.4560   -2.2310   28.2580 Cl  0  0  0  0  0  0  0  0  0  0  0  0
    0.3850   -2.0360   25.5100 C   0  0  0  0  0  0  0  0  0  0  0  0
    1.6460   -2.9690   25.9460 C   0  0  0  0  0  0  0  0  0  0  0  0
    2.8200   -3.7670   25.1930 C   0  0  0  0  0  0  0  0  0  0  0  0
    3.7460   -4.5030   26.0820 C   0  0  0  0  0  0  0  0  0  0  0  0
    5.1490   -5.5290   25.9580 S   0  0  0  0  0  0  0  0  0  0  0  0
    5.8120   -5.3040   24.4230 N   0  0  0  0  0  0  0  0  0  0  0  0
    4.6010   -6.8650   25.9880 O   0  0  0  0  0  0  0  0  0  0  0  0
    6.0770   -5.0460   26.9480 O   0  0  0  0  0  0  0  0  0  0  0  0
    3.1870   -4.1620   27.2070 N   0  0  0  0  0  0  0  0  0  0  0  0
    2.1840   -3.4290   27.2060 C   0  0  0  0  0  0  0  0  0  0  0  0
  1  2  1  0
  2  3  2  0
  2  4  2  0
  2  5  1  0
  5  6  1  0
  6  7  1  0
  7  8  1  0
  8  9  2  0
  9 10  1  0
 10 11  1  0
 10 12  2  0
 12 13  1  0
 13 14  1  0
 14 15  2  0
 15 16  1  0
 16 17  1  0
 16 18  2  0
 16 19  2  0
 15 20  1  0
  8 21  1  0
 13 21  2  0
 20 21  1  0
M  END
