BEN-VAN-77cef4f8-1
     RDKit          3D

 28 30  0  0  0  0  0  0  0  0999 V2000
    6.0080   -1.9450   18.9790 C   0  0  0  0  0  0  0  0  0  0  0  0
    5.9550   -2.9860   20.0640 C   0  0  0  0  0  0  0  0  0  0  0  0
    5.4370   -4.0960   19.8370 O   0  0  0  0  0  0  0  0  0  0  0  0
    6.5590   -2.6560   21.2750 N   0  0  0  0  0  0  0  0  0  0  0  0
    6.2490   -3.3570   22.5150 C   0  0  0  0  0  0  0  0  0  0  0  0
    7.4170   -4.2610   22.9280 C   0  0  0  0  0  0  0  0  0  0  0  0
    8.6910   -3.5920   22.9780 O   0  0  0  0  0  0  0  0  0  0  0  0
    9.0200   -2.6390   21.9240 C   0  0  2  0  0  0  0  0  0  0  0  0
   10.2540   -1.9000   22.4180 C   0  0  0  0  0  0  0  0  0  0  0  0
   10.2530   -1.7130   23.7400 C   0  0  0  0  0  0  0  0  0  0  0  0
   11.2890   -1.0840   24.2720 C   0  0  0  0  0  0  0  0  0  0  0  0
   12.3850   -0.5630   23.5440 C   0  0  0  0  0  0  0  0  0  0  0  0
   13.3040    0.0420   24.1990 F   0  0  0  0  0  0  0  0  0  0  0  0
   12.5310   -0.6810   22.0930 C   0  0  0  0  0  0  0  0  0  0  0  0
   13.7860   -0.0740   21.3820 C   0  0  0  0  0  0  0  0  0  0  0  0
   14.3010    1.2490   20.2080 O   0  0  0  0  0  0  0  0  0  0  0  0
   14.4960    3.0730   19.9130 C   0  0  2  0  0  0  0  0  0  0  0  0
   14.2730    4.3740   20.7570 C   0  0  0  0  0  0  0  0  0  0  0  0
   13.5420    3.6680   18.8370 N   0  0  0  0  0  0  0  0  0  0  0  0
   14.4140    2.9080   18.6740 C   0  0  0  0  0  0  0  0  0  0  0  0
   15.2410    3.5750   19.3810 C   0  0  0  0  0  0  0  0  0  0  0  0
   16.3010    3.0210   19.4910 C   0  0  0  0  0  0  0  0  0  0  0  0
   16.4590    1.8850   18.9270 C   0  0  0  0  0  0  0  0  0  0  0  0
   15.6120    1.3890   18.3200 N   0  0  0  0  0  0  0  0  0  0  0  0
   14.6380    1.8490   18.1640 C   0  0  0  0  0  0  0  0  0  0  0  0
   13.7320    0.8770   17.2670 Cl  0  0  0  0  0  0  0  0  0  0  0  0
   11.3880   -1.4120   21.6130 C   0  0  0  0  0  0  0  0  0  0  0  0
    7.7930   -1.8390   21.3920 C   0  0  0  0  0  0  0  0  0  0  0  0
  1  2  1  0
  2  3  2  0
  2  4  1  0
  4  5  1  0
  5  6  1  0
  6  7  1  0
  7  8  1  0
  8  9  1  1
  9 10  2  0
 10 11  1  0
 11 12  2  0
 12 13  1  0
 12 14  1  0
 14 15  1  0
 15 16  1  0
 16 17  1  0
 17 18  1  1
 17 19  1  0
 19 20  1  0
 20 21  2  0
 21 22  1  0
 22 23  2  0
 23 24  1  0
 20 25  1  0
 24 25  2  0
 25 26  1  0
  9 27  1  0
 14 27  2  0
  4 28  1  0
  8 28  1  0
M  END
