BEN-VAN-d8fd1356-23
     RDKit          3D

 24 26  0  0  0  0  0  0  0  0999 V2000
    4.0570    0.9070   20.0490 C   0  0  0  0  0  0  0  0  0  0  0  0
    4.8550    1.6440   19.0130 C   0  0  0  0  0  0  0  0  0  0  0  0
    5.5950    0.8570   18.1330 C   0  0  0  0  0  0  0  0  0  0  0  0
    5.0090    1.5650   17.3370 O   0  0  0  0  0  0  0  0  0  0  0  0
    6.0050    0.3360   19.3430 N   0  0  0  0  0  0  0  0  0  0  0  0
    5.7200   -1.0410   19.7460 C   0  0  0  0  0  0  0  0  0  0  0  0
    6.0780   -1.2590   21.1050 C   0  0  0  0  0  0  0  0  0  0  0  0
    7.3820   -1.1710   21.4910 N   0  0  0  0  0  0  0  0  0  0  0  0
    7.8270   -0.7870   22.7260 C   0  0  0  0  0  0  0  0  0  0  0  0
    9.3440   -0.4800   22.7250 C   0  0  0  0  0  0  0  0  0  0  0  0
   10.1170   -1.6010   22.5730 C   0  0  0  0  0  0  0  0  0  0  0  0
   11.5920   -1.3910   22.5400 C   0  0  0  0  0  0  0  0  0  0  0  0
   12.4560   -2.4090   22.3910 F   0  0  0  0  0  0  0  0  0  0  0  0
   12.1340   -0.0360   22.6700 C   0  0  0  0  0  0  0  0  0  0  0  0
   13.6930    0.2560   22.6510 Cl  0  0  0  0  0  0  0  0  0  0  0  0
   11.2620    1.1270   22.8220 C   0  0  0  0  0  0  0  0  0  0  0  0
   11.8720    2.4140   22.9170 C   0  0  0  0  0  0  0  0  0  0  0  0
   12.2110    3.7720   23.0300 C   0  0  0  0  0  0  0  0  0  0  0  0
   12.2320    4.6600   21.7980 C   0  0  0  0  0  0  0  0  0  0  0  0
   10.5290    2.9290   23.0430 C   0  0  0  0  0  0  0  0  0  0  0  0
    9.4770    2.0440   23.0060 N   0  0  0  0  0  0  0  0  0  0  0  0
    9.9490    0.8240   22.8490 C   0  0  0  0  0  0  0  0  0  0  0  0
    7.9500   -0.2740   20.5520 C   0  0  0  0  0  0  0  0  0  0  0  0
    7.0360    0.8900   20.1760 C   0  0  0  0  0  0  0  0  0  0  0  0
  1  2  1  0
  2  3  1  0
  3  4  2  0
  3  5  1  0
  5  6  1  0
  6  7  1  0
  7  8  1  0
  8  9  1  0
  9 10  1  0
 10 11  2  0
 11 12  1  0
 12 13  1  0
 12 14  2  0
 14 15  1  0
 14 16  1  0
 16 17  1  0
 17 18  1  0
 18 19  1  0
 17 20  2  0
 20 21  1  0
 10 22  1  0
 16 22  2  0
 21 22  1  0
  8 23  1  0
  5 24  1  0
 23 24  1  0
M  END
