BEN-DND-031a96cc-2
     RDKit          3D

 25 27  0  0  0  0  0  0  0  0999 V2000
    4.7090   -3.5290   26.0400 O   0  0  0  0  0  0  0  0  0  0  0  0
    5.6820   -3.0850   25.4560 C   0  0  0  0  0  0  0  0  0  0  0  0
    6.6610   -2.2750   26.0010 N   0  0  0  0  0  0  0  0  0  0  0  0
    6.4700   -1.2120   26.9050 C   0  0  0  0  0  0  0  0  0  0  0  0
    5.8260   -0.0220   26.5720 C   0  0  0  0  0  0  0  0  0  0  0  0
    5.6830    0.9930   27.5240 C   0  0  0  0  0  0  0  0  0  0  0  0
    6.1830    0.8220   28.8150 C   0  0  0  0  0  0  0  0  0  0  0  0
    6.8240   -0.3630   29.1570 C   0  0  0  0  0  0  0  0  0  0  0  0
    6.9630   -1.3710   28.2090 C   0  0  0  0  0  0  0  0  0  0  0  0
    5.9380   -3.3890   23.9510 C   0  0  0  0  0  0  0  0  0  0  0  0
    5.5700   -4.7180   23.6930 C   0  0  0  0  0  0  0  0  0  0  0  0
    5.4750   -4.9980   22.3180 C   0  0  0  0  0  0  0  0  0  0  0  0
    6.4410   -4.2940   21.4800 N   0  0  0  0  0  0  0  0  0  0  0  0
    6.0450   -3.3960   20.4860 C   0  0  0  0  0  0  0  0  0  0  0  0
    5.2570   -3.6130   19.5620 O   0  0  0  0  0  0  0  0  0  0  0  0
    6.7350   -2.0080   20.5040 C   0  0  2  0  0  0  0  0  0  0  0  0
    6.3980   -1.3910   22.0700 Cl  0  0  0  0  0  0  0  0  0  0  0  0
    6.0450   -0.9410   19.6840 C   0  0  0  0  0  0  0  0  0  0  0  0
    4.8140   -0.4170   20.0230 C   0  0  0  0  0  0  0  0  0  0  0  0
    4.2250    0.5810   19.2720 C   0  0  0  0  0  0  0  0  0  0  0  0
    4.9460    1.0140   18.1690 C   0  0  0  0  0  0  0  0  0  0  0  0
    6.1490    0.5380   17.7880 N   0  0  0  0  0  0  0  0  0  0  0  0
    6.6640   -0.4350   18.5710 C   0  0  0  0  0  0  0  0  0  0  0  0
    7.5930   -3.9380   22.2880 C   0  0  0  0  0  0  0  0  0  0  0  0
    7.4100   -3.2020   23.5900 C   0  0  0  0  0  0  0  0  0  0  0  0
  1  2  2  0
  2  3  1  0
  3  4  1  0
  4  5  2  0
  5  6  1  0
  6  7  2  0
  7  8  1  0
  4  9  1  0
  8  9  2  0
  2 10  1  0
 10 11  1  0
 11 12  1  0
 12 13  1  0
 13 14  1  0
 14 15  2  0
 14 16  1  0
 16 17  1  1
 16 18  1  0
 18 19  2  0
 19 20  1  0
 20 21  2  0
 21 22  1  0
 18 23  1  0
 22 23  2  0
 13 24  1  0
 10 25  1  0
 24 25  1  0
M  END
