BEN-DND-031a96cc-3
     RDKit          3D

 26 29  0  0  0  0  0  0  0  0999 V2000
    4.5550   -3.2110   25.6950 O   0  0  0  0  0  0  0  0  0  0  0  0
    5.7320   -3.0850   25.3950 C   0  0  0  0  0  0  0  0  0  0  0  0
    6.7060   -2.3670   26.1720 N   0  0  0  0  0  0  0  0  0  0  0  0
    6.4540   -1.2760   26.9180 C   0  0  0  0  0  0  0  0  0  0  0  0
    5.7930   -0.1800   26.5070 C   0  0  0  0  0  0  0  0  0  0  0  0
    5.5630    1.0110   27.4120 C   0  0  0  0  0  0  0  0  0  0  0  0
    6.0930    0.9940   28.8510 C   0  0  0  0  0  0  0  0  0  0  0  0
    6.8340   -0.2480   29.3080 C   0  0  0  0  0  0  0  0  0  0  0  0
    6.9560   -1.3430   28.2350 C   0  0  0  0  0  0  0  0  0  0  0  0
    6.3480   -3.6860   24.1320 C   0  0  0  0  0  0  0  0  0  0  0  0
    5.4350   -4.5430   23.5230 C   0  0  0  0  0  0  0  0  0  0  0  0
    6.1770   -5.0560   22.2740 C   0  0  0  0  0  0  0  0  0  0  0  0
    6.5970   -4.0950   21.4300 N   0  0  0  0  0  0  0  0  0  0  0  0
    5.8500   -3.6420   20.2480 C   0  0  0  0  0  0  0  0  0  0  0  0
    5.1410   -4.3720   19.5820 O   0  0  0  0  0  0  0  0  0  0  0  0
    6.0370   -2.1730   19.8720 C   0  0  2  0  0  0  0  0  0  0  0  0
    7.0040   -1.5360   20.5340 O   0  0  0  0  0  0  0  0  0  0  0  0
    5.4680   -1.2140   20.5870 C   0  0  1  0  0  0  0  0  0  0  0  0
    4.9670   -0.0510   20.0190 C   0  0  0  0  0  0  0  0  0  0  0  0
    5.4120    0.3890   18.7750 C   0  0  0  0  0  0  0  0  0  0  0  0
    4.9020    1.5480   18.2330 C   0  0  0  0  0  0  0  0  0  0  0  0
    3.9480    2.3830   18.7950 C   0  0  0  0  0  0  0  0  0  0  0  0
    3.3820    2.0530   20.0990 N   0  0  0  0  0  0  0  0  0  0  0  0
    3.8950    0.8240   20.7180 C   0  0  0  0  0  0  0  0  0  0  0  0
    7.5870   -3.1920   22.0090 C   0  0  0  0  0  0  0  0  0  0  0  0
    6.8950   -2.5790   23.2180 C   0  0  0  0  0  0  0  0  0  0  0  0
  1  2  2  0
  2  3  1  0
  3  4  1  0
  4  5  2  0
  5  6  1  0
  6  7  2  0
  7  8  1  0
  4  9  1  0
  8  9  2  0
  2 10  1  0
 10 11  1  0
 11 12  1  0
 12 13  1  0
 13 14  1  0
 14 15  2  0
 16 14  1  1
 16 17  1  0
 16 18  1  0
 17 18  1  0
 18 19  1  6
 19 20  2  0
 20 21  1  0
 21 22  2  0
 22 23  1  0
 19 24  1  0
 23 24  2  0
 13 25  1  0
 10 26  1  0
 25 26  1  0
M  END
