BEN-VAN-c986b20b-16
     RDKit          3D

 25 27  0  0  0  0  0  0  0  0999 V2000
    5.8980   -2.0940   18.8190 C   0  0  0  0  0  0  0  0  0  0  0  0
    5.8920   -2.9990   19.9930 C   0  0  0  0  0  0  0  0  0  0  0  0
    5.3930   -4.1240   19.8630 O   0  0  0  0  0  0  0  0  0  0  0  0
    6.4640   -2.6070   21.1110 N   0  0  0  0  0  0  0  0  0  0  0  0
    6.1750   -3.1920   22.4130 C   0  0  0  0  0  0  0  0  0  0  0  0
    7.4100   -3.6500   23.1760 C   0  0  0  0  0  0  0  0  0  0  0  0
    8.6530   -2.9110   22.8610 N   0  0  0  0  0  0  0  0  0  0  0  0
    9.7060   -2.8280   23.9340 C   0  0  0  0  0  0  0  0  0  0  0  0
   10.3960   -1.5230   23.7500 C   0  0  0  0  0  0  0  0  0  0  0  0
    9.7960   -0.4520   24.2270 C   0  0  0  0  0  0  0  0  0  0  0  0
   10.3060    0.8930   24.0560 C   0  0  0  0  0  0  0  0  0  0  0  0
   11.5580    1.0930   23.3080 C   0  0  0  0  0  0  0  0  0  0  0  0
   11.7010    2.6200   23.2450 C   0  0  0  0  0  0  0  0  0  0  0  0
   12.8320    3.3940   22.7090 C   0  0  0  0  0  0  0  0  0  0  0  0
   12.7150    4.7910   22.6880 C   0  0  0  0  0  0  0  0  0  0  0  0
   13.7030    5.5810   22.1720 C   0  0  0  0  0  0  0  0  0  0  0  0
   11.6260    5.4390   23.1600 N   0  0  0  0  0  0  0  0  0  0  0  0
   10.6220    4.6780   23.6600 C   0  0  0  0  0  0  0  0  0  0  0  0
    9.5490    5.3240   24.1330 F   0  0  0  0  0  0  0  0  0  0  0  0
   10.6010    3.2910   23.7220 N   0  0  0  0  0  0  0  0  0  0  0  0
   12.2350   -0.0850   22.8430 C   0  0  0  0  0  0  0  0  0  0  0  0
   13.3950   -0.1000   22.1710 F   0  0  0  0  0  0  0  0  0  0  0  0
   11.6390   -1.3630   23.0690 C   0  0  0  0  0  0  0  0  0  0  0  0
    8.4380   -1.5820   22.2420 C   0  0  0  0  0  0  0  0  0  0  0  0
    7.3790   -1.4750   21.1410 C   0  0  0  0  0  0  0  0  0  0  0  0
  1  2  1  0
  2  3  2  0
  2  4  1  0
  4  5  1  0
  5  6  1  0
  6  7  1  0
  7  8  1  0
  8  9  1  0
  9 10  2  0
 10 11  1  0
 11 12  2  0
 12 13  1  0
 13 14  2  0
 14 15  1  0
 15 16  1  0
 15 17  2  0
 17 18  1  0
 18 19  1  0
 13 20  1  0
 18 20  2  0
 12 21  1  0
 21 22  1  0
  9 23  1  0
 21 23  2  0
  7 24  1  0
  4 25  1  0
 24 25  1  0
M  END
