BEN-VAN-d8fd1356-18
     RDKit          3D

 21 23  0  0  0  0  0  0  0  0999 V2000
   13.0080    4.9380   23.0970 C   0  0  0  0  0  0  0  0  0  0  0  0
   11.8600    4.0100   23.0500 C   0  0  0  0  0  0  0  0  0  0  0  0
   12.1390    2.6610   22.9230 C   0  0  0  0  0  0  0  0  0  0  0  0
   10.7520    2.7790   23.5810 C   0  0  0  0  0  0  0  0  0  0  0  0
   10.2500    4.0000   23.8170 F   0  0  0  0  0  0  0  0  0  0  0  0
   10.0930    1.6500   23.8930 N   0  0  0  0  0  0  0  0  0  0  0  0
   10.7620    0.5750   23.5660 C   0  0  0  0  0  0  0  0  0  0  0  0
   10.3960   -0.8730   23.7200 C   0  0  0  0  0  0  0  0  0  0  0  0
    9.2130   -1.3540   24.2810 O   0  0  0  0  0  0  0  0  0  0  0  0
    8.1980   -1.9760   23.5450 C   0  0  0  0  0  0  0  0  0  0  0  0
    8.2370   -3.4820   23.5340 C   0  0  0  0  0  0  0  0  0  0  0  0
    7.1080   -4.1360   22.7430 C   0  0  0  0  0  0  0  0  0  0  0  0
    7.1050   -5.6720   22.7100 C   0  0  0  0  0  0  0  0  0  0  0  0
    6.1610   -3.3340   22.1080 C   0  0  0  0  0  0  0  0  0  0  0  0
    6.2860   -1.9390   22.2220 C   0  0  0  0  0  0  0  0  0  0  0  0
    7.2450   -1.2580   22.9000 N   0  0  0  0  0  0  0  0  0  0  0  0
   11.3530   -1.7660   23.2520 C   0  0  0  0  0  0  0  0  0  0  0  0
   12.5440   -1.2820   22.7000 C   0  0  0  0  0  0  0  0  0  0  0  0
   13.4440   -2.1480   22.2530 F   0  0  0  0  0  0  0  0  0  0  0  0
   12.8360    0.0790   22.5910 C   0  0  0  0  0  0  0  0  0  0  0  0
   11.9520    1.0690   23.0120 C   0  0  0  0  0  0  0  0  0  0  0  0
  1  2  1  0
  2  3  1  0
  3  4  2  0
  4  5  1  0
  4  6  1  0
  6  7  1  0
  7  8  1  0
  8  9  1  0
  9 10  1  0
 10 11  2  0
 11 12  1  0
 12 13  1  0
 12 14  2  0
 14 15  1  0
 10 16  1  0
 15 16  2  0
  8 17  2  0
 17 18  1  0
 18 19  1  0
 18 20  2  0
  3 21  1  0
  7 21  2  0
 20 21  1  0
M  END
