BEN-VAN-3ef6186a-2
     RDKit          3D

 28 31  0  0  0  0  0  0  0  0999 V2000
   13.3410   -2.4250   23.6650 C   0  0  0  0  0  0  0  0  0  0  0  0
   13.1120   -1.6190   22.5210 O   0  0  0  0  0  0  0  0  0  0  0  0
   12.4920   -0.4030   22.6670 C   0  0  0  0  0  0  0  0  0  0  0  0
   13.1360    0.8010   22.5690 C   0  0  0  0  0  0  0  0  0  0  0  0
   12.5550    2.2550   22.6770 C   0  0  0  0  0  0  0  0  0  0  0  0
   13.0840    3.5620   22.5230 N   0  0  0  0  0  0  0  0  0  0  0  0
   13.0840    4.5690   23.4750 C   0  0  0  0  0  0  0  0  0  0  0  0
   12.6140    4.2540   21.4540 C   0  0  0  0  0  0  0  0  0  0  0  0
   11.3060    2.1720   22.9440 C   0  0  0  0  0  0  0  0  0  0  0  0
   10.4340    3.3710   23.1620 C   0  0  0  0  0  0  0  0  0  0  0  0
    9.1800    2.9800   23.4260 C   0  0  0  0  0  0  0  0  0  0  0  0
    7.8150    4.1480   23.7540 S   0  0  0  0  0  0  0  0  0  0  0  0
    8.3630    5.5420   22.7000 C   0  0  0  0  0  0  0  0  0  0  0  0
    9.1990    1.4880   23.3780 N   0  0  0  0  0  0  0  0  0  0  0  0
   10.5830    1.0060   23.0660 C   0  0  0  0  0  0  0  0  0  0  0  0
   11.1130   -0.3890   22.9120 C   0  0  0  0  0  0  0  0  0  0  0  0
   10.4690   -1.4230   22.9850 O   0  0  0  0  0  0  0  0  0  0  0  0
    9.2050   -1.4060   22.4080 C   0  0  0  0  0  0  0  0  0  0  0  0
    8.5580   -2.6350   22.4920 C   0  0  0  0  0  0  0  0  0  0  0  0
    7.2890   -2.8510   22.0080 C   0  0  0  0  0  0  0  0  0  0  0  0
    6.7040   -4.0940   22.1370 C   0  0  0  0  0  0  0  0  0  0  0  0
    5.3560   -4.2580   22.4230 C   0  0  0  0  0  0  0  0  0  0  0  0
    5.1140   -5.6730   22.4820 N   0  0  0  0  0  0  0  0  0  0  0  0
    6.4260   -6.2640   22.2130 C   0  0  0  0  0  0  0  0  0  0  0  0
    7.3350   -5.3060   22.0120 N   0  0  0  0  0  0  0  0  0  0  0  0
    6.6330   -1.7890   21.3960 C   0  0  0  0  0  0  0  0  0  0  0  0
    7.3700   -0.4470   21.3090 C   0  0  0  0  0  0  0  0  0  0  0  0
    8.6140   -0.2090   21.7880 N   0  0  0  0  0  0  0  0  0  0  0  0
  1  2  1  0
  2  3  1  0
  3  4  2  0
  4  5  1  0
  5  6  1  0
  6  7  1  0
  6  8  1  0
  5  9  2  0
  9 10  1  0
 10 11  2  0
 11 12  1  0
 12 13  1  0
 11 14  1  0
  9 15  1  0
 14 15  1  0
  3 16  1  0
 15 16  2  0
 16 17  1  0
 17 18  1  0
 18 19  2  0
 19 20  1  0
 20 21  1  0
 21 22  2  0
 22 23  1  0
 23 24  2  0
 21 25  1  0
 24 25  1  0
 20 26  2  0
 26 27  1  0
 18 28  1  0
 27 28  2  0
M  END
