BEN-VAN-c986b20b-7
     RDKit          3D

 27 29  0  0  0  0  0  0  0  0999 V2000
    7.5750    1.2840   25.3780 C   0  0  0  0  0  0  0  0  0  0  0  0
    8.2680    2.1540   24.3760 C   0  0  0  0  0  0  0  0  0  0  0  0
    9.4940    2.1390   24.3440 O   0  0  0  0  0  0  0  0  0  0  0  0
   10.0090    0.9570   23.8830 C   0  0  0  0  0  0  0  0  0  0  0  0
    9.3060   -0.3430   24.0590 C   0  0  0  0  0  0  0  0  0  0  0  0
    9.9600   -1.5570   23.5070 C   0  0  0  0  0  0  0  0  0  0  0  0
    9.1420   -2.7950   23.7270 C   0  0  0  0  0  0  0  0  0  0  0  0
    8.0610   -2.8940   22.7850 N   0  0  0  0  0  0  0  0  0  0  0  0
    6.7640   -3.1600   23.3890 C   0  0  0  0  0  0  0  0  0  0  0  0
    5.6490   -3.2000   22.3580 C   0  0  0  0  0  0  0  0  0  0  0  0
    5.9780   -2.4700   21.1330 N   0  0  0  0  0  0  0  0  0  0  0  0
    5.7220   -2.9610   19.8700 C   0  0  0  0  0  0  0  0  0  0  0  0
    5.9170   -2.0950   18.8170 C   0  0  0  0  0  0  0  0  0  0  0  0
    5.3420   -4.1220   19.6810 O   0  0  0  0  0  0  0  0  0  0  0  0
    6.8560   -1.4100   21.2820 C   0  0  0  0  0  0  0  0  0  0  0  0
    8.0890   -1.8240   21.7710 C   0  0  0  0  0  0  0  0  0  0  0  0
   11.1940   -1.4640   22.8840 C   0  0  0  0  0  0  0  0  0  0  0  0
   11.8360   -0.2440   22.7640 C   0  0  0  0  0  0  0  0  0  0  0  0
   13.3500   -0.5080   22.0250 Cl  0  0  0  0  0  0  0  0  0  0  0  0
   11.2260    0.9870   23.2290 C   0  0  0  0  0  0  0  0  0  0  0  0
   11.7860    2.4000   23.0530 C   0  0  0  0  0  0  0  0  0  0  0  0
   10.6760    3.4560   23.0830 C   0  0  0  0  0  0  0  0  0  0  0  0
   11.1670    4.7880   22.9110 C   0  0  0  0  0  0  0  0  0  0  0  0
   10.2350    5.8040   22.9310 C   0  0  0  0  0  0  0  0  0  0  0  0
   12.4530    5.0630   22.7370 N   0  0  0  0  0  0  0  0  0  0  0  0
   13.2890    4.0150   22.7320 C   0  0  0  0  0  0  0  0  0  0  0  0
   13.0360    2.6960   22.8810 N   0  0  0  0  0  0  0  0  0  0  0  0
  1  2  1  0
  2  3  1  0
  3  4  1  0
  4  5  2  0
  5  6  1  0
  6  7  1  0
  7  8  1  0
  8  9  1  0
  9 10  1  0
 10 11  1  0
 11 12  1  0
 12 13  1  0
 12 14  2  0
 11 15  1  0
  8 16  1  0
 15 16  1  0
  6 17  2  0
 17 18  1  0
 18 19  1  0
  4 20  1  0
 18 20  2  0
 20 21  1  0
 21 22  2  0
 22 23  1  0
 23 24  1  0
 23 25  2  0
 25 26  1  0
 21 27  1  0
 26 27  2  0
M  END
