BEN-VAN-ed886787-9
     RDKit          3D

 30 32  0  0  0  0  0  0  0  0999 V2000
    3.6990   -1.4090   32.8190 C   0  0  0  0  0  0  0  0  0  0  0  0
    4.5950   -0.5220   31.9910 C   0  0  0  0  0  0  0  0  0  0  0  0
    4.9760   -1.1650   30.8240 N   0  0  0  0  0  0  0  0  0  0  0  0
    5.7920   -0.6240   29.7970 C   0  0  0  0  0  0  0  0  0  0  0  0
    7.0260   -0.0100   30.0410 C   0  0  0  0  0  0  0  0  0  0  0  0
    7.7800    0.5040   29.0040 C   0  0  0  0  0  0  0  0  0  0  0  0
    7.2800    0.3910   27.7410 C   0  0  0  0  0  0  0  0  0  0  0  0
    8.0140    0.8930   26.7130 F   0  0  0  0  0  0  0  0  0  0  0  0
    6.0520   -0.2230   27.4870 C   0  0  0  0  0  0  0  0  0  0  0  0
    5.5640   -0.3220   26.0400 C   0  0  0  0  0  0  0  0  0  0  0  0
    6.5620   -1.2260   25.3120 C   0  0  0  0  0  0  0  0  0  0  0  0
    6.3590   -2.6650   25.3000 C   0  0  0  0  0  0  0  0  0  0  0  0
    6.9930   -3.8110   24.7910 C   0  0  0  0  0  0  0  0  0  0  0  0
    6.5920   -5.1380   24.9350 C   0  0  0  0  0  0  0  0  0  0  0  0
    6.5930   -5.6420   26.3860 C   0  0  0  0  0  0  0  0  0  0  0  0
    8.1270   -3.4580   24.1070 C   0  0  0  0  0  0  0  0  0  0  0  0
    8.5290   -1.9530   24.0070 C   0  0  0  0  0  0  0  0  0  0  0  0
    9.6890   -1.7040   23.3200 N   0  0  0  0  0  0  0  0  0  0  0  0
    9.3230   -1.6510   21.9080 C   0  0  0  0  0  0  0  0  0  0  0  0
    8.4530   -0.4750   21.4730 C   0  0  0  0  0  0  0  0  0  0  0  0
    8.9680    0.6400   21.4040 O   0  0  0  0  0  0  0  0  0  0  0  0
    7.0880   -0.7110   21.1560 N   0  0  0  0  0  0  0  0  0  0  0  0
    6.4610   -0.0350   20.0580 C   0  0  0  0  0  0  0  0  0  0  0  0
    5.1980    0.7160   20.4270 C   0  0  0  0  0  0  0  0  0  0  0  0
    4.5150    1.4550   19.3060 C   0  0  0  0  0  0  0  0  0  0  0  0
    5.2050    1.3400   17.9460 C   0  0  0  0  0  0  0  0  0  0  0  0
    6.3310    0.6350   17.7350 N   0  0  0  0  0  0  0  0  0  0  0  0
    6.9260   -0.0260   18.7610 C   0  0  0  0  0  0  0  0  0  0  0  0
    7.7420   -0.8950   24.6040 C   0  0  0  0  0  0  0  0  0  0  0  0
    5.2960   -0.7360   28.5210 N   0  0  0  0  0  0  0  0  0  0  0  0
  1  2  1  0
  2  3  1  0
  3  4  1  0
  4  5  2  0
  5  6  1  0
  6  7  2  0
  7  8  1  0
  7  9  1  0
  9 10  1  0
 10 11  1  0
 11 12  2  0
 12 13  1  0
 13 14  1  0
 14 15  1  0
 13 16  2  0
 16 17  1  0
 17 18  1  0
 18 19  1  0
 19 20  1  0
 20 21  2  0
 20 22  1  0
 22 23  1  0
 23 24  2  0
 24 25  1  0
 25 26  2  0
 26 27  1  0
 23 28  1  0
 27 28  2  0
 11 29  1  0
 17 29  2  0
  4 30  1  0
  9 30  2  0
M  END
