BEN-VAN-d8fd1356-28
     RDKit          3D

 24 26  0  0  0  0  0  0  0  0999 V2000
   13.1080    6.1080   22.1930 C   0  0  0  0  0  0  0  0  0  0  0  0
   12.3180    4.8800   22.0640 C   0  0  0  0  0  0  0  0  0  0  0  0
   12.3900    4.0310   23.1440 C   0  0  0  0  0  0  0  0  0  0  0  0
   12.3070    2.6430   23.0310 C   0  0  0  0  0  0  0  0  0  0  0  0
   10.9310    2.9070   23.4270 C   0  0  0  0  0  0  0  0  0  0  0  0
   10.3100    4.4860   23.7280 Cl  0  0  0  0  0  0  0  0  0  0  0  0
   10.0630    1.8850   23.5680 N   0  0  0  0  0  0  0  0  0  0  0  0
   10.7050    0.7820   23.2810 C   0  0  0  0  0  0  0  0  0  0  0  0
   10.2150   -0.6920   23.2570 C   0  0  0  0  0  0  0  0  0  0  0  0
    9.0170   -0.8330   23.5560 O   0  0  0  0  0  0  0  0  0  0  0  0
    8.3480   -2.0710   23.9060 C   0  0  0  0  0  0  0  0  0  0  0  0
    6.9190   -1.8360   23.5790 C   0  0  0  0  0  0  0  0  0  0  0  0
    6.1480   -2.8930   23.9080 C   0  0  0  0  0  0  0  0  0  0  0  0
    6.6180   -4.0090   23.2640 N   0  0  0  0  0  0  0  0  0  0  0  0
    5.7000   -4.5400   22.3390 C   0  0  0  0  0  0  0  0  0  0  0  0
    5.9310   -5.8200   21.7860 C   0  0  0  0  0  0  0  0  0  0  0  0
    4.5310   -3.8360   21.9220 O   0  0  0  0  0  0  0  0  0  0  0  0
    8.0600   -4.3030   23.2510 C   0  0  0  0  0  0  0  0  0  0  0  0
    8.9150   -3.1910   23.3090 C   0  0  0  0  0  0  0  0  0  0  0  0
   11.1860   -1.6480   22.8930 C   0  0  0  0  0  0  0  0  0  0  0  0
   12.5060   -1.2830   22.5780 C   0  0  0  0  0  0  0  0  0  0  0  0
   13.3970   -2.2080   22.2320 F   0  0  0  0  0  0  0  0  0  0  0  0
   12.8860    0.0530   22.6210 C   0  0  0  0  0  0  0  0  0  0  0  0
   11.9950    1.2000   22.9760 C   0  0  0  0  0  0  0  0  0  0  0  0
  1  2  1  0
  2  3  1  0
  3  4  1  0
  4  5  2  0
  5  6  1  0
  5  7  1  0
  7  8  1  0
  8  9  1  0
  9 10  1  0
 10 11  1  0
 11 12  1  0
 12 13  1  0
 13 14  1  0
 14 15  1  0
 15 16  1  0
 15 17  2  0
 14 18  1  0
 11 19  1  0
 18 19  1  0
  9 20  2  0
 20 21  1  0
 21 22  1  0
 21 23  2  0
  4 24  1  0
  8 24  2  0
 23 24  1  0
M  END
