BEN-VAN-c986b20b-13
     RDKit          3D

 25 27  0  0  0  0  0  0  0  0999 V2000
    5.9920   -1.9860   18.9480 C   0  0  0  0  0  0  0  0  0  0  0  0
    5.8980   -3.0030   20.0660 C   0  0  0  0  0  0  0  0  0  0  0  0
    5.3930   -4.1140   19.8610 O   0  0  0  0  0  0  0  0  0  0  0  0
    6.4640   -2.5900   21.2700 N   0  0  0  0  0  0  0  0  0  0  0  0
    6.5560   -3.5010   22.4240 C   0  0  0  0  0  0  0  0  0  0  0  0
    7.5170   -3.0880   23.3600 C   0  0  0  0  0  0  0  0  0  0  0  0
    8.6880   -2.7830   22.8610 N   0  0  0  0  0  0  0  0  0  0  0  0
    9.8140   -2.6440   23.8360 C   0  0  0  0  0  0  0  0  0  0  0  0
   10.4100   -1.3940   23.7000 C   0  0  0  0  0  0  0  0  0  0  0  0
    9.6540   -0.3340   24.1870 C   0  0  0  0  0  0  0  0  0  0  0  0
   10.1730    1.0370   24.0330 C   0  0  0  0  0  0  0  0  0  0  0  0
   11.4720    1.1810   23.3540 C   0  0  0  0  0  0  0  0  0  0  0  0
   11.6620    2.7120   23.2800 C   0  0  0  0  0  0  0  0  0  0  0  0
   12.8210    3.4400   22.6680 C   0  0  0  0  0  0  0  0  0  0  0  0
   12.5900    4.9360   22.7510 C   0  0  0  0  0  0  0  0  0  0  0  0
   13.5790    5.7220   22.1920 C   0  0  0  0  0  0  0  0  0  0  0  0
   11.5330    5.5530   23.2990 N   0  0  0  0  0  0  0  0  0  0  0  0
   10.5650    4.7000   23.8290 C   0  0  0  0  0  0  0  0  0  0  0  0
   10.6020    3.3630   23.8280 N   0  0  0  0  0  0  0  0  0  0  0  0
   12.1650    0.0440   22.9430 C   0  0  0  0  0  0  0  0  0  0  0  0
   13.3540    0.1470   22.3510 F   0  0  0  0  0  0  0  0  0  0  0  0
   11.7300   -1.2750   23.0700 C   0  0  0  0  0  0  0  0  0  0  0  0
   12.7660   -2.4910   22.4690 Cl  0  0  0  0  0  0  0  0  0  0  0  0
    8.6170   -1.7090   21.8480 C   0  0  0  0  0  0  0  0  0  0  0  0
    7.3440   -1.4150   21.3630 C   0  0  0  0  0  0  0  0  0  0  0  0
  1  2  1  0
  2  3  2  0
  2  4  1  0
  4  5  1  0
  5  6  1  0
  6  7  1  0
  7  8  1  0
  8  9  1  0
  9 10  2  0
 10 11  1  0
 11 12  2  0
 12 13  1  0
 13 14  2  0
 14 15  1  0
 15 16  1  0
 15 17  2  0
 17 18  1  0
 13 19  1  0
 18 19  2  0
 12 20  1  0
 20 21  1  0
  9 22  1  0
 20 22  2  0
 22 23  1  0
  7 24  1  0
  4 25  1  0
 24 25  1  0
M  END
