BEN-VAN-ed886787-15
     RDKit          3D

 29 31  0  0  0  0  0  0  0  0999 V2000
   11.3140    3.6970   22.1790 C   0  0  0  0  0  0  0  0  0  0  0  0
   10.7210    3.4080   23.5040 C   0  0  0  0  0  0  0  0  0  0  0  0
   10.4850    2.1040   23.8910 N   0  0  0  0  0  0  0  0  0  0  0  0
   11.4310    1.2500   23.3690 C   0  0  0  0  0  0  0  0  0  0  0  0
   12.7320    1.7490   23.1370 C   0  0  0  0  0  0  0  0  0  0  0  0
   13.5750    0.6760   22.5700 C   0  0  0  0  0  0  0  0  0  0  0  0
   13.0040   -0.7060   22.3070 C   0  0  0  0  0  0  0  0  0  0  0  0
   13.7780   -1.6020   21.7680 F   0  0  0  0  0  0  0  0  0  0  0  0
   11.7500   -1.1850   22.5600 C   0  0  0  0  0  0  0  0  0  0  0  0
   10.4580   -1.3460   22.9310 C   0  0  0  0  0  0  0  0  0  0  0  0
   10.2930   -0.9220   24.2700 C   0  0  0  0  0  0  0  0  0  0  0  0
   11.3190   -0.6410   25.0640 C   0  0  0  0  0  0  0  0  0  0  0  0
   10.0650   -0.8450   24.5340 C   0  0  0  0  0  0  0  0  0  0  0  0
   10.0570   -1.2860   23.1800 N   0  0  0  0  0  0  0  0  0  0  0  0
    8.8470   -1.5610   22.3330 C   0  0  0  0  0  0  0  0  0  0  0  0
    8.3390   -0.4660   21.6430 C   0  0  0  0  0  0  0  0  0  0  0  0
    8.9780    0.5750   21.4820 O   0  0  0  0  0  0  0  0  0  0  0  0
    7.0600   -0.7000   21.1830 N   0  0  0  0  0  0  0  0  0  0  0  0
    6.4280   -0.0010   20.0630 C   0  0  0  0  0  0  0  0  0  0  0  0
    5.2830    0.6930   20.3180 C   0  0  0  0  0  0  0  0  0  0  0  0
    4.6220    1.4330   19.1740 C   0  0  0  0  0  0  0  0  0  0  0  0
    5.1670    1.4080   17.8970 C   0  0  0  0  0  0  0  0  0  0  0  0
    6.3040    0.6970   17.6980 N   0  0  0  0  0  0  0  0  0  0  0  0
    6.8900    0.0280   18.7470 C   0  0  0  0  0  0  0  0  0  0  0  0
    9.0400   -0.7020   25.0710 C   0  0  0  0  0  0  0  0  0  0  0  0
    7.6610   -0.8940   24.5900 C   0  0  0  0  0  0  0  0  0  0  0  0
    8.9640   -0.6430   25.2650 C   0  0  0  0  0  0  0  0  0  0  0  0
    8.8630   -0.1450   26.8800 Cl  0  0  0  0  0  0  0  0  0  0  0  0
   11.1330   -0.0300   23.0860 N   0  0  0  0  0  0  0  0  0  0  0  0
  1  2  1  0
  2  3  1  0
  3  4  1  0
  4  5  2  0
  5  6  1  0
  6  7  2  0
  7  8  1  0
  7  9  1  0
  9 10  1  0
 10 11  1  0
 11 12  2  0
 12 13  1  0
 13 14  1  0
 14 15  1  0
 15 16  1  0
 16 17  2  0
 16 18  1  0
 18 19  1  0
 19 20  2  0
 20 21  1  0
 21 22  2  0
 22 23  1  0
 19 24  1  0
 23 24  2  0
 13 25  2  0
 25 26  1  0
 11 27  1  0
 26 27  2  0
 27 28  1  0
  4 29  1  0
  9 29  2  0
M  END
