BEN-DND-362d364a-11
     RDKit          3D

 24 26  0  0  0  0  0  0  0  0999 V2000
   13.7310    0.0930   22.2150 O   0  0  0  0  0  0  0  0  0  0  0  0
   13.5040   -0.7890   21.3980 C   0  0  0  0  0  0  0  0  0  0  0  0
   12.5120   -1.8050   21.6940 C   0  0  0  0  0  0  0  0  0  0  0  0
   11.7810   -1.3730   22.7800 N   0  0  0  0  0  0  0  0  0  0  0  0
   10.7800   -2.2020   23.4150 C   0  0  0  0  0  0  0  0  0  0  0  0
   10.1420   -1.5290   24.6000 C   0  0  0  0  0  0  0  0  0  0  0  0
   10.7130   -0.3360   25.0130 C   0  0  0  0  0  0  0  0  0  0  0  0
   11.6790    0.4570   24.1750 C   0  0  0  0  0  0  0  0  0  0  0  0
   11.3880   -0.0080   22.7980 C   0  0  2  0  0  0  0  0  0  0  0  0
    9.9170    0.3440   22.4630 C   0  0  0  0  0  0  0  0  0  0  0  0
    9.1560    1.4930   22.9810 N   0  0  0  0  0  0  0  0  0  0  0  0
    8.0210    1.0170   23.7930 C   0  0  0  0  0  0  0  0  0  0  0  0
    6.8660    1.7670   23.5770 C   0  0  0  0  0  0  0  0  0  0  0  0
    6.9980    3.1350   23.3600 C   0  0  0  0  0  0  0  0  0  0  0  0
    5.8780    3.8710   23.0460 O   0  0  0  0  0  0  0  0  0  0  0  0
    7.9740    3.4990   22.4400 C   0  0  0  0  0  0  0  0  0  0  0  0
    8.7560    2.4510   21.9520 C   0  0  0  0  0  0  0  0  0  0  0  0
   14.1510   -0.8520   20.1540 N   0  0  0  0  0  0  0  0  0  0  0  0
   14.6400    0.3530   19.5020 C   0  0  0  0  0  0  0  0  0  0  0  0
   15.2040    1.4590   20.1780 C   0  0  0  0  0  0  0  0  0  0  0  0
   15.7060    2.7570   19.4740 C   0  0  0  0  0  0  0  0  0  0  0  0
   15.4540    2.7790   18.0730 C   0  0  0  0  0  0  0  0  0  0  0  0
   14.9310    1.7860   17.5770 N   0  0  0  0  0  0  0  0  0  0  0  0
   14.5570    0.6660   18.1990 C   0  0  0  0  0  0  0  0  0  0  0  0
  1  2  2  0
  2  3  1  0
  3  4  1  0
  4  5  1  0
  5  6  1  0
  6  7  1  0
  7  8  1  0
  4  9  1  0
  8  9  1  0
  9 10  1  1
 10 11  1  0
 11 12  1  0
 12 13  1  0
 13 14  1  0
 14 15  1  0
 14 16  1  0
 11 17  1  0
 16 17  1  0
  2 18  1  0
 18 19  1  0
 19 20  2  0
 20 21  1  0
 21 22  2  0
 22 23  1  0
 19 24  1  0
 23 24  2  0
M  END
