BEN-VAN-5787f7d3-11
     RDKit          3D

 27 30  0  0  0  0  0  0  0  0999 V2000
    6.8850   -2.5950   24.9810 C   0  0  0  0  0  0  0  0  0  0  0  0
    7.8610   -2.5950   23.9790 C   0  0  0  0  0  0  0  0  0  0  0  0
    7.5090   -2.3860   22.6240 C   0  0  0  0  0  0  0  0  0  0  0  0
    8.2220   -1.3470   21.8150 C   0  0  0  0  0  0  0  0  0  0  0  0
    8.0010   -1.0310   20.5000 N   0  0  0  0  0  0  0  0  0  0  0  0
    6.9880   -1.9690   20.2580 C   0  0  0  0  0  0  0  0  0  0  0  0
    7.6650   -1.7900   21.6590 C   0  0  0  0  0  0  0  0  0  0  0  0
    9.1270   -2.3200   21.7810 C   0  0  0  0  0  0  0  0  0  0  0  0
    9.9700   -2.2470   22.8880 N   0  0  0  0  0  0  0  0  0  0  0  0
    9.2640   -1.5590   24.0300 C   0  0  0  0  0  0  0  0  0  0  0  0
    7.9190   -1.0820   23.9030 C   0  0  0  0  0  0  0  0  0  0  0  0
    7.0990   -1.1720   22.7700 C   0  0  0  0  0  0  0  0  0  0  0  0
    5.7970   -0.6500   22.7850 C   0  0  0  0  0  0  0  0  0  0  0  0
    6.2000   -2.9500   20.7350 C   0  0  0  0  0  0  0  0  0  0  0  0
    6.4580   -3.1820   22.0400 C   0  0  0  0  0  0  0  0  0  0  0  0
    5.7090   -4.1240   22.7210 C   0  0  0  0  0  0  0  0  0  0  0  0
    5.7060   -5.6110   22.3150 C   0  0  0  0  0  0  0  0  0  0  0  0
    4.7370   -6.2620   23.3350 C   0  0  0  0  0  0  0  0  0  0  0  0
    4.0360   -5.6430   24.3790 C   0  0  0  0  0  0  0  0  0  0  0  0
    4.1460   -4.2900   24.6180 C   0  0  0  0  0  0  0  0  0  0  0  0
    3.4790   -3.5850   25.6600 N   0  0  0  0  0  0  0  0  0  0  0  0
    2.0260   -3.6500   25.8750 C   0  0  0  0  0  0  0  0  0  0  0  0
    1.7150   -2.6270   26.7870 C   0  0  0  0  0  0  0  0  0  0  0  0
    2.8570   -1.9460   27.1260 C   0  0  0  0  0  0  0  0  0  0  0  0
    4.0230   -2.5300   26.3460 C   0  0  0  0  0  0  0  0  0  0  0  0
    5.1560   -2.0870   26.3890 O   0  0  0  0  0  0  0  0  0  0  0  0
    4.9750   -3.5810   23.7760 C   0  0  0  0  0  0  0  0  0  0  0  0
  1  2  1  0
  2  3  1  0
  3  4  2  0
  4  5  1  0
  5  6  2  0
  6  7  1  0
  7  8  2  0
  8  9  1  0
  9 10  2  0
 10 11  1  0
  7 12  1  0
 11 12  2  0
 12 13  1  0
  6 14  1  0
  3 15  1  0
 14 15  2  0
 15 16  1  0
 16 17  2  0
 17 18  1  0
 18 19  2  0
 19 20  1  0
 20 21  1  0
 21 22  1  0
 22 23  1  0
 23 24  1  0
 21 25  1  0
 24 25  1  0
 25 26  2  0
 16 27  1  0
 20 27  2  0
M  END
