BEN-VAN-d8fd1356-21
     RDKit          3D

 22 24  0  0  0  0  0  0  0  0999 V2000
   11.8780    4.9100   23.9050 C   0  0  0  0  0  0  0  0  0  0  0  0
   12.5850    4.1640   23.0400 C   0  0  0  0  0  0  0  0  0  0  0  0
   12.4750    2.6960   22.8980 C   0  0  0  0  0  0  0  0  0  0  0  0
   11.0940    3.0850   23.0020 C   0  0  0  0  0  0  0  0  0  0  0  0
   10.1890    2.1120   22.9370 N   0  0  0  0  0  0  0  0  0  0  0  0
   10.7560    0.9460   22.7800 C   0  0  0  0  0  0  0  0  0  0  0  0
   10.1520   -0.4150   22.6360 C   0  0  0  0  0  0  0  0  0  0  0  0
    8.6810   -0.6300   22.6370 C   0  0  0  0  0  0  0  0  0  0  0  0
    7.9390   -0.1040   21.4520 N   0  0  0  0  0  0  0  0  0  0  0  0
    7.6300   -1.1820   20.5190 C   0  0  0  0  0  0  0  0  0  0  0  0
    7.0640   -0.7530   19.1600 C   0  0  0  0  0  0  0  0  0  0  0  0
    6.6050    0.6150   19.1810 N   0  0  0  0  0  0  0  0  0  0  0  0
    5.7370    1.1470   18.2920 C   0  0  0  0  0  0  0  0  0  0  0  0
    4.3690    1.5860   18.8100 C   0  0  0  0  0  0  0  0  0  0  0  0
    6.0720    1.2540   17.1220 O   0  0  0  0  0  0  0  0  0  0  0  0
    6.9750    1.3510   20.4140 C   0  0  0  0  0  0  0  0  0  0  0  0
    6.7860    0.5620   21.7410 C   0  0  0  0  0  0  0  0  0  0  0  0
   11.0930   -1.4400   22.4930 C   0  0  0  0  0  0  0  0  0  0  0  0
   12.5900   -1.1100   22.4880 C   0  0  0  0  0  0  0  0  0  0  0  0
   13.4800   -2.0860   22.3420 F   0  0  0  0  0  0  0  0  0  0  0  0
   13.0250    0.2110   22.6250 C   0  0  0  0  0  0  0  0  0  0  0  0
   12.1230    1.2620   22.7690 C   0  0  0  0  0  0  0  0  0  0  0  0
  1  2  1  0
  2  3  1  0
  3  4  2  0
  4  5  1  0
  5  6  1  0
  6  7  1  0
  7  8  1  0
  8  9  1  0
  9 10  1  0
 10 11  1  0
 11 12  1  0
 12 13  1  0
 13 14  1  0
 13 15  2  0
 12 16  1  0
  9 17  1  0
 16 17  1  0
  7 18  2  0
 18 19  1  0
 19 20  1  0
 19 21  2  0
  3 22  1  0
  6 22  2  0
 21 22  1  0
M  END
