BEN-VAN-ed886787-6
     RDKit          3D

 30 32  0  0  0  0  0  0  0  0999 V2000
   14.2890   -2.3320   25.8270 C   0  0  0  0  0  0  0  0  0  0  0  0
   13.5470   -3.4810   25.6360 C   0  0  0  0  0  0  0  0  0  0  0  0
   12.3580   -3.3490   25.3380 N   0  0  0  0  0  0  0  0  0  0  0  0
   12.4030   -2.6360   24.2230 C   0  0  0  0  0  0  0  0  0  0  0  0
   13.3510   -2.9080   23.2020 C   0  0  0  0  0  0  0  0  0  0  0  0
   13.3420   -2.1460   21.9750 C   0  0  0  0  0  0  0  0  0  0  0  0
   12.5410   -1.0390   21.5420 C   0  0  0  0  0  0  0  0  0  0  0  0
   13.4490   -1.4030   20.6270 F   0  0  0  0  0  0  0  0  0  0  0  0
   11.7000   -1.0140   22.8610 C   0  0  0  0  0  0  0  0  0  0  0  0
   10.6910    0.0840   22.8480 C   0  0  0  0  0  0  0  0  0  0  0  0
    9.9980    0.0200   24.0920 C   0  0  0  0  0  0  0  0  0  0  0  0
    9.9910   -0.1250   25.9770 C   0  0  0  0  0  0  0  0  0  0  0  0
    8.5040   -0.0170   26.1980 C   0  0  0  0  0  0  0  0  0  0  0  0
    7.1590    0.1740   25.1420 Cl  0  0  0  0  0  0  0  0  0  0  0  0
    9.5510   -0.0500   25.4910 C   0  0  0  0  0  0  0  0  0  0  0  0
    9.5260    0.0200   24.4160 C   0  0  0  0  0  0  0  0  0  0  0  0
    9.9870    0.0510   23.1280 N   0  0  0  0  0  0  0  0  0  0  0  0
    9.3310   -0.8270   22.0980 C   0  0  0  0  0  0  0  0  0  0  0  0
    8.3220   -0.1750   21.4190 C   0  0  0  0  0  0  0  0  0  0  0  0
    8.5390    0.9990   21.1080 O   0  0  0  0  0  0  0  0  0  0  0  0
    7.1580   -0.7800   21.0960 N   0  0  0  0  0  0  0  0  0  0  0  0
    6.6000   -0.1060   20.0880 C   0  0  0  0  0  0  0  0  0  0  0  0
    5.3900    0.6730   20.5630 C   0  0  0  0  0  0  0  0  0  0  0  0
    4.7320    1.4980   19.4620 C   0  0  0  0  0  0  0  0  0  0  0  0
    5.3830    1.4130   18.0760 C   0  0  0  0  0  0  0  0  0  0  0  0
    4.8800    2.1260   17.0990 F   0  0  0  0  0  0  0  0  0  0  0  0
    6.4470    0.6640   17.7980 N   0  0  0  0  0  0  0  0  0  0  0  0
    7.0200   -0.0630   18.7770 C   0  0  0  0  0  0  0  0  0  0  0  0
   11.0080   -0.0980   24.7070 C   0  0  0  0  0  0  0  0  0  0  0  0
   11.6040   -1.6890   24.0280 N   0  0  0  0  0  0  0  0  0  0  0  0
  1  2  1  0
  2  3  1  0
  3  4  1  0
  4  5  2  0
  5  6  1  0
  6  7  2  0
  7  8  1  0
  7  9  1  0
  9 10  1  0
 10 11  1  0
 11 12  2  0
 12 13  1  0
 13 14  1  0
 13 15  2  0
 15 16  1  0
 16 17  1  0
 17 18  1  0
 18 19  1  0
 19 20  2  0
 19 21  1  0
 21 22  1  0
 22 23  2  0
 23 24  1  0
 24 25  2  0
 25 26  1  0
 25 27  1  0
 22 28  1  0
 27 28  2  0
 11 29  1  0
 16 29  2  0
  4 30  1  0
  9 30  2  0
M  END
