BEN-DND-362d364a-2
     RDKit          3D

 30 32  0  0  0  0  0  0  0  0999 V2000
    2.0160    5.2280   25.7940 C   0  0  0  0  0  0  0  0  0  0  0  0
    2.2450    4.0280   25.0160 N   0  0  0  0  0  0  0  0  0  0  0  0
    2.8070    4.0570   23.7880 C   0  0  0  0  0  0  0  0  0  0  0  0
    2.5900    5.1730   23.0180 N   0  0  0  0  0  0  0  0  0  0  0  0
    3.1350    5.2420   21.7790 C   0  0  0  0  0  0  0  0  0  0  0  0
    3.9830    4.1490   21.1750 C   0  0  0  0  0  0  0  0  0  0  0  0
    4.2180    2.9190   22.0310 C   0  0  0  0  0  0  0  0  0  0  0  0
    3.5750    2.9250   23.4000 C   0  0  0  0  0  0  0  0  0  0  0  0
    3.8230    1.6640   24.2620 C   0  0  0  0  0  0  0  0  0  0  0  0
    4.8720    2.0210   25.3730 C   0  0  0  0  0  0  0  0  0  0  0  0
    6.2360    1.6240   25.0720 N   0  0  0  0  0  0  0  0  0  0  0  0
    7.0510    1.0210   26.0110 C   0  0  1  0  0  0  0  0  0  0  0  0
    6.3470   -0.2100   26.6220 C   0  0  0  0  0  0  0  0  0  0  0  0
    7.2740   -0.8780   27.5010 N   0  0  0  0  0  0  0  0  0  0  0  0
    7.1270   -0.7650   28.8700 C   0  0  0  0  0  0  0  0  0  0  0  0
    8.4250   -0.6850   29.6530 C   0  0  0  0  0  0  0  0  0  0  0  0
    6.0300   -0.7330   29.4320 O   0  0  0  0  0  0  0  0  0  0  0  0
    8.6390   -1.1190   26.9780 C   0  0  0  0  0  0  0  0  0  0  0  0
    9.1470   -0.0180   26.2940 C   0  0  0  0  0  0  0  0  0  0  0  0
    8.1710    0.5880   25.3820 N   0  0  0  0  0  0  0  0  0  0  0  0
    8.7070    1.5540   24.1320 S   0  0  0  0  0  0  0  0  0  0  0  0
    7.8070    1.3990   23.0100 O   0  0  0  0  0  0  0  0  0  0  0  0
    8.9640    2.8670   24.6760 O   0  0  0  0  0  0  0  0  0  0  0  0
   10.2530    0.8950   23.5450 C   0  0  0  0  0  0  0  0  0  0  0  0
   11.3860    1.6630   23.6190 C   0  0  0  0  0  0  0  0  0  0  0  0
   12.6170    1.2430   23.1720 C   0  0  0  0  0  0  0  0  0  0  0  0
   12.8300    0.0290   22.6170 C   0  0  0  0  0  0  0  0  0  0  0  0
   11.7570   -0.8620   22.4720 C   0  0  0  0  0  0  0  0  0  0  0  0
   12.0280   -2.3560   21.7560 Cl  0  0  0  0  0  0  0  0  0  0  0  0
   10.3820   -0.3870   22.9780 C   0  0  0  0  0  0  0  0  0  0  0  0
  1  2  1  0
  2  3  1  0
  3  4  2  0
  4  5  1  0
  5  6  2  0
  6  7  1  0
  3  8  1  0
  7  8  2  0
  8  9  1  0
  9 10  1  0
 10 11  1  0
 12 11  1  6
 12 13  1  0
 13 14  1  0
 14 15  1  0
 15 16  1  0
 15 17  2  0
 14 18  1  0
 18 19  1  0
 12 20  1  0
 19 20  1  0
 20 21  1  0
 21 22  2  0
 21 23  2  0
 21 24  1  0
 24 25  2  0
 25 26  1  0
 26 27  2  0
 27 28  1  0
 28 29  1  0
 24 30  1  0
 28 30  2  0
M  END
