BEN-VAN-ed886787-18
     RDKit          3D

 30 32  0  0  0  0  0  0  0  0999 V2000
    4.6780   10.9650   18.7490 C   0  0  0  0  0  0  0  0  0  0  0  0
    4.5250    9.6480   19.3840 C   0  0  0  0  0  0  0  0  0  0  0  0
    5.6150    9.0760   20.0370 N   0  0  0  0  0  0  0  0  0  0  0  0
    5.3860    7.7760   20.6870 C   0  0  0  0  0  0  0  0  0  0  0  0
    4.0750    7.3490   20.6060 C   0  0  0  0  0  0  0  0  0  0  0  0
    3.6800    6.1540   21.1580 C   0  0  0  0  0  0  0  0  0  0  0  0
    4.6440    5.2670   21.8640 C   0  0  0  0  0  0  0  0  0  0  0  0
    4.2670    4.1040   22.4010 F   0  0  0  0  0  0  0  0  0  0  0  0
    6.1020    5.8250   21.9070 C   0  0  0  0  0  0  0  0  0  0  0  0
    7.2210    5.0600   22.5760 C   0  0  0  0  0  0  0  0  0  0  0  0
    6.9030    3.6870   23.0600 C   0  0  0  0  0  0  0  0  0  0  0  0
    6.5050    2.7610   22.1410 C   0  0  0  0  0  0  0  0  0  0  0  0
    6.1810    1.4270   22.5000 C   0  0  0  0  0  0  0  0  0  0  0  0
    5.7760    0.4410   21.5820 N   0  0  0  0  0  0  0  0  0  0  0  0
    6.7330   -0.6330   21.2660 C   0  0  0  0  0  0  0  0  0  0  0  0
    8.0180   -0.2110   21.5910 C   0  0  0  0  0  0  0  0  0  0  0  0
    8.4220    0.8020   21.0180 O   0  0  0  0  0  0  0  0  0  0  0  0
    8.8090   -0.9080   22.5300 N   0  0  0  0  0  0  0  0  0  0  0  0
   10.1390   -0.6580   22.6010 C   0  0  0  0  0  0  0  0  0  0  0  0
   10.6820    0.4230   23.2450 C   0  0  0  0  0  0  0  0  0  0  0  0
   12.0820    0.6660   23.2510 C   0  0  0  0  0  0  0  0  0  0  0  0
   12.8980   -0.1980   22.6230 C   0  0  0  0  0  0  0  0  0  0  0  0
   12.2990   -1.3600   21.9430 C   0  0  0  0  0  0  0  0  0  0  0  0
   13.2430   -2.4410   21.1280 Cl  0  0  0  0  0  0  0  0  0  0  0  0
   10.9390   -1.5600   21.9500 C   0  0  0  0  0  0  0  0  0  0  0  0
    6.2760    1.0750   23.8500 C   0  0  0  0  0  0  0  0  0  0  0  0
    6.6790    2.0200   24.7770 C   0  0  0  0  0  0  0  0  0  0  0  0
    6.9960    3.3170   24.4150 C   0  0  0  0  0  0  0  0  0  0  0  0
    7.4900    4.4060   25.6740 Cl  0  0  0  0  0  0  0  0  0  0  0  0
    6.3790    7.0770   21.3000 N   0  0  0  0  0  0  0  0  0  0  0  0
  1  2  1  0
  2  3  1  0
  3  4  1  0
  4  5  2  0
  5  6  1  0
  6  7  2  0
  7  8  1  0
  7  9  1  0
  9 10  1  0
 10 11  1  0
 11 12  2  0
 12 13  1  0
 13 14  1  0
 14 15  1  0
 15 16  1  0
 16 17  2  0
 16 18  1  0
 18 19  1  0
 19 20  2  0
 20 21  1  0
 21 22  2  0
 22 23  1  0
 23 24  1  0
 19 25  1  0
 23 25  2  0
 13 26  2  0
 26 27  1  0
 11 28  1  0
 27 28  2  0
 28 29  1  0
  4 30  1  0
  9 30  2  0
M  END
