BEN-VAN-d8fd1356-7
     RDKit          3D

 25 28  0  0  0  0  0  0  0  0999 V2000
   12.3680    4.9670   21.8800 C   0  0  0  0  0  0  0  0  0  0  0  0
   12.4420    4.1750   23.1530 C   0  0  0  0  0  0  0  0  0  0  0  0
   12.3950    2.7180   23.0220 C   0  0  0  0  0  0  0  0  0  0  0  0
   11.0240    2.9680   23.3180 C   0  0  0  0  0  0  0  0  0  0  0  0
   10.1330    1.9760   23.3850 N   0  0  0  0  0  0  0  0  0  0  0  0
   10.7320    0.8410   23.1420 C   0  0  0  0  0  0  0  0  0  0  0  0
   10.2200   -0.4360   23.0810 C   0  0  0  0  0  0  0  0  0  0  0  0
    8.8720   -0.6990   23.2510 O   0  0  0  0  0  0  0  0  0  0  0  0
    8.2360   -0.8980   24.4660 C   0  0  0  0  0  0  0  0  0  0  0  0
    7.2480   -2.0610   24.4260 C   0  0  0  0  0  0  0  0  0  0  0  0
    6.4690   -2.3780   25.6860 C   0  0  0  0  0  0  0  0  0  0  0  0
    5.5180   -3.5230   25.5700 C   0  0  0  0  0  0  0  0  0  0  0  0
    4.7030   -4.5460   24.9300 C   0  0  0  0  0  0  0  0  0  0  0  0
    3.2980   -4.6500   25.0920 C   0  0  0  0  0  0  0  0  0  0  0  0
    2.8120   -5.6910   24.3750 N   0  0  0  0  0  0  0  0  0  0  0  0
    3.9150   -6.3020   23.7150 C   0  0  0  0  0  0  0  0  0  0  0  0
    5.1330   -5.5640   24.0710 N   0  0  0  0  0  0  0  0  0  0  0  0
    6.7090   -1.5800   26.8130 C   0  0  0  0  0  0  0  0  0  0  0  0
    7.7320   -0.4530   26.6940 C   0  0  0  0  0  0  0  0  0  0  0  0
    8.4530   -0.1340   25.5780 N   0  0  0  0  0  0  0  0  0  0  0  0
   11.1110   -1.4780   22.8060 C   0  0  0  0  0  0  0  0  0  0  0  0
   12.5980   -1.2450   22.5710 C   0  0  0  0  0  0  0  0  0  0  0  0
   13.4320   -2.2430   22.3030 F   0  0  0  0  0  0  0  0  0  0  0  0
   13.0390    0.1070   22.6450 C   0  0  0  0  0  0  0  0  0  0  0  0
   12.0750    1.2450   22.9400 C   0  0  0  0  0  0  0  0  0  0  0  0
  1  2  1  0
  2  3  1  0
  3  4  2  0
  4  5  1  0
  5  6  1  0
  6  7  1  0
  7  8  1  0
  8  9  1  0
  9 10  2  0
 10 11  1  0
 11 12  1  0
 12 13  1  0
 13 14  2  0
 14 15  1  0
 15 16  2  0
 13 17  1  0
 16 17  1  0
 11 18  2  0
 18 19  1  0
  9 20  1  0
 19 20  2  0
  7 21  2  0
 21 22  1  0
 22 23  1  0
 22 24  2  0
  3 25  1  0
  6 25  2  0
 24 25  1  0
M  END
