BEN-VAN-d8fd1356-1
     RDKit          3D

 24 26  0  0  0  0  0  0  0  0999 V2000
   11.9680    4.9490   23.7800 C   0  0  0  0  0  0  0  0  0  0  0  0
   12.2980    3.9060   22.7380 C   0  0  0  0  0  0  0  0  0  0  0  0
   11.9560    2.4840   22.9270 C   0  0  0  0  0  0  0  0  0  0  0  0
   10.6820    3.0280   23.3350 C   0  0  0  0  0  0  0  0  0  0  0  0
   10.4110    4.3410   23.3630 F   0  0  0  0  0  0  0  0  0  0  0  0
    9.7140    2.1610   23.7030 N   0  0  0  0  0  0  0  0  0  0  0  0
   10.0960    0.9220   23.6240 C   0  0  0  0  0  0  0  0  0  0  0  0
    9.4030   -0.2610   23.8950 C   0  0  0  0  0  0  0  0  0  0  0  0
    8.0810   -0.2650   24.3040 O   0  0  0  0  0  0  0  0  0  0  0  0
    7.1630    0.0410   23.2860 C   0  0  0  0  0  0  0  0  0  0  0  0
    6.9160   -1.0450   22.2360 C   0  0  0  0  0  0  0  0  0  0  0  0
    5.9080   -0.5940   21.1750 C   0  0  0  0  0  0  0  0  0  0  0  0
    5.5990   -1.5900   20.0970 C   0  0  0  0  0  0  0  0  0  0  0  0
    5.3300    0.6770   21.2340 C   0  0  0  0  0  0  0  0  0  0  0  0
    4.2100    1.1900   20.0500 Cl  0  0  0  0  0  0  0  0  0  0  0  0
    5.6540    1.5790   22.2730 C   0  0  0  0  0  0  0  0  0  0  0  0
    6.5530    1.2490   23.2690 N   0  0  0  0  0  0  0  0  0  0  0  0
   10.0820   -1.4680   23.7370 C   0  0  0  0  0  0  0  0  0  0  0  0
   11.4980   -1.4890   23.2830 C   0  0  0  0  0  0  0  0  0  0  0  0
   12.2570   -2.5660   23.1100 O   0  0  0  0  0  0  0  0  0  0  0  0
   13.3070   -2.7010   24.0610 C   0  0  0  0  0  0  0  0  0  0  0  0
   12.0680   -0.2630   23.0250 C   0  0  0  0  0  0  0  0  0  0  0  0
   13.6030   -0.2130   22.4920 Cl  0  0  0  0  0  0  0  0  0  0  0  0
   11.4140    1.0760   23.1810 C   0  0  0  0  0  0  0  0  0  0  0  0
  1  2  1  0
  2  3  1  0
  3  4  2  0
  4  5  1  0
  4  6  1  0
  6  7  1  0
  7  8  1  0
  8  9  1  0
  9 10  1  0
 10 11  2  0
 11 12  1  0
 12 13  1  0
 12 14  2  0
 14 15  1  0
 14 16  1  0
 10 17  1  0
 16 17  2  0
  8 18  2  0
 18 19  1  0
 19 20  1  0
 20 21  1  0
 19 22  2  0
 22 23  1  0
  3 24  1  0
  7 24  2  0
 22 24  1  0
M  END
