BEN-VAN-ed886787-1
     RDKit          3D

 28 30  0  0  0  0  0  0  0  0999 V2000
    9.9070    2.3440   22.8000 C   0  0  0  0  0  0  0  0  0  0  0  0
   11.3600    2.6170   22.7570 C   0  0  0  0  0  0  0  0  0  0  0  0
   12.1770    1.5020   22.6270 N   0  0  0  0  0  0  0  0  0  0  0  0
   11.9300    0.1260   23.0950 C   0  0  0  0  0  0  0  0  0  0  0  0
   12.9920   -0.3900   23.7910 C   0  0  0  0  0  0  0  0  0  0  0  0
   13.0010   -1.6410   24.3520 C   0  0  0  0  0  0  0  0  0  0  0  0
   11.8620   -2.3660   24.1600 C   0  0  0  0  0  0  0  0  0  0  0  0
   11.7840   -3.6050   24.6850 F   0  0  0  0  0  0  0  0  0  0  0  0
   10.7730   -1.8980   23.4460 C   0  0  0  0  0  0  0  0  0  0  0  0
    9.6360   -2.7840   23.2830 C   0  0  0  0  0  0  0  0  0  0  0  0
    8.1730   -2.4550   23.4270 C   0  0  0  0  0  0  0  0  0  0  0  0
    7.2610   -3.6170   23.7960 C   0  0  0  0  0  0  0  0  0  0  0  0
    5.9230   -3.3340   23.9160 C   0  0  0  0  0  0  0  0  0  0  0  0
    5.3960   -1.9050   23.6790 C   0  0  0  0  0  0  0  0  0  0  0  0
    6.3200   -0.8860   23.3360 C   0  0  0  0  0  0  0  0  0  0  0  0
    5.9870    0.4410   23.0810 N   0  0  0  0  0  0  0  0  0  0  0  0
    7.0280    1.2430   22.4090 C   0  0  0  0  0  0  0  0  0  0  0  0
    7.7770    0.4210   21.5380 C   0  0  0  0  0  0  0  0  0  0  0  0
    8.9750    0.6000   21.3590 O   0  0  0  0  0  0  0  0  0  0  0  0
    6.9860   -0.5300   20.9500 N   0  0  0  0  0  0  0  0  0  0  0  0
    6.2310    0.1470   20.0490 C   0  0  0  0  0  0  0  0  0  0  0  0
    5.0410    0.8320   20.1690 C   0  0  0  0  0  0  0  0  0  0  0  0
    4.4970    1.4580   19.0670 C   0  0  0  0  0  0  0  0  0  0  0  0
    5.1890    1.3670   17.8670 C   0  0  0  0  0  0  0  0  0  0  0  0
    6.3520    0.6910   17.7290 N   0  0  0  0  0  0  0  0  0  0  0  0
    6.8610    0.0850   18.8250 C   0  0  0  0  0  0  0  0  0  0  0  0
    7.6780   -1.1920   23.2260 C   0  0  0  0  0  0  0  0  0  0  0  0
   10.7830   -0.5530   22.8670 N   0  0  0  0  0  0  0  0  0  0  0  0
  1  2  1  0
  2  3  1  0
  3  4  1  0
  4  5  2  0
  5  6  1  0
  6  7  2  0
  7  8  1  0
  7  9  1  0
  9 10  1  0
 10 11  1  0
 11 12  2  0
 12 13  1  0
 13 14  2  0
 14 15  1  0
 15 16  1  0
 16 17  1  0
 17 18  1  0
 18 19  2  0
 18 20  1  0
 20 21  1  0
 21 22  2  0
 22 23  1  0
 23 24  2  0
 24 25  1  0
 21 26  1  0
 25 26  2  0
 11 27  1  0
 15 27  2  0
  4 28  1  0
  9 28  2  0
M  END
