BEN-VAN-5787f7d3-19
     RDKit          3D

 33 36  0  0  0  0  0  0  0  0999 V2000
   10.1690   -5.4350   19.0060 C   0  0  0  0  0  0  0  0  0  0  0  0
    9.7860   -4.1040   19.2160 C   0  0  0  0  0  0  0  0  0  0  0  0
    9.0380   -3.4440   19.9550 O   0  0  0  0  0  0  0  0  0  0  0  0
    9.7860   -2.8260   20.9150 C   0  0  0  0  0  0  0  0  0  0  0  0
   11.1320   -2.9570   20.9210 C   0  0  0  0  0  0  0  0  0  0  0  0
   11.9700   -2.6220   21.8060 N   0  0  0  0  0  0  0  0  0  0  0  0
   11.2790   -2.1120   22.7610 C   0  0  0  0  0  0  0  0  0  0  0  0
   11.6630   -1.8070   23.8480 C   0  0  0  0  0  0  0  0  0  0  0  0
   12.9190   -1.8460   24.3970 C   0  0  0  0  0  0  0  0  0  0  0  0
   13.6330   -2.4070   23.5130 C   0  0  0  0  0  0  0  0  0  0  0  0
   13.1540   -1.3620   25.5930 C   0  0  0  0  0  0  0  0  0  0  0  0
   11.9990   -0.7040   26.4100 C   0  0  0  0  0  0  0  0  0  0  0  0
   11.7900    0.4710   28.5300 Cl  0  0  0  0  0  0  0  0  0  0  0  0
   10.6930   -1.0140   25.5960 N   0  0  0  0  0  0  0  0  0  0  0  0
   10.6600   -1.4500   24.4790 C   0  0  0  0  0  0  0  0  0  0  0  0
    9.4360   -1.5180   23.9390 F   0  0  0  0  0  0  0  0  0  0  0  0
    9.9670   -1.7790   22.8090 C   0  0  0  0  0  0  0  0  0  0  0  0
    9.2220   -2.1010   21.8380 C   0  0  0  0  0  0  0  0  0  0  0  0
    7.8620   -1.7410   21.6530 C   0  0  0  0  0  0  0  0  0  0  0  0
    7.6250   -0.2380   21.4790 C   0  0  0  0  0  0  0  0  0  0  0  0
    6.2920    0.3660   21.2000 C   0  0  0  0  0  0  0  0  0  0  0  0
    5.9990    2.0490   20.9990 Cl  0  0  0  0  0  0  0  0  0  0  0  0
    5.2370   -0.7250   21.1050 C   0  0  0  0  0  0  0  0  0  0  0  0
    5.6960   -2.1800   21.3200 C   0  0  0  0  0  0  0  0  0  0  0  0
    5.0020   -3.2790   21.2910 C   0  0  0  0  0  0  0  0  0  0  0  0
    4.7860   -3.8020   20.2170 O   0  0  0  0  0  0  0  0  0  0  0  0
    4.7140   -3.5800   22.5650 N   0  0  0  0  0  0  0  0  0  0  0  0
    4.5260   -4.8030   23.0430 C   0  0  0  0  0  0  0  0  0  0  0  0
    5.3190   -5.9270   23.0570 C   0  0  0  0  0  0  0  0  0  0  0  0
    4.6110   -6.9000   23.6850 C   0  0  0  0  0  0  0  0  0  0  0  0
    3.3850   -6.3920   24.0650 C   0  0  0  0  0  0  0  0  0  0  0  0
    3.3350   -5.0900   23.6630 O   0  0  0  0  0  0  0  0  0  0  0  0
    6.9240   -2.5960   21.5820 C   0  0  0  0  0  0  0  0  0  0  0  0
  1  2  1  0
  2  3  1  0
  3  4  1  0
  4  5  2  0
  5  6  1  0
  6  7  2  0
  7  8  1  0
  8  9  2  0
  9 10  1  0
  9 11  1  0
 11 12  2  0
 12 13  1  0
 12 14  1  0
  8 15  1  0
 14 15  2  0
 15 16  1  0
  7 17  1  0
  4 18  1  0
 17 18  2  0
 18 19  1  0
 19 20  2  0
 20 21  1  0
 21 22  1  0
 21 23  2  0
 23 24  1  0
 24 25  1  0
 25 26  2  0
 25 27  1  0
 27 28  1  0
 28 29  2  0
 29 30  1  0
 30 31  2  0
 28 32  1  0
 31 32  1  0
 19 33  1  0
 24 33  2  0
M  END
