BEN-VAN-c986b20b-14
     RDKit          3D

 26 28  0  0  0  0  0  0  0  0999 V2000
    5.8990   -2.0130   18.9740 C   0  0  0  0  0  0  0  0  0  0  0  0
    5.7340   -3.0440   20.0640 C   0  0  0  0  0  0  0  0  0  0  0  0
    5.3570   -4.1930   19.8160 O   0  0  0  0  0  0  0  0  0  0  0  0
    6.0770   -2.5960   21.3310 N   0  0  0  0  0  0  0  0  0  0  0  0
    6.1700   -3.5140   22.4580 C   0  0  0  0  0  0  0  0  0  0  0  0
    7.4850   -3.7240   22.8850 C   0  0  0  0  0  0  0  0  0  0  0  0
    8.0840   -2.4740   23.3900 N   0  0  0  0  0  0  0  0  0  0  0  0
    9.4240   -2.6950   24.0060 C   0  0  0  0  0  0  0  0  0  0  0  0
   10.2380   -1.6110   23.7080 C   0  0  0  0  0  0  0  0  0  0  0  0
    9.8270   -0.3090   24.2170 C   0  0  0  0  0  0  0  0  0  0  0  0
   10.4990    0.8230   23.9580 C   0  0  0  0  0  0  0  0  0  0  0  0
   10.0190    1.9700   24.4570 F   0  0  0  0  0  0  0  0  0  0  0  0
   11.6900    0.8320   23.1550 C   0  0  0  0  0  0  0  0  0  0  0  0
   12.1890    2.0420   22.9270 C   0  0  0  0  0  0  0  0  0  0  0  0
   11.5030    3.2410   23.4780 C   0  0  0  0  0  0  0  0  0  0  0  0
   12.0020    4.5130   23.1920 C   0  0  0  0  0  0  0  0  0  0  0  0
   11.3420    5.7910   23.7390 C   0  0  0  0  0  0  0  0  0  0  0  0
   13.1870    4.6760   22.3380 N   0  0  0  0  0  0  0  0  0  0  0  0
   13.7020    3.3740   21.9010 C   0  0  0  0  0  0  0  0  0  0  0  0
   13.2650    2.1410   22.1680 N   0  0  0  0  0  0  0  0  0  0  0  0
   12.1780   -0.4150   22.6640 C   0  0  0  0  0  0  0  0  0  0  0  0
   13.2970   -0.5490   21.9290 F   0  0  0  0  0  0  0  0  0  0  0  0
   11.4090   -1.6970   22.9460 C   0  0  0  0  0  0  0  0  0  0  0  0
    8.0640   -1.4190   22.3270 C   0  0  1  0  0  0  0  0  0  0  0  0
    9.1080   -1.4230   21.4220 C   0  0  0  0  0  0  0  0  0  0  0  0
    6.7440   -1.3070   21.5120 C   0  0  0  0  0  0  0  0  0  0  0  0
  1  2  1  0
  2  3  2  0
  2  4  1  0
  4  5  1  0
  5  6  1  0
  6  7  1  0
  7  8  1  0
  8  9  1  0
  9 10  2  0
 10 11  1  0
 11 12  1  0
 11 13  2  0
 13 14  1  0
 14 15  2  0
 15 16  1  0
 16 17  1  0
 16 18  2  0
 18 19  1  0
 14 20  1  0
 19 20  2  0
 13 21  1  0
 21 22  1  0
  9 23  1  0
 21 23  2  0
  7 24  1  0
 24 25  1  6
  4 26  1  0
 24 26  1  0
M  END
