BEN-VAN-ed886787-8
     RDKit          3D

 31 33  0  0  0  0  0  0  0  0999 V2000
    7.4860   -0.9820   29.6100 C   0  0  0  0  0  0  0  0  0  0  0  0
    6.4200   -0.8360   28.7180 C   0  0  0  0  0  0  0  0  0  0  0  0
    5.9190   -1.9650   28.0790 N   0  0  0  0  0  0  0  0  0  0  0  0
    6.3610   -2.2350   26.7090 C   0  0  0  0  0  0  0  0  0  0  0  0
    5.9080   -3.4800   26.2840 C   0  0  0  0  0  0  0  0  0  0  0  0
    6.1730   -4.0200   25.0270 C   0  0  0  0  0  0  0  0  0  0  0  0
    7.0250   -3.1530   24.0730 C   0  0  0  0  0  0  0  0  0  0  0  0
    7.3380   -3.5770   22.8440 F   0  0  0  0  0  0  0  0  0  0  0  0
    7.4530   -1.7960   24.6780 C   0  0  0  0  0  0  0  0  0  0  0  0
    8.2930   -0.8790   23.7690 C   0  0  0  0  0  0  0  0  0  0  0  0
    9.7300   -1.0170   23.8270 C   0  0  0  0  0  0  0  0  0  0  0  0
   10.8250   -0.1740   23.1050 C   0  0  0  0  0  0  0  0  0  0  0  0
   12.2700   -0.3230   23.2720 C   0  0  0  0  0  0  0  0  0  0  0  0
   13.1570    0.4390   22.6800 C   0  0  0  0  0  0  0  0  0  0  0  0
   12.7740    1.7720   22.8440 C   0  0  0  0  0  0  0  0  0  0  0  0
   12.4430   -1.2890   24.1000 C   0  0  0  0  0  0  0  0  0  0  0  0
   11.0300   -1.3280   24.0700 C   0  0  0  0  0  0  0  0  0  0  0  0
   10.3550   -0.4370   23.2180 N   0  0  0  0  0  0  0  0  0  0  0  0
    9.6400   -1.0640   22.0550 C   0  0  0  0  0  0  0  0  0  0  0  0
    8.7100   -0.1530   21.5160 C   0  0  0  0  0  0  0  0  0  0  0  0
    8.9610    1.0520   21.4830 O   0  0  0  0  0  0  0  0  0  0  0  0
    7.5220   -0.7030   21.0280 N   0  0  0  0  0  0  0  0  0  0  0  0
    6.7130    0.0190   20.1500 C   0  0  0  0  0  0  0  0  0  0  0  0
    5.6140    0.8040   20.4930 C   0  0  0  0  0  0  0  0  0  0  0  0
    4.9390    1.4920   19.4960 C   0  0  0  0  0  0  0  0  0  0  0  0
    5.3970    1.3620   18.1960 C   0  0  0  0  0  0  0  0  0  0  0  0
    4.8000    2.0260   17.2450 F   0  0  0  0  0  0  0  0  0  0  0  0
    6.4260    0.6050   17.8280 N   0  0  0  0  0  0  0  0  0  0  0  0
    7.0550   -0.0470   18.8120 C   0  0  0  0  0  0  0  0  0  0  0  0
   10.2110   -2.0210   24.6520 C   0  0  0  0  0  0  0  0  0  0  0  0
    7.1120   -1.3970   25.9440 N   0  0  0  0  0  0  0  0  0  0  0  0
  1  2  1  0
  2  3  1  0
  3  4  1  0
  4  5  2  0
  5  6  1  0
  6  7  2  0
  7  8  1  0
  7  9  1  0
  9 10  1  0
 10 11  1  0
 11 12  2  0
 12 13  1  0
 13 14  1  0
 14 15  1  0
 13 16  2  0
 16 17  1  0
 17 18  1  0
 18 19  1  0
 19 20  1  0
 20 21  2  0
 20 22  1  0
 22 23  1  0
 23 24  2  0
 24 25  1  0
 25 26  2  0
 26 27  1  0
 26 28  1  0
 23 29  1  0
 28 29  2  0
 11 30  1  0
 17 30  2  0
  4 31  1  0
  9 31  2  0
M  END
