BEN-BAS-2a7c309d-1
     RDKit          3D

 27 29  0  0  0  0  0  0  0  0999 V2000
    1.0000    2.0490   21.0250 C   0  0  0  0  0  0  0  0  0  0  0  0
    1.9490    1.8360   20.0890 N   0  0  0  0  0  0  0  0  0  0  0  0
    3.2780    2.8090   20.0370 S   0  0  0  0  0  0  0  0  0  0  0  0
    3.5630    3.1950   21.4080 O   0  0  0  0  0  0  0  0  0  0  0  0
    3.0320    3.8010   19.0230 O   0  0  0  0  0  0  0  0  0  0  0  0
    4.6080    1.7050   19.5060 C   0  0  0  0  0  0  0  0  0  0  0  0
    5.0470    1.5540   18.1200 C   0  0  0  0  0  0  0  0  0  0  0  0
    6.0410    0.7510   17.6600 N   0  0  0  0  0  0  0  0  0  0  0  0
    6.6670    0.0410   18.6300 C   0  0  0  0  0  0  0  0  0  0  0  0
    6.3880    0.0500   20.0510 C   0  0  0  0  0  0  0  0  0  0  0  0
    7.1750   -0.7480   20.8510 N   0  0  0  0  0  0  0  0  0  0  0  0
    8.2990   -0.0360   21.4210 C   0  0  0  0  0  0  0  0  0  0  0  0
    8.6830    1.3020   21.0510 O   0  0  0  0  0  0  0  0  0  0  0  0
    9.0080   -0.7400   22.3380 N   0  0  0  0  0  0  0  0  0  0  0  0
   10.4030   -0.4630   22.5640 C   0  0  0  0  0  0  0  0  0  0  0  0
   10.6910    0.8550   22.8540 C   0  0  0  0  0  0  0  0  0  0  0  0
   12.0240    1.1800   23.0390 C   0  0  0  0  0  0  0  0  0  0  0  0
   13.1000    0.1070   22.9330 C   0  0  0  0  0  0  0  0  0  0  0  0
   12.6760   -1.1650   22.6480 C   0  0  0  0  0  0  0  0  0  0  0  0
   11.3280   -1.4980   22.4520 C   0  0  0  0  0  0  0  0  0  0  0  0
    8.2780   -1.7910   23.0290 C   0  0  0  0  0  0  0  0  0  0  0  0
    8.8550   -3.0220   22.8860 C   0  0  0  0  0  0  0  0  0  0  0  0
    7.9950   -4.0210   23.3590 C   0  0  0  0  0  0  0  0  0  0  0  0
    6.8060   -3.5560   23.9500 C   0  0  0  0  0  0  0  0  0  0  0  0
    6.9110   -2.4180   24.7790 C   0  0  0  0  0  0  0  0  0  0  0  0
    7.8950   -1.5030   24.3220 C   0  0  0  0  0  0  0  0  0  0  0  0
    5.3790    0.8430   20.5620 C   0  0  0  0  0  0  0  0  0  0  0  0
  1  2  1  0
  3  2  1  0
  3  4  2  0
  3  5  2  0
  3  6  1  0
  6  7  2  0
  7  8  1  0
  8  9  2  0
  9 10  1  0
 10 11  1  0
 11 12  1  0
 12 13  2  0
 12 14  1  0
 14 15  1  0
 15 16  2  0
 16 17  1  0
 17 18  2  0
 18 19  1  0
 15 20  1  0
 19 20  2  0
 14 21  1  0
 21 22  1  0
 22 23  1  0
 23 24  1  0
 24 25  1  0
 21 26  1  0
 25 26  1  0
  6 27  1  0
 10 27  2  0
M  END
