BEN-VAN-c986b20b-8
     RDKit          3D

 27 29  0  0  0  0  0  0  0  0999 V2000
   13.7220    5.6230   22.2200 C   0  0  0  0  0  0  0  0  0  0  0  0
   12.6020    4.8060   22.7120 C   0  0  0  0  0  0  0  0  0  0  0  0
   12.7050    3.4130   22.6940 C   0  0  0  0  0  0  0  0  0  0  0  0
   11.4720    2.7220   23.1870 C   0  0  0  0  0  0  0  0  0  0  0  0
   11.1910    1.2310   23.2450 C   0  0  0  0  0  0  0  0  0  0  0  0
   10.0310    0.9240   23.8560 C   0  0  0  0  0  0  0  0  0  0  0  0
    9.4630   -0.3900   23.9800 C   0  0  0  0  0  0  0  0  0  0  0  0
   10.1410   -1.4270   23.4360 C   0  0  0  0  0  0  0  0  0  0  0  0
    9.5730   -2.6760   23.5390 C   0  0  0  0  0  0  0  0  0  0  0  0
    8.4510   -2.7910   22.6210 N   0  0  0  0  0  0  0  0  0  0  0  0
    7.2350   -3.3220   23.2640 C   0  0  0  0  0  0  0  0  0  0  0  0
    6.1820   -3.5410   22.3880 C   0  0  0  0  0  0  0  0  0  0  0  0
    6.0040   -2.4450   21.4390 N   0  0  0  0  0  0  0  0  0  0  0  0
    5.7140   -2.7680   20.0580 C   0  0  0  0  0  0  0  0  0  0  0  0
    5.3320   -3.9070   19.7030 O   0  0  0  0  0  0  0  0  0  0  0  0
    5.9640   -1.5650   19.1560 C   0  0  0  0  0  0  0  0  0  0  0  0
    5.0100   -0.6280   19.0710 F   0  0  0  0  0  0  0  0  0  0  0  0
    7.0720   -0.8650   19.5040 F   0  0  0  0  0  0  0  0  0  0  0  0
    6.2100   -1.9350   17.9000 F   0  0  0  0  0  0  0  0  0  0  0  0
    6.7460   -1.2340   21.7790 C   0  0  0  0  0  0  0  0  0  0  0  0
    8.2280   -1.5550   21.8550 C   0  0  0  0  0  0  0  0  0  0  0  0
   11.3940   -1.1880   22.8110 C   0  0  0  0  0  0  0  0  0  0  0  0
   11.9230    0.0960   22.7260 C   0  0  0  0  0  0  0  0  0  0  0  0
   13.1220    0.1660   22.1210 F   0  0  0  0  0  0  0  0  0  0  0  0
   10.4080    3.4400   23.6170 N   0  0  0  0  0  0  0  0  0  0  0  0
   10.4880    4.7700   23.5790 C   0  0  0  0  0  0  0  0  0  0  0  0
   11.5230    5.4880   23.1480 N   0  0  0  0  0  0  0  0  0  0  0  0
  1  2  1  0
  2  3  2  0
  3  4  1  0
  4  5  1  0
  5  6  2  0
  6  7  1  0
  7  8  2  0
  8  9  1  0
  9 10  1  0
 10 11  1  0
 11 12  1  0
 12 13  1  0
 13 14  1  0
 14 15  2  0
 14 16  1  0
 16 17  1  0
 16 18  1  0
 16 19  1  0
 13 20  1  0
 10 21  1  0
 20 21  1  0
  8 22  1  0
  5 23  1  0
 22 23  2  0
 23 24  1  0
  4 25  2  0
 25 26  1  0
  2 27  1  0
 26 27  2  0
M  END
