BEN-VAN-5787f7d3-9
     RDKit          3D

 32 35  0  0  0  0  0  0  0  0999 V2000
    4.6400   -4.0870   28.6590 C   0  0  0  0  0  0  0  0  0  0  0  0
    3.9400   -3.9750   27.2980 C   0  0  0  0  0  0  0  0  0  0  0  0
    3.1140   -3.0390   27.1010 O   0  0  0  0  0  0  0  0  0  0  0  0
    3.4190   -1.8470   27.6930 C   0  0  0  0  0  0  0  0  0  0  0  0
    2.4550   -2.3230   28.5280 C   0  0  0  0  0  0  0  0  0  0  0  0
    1.9220   -3.4580   27.9220 C   0  0  0  0  0  0  0  0  0  0  0  0
    1.0010   -4.3350   28.5070 C   0  0  0  0  0  0  0  0  0  0  0  0
   -0.1890   -3.7790   29.0080 C   0  0  0  0  0  0  0  0  0  0  0  0
   -1.2120   -4.6280   29.6390 N   0  0  0  0  0  0  0  0  0  0  0  0
   -0.9510   -6.0610   29.7280 C   0  0  0  0  0  0  0  0  0  0  0  0
    0.2450   -6.5360   29.2130 C   0  0  0  0  0  0  0  0  0  0  0  0
    1.2120   -5.7250   28.6140 C   0  0  0  0  0  0  0  0  0  0  0  0
    2.3580   -6.3570   28.1470 C   0  0  0  0  0  0  0  0  0  0  0  0
    2.2730   -3.8320   26.5380 C   0  0  0  0  0  0  0  0  0  0  0  0
    3.2450   -3.0530   25.7010 N   0  0  0  0  0  0  0  0  0  0  0  0
    3.8450   -3.7460   24.6040 C   0  0  0  0  0  0  0  0  0  0  0  0
    4.3520   -3.0510   23.4880 C   0  0  0  0  0  0  0  0  0  0  0  0
    4.9430   -3.7230   22.4120 C   0  0  0  0  0  0  0  0  0  0  0  0
    5.5390   -2.7160   21.0700 Cl  0  0  0  0  0  0  0  0  0  0  0  0
    5.0380   -5.0970   22.4360 C   0  0  0  0  0  0  0  0  0  0  0  0
    4.5460   -5.7220   23.5390 C   0  0  0  0  0  0  0  0  0  0  0  0
    4.6800   -7.1930   23.6290 C   0  0  0  0  0  0  0  0  0  0  0  0
    3.7960   -8.0270   24.2690 O   0  0  0  0  0  0  0  0  0  0  0  0
    5.8400   -7.4300   22.9780 N   0  0  0  0  0  0  0  0  0  0  0  0
    6.5390   -6.2780   22.8550 C   0  0  0  0  0  0  0  0  0  0  0  0
    7.0860   -5.5930   21.8120 C   0  0  0  0  0  0  0  0  0  0  0  0
    7.6780   -4.3610   22.4260 C   0  0  0  0  0  0  0  0  0  0  0  0
    7.4490   -4.4010   23.7640 C   0  0  0  0  0  0  0  0  0  0  0  0
    6.7620   -5.5680   24.0360 O   0  0  0  0  0  0  0  0  0  0  0  0
    3.9410   -5.1330   24.6390 C   0  0  0  0  0  0  0  0  0  0  0  0
    4.0880   -2.1200   26.3980 C   0  0  0  0  0  0  0  0  0  0  0  0
    5.1580   -1.6120   26.0590 O   0  0  0  0  0  0  0  0  0  0  0  0
  1  2  1  0
  2  3  1  0
  3  4  1  0
  4  5  2  0
  5  6  1  0
  6  7  1  0
  7  8  2  0
  8  9  1  0
  9 10  2  0
 10 11  1  0
  7 12  1  0
 11 12  2  0
 12 13  1  0
  6 14  2  0
 14 15  1  0
 15 16  1  0
 16 17  2  0
 17 18  1  0
 18 19  1  0
 18 20  2  0
 20 21  1  0
 21 22  1  0
 22 23  2  0
 22 24  1  0
 24 25  1  0
 25 26  2  0
 26 27  1  0
 27 28  2  0
 25 29  1  0
 28 29  1  0
 16 30  1  0
 21 30  2  0
  4 31  1  0
 15 31  1  0
 31 32  2  0
M  END
