BEN-VAN-d8fd1356-16
     RDKit          3D

 25 27  0  0  0  0  0  0  0  0999 V2000
   13.0950    6.0800   22.2150 C   0  0  0  0  0  0  0  0  0  0  0  0
   12.1430    4.9470   22.1330 C   0  0  0  0  0  0  0  0  0  0  0  0
   12.2090    4.0980   23.2050 C   0  0  0  0  0  0  0  0  0  0  0  0
   12.2910    2.6000   23.0540 C   0  0  0  0  0  0  0  0  0  0  0  0
   11.0120    2.6970   23.6960 C   0  0  0  0  0  0  0  0  0  0  0  0
   10.1770    1.5620   24.0320 N   0  0  0  0  0  0  0  0  0  0  0  0
   10.8450    0.5340   23.6210 C   0  0  0  0  0  0  0  0  0  0  0  0
   10.5300   -0.7680   23.6780 C   0  0  0  0  0  0  0  0  0  0  0  0
    9.4720   -1.1230   24.1880 O   0  0  0  0  0  0  0  0  0  0  0  0
    8.5340   -1.7970   23.4130 C   0  0  0  0  0  0  0  0  0  0  0  0
    8.3830   -3.2850   23.6440 C   0  0  0  0  0  0  0  0  0  0  0  0
    7.3540   -4.0200   22.8210 C   0  0  0  0  0  0  0  0  0  0  0  0
    7.1980   -5.5040   23.0520 C   0  0  0  0  0  0  0  0  0  0  0  0
    6.6350   -3.2560   21.9130 C   0  0  0  0  0  0  0  0  0  0  0  0
    6.8740   -1.8700   21.7770 C   0  0  0  0  0  0  0  0  0  0  0  0
    5.9840   -0.9570   20.6250 S   0  0  0  0  0  0  0  0  0  0  0  0
    5.1010    0.1460   21.5440 N   0  0  0  0  0  0  0  0  0  0  0  0
    5.0280   -1.8290   19.9950 O   0  0  0  0  0  0  0  0  0  0  0  0
    6.9140   -0.1650   19.8510 O   0  0  0  0  0  0  0  0  0  0  0  0
    7.7700   -1.1130   22.4730 N   0  0  0  0  0  0  0  0  0  0  0  0
   11.4110   -1.7050   23.1590 C   0  0  0  0  0  0  0  0  0  0  0  0
   12.6100   -1.3130   22.5950 C   0  0  0  0  0  0  0  0  0  0  0  0
   13.4120   -2.2480   22.1100 F   0  0  0  0  0  0  0  0  0  0  0  0
   13.0280    0.0060   22.5020 C   0  0  0  0  0  0  0  0  0  0  0  0
   12.1280    1.1270   23.0280 C   0  0  0  0  0  0  0  0  0  0  0  0
  1  2  1  0
  2  3  1  0
  3  4  1  0
  4  5  2  0
  5  6  1  0
  6  7  1  0
  7  8  1  0
  8  9  1  0
  9 10  1  0
 10 11  2  0
 11 12  1  0
 12 13  1  0
 12 14  2  0
 14 15  1  0
 15 16  1  0
 16 17  1  0
 16 18  2  0
 16 19  2  0
 10 20  1  0
 15 20  2  0
  8 21  2  0
 21 22  1  0
 22 23  1  0
 22 24  2  0
  4 25  1  0
  7 25  2  0
 24 25  1  0
M  END
