BEN-VAN-d8fd1356-11
     RDKit          3D

 24 27  0  0  0  0  0  0  0  0999 V2000
   12.0150    5.0820   23.8230 C   0  0  0  0  0  0  0  0  0  0  0  0
   12.3870    4.1780   22.6750 C   0  0  0  0  0  0  0  0  0  0  0  0
   12.3420    2.7110   22.7920 C   0  0  0  0  0  0  0  0  0  0  0  0
   11.0720    2.9740   23.3910 C   0  0  0  0  0  0  0  0  0  0  0  0
   10.2860    1.9810   23.8310 N   0  0  0  0  0  0  0  0  0  0  0  0
   10.8750    0.8390   23.6080 C   0  0  0  0  0  0  0  0  0  0  0  0
   10.4430   -0.4400   23.8770 C   0  0  0  0  0  0  0  0  0  0  0  0
    9.1970   -0.5970   24.4820 O   0  0  0  0  0  0  0  0  0  0  0  0
    8.4530   -1.7390   24.1920 C   0  0  0  0  0  0  0  0  0  0  0  0
    7.3400   -2.0980   25.1890 C   0  0  0  0  0  0  0  0  0  0  0  0
    6.5410   -3.3570   24.8800 C   0  0  0  0  0  0  0  0  0  0  0  0
    5.4490   -3.7850   25.8070 C   0  0  0  0  0  0  0  0  0  0  0  0
    4.3580   -3.8310   26.8150 C   0  0  0  0  0  0  0  0  0  0  0  0
    3.8420   -5.0990   27.0290 N   0  0  0  0  0  0  0  0  0  0  0  0
    4.5910   -5.8310   26.1750 C   0  0  0  0  0  0  0  0  0  0  0  0
    5.4910   -5.0840   25.4910 N   0  0  0  0  0  0  0  0  0  0  0  0
    6.8430   -4.0860   23.7450 C   0  0  0  0  0  0  0  0  0  0  0  0
    7.9700   -3.5960   22.8470 C   0  0  0  0  0  0  0  0  0  0  0  0
    8.7180   -2.4870   23.0790 N   0  0  0  0  0  0  0  0  0  0  0  0
   11.2750   -1.5140   23.5260 C   0  0  0  0  0  0  0  0  0  0  0  0
   12.6230   -1.2620   22.8740 C   0  0  0  0  0  0  0  0  0  0  0  0
   13.4330   -2.2630   22.5290 F   0  0  0  0  0  0  0  0  0  0  0  0
   12.9890    0.1940   22.6390 C   0  0  0  0  0  0  0  0  0  0  0  0
   12.0950    1.2380   23.0050 C   0  0  0  0  0  0  0  0  0  0  0  0
  1  2  1  0
  2  3  1  0
  3  4  2  0
  4  5  1  0
  5  6  1  0
  6  7  1  0
  7  8  1  0
  8  9  1  0
  9 10  2  0
 10 11  1  0
 11 12  1  0
 12 13  2  0
 13 14  1  0
 14 15  2  0
 12 16  1  0
 15 16  1  0
 11 17  2  0
 17 18  1  0
  9 19  1  0
 18 19  2  0
  7 20  2  0
 20 21  1  0
 21 22  1  0
 21 23  2  0
  3 24  1  0
  6 24  2  0
 23 24  1  0
M  END
