BEN-VAN-d8fd1356-20
     RDKit          3D

 23 25  0  0  0  0  0  0  0  0999 V2000
   13.1840    4.6070   22.8330 C   0  0  0  0  0  0  0  0  0  0  0  0
   11.9030    3.9340   23.1250 C   0  0  0  0  0  0  0  0  0  0  0  0
   11.7120    2.6160   22.9720 C   0  0  0  0  0  0  0  0  0  0  0  0
   10.2310    2.9790   23.0400 C   0  0  0  0  0  0  0  0  0  0  0  0
    9.3020    2.0430   22.9300 N   0  0  0  0  0  0  0  0  0  0  0  0
    9.9270    0.8970   22.7690 C   0  0  0  0  0  0  0  0  0  0  0  0
    9.3510   -0.5160   22.5670 C   0  0  0  0  0  0  0  0  0  0  0  0
    7.7890   -0.6760   22.5040 C   0  0  0  0  0  0  0  0  0  0  0  0
    7.1320   -1.0500   21.3890 N   0  0  0  0  0  0  0  0  0  0  0  0
    5.8800   -0.5020   21.3300 C   0  0  0  0  0  0  0  0  0  0  0  0
    5.0790   -0.4360   20.1740 C   0  0  0  0  0  0  0  0  0  0  0  0
    5.8200   -0.0290   18.9970 N   0  0  0  0  0  0  0  0  0  0  0  0
    5.4890    1.0990   18.2560 C   0  0  0  0  0  0  0  0  0  0  0  0
    4.3690    1.9420   18.8040 C   0  0  0  0  0  0  0  0  0  0  0  0
    6.0490    1.4260   17.2210 O   0  0  0  0  0  0  0  0  0  0  0  0
    7.1700   -0.5570   18.9640 C   0  0  0  0  0  0  0  0  0  0  0  0
    7.8150   -0.5150   20.2240 C   0  0  0  0  0  0  0  0  0  0  0  0
   10.2770   -1.5690   22.4370 C   0  0  0  0  0  0  0  0  0  0  0  0
   11.6280   -1.3060   22.4880 C   0  0  0  0  0  0  0  0  0  0  0  0
   12.5240   -2.2990   22.3580 F   0  0  0  0  0  0  0  0  0  0  0  0
   12.1130   -0.0370   22.6620 C   0  0  0  0  0  0  0  0  0  0  0  0
   13.6930    0.2060   22.7130 Cl  0  0  0  0  0  0  0  0  0  0  0  0
   11.2790    1.1870   22.8070 C   0  0  0  0  0  0  0  0  0  0  0  0
  1  2  1  0
  2  3  1  0
  3  4  2  0
  4  5  1  0
  5  6  1  0
  6  7  1  0
  7  8  1  0
  8  9  1  0
  9 10  1  0
 10 11  1  0
 11 12  1  0
 12 13  1  0
 13 14  1  0
 13 15  2  0
 12 16  1  0
  9 17  1  0
 16 17  1  0
  7 18  2  0
 18 19  1  0
 19 20  1  0
 19 21  2  0
 21 22  1  0
  3 23  1  0
  6 23  2  0
 21 23  1  0
M  END
