BEN-VAN-5787f7d3-4
     RDKit          3D

 28 31  0  0  0  0  0  0  0  0999 V2000
   -0.8800   -3.7790   24.7710 C   0  0  0  0  0  0  0  0  0  0  0  0
   -1.0480   -2.7700   25.8350 C   0  0  0  0  0  0  0  0  0  0  0  0
   -2.2910   -2.1820   26.0610 C   0  0  0  0  0  0  0  0  0  0  0  0
   -2.5850   -1.2200   27.0300 C   0  0  0  0  0  0  0  0  0  0  0  0
   -1.6500   -0.7460   27.8780 N   0  0  0  0  0  0  0  0  0  0  0  0
   -0.4100   -1.2840   27.7040 C   0  0  0  0  0  0  0  0  0  0  0  0
   -0.0190   -2.3230   26.6850 C   0  0  0  0  0  0  0  0  0  0  0  0
    1.4540   -2.7830   26.6830 C   0  0  0  0  0  0  0  0  0  0  0  0
    2.3930   -2.3910   27.7900 C   0  0  0  0  0  0  0  0  0  0  0  0
    3.9140   -2.3310   27.7160 C   0  0  0  0  0  0  0  0  0  0  0  0
    3.9820   -2.6830   26.3800 C   0  0  0  0  0  0  0  0  0  0  0  0
    4.6860   -1.9400   25.6950 O   0  0  0  0  0  0  0  0  0  0  0  0
    3.3010   -3.8110   25.9620 N   0  0  0  0  0  0  0  0  0  0  0  0
    3.9330   -4.3860   24.8530 C   0  0  0  0  0  0  0  0  0  0  0  0
    4.1290   -5.7720   24.6850 C   0  0  0  0  0  0  0  0  0  0  0  0
    4.7640   -6.2720   23.5360 C   0  0  0  0  0  0  0  0  0  0  0  0
    5.2160   -5.4070   22.5340 C   0  0  0  0  0  0  0  0  0  0  0  0
    5.0150   -4.0490   22.7080 C   0  0  0  0  0  0  0  0  0  0  0  0
    5.3640   -3.0240   21.8580 N   0  0  0  0  0  0  0  0  0  0  0  0
    6.2640   -3.0300   20.8670 C   0  0  0  0  0  0  0  0  0  0  0  0
    5.9790   -3.4080   19.7350 O   0  0  0  0  0  0  0  0  0  0  0  0
    7.4950   -2.5420   21.3520 C   0  0  0  0  0  0  0  0  0  0  0  0
    8.3530   -3.1820   22.3920 C   0  0  0  0  0  0  0  0  0  0  0  0
    9.4400   -2.3580   22.5510 C   0  0  0  0  0  0  0  0  0  0  0  0
    9.3060   -1.2650   21.6870 C   0  0  0  0  0  0  0  0  0  0  0  0
    8.1250   -1.3730   20.9590 O   0  0  0  0  0  0  0  0  0  0  0  0
    4.3910   -3.5630   23.8420 C   0  0  0  0  0  0  0  0  0  0  0  0
    1.9810   -3.5360   25.7760 C   0  0  0  0  0  0  0  0  0  0  0  0
  1  2  1  0
  2  3  2  0
  3  4  1  0
  4  5  2  0
  5  6  1  0
  2  7  1  0
  6  7  2  0
  7  8  1  0
  8  9  1  0
  9 10  2  0
 10 11  1  0
 11 12  2  0
 11 13  1  0
 13 14  1  0
 14 15  2  0
 15 16  1  0
 16 17  2  0
 17 18  1  0
 18 19  1  0
 19 20  1  0
 20 21  2  0
 20 22  1  0
 22 23  2  0
 23 24  1  0
 24 25  2  0
 22 26  1  0
 25 26  1  0
 14 27  1  0
 18 27  2  0
  8 28  2  0
 13 28  1  0
M  END
