BEN-BAS-589c65df-1
     RDKit          3D

 25 27  0  0  0  0  0  0  0  0999 V2000
    4.1830   -6.8170   23.7830 C   0  0  0  0  0  0  0  0  0  0  0  0
    4.0350   -5.2980   23.6030 C   0  0  0  0  0  0  0  0  0  0  0  0
    3.3750   -4.5880   24.3460 O   0  0  0  0  0  0  0  0  0  0  0  0
    4.7590   -4.8180   22.4530 N   0  0  0  0  0  0  0  0  0  0  0  0
    5.4320   -3.5710   22.3750 C   0  0  0  0  0  0  0  0  0  0  0  0
    5.5440   -2.8820   23.5720 N   0  0  0  0  0  0  0  0  0  0  0  0
    6.2530   -1.7000   23.2450 C   0  0  0  0  0  0  0  0  0  0  0  0
    6.5290   -1.7340   21.8970 N   0  0  0  0  0  0  0  0  0  0  0  0
    7.2130   -0.7680   21.2340 N   0  0  0  0  0  0  0  0  0  0  0  0
    8.4940   -0.5270   21.7710 C   0  0  0  0  0  0  0  0  0  0  0  0
    9.1230    0.5160   21.5620 O   0  0  0  0  0  0  0  0  0  0  0  0
    8.9710   -1.5800   22.5870 O   0  0  0  0  0  0  0  0  0  0  0  0
   10.3540   -1.7430   22.8920 C   0  0  0  0  0  0  0  0  0  0  0  0
   11.3120   -1.9700   21.9130 C   0  0  0  0  0  0  0  0  0  0  0  0
   12.6520   -2.1360   22.2490 C   0  0  0  0  0  0  0  0  0  0  0  0
   13.0370   -2.0790   23.5740 C   0  0  0  0  0  0  0  0  0  0  0  0
   12.0900   -1.8530   24.5630 C   0  0  0  0  0  0  0  0  0  0  0  0
   10.7480   -1.6830   24.2220 C   0  0  0  0  0  0  0  0  0  0  0  0
    6.5130   -0.0900   20.2680 C   0  0  0  0  0  0  0  0  0  0  0  0
    5.2460    0.7080   20.5860 C   0  0  0  0  0  0  0  0  0  0  0  0
    4.6090    1.4040   19.3880 C   0  0  0  0  0  0  0  0  0  0  0  0
    5.2610    1.2570   18.0260 C   0  0  0  0  0  0  0  0  0  0  0  0
    6.3800    0.5300   17.8270 N   0  0  0  0  0  0  0  0  0  0  0  0
    6.9950   -0.1470   18.9700 C   0  0  0  0  0  0  0  0  0  0  0  0
    6.0180   -2.8860   21.3320 N   0  0  0  0  0  0  0  0  0  0  0  0
  1  2  1  0
  2  3  2  0
  2  4  1  0
  4  5  1  0
  5  6  1  0
  6  7  2  0
  7  8  1  0
  8  9  1  0
  9 10  1  0
 10 11  2  0
 10 12  1  0
 12 13  1  0
 13 14  2  0
 14 15  1  0
 15 16  2  0
 16 17  1  0
 13 18  1  0
 17 18  2  0
  9 19  1  0
 19 20  2  0
 20 21  1  0
 21 22  2  0
 22 23  1  0
 19 24  1  0
 23 24  2  0
  5 25  2  0
  8 25  1  0
M  END
