BEN-BAS-26f6b627-1
     RDKit          3D

 24 26  0  0  0  0  0  0  0  0999 V2000
   10.5790   -0.5650   22.6930 C   0  0  0  0  0  0  0  0  0  0  0  0
    9.1760   -0.7970   22.6190 N   0  0  0  0  0  0  0  0  0  0  0  0
    8.5950   -0.0030   21.5560 C   0  0  0  0  0  0  0  0  0  0  0  0
    9.0310    1.1220   21.2500 O   0  0  0  0  0  0  0  0  0  0  0  0
    7.5230   -0.5670   20.9170 N   0  0  0  0  0  0  0  0  0  0  0  0
    6.6940    0.1210   20.0280 C   0  0  0  0  0  0  0  0  0  0  0  0
    6.7760   -0.0750   18.6780 C   0  0  0  0  0  0  0  0  0  0  0  0
    5.9990    0.5830   17.7980 N   0  0  0  0  0  0  0  0  0  0  0  0
    5.1060    1.4730   18.2880 C   0  0  0  0  0  0  0  0  0  0  0  0
    4.9470    1.7420   19.6560 C   0  0  0  0  0  0  0  0  0  0  0  0
    4.0850    2.6240   20.2010 N   0  0  0  0  0  0  0  0  0  0  0  0
    2.9130    3.0730   19.4270 C   0  0  0  0  0  0  0  0  0  0  0  0
    1.7520    3.5510   20.3030 C   0  0  0  0  0  0  0  0  0  0  0  0
    0.5190    3.0660   20.0560 C   0  0  0  0  0  0  0  0  0  0  0  0
    1.1030    2.3340   21.1610 C   0  0  0  0  0  0  0  0  0  0  0  0
    4.5690    3.4020   21.2400 C   0  0  0  0  0  0  0  0  0  0  0  0
    5.6990    3.5380   21.7060 O   0  0  0  0  0  0  0  0  0  0  0  0
    3.6370    4.1880   21.9260 C   0  0  0  0  0  0  0  0  0  0  0  0
    3.5710    5.5610   21.7370 C   0  0  0  0  0  0  0  0  0  0  0  0
    2.6090    6.2640   22.4720 C   0  0  0  0  0  0  0  0  0  0  0  0
    1.7350    5.7180   23.3560 N   0  0  0  0  0  0  0  0  0  0  0  0
    1.8430    4.3700   23.5010 C   0  0  0  0  0  0  0  0  0  0  0  0
    2.7600    3.5580   22.8250 C   0  0  0  0  0  0  0  0  0  0  0  0
    5.7700    1.0320   20.5200 C   0  0  0  0  0  0  0  0  0  0  0  0
  1  2  1  0
  2  3  1  0
  3  4  2  0
  3  5  1  0
  5  6  1  0
  6  7  2  0
  7  8  1  0
  8  9  2  0
  9 10  1  0
 10 11  1  0
 11 12  1  0
 12 13  1  0
 13 14  1  0
 13 15  1  0
 14 15  1  0
 11 16  1  0
 16 17  2  0
 16 18  1  0
 18 19  2  0
 19 20  1  0
 20 21  2  0
 21 22  1  0
 18 23  1  0
 22 23  2  0
  6 24  1  0
 10 24  2  0
M  END
