BEN-VAN-c986b20b-10
     RDKit          3D

 24 26  0  0  0  0  0  0  0  0999 V2000
    6.2500   -2.1510   18.6770 C   0  0  0  0  0  0  0  0  0  0  0  0
    5.8850   -3.0000   19.8330 C   0  0  0  0  0  0  0  0  0  0  0  0
    5.3890   -4.1270   19.6810 O   0  0  0  0  0  0  0  0  0  0  0  0
    6.1340   -2.4760   21.0740 N   0  0  0  0  0  0  0  0  0  0  0  0
    5.9430   -3.3410   22.2350 C   0  0  0  0  0  0  0  0  0  0  0  0
    7.2490   -3.6820   22.8740 C   0  0  0  0  0  0  0  0  0  0  0  0
    8.0540   -2.4880   23.0560 N   0  0  0  0  0  0  0  0  0  0  0  0
    9.1050   -2.6030   24.0400 C   0  0  0  0  0  0  0  0  0  0  0  0
    9.9790   -1.4070   23.8290 C   0  0  0  0  0  0  0  0  0  0  0  0
    9.3530   -0.1440   24.3590 C   0  0  0  0  0  0  0  0  0  0  0  0
   10.1030    1.1260   24.1300 C   0  0  0  0  0  0  0  0  0  0  0  0
   11.3780    1.0520   23.4100 C   0  0  0  0  0  0  0  0  0  0  0  0
   11.8520    2.3450   23.2320 C   0  0  0  0  0  0  0  0  0  0  0  0
   13.0410    2.8290   22.8340 C   0  0  0  0  0  0  0  0  0  0  0  0
   13.1790    4.2070   22.7340 C   0  0  0  0  0  0  0  0  0  0  0  0
   12.3130    5.2430   22.9720 N   0  0  0  0  0  0  0  0  0  0  0  0
   11.0090    4.7010   23.4140 C   0  0  0  0  0  0  0  0  0  0  0  0
    9.7070    5.7540   23.7940 Cl  0  0  0  0  0  0  0  0  0  0  0  0
   10.8550    3.2370   23.5180 N   0  0  0  0  0  0  0  0  0  0  0  0
   11.9180   -0.2090   22.9890 C   0  0  0  0  0  0  0  0  0  0  0  0
   13.3870   -0.5080   22.1830 Cl  0  0  0  0  0  0  0  0  0  0  0  0
   11.2140   -1.3950   23.2020 C   0  0  0  0  0  0  0  0  0  0  0  0
    8.3460   -1.7060   21.8450 C   0  0  0  0  0  0  0  0  0  0  0  0
    6.9830   -1.2960   21.2750 C   0  0  0  0  0  0  0  0  0  0  0  0
  1  2  1  0
  2  3  2  0
  2  4  1  0
  4  5  1  0
  5  6  1  0
  6  7  1  0
  7  8  1  0
  8  9  1  0
  9 10  2  0
 10 11  1  0
 11 12  2  0
 12 13  1  0
 13 14  2  0
 14 15  1  0
 15 16  2  0
 16 17  1  0
 17 18  1  0
 13 19  1  0
 17 19  2  0
 12 20  1  0
 20 21  1  0
  9 22  1  0
 20 22  2  0
  7 23  1  0
  4 24  1  0
 23 24  1  0
M  END
