BEN-DND-362d364a-7
     RDKit          3D

 23 24  0  0  0  0  0  0  0  0999 V2000
    4.3960    3.7610   21.5350 C   0  0  0  0  0  0  0  0  0  0  0  0
    5.2160    3.3560   22.7610 C   0  0  0  0  0  0  0  0  0  0  0  0
    5.1180    2.2470   23.2770 O   0  0  0  0  0  0  0  0  0  0  0  0
    6.0770    4.3160   23.3110 N   0  0  0  0  0  0  0  0  0  0  0  0
    7.4340    3.9310   23.7500 C   0  0  0  0  0  0  0  0  0  0  0  0
    8.4820    3.8990   22.6400 C   0  0  0  0  0  0  0  0  0  0  0  0
    9.8060    4.1900   23.0140 C   0  0  0  0  0  0  0  0  0  0  0  0
   10.9280    4.1080   21.9320 C   0  0  0  0  0  0  0  0  0  0  0  0
   11.7060    4.5040   22.9080 N   0  0  0  0  0  0  0  0  0  0  0  0
   11.2530    4.6970   24.0720 C   0  0  0  0  0  0  0  0  0  0  0  0
   12.3890    5.1600   24.9630 C   0  0  0  0  0  0  0  0  0  0  0  0
   13.6060    5.2860   24.1340 C   0  0  0  0  0  0  0  0  0  0  0  0
   13.5100    6.2320   23.0720 C   0  0  0  0  0  0  0  0  0  0  0  0
   13.4810    7.5920   23.6810 N   0  0  0  0  0  0  0  0  0  0  0  0
   12.1840    8.1080   24.6730 S   0  0  0  0  0  0  0  0  0  0  0  0
   12.4280    9.8790   24.7520 C   0  0  0  0  0  0  0  0  0  0  0  0
   10.9850    7.8550   23.9220 O   0  0  0  0  0  0  0  0  0  0  0  0
   12.3110    7.5990   26.0390 O   0  0  0  0  0  0  0  0  0  0  0  0
   12.2080    5.3590   26.2410 C   0  0  0  0  0  0  0  0  0  0  0  0
   10.9140    5.1730   26.6440 C   0  0  0  0  0  0  0  0  0  0  0  0
   10.5500    5.4220   28.2850 Cl  0  0  0  0  0  0  0  0  0  0  0  0
    9.9470    4.7860   25.7560 C   0  0  0  0  0  0  0  0  0  0  0  0
    9.8770    4.4910   24.3980 N   0  0  0  0  0  0  0  0  0  0  0  0
  1  2  1  0
  2  3  2  0
  2  4  1  0
  4  5  1  0
  5  6  1  0
  6  7  1  0
  7  8  2  0
  8  9  1  0
  9 10  2  0
 10 11  1  0
 11 12  1  0
 12 13  1  0
 13 14  1  0
 15 14  1  0
 15 16  1  0
 15 17  2  0
 15 18  2  0
 11 19  2  0
 19 20  1  0
 20 21  1  0
 20 22  2  0
  7 23  1  0
 10 23  1  0
 22 23  1  0
M  END
