BEN-VAN-d8fd1356-27
     RDKit          3D

 23 25  0  0  0  0  0  0  0  0999 V2000
   13.0480    6.2090   22.2030 C   0  0  0  0  0  0  0  0  0  0  0  0
   12.3050    4.9320   22.1970 C   0  0  0  0  0  0  0  0  0  0  0  0
   12.4470    4.1180   23.2270 C   0  0  0  0  0  0  0  0  0  0  0  0
   12.3210    2.5930   23.0640 C   0  0  0  0  0  0  0  0  0  0  0  0
   10.9290    2.8410   23.5370 C   0  0  0  0  0  0  0  0  0  0  0  0
   10.0580    1.7460   23.6640 N   0  0  0  0  0  0  0  0  0  0  0  0
   10.7350    0.6660   23.2990 C   0  0  0  0  0  0  0  0  0  0  0  0
   10.2800   -0.6500   23.2500 C   0  0  0  0  0  0  0  0  0  0  0  0
    9.1030   -0.8290   23.5760 O   0  0  0  0  0  0  0  0  0  0  0  0
    8.6240   -2.1530   23.8770 C   0  0  0  0  0  0  0  0  0  0  0  0
    8.7520   -3.0580   22.6860 C   0  0  0  0  0  0  0  0  0  0  0  0
    7.9140   -4.1360   22.7960 C   0  0  0  0  0  0  0  0  0  0  0  0
    6.6250   -3.9020   23.0580 N   0  0  0  0  0  0  0  0  0  0  0  0
    5.7380   -4.5120   22.2170 C   0  0  0  0  0  0  0  0  0  0  0  0
    5.9490   -5.8690   21.6240 C   0  0  0  0  0  0  0  0  0  0  0  0
    4.6960   -3.9200   21.9160 O   0  0  0  0  0  0  0  0  0  0  0  0
    6.3550   -2.5060   23.4400 C   0  0  0  0  0  0  0  0  0  0  0  0
    7.3120   -2.0230   24.3820 C   0  0  0  0  0  0  0  0  0  0  0  0
   11.2080   -1.6100   22.8310 C   0  0  0  0  0  0  0  0  0  0  0  0
   12.4940   -1.2440   22.4900 C   0  0  0  0  0  0  0  0  0  0  0  0
   13.3760   -2.1500   22.0840 F   0  0  0  0  0  0  0  0  0  0  0  0
   12.8480    0.0800   22.5690 C   0  0  0  0  0  0  0  0  0  0  0  0
   12.0200    1.1260   22.9640 C   0  0  0  0  0  0  0  0  0  0  0  0
  1  2  1  0
  2  3  1  0
  3  4  1  0
  4  5  2  0
  5  6  1  0
  6  7  1  0
  7  8  1  0
  8  9  1  0
  9 10  1  0
 10 11  1  0
 11 12  1  0
 12 13  1  0
 13 14  1  0
 14 15  1  0
 14 16  2  0
 13 17  1  0
 10 18  1  0
 17 18  1  0
  8 19  2  0
 19 20  1  0
 20 21  1  0
 20 22  2  0
  4 23  1  0
  7 23  2  0
 22 23  1  0
M  END
