BEN-VAN-d8fd1356-6
     RDKit          3D

 27 30  0  0  0  0  0  0  0  0999 V2000
   13.1440    5.8850   22.1570 C   0  0  0  0  0  0  0  0  0  0  0  0
   12.6290    5.0450   23.2580 C   0  0  0  0  0  0  0  0  0  0  0  0
   11.5760    4.2220   23.1350 C   0  0  0  0  0  0  0  0  0  0  0  0
   11.7310    2.7440   22.9520 C   0  0  0  0  0  0  0  0  0  0  0  0
   10.2570    2.7280   23.4250 C   0  0  0  0  0  0  0  0  0  0  0  0
    9.6040    1.5980   23.5450 N   0  0  0  0  0  0  0  0  0  0  0  0
   10.4140    0.6350   23.2000 C   0  0  0  0  0  0  0  0  0  0  0  0
   10.1350   -0.9010   23.1690 C   0  0  0  0  0  0  0  0  0  0  0  0
    9.0200   -1.2750   23.5290 O   0  0  0  0  0  0  0  0  0  0  0  0
    7.9740   -1.5220   22.5830 C   0  0  0  0  0  0  0  0  0  0  0  0
    7.8170   -0.6230   21.5150 C   0  0  0  0  0  0  0  0  0  0  0  0
    6.7170   -0.7790   20.4600 C   0  0  0  0  0  0  0  0  0  0  0  0
    6.4680    0.1430   19.2900 C   0  0  0  0  0  0  0  0  0  0  0  0
    5.3770    0.9970   19.5000 C   0  0  0  0  0  0  0  0  0  0  0  0
    4.7510    1.8060   18.5250 C   0  0  0  0  0  0  0  0  0  0  0  0
    3.7170    2.5200   19.0480 N   0  0  0  0  0  0  0  0  0  0  0  0
    3.6890    2.1350   20.4420 C   0  0  0  0  0  0  0  0  0  0  0  0
    4.6700    1.2490   20.6700 N   0  0  0  0  0  0  0  0  0  0  0  0
    5.8420   -2.0090   20.7150 C   0  0  0  0  0  0  0  0  0  0  0  0
    6.1450   -2.7980   21.8280 C   0  0  0  0  0  0  0  0  0  0  0  0
    7.1620   -2.6040   22.7560 N   0  0  0  0  0  0  0  0  0  0  0  0
   11.1700   -1.7330   22.7530 C   0  0  0  0  0  0  0  0  0  0  0  0
   12.5530   -1.2050   22.3330 C   0  0  0  0  0  0  0  0  0  0  0  0
   13.5180   -2.0260   21.9300 F   0  0  0  0  0  0  0  0  0  0  0  0
   12.7260    0.3300   22.4100 C   0  0  0  0  0  0  0  0  0  0  0  0
   14.1450    1.1850   21.9970 Cl  0  0  0  0  0  0  0  0  0  0  0  0
   11.6350    1.2580   22.8520 C   0  0  0  0  0  0  0  0  0  0  0  0
  1  2  1  0
  2  3  1  0
  3  4  1  0
  4  5  2  0
  5  6  1  0
  6  7  1  0
  7  8  1  0
  8  9  1  0
  9 10  1  0
 10 11  2  0
 11 12  1  0
 12 13  1  0
 13 14  1  0
 14 15  2  0
 15 16  1  0
 16 17  2  0
 14 18  1  0
 17 18  1  0
 12 19  2  0
 19 20  1  0
 10 21  1  0
 20 21  2  0
  8 22  2  0
 22 23  1  0
 23 24  1  0
 23 25  2  0
 25 26  1  0
  4 27  1  0
  7 27  2  0
 25 27  1  0
M  END
