BEN-VAN-c986b20b-17
     RDKit          3D

 25 27  0  0  0  0  0  0  0  0999 V2000
    6.0000   -4.8970   20.7710 C   0  0  0  0  0  0  0  0  0  0  0  0
    5.8480   -3.4970   20.3850 C   0  0  0  0  0  0  0  0  0  0  0  0
    5.4090   -3.3390   19.2550 O   0  0  0  0  0  0  0  0  0  0  0  0
    6.1830   -2.5100   21.1910 N   0  0  0  0  0  0  0  0  0  0  0  0
    6.0590   -2.9310   22.5010 C   0  0  0  0  0  0  0  0  0  0  0  0
    7.3280   -3.4980   23.0990 C   0  0  0  0  0  0  0  0  0  0  0  0
    8.6060   -2.9120   22.6380 N   0  0  0  0  0  0  0  0  0  0  0  0
    9.5730   -2.7920   23.7550 C   0  0  0  0  0  0  0  0  0  0  0  0
   10.3610   -1.4970   23.5880 C   0  0  0  0  0  0  0  0  0  0  0  0
    9.6250   -0.2990   24.1630 C   0  0  0  0  0  0  0  0  0  0  0  0
   10.3390    1.0040   23.9360 C   0  0  0  0  0  0  0  0  0  0  0  0
   11.5480    1.1310   23.2750 C   0  0  0  0  0  0  0  0  0  0  0  0
   11.8160    2.6630   23.1990 C   0  0  0  0  0  0  0  0  0  0  0  0
   13.0020    3.3770   22.6770 C   0  0  0  0  0  0  0  0  0  0  0  0
   13.0140    4.7760   22.6530 C   0  0  0  0  0  0  0  0  0  0  0  0
   14.0500    5.4380   22.1700 F   0  0  0  0  0  0  0  0  0  0  0  0
   12.0010    5.5510   23.0970 N   0  0  0  0  0  0  0  0  0  0  0  0
   10.9620    4.8370   23.5680 C   0  0  0  0  0  0  0  0  0  0  0  0
    9.8900    5.5800   24.0440 C   0  0  0  0  0  0  0  0  0  0  0  0
   10.8310    3.4790   23.6310 N   0  0  0  0  0  0  0  0  0  0  0  0
   12.2080   -0.0740   22.8140 C   0  0  0  0  0  0  0  0  0  0  0  0
   13.4080   -0.1060   22.1810 F   0  0  0  0  0  0  0  0  0  0  0  0
   11.6070   -1.3390   22.9740 C   0  0  0  0  0  0  0  0  0  0  0  0
    8.4430   -1.6240   21.9070 C   0  0  0  0  0  0  0  0  0  0  0  0
    7.2320   -1.5050   20.9490 C   0  0  0  0  0  0  0  0  0  0  0  0
  1  2  1  0
  2  3  2  0
  2  4  1  0
  4  5  1  0
  5  6  1  0
  6  7  1  0
  7  8  1  0
  8  9  1  0
  9 10  2  0
 10 11  1  0
 11 12  2  0
 12 13  1  0
 13 14  2  0
 14 15  1  0
 15 16  1  0
 15 17  2  0
 17 18  1  0
 18 19  1  0
 13 20  1  0
 18 20  2  0
 12 21  1  0
 21 22  1  0
  9 23  1  0
 21 23  2  0
  7 24  1  0
  4 25  1  0
 24 25  1  0
M  END
