BEN-VAN-d8fd1356-22
     RDKit          3D

 23 25  0  0  0  0  0  0  0  0999 V2000
    4.0880    0.6030   20.0400 C   0  0  0  0  0  0  0  0  0  0  0  0
    4.5650    1.5990   19.0400 C   0  0  0  0  0  0  0  0  0  0  0  0
    5.8150    1.0910   18.3680 C   0  0  0  0  0  0  0  0  0  0  0  0
    5.8750    1.1970   17.1570 O   0  0  0  0  0  0  0  0  0  0  0  0
    6.8280    0.5740   19.1060 N   0  0  0  0  0  0  0  0  0  0  0  0
    6.9800    1.2490   20.2390 C   0  0  0  0  0  0  0  0  0  0  0  0
    6.5540    0.6140   21.5410 C   0  0  0  0  0  0  0  0  0  0  0  0
    7.4800   -0.3490   21.8490 N   0  0  0  0  0  0  0  0  0  0  0  0
    8.6780    0.2190   22.5400 C   0  0  0  0  0  0  0  0  0  0  0  0
    9.8900   -0.7470   22.5430 C   0  0  0  0  0  0  0  0  0  0  0  0
   11.2610   -1.4280   22.5690 C   0  0  0  0  0  0  0  0  0  0  0  0
   12.7030   -1.0610   22.6560 C   0  0  0  0  0  0  0  0  0  0  0  0
   13.6440   -1.9900   22.6290 F   0  0  0  0  0  0  0  0  0  0  0  0
   12.9590    0.2370   22.7530 C   0  0  0  0  0  0  0  0  0  0  0  0
   11.8800    1.0890   22.7660 C   0  0  0  0  0  0  0  0  0  0  0  0
   12.2770    2.4860   22.8630 C   0  0  0  0  0  0  0  0  0  0  0  0
   12.3860    3.8760   22.9470 C   0  0  0  0  0  0  0  0  0  0  0  0
   11.5720    4.5730   23.8490 C   0  0  0  0  0  0  0  0  0  0  0  0
   10.9050    2.8390   22.8480 C   0  0  0  0  0  0  0  0  0  0  0  0
    9.9120    1.8190   22.7520 N   0  0  0  0  0  0  0  0  0  0  0  0
   10.5460    0.5730   22.6760 C   0  0  0  0  0  0  0  0  0  0  0  0
    7.8310   -1.1090   20.6400 C   0  0  0  0  0  0  0  0  0  0  0  0
    7.0080   -0.8560   19.4410 C   0  0  0  0  0  0  0  0  0  0  0  0
  1  2  1  0
  2  3  1  0
  3  4  2  0
  3  5  1  0
  5  6  1  0
  6  7  1  0
  7  8  1  0
  8  9  1  0
  9 10  1  0
 10 11  2  0
 11 12  1  0
 12 13  1  0
 12 14  2  0
 14 15  1  0
 15 16  1  0
 16 17  1  0
 17 18  1  0
 16 19  2  0
 19 20  1  0
 10 21  1  0
 15 21  2  0
 20 21  1  0
  8 22  1  0
  5 23  1  0
 22 23  1  0
M  END
