BEN-VAN-d8fd1356-24
     RDKit          3D

 24 26  0  0  0  0  0  0  0  0999 V2000
    4.2480    1.4110   18.7840 C   0  0  0  0  0  0  0  0  0  0  0  0
    5.6150    1.2620   18.2880 C   0  0  0  0  0  0  0  0  0  0  0  0
    5.8810    1.5120   17.1240 O   0  0  0  0  0  0  0  0  0  0  0  0
    6.5340    0.8360   19.2300 N   0  0  0  0  0  0  0  0  0  0  0  0
    6.8040   -0.5980   19.2830 C   0  0  0  0  0  0  0  0  0  0  0  0
    6.9450   -0.9240   20.6340 C   0  0  0  0  0  0  0  0  0  0  0  0
    8.0420   -0.1380   21.2310 N   0  0  0  0  0  0  0  0  0  0  0  0
    8.6730   -0.6680   22.4580 C   0  0  0  0  0  0  0  0  0  0  0  0
   10.1590   -0.4140   22.5580 C   0  0  0  0  0  0  0  0  0  0  0  0
   11.1760   -1.5750   22.4550 C   0  0  0  0  0  0  0  0  0  0  0  0
   12.6120   -1.1300   22.5380 C   0  0  0  0  0  0  0  0  0  0  0  0
   13.5710   -2.0380   22.4530 F   0  0  0  0  0  0  0  0  0  0  0  0
   12.9470    0.3010   22.7030 C   0  0  0  0  0  0  0  0  0  0  0  0
   12.0190    1.2550   22.7870 C   0  0  0  0  0  0  0  0  0  0  0  0
   12.3390    2.6750   22.9230 C   0  0  0  0  0  0  0  0  0  0  0  0
   12.3280    4.0790   23.0510 C   0  0  0  0  0  0  0  0  0  0  0  0
   11.9540    4.6860   21.9000 F   0  0  0  0  0  0  0  0  0  0  0  0
   13.5440    4.5960   23.3250 F   0  0  0  0  0  0  0  0  0  0  0  0
   11.4790    4.5280   24.0170 F   0  0  0  0  0  0  0  0  0  0  0  0
   10.9650    3.0860   22.9640 C   0  0  0  0  0  0  0  0  0  0  0  0
   10.0910    2.0340   22.8500 N   0  0  0  0  0  0  0  0  0  0  0  0
   10.6800    0.8700   22.7240 C   0  0  0  0  0  0  0  0  0  0  0  0
    7.6490    1.2710   21.3050 C   0  0  0  0  0  0  0  0  0  0  0  0
    6.4450    1.4220   20.5840 C   0  0  0  0  0  0  0  0  0  0  0  0
  1  2  1  0
  2  3  2  0
  2  4  1  0
  4  5  1  0
  5  6  1  0
  6  7  1  0
  7  8  1  0
  8  9  1  0
  9 10  2  0
 10 11  1  0
 11 12  1  0
 11 13  2  0
 13 14  1  0
 14 15  1  0
 15 16  1  0
 16 17  1  0
 16 18  1  0
 16 19  1  0
 15 20  2  0
 20 21  1  0
  9 22  1  0
 14 22  2  0
 21 22  1  0
  7 23  1  0
  4 24  1  0
 23 24  1  0
M  END
