BEN-VAN-77cef4f8-3
     RDKit          3D

 29 31  0  0  0  0  0  0  0  0999 V2000
    6.2920   -1.9790   19.0390 C   0  0  0  0  0  0  0  0  0  0  0  0
    5.9480   -3.0400   20.0440 C   0  0  0  0  0  0  0  0  0  0  0  0
    5.4450   -4.1300   19.7540 O   0  0  0  0  0  0  0  0  0  0  0  0
    6.2940   -2.6750   21.3210 N   0  0  0  0  0  0  0  0  0  0  0  0
    6.1290   -3.6490   22.3700 C   0  0  0  0  0  0  0  0  0  0  0  0
    7.2910   -4.3790   22.4680 C   0  0  0  0  0  0  0  0  0  0  0  0
    8.3510   -3.5240   22.9860 O   0  0  0  0  0  0  0  0  0  0  0  0
    8.7150   -2.4840   22.0580 C   0  0  2  0  0  0  0  0  0  0  0  0
    9.6260   -1.5190   22.5440 C   0  0  0  0  0  0  0  0  0  0  0  0
    9.1350   -0.4060   23.3490 C   0  0  0  0  0  0  0  0  0  0  0  0
    9.9630    0.5370   23.8400 C   0  0  0  0  0  0  0  0  0  0  0  0
    9.2900    1.5540   24.6120 C   0  0  0  0  0  0  0  0  0  0  0  0
    8.4750    0.7860   25.5060 O   0  0  0  0  0  0  0  0  0  0  0  0
    8.3210    1.3220   26.8100 C   0  0  2  0  0  0  0  0  0  0  0  0
    9.0780    0.4640   27.7520 C   0  0  0  0  0  0  0  0  0  0  0  0
    6.9480    1.2160   27.1370 N   0  0  0  0  0  0  0  0  0  0  0  0
    6.3370    2.4410   27.4920 C   0  0  0  0  0  0  0  0  0  0  0  0
    7.1890    3.6930   27.7000 C   0  0  0  0  0  0  0  0  0  0  0  0
    6.6500    4.9060   28.0440 C   0  0  0  0  0  0  0  0  0  0  0  0
    5.1430    4.9190   28.2050 C   0  0  0  0  0  0  0  0  0  0  0  0
    4.3580    3.8200   28.0270 N   0  0  0  0  0  0  0  0  0  0  0  0
    4.9590    2.6390   27.6830 C   0  0  0  0  0  0  0  0  0  0  0  0
    3.8360    1.3450   27.4960 Cl  0  0  0  0  0  0  0  0  0  0  0  0
   11.3520    0.4310   23.5500 C   0  0  0  0  0  0  0  0  0  0  0  0
   12.2300    1.3230   23.9940 F   0  0  0  0  0  0  0  0  0  0  0  0
   11.8280   -0.6160   22.7860 C   0  0  0  0  0  0  0  0  0  0  0  0
   11.0020   -1.6010   22.2680 C   0  0  0  0  0  0  0  0  0  0  0  0
   11.5530   -2.5610   21.5470 F   0  0  0  0  0  0  0  0  0  0  0  0
    7.4290   -1.7630   21.5700 C   0  0  0  0  0  0  0  0  0  0  0  0
  1  2  1  0
  2  3  2  0
  2  4  1  0
  4  5  1  0
  5  6  1  0
  6  7  1  0
  7  8  1  0
  8  9  1  1
  9 10  2  0
 10 11  1  0
 11 12  1  0
 12 13  1  0
 13 14  1  0
 14 15  1  1
 14 16  1  0
 16 17  1  0
 17 18  2  0
 18 19  1  0
 19 20  2  0
 20 21  1  0
 17 22  1  0
 21 22  2  0
 22 23  1  0
 11 24  2  0
 24 25  1  0
 24 26  1  0
  9 27  1  0
 26 27  2  0
 27 28  1  0
  4 29  1  0
  8 29  1  0
M  END
