BEN-VAN-5787f7d3-16
     RDKit          3D

 33 36  0  0  0  0  0  0  0  0999 V2000
   10.4490   -6.0820   20.0290 C   0  0  0  0  0  0  0  0  0  0  0  0
   10.1610   -4.8470   19.4720 C   0  0  0  0  0  0  0  0  0  0  0  0
    9.5380   -4.1630   20.1440 O   0  0  0  0  0  0  0  0  0  0  0  0
   10.4750   -3.4620   20.5530 C   0  0  0  0  0  0  0  0  0  0  0  0
   11.9590   -3.8490   20.2240 C   0  0  0  0  0  0  0  0  0  0  0  0
   12.9720   -3.0140   20.6660 N   0  0  0  0  0  0  0  0  0  0  0  0
   12.5410   -1.8980   21.3160 C   0  0  0  0  0  0  0  0  0  0  0  0
   13.0700   -0.7440   21.8050 C   0  0  0  0  0  0  0  0  0  0  0  0
   13.7860   -0.1060   20.9850 C   0  0  0  0  0  0  0  0  0  0  0  0
   14.2030   -0.5700   19.6920 C   0  0  0  0  0  0  0  0  0  0  0  0
   14.2340    1.0490   21.1710 C   0  0  0  0  0  0  0  0  0  0  0  0
   13.9960    1.5830   22.3310 C   0  0  0  0  0  0  0  0  0  0  0  0
   14.6470    2.6500   22.1890 F   0  0  0  0  0  0  0  0  0  0  0  0
   13.2630    1.0410   23.3470 N   0  0  0  0  0  0  0  0  0  0  0  0
   12.8110   -0.1650   23.0160 C   0  0  0  0  0  0  0  0  0  0  0  0
   11.8360   -1.0520   24.1130 Cl  0  0  0  0  0  0  0  0  0  0  0  0
   11.2520   -1.5590   21.6120 C   0  0  0  0  0  0  0  0  0  0  0  0
   10.1850   -2.2380   21.2990 C   0  0  0  0  0  0  0  0  0  0  0  0
    8.9760   -1.6950   21.6360 C   0  0  0  0  0  0  0  0  0  0  0  0
    8.8300   -0.3990   22.1680 C   0  0  0  0  0  0  0  0  0  0  0  0
    7.6000    0.2020   22.5040 C   0  0  0  0  0  0  0  0  0  0  0  0
    7.4920    1.7970   23.1460 Cl  0  0  0  0  0  0  0  0  0  0  0  0
    6.3530   -0.6710   22.2550 C   0  0  0  0  0  0  0  0  0  0  0  0
    6.6590   -2.0550   21.6760 C   0  0  0  0  0  0  0  0  0  0  0  0
    5.4990   -2.9740   21.4260 C   0  0  0  0  0  0  0  0  0  0  0  0
    5.1410   -3.3440   20.3170 O   0  0  0  0  0  0  0  0  0  0  0  0
    4.9730   -3.2960   22.6250 N   0  0  0  0  0  0  0  0  0  0  0  0
    4.6290   -4.5430   22.9920 C   0  0  0  0  0  0  0  0  0  0  0  0
    5.4810   -5.7550   23.3160 C   0  0  0  0  0  0  0  0  0  0  0  0
    4.5650   -6.7630   23.6420 C   0  0  0  0  0  0  0  0  0  0  0  0
    3.2130   -6.1330   23.5060 C   0  0  0  0  0  0  0  0  0  0  0  0
    3.3150   -4.8380   23.1210 O   0  0  0  0  0  0  0  0  0  0  0  0
    7.9140   -2.4610   21.4100 C   0  0  0  0  0  0  0  0  0  0  0  0
  1  2  1  0
  2  3  1  0
  3  4  1  0
  4  5  2  0
  5  6  1  0
  6  7  2  0
  7  8  1  0
  8  9  2  0
  9 10  1  0
  9 11  1  0
 11 12  2  0
 12 13  1  0
 12 14  1  0
  8 15  1  0
 14 15  2  0
 15 16  1  0
  7 17  1  0
  4 18  1  0
 17 18  2  0
 18 19  1  0
 19 20  2  0
 20 21  1  0
 21 22  1  0
 21 23  2  0
 23 24  1  0
 24 25  1  0
 25 26  2  0
 25 27  1  0
 27 28  1  0
 28 29  2  0
 29 30  1  0
 30 31  2  0
 28 32  1  0
 31 32  1  0
 19 33  1  0
 24 33  2  0
M  END
