BET-COM-8a5969bb-1
     RDKit          3D

 11 12  0  0  0  0  0  0  0  0999 V2000
    9.0670   -1.7710   23.1620 C   0  0  0  0  0  0  0  0  0  0  0  0
   10.3540   -1.3160   23.6800 C   0  0  1  0  0  0  0  0  0  0  0  0
   10.5940   -0.4770   24.7820 C   0  0  0  0  0  0  0  0  0  0  0  0
   12.0000   -0.3490   24.7620 C   0  0  0  0  0  0  0  0  0  0  0  0
   12.8440   -1.2930   24.0680 C   0  0  1  0  0  0  0  0  0  0  0  0
   12.5580   -2.5660   24.1990 C   0  0  0  0  0  0  0  0  0  0  0  0
   11.1020   -2.6780   23.7850 C   0  0  0  0  0  0  0  0  0  0  0  0
   12.3840   -1.0550   22.6890 C   0  0  0  0  0  0  0  0  0  0  0  0
   13.3010   -0.1100   22.0900 C   0  0  0  0  0  0  0  0  0  0  0  0
   13.0430   -1.7140   21.5030 C   0  0  0  0  0  0  0  0  0  0  0  0
   11.0090   -0.6880   22.5670 O   0  0  0  0  0  0  0  0  0  0  0  0
  2  1  1  6
  2  3  1  0
  3  4  1  0
  5  4  1  1
  5  6  1  0
  2  7  1  0
  6  7  1  0
  5  8  1  0
  8  9  1  0
  8 10  1  0
  2 11  1  0
  8 11  1  0
M  END
