BET-COM-8a5969bb-2
     RDKit          3D

 14 13  0  0  0  0  0  0  0  0999 V2000
    6.5220   -3.4310   24.0330 C   0  0  0  0  0  0  0  0  0  0  0  0
    7.7280   -3.5140   24.6200 C   0  0  0  0  0  0  0  0  0  0  0  0
    7.8600   -4.2450   25.9320 C   0  0  0  0  0  0  0  0  0  0  0  0
    9.0040   -2.8910   24.0030 C   0  0  1  0  0  0  0  0  0  0  0  0
    8.7550   -1.6970   23.3000 C   0  0  0  0  0  0  0  0  0  0  0  0
    8.0210   -1.7260   22.1050 C   0  0  0  0  0  0  0  0  0  0  0  0
    7.9720   -0.5670   21.3220 C   0  0  0  0  0  0  0  0  0  0  0  0
    8.6860    0.7010   21.7470 C   0  0  0  0  0  0  0  0  0  0  0  0
    7.2360   -0.6020   20.1290 C   0  0  0  0  0  0  0  0  0  0  0  0
   10.0210   -2.7990   24.9490 C   0  0  0  0  0  0  0  0  0  0  0  0
    9.6020   -3.3940   26.0810 O   0  0  0  0  0  0  0  0  0  0  0  0
   10.3760   -4.4200   26.4810 C   0  0  0  0  0  0  0  0  0  0  0  0
    9.6170   -5.3100   27.4650 C   0  0  0  0  0  0  0  0  0  0  0  0
   11.5300   -4.5880   26.1150 O   0  0  0  0  0  0  0  0  0  0  0  0
  1  2  2  3
  2  3  1  0
  2  4  1  0
  4  5  1  1
  5  6  1  0
  6  7  2  3
  7  8  1  0
  7  9  1  0
  4 10  1  0
 10 11  1  0
 11 12  1  0
 12 13  1  0
 12 14  2  0
M  END
