CAL-AMP-9edebd8f-1
     RDKit          3D

 22 23  0  0  0  0  0  0  0  0999 V2000
    8.9450    6.6700   22.5000 C   0  0  0  0  0  0  0  0  0  0  0  0
   10.0600    6.2070   23.3990 C   0  0  0  0  0  0  0  0  0  0  0  0
   10.0390    6.3650   24.6160 O   0  0  0  0  0  0  0  0  0  0  0  0
   11.0810    5.5970   22.7270 N   0  0  0  0  0  0  0  0  0  0  0  0
   12.1210    4.9150   23.4840 C   0  0  0  0  0  0  0  0  0  0  0  0
   12.6370    3.6500   22.8210 C   0  0  0  0  0  0  0  0  0  0  0  0
   11.7190    2.4340   23.1260 C   0  0  0  0  0  0  0  0  0  0  0  0
   10.3530    2.6520   23.7420 C   0  0  0  0  0  0  0  0  0  0  0  0
    9.7830    1.3990   23.8250 N   0  0  0  0  0  0  0  0  0  0  0  0
   10.6390    0.4020   23.3260 C   0  0  0  0  0  0  0  0  0  0  0  0
   10.4000   -0.9870   23.2060 C   0  0  0  0  0  0  0  0  0  0  0  0
    9.1970   -1.5950   23.6020 C   0  0  0  0  0  0  0  0  0  0  0  0
    9.0330   -2.9930   23.7980 C   0  0  0  0  0  0  0  0  0  0  0  0
    7.8700   -3.3460   24.6500 N   0  0  0  0  0  0  0  0  0  0  0  0
    8.0630   -4.2540   26.0630 S   0  0  0  0  0  0  0  0  0  0  0  0
    6.5100   -5.1120   26.2030 C   0  0  0  0  0  0  0  0  0  0  0  0
    9.0980   -5.2380   25.8040 O   0  0  0  0  0  0  0  0  0  0  0  0
    8.1500   -3.3350   27.1750 O   0  0  0  0  0  0  0  0  0  0  0  0
   11.4100   -1.8230   22.6560 C   0  0  0  0  0  0  0  0  0  0  0  0
   12.7620   -1.3400   22.2200 C   0  0  0  0  0  0  0  0  0  0  0  0
   12.9390    0.1330   22.3930 C   0  0  0  0  0  0  0  0  0  0  0  0
   11.8440    1.0210   22.9280 C   0  0  0  0  0  0  0  0  0  0  0  0
  1  2  1  0
  2  3  2  0
  2  4  1  0
  4  5  1  0
  5  6  1  0
  6  7  1  0
  7  8  2  0
  8  9  1  0
  9 10  1  0
 10 11  1  0
 11 12  1  0
 12 13  1  0
 13 14  1  0
 15 14  1  0
 15 16  1  0
 15 17  2  0
 15 18  2  0
 11 19  2  0
 19 20  1  0
 20 21  2  0
  7 22  1  0
 10 22  2  0
 21 22  1  0
M  END
