CAM-STU-3ef21e73-1
     RDKit          3D

 18 19  0  0  0  0  0  0  0  0999 V2000
   13.3070   -3.2540   20.8090 C   0  0  0  0  0  0  0  0  0  0  0  0
   12.9970   -1.8790   21.2140 C   0  0  0  0  0  0  0  0  0  0  0  0
   13.2710   -1.5270   22.5090 N   0  0  0  0  0  0  0  0  0  0  0  0
   12.1720   -1.0070   23.1830 C   0  0  0  0  0  0  0  0  0  0  0  0
   11.6300   -2.1110   22.7120 C   0  0  0  0  0  0  0  0  0  0  0  0
   10.8550   -1.0760   23.5790 C   0  0  0  0  0  0  0  0  0  0  0  0
   12.0530    0.1170   23.8720 C   0  0  0  0  0  0  0  0  0  0  0  0
   13.0890   -0.4550   23.1610 C   0  0  0  0  0  0  0  0  0  0  0  0
   10.8420    0.1730   24.3320 C   0  0  0  0  0  0  0  0  0  0  0  0
   10.7240   -0.9470   23.7040 C   0  0  0  0  0  0  0  0  0  0  0  0
    9.5640   -1.7700   23.6030 C   0  0  0  0  0  0  0  0  0  0  0  0
    9.4500   -2.7390   24.6020 N   0  0  0  0  0  0  0  0  0  0  0  0
   10.4220   -3.0560   25.5490 C   0  0  0  0  0  0  0  0  0  0  0  0
   10.0580   -4.3240   26.3440 C   0  0  0  0  0  0  0  0  0  0  0  0
    8.7440   -4.2900   26.7300 C   0  0  0  0  0  0  0  0  0  0  0  0
    8.3340   -5.0910   27.5410 O   0  0  0  0  0  0  0  0  0  0  0  0
    7.9490   -4.2330   25.5600 C   0  0  0  0  0  0  0  0  0  0  0  0
    8.1450   -2.9860   24.9820 C   0  0  0  0  0  0  0  0  0  0  0  0
  1  2  1  0
  2  3  1  0
  3  4  1  0
  4  5  2  0
  5  6  1  0
  6  7  2  0
  7  8  1  0
  7  9  1  0
  4 10  1  0
  9 10  2  0
 10 11  1  0
 11 12  1  0
 12 13  1  0
 13 14  1  0
 14 15  1  0
 15 16  1  0
 15 17  1  0
 12 18  1  0
 17 18  1  0
M  END
