CAM-STU-3ef21e73-2
     RDKit          3D

 22 24  0  0  0  0  0  0  0  0999 V2000
    9.1830    5.1570   25.0930 N   0  0  0  0  0  0  0  0  0  0  0  0
   10.0520    5.2760   23.6740 S   0  0  0  0  0  0  0  0  0  0  0  0
    9.0210    5.4550   22.6900 O   0  0  0  0  0  0  0  0  0  0  0  0
   11.0670    6.2900   23.8800 O   0  0  0  0  0  0  0  0  0  0  0  0
   10.8450    3.7150   23.3820 C   0  0  0  0  0  0  0  0  0  0  0  0
   10.0930    2.4020   23.3660 C   0  0  0  0  0  0  0  0  0  0  0  0
   10.7650    1.0610   23.0230 C   0  0  1  0  0  0  0  0  0  0  0  0
   12.2680    1.0710   22.7360 C   0  0  1  0  0  0  0  0  0  0  0  0
   12.9280    2.3970   22.8400 C   0  0  0  0  0  0  0  0  0  0  0  0
   12.2540    3.6950   23.1300 C   0  0  0  0  0  0  0  0  0  0  0  0
   12.8550   -0.1070   23.4310 C   0  0  0  0  0  0  0  0  0  0  0  0
   12.2560   -1.1230   22.6730 C   0  0  0  0  0  0  0  0  0  0  0  0
   10.8680   -1.1150   22.9300 C   0  0  0  0  0  0  0  0  0  0  0  0
   10.3810   -0.1490   23.7520 N   0  0  0  0  0  0  0  0  0  0  0  0
    9.0680   -0.2260   24.1150 C   0  0  0  0  0  0  0  0  0  0  0  0
    8.3920   -1.4290   24.1190 N   0  0  0  0  0  0  0  0  0  0  0  0
    8.5240   -2.1900   23.0160 C   0  0  0  0  0  0  0  0  0  0  0  0
    7.7010   -3.2960   23.0010 C   0  0  0  0  0  0  0  0  0  0  0  0
    7.5400   -3.9930   24.3050 C   0  0  0  0  0  0  0  0  0  0  0  0
    6.7730   -4.9480   24.4500 O   0  0  0  0  0  0  0  0  0  0  0  0
    8.3050   -3.5000   25.3470 C   0  0  0  0  0  0  0  0  0  0  0  0
    8.4960   -2.1160   25.4220 C   0  0  0  0  0  0  0  0  0  0  0  0
  2  1  1  0
  2  3  2  0
  2  4  2  0
  2  5  1  0
  5  6  2  0
  7  6  1  1
  7  8  1  0
  8  9  1  1
  5 10  1  0
  9 10  2  0
  8 11  1  0
 11 12  1  0
 12 13  1  0
  7 14  1  0
 13 14  1  0
 14 15  1  0
 15 16  1  0
 16 17  1  0
 17 18  1  0
 18 19  1  0
 19 20  2  0
 19 21  1  0
 16 22  1  0
 21 22  1  0
M  END
