CAR-INS-33b3c115-4
     RDKit          3D

 29 32  0  0  0  0  0  0  0  0999 V2000
    8.7440   -2.4830   21.9930 C   0  0  0  0  0  0  0  0  0  0  0  0
    8.6470   -3.4480   23.0780 O   0  0  0  0  0  0  0  0  0  0  0  0
    7.6370   -3.2050   23.9730 C   0  0  0  0  0  0  0  0  0  0  0  0
    7.0770   -2.7070   24.7970 C   0  0  0  0  0  0  0  0  0  0  0  0
    8.2050   -1.8650   24.8200 N   0  0  0  0  0  0  0  0  0  0  0  0
    7.1470   -2.4530   24.9780 C   0  0  0  0  0  0  0  0  0  0  0  0
    8.2120   -3.0700   23.7530 C   0  0  0  0  0  0  0  0  0  0  0  0
    7.6190   -4.0620   23.2300 N   0  0  0  0  0  0  0  0  0  0  0  0
    8.8940   -3.3400   23.1050 C   0  0  0  0  0  0  0  0  0  0  0  0
    9.7540   -2.1120   23.6830 C   0  0  0  0  0  0  0  0  0  0  0  0
   11.0180   -2.2300   22.8260 C   0  0  0  0  0  0  0  0  0  0  0  0
   11.1380   -2.4340   21.6250 O   0  0  0  0  0  0  0  0  0  0  0  0
   12.1960   -1.9890   23.7390 C   0  0  0  0  0  0  0  0  0  0  0  0
   12.5050   -0.8270   23.9920 O   0  0  0  0  0  0  0  0  0  0  0  0
   12.8350   -3.0420   24.2190 N   0  0  0  0  0  0  0  0  0  0  0  0
   14.0280   -3.1520   23.5690 C   0  0  0  0  0  0  0  0  0  0  0  0
   15.1260   -3.7920   24.3530 C   0  0  0  0  0  0  0  0  0  0  0  0
   14.9930   -4.7220   25.1970 N   0  0  0  0  0  0  0  0  0  0  0  0
   16.1280   -5.7580   25.2420 C   0  0  0  0  0  0  0  0  0  0  0  0
   16.1850   -6.9740   25.2960 O   0  0  0  0  0  0  0  0  0  0  0  0
   17.3600   -5.0430   25.2540 C   0  0  0  0  0  0  0  0  0  0  0  0
   18.2330   -5.6350   26.2110 C   0  0  0  0  0  0  0  0  0  0  0  0
   19.5590   -4.8450   26.3660 C   0  0  0  0  0  0  0  0  0  0  0  0
   19.8200   -3.6050   25.5230 C   0  0  0  0  0  0  0  0  0  0  0  0
   18.7650   -3.2100   24.5560 C   0  0  0  0  0  0  0  0  0  0  0  0
   17.5880   -3.9960   24.5070 C   0  0  0  0  0  0  0  0  0  0  0  0
   14.3230   -3.7810   26.1270 C   0  0  0  0  0  0  0  0  0  0  0  0
   13.0250   -3.1610   25.6260 C   0  0  0  0  0  0  0  0  0  0  0  0
    8.5260   -2.1760   24.3580 C   0  0  0  0  0  0  0  0  0  0  0  0
  1  2  1  0
  2  3  1  0
  3  4  2  0
  4  5  1  0
  5  6  2  0
  6  7  1  0
  7  8  1  0
  8  9  1  0
  9 10  2  0
 10 11  1  0
 11 12  2  0
 11 13  1  0
 13 14  2  0
 13 15  1  0
 15 16  1  0
 16 17  1  0
 17 18  1  0
 18 19  1  0
 19 20  2  0
 19 21  1  0
 21 22  2  0
 22 23  1  0
 23 24  2  0
 24 25  1  0
 21 26  1  0
 25 26  2  0
 18 27  1  0
 15 28  1  0
 27 28  1  0
  3 29  1  0
  7 29  2  0
 10 29  1  0
M  END
