CAR-INS-33b3c115-2
     RDKit          3D

 28 31  0  0  0  0  0  0  0  0999 V2000
   13.0110   -0.7570   24.2060 O   0  0  0  0  0  0  0  0  0  0  0  0
   12.1770   -0.0020   23.7140 C   0  0  0  0  0  0  0  0  0  0  0  0
   12.5530    1.5190   23.5420 C   0  0  0  0  0  0  0  0  0  0  0  0
   12.9550    1.8560   22.4200 O   0  0  0  0  0  0  0  0  0  0  0  0
   12.5030    2.5120   24.6120 N   0  0  0  0  0  0  0  0  0  0  0  0
   11.3390    2.9430   25.4120 C   0  0  0  0  0  0  0  0  0  0  0  0
   11.0830    4.3500   25.4050 C   0  0  0  0  0  0  0  0  0  0  0  0
   12.2340    5.2880   25.2140 N   0  0  0  0  0  0  0  0  0  0  0  0
   11.9080    6.2550   24.3030 C   0  0  0  0  0  0  0  0  0  0  0  0
   11.5470    7.4200   24.4380 O   0  0  0  0  0  0  0  0  0  0  0  0
   12.0640    5.6090   23.1090 C   0  0  0  0  0  0  0  0  0  0  0  0
   13.1830    5.8040   22.3360 C   0  0  0  0  0  0  0  0  0  0  0  0
   13.2330    5.0390   21.1420 C   0  0  0  0  0  0  0  0  0  0  0  0
   12.1610    4.0640   20.7160 C   0  0  0  0  0  0  0  0  0  0  0  0
   11.0000    3.9420   21.6870 C   0  0  0  0  0  0  0  0  0  0  0  0
    9.6460    2.8830   21.4400 Cl  0  0  0  0  0  0  0  0  0  0  0  0
   11.0310    4.7240   22.7920 C   0  0  0  0  0  0  0  0  0  0  0  0
   13.5870    4.7450   24.9400 C   0  0  0  0  0  0  0  0  0  0  0  0
   13.7320    3.3100   24.9110 C   0  0  0  0  0  0  0  0  0  0  0  0
   10.7660   -0.5220   23.3080 C   0  0  0  0  0  0  0  0  0  0  0  0
   10.0560   -1.8100   23.4030 C   0  0  0  0  0  0  0  0  0  0  0  0
    8.8690   -1.3500   22.8410 N   0  0  0  0  0  0  0  0  0  0  0  0
   10.0310   -0.8390   23.1210 C   0  0  0  0  0  0  0  0  0  0  0  0
   10.3840   -1.9350   23.5510 C   0  0  0  0  0  0  0  0  0  0  0  0
   11.6450   -1.4190   23.8380 N   0  0  0  0  0  0  0  0  0  0  0  0
   11.8510    0.0650   23.4960 C   0  0  0  0  0  0  0  0  0  0  0  0
   10.7720    0.8400   22.9070 C   0  0  0  0  0  0  0  0  0  0  0  0
    9.6730    0.2670   22.6870 C   0  0  0  0  0  0  0  0  0  0  0  0
  1  2  2  0
  2  3  1  0
  3  4  2  0
  3  5  1  0
  5  6  1  0
  6  7  1  0
  7  8  1  0
  8  9  1  0
  9 10  2  0
  9 11  1  0
 11 12  2  0
 12 13  1  0
 13 14  2  0
 14 15  1  0
 15 16  1  0
 11 17  1  0
 15 17  2  0
  8 18  1  0
  5 19  1  0
 18 19  1  0
  2 20  1  0
 20 21  2  0
 21 22  1  0
 22 23  1  0
 23 24  1  0
 24 25  2  0
 25 26  1  0
 26 27  2  0
 20 28  1  0
 23 28  2  0
 27 28  1  0
M  END
