CAS-DEP-167c18e3-2
     RDKit          3D

 22 24  0  0  0  0  0  0  0  0999 V2000
   12.9970    3.7110   22.7870 C   0  0  0  0  0  0  0  0  0  0  0  0
   11.7410    3.2710   22.6530 C   0  0  0  0  0  0  0  0  0  0  0  0
   10.8500    2.1800   22.7220 C   0  0  0  0  0  0  0  0  0  0  0  0
   11.5200    0.7440   23.1500 C   0  0  0  0  0  0  0  0  0  0  0  0
   12.7840    0.4570   23.4730 N   0  0  0  0  0  0  0  0  0  0  0  0
   12.9830   -0.8460   23.6330 C   0  0  0  0  0  0  0  0  0  0  0  0
   12.1220   -1.5710   24.4570 C   0  0  0  0  0  0  0  0  0  0  0  0
   11.7810   -2.7650   23.8700 C   0  0  0  0  0  0  0  0  0  0  0  0
   12.5170   -2.6880   22.5320 C   0  0  0  0  0  0  0  0  0  0  0  0
   12.8320   -1.2580   22.3280 C   0  0  0  0  0  0  0  0  0  0  0  0
   10.4890   -0.0570   23.1080 C   0  0  0  0  0  0  0  0  0  0  0  0
   10.4960    1.2950   22.8170 C   0  0  0  0  0  0  0  0  0  0  0  0
    9.3390    2.0210   22.4020 C   0  0  0  0  0  0  0  0  0  0  0  0
    8.8050    1.6910   21.3330 O   0  0  0  0  0  0  0  0  0  0  0  0
    8.9070    3.1190   23.2510 N   0  0  0  0  0  0  0  0  0  0  0  0
    8.4780    4.3550   22.7730 C   0  0  0  0  0  0  0  0  0  0  0  0
    7.2990    4.5940   22.0630 C   0  0  0  0  0  0  0  0  0  0  0  0
    6.9200    5.9690   21.5780 C   0  0  0  0  0  0  0  0  0  0  0  0
    7.7490    7.0590   21.8290 C   0  0  0  0  0  0  0  0  0  0  0  0
    8.9330    6.8550   22.5360 C   0  0  0  0  0  0  0  0  0  0  0  0
    9.3160    5.4440   23.0310 C   0  0  0  0  0  0  0  0  0  0  0  0
   11.8640    1.9560   22.9590 C   0  0  0  0  0  0  0  0  0  0  0  0
  1  2  1  0
  2  3  2  0
  3  4  1  0
  4  5  1  0
  5  6  1  0
  6  7  1  0
  7  8  1  0
  8  9  1  0
  6 10  1  0
  9 10  1  0
  4 11  2  0
 11 12  1  0
 12 13  1  0
 13 14  2  0
 13 15  1  0
 15 16  1  0
 16 17  2  0
 17 18  1  0
 18 19  2  0
 19 20  1  0
 16 21  1  0
 20 21  2  0
  2 22  1  0
 12 22  2  0
M  END
