CAS-DEP-e179b1f5-1
     RDKit          3D

 24 26  0  0  0  0  0  0  0  0999 V2000
   14.1420    3.3260   21.3650 O   0  0  0  0  0  0  0  0  0  0  0  0
   14.0350    4.0330   22.3540 C   0  0  0  0  0  0  0  0  0  0  0  0
   15.1060    4.5290   23.2360 N   0  0  0  0  0  0  0  0  0  0  0  0
   16.5980    4.5140   23.0320 C   0  0  0  0  0  0  0  0  0  0  0  0
   17.4060    4.3240   23.9910 C   0  0  0  0  0  0  0  0  0  0  0  0
   18.8420    4.5520   23.9410 C   0  0  0  0  0  0  0  0  0  0  0  0
   19.4300    4.6940   22.8710 C   0  0  0  0  0  0  0  0  0  0  0  0
   18.5650    4.4760   21.8370 C   0  0  0  0  0  0  0  0  0  0  0  0
   17.3250    4.8270   21.9770 C   0  0  1  0  0  0  0  0  0  0  0  0
   16.3210    4.6020   21.1150 C   0  0  0  0  0  0  0  0  0  0  0  0
   15.1830    5.0430   21.2100 O   0  0  0  0  0  0  0  0  0  0  0  0
   16.7380    3.8460   20.1700 N   0  0  0  0  0  0  0  0  0  0  0  0
   15.8100    3.3770   19.4670 C   0  0  0  0  0  0  0  0  0  0  0  0
   14.6890    4.0940   19.2120 C   0  0  0  0  0  0  0  0  0  0  0  0
   13.9460    3.3510   18.4430 C   0  0  0  0  0  0  0  0  0  0  0  0
   14.6390    2.1410   18.2050 C   0  0  0  0  0  0  0  0  0  0  0  0
   15.8060    2.0290   18.8500 C   0  0  0  0  0  0  0  0  0  0  0  0
   12.8330    4.5370   22.8540 N   0  0  0  0  0  0  0  0  0  0  0  0
   11.5850    3.9130   23.1570 C   0  0  0  0  0  0  0  0  0  0  0  0
   11.0310    2.7280   23.1730 C   0  0  0  0  0  0  0  0  0  0  0  0
   11.2570    1.5260   22.9560 C   0  0  0  0  0  0  0  0  0  0  0  0
    9.9420    1.8280   23.3650 C   0  0  0  0  0  0  0  0  0  0  0  0
    9.4940    3.1470   23.6850 N   0  0  0  0  0  0  0  0  0  0  0  0
   10.3670    4.2680   23.5830 C   0  0  0  0  0  0  0  0  0  0  0  0
  1  2  2  0
  2  3  1  0
  3  4  1  0
  4  5  2  0
  5  6  1  0
  6  7  2  0
  7  8  1  0
  4  9  1  0
  8  9  1  0
  9 10  1  6
 10 11  2  0
 10 12  1  0
 12 13  1  0
 13 14  2  0
 14 15  1  0
 15 16  2  0
 13 17  1  0
 16 17  1  0
  2 18  1  0
 18 19  1  0
 19 20  2  0
 20 21  1  0
 21 22  2  0
 22 23  1  0
 19 24  1  0
 23 24  2  0
M  END
