CAS-DEP-751a2458-4
     RDKit          3D

 16 17  0  0  0  0  0  0  0  0999 V2000
    8.1460    0.7730   24.3530 O   0  0  0  0  0  0  0  0  0  0  0  0
    8.7740    1.8280   24.3530 C   0  0  0  0  0  0  0  0  0  0  0  0
   10.1510    1.9220   24.4620 N   0  0  0  0  0  0  0  0  0  0  0  0
   10.8260    0.8240   23.7920 C   0  0  0  0  0  0  0  0  0  0  0  0
   12.1960    1.2280   23.2690 C   0  0  0  0  0  0  0  0  0  0  0  0
   12.8130    0.1760   22.6220 C   0  0  0  0  0  0  0  0  0  0  0  0
   12.2660   -1.0940   22.4540 C   0  0  0  0  0  0  0  0  0  0  0  0
   13.1240   -2.2750   21.6070 Cl  0  0  0  0  0  0  0  0  0  0  0  0
   11.0160   -1.4540   22.9470 C   0  0  0  0  0  0  0  0  0  0  0  0
   10.2230   -0.5390   23.6400 C   0  0  0  0  0  0  0  0  0  0  0  0
    8.0800    3.0180   24.2310 N   0  0  0  0  0  0  0  0  0  0  0  0
    7.2010    3.6400   25.0790 C   0  0  0  0  0  0  0  0  0  0  0  0
    7.2870    5.1090   25.3140 C   0  0  0  0  0  0  0  0  0  0  0  0
    6.2840    5.3660   26.1850 C   0  0  0  0  0  0  0  0  0  0  0  0
    5.5830    4.2510   26.5260 N   0  0  0  0  0  0  0  0  0  0  0  0
    6.1260    3.1620   25.8560 C   0  0  0  0  0  0  0  0  0  0  0  0
  1  2  2  0
  2  3  1  0
  3  4  1  0
  4  5  2  0
  5  6  1  0
  6  7  2  0
  7  8  1  0
  7  9  1  0
  4 10  1  0
  9 10  2  0
  2 11  1  0
 11 12  1  0
 12 13  1  0
 13 14  2  0
 14 15  1  0
 12 16  2  0
 15 16  1  0
M  END
