CAS-DEP-751a2458-6
     RDKit          3D

 18 19  0  0  0  0  0  0  0  0999 V2000
    5.9450    4.9440   24.7120 C   0  0  0  0  0  0  0  0  0  0  0  0
    6.9110    5.6710   24.0210 C   0  0  0  0  0  0  0  0  0  0  0  0
    6.5520    7.1200   23.8800 N   0  0  0  0  0  0  0  0  0  0  0  0
    7.5160    7.9670   23.1630 C   0  0  0  0  0  0  0  0  0  0  0  0
    8.7530    7.3330   22.6440 C   0  0  0  0  0  0  0  0  0  0  0  0
    9.0120    5.8790   22.8420 C   0  0  0  0  0  0  0  0  0  0  0  0
    8.0950    5.0760   23.5190 C   0  0  0  0  0  0  0  0  0  0  0  0
    8.3120    3.6960   23.7190 N   0  0  0  0  0  0  0  0  0  0  0  0
    9.4980    3.0080   23.5230 C   0  0  0  0  0  0  0  0  0  0  0  0
   10.6270    3.4860   23.4360 O   0  0  0  0  0  0  0  0  0  0  0  0
    9.4370    1.6120   23.4210 N   0  0  0  0  0  0  0  0  0  0  0  0
   10.5580    0.7440   23.0650 C   0  0  0  0  0  0  0  0  0  0  0  0
   10.2280   -0.5640   22.7780 C   0  0  0  0  0  0  0  0  0  0  0  0
   11.3120   -1.5710   22.3730 C   0  0  0  0  0  0  0  0  0  0  0  0
   12.6080   -1.1050   22.3200 C   0  0  0  0  0  0  0  0  0  0  0  0
   13.5400   -1.9650   21.9650 F   0  0  0  0  0  0  0  0  0  0  0  0
   12.9220    0.2320   22.6290 C   0  0  0  0  0  0  0  0  0  0  0  0
   11.9100    1.1170   22.9880 C   0  0  0  0  0  0  0  0  0  0  0  0
  1  2  1  0
  2  3  2  0
  3  4  1  0
  4  5  2  0
  5  6  1  0
  2  7  1  0
  6  7  2  0
  7  8  1  0
  8  9  1  0
  9 10  2  0
  9 11  1  0
 11 12  1  0
 12 13  2  0
 13 14  1  0
 14 15  2  0
 15 16  1  0
 15 17  1  0
 12 18  1  0
 17 18  2  0
M  END
