CAS-DEP-167c18e3-1
     RDKit          3D

 23 25  0  0  0  0  0  0  0  0999 V2000
    9.1590    2.1550   24.2680 Cl  0  0  0  0  0  0  0  0  0  0  0  0
   10.7220    2.0170   23.5630 C   0  0  0  0  0  0  0  0  0  0  0  0
   11.9220    2.6550   23.2360 C   0  0  0  0  0  0  0  0  0  0  0  0
   11.3700    4.0170   23.8510 C   0  0  0  0  0  0  0  0  0  0  0  0
   12.7360    4.7430   23.5060 C   0  0  0  0  0  0  0  0  0  0  0  0
   14.2320    4.5310   22.8300 C   0  0  0  0  0  0  0  0  0  0  0  0
   15.5530    5.1920   23.0450 N   0  0  0  0  0  0  0  0  0  0  0  0
   16.8650    5.0440   23.8040 C   0  0  0  0  0  0  0  0  0  0  0  0
   17.7850    6.1320   24.1100 C   0  0  0  0  0  0  0  0  0  0  0  0
   19.0230    6.1960   24.7500 C   0  0  0  0  0  0  0  0  0  0  0  0
   19.5190    5.0570   25.2420 C   0  0  0  0  0  0  0  0  0  0  0  0
   18.8370    3.9280   25.1150 N   0  0  0  0  0  0  0  0  0  0  0  0
   17.6350    3.9270   24.4380 C   0  0  0  0  0  0  0  0  0  0  0  0
   12.3630    3.5820   23.2990 C   0  0  0  0  0  0  0  0  0  0  0  0
   13.2560    2.9310   22.7060 C   0  0  0  0  0  0  0  0  0  0  0  0
   12.8930    3.0730   21.3850 N   0  0  0  0  0  0  0  0  0  0  0  0
   13.7780    3.5780   20.4980 C   0  0  0  0  0  0  0  0  0  0  0  0
   14.4700    2.7760   19.5910 C   0  0  0  0  0  0  0  0  0  0  0  0
   15.2910    3.2330   18.6760 C   0  0  0  0  0  0  0  0  0  0  0  0
   15.4510    4.5620   18.6840 C   0  0  0  0  0  0  0  0  0  0  0  0
   14.7690    5.2520   19.6260 C   0  0  0  0  0  0  0  0  0  0  0  0
   13.9430    4.8540   20.5220 N   0  0  0  0  0  0  0  0  0  0  0  0
   11.0170    3.2430   23.7870 C   0  0  0  0  0  0  0  0  0  0  0  0
  1  2  1  0
  2  3  2  0
  3  4  1  0
  4  5  2  0
  5  6  1  0
  6  7  1  0
  7  8  1  0
  8  9  2  0
  9 10  1  0
 10 11  2  0
 11 12  1  0
  8 13  1  0
 12 13  2  0
  5 14  1  0
 14 15  1  0
 15 16  1  0
 16 17  1  0
 17 18  2  0
 18 19  1  0
 19 20  2  0
 20 21  1  0
 17 22  1  0
 21 22  2  0
  2 23  1  0
 14 23  2  0
M  END
