CAS-DEP-751a2458-2
     RDKit          3D

 17 19  0  0  0  0  0  0  0  0999 V2000
   10.2380    6.0830   22.9780 C   0  0  0  0  0  0  0  0  0  0  0  0
   11.4740    5.2260   22.8560 C   0  0  0  0  0  0  0  0  0  0  0  0
   11.7130    3.9950   22.8810 C   0  0  0  0  0  0  0  0  0  0  0  0
   11.3560    2.6600   22.9870 C   0  0  0  0  0  0  0  0  0  0  0  0
   10.1740    1.9390   23.1710 C   0  0  0  0  0  0  0  0  0  0  0  0
    9.1850    1.0500   23.3010 N   0  0  0  0  0  0  0  0  0  0  0  0
   10.2030    0.4720   23.0450 C   0  0  0  0  0  0  0  0  0  0  0  0
   11.3170    1.3370   22.9520 C   0  0  0  0  0  0  0  0  0  0  0  0
   12.6210    0.8300   22.6750 C   0  0  0  0  0  0  0  0  0  0  0  0
   12.8300   -0.5210   22.4680 C   0  0  0  0  0  0  0  0  0  0  0  0
   11.6490   -1.3320   22.5670 C   0  0  0  0  0  0  0  0  0  0  0  0
   10.4490   -0.6760   22.8670 C   0  0  0  0  0  0  0  0  0  0  0  0
   11.1450    0.6160   22.8670 N   0  0  0  0  0  0  0  0  0  0  0  0
   12.6990    2.5260   22.8190 C   0  0  0  0  0  0  0  0  0  0  0  0
   13.3880    3.8720   22.6620 C   0  0  0  0  0  0  0  0  0  0  0  0
   12.8070    5.2790   22.6740 C   0  0  0  0  0  0  0  0  0  0  0  0
   13.5680    6.3990   22.5180 O   0  0  0  0  0  0  0  0  0  0  0  0
  1  2  1  0
  2  3  2  0
  3  4  1  0
  4  5  1  0
  5  6  2  0
  6  7  1  0
  7  8  2  0
  8  9  1  0
  9 10  2  0
 10 11  1  0
  7 12  1  0
 11 12  2  0
  5 13  1  0
 12 13  1  0
  4 14  2  0
 14 15  1  0
  2 16  1  0
 15 16  2  0
 16 17  1  0
M  END
