CAS-DEP-e179b1f5-4
     RDKit          3D

 24 26  0  0  0  0  0  0  0  0999 V2000
    9.2100   -1.6610   24.2570 O   0  0  0  0  0  0  0  0  0  0  0  0
    9.5670   -2.2180   23.2400 C   0  0  0  0  0  0  0  0  0  0  0  0
    8.8940   -3.2800   22.7160 N   0  0  0  0  0  0  0  0  0  0  0  0
    7.7630   -3.5400   23.4310 C   0  0  0  0  0  0  0  0  0  0  0  0
    7.2230   -4.8170   23.3130 C   0  0  0  0  0  0  0  0  0  0  0  0
    6.0470   -4.8630   24.1480 C   0  0  0  0  0  0  0  0  0  0  0  0
    5.8670   -3.5270   24.8110 C   0  0  0  0  0  0  0  0  0  0  0  0
    4.8910   -3.1740   25.6610 F   0  0  0  0  0  0  0  0  0  0  0  0
    6.9720   -2.7250   24.3290 C   0  0  0  0  0  0  0  0  0  0  0  0
   10.6900   -1.8180   22.4920 N   0  0  0  0  0  0  0  0  0  0  0  0
   11.6600   -0.8810   22.8510 C   0  0  0  0  0  0  0  0  0  0  0  0
   11.9410    0.4760   23.0770 C   0  0  0  0  0  0  0  0  0  0  0  0
   10.4560    0.5440   22.6970 C   0  0  0  0  0  0  0  0  0  0  0  0
   10.3970    2.1350   22.8860 C   0  0  0  0  0  0  0  0  0  0  0  0
   10.9320    3.3620   23.1920 C   0  0  0  0  0  0  0  0  0  0  0  0
   10.0340    3.1700   23.9950 O   0  0  0  0  0  0  0  0  0  0  0  0
   11.7970    3.2870   22.2210 N   0  0  0  0  0  0  0  0  0  0  0  0
   12.3520    4.4570   22.3180 C   0  0  0  0  0  0  0  0  0  0  0  0
   13.6070    4.6590   22.5790 C   0  0  0  0  0  0  0  0  0  0  0  0
   14.0060    5.9030   22.6680 N   0  0  0  0  0  0  0  0  0  0  0  0
   12.8530    6.5480   22.4350 N   0  0  0  0  0  0  0  0  0  0  0  0
   11.7710    5.7160   22.2050 C   0  0  0  0  0  0  0  0  0  0  0  0
   11.5380    1.3490   23.0590 C   0  0  0  0  0  0  0  0  0  0  0  0
   10.8690    0.1190   22.7610 C   0  0  0  0  0  0  0  0  0  0  0  0
  1  2  2  0
  2  3  1  0
  3  4  1  0
  4  5  2  0
  5  6  1  0
  6  7  2  0
  7  8  1  0
  4  9  1  0
  7  9  1  0
  2 10  1  0
 10 11  1  0
 11 12  2  0
 12 13  1  0
 13 14  2  0
 14 15  1  0
 15 16  2  0
 15 17  1  0
 17 18  1  0
 18 19  1  0
 19 20  2  0
 20 21  1  0
 18 22  2  0
 21 22  1  0
 14 23  1  0
 11 24  1  0
 23 24  2  0
M  END
