CAS-DEP-167c18e3-3
     RDKit          3D

 19 21  0  0  0  0  0  0  0  0999 V2000
   11.0650    6.3810   26.9950 C   0  0  0  0  0  0  0  0  0  0  0  0
   11.3390    6.1570   25.4830 C   0  0  0  0  0  0  0  0  0  0  0  0
   12.0750    7.1520   24.8290 C   0  0  0  0  0  0  0  0  0  0  0  0
   12.4260    7.1270   23.4800 C   0  0  0  0  0  0  0  0  0  0  0  0
   12.0130    6.0450   22.7380 C   0  0  0  0  0  0  0  0  0  0  0  0
   11.2070    4.9410   23.4020 C   0  0  0  0  0  0  0  0  0  0  0  0
   10.8030    3.7930   22.4870 C   0  0  0  0  0  0  0  0  0  0  0  0
   11.2740    2.5430   22.8950 C   0  0  0  0  0  0  0  0  0  0  0  0
   10.1940    1.6920   23.1620 C   0  0  0  0  0  0  0  0  0  0  0  0
    9.2710    0.7970   23.3950 N   0  0  0  0  0  0  0  0  0  0  0  0
    9.9960   -0.1930   23.2550 C   0  0  0  0  0  0  0  0  0  0  0  0
   10.7250    1.1080   23.1060 C   0  0  0  0  0  0  0  0  0  0  0  0
   12.1640    1.0160   22.8400 C   0  0  0  0  0  0  0  0  0  0  0  0
   12.8460    2.5960   22.7590 Cl  0  0  0  0  0  0  0  0  0  0  0  0
   13.0300   -0.1720   22.6580 C   0  0  0  0  0  0  0  0  0  0  0  0
   12.2640   -1.3460   22.7990 C   0  0  0  0  0  0  0  0  0  0  0  0
   10.9990   -0.8990   23.0550 C   0  0  0  0  0  0  0  0  0  0  0  0
   11.2270    0.5660   22.9720 N   0  0  0  0  0  0  0  0  0  0  0  0
   10.8960    5.0340   24.7670 C   0  0  0  0  0  0  0  0  0  0  0  0
  1  2  1  0
  2  3  2  0
  3  4  1  0
  4  5  2  0
  5  6  1  0
  6  7  1  0
  7  8  1  0
  8  9  1  0
  9 10  2  0
 10 11  1  0
 11 12  2  0
 12 13  1  0
 13 14  1  0
 13 15  2  0
 15 16  1  0
 11 17  1  0
 16 17  2  0
  9 18  1  0
 17 18  1  0
  2 19  1  0
  6 19  2  0
M  END
