CHA-KIN-ceadbd93-4
     RDKit          3D

 24 26  0  0  0  0  0  0  0  0999 V2000
    9.2620    1.3700   21.3710 O   0  0  0  0  0  0  0  0  0  0  0  0
    8.9450    0.2840   21.8770 C   0  0  0  0  0  0  0  0  0  0  0  0
    9.6850   -0.2800   23.0730 C   0  0  0  0  0  0  0  0  0  0  0  0
   10.1980   -1.5780   22.9790 C   0  0  0  0  0  0  0  0  0  0  0  0
    9.3340   -2.5730   22.5160 C   0  0  0  0  0  0  0  0  0  0  0  0
    8.4210   -3.1930   23.3060 N   0  0  0  0  0  0  0  0  0  0  0  0
    7.8070   -2.5490   24.3160 C   0  0  0  0  0  0  0  0  0  0  0  0
    6.9640   -3.4330   24.8920 N   0  0  0  0  0  0  0  0  0  0  0  0
    7.1180   -4.6080   24.1800 N   0  0  0  0  0  0  0  0  0  0  0  0
    8.0100   -4.4690   23.2030 N   0  0  0  0  0  0  0  0  0  0  0  0
   10.7200   -1.9850   24.3990 C   0  0  0  0  0  0  0  0  0  0  0  0
   12.1110   -1.4920   24.8700 C   0  0  0  0  0  0  0  0  0  0  0  0
   13.0810   -1.4400   23.9590 C   0  0  0  0  0  0  0  0  0  0  0  0
   12.6720   -2.0760   22.6920 C   0  0  0  0  0  0  0  0  0  0  0  0
   11.4350   -1.5290   22.0720 C   0  0  0  0  0  0  0  0  0  0  0  0
    7.8760   -0.3500   21.3050 N   0  0  0  0  0  0  0  0  0  0  0  0
    6.9530    0.0410   20.3250 C   0  0  0  0  0  0  0  0  0  0  0  0
    7.0650   -0.4740   19.0030 C   0  0  0  0  0  0  0  0  0  0  0  0
    6.0160    0.1310   18.3200 N   0  0  0  0  0  0  0  0  0  0  0  0
    4.8410    0.7220   18.6670 C   0  0  0  0  0  0  0  0  0  0  0  0
    4.9140    1.5000   19.9330 C   0  0  0  0  0  0  0  0  0  0  0  0
    6.0240    0.9990   20.7910 C   0  0  0  0  0  0  0  0  0  0  0  0
    6.0980    1.5640   22.1900 C   0  0  0  0  0  0  0  0  0  0  0  0
    5.3650    2.7830   22.2850 O   0  0  0  0  0  0  0  0  0  0  0  0
  1  2  2  0
  2  3  1  0
  4  3  1  0
  4  5  1  0
  5  6  1  0
  6  7  1  0
  7  8  2  0
  8  9  1  0
  6 10  1  0
  9 10  2  0
  4 11  1  0
 11 12  1  0
 12 13  1  0
 13 14  1  0
  4 15  1  0
 14 15  1  0
  2 16  1  0
 16 17  1  0
 17 18  2  0
 18 19  1  0
 19 20  2  0
 20 21  1  0
 17 22  1  0
 21 22  2  0
 22 23  1  0
 23 24  1  0
M  END
