CHA-KIN-bfe9b535-7
     RDKit          3D

 37 39  0  0  0  0  0  0  0  0999 V2000
    6.1020    8.8350   20.7440 C   0  0  0  0  0  0  0  0  0  0  0  0
    6.2490    7.4070   21.1920 C   0  0  0  0  0  0  0  0  0  0  0  0
    5.2500    6.5370   20.8150 N   0  0  0  0  0  0  0  0  0  0  0  0
    5.6420    5.3580   21.3420 N   0  0  0  0  0  0  0  0  0  0  0  0
    4.7760    4.2300   21.0970 C   0  0  0  0  0  0  0  0  0  0  0  0
    6.8350    5.4290   22.0380 C   0  0  0  0  0  0  0  0  0  0  0  0
    7.5150    4.4140   22.7000 N   0  0  0  0  0  0  0  0  0  0  0  0
    6.8930    3.4220   23.4360 C   0  0  0  0  0  0  0  0  0  0  0  0
    5.7910    3.5020   23.9460 O   0  0  0  0  0  0  0  0  0  0  0  0
    7.6580    2.2720   23.5570 N   0  0  0  0  0  0  0  0  0  0  0  0
    7.6370    1.2370   22.5320 C   0  0  2  0  0  0  0  0  0  0  0  0
    6.5010    0.5000   22.4310 C   0  0  0  0  0  0  0  0  0  0  0  0
    6.2040    0.5200   21.0940 C   0  0  0  0  0  0  0  0  0  0  0  0
    5.0710    1.4110   20.5550 C   0  0  0  0  0  0  0  0  0  0  0  0
    4.8780    1.3630   19.0540 C   0  0  0  0  0  0  0  0  0  0  0  0
    5.6930    0.5530   18.2760 C   0  0  0  0  0  0  0  0  0  0  0  0
    5.5280    0.5350   17.0930 O   0  0  0  0  0  0  0  0  0  0  0  0
    6.7550   -0.2840   18.8560 C   0  0  0  0  0  0  0  0  0  0  0  0
    6.9590   -0.2620   20.2190 C   0  0  0  0  0  0  0  0  0  0  0  0
    8.9140    0.3900   22.6060 C   0  0  0  0  0  0  0  0  0  0  0  0
    9.9560    0.9460   22.2620 O   0  0  0  0  0  0  0  0  0  0  0  0
    8.9430   -0.9640   23.0040 N   0  0  0  0  0  0  0  0  0  0  0  0
   10.2750   -1.4770   22.7980 C   0  0  2  0  0  0  0  0  0  0  0  0
   10.6730   -2.6970   23.3110 C   0  0  0  0  0  0  0  0  0  0  0  0
   11.3850   -2.6250   24.6150 N   0  0  0  0  0  0  0  0  0  0  0  0
   13.0090   -2.2710   24.8170 S   0  0  0  0  0  0  0  0  0  0  0  0
   13.6580   -2.6940   23.3710 N   0  0  0  0  0  0  0  0  0  0  0  0
   13.1170   -0.8510   24.9780 O   0  0  0  0  0  0  0  0  0  0  0  0
   13.5630   -3.2110   25.7530 O   0  0  0  0  0  0  0  0  0  0  0  0
   11.1310   -0.3400   23.2250 C   0  0  0  0  0  0  0  0  0  0  0  0
   12.1210    0.6730   23.5200 C   0  0  0  0  0  0  0  0  0  0  0  0
   13.4020    0.5150   22.9230 C   0  0  0  0  0  0  0  0  0  0  0  0
   12.9380   -0.5230   22.4570 C   0  0  0  0  0  0  0  0  0  0  0  0
   13.3410   -1.4360   21.7440 C   0  0  0  0  0  0  0  0  0  0  0  0
   11.8570   -1.3660   22.3130 C   0  0  0  0  0  0  0  0  0  0  0  0
    7.2410    6.7490   21.9540 C   0  0  0  0  0  0  0  0  0  0  0  0
    8.6470    7.4180   22.6360 Cl  0  0  0  0  0  0  0  0  0  0  0  0
  1  2  1  0
  2  3  2  0
  3  4  1  0
  4  5  1  0
  4  6  1  0
  6  7  1  0
  7  8  1  0
  8  9  2  0
  8 10  1  0
 10 11  1  0
 11 12  1  1
 12 13  1  0
 13 14  2  0
 14 15  1  0
 15 16  2  0
 16 17  1  0
 16 18  1  0
 13 19  1  0
 18 19  2  0
 11 20  1  0
 20 21  2  0
 20 22  1  0
 22 23  1  0
 23 24  1  1
 24 25  1  0
 26 25  1  0
 26 27  1  0
 26 28  2  0
 26 29  2  0
 23 30  1  0
 30 31  2  0
 31 32  1  0
 32 33  2  0
 33 34  1  0
 30 35  1  0
 34 35  2  0
  2 36  1  0
  6 36  2  0
 36 37  1  0
M  END
