CHA-KIN-45d1307a-1
     RDKit          3D

 33 34  0  0  0  0  0  0  0  0999 V2000
    5.5940   -5.9500   23.3260 N   0  0  0  0  0  0  0  0  0  0  0  0
    6.1870   -5.0290   22.2290 S   0  0  0  0  0  0  0  0  0  0  0  0
    7.2980   -5.8250   21.7350 O   0  0  0  0  0  0  0  0  0  0  0  0
    5.3510   -4.3140   21.2700 O   0  0  0  0  0  0  0  0  0  0  0  0
    6.8570   -3.9040   23.2640 N   0  0  0  0  0  0  0  0  0  0  0  0
    7.8390   -2.9170   22.7530 C   0  0  0  0  0  0  0  0  0  0  0  0
    8.0080   -1.8070   23.7210 C   0  0  0  0  0  0  0  0  0  0  0  0
    9.1110   -0.8640   23.4160 N   0  0  0  0  0  0  0  0  0  0  0  0
   10.2840   -1.2220   23.8510 C   0  0  0  0  0  0  0  0  0  0  0  0
   11.1560   -0.4000   24.5490 C   0  0  0  0  0  0  0  0  0  0  0  0
   12.4810   -0.2530   24.1190 C   0  0  0  0  0  0  0  0  0  0  0  0
   12.8660   -1.5230   22.6880 Br  0  0  0  0  0  0  0  0  0  0  0  0
    8.9940    0.2510   22.5590 C   0  0  0  0  0  0  0  0  0  0  0  0
    9.8650    0.4270   21.7170 O   0  0  0  0  0  0  0  0  0  0  0  0
    7.8770    1.3240   22.5630 C   0  0  1  0  0  0  0  0  0  0  0  0
    6.4780    0.8200   22.4920 C   0  0  0  0  0  0  0  0  0  0  0  0
    6.1770    0.6890   21.0800 C   0  0  0  0  0  0  0  0  0  0  0  0
    5.2360    1.4450   20.5050 C   0  0  0  0  0  0  0  0  0  0  0  0
    4.9910    1.3320   19.1600 C   0  0  0  0  0  0  0  0  0  0  0  0
    5.7090    0.4390   18.3830 C   0  0  0  0  0  0  0  0  0  0  0  0
    5.4650    0.3550   17.0990 O   0  0  0  0  0  0  0  0  0  0  0  0
    6.6810   -0.3570   18.9600 C   0  0  0  0  0  0  0  0  0  0  0  0
    6.9160   -0.2300   20.3150 C   0  0  0  0  0  0  0  0  0  0  0  0
    8.1030    2.3420   23.4650 N   0  0  0  0  0  0  0  0  0  0  0  0
    7.4690    3.5830   23.1930 C   0  0  0  0  0  0  0  0  0  0  0  0
    6.2710    3.7300   23.4000 O   0  0  0  0  0  0  0  0  0  0  0  0
    8.3480    4.5460   22.7020 N   0  0  0  0  0  0  0  0  0  0  0  0
    8.3300    5.9170   23.0430 C   0  0  0  0  0  0  0  0  0  0  0  0
    9.2660    6.3710   23.9850 C   0  0  0  0  0  0  0  0  0  0  0  0
    9.2580    7.8310   24.3610 C   0  0  0  0  0  0  0  0  0  0  0  0
    8.3090    8.6510   23.7430 C   0  0  0  0  0  0  0  0  0  0  0  0
    7.4180    8.1920   22.8390 N   0  0  0  0  0  0  0  0  0  0  0  0
    7.4470    6.8630   22.5120 C   0  0  0  0  0  0  0  0  0  0  0  0
  2  1  1  0
  2  3  2  0
  2  4  2  0
  2  5  1  0
  5  6  1  0
  6  7  1  0
  7  8  1  0
  8  9  1  0
  9 10  1  0
 10 11  1  0
 11 12  1  0
  8 13  1  0
 13 14  2  0
 13 15  1  0
 15 16  1  1
 16 17  1  0
 17 18  2  0
 18 19  1  0
 19 20  2  0
 20 21  1  0
 20 22  1  0
 17 23  1  0
 22 23  2  0
 15 24  1  0
 24 25  1  0
 25 26  2  0
 25 27  1  0
 27 28  1  0
 28 29  2  0
 29 30  1  0
 30 31  2  0
 31 32  1  0
 28 33  1  0
 32 33  2  0
M  END
