CHA-MCP-85291e1d-5
     RDKit          3D

 21 22  0  0  0  0  0  0  0  0999 V2000
    9.9870    4.9980   22.9040 N   0  0  0  0  0  0  0  0  0  0  0  0
   11.5260    5.2650   23.5160 S   0  0  0  0  0  0  0  0  0  0  0  0
   11.4290    5.0780   24.9430 O   0  0  0  0  0  0  0  0  0  0  0  0
   11.9340    6.5400   22.9690 O   0  0  0  0  0  0  0  0  0  0  0  0
   12.4840    3.9630   22.8310 C   0  0  0  0  0  0  0  0  0  0  0  0
   11.9170    2.5460   22.8420 C   0  0  0  0  0  0  0  0  0  0  0  0
   12.2800    1.3790   22.7940 C   0  0  0  0  0  0  0  0  0  0  0  0
   13.2910    0.4220   22.7070 C   0  0  0  0  0  0  0  0  0  0  0  0
   12.2010   -0.5980   22.7400 C   0  0  0  0  0  0  0  0  0  0  0  0
   10.8100    0.2150   22.8380 C   0  0  0  0  0  0  0  0  0  0  0  0
    9.5200   -0.5970   22.8630 C   0  0  0  0  0  0  0  0  0  0  0  0
    8.6900    0.0290   21.6830 C   0  0  0  0  0  0  0  0  0  0  0  0
    8.9600    1.1670   21.2490 O   0  0  0  0  0  0  0  0  0  0  0  0
    7.6160   -0.8560   21.2160 N   0  0  0  0  0  0  0  0  0  0  0  0
    6.8010   -0.1740   20.2060 C   0  0  0  0  0  0  0  0  0  0  0  0
    5.5820    0.6670   20.6300 C   0  0  0  0  0  0  0  0  0  0  0  0
    4.8660    1.2800   19.6390 C   0  0  0  0  0  0  0  0  0  0  0  0
    5.2460    1.1440   18.1860 C   0  0  0  0  0  0  0  0  0  0  0  0
    6.3130    0.4050   17.7960 N   0  0  0  0  0  0  0  0  0  0  0  0
    7.0820   -0.2550   18.8530 C   0  0  0  0  0  0  0  0  0  0  0  0
   10.6680    1.9220   22.8990 C   0  0  0  0  0  0  0  0  0  0  0  0
  2  1  1  0
  2  3  2  0
  2  4  2  0
  2  5  1  0
  5  6  1  0
  6  7  2  0
  7  8  1  0
  8  9  2  0
  9 10  1  0
 10 11  1  0
 11 12  1  0
 12 13  2  0
 12 14  1  0
 14 15  1  0
 15 16  2  0
 16 17  1  0
 17 18  2  0
 18 19  1  0
 15 20  1  0
 19 20  2  0
  6 21  1  0
 10 21  2  0
M  END
