CHA-KIN-ceadbd93-3
     RDKit          3D

 19 20  0  0  0  0  0  0  0  0999 V2000
    9.0680    1.3860   21.2230 O   0  0  0  0  0  0  0  0  0  0  0  0
    8.7460    0.2190   21.4810 C   0  0  0  0  0  0  0  0  0  0  0  0
    7.7580   -0.6250   20.8180 N   0  0  0  0  0  0  0  0  0  0  0  0
    6.7030    0.1140   20.1080 C   0  0  0  0  0  0  0  0  0  0  0  0
    6.6470   -0.3830   18.8150 C   0  0  0  0  0  0  0  0  0  0  0  0
    5.5430    0.4870   18.2960 N   0  0  0  0  0  0  0  0  0  0  0  0
    4.7340    1.4960   18.7940 C   0  0  0  0  0  0  0  0  0  0  0  0
    4.9230    1.9010   20.1980 C   0  0  0  0  0  0  0  0  0  0  0  0
    6.0090    1.1030   20.8350 C   0  0  0  0  0  0  0  0  0  0  0  0
    6.2770    1.4650   22.3210 C   0  0  0  0  0  0  0  0  0  0  0  0
    5.0520    1.9150   22.9060 O   0  0  0  0  0  0  0  0  0  0  0  0
    9.3680   -0.6190   22.6110 C   0  0  1  0  0  0  0  0  0  0  0  0
    9.7250    0.2810   23.6680 O   0  0  0  0  0  0  0  0  0  0  0  0
    8.4820   -1.6460   23.0020 C   0  0  0  0  0  0  0  0  0  0  0  0
    9.0630   -2.9880   23.4390 C   0  0  0  0  0  0  0  0  0  0  0  0
    7.9630   -4.0250   23.5280 C   0  0  0  0  0  0  0  0  0  0  0  0
    6.7870   -3.5440   24.1200 C   0  0  0  0  0  0  0  0  0  0  0  0
    6.7990   -2.2280   24.5780 C   0  0  0  0  0  0  0  0  0  0  0  0
    7.3750   -1.2480   23.7730 C   0  0  0  0  0  0  0  0  0  0  0  0
  1  2  2  0
  2  3  1  0
  3  4  1  0
  4  5  2  0
  5  6  1  0
  6  7  2  0
  7  8  1  0
  4  9  1  0
  8  9  2  0
  9 10  1  0
 10 11  1  0
  2 12  1  0
 12 13  1  1
 12 14  1  0
 14 15  1  0
 15 16  1  0
 16 17  1  0
 17 18  1  0
 14 19  1  0
 18 19  1  0
M  END
