CHA-KIN-ceadbd93-2
     RDKit          3D

 18 19  0  0  0  0  0  0  0  0999 V2000
    9.6610    0.7770   21.6770 O   0  0  0  0  0  0  0  0  0  0  0  0
    8.8810   -0.1670   21.8050 C   0  0  0  0  0  0  0  0  0  0  0  0
    8.8300   -1.0090   23.0230 C   0  0  0  0  0  0  0  0  0  0  0  0
    7.6550   -1.3380   23.5700 C   0  0  0  0  0  0  0  0  0  0  0  0
    7.3880   -2.6650   24.2480 C   0  0  0  0  0  0  0  0  0  0  0  0
    6.3280   -2.7000   25.3600 C   0  0  0  0  0  0  0  0  0  0  0  0
    6.5480   -1.5990   26.4130 C   0  0  0  0  0  0  0  0  0  0  0  0
    7.5240   -0.4720   25.9800 C   0  0  0  0  0  0  0  0  0  0  0  0
    7.2490   -0.1760   24.5010 C   0  0  0  0  0  0  0  0  0  0  0  0
    7.8820   -0.6570   20.8590 N   0  0  0  0  0  0  0  0  0  0  0  0
    6.8240    0.0150   20.1930 C   0  0  0  0  0  0  0  0  0  0  0  0
    6.6020   -0.4470   18.7010 C   0  0  0  0  0  0  0  0  0  0  0  0
    5.5490    0.3360   18.2830 N   0  0  0  0  0  0  0  0  0  0  0  0
    4.8090    1.2860   18.8920 C   0  0  0  0  0  0  0  0  0  0  0  0
    5.0370    1.6410   20.1800 C   0  0  0  0  0  0  0  0  0  0  0  0
    6.0030    1.0890   20.9390 C   0  0  0  0  0  0  0  0  0  0  0  0
    6.1900    1.4890   22.2560 C   0  0  0  0  0  0  0  0  0  0  0  0
    5.8340    2.6190   22.6200 O   0  0  0  0  0  0  0  0  0  0  0  0
  1  2  2  0
  2  3  1  0
  3  4  1  0
  4  5  1  0
  5  6  1  0
  6  7  1  0
  7  8  1  0
  4  9  1  0
  8  9  1  0
  2 10  1  0
 10 11  1  0
 11 12  2  0
 12 13  1  0
 13 14  2  0
 14 15  1  0
 11 16  1  0
 15 16  2  0
 16 17  1  0
 17 18  1  0
M  END
