CHA-KIN-6d173bb5-2
     RDKit          3D

 30 31  0  0  0  0  0  0  0  0999 V2000
   10.2100    4.3470   24.3380 N   0  0  0  0  0  0  0  0  0  0  0  0
   11.3010    4.3830   23.5210 C   0  0  0  0  0  0  0  0  0  0  0  0
   12.0530    5.5780   23.3510 O   0  0  0  0  0  0  0  0  0  0  0  0
   11.6660    3.1000   22.8080 C   0  0  0  0  0  0  0  0  0  0  0  0
   10.7140    2.0500   22.7770 C   0  0  0  0  0  0  0  0  0  0  0  0
   11.1830    0.7240   22.7120 C   0  0  0  0  0  0  0  0  0  0  0  0
   10.3710   -0.1930   22.2050 N   0  0  0  0  0  0  0  0  0  0  0  0
    9.1870    0.3520   21.4440 C   0  0  0  0  0  0  0  0  0  0  0  0
    9.0450    1.5600   21.2490 O   0  0  0  0  0  0  0  0  0  0  0  0
    8.2540   -0.5280   20.8910 N   0  0  0  0  0  0  0  0  0  0  0  0
    7.0670   -0.0010   20.2770 C   0  0  0  0  0  0  0  0  0  0  0  0
    6.9260    0.0160   18.8920 C   0  0  0  0  0  0  0  0  0  0  0  0
    5.8260    0.5240   18.2080 N   0  0  0  0  0  0  0  0  0  0  0  0
    4.6780    1.1010   18.8640 C   0  0  0  0  0  0  0  0  0  0  0  0
    4.7180    1.1300   20.3900 C   0  0  0  0  0  0  0  0  0  0  0  0
    5.9910    0.5370   21.0500 C   0  0  0  0  0  0  0  0  0  0  0  0
    5.9710    0.5940   22.5640 C   0  0  0  0  0  0  0  0  0  0  0  0
    7.2350    0.9580   23.1510 N   0  0  0  0  0  0  0  0  0  0  0  0
    8.1820   -0.0320   23.2370 C   0  0  0  0  0  0  0  0  0  0  0  0
    9.1630   -0.0300   22.5360 O   0  0  0  0  0  0  0  0  0  0  0  0
    7.9020   -0.9930   24.2050 N   0  0  0  0  0  0  0  0  0  0  0  0
    8.2290   -2.4250   23.9930 C   0  0  0  0  0  0  0  0  0  0  0  0
    7.1730   -3.3110   24.2910 C   0  0  0  0  0  0  0  0  0  0  0  0
    6.8550   -3.3750   25.6960 O   0  0  0  0  0  0  0  0  0  0  0  0
   10.7370   -1.6310   22.4300 C   0  0  0  0  0  0  0  0  0  0  0  0
   10.7240   -2.0040   23.7600 C   0  0  0  0  0  0  0  0  0  0  0  0
   11.9800   -2.2790   24.3040 C   0  0  0  0  0  0  0  0  0  0  0  0
   13.2270   -2.0890   23.7030 C   0  0  0  0  0  0  0  0  0  0  0  0
   13.0770   -1.4220   22.4510 C   0  0  0  0  0  0  0  0  0  0  0  0
   11.9560   -1.9370   21.8860 C   0  0  0  0  0  0  0  0  0  0  0  0
  1  2  1  0
  2  3  2  0
  2  4  1  0
  4  5  1  0
  5  6  1  0
  6  7  1  0
  7  8  1  0
  8  9  2  0
  8 10  1  0
 10 11  1  0
 11 12  2  0
 12 13  1  0
 13 14  2  0
 14 15  1  0
 11 16  1  0
 15 16  2  0
 16 17  1  0
 17 18  1  0
 18 19  1  0
 19 20  2  0
 19 21  1  0
 21 22  1  0
 22 23  1  0
 23 24  1  0
  7 25  1  0
 25 26  1  0
 26 27  1  0
 27 28  1  0
 28 29  1  0
 25 30  1  0
 29 30  1  0
M  END
