CHA-MCP-85291e1d-2
     RDKit          3D

 20 21  0  0  0  0  0  0  0  0999 V2000
   13.4200   -1.5420   21.5320 N   0  0  0  0  0  0  0  0  0  0  0  0
   13.3910   -0.5460   22.8880 S   0  0  0  0  0  0  0  0  0  0  0  0
   13.6160   -1.4230   24.0110 O   0  0  0  0  0  0  0  0  0  0  0  0
   14.1790    0.6100   22.6020 O   0  0  0  0  0  0  0  0  0  0  0  0
   11.7240   -0.1010   22.8370 C   0  0  0  0  0  0  0  0  0  0  0  0
   11.0430    1.2710   22.8260 C   0  0  0  0  0  0  0  0  0  0  0  0
   11.9980    2.1590   22.8650 C   0  0  0  0  0  0  0  0  0  0  0  0
   12.2160    0.7410   22.8620 C   0  0  0  0  0  0  0  0  0  0  0  0
   10.6530    0.4800   22.8140 C   0  0  0  0  0  0  0  0  0  0  0  0
    9.4070   -0.1250   22.7730 C   0  0  0  0  0  0  0  0  0  0  0  0
    8.6770    0.2650   21.6410 C   0  0  0  0  0  0  0  0  0  0  0  0
    8.9650    1.5100   21.1150 O   0  0  0  0  0  0  0  0  0  0  0  0
    7.7350   -0.5600   21.1340 N   0  0  0  0  0  0  0  0  0  0  0  0
    6.9140   -0.0260   20.2410 C   0  0  0  0  0  0  0  0  0  0  0  0
    5.7590    0.8350   20.7870 C   0  0  0  0  0  0  0  0  0  0  0  0
    5.1230    1.2290   19.5610 C   0  0  0  0  0  0  0  0  0  0  0  0
    5.1800    1.1150   18.1820 C   0  0  0  0  0  0  0  0  0  0  0  0
    6.2270    0.3340   17.8030 N   0  0  0  0  0  0  0  0  0  0  0  0
    7.0730   -0.2230   18.8110 C   0  0  0  0  0  0  0  0  0  0  0  0
   10.8730   -0.9480   22.8010 C   0  0  0  0  0  0  0  0  0  0  0  0
  2  1  1  0
  2  3  2  0
  2  4  2  0
  2  5  1  0
  5  6  2  0
  6  7  1  0
  7  8  2  0
  8  9  1  0
  9 10  1  0
 10 11  1  0
 11 12  2  0
 11 13  1  0
 13 14  1  0
 14 15  2  0
 15 16  1  0
 16 17  2  0
 17 18  1  0
 14 19  1  0
 18 19  2  0
  5 20  1  0
  9 20  2  0
M  END
