CHA-MCP-85291e1d-3
     RDKit          3D

 24 25  0  0  0  0  0  0  0  0999 V2000
   11.1510    6.2680   28.4120 C   0  0  0  0  0  0  0  0  0  0  0  0
   10.8400    5.0650   27.6300 O   0  0  0  0  0  0  0  0  0  0  0  0
    9.7350    5.1210   26.8840 C   0  0  0  0  0  0  0  0  0  0  0  0
    8.6420    5.9500   27.1000 C   0  0  0  0  0  0  0  0  0  0  0  0
    7.3610    6.0320   26.3080 C   0  0  0  0  0  0  0  0  0  0  0  0
    7.2830    5.1000   25.1380 C   0  0  0  0  0  0  0  0  0  0  0  0
    8.5420    4.1960   24.9440 C   0  0  0  0  0  0  0  0  0  0  0  0
    8.5610    3.2720   23.8480 N   0  0  0  0  0  0  0  0  0  0  0  0
    8.5600    1.8850   24.0420 C   0  0  0  0  0  0  0  0  0  0  0  0
    7.8310    1.4350   24.9120 O   0  0  0  0  0  0  0  0  0  0  0  0
    9.4200    0.9730   23.1210 C   0  0  0  0  0  0  0  0  0  0  0  0
   10.7740    0.6370   22.8870 C   0  0  0  0  0  0  0  0  0  0  0  0
   12.2170    0.2790   22.6380 C   0  0  0  0  0  0  0  0  0  0  0  0
   12.1830    1.5910   23.1030 C   0  0  0  0  0  0  0  0  0  0  0  0
   10.5620    1.5780   23.1210 C   0  0  0  0  0  0  0  0  0  0  0  0
   10.8850    2.9100   23.5450 C   0  0  0  0  0  0  0  0  0  0  0  0
   11.9440    3.8610   23.8340 C   0  0  0  0  0  0  0  0  0  0  0  0
   12.2990    4.6990   22.7740 C   0  0  0  0  0  0  0  0  0  0  0  0
   11.2800    5.5080   22.4450 N   0  0  0  0  0  0  0  0  0  0  0  0
   10.5270    6.1110   23.3350 C   0  0  0  0  0  0  0  0  0  0  0  0
    9.1990    6.1800   22.9820 C   0  0  0  0  0  0  0  0  0  0  0  0
   11.0440    6.6590   24.5430 O   0  0  0  0  0  0  0  0  0  0  0  0
   11.6360    1.9250   23.1970 C   0  0  0  0  0  0  0  0  0  0  0  0
    9.6750    4.2320   25.7710 C   0  0  0  0  0  0  0  0  0  0  0  0
  1  2  1  0
  2  3  1  0
  3  4  2  0
  4  5  1  0
  5  6  2  0
  6  7  1  0
  7  8  1  0
  8  9  1  0
  9 10  2  0
  9 11  1  0
 11 12  1  0
 12 13  2  0
 13 14  1  0
 14 15  2  0
 15 16  1  0
 16 17  1  0
 17 18  1  0
 18 19  1  0
 19 20  1  0
 20 21  1  0
 20 22  2  0
 12 23  1  0
 16 23  2  0
  3 24  1  0
  7 24  2  0
M  END
