CHA-KIN-87c379ac-1
     RDKit          3D

 40 41  0  0  0  0  0  0  0  0999 V2000
    9.7530    6.5480   22.7340 C   0  0  0  0  0  0  0  0  0  0  0  0
    8.3370    6.9720   22.9930 C   0  0  0  0  0  0  0  0  0  0  0  0
    8.1500    8.3170   23.3490 C   0  0  0  0  0  0  0  0  0  0  0  0
    6.8950    8.8230   23.6040 C   0  0  0  0  0  0  0  0  0  0  0  0
    5.7700    7.8510   23.4760 C   0  0  0  0  0  0  0  0  0  0  0  0
    5.8210    6.5000   23.1340 C   0  0  0  0  0  0  0  0  0  0  0  0
    4.6230    5.7680   23.0720 C   0  0  0  0  0  0  0  0  0  0  0  0
    3.8350    6.1800   23.9240 O   0  0  0  0  0  0  0  0  0  0  0  0
    7.2410    6.0580   22.8810 C   0  0  0  0  0  0  0  0  0  0  0  0
    7.5510    4.7510   22.5290 N   0  0  0  0  0  0  0  0  0  0  0  0
    7.1770    3.6730   23.2870 C   0  0  0  0  0  0  0  0  0  0  0  0
    6.1570    3.5840   23.9660 O   0  0  0  0  0  0  0  0  0  0  0  0
    8.0790    2.6190   23.2150 N   0  0  0  0  0  0  0  0  0  0  0  0
    7.9270    1.4490   22.4170 C   0  0  2  0  0  0  0  0  0  0  0  0
    6.6960    0.8050   22.3560 C   0  0  0  0  0  0  0  0  0  0  0  0
    6.3690    0.7370   21.0310 C   0  0  0  0  0  0  0  0  0  0  0  0
    5.4090    1.6060   20.5040 C   0  0  0  0  0  0  0  0  0  0  0  0
    5.1280    1.5360   19.1510 C   0  0  0  0  0  0  0  0  0  0  0  0
    5.7620    0.6450   18.3360 C   0  0  0  0  0  0  0  0  0  0  0  0
    5.5180    0.5720   17.0430 O   0  0  0  0  0  0  0  0  0  0  0  0
    6.6950   -0.2080   18.8760 C   0  0  0  0  0  0  0  0  0  0  0  0
    7.0180   -0.1890   20.2030 C   0  0  0  0  0  0  0  0  0  0  0  0
    9.1390    0.4860   22.5740 C   0  0  0  0  0  0  0  0  0  0  0  0
   10.2620    0.9630   22.3980 O   0  0  0  0  0  0  0  0  0  0  0  0
    8.9870   -0.8560   22.8730 N   0  0  0  0  0  0  0  0  0  0  0  0
   10.0030   -1.8950   22.8140 C   0  0  0  0  0  0  0  0  0  0  0  0
   11.2170   -1.5900   22.1940 C   0  0  0  0  0  0  0  0  0  0  0  0
   12.4350   -1.6120   22.9170 C   0  0  0  0  0  0  0  0  0  0  0  0
   12.4330   -2.4950   24.0020 C   0  0  0  0  0  0  0  0  0  0  0  0
   13.6060   -1.8550   24.1720 N   0  0  0  0  0  0  0  0  0  0  0  0
   12.7650   -3.0910   25.0150 O   0  0  0  0  0  0  0  0  0  0  0  0
    7.6830   -1.2550   23.4450 C   0  0  0  0  0  0  0  0  0  0  0  0
    7.7230   -2.4100   24.2270 C   0  0  0  0  0  0  0  0  0  0  0  0
    6.3470   -2.9100   24.4100 N   0  0  0  0  0  0  0  0  0  0  0  0
    5.9370   -3.1190   25.8320 C   0  0  1  0  0  0  0  0  0  0  0  0
    6.1280   -1.9150   26.7450 C   0  0  0  0  0  0  0  0  0  0  0  0
    6.5070   -2.3680   28.4780 S   0  0  0  0  0  0  0  0  0  0  0  0
    4.4450   -3.4720   25.8230 C   0  0  0  0  0  0  0  0  0  0  0  0
    3.5210   -2.7660   26.2060 O   0  0  0  0  0  0  0  0  0  0  0  0
    4.1980   -4.7040   25.3330 O   0  0  0  0  0  0  0  0  0  0  0  0
  1  2  1  0
  2  3  2  0
  3  4  1  0
  4  5  2  0
  5  6  1  0
  6  7  1  0
  7  8  1  0
  2  9  1  0
  6  9  2  0
  9 10  1  0
 10 11  1  0
 11 12  2  0
 11 13  1  0
 13 14  1  0
 14 15  1  1
 15 16  1  0
 16 17  2  0
 17 18  1  0
 18 19  2  0
 19 20  1  0
 19 21  1  0
 16 22  1  0
 21 22  2  0
 14 23  1  0
 23 24  2  0
 23 25  1  0
 25 26  1  0
 26 27  1  0
 27 28  1  0
 28 29  1  0
 29 30  1  0
 29 31  2  0
 25 32  1  0
 32 33  1  0
 33 34  1  0
 34 35  1  0
 35 36  1  1
 36 37  1  0
 35 38  1  0
 38 39  2  0
 38 40  1  0
M  END
