CHA-KIN-45d1307a-2
     RDKit          3D

 33 34  0  0  0  0  0  0  0  0999 V2000
    4.4930    7.5950   20.6980 C   0  0  0  0  0  0  0  0  0  0  0  0
    5.6720    6.9710   21.2850 N   0  0  0  0  0  0  0  0  0  0  0  0
    6.9550    7.6190   21.1000 C   0  0  0  0  0  0  0  0  0  0  0  0
    7.8230    6.8430   21.7310 N   0  0  0  0  0  0  0  0  0  0  0  0
    7.1370    5.7970   22.2470 C   0  0  0  0  0  0  0  0  0  0  0  0
    7.7130    4.7850   22.9530 N   0  0  0  0  0  0  0  0  0  0  0  0
    7.1380    3.5760   23.1770 C   0  0  0  0  0  0  0  0  0  0  0  0
    6.0450    3.3540   23.7010 O   0  0  0  0  0  0  0  0  0  0  0  0
    7.8590    2.4760   22.7840 N   0  0  0  0  0  0  0  0  0  0  0  0
    7.5690    1.0700   23.1390 C   0  0  1  0  0  0  0  0  0  0  0  0
    6.1820    0.6030   22.6760 C   0  0  0  0  0  0  0  0  0  0  0  0
    6.0440    0.6610   21.1410 C   0  0  0  0  0  0  0  0  0  0  0  0
    5.0640    1.6400   20.4950 C   0  0  0  0  0  0  0  0  0  0  0  0
    5.0210    1.6300   19.1130 C   0  0  0  0  0  0  0  0  0  0  0  0
    5.8550    0.7390   18.1980 C   0  0  0  0  0  0  0  0  0  0  0  0
    5.7220    0.8410   17.0120 O   0  0  0  0  0  0  0  0  0  0  0  0
    6.8080   -0.2230   18.8630 C   0  0  0  0  0  0  0  0  0  0  0  0
    6.9130   -0.2730   20.2620 C   0  0  0  0  0  0  0  0  0  0  0  0
    8.6730    0.1490   22.5640 C   0  0  0  0  0  0  0  0  0  0  0  0
    9.5400    0.6970   21.6680 O   0  0  0  0  0  0  0  0  0  0  0  0
    8.7870   -1.1660   22.9470 N   0  0  0  0  0  0  0  0  0  0  0  0
    7.8800   -1.6130   24.0160 C   0  0  0  0  0  0  0  0  0  0  0  0
    7.0880   -2.6980   23.6580 C   0  0  0  0  0  0  0  0  0  0  0  0
    7.2210   -3.6790   24.6020 C   0  0  0  0  0  0  0  0  0  0  0  0
    5.5690   -4.4820   25.2580 Br  0  0  0  0  0  0  0  0  0  0  0  0
   10.1470   -1.5350   23.2910 C   0  0  0  0  0  0  0  0  0  0  0  0
   10.6340   -0.5810   24.3920 C   0  0  0  0  0  0  0  0  0  0  0  0
   11.5380    0.2120   23.7830 N   0  0  0  0  0  0  0  0  0  0  0  0
   13.0130   -0.4550   23.6690 S   0  0  0  0  0  0  0  0  0  0  0  0
   12.7470   -1.7680   22.7100 N   0  0  0  0  0  0  0  0  0  0  0  0
   13.3250   -0.9940   24.9650 O   0  0  0  0  0  0  0  0  0  0  0  0
   13.8060    0.4340   22.8790 O   0  0  0  0  0  0  0  0  0  0  0  0
    5.7900    5.8300   22.0060 N   0  0  0  0  0  0  0  0  0  0  0  0
  1  2  1  0
  2  3  1  0
  3  4  2  0
  4  5  1  0
  5  6  1  0
  6  7  1  0
  7  8  2  0
  7  9  1  0
  9 10  1  0
 10 11  1  6
 11 12  1  0
 12 13  2  0
 13 14  1  0
 14 15  2  0
 15 16  1  0
 15 17  1  0
 12 18  1  0
 17 18  2  0
 10 19  1  0
 19 20  2  0
 19 21  1  0
 21 22  1  0
 22 23  1  0
 23 24  1  0
 24 25  1  0
 21 26  1  0
 26 27  1  0
 27 28  1  0
 29 28  1  0
 29 30  1  0
 29 31  2  0
 29 32  2  0
  2 33  1  0
  5 33  2  0
M  END
