CHR-SOS-6c45c019-4
     RDKit          3D

 24 26  0  0  0  0  0  0  0  0999 V2000
    5.2130    0.8390   22.0950 C   0  0  0  0  0  0  0  0  0  0  0  0
    5.6060    0.6900   20.6780 C   0  0  0  0  0  0  0  0  0  0  0  0
    4.9870    1.2890   19.6450 C   0  0  0  0  0  0  0  0  0  0  0  0
    5.3470    1.1720   18.1890 C   0  0  0  0  0  0  0  0  0  0  0  0
    6.3910    0.3960   17.8040 N   0  0  0  0  0  0  0  0  0  0  0  0
    7.0300   -0.2240   18.8510 C   0  0  0  0  0  0  0  0  0  0  0  0
    6.6840   -0.1160   20.3350 C   0  0  0  0  0  0  0  0  0  0  0  0
    7.5300   -0.8840   21.2500 N   0  0  0  0  0  0  0  0  0  0  0  0
    8.6720   -0.2620   21.9060 C   0  0  0  0  0  0  0  0  0  0  0  0
    9.0880    0.8700   21.6700 O   0  0  0  0  0  0  0  0  0  0  0  0
    9.2280   -1.1270   22.8460 N   0  0  0  0  0  0  0  0  0  0  0  0
   10.5930   -1.5060   22.9920 C   0  0  0  0  0  0  0  0  0  0  0  0
   11.0550   -2.7710   22.8850 C   0  0  0  0  0  0  0  0  0  0  0  0
   11.2600   -3.5910   24.1150 C   0  0  0  0  0  0  0  0  0  0  0  0
   12.4060   -3.1120   24.8220 C   0  0  0  0  0  0  0  0  0  0  0  0
   13.3640   -3.7480   25.5610 C   0  0  0  0  0  0  0  0  0  0  0  0
   14.2140   -3.3010   26.1690 C   0  0  0  0  0  0  0  0  0  0  0  0
   14.3300   -2.1340   26.1880 C   0  0  0  0  0  0  0  0  0  0  0  0
   13.4270   -1.3650   25.4300 C   0  0  0  0  0  0  0  0  0  0  0  0
   12.4390   -1.7370   24.7100 N   0  0  0  0  0  0  0  0  0  0  0  0
   11.2570   -0.9040   24.1820 C   0  0  0  0  0  0  0  0  0  0  0  0
   12.7260   -0.6930   23.7750 C   0  0  0  0  0  0  0  0  0  0  0  0
   12.5710   -0.1190   22.4250 C   0  0  0  0  0  0  0  0  0  0  0  0
   11.2640   -0.7790   21.9380 C   0  0  0  0  0  0  0  0  0  0  0  0
  1  2  1  0
  2  3  2  0
  3  4  1  0
  4  5  2  0
  5  6  1  0
  2  7  1  0
  6  7  2  0
  7  8  1  0
  8  9  1  0
  9 10  2  0
  9 11  1  0
 11 12  1  0
 12 13  1  0
 13 14  3  0
 14 15  1  0
 15 16  2  0
 16 17  1  0
 17 18  2  0
 18 19  1  0
 15 20  1  0
 19 20  2  0
 12 21  1  0
 21 22  1  0
 22 23  1  0
 12 24  1  0
 23 24  1  0
M  END
