CHR-SOS-7098f804-15
     RDKit          3D

 26 28  0  0  0  0  0  0  0  0999 V2000
   13.8550   -1.1390   20.7140 N   0  0  0  0  0  0  0  0  0  0  0  0
   12.9860   -2.3360   21.3870 S   0  0  0  0  0  0  0  0  0  0  0  0
   13.6790   -3.0840   22.3990 O   0  0  0  0  0  0  0  0  0  0  0  0
   12.3740   -2.8850   20.2810 O   0  0  0  0  0  0  0  0  0  0  0  0
   11.8320   -1.4670   22.2200 C   0  0  0  0  0  0  0  0  0  0  0  0
   12.2700   -0.1780   22.7960 C   0  0  0  0  0  0  0  0  0  0  0  0
   11.2620    0.5790   23.5420 C   0  0  0  0  0  0  0  0  0  0  0  0
    9.8460   -0.0210   23.6620 C   0  0  0  0  0  0  0  0  0  0  0  0
    8.9090    0.7800   24.4640 C   0  0  0  0  0  0  0  0  0  0  0  0
    9.4580    0.4110   25.4970 C   0  0  0  0  0  0  0  0  0  0  0  0
   10.0390   -0.1100   24.2480 C   0  0  0  0  0  0  0  0  0  0  0  0
    9.4330    0.2820   22.6960 C   0  0  0  0  0  0  0  0  0  0  0  0
    8.6220    0.8410   21.2890 Cl  0  0  0  0  0  0  0  0  0  0  0  0
    8.1430    1.2850   22.7140 C   0  0  0  0  0  0  0  0  0  0  0  0
    8.0470    1.4300   23.9370 C   0  0  0  0  0  0  0  0  0  0  0  0
    8.7150    0.8080   22.8330 C   0  0  0  0  0  0  0  0  0  0  0  0
   10.0350    1.3370   22.5830 O   0  0  0  0  0  0  0  0  0  0  0  0
    7.8470   -0.1940   22.0070 N   0  0  0  0  0  0  0  0  0  0  0  0
    7.0660    0.1550   20.8030 C   0  0  0  0  0  0  0  0  0  0  0  0
    5.9190    1.1320   20.8560 C   0  0  0  0  0  0  0  0  0  0  0  0
    5.1910    1.4530   19.6950 C   0  0  0  0  0  0  0  0  0  0  0  0
    5.4860    0.8950   18.4440 C   0  0  0  0  0  0  0  0  0  0  0  0
    6.5840   -0.0460   18.3790 N   0  0  0  0  0  0  0  0  0  0  0  0
    7.3030   -0.3740   19.5170 C   0  0  0  0  0  0  0  0  0  0  0  0
    9.5080   -1.2550   23.0820 C   0  0  0  0  0  0  0  0  0  0  0  0
   10.5630   -2.0140   22.3180 C   0  0  0  0  0  0  0  0  0  0  0  0
  2  1  1  0
  2  3  2  0
  2  4  2  0
  2  5  1  0
  5  6  2  0
  6  7  1  0
  7  8  2  0
  8  9  1  0
  9 10  2  0
 10 11  1  0
 11 12  2  0
 12 13  1  0
 12 14  1  0
  9 15  1  0
 14 15  2  0
 15 16  1  0
 16 17  2  0
 16 18  1  0
 18 19  1  0
 19 20  2  0
 20 21  1  0
 21 22  2  0
 22 23  1  0
 19 24  1  0
 23 24  2  0
  8 25  1  0
  5 26  1  0
 25 26  2  0
M  END
