CHR-SOS-f7373dd1-3
     RDKit          3D

 22 24  0  0  0  0  0  0  0  0999 V2000
    9.8210   -4.0060   25.1990 C   0  0  0  0  0  0  0  0  0  0  0  0
   10.7320   -2.9250   24.6930 C   0  0  0  0  0  0  0  0  0  0  0  0
   12.0180   -2.9450   24.8250 N   0  0  0  0  0  0  0  0  0  0  0  0
   12.6020   -1.7630   24.2620 C   0  0  0  0  0  0  0  0  0  0  0  0
   11.9010   -0.6810   23.6380 C   0  0  0  0  0  0  0  0  0  0  0  0
   11.0430    0.2490   23.0780 C   0  0  0  0  0  0  0  0  0  0  0  0
   10.0300   -0.1520   22.1570 C   0  0  0  0  0  0  0  0  0  0  0  0
    8.8740    0.6880   21.6130 C   0  0  0  0  0  0  0  0  0  0  0  0
    9.0270    1.8410   21.2290 O   0  0  0  0  0  0  0  0  0  0  0  0
    7.6230    0.0410   21.5410 N   0  0  0  0  0  0  0  0  0  0  0  0
    6.8490    0.3600   20.3460 C   0  0  0  0  0  0  0  0  0  0  0  0
    5.7070    1.2790   20.5320 C   0  0  0  0  0  0  0  0  0  0  0  0
    4.9100    1.6250   19.3220 C   0  0  0  0  0  0  0  0  0  0  0  0
    5.3320    1.0120   17.9990 C   0  0  0  0  0  0  0  0  0  0  0  0
    6.3970    0.1750   17.9350 N   0  0  0  0  0  0  0  0  0  0  0  0
    7.1020   -0.1270   19.0550 C   0  0  0  0  0  0  0  0  0  0  0  0
   12.3200    1.0860   22.6640 C   0  0  0  0  0  0  0  0  0  0  0  0
   12.3860    2.6420   22.6000 C   0  0  0  0  0  0  0  0  0  0  0  0
   11.2680    3.4690   23.1830 C   0  0  0  0  0  0  0  0  0  0  0  0
   10.0720    2.6880   23.5980 C   0  0  0  0  0  0  0  0  0  0  0  0
   10.5270    1.3040   24.0770 C   0  0  0  0  0  0  0  0  0  0  0  0
   10.3180   -1.5000   23.8830 S   0  0  0  0  0  0  0  0  0  0  0  0
  1  2  1  0
  2  3  2  0
  3  4  1  0
  4  5  2  0
  5  6  1  0
  6  7  1  0
  7  8  1  0
  8  9  2  0
  8 10  1  0
 10 11  1  0
 11 12  2  0
 12 13  1  0
 13 14  2  0
 14 15  1  0
 11 16  1  0
 15 16  2  0
  6 17  1  0
 17 18  1  0
 18 19  1  0
 19 20  1  0
  6 21  1  0
 20 21  1  0
  2 22  1  0
  5 22  1  0
M  END
