CHR-SOS-b301fc01-4
     RDKit          3D

 24 26  0  0  0  0  0  0  0  0999 V2000
   13.5900   -2.7110   24.9170 C   0  0  0  0  0  0  0  0  0  0  0  0
   12.3960   -2.5730   24.2440 N   0  0  0  0  0  0  0  0  0  0  0  0
   11.2940   -3.3320   24.3800 C   0  0  0  0  0  0  0  0  0  0  0  0
   10.2910   -2.9950   23.6320 N   0  0  0  0  0  0  0  0  0  0  0  0
   10.8000   -1.9350   22.9600 C   0  0  0  0  0  0  0  0  0  0  0  0
    9.9910   -1.2100   21.9720 C   0  0  0  0  0  0  0  0  0  0  0  0
   10.5950    0.1810   21.9520 C   0  0  0  0  0  0  0  0  0  0  0  0
   10.0870    1.1210   22.9950 C   0  0  0  0  0  0  0  0  0  0  0  0
    8.8310    0.6720   23.3020 C   0  0  0  0  0  0  0  0  0  0  0  0
    8.2510    0.7060   22.0090 C   0  0  0  0  0  0  0  0  0  0  0  0
    8.6390    1.5300   21.1700 O   0  0  0  0  0  0  0  0  0  0  0  0
    7.1890   -0.2770   21.6960 N   0  0  0  0  0  0  0  0  0  0  0  0
    6.6000    0.1560   20.4180 C   0  0  0  0  0  0  0  0  0  0  0  0
    5.4870    0.9850   20.5340 C   0  0  0  0  0  0  0  0  0  0  0  0
    4.8490    1.4710   19.3910 C   0  0  0  0  0  0  0  0  0  0  0  0
    5.4650    1.0230   18.0800 C   0  0  0  0  0  0  0  0  0  0  0  0
    6.5380    0.2160   17.9990 N   0  0  0  0  0  0  0  0  0  0  0  0
    7.0800   -0.2010   19.1630 C   0  0  0  0  0  0  0  0  0  0  0  0
   11.2340    0.9950   23.9810 C   0  0  0  0  0  0  0  0  0  0  0  0
   12.2890    1.5060   23.2750 C   0  0  0  0  0  0  0  0  0  0  0  0
   12.1860    2.9690   22.8560 C   0  0  0  0  0  0  0  0  0  0  0  0
   10.9410    3.5680   23.0650 C   0  0  0  0  0  0  0  0  0  0  0  0
    9.9760    2.6610   22.6040 C   0  0  0  0  0  0  0  0  0  0  0  0
   12.1000   -1.6450   23.3100 C   0  0  0  0  0  0  0  0  0  0  0  0
  1  2  1  0
  2  3  1  0
  3  4  2  0
  4  5  1  0
  5  6  1  0
  6  7  3  0
  8  7  1  0
  8  9  1  0
  9 10  1  0
 10 11  2  0
 10 12  1  0
 12 13  1  0
 13 14  2  0
 14 15  1  0
 15 16  2  0
 16 17  1  0
 13 18  1  0
 17 18  2  0
  8 19  1  0
 19 20  1  0
 20 21  1  0
 21 22  1  0
  8 23  1  0
 22 23  1  0
  2 24  1  0
  5 24  2  0
M  END
