CHR-SOS-7098f804-22
     RDKit          3D

 27 29  0  0  0  0  0  0  0  0999 V2000
    4.3650   -4.7780   24.0750 N   0  0  0  0  0  0  0  0  0  0  0  0
    5.5550   -5.0420   22.9060 S   0  0  0  0  0  0  0  0  0  0  0  0
    4.9190   -4.7820   21.6300 O   0  0  0  0  0  0  0  0  0  0  0  0
    6.1110   -6.3300   23.2440 O   0  0  0  0  0  0  0  0  0  0  0  0
    6.7380   -3.7390   23.2530 C   0  0  0  0  0  0  0  0  0  0  0  0
    6.1410   -2.4140   23.4960 C   0  0  0  0  0  0  0  0  0  0  0  0
    6.8890   -1.3610   23.7500 C   0  0  0  0  0  0  0  0  0  0  0  0
    8.3800   -1.4770   23.7980 C   0  0  0  0  0  0  0  0  0  0  0  0
    9.1470   -2.7950   23.5680 C   0  0  0  0  0  0  0  0  0  0  0  0
   10.4040   -2.8230   23.6130 O   0  0  0  0  0  0  0  0  0  0  0  0
   10.8720   -1.5670   23.3430 C   0  0  0  0  0  0  0  0  0  0  0  0
   12.3330   -0.9910   23.7960 C   0  0  0  0  0  0  0  0  0  0  0  0
   12.1600    0.3480   23.2300 C   0  0  0  0  0  0  0  0  0  0  0  0
   12.8630    1.8400   23.0100 Cl  0  0  0  0  0  0  0  0  0  0  0  0
   11.0120   -0.0840   22.8640 C   0  0  0  0  0  0  0  0  0  0  0  0
    9.9740    0.5520   22.1640 C   0  0  0  0  0  0  0  0  0  0  0  0
    8.6180    0.5930   21.5310 C   0  0  0  0  0  0  0  0  0  0  0  0
    8.1190    1.6990   21.5390 O   0  0  0  0  0  0  0  0  0  0  0  0
    8.0550   -0.4930   20.9420 N   0  0  0  0  0  0  0  0  0  0  0  0
    7.0430   -0.0420   20.0960 C   0  0  0  0  0  0  0  0  0  0  0  0
    5.9520    0.6830   20.5730 C   0  0  0  0  0  0  0  0  0  0  0  0
    4.9820    1.1290   19.6770 C   0  0  0  0  0  0  0  0  0  0  0  0
    5.1450    0.8330   18.3330 C   0  0  0  0  0  0  0  0  0  0  0  0
    6.1860    0.1300   17.8560 N   0  0  0  0  0  0  0  0  0  0  0  0
    7.1040   -0.2900   18.7470 C   0  0  0  0  0  0  0  0  0  0  0  0
    9.8080   -0.8110   22.5780 C   0  0  0  0  0  0  0  0  0  0  0  0
    8.1280   -3.9730   23.2800 C   0  0  0  0  0  0  0  0  0  0  0  0
  2  1  1  0
  2  3  2  0
  2  4  2  0
  2  5  1  0
  5  6  2  0
  6  7  1  0
  7  8  2  0
  8  9  1  0
  9 10  1  0
 10 11  1  0
 11 12  2  0
 12 13  1  0
 13 14  1  0
 13 15  2  0
 15 16  1  0
 16 17  1  0
 17 18  2  0
 17 19  1  0
 19 20  1  0
 20 21  2  0
 21 22  1  0
 22 23  2  0
 23 24  1  0
 20 25  1  0
 24 25  2  0
 11 26  1  0
 16 26  2  0
  5 27  1  0
  9 27  2  0
M  END
