CHR-SOS-7098f804-14
     RDKit          3D

 22 24  0  0  0  0  0  0  0  0999 V2000
    8.9110    1.8450   21.2320 O   0  0  0  0  0  0  0  0  0  0  0  0
    9.1450    0.5420   21.7380 C   0  0  0  0  0  0  0  0  0  0  0  0
    8.1670   -0.4230   21.4680 N   0  0  0  0  0  0  0  0  0  0  0  0
    7.1770   -0.0650   20.4120 C   0  0  0  0  0  0  0  0  0  0  0  0
    6.0390    0.6720   20.8240 C   0  0  0  0  0  0  0  0  0  0  0  0
    5.1240    1.0310   19.8430 C   0  0  0  0  0  0  0  0  0  0  0  0
    5.2880    0.6980   18.5280 C   0  0  0  0  0  0  0  0  0  0  0  0
    6.3330   -0.0020   18.0790 N   0  0  0  0  0  0  0  0  0  0  0  0
    7.2540   -0.3740   19.0240 C   0  0  0  0  0  0  0  0  0  0  0  0
   10.5030    0.4730   22.4220 C   0  0  0  0  0  0  0  0  0  0  0  0
   11.3950   -0.3900   22.8610 C   0  0  0  0  0  0  0  0  0  0  0  0
   11.6520   -1.6730   22.9880 C   0  0  0  0  0  0  0  0  0  0  0  0
   12.7700   -2.8210   23.5390 Cl  0  0  0  0  0  0  0  0  0  0  0  0
   12.6390   -0.8120   23.4370 C   0  0  0  0  0  0  0  0  0  0  0  0
   12.4830    0.7470   23.3560 C   0  0  0  0  0  0  0  0  0  0  0  0
   11.3410    1.4570   22.8330 C   0  0  0  0  0  0  0  0  0  0  0  0
   11.2320    2.9960   22.7980 C   0  0  0  0  0  0  0  0  0  0  0  0
   12.3690    3.8030   22.6260 C   0  0  0  0  0  0  0  0  0  0  0  0
   12.3220    5.3210   22.5970 C   0  0  0  0  0  0  0  0  0  0  0  0
   10.9360    5.9180   22.7660 C   0  0  0  0  0  0  0  0  0  0  0  0
    9.8120    5.1110   22.9370 C   0  0  0  0  0  0  0  0  0  0  0  0
    9.8740    3.7100   22.9620 C   0  0  0  0  0  0  0  0  0  0  0  0
  1  2  2  0
  2  3  1  0
  3  4  1  0
  4  5  2  0
  5  6  1  0
  6  7  2  0
  7  8  1  0
  4  9  1  0
  8  9  2  0
  2 10  1  0
 10 11  2  0
 11 12  1  0
 12 13  1  0
 12 14  2  0
 14 15  1  0
 10 16  1  0
 15 16  2  0
 16 17  1  0
 17 18  2  0
 18 19  1  0
 19 20  2  0
 20 21  1  0
 17 22  1  0
 21 22  2  0
M  END
