CHR-SOS-6c45c019-5
     RDKit          3D

 24 26  0  0  0  0  0  0  0  0999 V2000
    5.4590    0.7500   22.1060 C   0  0  0  0  0  0  0  0  0  0  0  0
    5.6590    0.6190   20.6380 C   0  0  0  0  0  0  0  0  0  0  0  0
    4.7840    1.1410   19.7460 C   0  0  0  0  0  0  0  0  0  0  0  0
    5.0880    0.9490   18.2640 C   0  0  0  0  0  0  0  0  0  0  0  0
    6.2550    0.2340   17.8280 N   0  0  0  0  0  0  0  0  0  0  0  0
    7.1350   -0.2930   18.8570 C   0  0  0  0  0  0  0  0  0  0  0  0
    6.8130   -0.0770   20.1930 C   0  0  0  0  0  0  0  0  0  0  0  0
    7.7450   -0.6030   21.1130 N   0  0  0  0  0  0  0  0  0  0  0  0
    8.9030    0.1380   21.4930 C   0  0  0  0  0  0  0  0  0  0  0  0
    8.9100    1.3530   21.5980 O   0  0  0  0  0  0  0  0  0  0  0  0
   10.0310   -0.6380   21.6820 N   0  0  0  0  0  0  0  0  0  0  0  0
   10.8080   -0.1190   22.6740 C   0  0  0  0  0  0  0  0  0  0  0  0
   10.1930   -0.7420   23.8770 C   0  0  0  0  0  0  0  0  0  0  0  0
    9.8940   -2.0390   23.7290 C   0  0  0  0  0  0  0  0  0  0  0  0
   11.2270   -2.3430   23.5960 C   0  0  0  0  0  0  0  0  0  0  0  0
   12.0060   -2.3440   24.8280 C   0  0  0  0  0  0  0  0  0  0  0  0
   13.3650   -2.6660   24.6720 C   0  0  0  0  0  0  0  0  0  0  0  0
   13.8340   -2.9260   23.4160 C   0  0  0  0  0  0  0  0  0  0  0  0
   13.1190   -2.8920   22.2780 N   0  0  0  0  0  0  0  0  0  0  0  0
   11.8140   -2.6040   22.3900 C   0  0  0  0  0  0  0  0  0  0  0  0
   10.7640    1.2950   22.7780 C   0  0  0  0  0  0  0  0  0  0  0  0
   12.0920    1.6370   22.9460 C   0  0  0  0  0  0  0  0  0  0  0  0
   12.9340    0.5770   23.1530 C   0  0  0  0  0  0  0  0  0  0  0  0
   12.3070   -0.4970   22.7090 C   0  0  0  0  0  0  0  0  0  0  0  0
  1  2  1  0
  2  3  2  0
  3  4  1  0
  4  5  2  0
  5  6  1  0
  2  7  1  0
  6  7  2  0
  7  8  1  0
  8  9  1  0
  9 10  2  0
  9 11  1  0
 11 12  1  0
 12 13  1  0
 13 14  3  0
 14 15  1  0
 15 16  2  0
 16 17  1  0
 17 18  2  0
 18 19  1  0
 15 20  1  0
 19 20  2  0
 12 21  1  0
 21 22  1  0
 22 23  1  0
 12 24  1  0
 23 24  1  0
M  END
