CHR-SOS-70e4c98a-2
     RDKit          3D

 27 29  0  0  0  0  0  0  0  0999 V2000
   13.2580   -4.2910   26.3830 N   0  0  0  0  0  0  0  0  0  0  0  0
   13.8560   -3.0020   25.5610 S   0  0  0  0  0  0  0  0  0  0  0  0
   14.2980   -3.4370   24.2830 O   0  0  0  0  0  0  0  0  0  0  0  0
   14.6980   -2.3120   26.4770 O   0  0  0  0  0  0  0  0  0  0  0  0
   12.4100   -2.2090   25.1860 C   0  0  0  0  0  0  0  0  0  0  0  0
   11.2650   -3.0310   24.7800 C   0  0  0  0  0  0  0  0  0  0  0  0
   10.1400   -2.4500   24.4470 C   0  0  0  0  0  0  0  0  0  0  0  0
   10.0830   -0.9660   24.4960 C   0  0  0  0  0  0  0  0  0  0  0  0
    9.1310   -0.1890   24.1700 O   0  0  0  0  0  0  0  0  0  0  0  0
    9.7860    0.4800   23.1600 C   0  0  0  0  0  0  0  0  0  0  0  0
    8.8010    1.4680   22.6530 C   0  0  0  0  0  0  0  0  0  0  0  0
    8.1360    0.9250   21.4110 C   0  0  0  0  0  0  0  0  0  0  0  0
    8.2730    1.5840   20.4170 O   0  0  0  0  0  0  0  0  0  0  0  0
    7.4370   -0.1870   21.3670 N   0  0  0  0  0  0  0  0  0  0  0  0
    6.6290    0.1930   20.3530 C   0  0  0  0  0  0  0  0  0  0  0  0
    5.4510    0.9280   20.4370 C   0  0  0  0  0  0  0  0  0  0  0  0
    4.5840    1.3610   19.2630 C   0  0  0  0  0  0  0  0  0  0  0  0
    5.1310    0.9130   17.9540 C   0  0  0  0  0  0  0  0  0  0  0  0
    6.2590    0.1970   17.8480 N   0  0  0  0  0  0  0  0  0  0  0  0
    7.0090   -0.1680   19.0490 C   0  0  0  0  0  0  0  0  0  0  0  0
   11.0870    1.3210   23.4040 C   0  0  0  0  0  0  0  0  0  0  0  0
   12.3400    0.6900   23.5280 C   0  0  0  0  0  0  0  0  0  0  0  0
   12.5870   -0.4190   22.7580 C   0  0  0  0  0  0  0  0  0  0  0  0
   11.5580   -1.3130   22.5520 C   0  0  0  0  0  0  0  0  0  0  0  0
   10.2020   -0.6030   22.3520 C   0  0  0  0  0  0  0  0  0  0  0  0
   11.1170   -0.2060   24.8810 C   0  0  0  0  0  0  0  0  0  0  0  0
   12.3830   -0.8810   25.2600 C   0  0  0  0  0  0  0  0  0  0  0  0
  2  1  1  0
  2  3  2  0
  2  4  2  0
  2  5  1  0
  5  6  2  0
  6  7  1  0
  7  8  2  0
  8  9  1  0
 10  9  1  0
 10 11  1  0
 11 12  1  0
 12 13  2  0
 12 14  1  0
 14 15  1  0
 15 16  2  0
 16 17  1  0
 17 18  2  0
 18 19  1  0
 15 20  1  0
 19 20  2  0
 10 21  1  0
 21 22  1  0
 22 23  1  0
 23 24  1  0
 10 25  1  0
 24 25  1  0
  8 26  1  0
  5 27  1  0
 26 27  2  0
M  END
