CHR-SOS-7098f804-21
     RDKit          3D

 17 18  0  0  0  0  0  0  0  0999 V2000
    9.3530    1.3680   21.5090 O   0  0  0  0  0  0  0  0  0  0  0  0
    9.1410    0.1640   21.7740 C   0  0  0  0  0  0  0  0  0  0  0  0
    7.9580   -0.4760   21.3210 N   0  0  0  0  0  0  0  0  0  0  0  0
    7.0630   -0.0220   20.2860 C   0  0  0  0  0  0  0  0  0  0  0  0
    7.2160   -0.2780   18.9180 C   0  0  0  0  0  0  0  0  0  0  0  0
    6.3750    0.1640   17.9460 N   0  0  0  0  0  0  0  0  0  0  0  0
    5.3160    0.8950   18.3030 C   0  0  0  0  0  0  0  0  0  0  0  0
    5.0450    1.2070   19.6240 C   0  0  0  0  0  0  0  0  0  0  0  0
    5.9310    0.7410   20.6110 C   0  0  0  0  0  0  0  0  0  0  0  0
    5.5780    1.1380   22.2540 Cl  0  0  0  0  0  0  0  0  0  0  0  0
   10.1770   -0.6780   22.5360 C   0  0  0  0  0  0  0  0  0  0  0  0
   11.1320    0.5200   22.5970 C   0  0  0  0  0  0  0  0  0  0  0  0
   12.4940    0.2750   23.2820 C   0  0  0  0  0  0  0  0  0  0  0  0
   12.8760   -0.9860   23.8640 C   0  0  0  0  0  0  0  0  0  0  0  0
   11.9840   -2.0570   23.8260 C   0  0  0  0  0  0  0  0  0  0  0  0
   13.2500   -2.8340   24.6730 Cl  0  0  0  0  0  0  0  0  0  0  0  0
   11.3930   -0.9070   23.1700 C   0  0  0  0  0  0  0  0  0  0  0  0
  1  2  2  0
  2  3  1  0
  3  4  1  0
  4  5  2  0
  5  6  1  0
  6  7  2  0
  7  8  1  0
  4  9  1  0
  8  9  2  0
  9 10  1  0
  2 11  1  0
 11 12  2  0
 12 13  1  0
 13 14  2  0
 14 15  1  0
 15 16  1  0
 11 17  1  0
 15 17  2  0
M  END
