CHR-SOS-7098f804-7
     RDKit          3D

 17 18  0  0  0  0  0  0  0  0999 V2000
    8.9700    1.7500   21.3220 O   0  0  0  0  0  0  0  0  0  0  0  0
    9.1480    0.6160   21.7560 C   0  0  0  0  0  0  0  0  0  0  0  0
    8.1560   -0.4560   21.5350 N   0  0  0  0  0  0  0  0  0  0  0  0
    7.0800   -0.0400   20.5690 C   0  0  0  0  0  0  0  0  0  0  0  0
    7.1780   -0.4820   19.2930 C   0  0  0  0  0  0  0  0  0  0  0  0
    6.0590   -0.0280   18.3540 C   0  0  0  0  0  0  0  0  0  0  0  0
    4.9910    0.8050   18.7720 C   0  0  0  0  0  0  0  0  0  0  0  0
    4.9660    1.2080   20.0950 C   0  0  0  0  0  0  0  0  0  0  0  0
    5.9890    0.7870   20.9690 C   0  0  0  0  0  0  0  0  0  0  0  0
   10.5240    0.4350   22.4550 C   0  0  0  0  0  0  0  0  0  0  0  0
   11.3200   -0.5970   23.1470 C   0  0  0  0  0  0  0  0  0  0  0  0
   11.2040   -1.7860   23.4890 C   0  0  0  0  0  0  0  0  0  0  0  0
   11.9720   -3.0730   24.2720 Cl  0  0  0  0  0  0  0  0  0  0  0  0
   12.4380   -1.0000   23.7530 C   0  0  0  0  0  0  0  0  0  0  0  0
   12.6430    0.5160   23.3560 C   0  0  0  0  0  0  0  0  0  0  0  0
   11.5540    1.2650   22.6710 C   0  0  0  0  0  0  0  0  0  0  0  0
   11.6390    2.4460   22.3610 O   0  0  0  0  0  0  0  0  0  0  0  0
  1  2  2  0
  2  3  1  0
  3  4  1  0
  4  5  2  0
  5  6  1  0
  6  7  2  0
  7  8  1  0
  4  9  1  0
  8  9  2  0
  2 10  1  0
 10 11  2  0
 11 12  1  0
 12 13  1  0
 12 14  2  0
 14 15  1  0
 10 16  1  0
 15 16  2  0
 16 17  1  0
M  END
