CHR-SOS-7098f804-20
     RDKit          3D

 23 25  0  0  0  0  0  0  0  0999 V2000
    9.3060    1.2460   21.3510 O   0  0  0  0  0  0  0  0  0  0  0  0
    9.0570    0.0480   21.5560 C   0  0  0  0  0  0  0  0  0  0  0  0
    7.8320   -0.5520   21.2660 N   0  0  0  0  0  0  0  0  0  0  0  0
    6.9020   -0.0200   20.3300 C   0  0  0  0  0  0  0  0  0  0  0  0
    5.8030    0.6870   20.6420 C   0  0  0  0  0  0  0  0  0  0  0  0
    4.8930    1.2130   19.5790 C   0  0  0  0  0  0  0  0  0  0  0  0
    5.2370    0.9370   18.2760 C   0  0  0  0  0  0  0  0  0  0  0  0
    6.3290    0.2260   17.9550 N   0  0  0  0  0  0  0  0  0  0  0  0
    7.1170   -0.2280   18.9650 C   0  0  0  0  0  0  0  0  0  0  0  0
   10.1360   -0.8700   22.1160 C   0  0  0  0  0  0  0  0  0  0  0  0
   11.3240   -1.6700   22.8130 C   0  0  0  0  0  0  0  0  0  0  0  0
   12.2640   -1.1330   23.8000 C   0  0  0  0  0  0  0  0  0  0  0  0
   13.4440   -2.2050   24.4260 Cl  0  0  0  0  0  0  0  0  0  0  0  0
   12.1910    0.1310   24.2000 C   0  0  0  0  0  0  0  0  0  0  0  0
   11.2110    0.9130   23.6780 C   0  0  0  0  0  0  0  0  0  0  0  0
   11.0190    2.2370   24.0500 O   0  0  0  0  0  0  0  0  0  0  0  0
   11.5310    3.3190   23.3650 C   0  0  0  0  0  0  0  0  0  0  0  0
   12.6670    3.2410   22.5630 C   0  0  0  0  0  0  0  0  0  0  0  0
   13.1890    4.3600   21.8800 C   0  0  0  0  0  0  0  0  0  0  0  0
   12.5990    5.6130   21.9720 C   0  0  0  0  0  0  0  0  0  0  0  0
   11.3580    5.7750   22.8230 C   0  0  0  0  0  0  0  0  0  0  0  0
   10.8410    4.5230   23.5360 C   0  0  0  0  0  0  0  0  0  0  0  0
   10.3020    0.4280   22.7390 C   0  0  0  0  0  0  0  0  0  0  0  0
  1  2  2  0
  2  3  1  0
  3  4  1  0
  4  5  2  0
  5  6  1  0
  6  7  2  0
  7  8  1  0
  4  9  1  0
  8  9  2  0
  2 10  1  0
 10 11  2  0
 11 12  1  0
 12 13  1  0
 12 14  2  0
 14 15  1  0
 15 16  1  0
 16 17  1  0
 17 18  2  0
 18 19  1  0
 19 20  2  0
 20 21  1  0
 17 22  1  0
 21 22  2  0
 10 23  1  0
 15 23  2  0
M  END
