CHR-SOS-e960e883-4
     RDKit          3D

 27 29  0  0  0  0  0  0  0  0999 V2000
    5.2770    2.0580   21.6980 C   0  0  0  0  0  0  0  0  0  0  0  0
    5.6360    1.3750   20.3890 C   0  0  0  0  0  0  0  0  0  0  0  0
    4.9070    1.5540   19.3040 C   0  0  0  0  0  0  0  0  0  0  0  0
    5.2100    0.9250   17.9930 C   0  0  0  0  0  0  0  0  0  0  0  0
    6.2440    0.1200   17.8050 N   0  0  0  0  0  0  0  0  0  0  0  0
    7.0550   -0.1190   18.9050 C   0  0  0  0  0  0  0  0  0  0  0  0
    6.7570    0.5310   20.2520 C   0  0  0  0  0  0  0  0  0  0  0  0
    7.5650    0.3320   21.3640 N   0  0  0  0  0  0  0  0  0  0  0  0
    8.7330    1.0400   21.5440 C   0  0  0  0  0  0  0  0  0  0  0  0
    8.9110    2.2020   21.2540 O   0  0  0  0  0  0  0  0  0  0  0  0
    9.8520    0.1740   22.1240 C   0  0  0  0  0  0  0  0  0  0  0  0
   10.9430    0.4400   22.9170 C   0  0  0  0  0  0  0  0  0  0  0  0
   11.6090   -0.9410   22.8270 C   0  0  0  0  0  0  0  0  0  0  0  0
   12.3750   -2.1290   23.1190 C   0  0  0  0  0  0  0  0  0  0  0  0
   13.2030   -2.4700   24.3890 C   0  0  0  0  0  0  0  0  0  0  0  0
   13.2720   -1.6120   25.4200 C   0  0  0  0  0  0  0  0  0  0  0  0
   12.5460   -0.6290   25.0170 C   0  0  0  0  0  0  0  0  0  0  0  0
   12.6990   -1.9390   23.9320 S   0  0  0  0  0  0  0  0  0  0  0  0
   13.9060   -2.8270   24.7620 N   0  0  0  0  0  0  0  0  0  0  0  0
   13.3440   -1.4740   22.7000 O   0  0  0  0  0  0  0  0  0  0  0  0
   11.4760   -2.7510   23.9770 O   0  0  0  0  0  0  0  0  0  0  0  0
   11.8100   -0.1970   24.0090 C   0  0  0  0  0  0  0  0  0  0  0  0
   12.2080    1.3460   22.7180 C   0  0  0  0  0  0  0  0  0  0  0  0
   12.0980    2.7430   22.5870 C   0  0  0  0  0  0  0  0  0  0  0  0
   11.2080    3.4620   23.3830 C   0  0  0  0  0  0  0  0  0  0  0  0
   10.1100    2.6210   23.7870 C   0  0  0  0  0  0  0  0  0  0  0  0
   10.5460    1.1830   24.1490 C   0  0  0  0  0  0  0  0  0  0  0  0
  1  2  1  0
  2  3  2  0
  3  4  1  0
  4  5  2  0
  5  6  1  0
  2  7  1  0
  6  7  2  0
  7  8  1  0
  8  9  1  0
  9 10  2  0
  9 11  1  0
 12 11  1  0
 12 13  1  0
 13 14  2  0
 14 15  1  0
 15 16  2  0
 16 17  1  0
 17 18  1  0
 18 19  1  0
 18 20  2  0
 18 21  2  0
 13 22  1  0
 17 22  2  0
 12 23  1  0
 23 24  1  0
 24 25  1  0
 25 26  1  0
 12 27  1  0
 26 27  1  0
M  END
