CHR-SOS-1f323c23-7
     RDKit          3D

 22 24  0  0  0  0  0  0  0  0999 V2000
    5.4870    0.9680   22.2390 C   0  0  0  0  0  0  0  0  0  0  0  0
    5.8980    0.6990   20.8450 C   0  0  0  0  0  0  0  0  0  0  0  0
    5.2010    1.2990   19.7550 C   0  0  0  0  0  0  0  0  0  0  0  0
    5.5760    1.0500   18.3280 C   0  0  0  0  0  0  0  0  0  0  0  0
    6.6160    0.2190   18.0500 N   0  0  0  0  0  0  0  0  0  0  0  0
    7.3320   -0.3970   19.0330 C   0  0  0  0  0  0  0  0  0  0  0  0
    7.1100   -0.2620   20.5200 C   0  0  0  0  0  0  0  0  0  0  0  0
    7.9100   -0.9490   21.4550 N   0  0  0  0  0  0  0  0  0  0  0  0
    9.0920   -0.3650   21.7820 C   0  0  0  0  0  0  0  0  0  0  0  0
    9.2970    0.8320   21.5740 O   0  0  0  0  0  0  0  0  0  0  0  0
   10.0240   -1.2650   22.3810 N   0  0  0  0  0  0  0  0  0  0  0  0
   11.1350   -0.7420   23.0670 C   0  0  0  0  0  0  0  0  0  0  0  0
   10.7700    0.4100   23.8790 O   0  0  0  0  0  0  0  0  0  0  0  0
   11.0790    1.7290   23.6060 C   0  0  0  0  0  0  0  0  0  0  0  0
   12.4340    2.0230   22.9700 C   0  0  0  0  0  0  0  0  0  0  0  0
   12.7550    3.4500   22.6870 C   0  0  0  0  0  0  0  0  0  0  0  0
   11.8410    4.4350   23.0040 C   0  0  0  0  0  0  0  0  0  0  0  0
   10.6020    4.1590   23.5870 C   0  0  0  0  0  0  0  0  0  0  0  0
   10.2320    2.8250   23.8810 C   0  0  0  0  0  0  0  0  0  0  0  0
   12.6090   -0.7520   22.4220 C   0  0  0  0  0  0  0  0  0  0  0  0
   13.0420   -1.3800   23.5510 C   0  0  0  0  0  0  0  0  0  0  0  0
   11.7110   -1.8540   24.0340 C   0  0  0  0  0  0  0  0  0  0  0  0
  1  2  1  0
  2  3  2  0
  3  4  1  0
  4  5  2  0
  5  6  1  0
  2  7  1  0
  6  7  2  0
  7  8  1  0
  8  9  1  0
  9 10  2  0
  9 11  1  0
 11 12  1  0
 12 13  1  0
 13 14  1  0
 14 15  2  0
 15 16  1  0
 16 17  2  0
 17 18  1  0
 14 19  1  0
 18 19  2  0
 12 20  1  0
 20 21  1  0
 12 22  1  0
 21 22  1  0
M  END
