CHR-SOS-70e4c98a-5
     RDKit          3D

 26 28  0  0  0  0  0  0  0  0999 V2000
    4.4120    2.3380   23.3160 C   0  0  0  0  0  0  0  0  0  0  0  0
    5.6200    3.2860   24.1090 S   0  0  0  0  0  0  0  0  0  0  0  0
    5.6430    4.5920   23.4820 O   0  0  0  0  0  0  0  0  0  0  0  0
    5.3970    3.1720   25.5330 O   0  0  0  0  0  0  0  0  0  0  0  0
    7.1490    2.5460   23.7860 C   0  0  0  0  0  0  0  0  0  0  0  0
    7.3970    1.2560   24.2410 C   0  0  0  0  0  0  0  0  0  0  0  0
    8.7330    0.6700   23.9260 C   0  0  0  0  0  0  0  0  0  0  0  0
    9.7510    1.2970   23.2200 C   0  0  0  0  0  0  0  0  0  0  0  0
   10.9220    0.6160   23.0170 O   0  0  0  0  0  0  0  0  0  0  0  0
   10.9160   -0.8450   22.8020 C   0  0  0  0  0  0  0  0  0  0  0  0
    9.7900   -1.3450   22.2500 C   0  0  0  0  0  0  0  0  0  0  0  0
    8.9110   -0.2850   21.6110 C   0  0  0  0  0  0  0  0  0  0  0  0
    9.2890    0.8450   21.3540 O   0  0  0  0  0  0  0  0  0  0  0  0
    7.5480   -0.7570   21.3320 N   0  0  0  0  0  0  0  0  0  0  0  0
    6.8080   -0.1290   20.3310 C   0  0  0  0  0  0  0  0  0  0  0  0
    5.6080    0.7730   20.6050 C   0  0  0  0  0  0  0  0  0  0  0  0
    4.8960    1.3960   19.4490 C   0  0  0  0  0  0  0  0  0  0  0  0
    5.3110    1.1650   18.1520 C   0  0  0  0  0  0  0  0  0  0  0  0
    6.3550    0.3790   17.8420 N   0  0  0  0  0  0  0  0  0  0  0  0
    7.0990   -0.2690   18.9670 C   0  0  0  0  0  0  0  0  0  0  0  0
   12.2460   -1.2670   22.1240 C   0  0  0  0  0  0  0  0  0  0  0  0
   12.9800   -1.9380   23.0810 C   0  0  0  0  0  0  0  0  0  0  0  0
   12.6000   -1.6670   24.3650 C   0  0  0  0  0  0  0  0  0  0  0  0
   11.0980   -1.4630   24.1960 C   0  0  0  0  0  0  0  0  0  0  0  0
    9.5120    2.5930   22.7610 C   0  0  0  0  0  0  0  0  0  0  0  0
    8.1470    3.2320   23.0630 C   0  0  0  0  0  0  0  0  0  0  0  0
  2  1  1  0
  2  3  2  0
  2  4  2  0
  2  5  1  0
  5  6  2  0
  6  7  1  0
  7  8  2  0
  8  9  1  0
 10  9  1  0
 10 11  1  0
 11 12  1  0
 12 13  2  0
 12 14  1  0
 14 15  1  0
 15 16  2  0
 16 17  1  0
 17 18  2  0
 18 19  1  0
 15 20  1  0
 19 20  2  0
 10 21  1  0
 21 22  1  0
 22 23  1  0
 10 24  1  0
 23 24  1  0
  8 25  1  0
  5 26  1  0
 25 26  2  0
M  END
