CHR-SOS-7098f804-13
     RDKit          3D

 23 25  0  0  0  0  0  0  0  0999 V2000
    8.3830    1.2150   20.9370 O   0  0  0  0  0  0  0  0  0  0  0  0
    8.6560    0.1820   21.5590 C   0  0  0  0  0  0  0  0  0  0  0  0
    7.8070   -0.8940   21.5110 N   0  0  0  0  0  0  0  0  0  0  0  0
    7.0020   -0.3860   20.3900 C   0  0  0  0  0  0  0  0  0  0  0  0
    5.8690    0.3490   20.7830 C   0  0  0  0  0  0  0  0  0  0  0  0
    4.9500    0.9560   19.7620 C   0  0  0  0  0  0  0  0  0  0  0  0
    5.2000    0.8050   18.4170 C   0  0  0  0  0  0  0  0  0  0  0  0
    6.2950    0.0910   17.9640 N   0  0  0  0  0  0  0  0  0  0  0  0
    7.1630   -0.4860   18.8480 C   0  0  0  0  0  0  0  0  0  0  0  0
    9.9760    0.3670   22.2540 C   0  0  0  0  0  0  0  0  0  0  0  0
   11.1780   -0.2160   22.8650 C   0  0  0  0  0  0  0  0  0  0  0  0
   11.7540   -1.4330   23.1530 C   0  0  0  0  0  0  0  0  0  0  0  0
   13.0820   -2.2940   23.8140 Cl  0  0  0  0  0  0  0  0  0  0  0  0
   12.4770    0.0180   23.4790 C   0  0  0  0  0  0  0  0  0  0  0  0
   11.7210    1.4480   23.0960 C   0  0  0  0  0  0  0  0  0  0  0  0
   12.0380    2.8170   23.2080 C   0  0  0  0  0  0  0  0  0  0  0  0
   13.1990    3.4380   22.7550 C   0  0  0  0  0  0  0  0  0  0  0  0
   13.3820    4.8200   22.8870 C   0  0  0  0  0  0  0  0  0  0  0  0
   12.4200    5.6250   23.4750 C   0  0  0  0  0  0  0  0  0  0  0  0
   11.2220    5.1380   23.9680 C   0  0  0  0  0  0  0  0  0  0  0  0
   11.0540    3.6230   23.8020 C   0  0  0  0  0  0  0  0  0  0  0  0
   10.4520    1.5260   22.4950 C   0  0  0  0  0  0  0  0  0  0  0  0
    9.7890    2.6890   22.1640 O   0  0  0  0  0  0  0  0  0  0  0  0
  1  2  2  0
  2  3  1  0
  3  4  1  0
  4  5  2  0
  5  6  1  0
  6  7  2  0
  7  8  1  0
  4  9  1  0
  8  9  2  0
  2 10  1  0
 10 11  2  0
 11 12  1  0
 12 13  1  0
 12 14  2  0
 14 15  1  0
 15 16  1  0
 16 17  2  0
 17 18  1  0
 18 19  2  0
 19 20  1  0
 16 21  1  0
 20 21  2  0
 10 22  1  0
 15 22  2  0
 22 23  1  0
M  END
