CHR-SOS-1f323c23-12
     RDKit          3D

 25 27  0  0  0  0  0  0  0  0999 V2000
    8.8080   -0.5640   26.7770 C   0  0  0  0  0  0  0  0  0  0  0  0
    7.8960   -0.9670   25.6390 C   0  0  0  0  0  0  0  0  0  0  0  0
    6.4600   -1.1370   25.9270 C   0  0  0  0  0  0  0  0  0  0  0  0
    5.5850   -1.5120   24.8880 C   0  0  0  0  0  0  0  0  0  0  0  0
    6.1360   -1.7060   23.6230 N   0  0  0  0  0  0  0  0  0  0  0  0
    7.4760   -1.5520   23.3300 C   0  0  0  0  0  0  0  0  0  0  0  0
    8.3570   -1.1840   24.3240 C   0  0  0  0  0  0  0  0  0  0  0  0
    9.6540   -1.0510   23.9470 N   0  0  0  0  0  0  0  0  0  0  0  0
   10.0020   -1.6700   22.7600 C   0  0  0  0  0  0  0  0  0  0  0  0
    9.5610   -2.7250   22.3300 O   0  0  0  0  0  0  0  0  0  0  0  0
   10.9580   -0.9070   22.1090 N   0  0  0  0  0  0  0  0  0  0  0  0
   12.4300   -1.0790   22.2770 C   0  0  0  0  0  0  0  0  0  0  0  0
   13.0240   -0.1650   22.8680 O   0  0  0  0  0  0  0  0  0  0  0  0
   12.3430    1.0060   23.0950 C   0  0  0  0  0  0  0  0  0  0  0  0
   12.6770    2.3880   22.8900 C   0  0  0  0  0  0  0  0  0  0  0  0
   12.3090    3.7400   22.9640 C   0  0  0  0  0  0  0  0  0  0  0  0
   11.0140    3.7890   23.4770 C   0  0  0  0  0  0  0  0  0  0  0  0
   10.1750    5.3380   23.7190 S   0  0  0  0  0  0  0  0  0  0  0  0
   11.3180    6.4220   23.1390 N   0  0  0  0  0  0  0  0  0  0  0  0
   10.0450    5.6440   25.1220 O   0  0  0  0  0  0  0  0  0  0  0  0
    9.0190    5.3660   22.8560 O   0  0  0  0  0  0  0  0  0  0  0  0
   10.3410    2.4070   23.8290 C   0  0  0  0  0  0  0  0  0  0  0  0
   11.0440    1.0160   23.6240 C   0  0  0  0  0  0  0  0  0  0  0  0
   13.1450   -2.3920   22.2120 C   0  0  0  0  0  0  0  0  0  0  0  0
   13.1140   -1.6220   20.9780 C   0  0  0  0  0  0  0  0  0  0  0  0
  1  2  1  0
  2  3  2  0
  3  4  1  0
  4  5  2  0
  5  6  1  0
  2  7  1  0
  6  7  2  0
  7  8  1  0
  8  9  1  0
  9 10  2  0
  9 11  1  0
 11 12  1  0
 12 13  1  0
 13 14  1  0
 14 15  2  0
 15 16  1  0
 16 17  2  0
 17 18  1  0
 18 19  1  0
 18 20  2  0
 18 21  2  0
 17 22  1  0
 14 23  1  0
 22 23  2  0
 12 24  1  0
 12 25  1  0
 24 25  1  0
M  END
