CHR-SOS-f7373dd1-2
     RDKit          3D

 22 24  0  0  0  0  0  0  0  0999 V2000
    9.2020    1.8540   21.2270 O   0  0  0  0  0  0  0  0  0  0  0  0
    8.8320    0.8560   21.8260 C   0  0  0  0  0  0  0  0  0  0  0  0
    9.4400    0.4950   23.1650 C   0  0  0  0  0  0  0  0  0  0  0  0
   10.7820    0.0770   23.2500 C   0  0  0  0  0  0  0  0  0  0  0  0
   12.1200    0.8550   22.9780 C   0  0  0  0  0  0  0  0  0  0  0  0
   12.0980    2.2010   23.0520 C   0  0  0  0  0  0  0  0  0  0  0  0
   10.8170    2.4990   23.3720 C   0  0  0  0  0  0  0  0  0  0  0  0
   10.8270    3.6200   23.4280 C   0  0  0  0  0  0  0  0  0  0  0  0
   12.2130    3.3500   23.0770 N   0  0  0  0  0  0  0  0  0  0  0  0
   12.8550    2.0430   22.8650 C   0  0  0  0  0  0  0  0  0  0  0  0
   10.9670   -1.2120   22.3820 C   0  0  0  0  0  0  0  0  0  0  0  0
   12.4350   -1.7360   22.4620 C   0  0  0  0  0  0  0  0  0  0  0  0
   13.1360   -1.2710   23.7180 C   0  0  0  0  0  0  0  0  0  0  0  0
   12.3190   -1.0490   24.7490 C   0  0  0  0  0  0  0  0  0  0  0  0
   10.9550   -0.5340   24.6500 C   0  0  0  0  0  0  0  0  0  0  0  0
    7.7580   -0.0470   21.3300 N   0  0  0  0  0  0  0  0  0  0  0  0
    6.9460    0.2630   20.2200 C   0  0  0  0  0  0  0  0  0  0  0  0
    5.8700    1.1180   20.3970 C   0  0  0  0  0  0  0  0  0  0  0  0
    5.0000    1.5180   19.3960 C   0  0  0  0  0  0  0  0  0  0  0  0
    5.2970    0.9800   18.1420 C   0  0  0  0  0  0  0  0  0  0  0  0
    6.3210    0.1460   17.9040 N   0  0  0  0  0  0  0  0  0  0  0  0
    7.1230   -0.2030   18.9340 C   0  0  0  0  0  0  0  0  0  0  0  0
  1  2  2  0
  2  3  1  0
  4  3  1  0
  4  5  1  0
  5  6  2  0
  6  7  1  0
  7  8  2  0
  8  9  1  0
  5 10  1  0
  9 10  2  0
  4 11  1  0
 11 12  1  0
 12 13  1  0
 13 14  1  0
  4 15  1  0
 14 15  1  0
  2 16  1  0
 16 17  1  0
 17 18  2  0
 18 19  1  0
 19 20  2  0
 20 21  1  0
 17 22  1  0
 21 22  2  0
M  END
