CHR-SOS-54d5cf3e-3
     RDKit          3D

 24 26  0  0  0  0  0  0  0  0999 V2000
    8.7610    1.5690   21.1340 O   0  0  0  0  0  0  0  0  0  0  0  0
    8.4350    0.6360   21.8710 C   0  0  0  0  0  0  0  0  0  0  0  0
    9.1900    0.4570   23.1380 C   0  0  0  0  0  0  0  0  0  0  0  0
   10.3820    1.0360   23.0410 C   0  0  0  0  0  0  0  0  0  0  0  0
   11.4550    0.4050   22.2560 C   0  0  0  0  0  0  0  0  0  0  0  0
   11.8760   -1.0560   22.4040 C   0  0  0  0  0  0  0  0  0  0  0  0
   12.8850   -1.2970   23.5220 C   0  0  1  0  0  0  0  0  0  0  0  0
   12.3720   -0.5690   24.7460 C   0  0  0  0  0  0  0  0  0  0  0  0
   10.9020   -0.9930   24.8700 C   0  0  0  0  0  0  0  0  0  0  0  0
   10.7040   -2.2340   24.1880 C   0  0  0  0  0  0  0  0  0  0  0  0
   11.8310   -3.1300   24.5120 N   0  0  0  0  0  0  0  0  0  0  0  0
   13.0740   -2.7150   23.8260 C   0  0  0  0  0  0  0  0  0  0  0  0
   11.3390    1.3300   24.1090 C   0  0  0  0  0  0  0  0  0  0  0  0
   12.3560    1.8270   23.2660 C   0  0  0  0  0  0  0  0  0  0  0  0
   12.1880    3.1300   22.8580 C   0  0  0  0  0  0  0  0  0  0  0  0
   10.8920    3.5440   22.9600 C   0  0  0  0  0  0  0  0  0  0  0  0
    9.9830    2.5260   22.6140 C   0  0  0  0  0  0  0  0  0  0  0  0
    7.4240   -0.2250   21.5480 N   0  0  0  0  0  0  0  0  0  0  0  0
    6.7250    0.1240   20.3260 C   0  0  0  0  0  0  0  0  0  0  0  0
    5.4970    0.9890   20.5610 C   0  0  0  0  0  0  0  0  0  0  0  0
    4.7370    1.4150   19.3060 C   0  0  0  0  0  0  0  0  0  0  0  0
    5.2690    0.9470   17.9530 C   0  0  0  0  0  0  0  0  0  0  0  0
    6.3900    0.1610   17.9120 N   0  0  0  0  0  0  0  0  0  0  0  0
    7.0750   -0.2300   19.0290 C   0  0  0  0  0  0  0  0  0  0  0  0
  1  2  2  0
  2  3  1  0
  3  4  1  0
  4  5  1  0
  5  6  3  0
  7  6  1  6
  7  8  1  0
  8  9  1  0
  9 10  1  0
 10 11  1  0
  7 12  1  0
 11 12  1  0
  4 13  1  0
 13 14  1  0
 14 15  1  0
 15 16  1  0
  4 17  1  0
 16 17  1  0
  2 18  1  0
 18 19  1  0
 19 20  2  0
 20 21  1  0
 21 22  2  0
 22 23  1  0
 19 24  1  0
 23 24  2  0
M  END
