CHR-SOS-6c45c019-12
     RDKit          3D

 22 24  0  0  0  0  0  0  0  0999 V2000
    5.2930    1.3530   21.9310 C   0  0  0  0  0  0  0  0  0  0  0  0
    5.6460    0.9120   20.5350 C   0  0  0  0  0  0  0  0  0  0  0  0
    4.7070    1.2020   19.4350 C   0  0  0  0  0  0  0  0  0  0  0  0
    5.0540    0.7890   18.1370 C   0  0  0  0  0  0  0  0  0  0  0  0
    6.2570    0.1040   17.9760 N   0  0  0  0  0  0  0  0  0  0  0  0
    7.1450   -0.1850   18.9780 C   0  0  0  0  0  0  0  0  0  0  0  0
    6.8620    0.2300   20.2700 C   0  0  0  0  0  0  0  0  0  0  0  0
    7.8160   -0.0530   21.2230 N   0  0  0  0  0  0  0  0  0  0  0  0
    8.4420    1.1260   21.6510 C   0  0  0  0  0  0  0  0  0  0  0  0
    8.3460    1.5950   20.5440 O   0  0  0  0  0  0  0  0  0  0  0  0
    8.3620    0.2720   22.6860 N   0  0  0  0  0  0  0  0  0  0  0  0
    9.4810   -0.5950   23.0190 C   0  0  0  0  0  0  0  0  0  0  0  0
    9.1490   -1.5300   24.1620 C   0  0  0  0  0  0  0  0  0  0  0  0
   10.4060   -2.0730   24.2400 C   0  0  0  0  0  0  0  0  0  0  0  0
   11.6660   -2.4130   23.9960 C   0  0  0  0  0  0  0  0  0  0  0  0
   12.0220   -2.5220   22.6660 C   0  0  0  0  0  0  0  0  0  0  0  0
   13.2640   -2.8720   22.3470 N   0  0  0  0  0  0  0  0  0  0  0  0
   14.1190   -3.1080   23.4090 C   0  0  0  0  0  0  0  0  0  0  0  0
   13.8560   -2.9920   24.7750 N   0  0  0  0  0  0  0  0  0  0  0  0
   12.5300   -2.6230   24.9620 C   0  0  0  0  0  0  0  0  0  0  0  0
   10.5930   -1.0910   22.1080 C   0  0  0  0  0  0  0  0  0  0  0  0
   10.8900    0.1050   23.0000 C   0  0  0  0  0  0  0  0  0  0  0  0
  1  2  1  0
  2  3  2  0
  3  4  1  0
  4  5  2  0
  5  6  1  0
  2  7  1  0
  6  7  2  0
  7  8  1  0
  8  9  1  0
  9 10  2  0
  9 11  1  0
 11 12  1  0
 12 13  1  0
 13 14  3  0
 14 15  1  0
 15 16  2  0
 16 17  1  0
 17 18  2  0
 18 19  1  0
 15 20  1  0
 19 20  2  0
 12 21  1  0
 12 22  1  0
 21 22  1  0
M  END
