CHR-SOS-6c45c019-3
     RDKit          3D

 25 27  0  0  0  0  0  0  0  0999 V2000
    5.1940    0.9460   21.9530 C   0  0  0  0  0  0  0  0  0  0  0  0
    5.6330    0.6890   20.5330 C   0  0  0  0  0  0  0  0  0  0  0  0
    4.8300    1.2720   19.4370 C   0  0  0  0  0  0  0  0  0  0  0  0
    5.2240    1.0480   18.1100 C   0  0  0  0  0  0  0  0  0  0  0  0
    6.3550    0.2790   17.9100 N   0  0  0  0  0  0  0  0  0  0  0  0
    7.1120   -0.2750   18.9110 C   0  0  0  0  0  0  0  0  0  0  0  0
    6.7710   -0.0760   20.2190 C   0  0  0  0  0  0  0  0  0  0  0  0
    7.6120   -0.6570   21.1190 N   0  0  0  0  0  0  0  0  0  0  0  0
    8.6930    0.1940   21.2270 C   0  0  0  0  0  0  0  0  0  0  0  0
    8.6480    1.4180   21.0730 O   0  0  0  0  0  0  0  0  0  0  0  0
    9.8830   -0.4630   21.4960 N   0  0  0  0  0  0  0  0  0  0  0  0
   10.4480   -0.2240   22.7980 C   0  0  0  0  0  0  0  0  0  0  0  0
    9.3640   -1.0240   23.4760 C   0  0  0  0  0  0  0  0  0  0  0  0
   10.2860   -1.9550   23.9900 C   0  0  0  0  0  0  0  0  0  0  0  0
   11.5070   -2.3320   24.4740 C   0  0  0  0  0  0  0  0  0  0  0  0
   12.3570   -1.2870   24.5130 C   0  0  0  0  0  0  0  0  0  0  0  0
   13.5700   -1.3850   24.9690 N   0  0  0  0  0  0  0  0  0  0  0  0
   14.1300   -2.5150   25.4540 C   0  0  0  0  0  0  0  0  0  0  0  0
   13.3510   -3.6390   25.4360 N   0  0  0  0  0  0  0  0  0  0  0  0
   11.9770   -3.4810   24.9000 C   0  0  0  0  0  0  0  0  0  0  0  0
   11.7370   -0.8990   23.4040 C   0  0  0  0  0  0  0  0  0  0  0  0
   12.2150    0.1130   22.4550 C   0  0  0  0  0  0  0  0  0  0  0  0
   12.6050    1.3660   23.1600 C   0  0  0  0  0  0  0  0  0  0  0  0
   11.5060    2.2150   23.0220 C   0  0  0  0  0  0  0  0  0  0  0  0
   10.2250    1.3620   23.0270 C   0  0  0  0  0  0  0  0  0  0  0  0
  1  2  1  0
  2  3  2  0
  3  4  1  0
  4  5  2  0
  5  6  1  0
  2  7  1  0
  6  7  2  0
  7  8  1  0
  8  9  1  0
  9 10  2  0
  9 11  1  0
 11 12  1  0
 12 13  1  0
 13 14  3  0
 14 15  1  0
 15 16  2  0
 16 17  1  0
 17 18  2  0
 18 19  1  0
 15 20  1  0
 19 20  2  0
 12 21  1  0
 21 22  1  0
 22 23  1  0
 23 24  1  0
 12 25  1  0
 24 25  1  0
M  END
