CHR-SOS-59746812-6
     RDKit          3D

 23 25  0  0  0  0  0  0  0  0999 V2000
    9.2460    1.4280   21.4430 O   0  0  0  0  0  0  0  0  0  0  0  0
    8.8370    0.3620   21.9200 C   0  0  0  0  0  0  0  0  0  0  0  0
    9.5710   -0.2960   23.0830 C   0  0  0  0  0  0  0  0  0  0  0  0
   10.7910    0.1680   23.4900 C   0  0  0  0  0  0  0  0  0  0  0  0
   10.9240    1.5110   24.1350 C   0  0  0  0  0  0  0  0  0  0  0  0
   11.2160    2.8420   23.4310 C   0  0  0  0  0  0  0  0  0  0  0  0
   12.5480    3.0380   22.7220 C   0  0  0  0  0  0  0  0  0  0  0  0
   12.8940    4.3770   22.0410 C   0  0  0  0  0  0  0  0  0  0  0  0
   11.7980    5.4390   22.1580 C   0  0  0  0  0  0  0  0  0  0  0  0
   10.5120    5.1980   22.8600 N   0  0  0  0  0  0  0  0  0  0  0  0
   10.3290    3.9090   23.4380 C   0  0  0  0  0  0  0  0  0  0  0  0
   11.7220   -0.0040   22.3400 C   0  0  0  0  0  0  0  0  0  0  0  0
   12.6670   -1.2010   22.2680 C   0  0  0  0  0  0  0  0  0  0  0  0
   13.1490   -1.6310   23.4650 C   0  0  0  0  0  0  0  0  0  0  0  0
   12.1980   -1.7390   24.4130 C   0  0  0  0  0  0  0  0  0  0  0  0
   11.4890   -0.5910   24.6430 C   0  0  0  0  0  0  0  0  0  0  0  0
    7.7010   -0.3010   21.4560 N   0  0  0  0  0  0  0  0  0  0  0  0
    6.8600    0.1740   20.4280 C   0  0  0  0  0  0  0  0  0  0  0  0
    5.7730    1.0280   20.6290 C   0  0  0  0  0  0  0  0  0  0  0  0
    4.9560    1.4790   19.4410 C   0  0  0  0  0  0  0  0  0  0  0  0
    5.4110    0.9450   18.1030 C   0  0  0  0  0  0  0  0  0  0  0  0
    6.4560    0.1260   17.9720 N   0  0  0  0  0  0  0  0  0  0  0  0
    7.1330   -0.2310   19.1040 C   0  0  0  0  0  0  0  0  0  0  0  0
  1  2  2  0
  2  3  1  0
  4  3  1  0
  4  5  1  0
  5  6  1  0
  6  7  2  0
  7  8  1  0
  8  9  2  0
  9 10  1  0
  6 11  1  0
 10 11  2  0
  4 12  1  0
 12 13  1  0
 13 14  1  0
 14 15  1  0
  4 16  1  0
 15 16  1  0
  2 17  1  0
 17 18  1  0
 18 19  2  0
 19 20  1  0
 20 21  2  0
 21 22  1  0
 18 23  1  0
 22 23  2  0
M  END
