CHR-SOS-b301fc01-3
     RDKit          3D

 24 26  0  0  0  0  0  0  0  0999 V2000
    8.5720    1.6150   21.2290 O   0  0  0  0  0  0  0  0  0  0  0  0
    8.2320    0.7290   22.0300 C   0  0  0  0  0  0  0  0  0  0  0  0
    8.9640    0.6370   23.3730 C   0  0  0  0  0  0  0  0  0  0  0  0
   10.1290    1.0400   22.9510 C   0  0  0  0  0  0  0  0  0  0  0  0
   10.1900    0.2260   21.7160 C   0  0  0  0  0  0  0  0  0  0  0  0
   10.6590   -1.2000   21.8100 C   0  0  0  0  0  0  0  0  0  0  0  0
   11.6980   -1.3710   22.8510 C   0  0  0  0  0  0  0  0  0  0  0  0
   12.6490   -2.4740   22.5390 C   0  0  0  0  0  0  0  0  0  0  0  0
   13.7410   -2.7650   23.6000 C   0  0  0  0  0  0  0  0  0  0  0  0
   13.8380   -2.0520   24.7740 N   0  0  0  0  0  0  0  0  0  0  0  0
   12.9330   -1.0110   24.9800 C   0  0  0  0  0  0  0  0  0  0  0  0
   11.8310   -0.6440   24.0060 C   0  0  0  0  0  0  0  0  0  0  0  0
   11.4080    0.7140   23.7320 C   0  0  0  0  0  0  0  0  0  0  0  0
   12.5050    1.5340   23.0500 C   0  0  0  0  0  0  0  0  0  0  0  0
   12.2500    2.8980   22.9060 C   0  0  0  0  0  0  0  0  0  0  0  0
   11.0310    3.1920   23.4770 C   0  0  0  0  0  0  0  0  0  0  0  0
   10.0250    2.4630   22.8680 C   0  0  0  0  0  0  0  0  0  0  0  0
    7.2580   -0.1250   21.6380 N   0  0  0  0  0  0  0  0  0  0  0  0
    6.6430    0.2040   20.4600 C   0  0  0  0  0  0  0  0  0  0  0  0
    5.5100    1.0120   20.4230 C   0  0  0  0  0  0  0  0  0  0  0  0
    4.8520    1.3980   19.2790 C   0  0  0  0  0  0  0  0  0  0  0  0
    5.3400    0.9590   18.0360 C   0  0  0  0  0  0  0  0  0  0  0  0
    6.4510    0.1570   18.0270 N   0  0  0  0  0  0  0  0  0  0  0  0
    7.0750   -0.2080   19.1960 C   0  0  0  0  0  0  0  0  0  0  0  0
  1  2  2  0
  2  3  1  0
  3  4  1  0
  4  5  1  0
  5  6  3  0
  6  7  1  0
  7  8  2  0
  8  9  1  0
  9 10  2  0
 10 11  1  0
  7 12  1  0
 11 12  2  0
  4 13  1  0
 13 14  1  0
 14 15  1  0
 15 16  1  0
  4 17  1  0
 16 17  1  0
  2 18  1  0
 18 19  1  0
 19 20  2  0
 20 21  1  0
 21 22  2  0
 22 23  1  0
 19 24  1  0
 23 24  2  0
M  END
