CHR-SOS-6c45c019-15
     RDKit          3D

 23 25  0  0  0  0  0  0  0  0999 V2000
    5.7330    1.0480   22.1550 C   0  0  0  0  0  0  0  0  0  0  0  0
    5.9800    0.6860   20.6930 C   0  0  0  0  0  0  0  0  0  0  0  0
    5.0110    1.0350   19.7470 C   0  0  0  0  0  0  0  0  0  0  0  0
    5.2090    0.7180   18.4120 C   0  0  0  0  0  0  0  0  0  0  0  0
    6.2830    0.0770   17.9390 N   0  0  0  0  0  0  0  0  0  0  0  0
    7.1920   -0.2440   18.8790 C   0  0  0  0  0  0  0  0  0  0  0  0
    7.1520    0.0120   20.2490 C   0  0  0  0  0  0  0  0  0  0  0  0
    8.1870   -0.3510   21.1570 N   0  0  0  0  0  0  0  0  0  0  0  0
    8.9190    0.7880   21.7610 C   0  0  0  0  0  0  0  0  0  0  0  0
    9.6950    1.5660   22.2470 O   0  0  0  0  0  0  0  0  0  0  0  0
   10.0000   -0.0810   21.7210 N   0  0  0  0  0  0  0  0  0  0  0  0
   11.0160    0.0050   22.6730 C   0  0  0  0  0  0  0  0  0  0  0  0
   10.3840   -0.7080   23.6510 C   0  0  0  0  0  0  0  0  0  0  0  0
   10.3650   -2.0380   23.3390 C   0  0  0  0  0  0  0  0  0  0  0  0
   11.6470   -2.3820   23.4830 C   0  0  0  0  0  0  0  0  0  0  0  0
   12.1410   -2.2920   24.8150 C   0  0  0  0  0  0  0  0  0  0  0  0
   13.3960   -2.6360   24.8520 N   0  0  0  0  0  0  0  0  0  0  0  0
   14.2870   -2.7050   26.0030 C   0  0  0  0  0  0  0  0  0  0  0  0
   13.6970   -2.9310   23.5320 C   0  0  0  0  0  0  0  0  0  0  0  0
   12.7180   -2.8090   22.6050 N   0  0  0  0  0  0  0  0  0  0  0  0
   11.7470    1.3520   22.8870 C   0  0  0  0  0  0  0  0  0  0  0  0
   12.7740    0.5270   23.1370 C   0  0  0  0  0  0  0  0  0  0  0  0
   12.3420   -0.5990   22.5820 C   0  0  0  0  0  0  0  0  0  0  0  0
  1  2  1  0
  2  3  2  0
  3  4  1  0
  4  5  2  0
  5  6  1  0
  2  7  1  0
  6  7  2  0
  7  8  1  0
  8  9  1  0
  9 10  2  0
  9 11  1  0
 11 12  1  0
 12 13  1  0
 13 14  3  0
 14 15  1  0
 15 16  2  0
 16 17  1  0
 17 18  1  0
 17 19  1  0
 15 20  1  0
 19 20  2  0
 12 21  1  0
 21 22  1  0
 12 23  1  0
 22 23  1  0
M  END
