CHR-SOS-1f323c23-8
     RDKit          3D

 26 28  0  0  0  0  0  0  0  0999 V2000
    9.6030   -0.3370   25.5120 C   0  0  0  0  0  0  0  0  0  0  0  0
   10.5180   -0.9810   24.5580 C   0  0  0  0  0  0  0  0  0  0  0  0
   11.9040   -0.8700   24.6750 C   0  0  0  0  0  0  0  0  0  0  0  0
   12.8480   -1.4390   23.8170 C   0  0  0  0  0  0  0  0  0  0  0  0
   12.5040   -2.1800   22.7420 N   0  0  0  0  0  0  0  0  0  0  0  0
   11.1600   -2.3260   22.5810 C   0  0  0  0  0  0  0  0  0  0  0  0
   10.0930   -1.7520   23.4650 C   0  0  0  0  0  0  0  0  0  0  0  0
    8.6870   -2.0670   23.0880 N   0  0  0  0  0  0  0  0  0  0  0  0
    7.6530   -1.1940   22.8280 C   0  0  0  0  0  0  0  0  0  0  0  0
    6.7080   -1.4100   22.0820 O   0  0  0  0  0  0  0  0  0  0  0  0
    7.8040   -0.0190   23.5270 N   0  0  0  0  0  0  0  0  0  0  0  0
    8.0540    1.0140   22.6670 C   0  0  0  0  0  0  0  0  0  0  0  0
    9.1120    0.9900   22.0630 O   0  0  0  0  0  0  0  0  0  0  0  0
   10.2570    1.6650   22.4260 C   0  0  0  0  0  0  0  0  0  0  0  0
   11.3450    0.9650   22.7910 C   0  0  0  0  0  0  0  0  0  0  0  0
   12.5040    1.6170   23.1240 C   0  0  0  0  0  0  0  0  0  0  0  0
   12.5420    3.0140   23.0840 C   0  0  0  0  0  0  0  0  0  0  0  0
   11.4360    3.7260   22.7300 C   0  0  0  0  0  0  0  0  0  0  0  0
   11.5940    5.4120   22.7400 S   0  0  0  0  0  0  0  0  0  0  0  0
   10.0390    5.9910   22.6470 N   0  0  0  0  0  0  0  0  0  0  0  0
   12.0940    5.8500   24.0180 O   0  0  0  0  0  0  0  0  0  0  0  0
   12.1850    5.7870   21.5180 O   0  0  0  0  0  0  0  0  0  0  0  0
   10.2840    3.0690   22.3910 C   0  0  0  0  0  0  0  0  0  0  0  0
    7.5850    2.4500   23.2920 C   0  0  0  0  0  0  0  0  0  0  0  0
    6.5670    2.3800   22.3480 C   0  0  0  0  0  0  0  0  0  0  0  0
    6.9460    1.2110   21.8320 C   0  0  0  0  0  0  0  0  0  0  0  0
  1  2  1  0
  2  3  2  0
  3  4  1  0
  4  5  2  0
  5  6  1  0
  2  7  1  0
  6  7  2  0
  7  8  1  0
  8  9  1  0
  9 10  2  0
  9 11  1  0
 11 12  1  0
 12 13  1  0
 13 14  1  0
 14 15  2  0
 15 16  1  0
 16 17  2  0
 17 18  1  0
 18 19  1  0
 19 20  1  0
 19 21  2  0
 19 22  2  0
 14 23  1  0
 18 23  2  0
 12 24  1  0
 24 25  1  0
 12 26  1  0
 25 26  1  0
M  END
