CHR-SOS-7098f804-18
     RDKit          3D

 23 25  0  0  0  0  0  0  0  0999 V2000
    9.2520    1.2860   21.3910 O   0  0  0  0  0  0  0  0  0  0  0  0
    8.4670    0.4810   21.8600 C   0  0  0  0  0  0  0  0  0  0  0  0
    7.0230    0.5050   21.8040 N   0  0  0  0  0  0  0  0  0  0  0  0
    6.4820    0.6380   20.4470 C   0  0  0  0  0  0  0  0  0  0  0  0
    5.4300    1.4430   20.3850 C   0  0  0  0  0  0  0  0  0  0  0  0
    4.7380    1.7160   19.1030 C   0  0  0  0  0  0  0  0  0  0  0  0
    5.3550    0.9950   17.9270 C   0  0  0  0  0  0  0  0  0  0  0  0
    6.4270    0.1820   18.0380 N   0  0  0  0  0  0  0  0  0  0  0  0
    6.9650    0.0150   19.2840 C   0  0  0  0  0  0  0  0  0  0  0  0
    8.8760   -0.7380   22.5630 C   0  0  0  0  0  0  0  0  0  0  0  0
    9.7340   -1.5120   23.3160 C   0  0  0  0  0  0  0  0  0  0  0  0
    9.5750   -2.7360   23.7280 C   0  0  0  0  0  0  0  0  0  0  0  0
    8.2820   -3.8590   23.5350 Cl  0  0  0  0  0  0  0  0  0  0  0  0
   10.8680   -2.6870   24.3450 C   0  0  0  0  0  0  0  0  0  0  0  0
   11.2300   -1.2540   23.9850 C   0  0  0  0  0  0  0  0  0  0  0  0
   12.2830   -0.9470   24.3780 O   0  0  0  0  0  0  0  0  0  0  0  0
   12.7450   -0.9710   23.1910 C   0  0  0  0  0  0  0  0  0  0  0  0
   12.6450   -2.1760   22.5050 C   0  0  0  0  0  0  0  0  0  0  0  0
   13.0900   -2.2590   21.2180 C   0  0  0  0  0  0  0  0  0  0  0  0
   13.6160   -1.1510   20.6730 C   0  0  0  0  0  0  0  0  0  0  0  0
   13.7150    0.0070   21.3110 C   0  0  0  0  0  0  0  0  0  0  0  0
   13.2490    0.1260   22.6820 C   0  0  0  0  0  0  0  0  0  0  0  0
   10.3450   -0.3040   23.1600 C   0  0  0  0  0  0  0  0  0  0  0  0
  1  2  2  0
  2  3  1  0
  3  4  1  0
  4  5  2  0
  5  6  1  0
  6  7  2  0
  7  8  1  0
  4  9  1  0
  8  9  2  0
  2 10  1  0
 10 11  2  0
 11 12  1  0
 12 13  1  0
 12 14  2  0
 14 15  1  0
 15 16  1  0
 16 17  1  0
 17 18  2  0
 18 19  1  0
 19 20  2  0
 20 21  1  0
 17 22  1  0
 21 22  2  0
 10 23  1  0
 15 23  2  0
M  END
