CHR-SOS-7098f804-4
     RDKit          3D

 18 19  0  0  0  0  0  0  0  0999 V2000
    8.9390    1.6560   21.3050 O   0  0  0  0  0  0  0  0  0  0  0  0
    9.0650    0.4950   21.7070 C   0  0  0  0  0  0  0  0  0  0  0  0
    8.0840   -0.4920   21.4340 N   0  0  0  0  0  0  0  0  0  0  0  0
    6.9760    0.0220   20.5570 C   0  0  0  0  0  0  0  0  0  0  0  0
    7.0450   -0.2560   19.1770 C   0  0  0  0  0  0  0  0  0  0  0  0
    6.0450    0.1990   18.2910 C   0  0  0  0  0  0  0  0  0  0  0  0
    4.9450    0.9390   18.6820 C   0  0  0  0  0  0  0  0  0  0  0  0
    4.7710    1.2850   20.1110 C   0  0  0  0  0  0  0  0  0  0  0  0
    5.8840    0.7600   21.0350 C   0  0  0  0  0  0  0  0  0  0  0  0
    5.7140    1.1310   22.7070 Cl  0  0  0  0  0  0  0  0  0  0  0  0
   10.3900    0.2000   22.4390 C   0  0  0  0  0  0  0  0  0  0  0  0
   10.8650   -1.0390   23.0640 C   0  0  0  0  0  0  0  0  0  0  0  0
   11.8680   -1.5500   23.6910 C   0  0  0  0  0  0  0  0  0  0  0  0
   12.0000   -3.1060   24.3090 Cl  0  0  0  0  0  0  0  0  0  0  0  0
   12.8510   -0.5970   23.7940 C   0  0  0  0  0  0  0  0  0  0  0  0
   12.7150    0.7260   23.3100 C   0  0  0  0  0  0  0  0  0  0  0  0
   11.5530    1.2030   22.6680 C   0  0  0  0  0  0  0  0  0  0  0  0
   11.5220    2.5090   22.2760 O   0  0  0  0  0  0  0  0  0  0  0  0
  1  2  2  0
  2  3  1  0
  3  4  1  0
  4  5  2  0
  5  6  1  0
  6  7  2  0
  7  8  1  0
  4  9  1  0
  8  9  2  0
  9 10  1  0
  2 11  1  0
 11 12  2  0
 12 13  1  0
 13 14  1  0
 13 15  2  0
 15 16  1  0
 11 17  1  0
 16 17  2  0
 17 18  1  0
M  END
