CHR-SOS-1f323c23-5
     RDKit          3D

 27 29  0  0  0  0  0  0  0  0999 V2000
   12.6920   -2.1620   21.0330 C   0  0  0  0  0  0  0  0  0  0  0  0
   11.5690   -1.9420   22.0080 C   0  0  0  0  0  0  0  0  0  0  0  0
   10.3910   -2.5110   21.8360 C   0  0  0  0  0  0  0  0  0  0  0  0
    9.2180   -2.4290   22.7360 C   0  0  0  0  0  0  0  0  0  0  0  0
    9.2670   -1.7370   23.8510 N   0  0  0  0  0  0  0  0  0  0  0  0
   10.4990   -1.0970   24.0510 C   0  0  0  0  0  0  0  0  0  0  0  0
   11.6930   -1.1550   23.1310 C   0  0  0  0  0  0  0  0  0  0  0  0
   12.8990   -0.4460   23.3690 N   0  0  0  0  0  0  0  0  0  0  0  0
   13.5590    0.2970   22.3620 C   0  0  0  0  0  0  0  0  0  0  0  0
   13.7310   -0.1750   21.2760 O   0  0  0  0  0  0  0  0  0  0  0  0
   14.0800    1.6730   22.7410 N   0  0  0  0  0  0  0  0  0  0  0  0
   14.0170    2.9620   22.1760 C   0  0  0  0  0  0  0  0  0  0  0  0
   13.0900    2.4720   21.6850 O   0  0  0  0  0  0  0  0  0  0  0  0
   11.8610    2.4830   22.4600 C   0  0  0  0  0  0  0  0  0  0  0  0
   11.0320    1.1830   22.6540 C   0  0  0  0  0  0  0  0  0  0  0  0
    9.8530    1.3650   23.3100 C   0  0  0  0  0  0  0  0  0  0  0  0
    9.5020    2.7590   23.7850 C   0  0  0  0  0  0  0  0  0  0  0  0
   10.2890    3.8760   23.6130 C   0  0  0  0  0  0  0  0  0  0  0  0
    9.8380    5.4150   24.1670 S   0  0  0  0  0  0  0  0  0  0  0  0
   11.0880    6.4060   23.5880 N   0  0  0  0  0  0  0  0  0  0  0  0
    9.8680    5.4340   25.6110 O   0  0  0  0  0  0  0  0  0  0  0  0
    8.6380    5.7850   23.4560 O   0  0  0  0  0  0  0  0  0  0  0  0
   11.4650    3.7110   22.9480 C   0  0  0  0  0  0  0  0  0  0  0  0
   15.2960    3.4720   21.4540 C   0  0  0  0  0  0  0  0  0  0  0  0
   16.0900    4.0280   22.3390 C   0  0  0  0  0  0  0  0  0  0  0  0
   15.1890    4.7920   23.0340 C   0  0  0  0  0  0  0  0  0  0  0  0
   13.8510    4.3250   22.9150 C   0  0  0  0  0  0  0  0  0  0  0  0
  1  2  1  0
  2  3  2  0
  3  4  1  0
  4  5  2  0
  5  6  1  0
  2  7  1  0
  6  7  2  0
  7  8  1  0
  8  9  1  0
  9 10  2  0
  9 11  1  0
 11 12  1  0
 12 13  1  0
 13 14  1  0
 14 15  2  0
 15 16  1  0
 16 17  2  0
 17 18  1  0
 18 19  1  0
 19 20  1  0
 19 21  2  0
 19 22  2  0
 14 23  1  0
 18 23  2  0
 12 24  1  0
 24 25  1  0
 25 26  1  0
 12 27  1  0
 26 27  1  0
M  END
