CHR-SOS-6c45c019-14
     RDKit          3D

 24 26  0  0  0  0  0  0  0  0999 V2000
    5.6070    0.9290   22.1330 C   0  0  0  0  0  0  0  0  0  0  0  0
    5.9430    0.6380   20.8120 C   0  0  0  0  0  0  0  0  0  0  0  0
    5.1460    1.1950   19.7870 C   0  0  0  0  0  0  0  0  0  0  0  0
    5.3960    0.9610   18.4330 C   0  0  0  0  0  0  0  0  0  0  0  0
    6.3900    0.1980   17.9760 N   0  0  0  0  0  0  0  0  0  0  0  0
    7.2720   -0.4290   18.9740 C   0  0  0  0  0  0  0  0  0  0  0  0
    7.0360   -0.1860   20.4750 C   0  0  0  0  0  0  0  0  0  0  0  0
    8.0210   -0.8840   21.4020 N   0  0  0  0  0  0  0  0  0  0  0  0
    9.1210   -0.1420   21.9480 C   0  0  0  0  0  0  0  0  0  0  0  0
    9.4540    0.9590   21.5370 O   0  0  0  0  0  0  0  0  0  0  0  0
    9.8390   -0.7680   23.1240 N   0  0  0  0  0  0  0  0  0  0  0  0
   11.2810   -1.1530   23.0170 C   0  0  0  0  0  0  0  0  0  0  0  0
   12.1400   -0.2320   22.4380 C   0  0  0  0  0  0  0  0  0  0  0  0
   12.7700    0.7760   23.1000 C   0  0  0  0  0  0  0  0  0  0  0  0
   11.9160    1.8090   23.3680 C   0  0  0  0  0  0  0  0  0  0  0  0
   12.2560    3.1320   23.0290 C   0  0  0  0  0  0  0  0  0  0  0  0
   11.0630    3.6060   23.5380 N   0  0  0  0  0  0  0  0  0  0  0  0
   10.6370    4.9920   23.5670 C   0  0  0  0  0  0  0  0  0  0  0  0
   10.2340    2.6610   24.0520 C   0  0  0  0  0  0  0  0  0  0  0  0
   10.7450    1.5180   23.9590 N   0  0  0  0  0  0  0  0  0  0  0  0
   11.9480   -1.5990   24.3590 C   0  0  0  0  0  0  0  0  0  0  0  0
   13.1550   -2.2990   23.7820 C   0  0  0  0  0  0  0  0  0  0  0  0
   12.9510   -2.4590   22.4180 C   0  0  0  0  0  0  0  0  0  0  0  0
   11.5760   -2.3540   22.1330 C   0  0  0  0  0  0  0  0  0  0  0  0
  1  2  1  0
  2  3  2  0
  3  4  1  0
  4  5  2  0
  5  6  1  0
  2  7  1  0
  6  7  2  0
  7  8  1  0
  8  9  1  0
  9 10  2  0
  9 11  1  0
 11 12  1  0
 12 13  1  0
 13 14  3  0
 14 15  1  0
 15 16  2  0
 16 17  1  0
 17 18  1  0
 17 19  1  0
 15 20  1  0
 19 20  2  0
 12 21  1  0
 21 22  1  0
 22 23  1  0
 12 24  1  0
 23 24  1  0
M  END
