CHR-SOS-7098f804-6
     RDKit          3D

 18 19  0  0  0  0  0  0  0  0999 V2000
    9.1690    1.4550   21.3280 O   0  0  0  0  0  0  0  0  0  0  0  0
    8.9020    0.2750   21.5690 C   0  0  0  0  0  0  0  0  0  0  0  0
    7.7960   -0.4380   21.1030 N   0  0  0  0  0  0  0  0  0  0  0  0
    6.7980    0.0840   20.2100 C   0  0  0  0  0  0  0  0  0  0  0  0
    6.9590    0.1510   18.8220 C   0  0  0  0  0  0  0  0  0  0  0  0
    5.8880    0.7190   17.9190 C   0  0  0  0  0  0  0  0  0  0  0  0
    4.8830    1.0800   18.6850 C   0  0  0  0  0  0  0  0  0  0  0  0
    5.6740    0.6240   19.6430 N   0  0  0  0  0  0  0  0  0  0  0  0
    6.0010    1.5030   20.4680 O   0  0  0  0  0  0  0  0  0  0  0  0
    5.4180   -0.5530   19.9810 O   0  0  0  0  0  0  0  0  0  0  0  0
    4.3730    1.1590   20.0500 C   0  0  0  0  0  0  0  0  0  0  0  0
    5.5660    0.5530   20.8670 C   0  0  0  0  0  0  0  0  0  0  0  0
    9.8760   -0.5120   22.4100 C   0  0  0  0  0  0  0  0  0  0  0  0
    9.5830   -1.8950   22.9060 C   0  0  0  0  0  0  0  0  0  0  0  0
   10.5490   -2.5500   23.6760 C   0  0  0  0  0  0  0  0  0  0  0  0
   11.7670   -1.9240   23.9750 C   0  0  0  0  0  0  0  0  0  0  0  0
   12.0480   -0.6370   23.5150 C   0  0  0  0  0  0  0  0  0  0  0  0
   11.1140    0.0670   22.7430 C   0  0  0  0  0  0  0  0  0  0  0  0
  1  2  2  0
  2  3  1  0
  3  4  1  0
  4  5  2  0
  5  6  1  0
  6  7  2  0
  7  8  1  0
  8  9  2  0
  8 10  1  0
  7 11  1  0
  4 12  1  0
 11 12  2  0
  2 13  1  0
 13 14  2  0
 14 15  1  0
 15 16  2  0
 16 17  1  0
 13 18  1  0
 17 18  2  0
M  CHG  2   8   1  10  -1
M  END
