CHR-SOS-6c45c019-16
     RDKit          3D

 22 24  0  0  0  0  0  0  0  0999 V2000
    5.6430    0.8860   22.2700 C   0  0  0  0  0  0  0  0  0  0  0  0
    6.0250    0.5660   20.8520 C   0  0  0  0  0  0  0  0  0  0  0  0
    5.1240    1.1720   19.7850 C   0  0  0  0  0  0  0  0  0  0  0  0
    5.3900    0.9320   18.3100 C   0  0  0  0  0  0  0  0  0  0  0  0
    6.4540    0.1530   18.0120 N   0  0  0  0  0  0  0  0  0  0  0  0
    7.2740   -0.4060   18.9390 C   0  0  0  0  0  0  0  0  0  0  0  0
    7.1220   -0.2310   20.4510 C   0  0  0  0  0  0  0  0  0  0  0  0
    8.0180   -0.8300   21.4300 N   0  0  0  0  0  0  0  0  0  0  0  0
    9.2360   -0.3280   21.9680 C   0  0  0  0  0  0  0  0  0  0  0  0
    9.6640    0.7870   21.7210 O   0  0  0  0  0  0  0  0  0  0  0  0
    9.8920   -1.2430   22.8680 N   0  0  0  0  0  0  0  0  0  0  0  0
   11.3260   -1.2460   23.2940 C   0  0  0  0  0  0  0  0  0  0  0  0
   12.2440   -0.6670   22.4110 C   0  0  0  0  0  0  0  0  0  0  0  0
   12.8550    0.5970   22.8400 C   0  0  0  0  0  0  0  0  0  0  0  0
   12.0230    1.6410   23.2050 C   0  0  0  0  0  0  0  0  0  0  0  0
   12.4110    2.9740   22.8540 C   0  0  0  0  0  0  0  0  0  0  0  0
   11.1930    3.4100   23.4840 N   0  0  0  0  0  0  0  0  0  0  0  0
   10.7600    4.8060   23.5760 C   0  0  0  0  0  0  0  0  0  0  0  0
   10.3960    2.4670   24.0240 C   0  0  0  0  0  0  0  0  0  0  0  0
   10.8940    1.3370   23.8660 N   0  0  0  0  0  0  0  0  0  0  0  0
   11.8560   -2.3700   24.0090 C   0  0  0  0  0  0  0  0  0  0  0  0
   11.6160   -1.1610   24.6670 C   0  0  0  0  0  0  0  0  0  0  0  0
  1  2  1  0
  2  3  2  0
  3  4  1  0
  4  5  2  0
  5  6  1  0
  2  7  1  0
  6  7  2  0
  7  8  1  0
  8  9  1  0
  9 10  2  0
  9 11  1  0
 11 12  1  0
 12 13  1  0
 13 14  3  0
 14 15  1  0
 15 16  2  0
 16 17  1  0
 17 18  1  0
 17 19  1  0
 15 20  1  0
 19 20  2  0
 12 21  1  0
 12 22  1  0
 21 22  1  0
M  END
