CHR-SOS-7098f804-2
     RDKit          3D

 20 21  0  0  0  0  0  0  0  0999 V2000
    9.0480    1.3750   21.2540 O   0  0  0  0  0  0  0  0  0  0  0  0
    8.7230    0.1820   21.3730 C   0  0  0  0  0  0  0  0  0  0  0  0
    7.7210   -0.5320   20.7370 N   0  0  0  0  0  0  0  0  0  0  0  0
    6.7530    0.3250   20.1330 C   0  0  0  0  0  0  0  0  0  0  0  0
    6.8530    0.2820   18.7520 C   0  0  0  0  0  0  0  0  0  0  0  0
    5.9050    1.1480   17.9680 C   0  0  0  0  0  0  0  0  0  0  0  0
    5.0030    1.9260   18.6770 C   0  0  0  0  0  0  0  0  0  0  0  0
    4.0560    2.8160   18.1810 N   0  0  0  0  0  0  0  0  0  0  0  0
    3.0490    3.0350   18.8800 O   0  0  0  0  0  0  0  0  0  0  0  0
    4.3090    3.3700   17.0980 O   0  0  0  0  0  0  0  0  0  0  0  0
    4.9790    1.8770   20.1660 C   0  0  0  0  0  0  0  0  0  0  0  0
    5.8270    1.1020   20.8350 C   0  0  0  0  0  0  0  0  0  0  0  0
    5.7450    1.1000   22.5660 Cl  0  0  0  0  0  0  0  0  0  0  0  0
    9.4390   -0.7490   22.2550 C   0  0  0  0  0  0  0  0  0  0  0  0
   10.8600   -0.5140   22.7670 C   0  0  0  0  0  0  0  0  0  0  0  0
   11.4210   -1.6300   23.6610 C   0  0  0  0  0  0  0  0  0  0  0  0
   10.4930   -2.7990   23.9110 C   0  0  0  0  0  0  0  0  0  0  0  0
    9.2020   -2.8460   23.3590 C   0  0  0  0  0  0  0  0  0  0  0  0
    8.0950   -4.1400   23.6070 Cl  0  0  0  0  0  0  0  0  0  0  0  0
    8.7380   -1.8450   22.5720 C   0  0  0  0  0  0  0  0  0  0  0  0
  1  2  2  0
  2  3  1  0
  3  4  1  0
  4  5  2  0
  5  6  1  0
  6  7  2  0
  7  8  1  0
  8  9  2  0
  8 10  1  0
  7 11  1  0
  4 12  1  0
 11 12  2  0
 12 13  1  0
  2 14  1  0
 14 15  2  0
 15 16  1  0
 16 17  2  0
 17 18  1  0
 18 19  1  0
 14 20  1  0
 18 20  2  0
M  CHG  2   8   1  10  -1
M  END
