CHR-SOS-6c45c019-7
     RDKit          3D

 23 25  0  0  0  0  0  0  0  0999 V2000
    5.3110    0.9220   22.1830 C   0  0  0  0  0  0  0  0  0  0  0  0
    5.5760    0.7440   20.7410 C   0  0  0  0  0  0  0  0  0  0  0  0
    4.6250    0.5320   19.8230 C   0  0  0  0  0  0  0  0  0  0  0  0
    4.8160    0.3420   18.3450 C   0  0  0  0  0  0  0  0  0  0  0  0
    6.0350    0.3660   17.7920 N   0  0  0  0  0  0  0  0  0  0  0  0
    6.9960    0.5840   18.7160 C   0  0  0  0  0  0  0  0  0  0  0  0
    6.8650    0.7940   20.2370 C   0  0  0  0  0  0  0  0  0  0  0  0
    8.1080    1.0440   20.9890 N   0  0  0  0  0  0  0  0  0  0  0  0
    8.7370    0.1320   21.9330 C   0  0  0  0  0  0  0  0  0  0  0  0
    8.2110   -0.3770   22.8710 O   0  0  0  0  0  0  0  0  0  0  0  0
   10.0550   -0.0540   21.6180 N   0  0  0  0  0  0  0  0  0  0  0  0
   11.0950   -0.7900   22.2200 C   0  0  0  0  0  0  0  0  0  0  0  0
   11.3240   -1.9810   21.5530 C   0  0  0  0  0  0  0  0  0  0  0  0
   12.7120   -2.4320   21.2350 C   0  0  0  0  0  0  0  0  0  0  0  0
   12.7840   -2.5850   22.6470 C   0  0  0  0  0  0  0  0  0  0  0  0
   11.6370   -2.8370   23.3190 C   0  0  0  0  0  0  0  0  0  0  0  0
   11.6690   -2.9460   24.6370 C   0  0  0  0  0  0  0  0  0  0  0  0
   12.8730   -2.7890   25.2820 C   0  0  0  0  0  0  0  0  0  0  0  0
   13.9510   -2.5600   24.6130 C   0  0  0  0  0  0  0  0  0  0  0  0
   14.0230   -2.4450   23.3050 N   0  0  0  0  0  0  0  0  0  0  0  0
   12.5100   -0.1040   22.3190 C   0  0  0  0  0  0  0  0  0  0  0  0
   12.5570   -0.2320   23.7410 C   0  0  0  0  0  0  0  0  0  0  0  0
   11.1230   -0.7700   23.7960 C   0  0  0  0  0  0  0  0  0  0  0  0
  1  2  1  0
  2  3  2  0
  3  4  1  0
  4  5  2  0
  5  6  1  0
  2  7  1  0
  6  7  2  0
  7  8  1  0
  8  9  1  0
  9 10  2  0
  9 11  1  0
 11 12  1  0
 12 13  1  0
 13 14  3  0
 14 15  1  0
 15 16  2  0
 16 17  1  0
 17 18  2  0
 18 19  1  0
 15 20  1  0
 19 20  2  0
 12 21  1  0
 21 22  1  0
 12 23  1  0
 22 23  1  0
M  END
