CHR-SOS-7098f804-10
     RDKit          3D

 18 19  0  0  0  0  0  0  0  0999 V2000
    8.8340    1.4650   21.4080 O   0  0  0  0  0  0  0  0  0  0  0  0
    8.7370    0.2600   21.6840 C   0  0  0  0  0  0  0  0  0  0  0  0
    7.6360   -0.4880   21.3010 N   0  0  0  0  0  0  0  0  0  0  0  0
    6.8220   -0.0500   20.2310 C   0  0  0  0  0  0  0  0  0  0  0  0
    7.1310   -0.3520   18.9060 C   0  0  0  0  0  0  0  0  0  0  0  0
    6.2940    0.1440   17.9450 N   0  0  0  0  0  0  0  0  0  0  0  0
    5.2090    0.8820   18.1890 C   0  0  0  0  0  0  0  0  0  0  0  0
    4.8960    1.1730   19.5010 C   0  0  0  0  0  0  0  0  0  0  0  0
    5.6840    0.7240   20.5630 C   0  0  0  0  0  0  0  0  0  0  0  0
    5.4620    0.9850   22.2260 Cl  0  0  0  0  0  0  0  0  0  0  0  0
    9.9510   -0.3340   22.3580 C   0  0  0  0  0  0  0  0  0  0  0  0
   11.0520    0.1730   22.5010 C   0  0  0  0  0  0  0  0  0  0  0  0
   12.1290   -0.3700   23.0640 C   0  0  0  0  0  0  0  0  0  0  0  0
   13.4550    0.6180   23.0120 Cl  0  0  0  0  0  0  0  0  0  0  0  0
   11.9980   -1.7730   23.6350 C   0  0  0  0  0  0  0  0  0  0  0  0
   10.7150   -2.5840   23.5910 C   0  0  0  0  0  0  0  0  0  0  0  0
   10.6700   -1.3080   23.0220 C   0  0  0  0  0  0  0  0  0  0  0  0
   12.0300   -1.0070   23.3500 O   0  0  0  0  0  0  0  0  0  0  0  0
  1  2  2  0
  2  3  1  0
  3  4  1  0
  4  5  2  0
  5  6  1  0
  6  7  2  0
  7  8  1  0
  4  9  1  0
  8  9  2  0
  9 10  1  0
  2 11  1  0
 11 12  2  0
 12 13  1  0
 13 14  1  0
 13 15  2  0
 15 16  1  0
 11 17  1  0
 16 17  2  0
 17 18  1  0
M  END
