CHR-SOS-6c45c019-1
     RDKit          3D

 25 27  0  0  0  0  0  0  0  0999 V2000
    4.2660    1.6760   21.1400 C   0  0  0  0  0  0  0  0  0  0  0  0
    5.4570    0.8410   20.9280 C   0  0  0  0  0  0  0  0  0  0  0  0
    4.9270    1.2740   19.6370 C   0  0  0  0  0  0  0  0  0  0  0  0
    5.3230    1.0560   18.2070 C   0  0  0  0  0  0  0  0  0  0  0  0
    6.3730    0.3180   17.8790 N   0  0  0  0  0  0  0  0  0  0  0  0
    7.0260   -0.1920   18.8980 C   0  0  0  0  0  0  0  0  0  0  0  0
    6.6730    0.0030   20.3390 C   0  0  0  0  0  0  0  0  0  0  0  0
    7.4870   -0.6070   21.2360 N   0  0  0  0  0  0  0  0  0  0  0  0
    8.5710    0.1270   21.2840 C   0  0  0  0  0  0  0  0  0  0  0  0
    8.5790    1.3540   21.1020 O   0  0  0  0  0  0  0  0  0  0  0  0
    9.6700   -0.6350   21.5170 N   0  0  0  0  0  0  0  0  0  0  0  0
   10.4120   -0.2310   22.5710 C   0  0  0  0  0  0  0  0  0  0  0  0
    9.8920   -0.7940   23.8420 C   0  0  0  0  0  0  0  0  0  0  0  0
    9.7810   -2.2650   23.7640 C   0  0  0  0  0  0  0  0  0  0  0  0
   11.2130   -2.4770   23.6920 C   0  0  0  0  0  0  0  0  0  0  0  0
   12.0650   -2.4780   24.7760 C   0  0  0  0  0  0  0  0  0  0  0  0
   13.3760   -2.6950   24.6610 C   0  0  0  0  0  0  0  0  0  0  0  0
   13.8580   -2.8990   23.4210 C   0  0  0  0  0  0  0  0  0  0  0  0
   13.0810   -2.8680   22.2960 C   0  0  0  0  0  0  0  0  0  0  0  0
   11.6580   -2.6510   22.4320 N   0  0  0  0  0  0  0  0  0  0  0  0
   11.7480   -0.9850   22.3780 C   0  0  0  0  0  0  0  0  0  0  0  0
   13.0580   -0.2600   22.5780 C   0  0  0  0  0  0  0  0  0  0  0  0
   12.9310    1.1380   23.1660 C   0  0  0  0  0  0  0  0  0  0  0  0
   11.7500    1.9960   22.7990 C   0  0  0  0  0  0  0  0  0  0  0  0
   10.4190    1.3220   22.7170 C   0  0  0  0  0  0  0  0  0  0  0  0
  1  2  1  0
  2  3  2  0
  3  4  1  0
  4  5  2  0
  5  6  1  0
  2  7  1  0
  6  7  2  0
  7  8  1  0
  8  9  1  0
  9 10  2  0
  9 11  1  0
 11 12  1  0
 12 13  1  0
 13 14  3  0
 14 15  1  0
 15 16  2  0
 16 17  1  0
 17 18  2  0
 18 19  1  0
 15 20  1  0
 19 20  2  0
 12 21  1  0
 21 22  1  0
 22 23  1  0
 23 24  1  0
 12 25  1  0
 24 25  1  0
M  END
