CHR-SOS-70e4c98a-1
     RDKit          3D

 23 25  0  0  0  0  0  0  0  0999 V2000
    9.3670    1.5440   21.4140 O   0  0  0  0  0  0  0  0  0  0  0  0
    9.1100    0.4240   21.8730 C   0  0  0  0  0  0  0  0  0  0  0  0
    9.9030   -0.1510   23.0890 C   0  0  0  0  0  0  0  0  0  0  0  0
   11.3480   -0.2270   23.2130 C   0  0  0  0  0  0  0  0  0  0  0  0
   12.1030    0.8020   23.1330 O   0  0  0  0  0  0  0  0  0  0  0  0
   11.6660    2.1260   23.2570 C   0  0  0  0  0  0  0  0  0  0  0  0
   10.7710    1.2930   23.5810 C   0  0  0  0  0  0  0  0  0  0  0  0
   12.0430    1.1270   23.1640 C   0  0  0  0  0  0  0  0  0  0  0  0
   12.7770    2.3330   22.8960 C   0  0  0  0  0  0  0  0  0  0  0  0
   12.1550    3.7940   23.0670 C   0  0  0  0  0  0  0  0  0  0  0  0
   10.8500    3.1690   23.5110 C   0  0  0  0  0  0  0  0  0  0  0  0
   11.6190   -0.9670   24.5510 C   0  0  0  0  0  0  0  0  0  0  0  0
   13.0400   -1.3990   24.7000 C   0  0  0  0  0  0  0  0  0  0  0  0
   13.0330   -2.6380   23.8670 C   0  0  0  0  0  0  0  0  0  0  0  0
   12.3080   -2.4730   22.6770 C   0  0  0  0  0  0  0  0  0  0  0  0
   11.9420   -1.2300   22.1720 C   0  0  0  0  0  0  0  0  0  0  0  0
    8.0620   -0.3730   21.3640 N   0  0  0  0  0  0  0  0  0  0  0  0
    7.1070    0.0160   20.3620 C   0  0  0  0  0  0  0  0  0  0  0  0
    5.9760    0.7470   20.7460 C   0  0  0  0  0  0  0  0  0  0  0  0
    5.0960    1.1100   19.7380 C   0  0  0  0  0  0  0  0  0  0  0  0
    5.2380    0.8120   18.4080 C   0  0  0  0  0  0  0  0  0  0  0  0
    6.3020    0.1080   18.0100 N   0  0  0  0  0  0  0  0  0  0  0  0
    7.1970   -0.2710   18.9820 C   0  0  0  0  0  0  0  0  0  0  0  0
  1  2  2  0
  2  3  1  0
  3  4  1  0
  4  5  1  0
  5  6  1  0
  6  7  2  0
  7  8  1  0
  8  9  2  0
  9 10  1  0
  6 11  1  0
 10 11  2  0
  4 12  1  0
 12 13  1  0
 13 14  1  0
 14 15  1  0
  4 16  1  0
 15 16  1  0
  2 17  1  0
 17 18  1  0
 18 19  2  0
 19 20  1  0
 20 21  2  0
 21 22  1  0
 18 23  1  0
 22 23  2  0
M  END
