CHR-SOS-6c45c019-8
     RDKit          3D

 23 25  0  0  0  0  0  0  0  0999 V2000
    5.2410    1.1560   21.9070 C   0  0  0  0  0  0  0  0  0  0  0  0
    5.6540    0.8260   20.4970 C   0  0  0  0  0  0  0  0  0  0  0  0
    4.7940    1.2940   19.3970 C   0  0  0  0  0  0  0  0  0  0  0  0
    5.1570    0.9990   18.0780 C   0  0  0  0  0  0  0  0  0  0  0  0
    6.3140    0.2640   17.8930 N   0  0  0  0  0  0  0  0  0  0  0  0
    7.1250   -0.1830   18.8960 C   0  0  0  0  0  0  0  0  0  0  0  0
    6.8170    0.0970   20.1960 C   0  0  0  0  0  0  0  0  0  0  0  0
    7.7060   -0.3730   21.1110 N   0  0  0  0  0  0  0  0  0  0  0  0
    8.5380    0.6650   21.5210 C   0  0  0  0  0  0  0  0  0  0  0  0
    8.7870    1.7130   20.9460 O   0  0  0  0  0  0  0  0  0  0  0  0
    9.1020    0.4140   22.7280 N   0  0  0  0  0  0  0  0  0  0  0  0
   10.0330   -0.6880   22.9230 C   0  0  0  0  0  0  0  0  0  0  0  0
    9.2860   -1.8360   23.5260 C   0  0  0  0  0  0  0  0  0  0  0  0
   10.4360   -2.3700   24.0290 C   0  0  0  0  0  0  0  0  0  0  0  0
   11.6680   -2.4370   24.5260 C   0  0  0  0  0  0  0  0  0  0  0  0
   12.1240   -3.5430   24.9690 C   0  0  0  0  0  0  0  0  0  0  0  0
   13.5010   -3.6440   25.5710 C   0  0  0  0  0  0  0  0  0  0  0  0
   14.1400   -2.3850   25.5560 C   0  0  0  0  0  0  0  0  0  0  0  0
   13.5430   -1.3090   25.0470 N   0  0  0  0  0  0  0  0  0  0  0  0
   12.3750   -1.3480   24.5590 C   0  0  0  0  0  0  0  0  0  0  0  0
   10.7440   -1.2920   21.6980 C   0  0  0  0  0  0  0  0  0  0  0  0
   12.0280   -0.9480   22.4060 C   0  0  0  0  0  0  0  0  0  0  0  0
   11.4600   -0.2280   23.4540 C   0  0  0  0  0  0  0  0  0  0  0  0
  1  2  1  0
  2  3  2  0
  3  4  1  0
  4  5  2  0
  5  6  1  0
  2  7  1  0
  6  7  2  0
  7  8  1  0
  8  9  1  0
  9 10  2  0
  9 11  1  0
 11 12  1  0
 12 13  1  0
 13 14  3  0
 14 15  1  0
 15 16  2  0
 16 17  1  0
 17 18  2  0
 18 19  1  0
 15 20  1  0
 19 20  2  0
 12 21  1  0
 21 22  1  0
 12 23  1  0
 22 23  1  0
M  END
