CHR-SOS-70e4c98a-11
     RDKit          3D

 24 26  0  0  0  0  0  0  0  0999 V2000
   12.2440    6.7860   24.1190 N   0  0  0  0  0  0  0  0  0  0  0  0
   11.9190    6.1360   22.5970 S   0  0  0  0  0  0  0  0  0  0  0  0
   10.6430    6.7140   22.2630 O   0  0  0  0  0  0  0  0  0  0  0  0
   13.1210    6.3740   21.8290 O   0  0  0  0  0  0  0  0  0  0  0  0
   11.7640    4.3940   22.9570 C   0  0  0  0  0  0  0  0  0  0  0  0
   10.4310    3.9870   23.5170 C   0  0  0  0  0  0  0  0  0  0  0  0
   10.2480    2.5770   23.8650 C   0  0  0  0  0  0  0  0  0  0  0  0
   11.2910    1.6650   23.6730 C   0  0  0  0  0  0  0  0  0  0  0  0
   11.1660    0.4890   23.9910 O   0  0  0  0  0  0  0  0  0  0  0  0
   10.4620   -0.4330   23.1710 C   0  0  0  0  0  0  0  0  0  0  0  0
    9.0960   -0.2260   23.0550 C   0  0  0  0  0  0  0  0  0  0  0  0
    8.6730    0.2140   21.7680 C   0  0  0  0  0  0  0  0  0  0  0  0
    9.1260    1.2780   21.3210 O   0  0  0  0  0  0  0  0  0  0  0  0
    7.7710   -0.5550   21.1140 N   0  0  0  0  0  0  0  0  0  0  0  0
    6.9600    0.0260   20.2290 C   0  0  0  0  0  0  0  0  0  0  0  0
    5.8730    0.9730   20.7810 C   0  0  0  0  0  0  0  0  0  0  0  0
    5.2460    1.3690   19.5460 C   0  0  0  0  0  0  0  0  0  0  0  0
    5.2530    1.2300   18.1580 C   0  0  0  0  0  0  0  0  0  0  0  0
    6.2470    0.3740   17.7970 N   0  0  0  0  0  0  0  0  0  0  0  0
    7.0720   -0.2080   18.8040 C   0  0  0  0  0  0  0  0  0  0  0  0
   10.8990   -1.6550   23.4190 C   0  0  0  0  0  0  0  0  0  0  0  0
   11.4050   -1.4030   22.1420 C   0  0  0  0  0  0  0  0  0  0  0  0
   12.5240    2.0350   23.1310 C   0  0  0  0  0  0  0  0  0  0  0  0
   12.7730    3.4810   22.7530 C   0  0  0  0  0  0  0  0  0  0  0  0
  2  1  1  0
  2  3  2  0
  2  4  2  0
  2  5  1  0
  5  6  2  0
  6  7  1  0
  7  8  2  0
  8  9  1  0
 10  9  1  0
 10 11  1  0
 11 12  1  0
 12 13  2  0
 12 14  1  0
 14 15  1  0
 15 16  2  0
 16 17  1  0
 17 18  2  0
 18 19  1  0
 15 20  1  0
 19 20  2  0
 10 21  1  0
 10 22  1  0
 21 22  1  0
  8 23  1  0
  5 24  1  0
 23 24  2  0
M  END
