CHR-SOS-e960e883-3
     RDKit          3D

 24 26  0  0  0  0  0  0  0  0999 V2000
   13.5150   -2.4550   25.1620 N   0  0  0  0  0  0  0  0  0  0  0  0
   12.4020   -2.3670   23.9100 S   0  0  0  0  0  0  0  0  0  0  0  0
   13.0360   -2.9850   22.7800 O   0  0  0  0  0  0  0  0  0  0  0  0
   11.1490   -2.8540   24.4380 O   0  0  0  0  0  0  0  0  0  0  0  0
   12.3240   -0.6730   23.4900 C   0  0  0  0  0  0  0  0  0  0  0  0
   11.0120    0.3120   23.3870 C   0  0  0  0  0  0  0  0  0  0  0  0
   10.8720    1.7850   23.0300 C   0  0  0  0  0  0  0  0  0  0  0  0
   12.2790    1.6380   22.9100 C   0  0  0  0  0  0  0  0  0  0  0  0
   12.0320    0.2970   23.2420 C   0  0  0  0  0  0  0  0  0  0  0  0
   10.6630    1.0400   23.1610 C   0  0  0  0  0  0  0  0  0  0  0  0
    9.5200   -0.0010   22.8540 C   0  0  0  0  0  0  0  0  0  0  0  0
    8.6440    0.5280   21.6690 C   0  0  0  0  0  0  0  0  0  0  0  0
    8.8900    1.6060   21.1300 O   0  0  0  0  0  0  0  0  0  0  0  0
    7.5460   -0.3910   21.3290 N   0  0  0  0  0  0  0  0  0  0  0  0
    6.7620    0.1610   20.2220 C   0  0  0  0  0  0  0  0  0  0  0  0
    5.5710    1.0970   20.5530 C   0  0  0  0  0  0  0  0  0  0  0  0
    4.8960    1.5740   19.4450 C   0  0  0  0  0  0  0  0  0  0  0  0
    5.3430    1.1730   18.0630 C   0  0  0  0  0  0  0  0  0  0  0  0
    6.3660    0.3650   17.7680 N   0  0  0  0  0  0  0  0  0  0  0  0
    7.0820   -0.1490   18.9110 C   0  0  0  0  0  0  0  0  0  0  0  0
   10.6240    2.4450   22.3740 C   0  0  0  0  0  0  0  0  0  0  0  0
   10.1650    2.9460   23.5260 C   0  0  0  0  0  0  0  0  0  0  0  0
   10.3720    1.9460   24.3830 C   0  0  0  0  0  0  0  0  0  0  0  0
   13.4240    0.0220   23.1910 C   0  0  0  0  0  0  0  0  0  0  0  0
  2  1  1  0
  2  3  2  0
  2  4  2  0
  2  5  1  0
  5  6  2  0
  6  7  1  0
  7  8  2  0
  8  9  1  0
  9 10  1  0
 10 11  1  0
 11 12  1  0
 12 13  2  0
 12 14  1  0
 14 15  1  0
 15 16  2  0
 16 17  1  0
 17 18  2  0
 18 19  1  0
 15 20  1  0
 19 20  2  0
 10 21  1  0
 21 22  1  0
 10 23  1  0
 22 23  1  0
  5 24  1  0
  9 24  2  0
M  END
