CHR-SOS-6c45c019-11
     RDKit          3D

 22 24  0  0  0  0  0  0  0  0999 V2000
    5.7310    0.9470   22.2690 C   0  0  0  0  0  0  0  0  0  0  0  0
    6.0040    0.6500   20.8060 C   0  0  0  0  0  0  0  0  0  0  0  0
    5.1800    1.1300   19.8660 C   0  0  0  0  0  0  0  0  0  0  0  0
    5.3410    0.9030   18.3990 C   0  0  0  0  0  0  0  0  0  0  0  0
    6.3430    0.1830   17.9210 N   0  0  0  0  0  0  0  0  0  0  0  0
    7.2450   -0.3540   18.8560 C   0  0  0  0  0  0  0  0  0  0  0  0
    7.1130   -0.1290   20.3690 C   0  0  0  0  0  0  0  0  0  0  0  0
    8.0570   -0.6750   21.3290 N   0  0  0  0  0  0  0  0  0  0  0  0
    9.3250   -0.1680   21.7130 C   0  0  0  0  0  0  0  0  0  0  0  0
    9.5100    1.0280   21.9260 O   0  0  0  0  0  0  0  0  0  0  0  0
   10.4120   -1.2590   21.7680 N   0  0  0  0  0  0  0  0  0  0  0  0
   11.5760   -1.5000   22.6260 C   0  0  0  0  0  0  0  0  0  0  0  0
   11.3230   -2.1840   23.8080 C   0  0  0  0  0  0  0  0  0  0  0  0
    9.7980   -2.2390   24.0580 C   0  0  0  0  0  0  0  0  0  0  0  0
    9.3690   -3.2920   24.8330 C   0  0  0  0  0  0  0  0  0  0  0  0
   10.1940   -3.8750   25.9330 C   0  0  0  0  0  0  0  0  0  0  0  0
    9.7710   -4.9250   26.7270 C   0  0  0  0  0  0  0  0  0  0  0  0
    8.5430   -5.5800   26.6100 C   0  0  0  0  0  0  0  0  0  0  0  0
    7.7360   -5.0700   25.5870 N   0  0  0  0  0  0  0  0  0  0  0  0
    8.1520   -3.9310   24.7060 C   0  0  0  0  0  0  0  0  0  0  0  0
   12.8510   -0.7510   22.5550 C   0  0  0  0  0  0  0  0  0  0  0  0
   12.8640   -1.8310   21.9950 C   0  0  0  0  0  0  0  0  0  0  0  0
  1  2  1  0
  2  3  2  0
  3  4  1  0
  4  5  2  0
  5  6  1  0
  2  7  1  0
  6  7  2  0
  7  8  1  0
  8  9  1  0
  9 10  2  0
  9 11  1  0
 11 12  1  0
 12 13  1  0
 13 14  3  0
 14 15  1  0
 15 16  2  0
 16 17  1  0
 17 18  2  0
 18 19  1  0
 15 20  1  0
 19 20  2  0
 12 21  1  0
 12 22  1  0
 21 22  1  0
M  END
