CHR-SOS-54d5cf3e-5
     RDKit          3D

 25 27  0  0  0  0  0  0  0  0999 V2000
   14.1410   -2.6220   25.5590 N   0  0  0  0  0  0  0  0  0  0  0  0
   13.0570   -2.4320   24.7610 C   0  0  0  0  0  0  0  0  0  0  0  0
   12.0690   -3.3340   24.8610 N   0  0  0  0  0  0  0  0  0  0  0  0
   10.9650   -3.2000   24.1050 C   0  0  0  0  0  0  0  0  0  0  0  0
   10.8500   -2.0780   23.1820 C   0  0  0  0  0  0  0  0  0  0  0  0
   12.0350   -1.1860   23.2100 C   0  0  0  0  0  0  0  0  0  0  0  0
   12.0040   -0.0080   22.3180 C   0  0  0  0  0  0  0  0  0  0  0  0
   10.5250    0.2190   21.9430 C   0  0  0  0  0  0  0  0  0  0  0  0
   10.1680    1.0140   23.1270 C   0  0  0  0  0  0  0  0  0  0  0  0
    8.8670    0.3050   23.1910 C   0  0  0  0  0  0  0  0  0  0  0  0
    8.2400    0.5460   21.8430 C   0  0  0  0  0  0  0  0  0  0  0  0
    8.6700    1.4700   21.1350 O   0  0  0  0  0  0  0  0  0  0  0  0
    7.2180   -0.2670   21.4510 N   0  0  0  0  0  0  0  0  0  0  0  0
    6.5860    0.1220   20.2710 C   0  0  0  0  0  0  0  0  0  0  0  0
    5.4260    0.8970   20.3550 C   0  0  0  0  0  0  0  0  0  0  0  0
    4.7680    1.3340   19.2280 C   0  0  0  0  0  0  0  0  0  0  0  0
    5.2740    0.9970   17.9980 C   0  0  0  0  0  0  0  0  0  0  0  0
    6.3840    0.2500   17.8680 N   0  0  0  0  0  0  0  0  0  0  0  0
    7.0150   -0.1760   18.9900 C   0  0  0  0  0  0  0  0  0  0  0  0
   11.5940    0.5360   23.3370 C   0  0  0  0  0  0  0  0  0  0  0  0
   12.6710    1.6120   23.1340 C   0  0  0  0  0  0  0  0  0  0  0  0
   12.2030    3.0250   22.7010 C   0  0  0  0  0  0  0  0  0  0  0  0
   10.9730    3.3300   23.3500 C   0  0  0  0  0  0  0  0  0  0  0  0
    9.9880    2.5310   22.8420 C   0  0  0  0  0  0  0  0  0  0  0  0
   13.1020   -1.3640   23.9730 N   0  0  0  0  0  0  0  0  0  0  0  0
  1  2  1  0
  2  3  2  0
  3  4  1  0
  4  5  2  0
  5  6  1  0
  6  7  1  0
  7  8  3  0
  9  8  1  0
  9 10  1  0
 10 11  1  0
 11 12  2  0
 11 13  1  0
 13 14  1  0
 14 15  2  0
 15 16  1  0
 16 17  2  0
 17 18  1  0
 14 19  1  0
 18 19  2  0
  9 20  1  0
 20 21  1  0
 21 22  1  0
 22 23  1  0
  9 24  1  0
 23 24  1  0
  2 25  1  0
  6 25  2  0
M  END
