CHR-SOS-6c45c019-6
     RDKit          3D

 24 26  0  0  0  0  0  0  0  0999 V2000
    5.0870    1.0100   21.8560 C   0  0  0  0  0  0  0  0  0  0  0  0
    5.5350    0.7700   20.4400 C   0  0  0  0  0  0  0  0  0  0  0  0
    4.7710    1.3810   19.3440 C   0  0  0  0  0  0  0  0  0  0  0  0
    5.1880    1.1670   18.0240 C   0  0  0  0  0  0  0  0  0  0  0  0
    6.3080    0.3750   17.8360 N   0  0  0  0  0  0  0  0  0  0  0  0
    7.0300   -0.2060   18.8400 C   0  0  0  0  0  0  0  0  0  0  0  0
    6.6570   -0.0100   20.1330 C   0  0  0  0  0  0  0  0  0  0  0  0
    7.4520   -0.6100   21.0330 N   0  0  0  0  0  0  0  0  0  0  0  0
    8.4790    0.2740   21.2320 C   0  0  0  0  0  0  0  0  0  0  0  0
    8.4850    1.4720   20.9340 O   0  0  0  0  0  0  0  0  0  0  0  0
    9.5520   -0.3280   21.8030 N   0  0  0  0  0  0  0  0  0  0  0  0
    9.9000    0.1330   23.1200 C   0  0  0  0  0  0  0  0  0  0  0  0
    9.1800   -0.9590   23.8880 C   0  0  0  0  0  0  0  0  0  0  0  0
   10.2540   -1.8240   23.9080 C   0  0  0  0  0  0  0  0  0  0  0  0
   11.5160   -2.2570   23.7730 C   0  0  0  0  0  0  0  0  0  0  0  0
   12.0110   -2.3960   22.4870 C   0  0  0  0  0  0  0  0  0  0  0  0
   13.2620   -2.7930   22.3110 N   0  0  0  0  0  0  0  0  0  0  0  0
   14.0210   -3.0640   23.4220 C   0  0  0  0  0  0  0  0  0  0  0  0
   13.6030   -2.9400   24.7650 N   0  0  0  0  0  0  0  0  0  0  0  0
   12.2690   -2.5060   24.8480 C   0  0  0  0  0  0  0  0  0  0  0  0
    9.3990    1.5720   23.4760 C   0  0  0  0  0  0  0  0  0  0  0  0
   10.3810    1.5950   22.3780 C   0  0  0  0  0  0  0  0  0  0  0  0
   11.7500    1.2570   22.8510 C   0  0  0  0  0  0  0  0  0  0  0  0
   11.4950   -0.0280   23.2780 C   0  0  0  0  0  0  0  0  0  0  0  0
  1  2  1  0
  2  3  2  0
  3  4  1  0
  4  5  2  0
  5  6  1  0
  2  7  1  0
  6  7  2  0
  7  8  1  0
  8  9  1  0
  9 10  2  0
  9 11  1  0
 11 12  1  0
 12 13  1  0
 13 14  3  0
 14 15  1  0
 15 16  2  0
 16 17  1  0
 17 18  2  0
 18 19  1  0
 15 20  1  0
 19 20  2  0
 12 21  1  0
 21 22  1  0
 22 23  1  0
 12 24  1  0
 23 24  1  0
M  END
