CHR-SOS-6c45c019-10
     RDKit          3D

 22 24  0  0  0  0  0  0  0  0999 V2000
    4.9870    1.2240   21.8380 C   0  0  0  0  0  0  0  0  0  0  0  0
    5.4850    0.8720   20.4600 C   0  0  0  0  0  0  0  0  0  0  0  0
    4.7170    1.3320   19.2940 C   0  0  0  0  0  0  0  0  0  0  0  0
    5.1760    1.0090   18.0120 C   0  0  0  0  0  0  0  0  0  0  0  0
    6.3330    0.2590   17.9250 N   0  0  0  0  0  0  0  0  0  0  0  0
    7.0590   -0.1810   18.9950 C   0  0  0  0  0  0  0  0  0  0  0  0
    6.6510    0.1260   20.2600 C   0  0  0  0  0  0  0  0  0  0  0  0
    7.4450   -0.3320   21.2520 N   0  0  0  0  0  0  0  0  0  0  0  0
    8.5370    0.5040   21.2740 C   0  0  0  0  0  0  0  0  0  0  0  0
    8.5640    1.7280   21.2030 O   0  0  0  0  0  0  0  0  0  0  0  0
    9.6730   -0.2130   21.3520 N   0  0  0  0  0  0  0  0  0  0  0  0
   10.3330   -0.5180   22.5590 C   0  0  0  0  0  0  0  0  0  0  0  0
    9.3820   -1.3050   23.4200 C   0  0  0  0  0  0  0  0  0  0  0  0
   10.4420   -2.0130   23.8810 C   0  0  0  0  0  0  0  0  0  0  0  0
   11.7210   -2.2460   24.1450 C   0  0  0  0  0  0  0  0  0  0  0  0
   12.4960   -2.8810   23.2660 C   0  0  0  0  0  0  0  0  0  0  0  0
   13.8990   -3.0920   23.6480 C   0  0  0  0  0  0  0  0  0  0  0  0
   14.2480   -2.5520   24.9830 C   0  0  0  0  0  0  0  0  0  0  0  0
   13.2780   -1.9110   25.6570 C   0  0  0  0  0  0  0  0  0  0  0  0
   12.0600   -1.7590   25.2820 N   0  0  0  0  0  0  0  0  0  0  0  0
   11.5850   -1.3370   22.2980 C   0  0  0  0  0  0  0  0  0  0  0  0
   11.8220   -0.0450   22.9660 C   0  0  0  0  0  0  0  0  0  0  0  0
  1  2  1  0
  2  3  2  0
  3  4  1  0
  4  5  2  0
  5  6  1  0
  2  7  1  0
  6  7  2  0
  7  8  1  0
  8  9  1  0
  9 10  2  0
  9 11  1  0
 11 12  1  0
 12 13  1  0
 13 14  3  0
 14 15  1  0
 15 16  2  0
 16 17  1  0
 17 18  2  0
 18 19  1  0
 15 20  1  0
 19 20  2  0
 12 21  1  0
 12 22  1  0
 21 22  1  0
M  END
