CHR-SOS-70e4c98a-9
     RDKit          3D

 25 27  0  0  0  0  0  0  0  0999 V2000
   11.4640    6.2790   23.1650 N   0  0  0  0  0  0  0  0  0  0  0  0
   10.2460    5.2670   23.7180 S   0  0  0  0  0  0  0  0  0  0  0  0
   10.2440    5.4070   25.1590 O   0  0  0  0  0  0  0  0  0  0  0  0
    9.0550    5.4970   22.9370 O   0  0  0  0  0  0  0  0  0  0  0  0
   10.8640    3.6530   23.3440 C   0  0  0  0  0  0  0  0  0  0  0  0
   12.3070    3.3620   23.1030 C   0  0  0  0  0  0  0  0  0  0  0  0
   12.7510    2.0720   22.8500 C   0  0  0  0  0  0  0  0  0  0  0  0
   11.7990    1.0820   22.8180 C   0  0  0  0  0  0  0  0  0  0  0  0
   10.4770    1.2990   23.0130 C   0  0  0  0  0  0  0  0  0  0  0  0
    9.5500    0.3000   22.9750 O   0  0  0  0  0  0  0  0  0  0  0  0
    8.3980    0.4350   22.0780 C   0  0  0  0  0  0  0  0  0  0  0  0
    8.3970   -0.7000   21.2940 C   0  0  0  0  0  0  0  0  0  0  0  0
    8.3270   -1.8280   22.2800 C   0  0  0  0  0  0  0  0  0  0  0  0
    9.4790   -2.5410   22.4340 O   0  0  0  0  0  0  0  0  0  0  0  0
    7.2050   -2.0950   22.9610 N   0  0  0  0  0  0  0  0  0  0  0  0
    7.3670   -3.1830   23.6810 C   0  0  0  0  0  0  0  0  0  0  0  0
    7.3330   -4.5780   23.0640 C   0  0  0  0  0  0  0  0  0  0  0  0
    7.5480   -5.7200   23.9810 C   0  0  0  0  0  0  0  0  0  0  0  0
    7.7710   -5.3570   25.4340 C   0  0  0  0  0  0  0  0  0  0  0  0
    7.7870   -4.1060   25.9380 N   0  0  0  0  0  0  0  0  0  0  0  0
    7.5910   -3.0780   25.0660 C   0  0  0  0  0  0  0  0  0  0  0  0
    7.0290    0.6060   22.8860 C   0  0  0  0  0  0  0  0  0  0  0  0
    6.9960    1.7380   22.1590 C   0  0  0  0  0  0  0  0  0  0  0  0
    8.1020    1.6700   21.3790 C   0  0  0  0  0  0  0  0  0  0  0  0
    9.9790    2.5800   23.2800 C   0  0  0  0  0  0  0  0  0  0  0  0
  2  1  1  0
  2  3  2  0
  2  4  2  0
  2  5  1  0
  5  6  2  0
  6  7  1  0
  7  8  2  0
  8  9  1  0
  9 10  1  0
 11 10  1  0
 11 12  1  0
 12 13  1  0
 13 14  2  0
 13 15  1  0
 15 16  1  0
 16 17  2  0
 17 18  1  0
 18 19  2  0
 19 20  1  0
 16 21  1  0
 20 21  2  0
 11 22  1  0
 22 23  1  0
 11 24  1  0
 23 24  1  0
  5 25  1  0
  9 25  2  0
M  END
