CHR-SOS-7098f804-5
     RDKit          3D

 19 20  0  0  0  0  0  0  0  0999 V2000
    9.2160    1.0310   21.5400 O   0  0  0  0  0  0  0  0  0  0  0  0
    9.1360   -0.1810   21.7310 C   0  0  0  0  0  0  0  0  0  0  0  0
    8.1080   -0.9760   21.2100 N   0  0  0  0  0  0  0  0  0  0  0  0
    7.1070   -0.1410   20.5240 C   0  0  0  0  0  0  0  0  0  0  0  0
    7.0890   -0.1980   19.1110 C   0  0  0  0  0  0  0  0  0  0  0  0
    6.1860    0.5780   18.3630 C   0  0  0  0  0  0  0  0  0  0  0  0
    5.2810    1.4250   18.9830 C   0  0  0  0  0  0  0  0  0  0  0  0
    4.3610    2.2510   18.2490 N   0  0  0  0  0  0  0  0  0  0  0  0
    4.7290    2.5540   17.1120 O   0  0  0  0  0  0  0  0  0  0  0  0
    3.5270    2.8850   18.9180 O   0  0  0  0  0  0  0  0  0  0  0  0
    5.2250    1.5300   20.4490 C   0  0  0  0  0  0  0  0  0  0  0  0
    6.2190    0.6760   21.2250 C   0  0  0  0  0  0  0  0  0  0  0  0
   10.2080   -0.8430   22.5710 C   0  0  0  0  0  0  0  0  0  0  0  0
   11.5090   -0.1060   22.7370 C   0  0  0  0  0  0  0  0  0  0  0  0
   12.4790   -0.6640   23.4700 C   0  0  0  0  0  0  0  0  0  0  0  0
   12.3540   -1.8860   24.0890 C   0  0  0  0  0  0  0  0  0  0  0  0
   11.2080   -2.6640   24.0190 C   0  0  0  0  0  0  0  0  0  0  0  0
   10.0960   -2.2200   23.2870 C   0  0  0  0  0  0  0  0  0  0  0  0
    9.0830   -2.9060   23.2280 O   0  0  0  0  0  0  0  0  0  0  0  0
  1  2  2  0
  2  3  1  0
  3  4  1  0
  4  5  2  0
  5  6  1  0
  6  7  2  0
  7  8  1  0
  8  9  2  0
  8 10  1  0
  7 11  1  0
  4 12  1  0
 11 12  2  0
  2 13  1  0
 13 14  2  0
 14 15  1  0
 15 16  2  0
 16 17  1  0
 13 18  1  0
 17 18  2  0
 18 19  1  0
M  CHG  2   8   1  10  -1
M  END
