CHR-SOS-f7373dd1-5
     RDKit          3D

 21 23  0  0  0  0  0  0  0  0999 V2000
    8.8030    1.5820   21.1560 O   0  0  0  0  0  0  0  0  0  0  0  0
    8.4640    0.6490   21.8750 C   0  0  0  0  0  0  0  0  0  0  0  0
    9.1670    0.3100   23.1790 C   0  0  0  0  0  0  0  0  0  0  0  0
   10.5550    0.8660   22.9330 C   0  0  0  0  0  0  0  0  0  0  0  0
   11.5070   -0.1990   22.3600 C   0  0  0  0  0  0  0  0  0  0  0  0
   12.5410   -1.2920   22.3190 C   0  0  0  0  0  0  0  0  0  0  0  0
   13.3030   -1.9790   23.4110 C   0  0  0  0  0  0  0  0  0  0  0  0
   13.2630   -1.7940   24.7740 C   0  0  0  0  0  0  0  0  0  0  0  0
   12.3410   -0.8410   24.7310 N   0  0  0  0  0  0  0  0  0  0  0  0
   11.6400   -0.2040   23.7580 C   0  0  0  0  0  0  0  0  0  0  0  0
   11.4630    1.3740   24.0410 C   0  0  0  0  0  0  0  0  0  0  0  0
   12.2940    2.1500   23.1210 C   0  0  0  0  0  0  0  0  0  0  0  0
   11.5170    3.0530   22.5110 C   0  0  0  0  0  0  0  0  0  0  0  0
   10.3020    2.3940   22.4690 C   0  0  0  0  0  0  0  0  0  0  0  0
    7.3950   -0.1420   21.5060 N   0  0  0  0  0  0  0  0  0  0  0  0
    6.6340    0.2260   20.3810 C   0  0  0  0  0  0  0  0  0  0  0  0
    5.4800    0.9970   20.4340 C   0  0  0  0  0  0  0  0  0  0  0  0
    4.8130    1.3270   19.2600 C   0  0  0  0  0  0  0  0  0  0  0  0
    5.3150    0.8780   18.0450 C   0  0  0  0  0  0  0  0  0  0  0  0
    6.4230    0.1260   17.9610 N   0  0  0  0  0  0  0  0  0  0  0  0
    7.0500   -0.1840   19.1150 C   0  0  0  0  0  0  0  0  0  0  0  0
  1  2  2  0
  2  3  1  0
  4  3  1  0
  4  5  1  0
  5  6  2  0
  6  7  1  0
  7  8  2  0
  8  9  1  0
  5 10  1  0
  9 10  2  0
  4 11  1  0
 11 12  1  0
 12 13  1  0
  4 14  1  0
 13 14  1  0
  2 15  1  0
 15 16  1  0
 16 17  2  0
 17 18  1  0
 18 19  2  0
 19 20  1  0
 16 21  1  0
 20 21  2  0
M  END
