CHR-SOS-70e4c98a-4
     RDKit          3D

 26 28  0  0  0  0  0  0  0  0999 V2000
    5.9950    4.4570   26.0780 N   0  0  0  0  0  0  0  0  0  0  0  0
    6.4570    2.8390   25.9770 S   0  0  0  0  0  0  0  0  0  0  0  0
    6.8080    2.4800   27.3290 O   0  0  0  0  0  0  0  0  0  0  0  0
    5.3510    2.2030   25.2960 O   0  0  0  0  0  0  0  0  0  0  0  0
    7.8970    2.9340   24.8930 C   0  0  0  0  0  0  0  0  0  0  0  0
    7.9150    4.1360   23.9970 C   0  0  0  0  0  0  0  0  0  0  0  0
    9.0540    4.2640   23.0970 C   0  0  0  0  0  0  0  0  0  0  0  0
   10.0610    3.2880   23.1000 C   0  0  0  0  0  0  0  0  0  0  0  0
    9.9860    2.1820   23.9650 C   0  0  0  0  0  0  0  0  0  0  0  0
   10.8870    1.3490   23.9410 O   0  0  0  0  0  0  0  0  0  0  0  0
   10.5750    0.0260   23.6920 C   0  0  0  0  0  0  0  0  0  0  0  0
    9.2190   -0.1880   23.3010 C   0  0  0  0  0  0  0  0  0  0  0  0
    8.7520    0.3040   21.9120 C   0  0  0  0  0  0  0  0  0  0  0  0
    9.3380    1.5260   21.4450 O   0  0  0  0  0  0  0  0  0  0  0  0
    7.7380   -0.5440   21.2740 N   0  0  0  0  0  0  0  0  0  0  0  0
    6.9860   -0.0580   20.2310 C   0  0  0  0  0  0  0  0  0  0  0  0
    5.8650    0.8400   20.3010 C   0  0  0  0  0  0  0  0  0  0  0  0
    4.9160    1.5230   19.5570 C   0  0  0  0  0  0  0  0  0  0  0  0
    5.2120    1.1640   18.2470 C   0  0  0  0  0  0  0  0  0  0  0  0
    6.2430    0.2970   17.8090 N   0  0  0  0  0  0  0  0  0  0  0  0
    7.1430   -0.3240   18.8580 C   0  0  0  0  0  0  0  0  0  0  0  0
   11.4940   -0.3610   22.6670 C   0  0  0  0  0  0  0  0  0  0  0  0
   12.8140   -0.9020   23.2120 C   0  0  0  0  0  0  0  0  0  0  0  0
   12.5090   -1.1740   24.6580 C   0  0  0  0  0  0  0  0  0  0  0  0
   11.0290   -0.8360   24.7100 C   0  0  0  0  0  0  0  0  0  0  0  0
    8.9210    1.9900   24.8610 C   0  0  0  0  0  0  0  0  0  0  0  0
  2  1  1  0
  2  3  2  0
  2  4  2  0
  2  5  1  0
  5  6  2  0
  6  7  1  0
  7  8  2  0
  8  9  1  0
  9 10  1  0
 11 10  1  0
 11 12  1  0
 12 13  1  0
 13 14  2  0
 13 15  1  0
 15 16  1  0
 16 17  2  0
 17 18  1  0
 18 19  2  0
 19 20  1  0
 16 21  1  0
 20 21  2  0
 11 22  1  0
 22 23  1  0
 23 24  1  0
 11 25  1  0
 24 25  1  0
  5 26  1  0
  9 26  2  0
M  END
