CHR-SOS-1f323c23-6
     RDKit          3D

 27 29  0  0  0  0  0  0  0  0999 V2000
    4.8450    1.0130   21.8640 C   0  0  0  0  0  0  0  0  0  0  0  0
    5.4060    0.7940   20.5220 C   0  0  0  0  0  0  0  0  0  0  0  0
    4.8080    1.3330   19.3870 C   0  0  0  0  0  0  0  0  0  0  0  0
    5.2650    1.1770   18.0820 C   0  0  0  0  0  0  0  0  0  0  0  0
    6.3610    0.4630   17.7880 N   0  0  0  0  0  0  0  0  0  0  0  0
    6.9900   -0.0900   18.8530 C   0  0  0  0  0  0  0  0  0  0  0  0
    6.5520    0.0500   20.2750 C   0  0  0  0  0  0  0  0  0  0  0  0
    7.3690   -0.6150   21.3010 N   0  0  0  0  0  0  0  0  0  0  0  0
    8.7350   -0.6150   21.3990 C   0  0  0  0  0  0  0  0  0  0  0  0
    9.4390   -1.5690   21.3740 O   0  0  0  0  0  0  0  0  0  0  0  0
    9.2740    0.6120   21.5510 N   0  0  0  0  0  0  0  0  0  0  0  0
   10.1140    0.4630   22.5740 C   0  0  0  0  0  0  0  0  0  0  0  0
    9.5570    0.1230   23.5500 O   0  0  0  0  0  0  0  0  0  0  0  0
   10.3390   -0.8600   23.8870 C   0  0  0  0  0  0  0  0  0  0  0  0
   10.0030   -2.1230   24.1330 C   0  0  0  0  0  0  0  0  0  0  0  0
   11.0280   -2.9830   24.4700 C   0  0  0  0  0  0  0  0  0  0  0  0
   12.3030   -2.4690   24.5440 C   0  0  0  0  0  0  0  0  0  0  0  0
   13.6950   -3.2880   24.9500 S   0  0  0  0  0  0  0  0  0  0  0  0
   14.5300   -2.4850   26.1460 C   0  0  0  0  0  0  0  0  0  0  0  0
   13.5730   -4.3660   25.8640 O   0  0  0  0  0  0  0  0  0  0  0  0
   14.4120   -3.2840   23.7180 O   0  0  0  0  0  0  0  0  0  0  0  0
   12.6250   -1.1100   24.2570 C   0  0  0  0  0  0  0  0  0  0  0  0
   11.6180   -0.3550   23.9280 C   0  0  0  0  0  0  0  0  0  0  0  0
   10.7400    1.8480   22.8360 C   0  0  0  0  0  0  0  0  0  0  0  0
   12.1150    1.7710   22.8610 C   0  0  0  0  0  0  0  0  0  0  0  0
   12.4720    0.3420   22.7470 C   0  0  0  0  0  0  0  0  0  0  0  0
   11.2960   -0.4490   22.5200 C   0  0  0  0  0  0  0  0  0  0  0  0
  1  2  1  0
  2  3  2  0
  3  4  1  0
  4  5  2  0
  5  6  1  0
  2  7  1  0
  6  7  2  0
  7  8  1  0
  8  9  1  0
  9 10  2  0
  9 11  1  0
 11 12  1  0
 12 13  1  0
 13 14  1  0
 14 15  2  0
 15 16  1  0
 16 17  2  0
 17 18  1  0
 18 19  1  0
 18 20  2  0
 18 21  2  0
 17 22  1  0
 14 23  1  0
 22 23  2  0
 12 24  1  0
 24 25  1  0
 25 26  1  0
 12 27  1  0
 26 27  1  0
M  END
