CHR-SOS-54d5cf3e-1
     RDKit          3D

 23 25  0  0  0  0  0  0  0  0999 V2000
    8.6450    1.4580   21.2120 O   0  0  0  0  0  0  0  0  0  0  0  0
    8.3050    0.5390   21.9710 C   0  0  0  0  0  0  0  0  0  0  0  0
    9.0780    0.3410   23.2800 C   0  0  0  0  0  0  0  0  0  0  0  0
   10.2520    0.7410   22.8730 C   0  0  0  0  0  0  0  0  0  0  0  0
   10.4580   -0.2240   21.7710 C   0  0  0  0  0  0  0  0  0  0  0  0
   11.8270   -0.8670   22.0880 C   0  0  0  0  0  0  0  0  0  0  0  0
   11.8770   -2.2510   22.6540 C   0  0  1  0  0  0  0  0  0  0  0  0
   13.2780   -2.4460   23.2230 C   0  0  0  0  0  0  0  0  0  0  0  0
   13.0760   -2.5290   24.7610 C   0  0  0  0  0  0  0  0  0  0  0  0
   11.8280   -2.0050   24.9650 N   0  0  0  0  0  0  0  0  0  0  0  0
   11.0110   -2.4450   23.8970 C   0  0  0  0  0  0  0  0  0  0  0  0
   11.6720    0.3070   23.3270 C   0  0  0  0  0  0  0  0  0  0  0  0
   12.6780    1.2060   23.0320 C   0  0  0  0  0  0  0  0  0  0  0  0
   12.3040    2.6810   22.8610 C   0  0  0  0  0  0  0  0  0  0  0  0
   11.0410    3.0880   23.1730 C   0  0  0  0  0  0  0  0  0  0  0  0
   10.0310    2.3030   22.6330 C   0  0  0  0  0  0  0  0  0  0  0  0
    7.2730   -0.2480   21.5750 N   0  0  0  0  0  0  0  0  0  0  0  0
    6.5450    0.1770   20.3780 C   0  0  0  0  0  0  0  0  0  0  0  0
    5.3950    0.9270   20.3730 C   0  0  0  0  0  0  0  0  0  0  0  0
    4.7410    1.3350   19.2190 C   0  0  0  0  0  0  0  0  0  0  0  0
    5.3050    0.9500   18.0240 C   0  0  0  0  0  0  0  0  0  0  0  0
    6.4400    0.2030   17.9520 N   0  0  0  0  0  0  0  0  0  0  0  0
    7.0270   -0.1660   19.1190 C   0  0  0  0  0  0  0  0  0  0  0  0
  1  2  2  0
  2  3  1  0
  3  4  1  0
  4  5  1  0
  5  6  3  0
  7  6  1  1
  7  8  1  0
  8  9  1  0
  9 10  1  0
  7 11  1  0
 10 11  1  0
  4 12  1  0
 12 13  1  0
 13 14  1  0
 14 15  1  0
  4 16  1  0
 15 16  1  0
  2 17  1  0
 17 18  1  0
 18 19  2  0
 19 20  1  0
 20 21  2  0
 21 22  1  0
 18 23  1  0
 22 23  2  0
M  END
