CHR-SOS-70e4c98a-10
     RDKit          3D

 25 27  0  0  0  0  0  0  0  0999 V2000
   10.8670    6.2320   23.2840 N   0  0  0  0  0  0  0  0  0  0  0  0
    9.7910    5.0000   23.6780 S   0  0  0  0  0  0  0  0  0  0  0  0
    9.4420    5.2080   25.0680 O   0  0  0  0  0  0  0  0  0  0  0  0
    8.7830    5.0350   22.6540 O   0  0  0  0  0  0  0  0  0  0  0  0
   10.7940    3.5410   23.4920 C   0  0  0  0  0  0  0  0  0  0  0  0
   12.0880    3.6580   23.0100 C   0  0  0  0  0  0  0  0  0  0  0  0
   12.8590    2.5180   22.8850 C   0  0  0  0  0  0  0  0  0  0  0  0
   12.3680    1.2630   23.2280 C   0  0  0  0  0  0  0  0  0  0  0  0
   11.0690    1.1280   23.7070 C   0  0  0  0  0  0  0  0  0  0  0  0
   10.6710   -0.1550   24.0240 O   0  0  0  0  0  0  0  0  0  0  0  0
   10.9950   -1.3940   23.3020 C   0  0  0  0  0  0  0  0  0  0  0  0
    9.7440   -1.8530   22.5280 C   0  0  0  0  0  0  0  0  0  0  0  0
    8.9740   -2.9790   23.1850 C   0  0  0  0  0  0  0  0  0  0  0  0
    9.5180   -3.6590   24.0330 O   0  0  0  0  0  0  0  0  0  0  0  0
    7.6780   -3.1440   22.7470 N   0  0  0  0  0  0  0  0  0  0  0  0
    6.8330   -4.2330   23.0610 C   0  0  0  0  0  0  0  0  0  0  0  0
    6.8690   -5.4690   22.4280 C   0  0  0  0  0  0  0  0  0  0  0  0
    5.9950   -6.4730   22.8140 C   0  0  0  0  0  0  0  0  0  0  0  0
    5.0960   -6.2170   23.8330 C   0  0  0  0  0  0  0  0  0  0  0  0
    5.0180   -5.0370   24.4810 N   0  0  0  0  0  0  0  0  0  0  0  0
    5.8880   -4.0790   24.0770 C   0  0  0  0  0  0  0  0  0  0  0  0
   11.8120   -2.4190   24.1650 C   0  0  0  0  0  0  0  0  0  0  0  0
   13.1000   -2.0360   23.4330 C   0  0  0  0  0  0  0  0  0  0  0  0
   12.2650   -1.3100   22.3730 C   0  0  0  0  0  0  0  0  0  0  0  0
   10.2790    2.2750   23.8390 C   0  0  0  0  0  0  0  0  0  0  0  0
  2  1  1  0
  2  3  2  0
  2  4  2  0
  2  5  1  0
  5  6  2  0
  6  7  1  0
  7  8  2  0
  8  9  1  0
  9 10  1  0
 11 10  1  0
 11 12  1  0
 12 13  1  0
 13 14  2  0
 13 15  1  0
 15 16  1  0
 16 17  2  0
 17 18  1  0
 18 19  2  0
 19 20  1  0
 16 21  1  0
 20 21  2  0
 11 22  1  0
 22 23  1  0
 11 24  1  0
 23 24  1  0
  5 25  1  0
  9 25  2  0
M  END
