CHR-SOS-1f323c23-9
     RDKit          3D

 26 28  0  0  0  0  0  0  0  0999 V2000
   15.2760    0.1280   18.3680 C   0  0  0  0  0  0  0  0  0  0  0  0
   15.4600   -1.1700   18.5880 C   0  0  0  0  0  0  0  0  0  0  0  0
   16.4500   -1.7760   17.8930 C   0  0  0  0  0  0  0  0  0  0  0  0
   16.8570   -3.2160   18.0270 C   0  0  0  0  0  0  0  0  0  0  0  0
   16.1770   -4.1120   18.8930 N   0  0  0  0  0  0  0  0  0  0  0  0
   14.9910   -3.5900   19.6260 C   0  0  0  0  0  0  0  0  0  0  0  0
   14.5970   -1.9180   19.5860 C   0  0  0  0  0  0  0  0  0  0  0  0
   13.4930   -1.4670   20.5160 N   0  0  0  0  0  0  0  0  0  0  0  0
   12.9050   -2.2890   21.5830 C   0  0  0  0  0  0  0  0  0  0  0  0
   13.4990   -2.9240   22.4330 O   0  0  0  0  0  0  0  0  0  0  0  0
   11.5390   -2.2410   21.5840 N   0  0  0  0  0  0  0  0  0  0  0  0
   10.8180   -1.4180   22.4530 C   0  0  0  0  0  0  0  0  0  0  0  0
   11.7960   -0.3900   22.6950 O   0  0  0  0  0  0  0  0  0  0  0  0
   11.4670    0.9030   22.8910 C   0  0  0  0  0  0  0  0  0  0  0  0
   12.5450    2.0010   22.9410 C   0  0  0  0  0  0  0  0  0  0  0  0
   12.0900    3.4230   23.1710 C   0  0  0  0  0  0  0  0  0  0  0  0
   10.7290    3.6770   23.3460 C   0  0  0  0  0  0  0  0  0  0  0  0
   10.1180    5.2930   23.6720 S   0  0  0  0  0  0  0  0  0  0  0  0
   11.3870    6.2860   23.1880 N   0  0  0  0  0  0  0  0  0  0  0  0
   10.0310    5.4430   25.1080 O   0  0  0  0  0  0  0  0  0  0  0  0
    8.9670    5.5390   22.8470 O   0  0  0  0  0  0  0  0  0  0  0  0
    9.8360    2.6170   23.2750 C   0  0  0  0  0  0  0  0  0  0  0  0
   10.1240    1.2760   23.0570 C   0  0  0  0  0  0  0  0  0  0  0  0
   10.1910   -2.1260   23.5320 C   0  0  0  0  0  0  0  0  0  0  0  0
    8.9550   -1.8310   23.1570 C   0  0  0  0  0  0  0  0  0  0  0  0
    9.4840   -1.0580   21.9680 C   0  0  0  0  0  0  0  0  0  0  0  0
  1  2  1  0
  2  3  2  0
  3  4  1  0
  4  5  2  0
  5  6  1  0
  2  7  1  0
  6  7  2  0
  7  8  1  0
  8  9  1  0
  9 10  2  0
  9 11  1  0
 11 12  1  0
 12 13  1  0
 13 14  1  0
 14 15  2  0
 15 16  1  0
 16 17  2  0
 17 18  1  0
 18 19  1  0
 18 20  2  0
 18 21  2  0
 17 22  1  0
 14 23  1  0
 22 23  2  0
 12 24  1  0
 24 25  1  0
 12 26  1  0
 25 26  1  0
M  END
