CHR-SOS-7098f804-16
     RDKit          3D

 23 25  0  0  0  0  0  0  0  0999 V2000
    8.8720    1.5530   21.2640 O   0  0  0  0  0  0  0  0  0  0  0  0
    9.0790    0.3950   21.6660 C   0  0  0  0  0  0  0  0  0  0  0  0
    8.1050   -0.5610   21.3410 N   0  0  0  0  0  0  0  0  0  0  0  0
    7.0870   -0.1480   20.4010 C   0  0  0  0  0  0  0  0  0  0  0  0
    5.9040    0.5480   20.7320 C   0  0  0  0  0  0  0  0  0  0  0  0
    4.9690    0.9520   19.7630 C   0  0  0  0  0  0  0  0  0  0  0  0
    5.1270    0.7020   18.4040 C   0  0  0  0  0  0  0  0  0  0  0  0
    6.3220   -0.0200   17.9940 N   0  0  0  0  0  0  0  0  0  0  0  0
    7.2460   -0.4150   19.0370 C   0  0  0  0  0  0  0  0  0  0  0  0
   10.4300    0.2560   22.3570 C   0  0  0  0  0  0  0  0  0  0  0  0
   11.5090   -0.5600   22.9490 C   0  0  0  0  0  0  0  0  0  0  0  0
   11.8860   -1.8300   23.2290 C   0  0  0  0  0  0  0  0  0  0  0  0
   13.0990   -2.8150   23.9000 Cl  0  0  0  0  0  0  0  0  0  0  0  0
   12.8090   -0.7450   23.5630 C   0  0  0  0  0  0  0  0  0  0  0  0
   12.5120    0.7050   23.3060 C   0  0  0  0  0  0  0  0  0  0  0  0
   11.1900    1.2930   22.6580 C   0  0  0  0  0  0  0  0  0  0  0  0
   10.7740    2.5880   22.3790 O   0  0  0  0  0  0  0  0  0  0  0  0
   11.4500    3.7710   22.6110 C   0  0  0  0  0  0  0  0  0  0  0  0
   12.8280    3.9560   22.6460 C   0  0  0  0  0  0  0  0  0  0  0  0
   13.3470    5.2330   22.8800 C   0  0  0  0  0  0  0  0  0  0  0  0
   12.5560    6.3570   23.0870 C   0  0  0  0  0  0  0  0  0  0  0  0
   11.1720    6.2270   23.0680 C   0  0  0  0  0  0  0  0  0  0  0  0
   10.6160    4.8660   22.8180 C   0  0  0  0  0  0  0  0  0  0  0  0
  1  2  2  0
  2  3  1  0
  3  4  1  0
  4  5  2  0
  5  6  1  0
  6  7  2  0
  7  8  1  0
  4  9  1  0
  8  9  2  0
  2 10  1  0
 10 11  2  0
 11 12  1  0
 12 13  1  0
 12 14  2  0
 14 15  1  0
 10 16  1  0
 15 16  2  0
 16 17  1  0
 17 18  1  0
 18 19  2  0
 19 20  1  0
 20 21  2  0
 21 22  1  0
 18 23  1  0
 22 23  2  0
M  END
