CHR-SOS-59746812-3
     RDKit          3D

 22 24  0  0  0  0  0  0  0  0999 V2000
   10.7440    6.6820   22.7720 C   0  0  0  0  0  0  0  0  0  0  0  0
   11.0420    5.2480   22.9490 C   0  0  0  0  0  0  0  0  0  0  0  0
   12.0480    4.5890   22.4540 N   0  0  0  0  0  0  0  0  0  0  0  0
   12.4010    3.1630   22.6080 C   0  0  0  0  0  0  0  0  0  0  0  0
   11.1600    2.9900   23.4870 C   0  0  0  0  0  0  0  0  0  0  0  0
   10.8700    1.7440   24.0740 C   0  0  0  0  0  0  0  0  0  0  0  0
   10.5690    0.3870   23.4480 C   0  0  0  0  0  0  0  0  0  0  0  0
    9.2920    0.0480   23.1320 C   0  0  0  0  0  0  0  0  0  0  0  0
    8.7180    0.5310   21.8110 C   0  0  0  0  0  0  0  0  0  0  0  0
    9.1020    1.5550   21.2390 O   0  0  0  0  0  0  0  0  0  0  0  0
    7.7500   -0.3030   21.3990 N   0  0  0  0  0  0  0  0  0  0  0  0
    6.9480    0.1790   20.2430 C   0  0  0  0  0  0  0  0  0  0  0  0
    5.8170    1.1400   20.5480 C   0  0  0  0  0  0  0  0  0  0  0  0
    5.0200    1.6200   19.3810 C   0  0  0  0  0  0  0  0  0  0  0  0
    5.3610    1.1640   18.1100 C   0  0  0  0  0  0  0  0  0  0  0  0
    6.3780    0.3020   17.8720 N   0  0  0  0  0  0  0  0  0  0  0  0
    7.1270   -0.1630   18.9050 C   0  0  0  0  0  0  0  0  0  0  0  0
   11.6080   -0.1110   22.4390 C   0  0  0  0  0  0  0  0  0  0  0  0
   12.4970   -1.0150   23.0140 C   0  0  0  0  0  0  0  0  0  0  0  0
   12.4540   -0.9140   24.3700 C   0  0  0  0  0  0  0  0  0  0  0  0
   10.9830   -0.5610   24.5880 C   0  0  0  0  0  0  0  0  0  0  0  0
   10.0360    4.3020   23.8750 S   0  0  0  0  0  0  0  0  0  0  0  0
  1  2  1  0
  2  3  2  0
  3  4  1  0
  4  5  2  0
  5  6  1  0
  7  6  1  0
  7  8  1  0
  8  9  1  0
  9 10  2  0
  9 11  1  0
 11 12  1  0
 12 13  2  0
 13 14  1  0
 14 15  2  0
 15 16  1  0
 12 17  1  0
 16 17  2  0
  7 18  1  0
 18 19  1  0
 19 20  1  0
  7 21  1  0
 20 21  1  0
  2 22  1  0
  5 22  1  0
M  END
