CHR-SOS-70e4c98a-6
     RDKit          3D

 20 22  0  0  0  0  0  0  0  0999 V2000
    9.2770    1.3890   21.3010 O   0  0  0  0  0  0  0  0  0  0  0  0
    9.2230    0.2600   21.8260 C   0  0  0  0  0  0  0  0  0  0  0  0
   10.1460   -0.2060   22.8750 C   0  0  0  0  0  0  0  0  0  0  0  0
   11.6010   -0.1040   22.8670 C   0  0  0  0  0  0  0  0  0  0  0  0
   12.1040    1.2990   22.7760 O   0  0  0  0  0  0  0  0  0  0  0  0
   11.0690    2.2060   22.9390 C   0  0  0  0  0  0  0  0  0  0  0  0
   11.1290    1.0020   22.8320 C   0  0  0  0  0  0  0  0  0  0  0  0
   12.5420    1.9660   22.7860 C   0  0  0  0  0  0  0  0  0  0  0  0
   12.4610    3.6670   22.9340 C   0  0  0  0  0  0  0  0  0  0  0  0
   11.0230    4.0480   23.1160 C   0  0  0  0  0  0  0  0  0  0  0  0
   11.9410    3.1270   22.9410 C   0  0  0  0  0  0  0  0  0  0  0  0
   12.4270   -1.0960   23.6640 C   0  0  0  0  0  0  0  0  0  0  0  0
   12.4210   -1.0760   22.2640 C   0  0  0  0  0  0  0  0  0  0  0  0
    8.1210   -0.6610   21.4070 N   0  0  0  0  0  0  0  0  0  0  0  0
    7.1580   -0.1010   20.3840 C   0  0  0  0  0  0  0  0  0  0  0  0
    6.0710    0.7080   20.8200 C   0  0  0  0  0  0  0  0  0  0  0  0
    5.1530    1.2580   19.9060 C   0  0  0  0  0  0  0  0  0  0  0  0
    5.3340    0.9760   18.4270 C   0  0  0  0  0  0  0  0  0  0  0  0
    6.3690    0.1910   17.9730 N   0  0  0  0  0  0  0  0  0  0  0  0
    7.2660   -0.3360   19.0030 C   0  0  0  0  0  0  0  0  0  0  0  0
  1  2  2  0
  2  3  1  0
  3  4  1  0
  4  5  1  0
  5  6  1  0
  6  7  2  0
  7  8  1  0
  8  9  2  0
  9 10  1  0
  6 11  1  0
 10 11  2  0
  4 12  1  0
  4 13  1  0
 12 13  1  0
  2 14  1  0
 14 15  1  0
 15 16  2  0
 16 17  1  0
 17 18  2  0
 18 19  1  0
 15 20  1  0
 19 20  2  0
M  END
