CHR-SOS-f7373dd1-4
     RDKit          3D

 21 23  0  0  0  0  0  0  0  0999 V2000
    9.1710    1.5000   21.3340 O   0  0  0  0  0  0  0  0  0  0  0  0
    8.7370    0.4470   21.8100 C   0  0  0  0  0  0  0  0  0  0  0  0
    9.4000   -0.2160   22.9770 C   0  0  0  0  0  0  0  0  0  0  0  0
   10.7380   -0.1220   23.0990 C   0  0  0  0  0  0  0  0  0  0  0  0
   11.1840    1.3610   22.9980 C   0  0  0  0  0  0  0  0  0  0  0  0
   12.5370    1.8470   22.8240 C   0  0  0  0  0  0  0  0  0  0  0  0
   12.8410    3.2250   22.7390 C   0  0  0  0  0  0  0  0  0  0  0  0
   11.8380    4.1680   22.8270 C   0  0  0  0  0  0  0  0  0  0  0  0
   10.3850    3.8140   23.0160 C   0  0  0  0  0  0  0  0  0  0  0  0
   10.1580    2.3150   23.0930 C   0  0  0  0  0  0  0  0  0  0  0  0
   11.3580   -1.2940   22.2690 C   0  0  0  0  0  0  0  0  0  0  0  0
   12.7040   -1.2410   22.6930 C   0  0  0  0  0  0  0  0  0  0  0  0
   12.7340   -0.7960   24.1030 C   0  0  0  0  0  0  0  0  0  0  0  0
   11.3180   -0.6280   24.4330 C   0  0  0  0  0  0  0  0  0  0  0  0
    7.5660   -0.2270   21.2990 N   0  0  0  0  0  0  0  0  0  0  0  0
    6.7400    0.2120   20.2690 C   0  0  0  0  0  0  0  0  0  0  0  0
    5.5950    0.9970   20.3830 C   0  0  0  0  0  0  0  0  0  0  0  0
    4.8310    1.4170   19.3100 C   0  0  0  0  0  0  0  0  0  0  0  0
    5.2390    1.0300   18.0510 C   0  0  0  0  0  0  0  0  0  0  0  0
    6.3100    0.2730   17.7930 N   0  0  0  0  0  0  0  0  0  0  0  0
    7.0720   -0.1420   18.9750 C   0  0  0  0  0  0  0  0  0  0  0  0
  1  2  2  0
  2  3  1  0
  4  3  1  0
  4  5  1  0
  5  6  2  0
  6  7  1  0
  7  8  2  0
  8  9  1  0
  5 10  1  0
  9 10  2  0
  4 11  1  0
 11 12  1  0
 12 13  1  0
  4 14  1  0
 13 14  1  0
  2 15  1  0
 15 16  1  0
 16 17  2  0
 17 18  1  0
 18 19  2  0
 19 20  1  0
 16 21  1  0
 20 21  2  0
M  END
