CHR-SOS-54d5cf3e-4
     RDKit          3D

 24 26  0  0  0  0  0  0  0  0999 V2000
    8.6860    1.5880   21.0910 O   0  0  0  0  0  0  0  0  0  0  0  0
    8.3060    0.7640   21.9210 C   0  0  0  0  0  0  0  0  0  0  0  0
    8.9660    0.7150   23.3060 C   0  0  0  0  0  0  0  0  0  0  0  0
   10.1910    1.2730   23.0560 C   0  0  0  0  0  0  0  0  0  0  0  0
   10.8660    0.4650   22.2150 C   0  0  0  0  0  0  0  0  0  0  0  0
   12.2100    0.3240   22.4600 C   0  0  0  0  0  0  0  0  0  0  0  0
   12.5060   -0.7950   23.1200 C   0  0  2  0  0  0  0  0  0  0  0  0
   13.1170   -1.7820   22.3960 C   0  0  0  0  0  0  0  0  0  0  0  0
   13.3420   -2.6290   23.4260 C   0  0  0  0  0  0  0  0  0  0  0  0
   13.2720   -2.6600   24.7860 C   0  0  0  0  0  0  0  0  0  0  0  0
   12.2030   -1.8300   25.0680 C   0  0  0  0  0  0  0  0  0  0  0  0
   11.6050   -1.4070   23.8360 N   0  0  0  0  0  0  0  0  0  0  0  0
   11.3010    1.4510   24.0360 C   0  0  0  0  0  0  0  0  0  0  0  0
   12.4480    1.8150   23.0840 C   0  0  0  0  0  0  0  0  0  0  0  0
   12.1400    3.2720   22.7660 C   0  0  0  0  0  0  0  0  0  0  0  0
   10.8350    3.5730   23.1100 C   0  0  0  0  0  0  0  0  0  0  0  0
    9.9070    2.6150   22.6610 C   0  0  0  0  0  0  0  0  0  0  0  0
    7.3020   -0.1110   21.6150 N   0  0  0  0  0  0  0  0  0  0  0  0
    6.5940    0.2070   20.3870 C   0  0  0  0  0  0  0  0  0  0  0  0
    5.4430    0.9540   20.5160 C   0  0  0  0  0  0  0  0  0  0  0  0
    4.6600    1.3590   19.2930 C   0  0  0  0  0  0  0  0  0  0  0  0
    5.2620    0.8690   18.0050 C   0  0  0  0  0  0  0  0  0  0  0  0
    6.3900    0.1350   17.9490 N   0  0  0  0  0  0  0  0  0  0  0  0
    7.0110   -0.1730   19.1110 C   0  0  0  0  0  0  0  0  0  0  0  0
  1  2  2  0
  2  3  1  0
  3  4  1  0
  4  5  1  0
  5  6  3  0
  7  6  1  6
  7  8  1  0
  8  9  1  0
  9 10  1  0
 10 11  1  0
  7 12  1  0
 11 12  1  0
  4 13  1  0
 13 14  1  0
 14 15  1  0
 15 16  1  0
  4 17  1  0
 16 17  1  0
  2 18  1  0
 18 19  1  0
 19 20  2  0
 20 21  1  0
 21 22  2  0
 22 23  1  0
 19 24  1  0
 23 24  2  0
M  END
