CLI-UNI-032f7715-2
     RDKit          3D

 16 17  0  0  0  0  0  0  0  0999 V2000
    4.3070   -2.9940   25.5910 O   0  0  0  0  0  0  0  0  0  0  0  0
    5.5110   -3.0280   25.4160 C   0  0  0  0  0  0  0  0  0  0  0  0
    6.4840   -2.5210   26.2490 N   0  0  0  0  0  0  0  0  0  0  0  0
    6.4200   -1.3740   27.0530 C   0  0  0  0  0  0  0  0  0  0  0  0
    5.8740   -0.1520   26.6530 C   0  0  0  0  0  0  0  0  0  0  0  0
    5.8540    0.9360   27.5290 C   0  0  0  0  0  0  0  0  0  0  0  0
    6.3800    0.8070   28.8060 C   0  0  0  0  0  0  0  0  0  0  0  0
    6.9260   -0.3950   29.2270 C   0  0  0  0  0  0  0  0  0  0  0  0
    6.9430   -1.4760   28.3530 C   0  0  0  0  0  0  0  0  0  0  0  0
    6.0330   -3.6840   24.2090 C   0  0  0  0  0  0  0  0  0  0  0  0
    5.6300   -4.9190   23.8260 C   0  0  0  0  0  0  0  0  0  0  0  0
    6.2750   -5.2400   22.7440 C   0  0  0  0  0  0  0  0  0  0  0  0
    7.1780   -4.7470   21.9270 C   0  0  0  0  0  0  0  0  0  0  0  0
    7.8130   -3.3450   22.1180 C   0  0  0  0  0  0  0  0  0  0  0  0
    6.9920   -3.0090   23.4290 C   0  0  0  0  0  0  0  0  0  0  0  0
    7.3100   -1.8890   23.8080 O   0  0  0  0  0  0  0  0  0  0  0  0
  1  2  2  0
  2  3  1  0
  3  4  1  0
  4  5  2  0
  5  6  1  0
  6  7  2  0
  7  8  1  0
  4  9  1  0
  8  9  2  0
  2 10  1  0
 10 11  2  0
 11 12  1  0
 12 13  2  0
 13 14  1  0
 10 15  1  0
 14 15  2  0
 15 16  1  0
M  END
