CLI-UNI-032f7715-3
     RDKit          3D

 18 19  0  0  0  0  0  0  0  0999 V2000
    6.6750   -2.1920   26.1010 N   0  0  0  0  0  0  0  0  0  0  0  0
    5.8280   -3.0680   25.2800 C   0  0  0  0  0  0  0  0  0  0  0  0
    4.4410   -3.2160   25.5660 O   0  0  0  0  0  0  0  0  0  0  0  0
    6.5660   -3.7530   24.1690 C   0  0  0  0  0  0  0  0  0  0  0  0
    5.7020   -4.7370   23.4380 C   0  0  0  0  0  0  0  0  0  0  0  0
    6.3140   -5.0120   22.1020 C   0  0  0  0  0  0  0  0  0  0  0  0
    6.9770   -3.9480   21.4500 N   0  0  0  0  0  0  0  0  0  0  0  0
    6.1840   -3.4190   20.3690 C   0  0  0  0  0  0  0  0  0  0  0  0
    5.3000   -4.2110   19.5800 O   0  0  0  0  0  0  0  0  0  0  0  0
    6.3390   -1.9150   20.0640 C   0  0  0  0  0  0  0  0  0  0  0  0
    5.1150   -1.4320   19.3710 C   0  0  0  0  0  0  0  0  0  0  0  0
    5.0180    0.0110   18.9650 C   0  0  0  0  0  0  0  0  0  0  0  0
    6.0550    0.8850   19.2370 C   0  0  0  0  0  0  0  0  0  0  0  0
    7.1840    0.3980   19.8870 C   0  0  0  0  0  0  0  0  0  0  0  0
    7.4370   -0.9150   20.3250 C   0  0  0  0  0  0  0  0  0  0  0  0
    8.5350   -1.2670   20.9150 O   0  0  0  0  0  0  0  0  0  0  0  0
    7.8650   -3.1930   22.3040 C   0  0  0  0  0  0  0  0  0  0  0  0
    7.0630   -2.7460   23.3420 C   0  0  0  0  0  0  0  0  0  0  0  0
  1  2  1  0
  2  3  2  0
  2  4  1  0
  4  5  1  0
  5  6  1  0
  6  7  1  0
  7  8  1  0
  8  9  2  0
  8 10  1  0
 10 11  2  0
 11 12  1  0
 12 13  2  0
 13 14  1  0
 10 15  1  0
 14 15  2  0
 15 16  1  0
  7 17  1  0
  4 18  1  0
 17 18  1  0
M  END
