CLI-UNI-032f7715-1
     RDKit          3D

 15 16  0  0  0  0  0  0  0  0999 V2000
    5.3920   -4.3220   19.8380 O   0  0  0  0  0  0  0  0  0  0  0  0
    6.1370   -3.6610   20.5620 C   0  0  0  0  0  0  0  0  0  0  0  0
    6.2830   -2.3060   20.2440 C   0  0  0  0  0  0  0  0  0  0  0  0
    7.2100   -1.3900   20.7810 C   0  0  0  0  0  0  0  0  0  0  0  0
    7.1930    0.0170   20.2810 C   0  0  0  0  0  0  0  0  0  0  0  0
    6.1950    0.4290   19.2210 C   0  0  0  0  0  0  0  0  0  0  0  0
    5.3330   -0.5900   18.7810 C   0  0  0  0  0  0  0  0  0  0  0  0
    5.4120   -1.8880   19.3010 C   0  0  0  0  0  0  0  0  0  0  0  0
    4.4900   -2.8530   18.7810 O   0  0  0  0  0  0  0  0  0  0  0  0
    6.8040   -4.2060   21.5960 N   0  0  0  0  0  0  0  0  0  0  0  0
    6.3510   -5.2780   22.4030 C   0  0  0  0  0  0  0  0  0  0  0  0
    5.7320   -4.8350   23.5650 C   0  0  0  0  0  0  0  0  0  0  0  0
    6.3760   -3.5360   24.1530 C   0  0  0  0  0  0  0  0  0  0  0  0
    6.9010   -2.6840   23.1890 C   0  0  0  0  0  0  0  0  0  0  0  0
    7.6530   -3.3970   22.2550 C   0  0  0  0  0  0  0  0  0  0  0  0
  1  2  2  0
  2  3  1  0
  3  4  2  0
  4  5  1  0
  5  6  2  0
  6  7  1  0
  3  8  1  0
  7  8  2  0
  8  9  1  0
  2 10  1  0
 10 11  1  0
 11 12  1  0
 12 13  1  0
 13 14  1  0
 10 15  1  0
 14 15  1  0
M  END
