CON-WAB-e9a28e0b-2
     RDKit          3D

 28 31  0  0  0  0  0  0  0  0999 V2000
    3.7720   -5.3590   27.8410 O   0  0  0  0  0  0  0  0  0  0  0  0
    4.9370   -5.1380   27.5080 C   0  0  0  0  0  0  0  0  0  0  0  0
    5.3000   -4.6610   26.1380 C   0  0  0  0  0  0  0  0  0  0  0  0
    6.6660   -4.4680   25.9130 C   0  0  0  0  0  0  0  0  0  0  0  0
    7.2020   -3.6160   26.9200 N   0  0  0  0  0  0  0  0  0  0  0  0
    6.8650   -2.1750   26.7520 C   0  0  0  0  0  0  0  0  0  0  0  0
    7.4170   -1.6980   25.6270 C   0  0  0  0  0  0  0  0  0  0  0  0
    7.1120   -0.4600   25.0270 C   0  0  0  0  0  0  0  0  0  0  0  0
    7.6020    0.1640   23.8540 C   0  0  0  0  0  0  0  0  0  0  0  0
    8.6550   -0.6850   23.1200 C   0  0  0  0  0  0  0  0  0  0  0  0
    8.9860   -1.9690   23.7070 C   0  0  0  0  0  0  0  0  0  0  0  0
    8.3550   -2.4800   24.9900 C   0  0  0  0  0  0  0  0  0  0  0  0
    9.9220   -2.5950   22.8680 C   0  0  1  0  0  0  0  0  0  0  0  0
    9.0250   -2.3680   21.6930 C   0  0  0  0  0  0  0  0  0  0  0  0
    8.5490   -0.9910   21.5030 C   0  0  0  0  0  0  0  0  0  0  0  0
    9.2310    0.0550   21.6750 O   0  0  0  0  0  0  0  0  0  0  0  0
    7.2180   -0.8830   21.1170 N   0  0  0  0  0  0  0  0  0  0  0  0
    6.8090    0.2510   20.2940 C   0  0  2  0  0  0  0  0  0  0  0  0
    5.4670    0.5870   20.4270 C   0  0  0  0  0  0  0  0  0  0  0  0
    4.8980    1.3300   19.3930 C   0  0  0  0  0  0  0  0  0  0  0  0
    5.0900    0.8760   18.0900 C   0  0  0  0  0  0  0  0  0  0  0  0
    6.0220   -0.2310   17.9720 N   0  0  0  0  0  0  0  0  0  0  0  0
    7.1570   -0.0280   18.8260 C   0  0  0  0  0  0  0  0  0  0  0  0
   11.2210   -1.8850   22.5760 C   0  0  0  0  0  0  0  0  0  0  0  0
   10.9340   -0.9070   21.8130 C   0  0  0  0  0  0  0  0  0  0  0  0
    9.4590   -0.3710   21.8310 C   0  0  0  0  0  0  0  0  0  0  0  0
    7.0300   -4.1060   28.3100 C   0  0  0  0  0  0  0  0  0  0  0  0
    6.1060   -5.3130   28.4300 C   0  0  0  0  0  0  0  0  0  0  0  0
  1  2  2  0
  2  3  1  0
  3  4  1  0
  4  5  1  0
  5  6  1  0
  6  7  1  0
  7  8  2  0
  8  9  1  0
  9 10  2  0
 10 11  1  0
  7 12  1  0
 11 12  2  0
 11 13  1  0
 13 14  1  6
 14 15  1  0
 15 16  2  0
 15 17  1  0
 18 17  1  1
 18 19  1  0
 19 20  1  0
 20 21  1  0
 21 22  1  0
 18 23  1  0
 22 23  1  0
 13 24  1  0
 24 25  1  0
 10 26  1  0
 25 26  1  0
  5 27  1  0
  2 28  1  0
 27 28  1  0
M  END
