CON-WAB-0566ad60-1
     RDKit          3D

 30 33  0  0  0  0  0  0  0  0999 V2000
    9.0070   -6.9490   18.0880 O   0  0  0  0  0  0  0  0  0  0  0  0
    9.3650   -5.9760   18.6140 C   0  0  0  0  0  0  0  0  0  0  0  0
    9.8830   -4.9730   18.0860 C   0  0  0  0  0  0  0  0  0  0  0  0
   11.0370   -5.0830   18.7020 C   0  0  0  0  0  0  0  0  0  0  0  0
   11.0580   -3.9810   19.5190 N   0  0  0  0  0  0  0  0  0  0  0  0
   12.3340   -3.6940   20.2630 C   0  0  0  0  0  0  0  0  0  0  0  0
   12.2910   -2.7710   21.3830 C   0  0  0  0  0  0  0  0  0  0  0  0
   13.3530   -3.1300   22.2990 C   0  0  0  0  0  0  0  0  0  0  0  0
   13.4960   -2.3460   23.5300 C   0  0  0  0  0  0  0  0  0  0  0  0
   12.5050   -1.2470   23.6090 C   0  0  0  0  0  0  0  0  0  0  0  0
   11.4990   -0.9020   22.7270 C   0  0  0  0  0  0  0  0  0  0  0  0
   11.3990   -1.7480   21.5420 C   0  0  0  0  0  0  0  0  0  0  0  0
   10.5990    0.1310   22.8810 C   0  0  1  0  0  0  0  0  0  0  0  0
    9.1730   -0.2370   22.5820 C   0  0  0  0  0  0  0  0  0  0  0  0
    8.5090    0.4760   21.6050 C   0  0  0  0  0  0  0  0  0  0  0  0
    8.8180    1.6140   21.2440 O   0  0  0  0  0  0  0  0  0  0  0  0
    7.4590   -0.2240   21.0760 N   0  0  0  0  0  0  0  0  0  0  0  0
    6.6320    0.4800   20.1270 C   0  0  2  0  0  0  0  0  0  0  0  0
    5.3800    0.6900   20.6380 C   0  0  0  0  0  0  0  0  0  0  0  0
    4.5660    1.4190   19.7820 C   0  0  0  0  0  0  0  0  0  0  0  0
    4.6630    1.1060   18.4180 C   0  0  0  0  0  0  0  0  0  0  0  0
    5.9480    0.8040   18.0830 C   0  0  0  0  0  0  0  0  0  0  0  0
    6.5160    1.4250   17.0350 O   0  0  0  0  0  0  0  0  0  0  0  0
    6.5750   -0.1470   18.9060 C   0  0  0  0  0  0  0  0  0  0  0  0
   10.6710    0.5430   24.2840 C   0  0  0  0  0  0  0  0  0  0  0  0
   11.1520   -0.6120   24.7480 C   0  0  0  0  0  0  0  0  0  0  0  0
   10.5130   -1.6220   25.0820 O   0  0  0  0  0  0  0  0  0  0  0  0
   12.5640   -0.5060   24.6810 C   0  0  0  0  0  0  0  0  0  0  0  0
    9.6780   -4.2290   19.9190 C   0  0  0  0  0  0  0  0  0  0  0  0
    9.4340   -5.6930   19.8200 C   0  0  0  0  0  0  0  0  0  0  0  0
  1  2  2  0
  2  3  1  0
  3  4  1  0
  4  5  1  0
  5  6  1  0
  6  7  1  0
  7  8  2  0
  8  9  1  0
  9 10  2  0
 10 11  1  0
  7 12  1  0
 11 12  2  0
 11 13  1  0
 13 14  1  1
 14 15  1  0
 15 16  2  0
 15 17  1  0
 18 17  1  1
 18 19  1  0
 19 20  1  0
 20 21  1  0
 21 22  1  0
 22 23  2  0
 18 24  1  0
 22 24  1  0
 13 25  1  0
 25 26  1  0
 26 27  2  0
 10 28  1  0
 26 28  1  0
  5 29  1  0
  2 30  1  0
 29 30  1  0
M  END
