CON-WAB-e9a28e0b-1
     RDKit          3D

 27 30  0  0  0  0  0  0  0  0999 V2000
   12.0220    8.7590   25.1760 O   0  0  0  0  0  0  0  0  0  0  0  0
   11.7480    7.5780   25.0010 C   0  0  0  0  0  0  0  0  0  0  0  0
   11.7490    6.9250   23.6260 C   0  0  0  0  0  0  0  0  0  0  0  0
   11.9950    5.6030   23.5790 C   0  0  0  0  0  0  0  0  0  0  0  0
   11.1840    4.8090   24.5250 N   0  0  0  0  0  0  0  0  0  0  0  0
   10.3250    3.8150   23.8640 C   0  0  0  0  0  0  0  0  0  0  0  0
   10.8860    2.8040   22.8280 C   0  0  1  0  0  0  0  0  0  0  0  0
   12.2730    2.1680   22.9960 C   0  0  0  0  0  0  0  0  0  0  0  0
   12.0710    0.6620   23.1950 C   0  0  0  0  0  0  0  0  0  0  0  0
   13.1770   -0.3830   23.3170 C   0  0  0  0  0  0  0  0  0  0  0  0
   12.9430   -1.6830   22.9150 C   0  0  0  0  0  0  0  0  0  0  0  0
   11.4180   -2.0270   22.9720 C   0  0  0  0  0  0  0  0  0  0  0  0
   10.5930   -1.0490   22.4400 C   0  0  1  0  0  0  0  0  0  0  0  0
    9.1240   -1.3260   22.2700 C   0  0  0  0  0  0  0  0  0  0  0  0
    8.4370   -0.2890   21.6470 C   0  0  0  0  0  0  0  0  0  0  0  0
    8.9480    0.7770   21.3440 O   0  0  0  0  0  0  0  0  0  0  0  0
    7.1260   -0.5320   21.3640 N   0  0  0  0  0  0  0  0  0  0  0  0
    6.6190    0.2600   20.2630 C   0  0  2  0  0  0  0  0  0  0  0  0
    5.2740    0.5630   20.3180 C   0  0  0  0  0  0  0  0  0  0  0  0
    4.7880    1.3130   19.2440 C   0  0  0  0  0  0  0  0  0  0  0  0
    5.2440    1.0400   17.9410 C   0  0  0  0  0  0  0  0  0  0  0  0
    6.6410    0.6160   17.8950 N   0  0  0  0  0  0  0  0  0  0  0  0
    6.9010   -0.3680   18.9160 C   0  0  0  0  0  0  0  0  0  0  0  0
   10.6950    0.2410   23.2290 C   0  0  2  0  0  0  0  0  0  0  0  0
    9.9600    1.5370   22.7610 C   0  0  0  0  0  0  0  0  0  0  0  0
   10.4800    5.5980   25.5440 C   0  0  0  0  0  0  0  0  0  0  0  0
   11.3750    6.6730   26.1260 C   0  0  0  0  0  0  0  0  0  0  0  0
  1  2  2  0
  2  3  1  0
  3  4  1  0
  4  5  1  0
  5  6  1  0
  7  6  1  1
  7  8  1  0
  8  9  2  0
  9 10  1  0
 10 11  1  0
 11 12  1  0
 12 13  1  0
 13 14  1  1
 14 15  1  0
 15 16  2  0
 15 17  1  0
 18 17  1  1
 18 19  1  0
 19 20  1  0
 20 21  1  0
 21 22  1  0
 18 23  1  0
 22 23  1  0
  9 24  1  0
 13 24  1  0
  7 25  1  0
 24 25  1  6
  5 26  1  0
  2 27  1  0
 26 27  1  0
M  END
