CUN-WAB-25b584ee-2
     RDKit          3D

 19 21  0  0  0  0  0  0  0  0999 V2000
    9.0740    1.5910   21.2870 O   0  0  0  0  0  0  0  0  0  0  0  0
    9.1080    0.4520   21.7870 C   0  0  0  0  0  0  0  0  0  0  0  0
    8.1670   -0.5990   21.2800 C   0  0  0  0  0  0  0  0  0  0  0  0
    7.3980   -0.3420   20.2080 C   0  0  0  0  0  0  0  0  0  0  0  0
    7.4700   -0.6890   18.7550 C   0  0  0  0  0  0  0  0  0  0  0  0
    6.4420   -0.1480   18.0600 N   0  0  0  0  0  0  0  0  0  0  0  0
    5.6710    0.5300   18.9730 C   0  0  0  0  0  0  0  0  0  0  0  0
    4.4000    1.3090   18.7160 C   0  0  0  0  0  0  0  0  0  0  0  0
    3.5930    2.0370   19.8330 C   0  0  0  0  0  0  0  0  0  0  0  0
    4.1920    1.9130   21.2550 C   0  0  0  0  0  0  0  0  0  0  0  0
    5.3770    1.1790   21.4070 C   0  0  0  0  0  0  0  0  0  0  0  0
    6.1260    0.4840   20.2750 C   0  0  0  0  0  0  0  0  0  0  0  0
    9.9830    0.0160   22.8240 N   0  0  0  0  0  0  0  0  0  0  0  0
   11.3420   -0.2300   22.7280 C   0  0  0  0  0  0  0  0  0  0  0  0
   12.0930    0.8690   22.8600 C   0  0  0  0  0  0  0  0  0  0  0  0
   10.9510    1.4550   23.0230 C   0  0  0  0  0  0  0  0  0  0  0  0
    9.9370    0.4390   22.9450 C   0  0  0  0  0  0  0  0  0  0  0  0
   10.2300   -1.0170   22.6900 C   0  0  0  0  0  0  0  0  0  0  0  0
   11.5880   -1.4750   22.5200 C   0  0  0  0  0  0  0  0  0  0  0  0
  1  2  2  0
  2  3  1  0
  3  4  1  0
  4  5  2  0
  5  6  1  0
  6  7  1  0
  7  8  1  0
  8  9  2  0
  9 10  1  0
 10 11  2  0
  4 12  1  0
  7 12  2  0
 11 12  1  0
  2 13  1  0
 13 14  1  0
 14 15  2  0
 15 16  1  0
 16 17  2  0
 17 18  1  0
 14 19  1  0
 18 19  2  0
M  END
