DAN-RED-da448e80-6
     RDKit          3D

 25 27  0  0  0  0  0  0  0  0999 V2000
   11.3770    6.2260   26.5710 C   0  0  0  0  0  0  0  0  0  0  0  0
    9.7650    5.7410   25.9810 S   0  0  0  0  0  0  0  0  0  0  0  0
    8.9230    6.9150   25.9870 O   0  0  0  0  0  0  0  0  0  0  0  0
    9.3590    4.5310   26.6660 O   0  0  0  0  0  0  0  0  0  0  0  0
   10.1170    5.2950   24.3800 N   0  0  0  0  0  0  0  0  0  0  0  0
   11.0210    4.2490   24.2150 C   0  0  0  0  0  0  0  0  0  0  0  0
   10.8610    3.3490   23.0560 C   0  0  1  0  0  0  0  0  0  0  0  0
   11.8810    3.3830   22.2570 C   0  0  0  0  0  0  0  0  0  0  0  0
   12.6400    2.4540   22.2330 O   0  0  0  0  0  0  0  0  0  0  0  0
   11.9860    4.5230   21.6330 N   0  0  0  0  0  0  0  0  0  0  0  0
   13.2470    4.8480   21.7760 C   0  0  0  0  0  0  0  0  0  0  0  0
   13.4040    6.0280   22.3500 C   0  0  0  0  0  0  0  0  0  0  0  0
   12.2170    6.4100   22.8930 C   0  0  0  0  0  0  0  0  0  0  0  0
   11.8890    7.5430   23.8320 C   0  0  0  0  0  0  0  0  0  0  0  0
   10.4030    7.7260   24.1870 C   0  0  0  0  0  0  0  0  0  0  0  0
    9.4600    6.9230   23.6700 N   0  0  0  0  0  0  0  0  0  0  0  0
    9.8780    5.8410   22.7940 C   0  0  0  0  0  0  0  0  0  0  0  0
   11.2740    5.5720   22.4200 C   0  0  0  0  0  0  0  0  0  0  0  0
   10.1200    2.0240   23.2050 C   0  0  0  0  0  0  0  0  0  0  0  0
    9.6480    0.4930   23.3030 C   0  0  0  0  0  0  0  0  0  0  0  0
   10.9950   -0.4910   23.0470 C   0  0  0  0  0  0  0  0  0  0  0  0
   12.5460   -0.2610   22.7690 C   0  0  0  0  0  0  0  0  0  0  0  0
   13.4970   -1.1860   22.5740 F   0  0  0  0  0  0  0  0  0  0  0  0
   12.6090    1.1590   22.7980 C   0  0  0  0  0  0  0  0  0  0  0  0
   11.1820    1.0800   23.0260 C   0  0  0  0  0  0  0  0  0  0  0  0
  1  2  1  0
  2  3  2  0
  2  4  2  0
  2  5  1  0
  5  6  1  0
  7  6  1  1
  7  8  1  0
  8  9  2  0
  8 10  1  0
 10 11  1  0
 11 12  1  0
 12 13  1  0
 13 14  1  0
 14 15  2  0
 15 16  1  0
 16 17  2  0
 10 18  1  0
 13 18  2  0
 17 18  1  0
  7 19  1  0
 19 20  2  0
 20 21  1  0
 21 22  2  0
 22 23  1  0
 22 24  1  0
 19 25  1  0
 24 25  2  0
M  END
