DAN-RED-da448e80-10
     RDKit          3D

 25 27  0  0  0  0  0  0  0  0999 V2000
   11.9830    7.9190   25.0660 C   0  0  0  0  0  0  0  0  0  0  0  0
   10.4350    7.0410   25.1090 S   0  0  0  0  0  0  0  0  0  0  0  0
    9.4150    7.9290   24.6020 O   0  0  0  0  0  0  0  0  0  0  0  0
   10.3030    6.4490   26.4370 O   0  0  0  0  0  0  0  0  0  0  0  0
   10.6840    5.7750   23.9780 N   0  0  0  0  0  0  0  0  0  0  0  0
   11.4910    4.7460   24.3020 C   0  0  0  0  0  0  0  0  0  0  0  0
   11.7520    3.7130   23.4820 C   0  0  2  0  0  0  0  0  0  0  0  0
   11.6400    4.1050   22.1370 C   0  0  0  0  0  0  0  0  0  0  0  0
   10.8650    3.5390   21.4310 O   0  0  0  0  0  0  0  0  0  0  0  0
   12.5720    5.1970   21.9420 N   0  0  0  0  0  0  0  0  0  0  0  0
   12.8770    5.6050   20.5900 C   0  0  0  0  0  0  0  0  0  0  0  0
   14.0170    5.0530   19.9480 C   0  0  0  0  0  0  0  0  0  0  0  0
   14.6090    4.8570   21.2400 C   0  0  0  0  0  0  0  0  0  0  0  0
   15.9560    4.5870   21.3550 C   0  0  0  0  0  0  0  0  0  0  0  0
   16.6440    4.5110   22.4670 C   0  0  0  0  0  0  0  0  0  0  0  0
   15.9470    4.7040   23.5400 N   0  0  0  0  0  0  0  0  0  0  0  0
   14.5520    4.8820   23.3400 C   0  0  0  0  0  0  0  0  0  0  0  0
   13.9020    4.9750   22.2400 C   0  0  0  0  0  0  0  0  0  0  0  0
   10.9080    2.4960   23.8360 C   0  0  0  0  0  0  0  0  0  0  0  0
   10.8600    1.1320   23.8180 C   0  0  0  0  0  0  0  0  0  0  0  0
   12.1610    0.7350   23.1970 C   0  0  0  0  0  0  0  0  0  0  0  0
   11.8110   -0.5440   23.3240 C   0  0  0  0  0  0  0  0  0  0  0  0
   10.7850   -1.8530   23.7670 Cl  0  0  0  0  0  0  0  0  0  0  0  0
   10.8560    0.2290   23.7990 C   0  0  0  0  0  0  0  0  0  0  0  0
   11.6780    1.4250   23.4480 C   0  0  0  0  0  0  0  0  0  0  0  0
  1  2  1  0
  2  3  2  0
  2  4  2  0
  2  5  1  0
  5  6  1  0
  7  6  1  1
  7  8  1  0
  8  9  2  0
  8 10  1  0
 10 11  1  0
 11 12  1  0
 12 13  1  0
 13 14  1  0
 14 15  2  0
 15 16  1  0
 16 17  2  0
 10 18  1  0
 13 18  2  0
 17 18  1  0
  7 19  1  0
 19 20  2  0
 20 21  1  0
 21 22  2  0
 22 23  1  0
 22 24  1  0
 19 25  1  0
 24 25  2  0
M  END
