DAN-PUR-19f24f0c-1
     RDKit          3D

 11 11  0  0  0  0  0  0  0  0999 V2000
    2.7560    2.1860   24.4060 C   0  0  0  0  0  0  0  0  0  0  0  0
    3.7490    2.5330   23.3110 C   0  0  0  0  0  0  0  0  0  0  0  0
    4.9050    2.8550   23.5790 O   0  0  0  0  0  0  0  0  0  0  0  0
    3.2010    2.4480   21.9570 N   0  0  0  0  0  0  0  0  0  0  0  0
    4.0220    1.8330   20.9080 C   0  0  0  0  0  0  0  0  0  0  0  0
    3.7100    2.0130   19.5080 C   0  0  0  0  0  0  0  0  0  0  0  0
    4.8200    1.2180   19.2430 N   0  0  0  0  0  0  0  0  0  0  0  0
    5.4990    0.7070   18.1690 C   0  0  0  0  0  0  0  0  0  0  0  0
    5.9780    0.4140   19.6530 C   0  0  0  0  0  0  0  0  0  0  0  0
    7.1040   -0.3680   19.9060 N   0  0  0  0  0  0  0  0  0  0  0  0
    5.2160    0.9910   21.0080 C   0  0  0  0  0  0  0  0  0  0  0  0
  1  2  1  0
  2  3  2  0
  2  4  1  0
  4  5  1  0
  5  6  2  0
  6  7  1  0
  7  8  2  0
  8  9  1  0
  9 10  1  0
  5 11  1  0
  9 11  2  0
M  END
