DAN-RED-da448e80-5
     RDKit          3D

 24 25  0  0  0  0  0  0  0  0999 V2000
   11.5190    6.3130   26.4400 C   0  0  0  0  0  0  0  0  0  0  0  0
   10.5310    6.9520   25.4990 C   0  0  0  0  0  0  0  0  0  0  0  0
   10.1340    8.3450   25.7850 C   0  0  0  0  0  0  0  0  0  0  0  0
    9.2090    8.9930   24.9430 C   0  0  0  0  0  0  0  0  0  0  0  0
    8.7110    8.2700   23.8650 N   0  0  0  0  0  0  0  0  0  0  0  0
    9.0690    6.9690   23.5760 C   0  0  0  0  0  0  0  0  0  0  0  0
    9.9720    6.2900   24.3740 C   0  0  0  0  0  0  0  0  0  0  0  0
   10.2100    5.0000   23.9490 N   0  0  0  0  0  0  0  0  0  0  0  0
   11.5170    4.5420   23.8980 C   0  0  0  0  0  0  0  0  0  0  0  0
   12.4310    5.1110   24.4430 O   0  0  0  0  0  0  0  0  0  0  0  0
   11.9080    3.2780   23.1030 C   0  0  2  0  0  0  0  0  0  0  0  0
   11.7630    3.9140   21.7700 C   0  0  0  0  0  0  0  0  0  0  0  0
   11.6090    5.2090   21.9350 N   0  0  0  0  0  0  0  0  0  0  0  0
   13.0130    6.0030   22.4180 S   0  0  0  0  0  0  0  0  0  0  0  0
   12.4680    7.1800   23.5320 C   0  0  0  0  0  0  0  0  0  0  0  0
   13.4160    6.6760   21.2720 O   0  0  0  0  0  0  0  0  0  0  0  0
   13.9080    5.0320   23.0190 O   0  0  0  0  0  0  0  0  0  0  0  0
   10.7530    2.2760   23.0700 C   0  0  0  0  0  0  0  0  0  0  0  0
    9.9360    1.0960   23.0000 C   0  0  0  0  0  0  0  0  0  0  0  0
   11.0510   -0.0650   22.8140 C   0  0  0  0  0  0  0  0  0  0  0  0
   12.5940   -0.0360   22.7290 C   0  0  0  0  0  0  0  0  0  0  0  0
   13.3520   -1.1360   22.5560 F   0  0  0  0  0  0  0  0  0  0  0  0
   13.1010    1.3540   22.8620 C   0  0  0  0  0  0  0  0  0  0  0  0
   11.6250    1.2390   22.9230 C   0  0  0  0  0  0  0  0  0  0  0  0
  1  2  1  0
  2  3  2  0
  3  4  1  0
  4  5  2  0
  5  6  1  0
  2  7  1  0
  6  7  2  0
  7  8  1  0
  8  9  1  0
  9 10  2  0
  9 11  1  0
 11 12  1  6
 12 13  1  0
 14 13  1  0
 14 15  1  0
 14 16  2  0
 14 17  2  0
 11 18  1  0
 18 19  2  0
 19 20  1  0
 20 21  2  0
 21 22  1  0
 21 23  1  0
 18 24  1  0
 23 24  2  0
M  END
