DAN-RED-da448e80-2
     RDKit          3D

 24 26  0  0  0  0  0  0  0  0999 V2000
   11.3380    6.2380   26.8430 C   0  0  0  0  0  0  0  0  0  0  0  0
    9.8950    5.7170   25.9410 S   0  0  0  0  0  0  0  0  0  0  0  0
    8.9920    6.8430   25.8750 O   0  0  0  0  0  0  0  0  0  0  0  0
    9.4410    4.4520   26.4750 O   0  0  0  0  0  0  0  0  0  0  0  0
   10.5480    5.3970   24.4050 N   0  0  0  0  0  0  0  0  0  0  0  0
   11.1040    4.1300   24.1970 C   0  0  0  0  0  0  0  0  0  0  0  0
   10.4010    3.3250   23.2330 C   0  0  1  0  0  0  0  0  0  0  0  0
   10.5320    3.7410   22.0310 C   0  0  0  0  0  0  0  0  0  0  0  0
    9.8690    3.0690   21.2140 O   0  0  0  0  0  0  0  0  0  0  0  0
   11.2590    4.8770   21.8400 N   0  0  0  0  0  0  0  0  0  0  0  0
   12.5960    4.7410   22.0240 C   0  0  0  0  0  0  0  0  0  0  0  0
   13.1200    5.5900   22.9690 C   0  0  0  0  0  0  0  0  0  0  0  0
   12.0550    6.3840   23.3960 C   0  0  0  0  0  0  0  0  0  0  0  0
   12.0110    7.4970   24.4360 C   0  0  0  0  0  0  0  0  0  0  0  0
   10.6640    8.1780   24.6740 C   0  0  0  0  0  0  0  0  0  0  0  0
    9.5610    7.8260   23.9760 N   0  0  0  0  0  0  0  0  0  0  0  0
    9.6710    6.7520   22.9970 C   0  0  0  0  0  0  0  0  0  0  0  0
   10.9130    6.0200   22.7170 C   0  0  0  0  0  0  0  0  0  0  0  0
   10.3350    1.8090   23.2530 C   0  0  0  0  0  0  0  0  0  0  0  0
   10.8760    0.3060   23.1900 C   0  0  0  0  0  0  0  0  0  0  0  0
   12.3880    0.8910   22.9770 C   0  0  0  0  0  0  0  0  0  0  0  0
   12.7050   -0.6530   22.9540 C   0  0  0  0  0  0  0  0  0  0  0  0
   11.4660   -0.0620   23.1190 C   0  0  0  0  0  0  0  0  0  0  0  0
   11.6760    1.4540   23.0650 C   0  0  0  0  0  0  0  0  0  0  0  0
  1  2  1  0
  2  3  2  0
  2  4  2  0
  2  5  1  0
  5  6  1  0
  7  6  1  1
  7  8  1  0
  8  9  2  0
  8 10  1  0
 10 11  1  0
 11 12  1  0
 12 13  1  0
 13 14  1  0
 14 15  2  0
 15 16  1  0
 16 17  2  0
 10 18  1  0
 13 18  2  0
 17 18  1  0
  7 19  1  0
 19 20  2  0
 20 21  1  0
 21 22  2  0
 22 23  1  0
 19 24  1  0
 23 24  2  0
M  END
