DAN-RED-da448e80-16
     RDKit          3D

 27 29  0  0  0  0  0  0  0  0999 V2000
   11.1410   -2.0990   21.6270 C   0  0  0  0  0  0  0  0  0  0  0  0
   11.7800   -1.9070   22.8650 O   0  0  0  0  0  0  0  0  0  0  0  0
   12.4080   -0.7130   23.0630 C   0  0  0  0  0  0  0  0  0  0  0  0
   12.3130    0.6470   23.1730 C   0  0  0  0  0  0  0  0  0  0  0  0
   10.6710    0.4710   22.9010 C   0  0  0  0  0  0  0  0  0  0  0  0
   10.4910    2.0200   23.0730 C   0  0  0  0  0  0  0  0  0  0  0  0
   11.2220    3.3050   23.3780 C   0  0  1  0  0  0  0  0  0  0  0  0
   10.9560    4.3160   22.3110 C   0  0  0  0  0  0  0  0  0  0  0  0
    9.6320    4.6840   22.3810 N   0  0  0  0  0  0  0  0  0  0  0  0
    8.3550    3.5630   22.2090 S   0  0  0  0  0  0  0  0  0  0  0  0
    8.2220    2.7260   23.7790 C   0  0  0  0  0  0  0  0  0  0  0  0
    7.1570    4.3710   22.0820 O   0  0  0  0  0  0  0  0  0  0  0  0
    8.6560    2.5670   21.1920 O   0  0  0  0  0  0  0  0  0  0  0  0
   10.5820    4.0640   24.6160 C   0  0  0  0  0  0  0  0  0  0  0  0
    9.5510    3.7820   25.2320 O   0  0  0  0  0  0  0  0  0  0  0  0
   11.3840    5.1890   24.9500 N   0  0  0  0  0  0  0  0  0  0  0  0
   10.7850    6.3780   25.5990 C   0  0  0  0  0  0  0  0  0  0  0  0
   10.8250    7.5500   24.8520 C   0  0  0  0  0  0  0  0  0  0  0  0
   12.0900    7.7620   24.1940 O   0  0  0  0  0  0  0  0  0  0  0  0
   12.4990    6.6350   23.5390 C   0  0  0  0  0  0  0  0  0  0  0  0
   13.2910    6.7060   22.4370 C   0  0  0  0  0  0  0  0  0  0  0  0
   13.7440    5.6070   21.7070 C   0  0  0  0  0  0  0  0  0  0  0  0
   13.3990    4.3820   22.1020 N   0  0  0  0  0  0  0  0  0  0  0  0
   12.6020    4.2990   23.2100 C   0  0  0  0  0  0  0  0  0  0  0  0
   12.1560    5.3970   23.9200 C   0  0  0  0  0  0  0  0  0  0  0  0
   11.6730    1.2740   23.1480 C   0  0  0  0  0  0  0  0  0  0  0  0
   11.3320   -0.0780   22.9650 C   0  0  0  0  0  0  0  0  0  0  0  0
  1  2  1  0
  2  3  1  0
  3  4  2  0
  4  5  1  0
  5  6  2  0
  6  7  1  0
  7  8  1  6
  8  9  1  0
 10  9  1  0
 10 11  1  0
 10 12  2  0
 10 13  2  0
  7 14  1  0
 14 15  2  0
 14 16  1  0
 16 17  1  0
 17 18  1  0
 18 19  1  0
 19 20  1  0
 20 21  2  0
 21 22  1  0
 22 23  2  0
 23 24  1  0
 16 25  1  0
 20 25  1  0
 24 25  2  0
  6 26  1  0
  3 27  1  0
 26 27  2  0
M  END
