DAN-RED-da448e80-15
     RDKit          3D

 27 29  0  0  0  0  0  0  0  0999 V2000
    9.1110   -2.8350   23.7050 C   0  0  0  0  0  0  0  0  0  0  0  0
    9.8020   -1.7600   24.3280 O   0  0  0  0  0  0  0  0  0  0  0  0
   10.6080   -1.0270   23.5090 C   0  0  0  0  0  0  0  0  0  0  0  0
   11.0760    0.1830   23.1010 C   0  0  0  0  0  0  0  0  0  0  0  0
   10.0750    0.8280   24.2760 C   0  0  0  0  0  0  0  0  0  0  0  0
   10.5480    2.2540   23.8470 C   0  0  0  0  0  0  0  0  0  0  0  0
   11.4330    3.0000   22.9010 C   0  0  1  0  0  0  0  0  0  0  0  0
   11.6940    4.4780   23.3460 C   0  0  0  0  0  0  0  0  0  0  0  0
   10.7880    5.3500   22.7760 N   0  0  0  0  0  0  0  0  0  0  0  0
    9.3630    5.7020   23.5870 S   0  0  0  0  0  0  0  0  0  0  0  0
    8.4170    4.2260   23.2630 C   0  0  0  0  0  0  0  0  0  0  0  0
    9.6820    5.7500   24.9980 O   0  0  0  0  0  0  0  0  0  0  0  0
    8.7270    6.8270   22.9340 O   0  0  0  0  0  0  0  0  0  0  0  0
   12.7410    2.2310   22.9390 C   0  0  0  0  0  0  0  0  0  0  0  0
   12.8910    1.0750   23.3420 O   0  0  0  0  0  0  0  0  0  0  0  0
   13.8350    2.9700   22.4680 N   0  0  0  0  0  0  0  0  0  0  0  0
   13.4710    4.3750   22.4370 C   0  0  0  0  0  0  0  0  0  0  0  0
   14.5640    5.1320   22.5060 C   0  0  0  0  0  0  0  0  0  0  0  0
   15.5990    4.6520   21.5500 C   0  0  0  0  0  0  0  0  0  0  0  0
   15.5250    3.4220   20.9830 C   0  0  0  0  0  0  0  0  0  0  0  0
   16.3830    2.9670   19.7640 C   0  0  0  0  0  0  0  0  0  0  0  0
   16.4260    1.7480   19.1340 C   0  0  0  0  0  0  0  0  0  0  0  0
   15.5760    0.8580   19.6520 N   0  0  0  0  0  0  0  0  0  0  0  0
   14.6250    1.3470   20.8600 C   0  0  0  0  0  0  0  0  0  0  0  0
   14.6380    2.5670   21.4690 C   0  0  0  0  0  0  0  0  0  0  0  0
   10.9080    1.1420   23.3590 C   0  0  0  0  0  0  0  0  0  0  0  0
   10.2230    0.0750   24.0390 C   0  0  0  0  0  0  0  0  0  0  0  0
  1  2  1  0
  2  3  1  0
  3  4  2  0
  4  5  1  0
  5  6  2  0
  6  7  1  0
  7  8  1  1
  8  9  1  0
 10  9  1  0
 10 11  1  0
 10 12  2  0
 10 13  2  0
  7 14  1  0
 14 15  2  0
 14 16  1  0
 16 17  1  0
 17 18  1  0
 18 19  1  0
 19 20  1  0
 20 21  2  0
 21 22  1  0
 22 23  2  0
 23 24  1  0
 16 25  1  0
 20 25  1  0
 24 25  2  0
  6 26  1  0
  3 27  1  0
 26 27  2  0
M  END
