DAN-RED-da448e80-20
     RDKit          3D

 24 26  0  0  0  0  0  0  0  0999 V2000
    7.2380   -2.0030   18.3630 C   0  0  0  0  0  0  0  0  0  0  0  0
    7.4410   -2.2840   20.0760 S   0  0  0  0  0  0  0  0  0  0  0  0
    8.6940   -2.8240   20.5350 O   0  0  0  0  0  0  0  0  0  0  0  0
    6.2060   -2.9260   20.4170 O   0  0  0  0  0  0  0  0  0  0  0  0
    7.4050   -0.6610   20.4230 N   0  0  0  0  0  0  0  0  0  0  0  0
    6.2940   -0.0930   19.7550 C   0  0  0  0  0  0  0  0  0  0  0  0
    5.2570   -0.8410   20.1210 C   0  0  1  0  0  0  0  0  0  0  0  0
    5.5510   -2.1500   20.9840 C   0  0  0  0  0  0  0  0  0  0  0  0
    4.9250   -3.2410   20.7930 O   0  0  0  0  0  0  0  0  0  0  0  0
    6.6290   -2.0930   22.0320 N   0  0  0  0  0  0  0  0  0  0  0  0
    6.7050   -3.4920   22.5340 C   0  0  0  0  0  0  0  0  0  0  0  0
    7.1220   -3.5920   23.8560 C   0  0  0  0  0  0  0  0  0  0  0  0
    7.4200   -2.2850   24.2880 O   0  0  0  0  0  0  0  0  0  0  0  0
    8.3030   -1.7610   23.3790 C   0  0  0  0  0  0  0  0  0  0  0  0
    9.7190   -1.4120   24.1340 C   0  0  0  0  0  0  0  0  0  0  0  0
   10.8400   -0.8160   23.2960 C   0  0  0  0  0  0  0  0  0  0  0  0
    9.7070   -1.1410   22.9080 N   0  0  0  0  0  0  0  0  0  0  0  0
    9.1610   -1.0890   21.8230 C   0  0  0  0  0  0  0  0  0  0  0  0
    7.8860   -1.5620   21.7930 C   0  0  0  0  0  0  0  0  0  0  0  0
    4.4430    0.2340   20.8310 C   0  0  0  0  0  0  0  0  0  0  0  0
    4.4480    0.5910   22.2370 C   0  0  0  0  0  0  0  0  0  0  0  0
    3.5970    1.6320   22.5180 C   0  0  0  0  0  0  0  0  0  0  0  0
    2.9100    2.1390   21.4440 C   0  0  0  0  0  0  0  0  0  0  0  0
    3.3260    1.2970   20.0060 S   0  0  0  0  0  0  0  0  0  0  0  0
  1  2  1  0
  2  3  2  0
  2  4  2  0
  2  5  1  0
  5  6  1  0
  7  6  1  1
  7  8  1  0
  8  9  2  0
  8 10  1  0
 10 11  1  0
 11 12  1  0
 12 13  1  0
 13 14  1  0
 14 15  2  0
 15 16  1  0
 16 17  2  0
 17 18  1  0
 10 19  1  0
 14 19  1  0
 18 19  2  0
  7 20  1  0
 20 21  2  0
 21 22  1  0
 22 23  2  0
 20 24  1  0
 23 24  1  0
M  END
