DAN-RED-da448e80-11
     RDKit          3D

 26 28  0  0  0  0  0  0  0  0999 V2000
    7.7370    2.7500   23.4240 C   0  0  0  0  0  0  0  0  0  0  0  0
    8.2540    3.5270   21.9140 S   0  0  0  0  0  0  0  0  0  0  0  0
    8.6710    2.4300   21.0610 O   0  0  0  0  0  0  0  0  0  0  0  0
    7.1270    4.3560   21.5470 O   0  0  0  0  0  0  0  0  0  0  0  0
    9.5650    4.5940   22.2580 N   0  0  0  0  0  0  0  0  0  0  0  0
   10.9550    4.0720   22.3330 C   0  0  0  0  0  0  0  0  0  0  0  0
   10.9740    3.1530   23.3050 C   0  0  1  0  0  0  0  0  0  0  0  0
    9.8690    3.2840   24.1290 C   0  0  0  0  0  0  0  0  0  0  0  0
    9.3200    2.3100   24.6450 O   0  0  0  0  0  0  0  0  0  0  0  0
    9.4830    4.7150   24.3170 N   0  0  0  0  0  0  0  0  0  0  0  0
    8.2420    4.9840   25.0540 C   0  0  0  0  0  0  0  0  0  0  0  0
    8.1940    6.2320   25.9130 C   0  0  0  0  0  0  0  0  0  0  0  0
    9.5680    6.8260   26.2970 C   0  0  0  0  0  0  0  0  0  0  0  0
   10.5530    6.8150   25.1550 C   0  0  0  0  0  0  0  0  0  0  0  0
   11.5850    7.8460   24.9770 C   0  0  0  0  0  0  0  0  0  0  0  0
   12.4590    7.8460   23.9650 C   0  0  0  0  0  0  0  0  0  0  0  0
   12.3970    6.7630   22.9830 N   0  0  0  0  0  0  0  0  0  0  0  0
   11.4350    5.8530   23.1950 C   0  0  0  0  0  0  0  0  0  0  0  0
   10.4810    5.7800   24.2190 C   0  0  0  0  0  0  0  0  0  0  0  0
   10.8340    1.7810   22.7430 C   0  0  0  0  0  0  0  0  0  0  0  0
   11.1440    0.4830   22.8860 C   0  0  0  0  0  0  0  0  0  0  0  0
   11.9900    0.1750   24.0560 C   0  0  0  0  0  0  0  0  0  0  0  0
   12.2850   -1.1350   24.2130 C   0  0  0  0  0  0  0  0  0  0  0  0
   12.0190   -2.6570   23.5090 Cl  0  0  0  0  0  0  0  0  0  0  0  0
   11.5810   -0.4280   23.3400 C   0  0  0  0  0  0  0  0  0  0  0  0
   11.5480    1.1310   23.6370 C   0  0  0  0  0  0  0  0  0  0  0  0
  1  2  1  0
  2  3  2  0
  2  4  2  0
  2  5  1  0
  5  6  1  0
  7  6  1  6
  7  8  1  0
  8  9  2  0
  8 10  1  0
 10 11  1  0
 11 12  1  0
 12 13  1  0
 13 14  1  0
 14 15  2  0
 15 16  1  0
 16 17  2  0
 17 18  1  0
 10 19  1  0
 14 19  1  0
 18 19  2  0
  7 20  1  0
 20 21  2  0
 21 22  1  0
 22 23  2  0
 23 24  1  0
 23 25  1  0
 20 26  1  0
 25 26  2  0
M  END
