DAN-RED-da448e80-4
     RDKit          3D

 25 27  0  0  0  0  0  0  0  0999 V2000
    8.6510    2.4210   24.0120 C   0  0  0  0  0  0  0  0  0  0  0  0
    8.7220    3.3580   22.5560 S   0  0  0  0  0  0  0  0  0  0  0  0
    8.9370    2.4380   21.4450 O   0  0  0  0  0  0  0  0  0  0  0  0
    7.5650    4.2220   22.5670 O   0  0  0  0  0  0  0  0  0  0  0  0
   10.0710    4.3560   22.6370 N   0  0  0  0  0  0  0  0  0  0  0  0
   11.1010    3.9960   23.5850 C   0  0  0  0  0  0  0  0  0  0  0  0
   12.0170    3.2120   22.9130 C   0  0  1  0  0  0  0  0  0  0  0  0
   13.2590    4.0320   22.6700 C   0  0  0  0  0  0  0  0  0  0  0  0
   13.2070    5.2560   22.8440 O   0  0  0  0  0  0  0  0  0  0  0  0
   14.5180    3.4200   22.2100 N   0  0  0  0  0  0  0  0  0  0  0  0
   15.4610    4.3160   21.7950 C   0  0  0  0  0  0  0  0  0  0  0  0
   15.8060    4.5950   20.2760 C   0  0  0  0  0  0  0  0  0  0  0  0
   16.2870    3.5290   19.6570 O   0  0  0  0  0  0  0  0  0  0  0  0
   15.5570    2.5660   20.1530 C   0  0  0  0  0  0  0  0  0  0  0  0
   15.6250    1.2430   19.2780 C   0  0  0  0  0  0  0  0  0  0  0  0
   14.6490   -0.0850   19.7110 C   0  0  0  0  0  0  0  0  0  0  0  0
   13.8750    0.0260   21.0460 N   0  0  0  0  0  0  0  0  0  0  0  0
   13.9100    1.1830   21.8130 C   0  0  0  0  0  0  0  0  0  0  0  0
   14.6630    2.4530   21.4430 C   0  0  0  0  0  0  0  0  0  0  0  0
   12.2030    1.9080   23.6830 C   0  0  0  0  0  0  0  0  0  0  0  0
   11.8580    0.5350   23.9800 C   0  0  0  0  0  0  0  0  0  0  0  0
   10.7810    0.5970   22.9020 C   0  0  0  0  0  0  0  0  0  0  0  0
   10.4540   -0.7660   23.2280 C   0  0  0  0  0  0  0  0  0  0  0  0
   11.3670   -0.1690   23.8430 C   0  0  0  0  0  0  0  0  0  0  0  0
   11.3070    1.2190   23.1390 C   0  0  0  0  0  0  0  0  0  0  0  0
  1  2  1  0
  2  3  2  0
  2  4  2  0
  2  5  1  0
  5  6  1  0
  7  6  1  1
  7  8  1  0
  8  9  2  0
  8 10  1  0
 10 11  1  0
 11 12  1  0
 12 13  1  0
 13 14  1  0
 14 15  2  0
 15 16  1  0
 16 17  2  0
 17 18  1  0
 10 19  1  0
 14 19  1  0
 18 19  2  0
  7 20  1  0
 20 21  2  0
 21 22  1  0
 22 23  2  0
 23 24  1  0
 20 25  1  0
 24 25  2  0
M  END
