DAR-DIA-842b4336-13
     RDKit          3D

 16 17  0  0  0  0  0  0  0  0999 V2000
    9.1680    1.7720   21.2900 O   0  0  0  0  0  0  0  0  0  0  0  0
    8.8470    0.6880   21.7860 C   0  0  0  0  0  0  0  0  0  0  0  0
    9.4890    0.2050   23.0610 C   0  0  0  0  0  0  0  0  0  0  0  0
   10.9000   -0.3170   22.8690 C   0  0  0  0  0  0  0  0  0  0  0  0
   11.3360   -1.8380   22.6320 C   0  0  0  0  0  0  0  0  0  0  0  0
   12.8170   -1.8640   22.5020 C   0  0  0  0  0  0  0  0  0  0  0  0
   13.1030   -0.5950   22.6440 C   0  0  0  0  0  0  0  0  0  0  0  0
   11.4190   -0.7880   22.7790 Cl  0  0  0  0  0  0  0  0  0  0  0  0
   12.2870    0.8050   22.8990 S   0  0  0  0  0  0  0  0  0  0  0  0
    7.8260   -0.2000   21.2430 N   0  0  0  0  0  0  0  0  0  0  0  0
    6.9860    0.1780   20.1900 C   0  0  0  0  0  0  0  0  0  0  0  0
    5.9420    1.0750   20.4750 C   0  0  0  0  0  0  0  0  0  0  0  0
    5.0240    1.5270   19.3780 C   0  0  0  0  0  0  0  0  0  0  0  0
    5.2700    1.0190   18.1200 C   0  0  0  0  0  0  0  0  0  0  0  0
    6.2710    0.1580   17.8640 N   0  0  0  0  0  0  0  0  0  0  0  0
    7.0910   -0.2420   18.8730 C   0  0  0  0  0  0  0  0  0  0  0  0
  1  2  2  0
  2  3  1  0
  3  4  1  0
  4  5  2  0
  5  6  1  0
  6  7  2  0
  7  8  1  0
  4  9  1  0
  7  9  1  0
  2 10  1  0
 10 11  1  0
 11 12  2  0
 12 13  1  0
 13 14  2  0
 14 15  1  0
 11 16  1  0
 15 16  2  0
M  END
