DAR-DIA-842b4336-1
     RDKit          3D

 15 16  0  0  0  0  0  0  0  0999 V2000
    9.2060    1.2120   21.4230 O   0  0  0  0  0  0  0  0  0  0  0  0
    8.7140    0.1200   21.7510 C   0  0  0  0  0  0  0  0  0  0  0  0
    7.5690   -0.4380   21.2020 N   0  0  0  0  0  0  0  0  0  0  0  0
    6.7720    0.0950   20.1710 C   0  0  0  0  0  0  0  0  0  0  0  0
    5.6430    0.9340   20.5560 C   0  0  0  0  0  0  0  0  0  0  0  0
    4.8560    1.4720   19.5450 C   0  0  0  0  0  0  0  0  0  0  0  0
    5.2010    1.1730   18.2370 C   0  0  0  0  0  0  0  0  0  0  0  0
    6.2420    0.3910   17.8070 N   0  0  0  0  0  0  0  0  0  0  0  0
    7.0120   -0.1370   18.8050 C   0  0  0  0  0  0  0  0  0  0  0  0
    9.1860   -0.7660   22.7280 N   0  0  0  0  0  0  0  0  0  0  0  0
   10.5040   -1.1950   23.0230 C   0  0  0  0  0  0  0  0  0  0  0  0
   11.5480   -1.5850   22.0020 C   0  0  0  0  0  0  0  0  0  0  0  0
   12.8070   -1.9740   22.7300 C   0  0  0  0  0  0  0  0  0  0  0  0
   12.7370   -1.8960   24.4200 S   0  0  0  0  0  0  0  0  0  0  0  0
   11.0940   -1.3560   24.3430 C   0  0  0  0  0  0  0  0  0  0  0  0
  1  2  2  0
  2  3  1  0
  3  4  1  0
  4  5  2  0
  5  6  1  0
  6  7  2  0
  7  8  1  0
  4  9  1  0
  8  9  2  0
  2 10  1  0
 10 11  1  0
 11 12  1  0
 12 13  2  0
 13 14  1  0
 11 15  2  0
 14 15  1  0
M  END
