DAR-DIA-43a5904b-2
     RDKit          3D

 22 24  0  0  0  0  0  0  0  0999 V2000
   10.1960    3.2410   22.4740 N   0  0  0  0  0  0  0  0  0  0  0  0
    9.2810    2.0970   22.3290 C   0  0  0  0  0  0  0  0  0  0  0  0
    8.7830    1.7030   21.0570 O   0  0  0  0  0  0  0  0  0  0  0  0
    8.8280    1.3750   23.4590 C   0  0  1  0  0  0  0  0  0  0  0  0
    7.4140    1.1810   23.4270 C   0  0  0  0  0  0  0  0  0  0  0  0
    7.1520   -0.0800   22.8870 C   0  0  0  0  0  0  0  0  0  0  0  0
    6.0190   -0.6020   22.3900 C   0  0  0  0  0  0  0  0  0  0  0  0
    5.7450   -0.2260   20.9910 C   0  0  0  0  0  0  0  0  0  0  0  0
    4.6680    0.6090   20.6220 C   0  0  0  0  0  0  0  0  0  0  0  0
    4.4050    0.9670   19.2950 C   0  0  0  0  0  0  0  0  0  0  0  0
    5.2550    0.4700   18.3130 C   0  0  0  0  0  0  0  0  0  0  0  0
    6.3300   -0.3470   18.5720 N   0  0  0  0  0  0  0  0  0  0  0  0
    6.5690   -0.6960   19.9580 C   0  0  0  0  0  0  0  0  0  0  0  0
    8.2710   -0.8430   22.8870 C   0  0  0  0  0  0  0  0  0  0  0  0
    9.3060   -0.1140   23.4240 C   0  0  1  0  0  0  0  0  0  0  0  0
   10.5900   -0.4190   22.9500 C   0  0  0  0  0  0  0  0  0  0  0  0
   11.7700    0.4880   23.0510 C   0  0  0  0  0  0  0  0  0  0  0  0
   12.9480   -0.0550   22.4870 C   0  0  0  0  0  0  0  0  0  0  0  0
   13.3420   -1.1880   21.8510 C   0  0  0  0  0  0  0  0  0  0  0  0
   12.1460   -1.6620   21.9610 C   0  0  0  0  0  0  0  0  0  0  0  0
   11.0210   -0.4370   22.8640 Br  0  0  0  0  0  0  0  0  0  0  0  0
   10.7920   -1.6960   22.3190 C   0  0  0  0  0  0  0  0  0  0  0  0
  1  2  1  0
  2  3  2  0
  4  2  1  6
  4  5  1  0
  5  6  1  0
  6  7  1  0
  7  8  1  0
  8  9  2  0
  9 10  1  0
 10 11  2  0
 11 12  1  0
  8 13  1  0
 12 13  2  0
  6 14  2  0
  4 15  1  0
 14 15  1  0
 15 16  1  6
 16 17  2  0
 17 18  1  0
 18 19  2  0
 19 20  1  0
 20 21  1  0
 16 22  1  0
 20 22  2  0
M  END
