DAR-DIA-fc970077-9
     RDKit          3D

 19 20  0  0  0  0  0  0  0  0999 V2000
    7.1900   -2.7040   22.7860 C   0  0  0  0  0  0  0  0  0  0  0  0
    6.4330   -2.1260   21.7650 C   0  0  0  0  0  0  0  0  0  0  0  0
    5.3740   -2.6310   21.3840 O   0  0  0  0  0  0  0  0  0  0  0  0
    7.0190   -0.8740   21.1980 N   0  0  0  0  0  0  0  0  0  0  0  0
    8.4240   -0.5990   21.5700 C   0  0  0  0  0  0  0  0  0  0  0  0
    8.8560    0.6720   21.3460 O   0  0  0  0  0  0  0  0  0  0  0  0
    9.2410   -1.4940   22.0970 N   0  0  0  0  0  0  0  0  0  0  0  0
   10.3650   -0.8310   22.5180 C   0  0  0  0  0  0  0  0  0  0  0  0
   10.5110    0.4020   23.3460 C   0  0  0  0  0  0  0  0  0  0  0  0
   11.8010    0.8520   23.6110 C   0  0  0  0  0  0  0  0  0  0  0  0
   12.9140    0.1930   23.1330 C   0  0  0  0  0  0  0  0  0  0  0  0
   12.8170   -0.9520   22.3700 C   0  0  0  0  0  0  0  0  0  0  0  0
   11.5410   -1.4330   22.0830 C   0  0  0  0  0  0  0  0  0  0  0  0
    6.3520   -0.1150   20.1710 C   0  0  0  0  0  0  0  0  0  0  0  0
    5.1820    0.6230   20.3390 C   0  0  0  0  0  0  0  0  0  0  0  0
    4.6270    1.3300   19.2570 C   0  0  0  0  0  0  0  0  0  0  0  0
    5.2760    1.2690   18.0390 C   0  0  0  0  0  0  0  0  0  0  0  0
    6.4060    0.5700   17.8240 N   0  0  0  0  0  0  0  0  0  0  0  0
    6.9160   -0.1030   18.8790 C   0  0  0  0  0  0  0  0  0  0  0  0
  1  2  1  0
  2  3  2  0
  2  4  1  0
  4  5  1  0
  5  6  2  0
  5  7  1  0
  7  8  1  0
  8  9  2  0
  9 10  1  0
 10 11  2  0
 11 12  1  0
  8 13  1  0
 12 13  2  0
  4 14  1  0
 14 15  2  0
 15 16  1  0
 16 17  2  0
 17 18  1  0
 14 19  1  0
 18 19  2  0
M  END
