DAR-DIA-a80d16a0-2
     RDKit          3D

 21 23  0  0  0  0  0  0  0  0999 V2000
    8.7790   -0.9020   26.1240 C   0  0  0  0  0  0  0  0  0  0  0  0
    8.3430   -1.9960   25.3810 N   0  0  0  0  0  0  0  0  0  0  0  0
    8.4710   -2.2370   23.9890 C   0  0  0  0  0  0  0  0  0  0  0  0
    8.7150   -1.2260   23.0440 C   0  0  0  0  0  0  0  0  0  0  0  0
   10.0260   -0.7000   23.0810 N   0  0  0  0  0  0  0  0  0  0  0  0
   11.1460   -1.3500   22.4480 C   0  0  0  0  0  0  0  0  0  0  0  0
   12.2850   -0.5610   22.4230 C   0  0  0  0  0  0  0  0  0  0  0  0
   13.3980   -1.0580   21.8760 F   0  0  0  0  0  0  0  0  0  0  0  0
   12.2840    0.7290   22.9490 C   0  0  0  0  0  0  0  0  0  0  0  0
   11.1280    1.1800   23.5910 C   0  0  1  0  0  0  0  0  0  0  0  0
   10.3780    2.2510   23.0580 C   0  0  0  0  0  0  0  0  0  0  0  0
   10.8370    3.5350   23.3520 C   0  0  0  0  0  0  0  0  0  0  0  0
   10.1180    4.4380   24.1370 C   0  0  0  0  0  0  0  0  0  0  0  0
   10.6040    5.6920   24.4170 C   0  0  0  0  0  0  0  0  0  0  0  0
   11.9110    6.2500   23.9450 C   0  0  0  0  0  0  0  0  0  0  0  0
   12.1460    7.6740   24.4500 C   0  0  0  0  0  0  0  0  0  0  0  0
   12.6900    5.4150   23.1490 C   0  0  0  0  0  0  0  0  0  0  0  0
   12.2040    4.0170   22.8080 C   0  0  0  0  0  0  0  0  0  0  0  0
    9.4460    2.3860   21.9660 C   0  0  0  0  0  0  0  0  0  0  0  0
    8.9840    2.0810   23.3180 C   0  0  0  0  0  0  0  0  0  0  0  0
   10.2920    0.1960   24.0860 C   0  0  0  0  0  0  0  0  0  0  0  0
  1  2  1  0
  2  3  1  0
  3  4  1  0
  4  5  1  0
  5  6  1  0
  6  7  2  0
  7  8  1  0
  7  9  1  0
  9 10  1  0
 10 11  1  6
 11 12  1  0
 12 13  2  0
 13 14  1  0
 14 15  2  0
 15 16  1  0
 15 17  1  0
 12 18  1  0
 17 18  2  0
 11 19  1  0
 11 20  1  0
 19 20  1  0
  5 21  1  0
 10 21  1  0
M  END
