DAR-DIA-eace69ff-20
     RDKit          3D

 23 25  0  0  0  0  0  0  0  0999 V2000
   13.2360   -2.1490   20.9710 C   0  0  0  0  0  0  0  0  0  0  0  0
   13.1800   -2.0170   22.2910 C   0  0  0  0  0  0  0  0  0  0  0  0
   12.3750   -0.9490   22.8010 C   0  0  0  0  0  0  0  0  0  0  0  0
   11.0930   -1.4290   23.4960 C   0  0  0  0  0  0  0  0  0  0  0  0
   10.2030   -0.5360   24.0190 C   0  0  0  0  0  0  0  0  0  0  0  0
   10.5110    0.8170   23.8800 C   0  0  0  0  0  0  0  0  0  0  0  0
   11.6280    1.3330   23.2780 C   0  0  0  0  0  0  0  0  0  0  0  0
   12.6810    0.4140   22.6870 C   0  0  0  0  0  0  0  0  0  0  0  0
   11.5710    2.8550   23.3260 C   0  0  0  0  0  0  0  0  0  0  0  0
   12.5700    3.8620   22.7740 C   0  0  0  0  0  0  0  0  0  0  0  0
   12.1250    5.2600   23.0370 N   0  0  0  0  0  0  0  0  0  0  0  0
   10.8520    5.5070   22.6330 C   0  0  0  0  0  0  0  0  0  0  0  0
   12.3420    5.6670   24.3920 C   0  0  0  0  0  0  0  0  0  0  0  0
   10.3840    3.0990   23.9860 C   0  0  0  0  0  0  0  0  0  0  0  0
    9.7070    1.8820   24.3380 N   0  0  0  0  0  0  0  0  0  0  0  0
    8.5000    1.7880   24.9930 C   0  0  0  0  0  0  0  0  0  0  0  0
    7.9490    0.6860   25.0060 O   0  0  0  0  0  0  0  0  0  0  0  0
    7.7910    2.9170   25.6860 C   0  0  0  0  0  0  0  0  0  0  0  0
    8.1350    4.2430   25.3910 C   0  0  0  0  0  0  0  0  0  0  0  0
    7.4850    5.2860   26.0310 C   0  0  0  0  0  0  0  0  0  0  0  0
    6.3940    4.9840   27.0550 C   0  0  0  0  0  0  0  0  0  0  0  0
    6.0890    3.6500   27.3070 C   0  0  0  0  0  0  0  0  0  0  0  0
    6.7810    2.6370   26.6310 C   0  0  0  0  0  0  0  0  0  0  0  0
  1  2  1  0
  2  3  1  0
  3  4  2  0
  4  5  1  0
  5  6  2  0
  6  7  1  0
  3  8  1  0
  7  8  2  0
  7  9  1  0
  9 10  1  0
 10 11  1  0
 11 12  1  0
 11 13  1  0
  9 14  2  0
  6 15  1  0
 14 15  1  0
 15 16  1  0
 16 17  2  0
 16 18  1  0
 18 19  2  0
 19 20  1  0
 20 21  2  0
 21 22  1  0
 18 23  1  0
 22 23  2  0
M  END
