DAR-DIA-37454fd7-2
     RDKit          3D

 35 39  0  0  0  0  0  0  0  0999 V2000
    3.3230    2.3480   19.4050 C   0  0  0  0  0  0  0  0  0  0  0  0
    4.4510    1.5080   18.8830 C   0  0  0  0  0  0  0  0  0  0  0  0
    4.8920    0.2550   19.4920 C   0  0  0  0  0  0  0  0  0  0  0  0
    6.0190   -0.2350   18.6710 C   0  0  0  0  0  0  0  0  0  0  0  0
    6.7410   -1.4840   18.9740 C   0  0  0  0  0  0  0  0  0  0  0  0
    6.3750   -2.0130   20.3070 N   0  0  0  0  0  0  0  0  0  0  0  0
    5.7750   -3.2560   20.5260 C   0  0  0  0  0  0  0  0  0  0  0  0
    5.3670   -4.0140   19.6460 O   0  0  0  0  0  0  0  0  0  0  0  0
    5.6820   -3.5710   21.9040 N   0  0  0  0  0  0  0  0  0  0  0  0
    5.5150   -4.7840   22.5260 C   0  0  0  0  0  0  0  0  0  0  0  0
    6.5600   -5.5120   22.8470 C   0  0  0  0  0  0  0  0  0  0  0  0
    6.0370   -6.1770   21.8430 C   0  0  0  0  0  0  0  0  0  0  0  0
    6.6820   -1.3240   21.5780 C   0  0  1  0  0  0  0  0  0  0  0  0
    6.6130    0.0630   21.5670 C   0  0  0  0  0  0  0  0  0  0  0  0
    6.8960    0.6490   22.7930 C   0  0  0  0  0  0  0  0  0  0  0  0
    7.0530   -0.2730   23.9750 C   0  0  2  0  0  0  0  0  0  0  0  0
    8.1510   -1.1540   24.0980 C   0  0  0  0  0  0  0  0  0  0  0  0
    9.4700   -0.5190   23.9520 N   0  0  0  0  0  0  0  0  0  0  0  0
    9.3310    0.6730   23.1320 C   0  0  0  0  0  0  0  0  0  0  0  0
    9.1550    0.2710   21.8170 C   0  0  0  0  0  0  0  0  0  0  0  0
    9.8100   -0.8980   21.4530 C   0  0  0  0  0  0  0  0  0  0  0  0
   10.8830   -1.4240   22.3640 C   0  0  0  0  0  0  0  0  0  0  0  0
   12.0990   -2.1320   21.7690 C   0  0  0  0  0  0  0  0  0  0  0  0
   13.1640   -2.6350   22.7660 C   0  0  0  0  0  0  0  0  0  0  0  0
   12.9210   -2.3860   24.2530 C   0  0  0  0  0  0  0  0  0  0  0  0
   13.8930   -2.8040   25.6440 S   0  0  0  0  0  0  0  0  0  0  0  0
   15.4740   -2.4910   25.7850 N   0  0  0  0  0  0  0  0  0  0  0  0
   13.7600   -4.1590   26.0740 O   0  0  0  0  0  0  0  0  0  0  0  0
   13.6980   -1.6130   26.3140 O   0  0  0  0  0  0  0  0  0  0  0  0
   11.6530   -1.6720   24.6350 C   0  0  0  0  0  0  0  0  0  0  0  0
   10.6380   -1.1920   23.6660 C   0  0  0  0  0  0  0  0  0  0  0  0
    5.7770   -1.0850   23.9820 C   0  0  0  0  0  0  0  0  0  0  0  0
    5.7230   -1.8710   22.6790 C   0  0  0  0  0  0  0  0  0  0  0  0
    6.2110    0.6490   17.6640 N   0  0  0  0  0  0  0  0  0  0  0  0
    5.2630    1.7130   17.7920 O   0  0  0  0  0  0  0  0  0  0  0  0
  1  2  1  0
  2  3  2  0
  3  4  1  0
  4  5  1  0
  5  6  1  0
  6  7  1  0
  7  8  2  0
  7  9  1  0
  9 10  1  0
 10 11  1  0
 10 12  1  0
 11 12  1  0
 13  6  1  6
 13 14  1  0
 14 15  1  0
 15 16  1  0
 16 17  1  6
 17 18  1  0
 18 19  1  0
 19 20  1  0
 20 21  1  0
 21 22  1  0
 22 23  2  0
 23 24  1  0
 24 25  2  0
 25 26  1  0
 26 27  1  0
 26 28  2  0
 26 29  2  0
 25 30  1  0
 18 31  1  0
 22 31  1  0
 30 31  2  0
 16 32  1  0
 13 33  1  0
 32 33  1  0
  4 34  2  0
  2 35  1  0
 34 35  1  0
M  END
