DAR-DIA-eace69ff-37
     RDKit          3D

 13 14  0  0  0  0  0  0  0  0999 V2000
   12.5010    6.1760   22.5000 C   0  0  0  0  0  0  0  0  0  0  0  0
   12.3670    5.0800   23.3290 N   0  0  0  0  0  0  0  0  0  0  0  0
   12.6990    3.8700   22.5910 C   0  0  0  0  0  0  0  0  0  0  0  0
   11.8090    2.7370   23.1270 C   0  0  0  0  0  0  0  0  0  0  0  0
   10.6180    3.0590   23.7340 C   0  0  0  0  0  0  0  0  0  0  0  0
    9.8740    1.9590   24.1840 N   0  0  0  0  0  0  0  0  0  0  0  0
   10.7020    0.8010   23.8120 C   0  0  0  0  0  0  0  0  0  0  0  0
   10.3590   -0.5050   24.0570 C   0  0  0  0  0  0  0  0  0  0  0  0
   11.2050   -1.5000   23.6650 C   0  0  0  0  0  0  0  0  0  0  0  0
   12.4070   -1.2320   23.0280 C   0  0  0  0  0  0  0  0  0  0  0  0
   13.3200   -2.5950   22.6250 Cl  0  0  0  0  0  0  0  0  0  0  0  0
   12.7900    0.2070   22.7590 C   0  0  0  0  0  0  0  0  0  0  0  0
   11.9100    1.2070   23.1620 C   0  0  0  0  0  0  0  0  0  0  0  0
  1  2  1  0
  2  3  1  0
  3  4  1  0
  4  5  2  0
  5  6  1  0
  6  7  1  0
  7  8  1  0
  8  9  2  0
  9 10  1  0
 10 11  1  0
 10 12  2  0
  4 13  1  0
  7 13  2  0
 12 13  1  0
M  END
