DAR-DIA-842b4336-12
     RDKit          3D

 16 17  0  0  0  0  0  0  0  0999 V2000
   13.2360    1.0110   22.8820 C   0  0  0  0  0  0  0  0  0  0  0  0
   13.1150   -0.4340   22.7400 C   0  0  0  0  0  0  0  0  0  0  0  0
   12.6720   -1.7310   22.6400 C   0  0  0  0  0  0  0  0  0  0  0  0
   11.2810   -2.1770   22.7110 C   0  0  0  0  0  0  0  0  0  0  0  0
   10.4250   -1.0400   22.8960 C   0  0  0  0  0  0  0  0  0  0  0  0
    8.9220   -1.0390   23.0140 C   0  0  0  0  0  0  0  0  0  0  0  0
    8.3770   -0.0750   21.9450 C   0  0  0  0  0  0  0  0  0  0  0  0
    9.0290    0.9330   21.6830 O   0  0  0  0  0  0  0  0  0  0  0  0
    7.1940   -0.4930   21.4000 N   0  0  0  0  0  0  0  0  0  0  0  0
    6.5930    0.0790   20.1860 C   0  0  0  0  0  0  0  0  0  0  0  0
    5.4800    0.8770   20.4180 C   0  0  0  0  0  0  0  0  0  0  0  0
    4.7420    1.5550   19.2750 C   0  0  0  0  0  0  0  0  0  0  0  0
    5.2880    1.3140   17.9030 C   0  0  0  0  0  0  0  0  0  0  0  0
    6.3870    0.5130   17.7430 N   0  0  0  0  0  0  0  0  0  0  0  0
    7.0060   -0.0820   18.8510 C   0  0  0  0  0  0  0  0  0  0  0  0
   11.5200    0.3040   22.9400 S   0  0  0  0  0  0  0  0  0  0  0  0
  1  2  1  0
  2  3  2  0
  3  4  1  0
  4  5  2  0
  5  6  1  0
  6  7  1  0
  7  8  2  0
  7  9  1  0
  9 10  1  0
 10 11  2  0
 11 12  1  0
 12 13  2  0
 13 14  1  0
 10 15  1  0
 14 15  2  0
  2 16  1  0
  5 16  1  0
M  END
