DAR-DIA-43a5904b-15
     RDKit          3D

 30 33  0  0  0  0  0  0  0  0999 V2000
    8.7430    1.5170   21.0560 O   0  0  0  0  0  0  0  0  0  0  0  0
    8.7760    1.9930   22.1780 C   0  0  0  0  0  0  0  0  0  0  0  0
    9.1750    3.3020   22.3740 N   0  0  0  0  0  0  0  0  0  0  0  0
    8.7690    4.1670   23.3980 C   0  0  0  0  0  0  0  0  0  0  0  0
    9.7020    4.6080   24.3280 C   0  0  0  0  0  0  0  0  0  0  0  0
   10.8270    5.1420   23.6650 N   0  0  0  0  0  0  0  0  0  0  0  0
   10.9900    6.5130   23.2710 C   0  0  0  0  0  0  0  0  0  0  0  0
   12.3490    6.6880   23.3070 C   0  0  0  0  0  0  0  0  0  0  0  0
   13.0950    5.9560   22.4060 C   0  0  0  0  0  0  0  0  0  0  0  0
   12.6840    4.6500   22.1600 C   0  0  0  0  0  0  0  0  0  0  0  0
   11.5380    4.1570   22.8040 C   0  0  0  0  0  0  0  0  0  0  0  0
    8.3450    1.1860   23.4210 C   0  0  1  0  0  0  0  0  0  0  0  0
    7.0270    0.7470   23.3740 C   0  0  0  0  0  0  0  0  0  0  0  0
    6.9760   -0.5690   22.9800 C   0  0  0  0  0  0  0  0  0  0  0  0
    5.7110   -1.2070   22.4230 C   0  0  0  0  0  0  0  0  0  0  0  0
    5.7360   -2.6760   21.9410 C   0  0  0  0  0  0  0  0  0  0  0  0
    6.1980   -3.7760   22.8850 C   0  0  0  0  0  0  0  0  0  0  0  0
    6.1670   -5.1760   22.3180 C   0  0  0  0  0  0  0  0  0  0  0  0
    5.7350   -5.4060   21.0100 C   0  0  0  0  0  0  0  0  0  0  0  0
    5.3290   -4.4110   20.1700 N   0  0  0  0  0  0  0  0  0  0  0  0
    5.3390   -3.0700   20.6560 C   0  0  0  0  0  0  0  0  0  0  0  0
    8.2050   -1.1940   23.1590 C   0  0  0  0  0  0  0  0  0  0  0  0
    9.1300   -0.1280   23.7600 C   0  0  1  0  0  0  0  0  0  0  0  0
   10.5570   -0.1610   23.2840 C   0  0  0  0  0  0  0  0  0  0  0  0
   11.3200    0.9280   23.6120 C   0  0  0  0  0  0  0  0  0  0  0  0
   12.7220    0.9980   23.1770 C   0  0  0  0  0  0  0  0  0  0  0  0
   13.2080   -0.0510   22.4570 C   0  0  0  0  0  0  0  0  0  0  0  0
   12.4190   -1.1350   22.1400 C   0  0  0  0  0  0  0  0  0  0  0  0
   13.0790   -2.3820   21.2240 Cl  0  0  0  0  0  0  0  0  0  0  0  0
   11.0990   -1.2130   22.5400 C   0  0  0  0  0  0  0  0  0  0  0  0
  1  2  2  0
  2  3  1  0
  3  4  1  0
  4  5  1  0
  5  6  1  0
  6  7  1  0
  7  8  1  0
  8  9  1  0
  9 10  1  0
  6 11  1  0
 10 11  1  0
 12  2  1  6
 12 13  1  0
 13 14  1  0
 14 15  1  0
 15 16  1  0
 16 17  2  0
 17 18  1  0
 18 19  2  0
 19 20  1  0
 16 21  1  0
 20 21  2  0
 14 22  2  0
 12 23  1  0
 22 23  1  0
 23 24  1  6
 24 25  2  0
 25 26  1  0
 26 27  2  0
 27 28  1  0
 28 29  1  0
 24 30  1  0
 28 30  2  0
M  END
