DAR-DIA-43a5904b-9
     RDKit          3D

 21 23  0  0  0  0  0  0  0  0999 V2000
   10.1120    3.2680   22.3780 N   0  0  0  0  0  0  0  0  0  0  0  0
    9.2910    2.0510   22.3570 C   0  0  0  0  0  0  0  0  0  0  0  0
    8.7720    1.5680   21.1180 O   0  0  0  0  0  0  0  0  0  0  0  0
    8.9900    1.4110   23.5750 C   0  0  1  0  0  0  0  0  0  0  0  0
    7.6270    1.2270   23.8980 C   0  0  0  0  0  0  0  0  0  0  0  0
    7.2430   -0.1720   23.6340 C   0  0  0  0  0  0  0  0  0  0  0  0
    5.8220   -0.6610   23.4570 C   0  0  0  0  0  0  0  0  0  0  0  0
    5.6180   -1.5070   22.3630 C   0  0  0  0  0  0  0  0  0  0  0  0
    5.0570   -2.7800   22.5990 C   0  0  0  0  0  0  0  0  0  0  0  0
    4.8810   -3.5380   21.4780 N   0  0  0  0  0  0  0  0  0  0  0  0
    5.4000   -2.5840   20.5450 C   0  0  0  0  0  0  0  0  0  0  0  0
    5.8410   -1.3840   21.0200 O   0  0  0  0  0  0  0  0  0  0  0  0
    8.3820   -0.9460   23.5840 C   0  0  0  0  0  0  0  0  0  0  0  0
    9.5990    0.0100   23.8780 C   0  0  1  0  0  0  0  0  0  0  0  0
   10.7820   -0.3400   23.2600 C   0  0  0  0  0  0  0  0  0  0  0  0
   12.0040    0.4240   23.4340 C   0  0  0  0  0  0  0  0  0  0  0  0
   13.1190   -0.0600   22.7450 C   0  0  0  0  0  0  0  0  0  0  0  0
   13.3080   -1.1250   21.9220 C   0  0  0  0  0  0  0  0  0  0  0  0
   12.1060   -1.6860   21.8920 C   0  0  0  0  0  0  0  0  0  0  0  0
   12.1100   -0.3070   22.9050 Cl  0  0  0  0  0  0  0  0  0  0  0  0
   10.8440   -1.5090   22.4080 C   0  0  0  0  0  0  0  0  0  0  0  0
  1  2  1  0
  2  3  2  0
  4  2  1  6
  4  5  1  0
  5  6  1  0
  6  7  1  0
  7  8  1  0
  8  9  2  0
  9 10  1  0
 10 11  2  0
  8 12  1  0
 11 12  1  0
  6 13  2  0
  4 14  1  0
 13 14  1  0
 14 15  1  6
 15 16  2  0
 16 17  1  0
 17 18  2  0
 18 19  1  0
 19 20  1  0
 15 21  1  0
 19 21  2  0
M  END
