DAR-DIA-a80d16a0-4
     RDKit          3D

 21 23  0  0  0  0  0  0  0  0999 V2000
    8.0620   -3.3290   25.9140 C   0  0  0  0  0  0  0  0  0  0  0  0
    8.3350   -2.3020   25.0230 N   0  0  0  0  0  0  0  0  0  0  0  0
    8.5790   -2.4500   23.6400 C   0  0  0  0  0  0  0  0  0  0  0  0
    8.7290   -1.3670   22.7600 C   0  0  0  0  0  0  0  0  0  0  0  0
    9.9260   -0.6500   22.9520 N   0  0  0  0  0  0  0  0  0  0  0  0
   11.1980   -1.1400   22.5250 C   0  0  0  0  0  0  0  0  0  0  0  0
   12.2060   -0.1980   22.6570 C   0  0  0  0  0  0  0  0  0  0  0  0
   13.4390   -0.5620   22.3040 F   0  0  0  0  0  0  0  0  0  0  0  0
   11.9900    1.1030   23.1360 C   0  0  0  0  0  0  0  0  0  0  0  0
   10.7720    1.4940   23.7670 C   0  0  1  0  0  0  0  0  0  0  0  0
    9.9840    2.5810   23.2930 C   0  0  0  0  0  0  0  0  0  0  0  0
    9.1110    3.2850   24.1320 C   0  0  0  0  0  0  0  0  0  0  0  0
    9.3310    4.6810   24.2680 C   0  0  0  0  0  0  0  0  0  0  0  0
    8.5470    5.4880   25.0590 C   0  0  0  0  0  0  0  0  0  0  0  0
    7.3970    4.9680   25.8380 C   0  0  0  0  0  0  0  0  0  0  0  0
    6.4800    6.1190   26.8140 Cl  0  0  0  0  0  0  0  0  0  0  0  0
    7.1970    3.4780   25.6560 C   0  0  0  0  0  0  0  0  0  0  0  0
    8.0790    2.7330   24.8060 N   0  0  0  0  0  0  0  0  0  0  0  0
    9.4230    2.5440   21.8820 C   0  0  0  0  0  0  0  0  0  0  0  0
   10.5560    3.5030   22.2200 C   0  0  0  0  0  0  0  0  0  0  0  0
    9.9280    0.2600   24.0920 C   0  0  0  0  0  0  0  0  0  0  0  0
  1  2  1  0
  2  3  1  0
  3  4  1  0
  4  5  1  0
  5  6  1  0
  6  7  2  0
  7  8  1  0
  7  9  1  0
  9 10  1  0
 10 11  1  6
 11 12  1  0
 12 13  2  0
 13 14  1  0
 14 15  2  0
 15 16  1  0
 15 17  1  0
 12 18  1  0
 17 18  2  0
 11 19  1  0
 11 20  1  0
 19 20  1  0
  5 21  1  0
 10 21  1  0
M  END
