DAR-DIA-eace69ff-15
     RDKit          3D

 29 32  0  0  0  0  0  0  0  0999 V2000
   13.2540   -2.1410   20.9180 C   0  0  0  0  0  0  0  0  0  0  0  0
   13.2420   -1.8210   22.3590 C   0  0  0  0  0  0  0  0  0  0  0  0
   12.3130   -0.8850   22.6780 C   0  0  0  0  0  0  0  0  0  0  0  0
   11.1130   -1.3800   23.0400 C   0  0  0  0  0  0  0  0  0  0  0  0
   10.0610   -0.4030   23.3790 C   0  0  0  0  0  0  0  0  0  0  0  0
    8.9410   -0.7300   23.7390 O   0  0  0  0  0  0  0  0  0  0  0  0
    8.4120   -1.9610   23.2180 C   0  0  0  0  0  0  0  0  0  0  0  0
    7.3500   -2.6050   23.8920 C   0  0  0  0  0  0  0  0  0  0  0  0
    6.2480   -3.2470   23.0520 C   0  0  0  0  0  0  0  0  0  0  0  0
    5.9170   -2.3930   21.8600 C   0  0  0  0  0  0  0  0  0  0  0  0
    6.9010   -1.4990   21.4330 C   0  0  0  0  0  0  0  0  0  0  0  0
    8.2220   -1.7280   21.8400 C   0  0  0  0  0  0  0  0  0  0  0  0
   10.3050    0.9880   23.3140 C   0  0  0  0  0  0  0  0  0  0  0  0
   11.5870    1.4160   22.9320 C   0  0  0  0  0  0  0  0  0  0  0  0
   12.5880    0.4900   22.6230 C   0  0  0  0  0  0  0  0  0  0  0  0
   11.4540    2.9070   22.9860 C   0  0  0  0  0  0  0  0  0  0  0  0
   12.5730    3.6720   22.6360 C   0  0  0  0  0  0  0  0  0  0  0  0
   12.3030    5.1160   22.9080 N   0  0  0  0  0  0  0  0  0  0  0  0
   10.9610    5.5210   22.5580 C   0  0  0  0  0  0  0  0  0  0  0  0
   12.4580    5.4990   24.2840 C   0  0  0  0  0  0  0  0  0  0  0  0
   10.1980    3.2490   23.3810 C   0  0  0  0  0  0  0  0  0  0  0  0
    9.4970    2.0970   23.5780 N   0  0  0  0  0  0  0  0  0  0  0  0
    8.1040    2.1620   24.0080 C   0  0  0  0  0  0  0  0  0  0  0  0
    7.2720    1.3290   23.6850 O   0  0  0  0  0  0  0  0  0  0  0  0
    7.8250    3.2860   24.8210 C   0  0  0  0  0  0  0  0  0  0  0  0
    6.6370    4.0070   24.6700 C   0  0  0  0  0  0  0  0  0  0  0  0
    6.6330    5.0290   25.5700 C   0  0  0  0  0  0  0  0  0  0  0  0
    7.7910    4.9820   26.2970 C   0  0  0  0  0  0  0  0  0  0  0  0
    8.6530    3.9330   25.9430 C   0  0  0  0  0  0  0  0  0  0  0  0
  1  2  1  0
  2  3  1  0
  3  4  2  0
  4  5  1  0
  5  6  1  0
  6  7  1  0
  7  8  1  0
  8  9  1  0
  9 10  1  0
 10 11  1  0
  7 12  1  0
 11 12  1  0
  5 13  2  0
 13 14  1  0
  3 15  1  0
 14 15  2  0
 14 16  1  0
 16 17  1  0
 17 18  1  0
 18 19  1  0
 18 20  1  0
 16 21  2  0
 13 22  1  0
 21 22  1  0
 22 23  1  0
 23 24  2  0
 23 25  1  0
 25 26  2  0
 26 27  1  0
 27 28  2  0
 25 29  1  0
 28 29  1  0
M  END
