DAR-DIA-43a5904b-3
     RDKit          3D

 22 24  0  0  0  0  0  0  0  0999 V2000
   10.0530    3.1040   22.3860 N   0  0  0  0  0  0  0  0  0  0  0  0
    9.2530    2.1020   22.2510 C   0  0  0  0  0  0  0  0  0  0  0  0
    8.7330    1.7970   20.9720 O   0  0  0  0  0  0  0  0  0  0  0  0
    8.8390    1.2630   23.4970 C   0  0  1  0  0  0  0  0  0  0  0  0
    7.3350    0.9400   23.4540 C   0  0  0  0  0  0  0  0  0  0  0  0
    7.1540   -0.3720   22.9700 C   0  0  0  0  0  0  0  0  0  0  0  0
    5.8890   -0.8200   22.5660 C   0  0  0  0  0  0  0  0  0  0  0  0
    4.9460   -1.1580   23.5310 C   0  0  0  0  0  0  0  0  0  0  0  0
    4.3230   -0.2520   24.4010 C   0  0  0  0  0  0  0  0  0  0  0  0
    3.3850   -0.6450   25.3510 C   0  0  0  0  0  0  0  0  0  0  0  0
    2.9950   -2.0780   25.4830 C   0  0  0  0  0  0  0  0  0  0  0  0
    3.5370   -3.0220   24.6930 N   0  0  0  0  0  0  0  0  0  0  0  0
    4.4490   -2.6060   23.7780 C   0  0  0  0  0  0  0  0  0  0  0  0
    8.3410   -1.0120   22.9790 C   0  0  0  0  0  0  0  0  0  0  0  0
    9.3450   -0.1760   23.4580 C   0  0  1  0  0  0  0  0  0  0  0  0
   10.6270   -0.4760   22.9670 C   0  0  0  0  0  0  0  0  0  0  0  0
   11.8340    0.3460   23.1590 C   0  0  0  0  0  0  0  0  0  0  0  0
   12.9820   -0.1800   22.5640 C   0  0  0  0  0  0  0  0  0  0  0  0
   13.3320   -1.2610   21.8230 C   0  0  0  0  0  0  0  0  0  0  0  0
   12.0860   -1.8980   21.7490 C   0  0  0  0  0  0  0  0  0  0  0  0
   12.0490   -0.1860   22.9110 I   0  0  0  0  0  0  0  0  0  0  0  0
   10.7570   -1.7000   22.2040 C   0  0  0  0  0  0  0  0  0  0  0  0
  1  2  1  0
  2  3  2  0
  4  2  1  6
  4  5  1  0
  5  6  1  0
  6  7  1  0
  7  8  1  0
  8  9  2  0
  9 10  1  0
 10 11  2  0
 11 12  1  0
  8 13  1  0
 12 13  2  0
  6 14  2  0
  4 15  1  0
 14 15  1  0
 15 16  1  6
 16 17  2  0
 17 18  1  0
 18 19  2  0
 19 20  1  0
 20 21  1  0
 16 22  1  0
 20 22  2  0
M  END
