DAR-DIA-fc970077-1
     RDKit          3D

 18 20  0  0  0  0  0  0  0  0999 V2000
    8.9560    1.2950   21.2520 O   0  0  0  0  0  0  0  0  0  0  0  0
    8.4450    0.2380   21.6470 C   0  0  0  0  0  0  0  0  0  0  0  0
    9.0210   -0.7570   22.5100 N   0  0  0  0  0  0  0  0  0  0  0  0
   10.4530   -0.5370   22.6020 C   0  0  0  0  0  0  0  0  0  0  0  0
   10.7710    0.7720   22.9200 C   0  0  0  0  0  0  0  0  0  0  0  0
   12.1020    1.1770   23.0390 C   0  0  0  0  0  0  0  0  0  0  0  0
   13.0910    0.3240   22.8590 C   0  0  0  0  0  0  0  0  0  0  0  0
   12.8530   -1.0820   22.5220 C   0  0  0  0  0  0  0  0  0  0  0  0
   11.5460   -1.5640   22.3810 C   0  0  0  0  0  0  0  0  0  0  0  0
    8.3410   -1.9310   22.5780 C   0  0  0  0  0  0  0  0  0  0  0  0
    7.1620   -1.5700   21.9150 C   0  0  0  0  0  0  0  0  0  0  0  0
    7.1560   -0.2920   21.3510 N   0  0  0  0  0  0  0  0  0  0  0  0
    6.4350    0.1950   20.2110 C   0  0  0  0  0  0  0  0  0  0  0  0
    5.2480    0.9040   20.4170 C   0  0  0  0  0  0  0  0  0  0  0  0
    4.5600    1.4090   19.3200 C   0  0  0  0  0  0  0  0  0  0  0  0
    5.0920    1.1800   18.0650 C   0  0  0  0  0  0  0  0  0  0  0  0
    6.1960    0.5260   17.6370 N   0  0  0  0  0  0  0  0  0  0  0  0
    6.8590    0.0330   18.7560 C   0  0  0  0  0  0  0  0  0  0  0  0
  1  2  2  0
  2  3  1  0
  3  4  1  0
  4  5  2  0
  5  6  1  0
  6  7  2  0
  7  8  1  0
  4  9  1  0
  8  9  2  0
  3 10  1  0
 10 11  1  0
  2 12  1  0
 11 12  1  0
 12 13  1  0
 13 14  2  0
 14 15  1  0
 15 16  2  0
 16 17  1  0
 13 18  1  0
 17 18  2  0
M  END
