DAR-DIA-842b4336-2
     RDKit          3D

 16 17  0  0  0  0  0  0  0  0999 V2000
   12.6120   -0.3740   24.8600 C   0  0  0  0  0  0  0  0  0  0  0  0
   11.9080   -0.7750   23.8170 N   0  0  0  0  0  0  0  0  0  0  0  0
   10.5860   -0.5780   23.5610 C   0  0  0  0  0  0  0  0  0  0  0  0
   10.2540   -1.1870   22.3430 C   0  0  0  0  0  0  0  0  0  0  0  0
    8.9610   -1.0390   22.0250 N   0  0  0  0  0  0  0  0  0  0  0  0
    8.3310    0.1510   21.5370 C   0  0  0  0  0  0  0  0  0  0  0  0
    8.8680    1.2500   21.2770 O   0  0  0  0  0  0  0  0  0  0  0  0
    6.9870   -0.0830   21.3680 N   0  0  0  0  0  0  0  0  0  0  0  0
    6.4360    0.3640   20.1290 C   0  0  0  0  0  0  0  0  0  0  0  0
    5.3460    1.1570   20.3520 C   0  0  0  0  0  0  0  0  0  0  0  0
    4.7090    1.6840   19.2260 C   0  0  0  0  0  0  0  0  0  0  0  0
    5.2020    1.3990   17.8100 C   0  0  0  0  0  0  0  0  0  0  0  0
    6.2790    0.5990   17.7510 N   0  0  0  0  0  0  0  0  0  0  0  0
    6.8630    0.1050   18.8550 C   0  0  0  0  0  0  0  0  0  0  0  0
   11.4710   -1.7470   21.9090 C   0  0  0  0  0  0  0  0  0  0  0  0
   12.4980   -1.4890   22.8250 N   0  0  0  0  0  0  0  0  0  0  0  0
  1  2  1  0
  2  3  1  0
  3  4  2  0
  4  5  1  0
  5  6  1  0
  6  7  2  0
  6  8  1  0
  8  9  1  0
  9 10  2  0
 10 11  1  0
 11 12  2  0
 12 13  1  0
  9 14  1  0
 13 14  2  0
  4 15  1  0
  2 16  1  0
 15 16  2  0
M  END
