DAR-DIA-842b4336-4
     RDKit          3D

 16 17  0  0  0  0  0  0  0  0999 V2000
    8.8570    1.4450   21.2170 O   0  0  0  0  0  0  0  0  0  0  0  0
    8.3710    0.4000   21.6780 C   0  0  0  0  0  0  0  0  0  0  0  0
    7.3200   -0.3540   21.0500 N   0  0  0  0  0  0  0  0  0  0  0  0
    6.5620    0.2360   20.1320 C   0  0  0  0  0  0  0  0  0  0  0  0
    5.4710    0.9860   20.3840 C   0  0  0  0  0  0  0  0  0  0  0  0
    4.6830    1.6390   19.2710 C   0  0  0  0  0  0  0  0  0  0  0  0
    5.1590    1.4280   17.8420 C   0  0  0  0  0  0  0  0  0  0  0  0
    6.3320    0.5940   17.7510 N   0  0  0  0  0  0  0  0  0  0  0  0
    6.9870    0.0330   18.8120 C   0  0  0  0  0  0  0  0  0  0  0  0
    8.7170   -0.2240   22.8370 N   0  0  0  0  0  0  0  0  0  0  0  0
   10.0170   -0.7500   23.1890 C   0  0  0  0  0  0  0  0  0  0  0  0
   10.6850   -0.3130   24.4780 C   0  0  0  0  0  0  0  0  0  0  0  0
   11.8790   -0.7610   24.8280 C   0  0  0  0  0  0  0  0  0  0  0  0
   12.2230   -1.7190   23.6700 C   0  0  0  0  0  0  0  0  0  0  0  0
   13.6590   -2.6300   23.6000 Cl  0  0  0  0  0  0  0  0  0  0  0  0
   11.0410   -1.8450   22.4020 S   0  0  0  0  0  0  0  0  0  0  0  0
  1  2  2  0
  2  3  1  0
  3  4  1  0
  4  5  2  0
  5  6  1  0
  6  7  2  0
  7  8  1  0
  4  9  1  0
  8  9  2  0
  2 10  1  0
 10 11  1  0
 11 12  2  0
 12 13  1  0
 13 14  2  0
 14 15  1  0
 11 16  1  0
 14 16  1  0
M  END
