DAR-DIA-eace69ff-36
     RDKit          3D

 13 14  0  0  0  0  0  0  0  0999 V2000
   12.9860    6.2120   22.5450 C   0  0  0  0  0  0  0  0  0  0  0  0
   12.1980    5.1350   23.1050 N   0  0  0  0  0  0  0  0  0  0  0  0
   12.6150    3.8110   22.6450 C   0  0  0  0  0  0  0  0  0  0  0  0
   11.6440    2.7060   22.9130 C   0  0  0  0  0  0  0  0  0  0  0  0
   10.2350    2.9070   23.2820 C   0  0  0  0  0  0  0  0  0  0  0  0
    9.5680    1.7070   23.4530 N   0  0  0  0  0  0  0  0  0  0  0  0
   10.5150    0.6100   23.2040 C   0  0  0  0  0  0  0  0  0  0  0  0
   10.2190   -0.8670   23.2740 C   0  0  0  0  0  0  0  0  0  0  0  0
   11.3500   -1.8230   22.9680 C   0  0  0  0  0  0  0  0  0  0  0  0
   12.6600   -1.1600   22.6300 C   0  0  0  0  0  0  0  0  0  0  0  0
   13.6620   -1.9570   22.3490 F   0  0  0  0  0  0  0  0  0  0  0  0
   12.8660    0.2360   22.5950 C   0  0  0  0  0  0  0  0  0  0  0  0
   11.8640    1.1720   22.8570 C   0  0  0  0  0  0  0  0  0  0  0  0
  1  2  1  0
  2  3  1  0
  3  4  1  0
  4  5  2  0
  5  6  1  0
  6  7  1  0
  7  8  1  0
  8  9  2  0
  9 10  1  0
 10 11  1  0
 10 12  2  0
  4 13  1  0
  7 13  2  0
 12 13  1  0
M  END
