DAR-DIA-03336633-8
     RDKit          3D

 28 30  0  0  0  0  0  0  0  0999 V2000
   -1.8670    4.7890   23.9550 C   0  0  0  0  0  0  0  0  0  0  0  0
   -1.3260    3.6860   23.1570 N   0  0  0  0  0  0  0  0  0  0  0  0
   -0.5770    2.7890   24.0400 C   0  0  0  0  0  0  0  0  0  0  0  0
    0.5730    3.3670   24.4130 C   0  0  0  0  0  0  0  0  0  0  0  0
    1.5530    3.2830   23.3440 N   0  0  0  0  0  0  0  0  0  0  0  0
    2.6750    2.4660   23.5250 C   0  0  0  0  0  0  0  0  0  0  0  0
    2.6720    1.5310   24.3450 O   0  0  0  0  0  0  0  0  0  0  0  0
    3.8130    2.7750   22.7390 N   0  0  0  0  0  0  0  0  0  0  0  0
    4.9310    1.9870   22.5760 C   0  0  0  0  0  0  0  0  0  0  0  0
    4.6000    0.7080   21.7970 C   0  0  0  0  0  0  0  0  0  0  0  0
    5.2760    0.6100   20.4160 C   0  0  0  0  0  0  0  0  0  0  0  0
    4.5400    1.3260   19.2800 C   0  0  0  0  0  0  0  0  0  0  0  0
    5.0960    1.2810   17.9970 C   0  0  0  0  0  0  0  0  0  0  0  0
    6.2380    0.6330   17.7050 N   0  0  0  0  0  0  0  0  0  0  0  0
    6.9020   -0.0030   18.6900 C   0  0  0  0  0  0  0  0  0  0  0  0
    6.4530   -0.0400   20.1070 C   0  0  0  0  0  0  0  0  0  0  0  0
    7.2220   -0.7030   21.0190 N   0  0  0  0  0  0  0  0  0  0  0  0
    8.3650   -0.0110   21.5830 C   0  0  0  0  0  0  0  0  0  0  0  0
    8.8470    1.2480   21.2270 O   0  0  0  0  0  0  0  0  0  0  0  0
    9.0260   -0.7390   22.5700 C   0  0  0  0  0  0  0  0  0  0  0  0
   10.3730   -0.5120   22.6810 C   0  0  0  0  0  0  0  0  0  0  0  0
   10.7650    0.8070   22.8480 C   0  0  0  0  0  0  0  0  0  0  0  0
   12.0800    1.2100   22.9620 C   0  0  0  0  0  0  0  0  0  0  0  0
   13.1650    0.1860   22.9070 C   0  0  0  0  0  0  0  0  0  0  0  0
   12.8090   -1.2850   22.7320 C   0  0  0  0  0  0  0  0  0  0  0  0
   11.2960   -1.5560   22.6190 C   0  0  0  0  0  0  0  0  0  0  0  0
    0.9900    3.5410   22.0090 C   0  0  0  0  0  0  0  0  0  0  0  0
   -0.4320    4.1610   22.0640 C   0  0  0  0  0  0  0  0  0  0  0  0
  1  2  1  0
  2  3  1  0
  3  4  1  0
  4  5  1  0
  5  6  1  0
  6  7  2  0
  6  8  1  0
  8  9  1  0
  9 10  1  0
 10 11  1  0
 11 12  2  0
 12 13  1  0
 13 14  2  0
 14 15  1  0
 11 16  1  0
 15 16  2  0
 16 17  1  0
 17 18  1  0
 18 19  2  0
 18 20  1  0
 20 21  1  0
 21 22  2  0
 22 23  1  0
 23 24  2  0
 24 25  1  0
 21 26  1  0
 25 26  2  0
  5 27  1  0
  2 28  1  0
 27 28  1  0
M  END
