DAR-DIA-eace69ff-27
     RDKit          3D

 22 24  0  0  0  0  0  0  0  0999 V2000
   13.2500   -2.1680   20.8160 C   0  0  0  0  0  0  0  0  0  0  0  0
   13.1530   -2.0170   22.2560 C   0  0  0  0  0  0  0  0  0  0  0  0
   12.2700   -0.9350   22.6800 C   0  0  0  0  0  0  0  0  0  0  0  0
   10.9560   -1.3810   23.1560 C   0  0  0  0  0  0  0  0  0  0  0  0
   10.0500   -0.4690   23.6110 C   0  0  0  0  0  0  0  0  0  0  0  0
    8.9480   -0.8330   24.0280 O   0  0  0  0  0  0  0  0  0  0  0  0
    9.0580   -1.8890   25.0040 C   0  0  0  0  0  0  0  0  0  0  0  0
    9.2650   -3.2840   24.3880 C   0  0  0  0  0  0  0  0  0  0  0  0
    8.8120   -4.3870   25.3300 C   0  0  0  0  0  0  0  0  0  0  0  0
    7.8280   -4.0570   26.2700 C   0  0  0  0  0  0  0  0  0  0  0  0
    7.0690   -2.9620   25.8670 C   0  0  0  0  0  0  0  0  0  0  0  0
    7.7960   -1.7720   25.7850 C   0  0  0  0  0  0  0  0  0  0  0  0
   10.4360    0.8760   23.5680 C   0  0  0  0  0  0  0  0  0  0  0  0
    9.7200    1.9740   23.9580 N   0  0  0  0  0  0  0  0  0  0  0  0
   10.4370    3.1000   23.7250 C   0  0  0  0  0  0  0  0  0  0  0  0
   11.6580    2.7710   23.1680 C   0  0  0  0  0  0  0  0  0  0  0  0
   12.6710    3.8280   22.7550 C   0  0  0  0  0  0  0  0  0  0  0  0
   12.3150    5.1770   23.2230 N   0  0  0  0  0  0  0  0  0  0  0  0
   10.9740    5.5160   22.7770 C   0  0  0  0  0  0  0  0  0  0  0  0
   13.2190    6.1370   22.5930 C   0  0  0  0  0  0  0  0  0  0  0  0
   11.6890    1.3370   23.0830 C   0  0  0  0  0  0  0  0  0  0  0  0
   12.6200    0.4040   22.6470 C   0  0  0  0  0  0  0  0  0  0  0  0
  1  2  1  0
  2  3  1  0
  3  4  2  0
  4  5  1  0
  5  6  1  0
  6  7  1  0
  7  8  1  0
  8  9  1  0
  9 10  1  0
 10 11  1  0
  7 12  1  0
 11 12  1  0
  5 13  2  0
 13 14  1  0
 14 15  1  0
 15 16  2  0
 16 17  1  0
 17 18  1  0
 18 19  1  0
 18 20  1  0
 13 21  1  0
 16 21  1  0
  3 22  1  0
 21 22  2  0
M  END
