DAR-DIA-03336633-12
     RDKit          3D

 29 32  0  0  0  0  0  0  0  0999 V2000
   13.3510   -1.6010   22.6970 C   0  0  0  0  0  0  0  0  0  0  0  0
   12.0070   -1.7460   23.1800 N   0  0  0  0  0  0  0  0  0  0  0  0
   11.0870   -2.0640   22.1130 C   0  0  0  0  0  0  0  0  0  0  0  0
    9.7820   -1.7150   22.4910 C   0  0  0  0  0  0  0  0  0  0  0  0
    9.6200   -0.2700   22.4460 N   0  0  0  0  0  0  0  0  0  0  0  0
    8.7700    0.2550   21.5040 C   0  0  0  0  0  0  0  0  0  0  0  0
    8.8430    1.4490   21.1490 O   0  0  0  0  0  0  0  0  0  0  0  0
    7.8340   -0.6020   20.9540 C   0  0  0  0  0  0  0  0  0  0  0  0
    6.9140   -0.1060   20.0530 C   0  0  0  0  0  0  0  0  0  0  0  0
    7.0690   -0.3050   18.6530 C   0  0  0  0  0  0  0  0  0  0  0  0
    6.0050    0.3140   17.9980 N   0  0  0  0  0  0  0  0  0  0  0  0
    5.2280    0.8640   18.9770 C   0  0  0  0  0  0  0  0  0  0  0  0
    4.0700    1.6040   19.1050 N   0  0  0  0  0  0  0  0  0  0  0  0
    3.6460    1.9570   20.5040 C   0  0  0  0  0  0  0  0  0  0  0  0
    4.3300    1.5970   21.7720 C   0  0  0  0  0  0  0  0  0  0  0  0
    4.7000    1.2920   20.6460 C   0  0  0  0  0  0  0  0  0  0  0  0
    3.6920    1.8340   19.7780 N   0  0  0  0  0  0  0  0  0  0  0  0
    2.3110    1.8990   20.0870 C   0  0  0  0  0  0  0  0  0  0  0  0
    1.6860    1.1260   20.8230 O   0  0  0  0  0  0  0  0  0  0  0  0
    1.6850    2.9830   19.4680 N   0  0  0  0  0  0  0  0  0  0  0  0
    0.7340    3.8170   20.2050 C   0  0  0  0  0  0  0  0  0  0  0  0
    0.3720    5.0340   19.3570 C   0  0  0  0  0  0  0  0  0  0  0  0
   -0.5900    6.0820   19.9010 C   0  0  0  0  0  0  0  0  0  0  0  0
   -1.3810    4.8560   19.4570 C   0  0  0  0  0  0  0  0  0  0  0  0
   -1.5330    3.7620   20.3370 C   0  0  0  0  0  0  0  0  0  0  0  0
   -0.3680    3.0750   20.6590 C   0  0  0  0  0  0  0  0  0  0  0  0
    5.7260    0.6270   20.1200 C   0  0  0  0  0  0  0  0  0  0  0  0
   10.7780    0.4160   22.9550 C   0  0  0  0  0  0  0  0  0  0  0  0
   11.5860   -0.5450   23.8360 C   0  0  0  0  0  0  0  0  0  0  0  0
  1  2  1  0
  2  3  1  0
  3  4  1  0
  4  5  1  0
  5  6  1  0
  6  7  2  0
  6  8  1  0
  8  9  1  0
  9 10  2  0
 10 11  1  0
 11 12  1  0
 12 13  1  0
 13 14  2  0
 14 15  1  0
 15 16  2  0
 16 17  1  0
 17 18  1  0
 18 19  2  0
 18 20  1  0
 20 21  1  0
 21 22  1  0
 22 23  1  0
 23 24  1  0
 24 25  1  0
 21 26  1  0
 25 26  1  0
  9 27  1  0
 12 27  2  0
 16 27  1  0
  5 28  1  0
  2 29  1  0
 28 29  1  0
M  END
