DAR-DIA-842b4336-3
     RDKit          3D

 16 17  0  0  0  0  0  0  0  0999 V2000
   12.5680    1.7130   23.0250 C   0  0  0  0  0  0  0  0  0  0  0  0
   12.7810    0.3040   22.7360 C   0  0  0  0  0  0  0  0  0  0  0  0
   12.7020   -1.0360   22.4550 C   0  0  0  0  0  0  0  0  0  0  0  0
   11.4860   -1.8310   22.2630 C   0  0  0  0  0  0  0  0  0  0  0  0
   10.3240   -1.0000   22.4160 C   0  0  0  0  0  0  0  0  0  0  0  0
    9.0190   -1.2650   22.3260 N   0  0  0  0  0  0  0  0  0  0  0  0
    8.2880   -0.3820   21.6120 C   0  0  0  0  0  0  0  0  0  0  0  0
    8.6300    0.7330   21.2170 O   0  0  0  0  0  0  0  0  0  0  0  0
    6.9250   -0.7250   21.2230 N   0  0  0  0  0  0  0  0  0  0  0  0
    6.3450   -0.0210   20.0900 C   0  0  0  0  0  0  0  0  0  0  0  0
    5.0400    0.7550   20.3740 C   0  0  0  0  0  0  0  0  0  0  0  0
    4.5130    1.4200   19.2770 C   0  0  0  0  0  0  0  0  0  0  0  0
    5.2290    1.3420   17.9360 C   0  0  0  0  0  0  0  0  0  0  0  0
    6.3620    0.6500   17.7490 N   0  0  0  0  0  0  0  0  0  0  0  0
    6.8730    0.0060   18.7920 C   0  0  0  0  0  0  0  0  0  0  0  0
   11.0130    0.5750   22.7620 S   0  0  0  0  0  0  0  0  0  0  0  0
  1  2  1  0
  2  3  2  0
  3  4  1  0
  4  5  2  0
  5  6  1  0
  6  7  1  0
  7  8  2  0
  7  9  1  0
  9 10  1  0
 10 11  2  0
 11 12  1  0
 12 13  2  0
 13 14  1  0
 10 15  1  0
 14 15  2  0
  2 16  1  0
  5 16  1  0
M  END
