DAR-DIA-43a5904b-14
     RDKit          3D

 27 29  0  0  0  0  0  0  0  0999 V2000
   13.2070    6.1920   22.7120 C   0  0  0  0  0  0  0  0  0  0  0  0
   12.3260    5.2520   22.2180 C   0  0  0  0  0  0  0  0  0  0  0  0
   12.8580    4.2870   21.3760 C   0  0  0  0  0  0  0  0  0  0  0  0
   11.4760    4.6160   23.3330 C   0  0  0  0  0  0  0  0  0  0  0  0
   11.1010    3.3550   23.0820 C   0  0  0  0  0  0  0  0  0  0  0  0
    9.8610    3.2640   22.2960 N   0  0  0  0  0  0  0  0  0  0  0  0
    9.1800    1.9820   22.2370 C   0  0  0  0  0  0  0  0  0  0  0  0
    8.8390    1.4360   21.1930 O   0  0  0  0  0  0  0  0  0  0  0  0
    8.7970    1.2970   23.4270 C   0  0  1  0  0  0  0  0  0  0  0  0
    7.4740    0.8710   23.5150 C   0  0  0  0  0  0  0  0  0  0  0  0
    7.3410   -0.5000   23.6080 C   0  0  0  0  0  0  0  0  0  0  0  0
    6.1350   -1.2120   23.4960 C   0  0  0  0  0  0  0  0  0  0  0  0
    6.1090   -2.5570   23.1030 C   0  0  0  0  0  0  0  0  0  0  0  0
    7.1300   -3.4790   23.3710 C   0  0  0  0  0  0  0  0  0  0  0  0
    7.0460   -4.8140   22.9500 C   0  0  0  0  0  0  0  0  0  0  0  0
    5.9070   -5.2440   22.2380 C   0  0  0  0  0  0  0  0  0  0  0  0
    4.8630   -4.4300   21.9300 N   0  0  0  0  0  0  0  0  0  0  0  0
    5.0250   -3.0490   22.4050 C   0  0  0  0  0  0  0  0  0  0  0  0
    8.5590   -0.9640   23.8190 C   0  0  0  0  0  0  0  0  0  0  0  0
    9.5710   -0.0080   23.9070 C   0  0  1  0  0  0  0  0  0  0  0  0
   10.8230   -0.3470   23.2520 C   0  0  0  0  0  0  0  0  0  0  0  0
   12.0060    0.4920   23.3720 C   0  0  0  0  0  0  0  0  0  0  0  0
   13.2480    0.1560   22.7310 C   0  0  0  0  0  0  0  0  0  0  0  0
   13.2740   -1.0220   21.9830 C   0  0  0  0  0  0  0  0  0  0  0  0
   12.1240   -1.6490   21.9880 C   0  0  0  0  0  0  0  0  0  0  0  0
   12.0390   -0.2330   22.9320 Cl  0  0  0  0  0  0  0  0  0  0  0  0
   10.8910   -1.5400   22.4840 C   0  0  0  0  0  0  0  0  0  0  0  0
  1  2  1  0
  2  3  1  0
  2  4  1  0
  4  5  1  0
  5  6  1  0
  6  7  1  0
  7  8  2  0
  9  7  1  6
  9 10  1  0
 10 11  1  0
 11 12  1  0
 12 13  1  0
 13 14  2  0
 14 15  1  0
 15 16  2  0
 16 17  1  0
 13 18  1  0
 17 18  2  0
 11 19  2  0
  9 20  1  0
 19 20  1  0
 20 21  1  6
 21 22  2  0
 22 23  1  0
 23 24  2  0
 24 25  1  0
 25 26  1  0
 21 27  1  0
 25 27  2  0
M  END
