DAR-DIA-43a5904b-4
     RDKit          3D

 25 27  0  0  0  0  0  0  0  0999 V2000
    9.1690    2.9070   22.6130 N   0  0  0  0  0  0  0  0  0  0  0  0
    8.8100    1.4950   22.3540 C   0  0  0  0  0  0  0  0  0  0  0  0
    8.8880    1.0730   21.0270 O   0  0  0  0  0  0  0  0  0  0  0  0
    8.3250    0.6340   23.3490 C   0  0  1  0  0  0  0  0  0  0  0  0
    6.8760    0.5730   23.1690 C   0  0  0  0  0  0  0  0  0  0  0  0
    6.8190   -0.4820   22.0610 C   0  0  0  0  0  0  0  0  0  0  0  0
    5.8550   -0.6300   21.0800 C   0  0  0  0  0  0  0  0  0  0  0  0
    5.3050    0.6250   20.7610 C   0  0  0  0  0  0  0  0  0  0  0  0
    6.0250    1.8120   21.0570 C   0  0  0  0  0  0  0  0  0  0  0  0
    5.3400    3.1290   20.6870 C   0  0  0  0  0  0  0  0  0  0  0  0
    3.9940    3.0690   20.0460 C   0  0  0  0  0  0  0  0  0  0  0  0
    3.3490    1.8940   19.7810 N   0  0  0  0  0  0  0  0  0  0  0  0
    4.0400    0.7200   20.1530 C   0  0  0  0  0  0  0  0  0  0  0  0
    8.0710   -1.3400   22.2100 C   0  0  0  0  0  0  0  0  0  0  0  0
    8.8160   -0.8870   23.2740 C   0  0  1  0  0  0  0  0  0  0  0  0
   10.1940   -1.2970   23.3200 C   0  0  0  0  0  0  0  0  0  0  0  0
   10.8150   -1.5090   24.5600 C   0  0  0  0  0  0  0  0  0  0  0  0
   12.2640   -1.9090   24.6320 C   0  0  0  0  0  0  0  0  0  0  0  0
   13.0130   -2.0920   23.5310 C   0  0  0  0  0  0  0  0  0  0  0  0
   12.3940   -1.8940   22.3340 C   0  0  0  0  0  0  0  0  0  0  0  0
   13.1390   -2.0910   21.0830 C   0  0  0  0  0  0  0  0  0  0  0  0
   13.8550   -1.1350   20.5150 F   0  0  0  0  0  0  0  0  0  0  0  0
   13.7500   -3.2280   20.8500 F   0  0  0  0  0  0  0  0  0  0  0  0
   12.1630   -2.3470   20.3300 F   0  0  0  0  0  0  0  0  0  0  0  0
   11.0220   -1.5060   22.2090 C   0  0  0  0  0  0  0  0  0  0  0  0
  1  2  1  0
  2  3  2  0
  4  2  1  6
  4  5  1  0
  5  6  1  0
  6  7  1  0
  7  8  1  0
  8  9  2  0
  9 10  1  0
 10 11  2  0
 11 12  1  0
  8 13  1  0
 12 13  2  0
  6 14  2  0
  4 15  1  0
 14 15  1  0
 15 16  1  6
 16 17  2  0
 17 18  1  0
 18 19  2  0
 19 20  1  0
 20 21  1  0
 21 22  1  0
 21 23  1  0
 21 24  1  0
 16 25  1  0
 20 25  2  0
M  END
