DAR-DIA-23aa0b97-13
     RDKit          3D

 18 19  0  0  0  0  0  0  0  0999 V2000
    3.4990    1.9640   19.6260 N   0  0  0  0  0  0  0  0  0  0  0  0
    4.5980    1.3460   19.3670 C   0  0  0  0  0  0  0  0  0  0  0  0
    5.1060    1.2680   17.9890 C   0  0  0  0  0  0  0  0  0  0  0  0
    6.3700    0.5310   17.7640 N   0  0  0  0  0  0  0  0  0  0  0  0
    6.9720   -0.0020   18.7840 C   0  0  0  0  0  0  0  0  0  0  0  0
    6.6160    0.0160   20.1050 C   0  0  0  0  0  0  0  0  0  0  0  0
    7.5370   -0.6650   21.0280 N   0  0  0  0  0  0  0  0  0  0  0  0
    8.4460    0.2840   21.7040 C   0  0  0  0  0  0  0  0  0  0  0  0
    8.9060    1.3420   21.2240 O   0  0  0  0  0  0  0  0  0  0  0  0
    8.7010   -0.1930   22.9750 N   0  0  0  0  0  0  0  0  0  0  0  0
   10.0120   -0.1900   23.1300 C   0  0  0  0  0  0  0  0  0  0  0  0
   10.8680    1.0320   22.7630 C   0  0  0  0  0  0  0  0  0  0  0  0
   12.3370    0.9510   22.9680 C   0  0  0  0  0  0  0  0  0  0  0  0
   12.8530   -0.3060   23.5160 C   0  0  0  0  0  0  0  0  0  0  0  0
   12.0710   -1.3520   23.8300 C   0  0  0  0  0  0  0  0  0  0  0  0
   12.8280   -2.7450   24.4730 Cl  0  0  0  0  0  0  0  0  0  0  0  0
   10.6650   -1.3310   23.6490 C   0  0  0  0  0  0  0  0  0  0  0  0
    5.3330    0.7400   20.3970 C   0  0  0  0  0  0  0  0  0  0  0  0
  1  2  1  0
  2  3  2  0
  3  4  1  0
  4  5  2  0
  5  6  1  0
  6  7  1  0
  7  8  1  0
  8  9  2  0
  8 10  1  0
 10 11  1  0
 11 12  2  0
 12 13  1  0
 13 14  2  0
 14 15  1  0
 15 16  1  0
 11 17  1  0
 15 17  2  0
  2 18  1  0
  6 18  2  0
M  END
