DAR-DIA-eace69ff-5
     RDKit          3D

 31 34  0  0  0  0  0  0  0  0999 V2000
   13.5710   -2.7030   23.4170 C   0  0  0  0  0  0  0  0  0  0  0  0
   13.1940   -1.9070   22.4090 C   0  0  0  0  0  0  0  0  0  0  0  0
   12.3000   -0.8540   22.7780 C   0  0  0  0  0  0  0  0  0  0  0  0
   10.9550   -1.3600   23.2420 C   0  0  0  0  0  0  0  0  0  0  0  0
    9.9890   -0.5000   23.6450 C   0  0  0  0  0  0  0  0  0  0  0  0
    8.7550   -0.9870   24.0630 N   0  0  0  0  0  0  0  0  0  0  0  0
    8.1400   -2.3240   23.9710 C   0  0  0  0  0  0  0  0  0  0  0  0
    8.0090   -2.7650   22.6580 C   0  0  0  0  0  0  0  0  0  0  0  0
    7.4310   -4.1830   22.8140 C   0  0  0  0  0  0  0  0  0  0  0  0
    5.9570   -4.0800   23.1890 C   0  0  0  0  0  0  0  0  0  0  0  0
    5.8000   -2.9600   24.1890 C   0  0  0  0  0  0  0  0  0  0  0  0
    6.9510   -2.3630   24.7140 C   0  0  0  0  0  0  0  0  0  0  0  0
   10.2880    0.9130   23.6150 C   0  0  0  0  0  0  0  0  0  0  0  0
   11.5670    1.3680   23.1600 C   0  0  0  0  0  0  0  0  0  0  0  0
   12.5780    0.4920   22.7470 C   0  0  0  0  0  0  0  0  0  0  0  0
   11.5720    2.8330   23.2130 C   0  0  0  0  0  0  0  0  0  0  0  0
   12.5920    3.7260   22.8350 C   0  0  0  0  0  0  0  0  0  0  0  0
   12.4130    5.1560   23.1890 N   0  0  0  0  0  0  0  0  0  0  0  0
   11.6230    5.8530   22.2240 C   0  0  0  0  0  0  0  0  0  0  0  0
   11.8240    5.5200   24.4700 C   0  0  0  0  0  0  0  0  0  0  0  0
   10.3500    3.2180   23.7040 C   0  0  0  0  0  0  0  0  0  0  0  0
    9.6170    2.1020   23.9300 N   0  0  0  0  0  0  0  0  0  0  0  0
    8.0140    2.3280   24.5370 S   0  0  0  0  0  0  0  0  0  0  0  0
    7.6200    1.0630   25.1040 O   0  0  0  0  0  0  0  0  0  0  0  0
    8.0580    3.5380   25.3240 O   0  0  0  0  0  0  0  0  0  0  0  0
    6.9810    2.6250   23.2360 N   0  0  0  0  0  0  0  0  0  0  0  0
    7.1320    3.9260   22.5330 C   0  0  0  0  0  0  0  0  0  0  0  0
    5.9200    4.4100   21.9960 C   0  0  0  0  0  0  0  0  0  0  0  0
    5.0190    3.4970   21.4430 C   0  0  0  0  0  0  0  0  0  0  0  0
    4.7810    2.2830   22.1040 C   0  0  0  0  0  0  0  0  0  0  0  0
    5.5690    2.1680   23.4050 C   0  0  0  0  0  0  0  0  0  0  0  0
  1  2  1  0
  2  3  1  0
  3  4  2  0
  4  5  1  0
  5  6  1  0
  6  7  1  0
  7  8  1  0
  8  9  1  0
  9 10  1  0
 10 11  1  0
  7 12  1  0
 11 12  1  0
  5 13  2  0
 13 14  1  0
  3 15  1  0
 14 15  2  0
 14 16  1  0
 16 17  1  0
 17 18  1  0
 18 19  1  0
 18 20  1  0
 16 21  2  0
 13 22  1  0
 21 22  1  0
 23 22  1  0
 23 24  2  0
 23 25  2  0
 23 26  1  0
 26 27  1  0
 27 28  1  0
 28 29  1  0
 29 30  1  0
 26 31  1  0
 30 31  1  0
M  END
