DAR-DIA-43a5904b-16
     RDKit          3D

 30 33  0  0  0  0  0  0  0  0999 V2000
    8.9400    1.8970   21.3480 O   0  0  0  0  0  0  0  0  0  0  0  0
    9.4850    1.8760   22.4680 C   0  0  0  0  0  0  0  0  0  0  0  0
   10.7030    2.5540   22.7590 N   0  0  0  0  0  0  0  0  0  0  0  0
   10.6620    3.9400   22.3840 C   0  0  0  0  0  0  0  0  0  0  0  0
   11.3320    4.6840   23.3630 C   0  0  0  0  0  0  0  0  0  0  0  0
   10.5260    5.6660   24.0510 N   0  0  0  0  0  0  0  0  0  0  0  0
    9.9040    6.6210   23.1350 C   0  0  0  0  0  0  0  0  0  0  0  0
    9.2740    7.6870   23.9810 C   0  0  0  0  0  0  0  0  0  0  0  0
   10.2190    8.2960   24.8510 O   0  0  0  0  0  0  0  0  0  0  0  0
   11.4720    7.6190   24.8980 C   0  0  0  0  0  0  0  0  0  0  0  0
   11.2170    6.2560   25.1030 C   0  0  0  0  0  0  0  0  0  0  0  0
    8.9050    1.0900   23.6590 C   0  0  1  0  0  0  0  0  0  0  0  0
    7.4520    0.9110   23.3650 C   0  0  0  0  0  0  0  0  0  0  0  0
    7.3560   -0.4490   23.2550 C   0  0  0  0  0  0  0  0  0  0  0  0
    6.2150   -1.1440   22.8520 C   0  0  0  0  0  0  0  0  0  0  0  0
    6.0840   -2.4220   23.4040 C   0  0  0  0  0  0  0  0  0  0  0  0
    5.0460   -2.7150   24.2810 C   0  0  0  0  0  0  0  0  0  0  0  0
    5.0370   -4.0210   24.7530 C   0  0  0  0  0  0  0  0  0  0  0  0
    5.9320   -5.0260   24.4460 C   0  0  0  0  0  0  0  0  0  0  0  0
    7.0530   -4.7650   23.5190 N   0  0  0  0  0  0  0  0  0  0  0  0
    7.0480   -3.3800   23.0300 C   0  0  0  0  0  0  0  0  0  0  0  0
    8.5550   -1.0800   23.5920 C   0  0  0  0  0  0  0  0  0  0  0  0
    9.5620   -0.1530   23.9700 C   0  0  1  0  0  0  0  0  0  0  0  0
   10.7700   -0.4260   23.3340 C   0  0  0  0  0  0  0  0  0  0  0  0
   11.9320    0.4160   23.4520 C   0  0  0  0  0  0  0  0  0  0  0  0
   13.1870    0.1180   22.7740 C   0  0  0  0  0  0  0  0  0  0  0  0
   13.2620   -1.0400   21.9800 C   0  0  0  0  0  0  0  0  0  0  0  0
   12.1000   -1.6580   22.0140 C   0  0  0  0  0  0  0  0  0  0  0  0
   12.0250   -0.2590   22.9870 Cl  0  0  0  0  0  0  0  0  0  0  0  0
   10.8730   -1.5850   22.5300 C   0  0  0  0  0  0  0  0  0  0  0  0
  1  2  2  0
  2  3  1  0
  3  4  1  0
  4  5  1  0
  5  6  1  0
  6  7  1  0
  7  8  1  0
  8  9  1  0
  9 10  1  0
  6 11  1  0
 10 11  1  0
 12  2  1  6
 12 13  1  0
 13 14  1  0
 14 15  1  0
 15 16  1  0
 16 17  2  0
 17 18  1  0
 18 19  2  0
 19 20  1  0
 16 21  1  0
 20 21  2  0
 14 22  2  0
 12 23  1  0
 22 23  1  0
 23 24  1  6
 24 25  2  0
 25 26  1  0
 26 27  2  0
 27 28  1  0
 28 29  1  0
 24 30  1  0
 28 30  2  0
M  END
