DAR-DIA-eace69ff-3
     RDKit          3D

 31 34  0  0  0  0  0  0  0  0999 V2000
   12.9660   -2.4230   21.1760 C   0  0  0  0  0  0  0  0  0  0  0  0
   12.4460   -2.3300   22.4510 C   0  0  0  0  0  0  0  0  0  0  0  0
   12.0270   -1.0660   22.7850 C   0  0  0  0  0  0  0  0  0  0  0  0
   12.9870    0.0390   22.5670 C   0  0  0  0  0  0  0  0  0  0  0  0
   12.7030    1.4840   22.8560 C   0  0  0  0  0  0  0  0  0  0  0  0
   13.4650    2.4400   22.6720 O   0  0  0  0  0  0  0  0  0  0  0  0
   12.7560    3.7080   22.5020 C   0  0  0  0  0  0  0  0  0  0  0  0
   13.3190    4.6110   21.6070 C   0  0  0  0  0  0  0  0  0  0  0  0
   13.0160    5.9260   21.9900 C   0  0  0  0  0  0  0  0  0  0  0  0
   11.6760    6.0710   22.4440 C   0  0  0  0  0  0  0  0  0  0  0  0
   10.7780    4.7870   22.6910 C   0  0  0  0  0  0  0  0  0  0  0  0
   11.3980    3.6630   22.2310 C   0  0  0  0  0  0  0  0  0  0  0  0
   11.4550    1.7470   23.3590 C   0  0  0  0  0  0  0  0  0  0  0  0
   11.0240    3.0310   23.6980 C   0  0  0  0  0  0  0  0  0  0  0  0
   11.9420    4.5470   23.6240 S   0  0  0  0  0  0  0  0  0  0  0  0
   12.4310    5.1200   24.8620 O   0  0  0  0  0  0  0  0  0  0  0  0
   12.7520    4.5880   22.4200 O   0  0  0  0  0  0  0  0  0  0  0  0
   10.5990    5.5730   23.5000 C   0  0  0  0  0  0  0  0  0  0  0  0
   10.5290    6.3750   22.3860 C   0  0  0  0  0  0  0  0  0  0  0  0
    9.5450    6.5260   23.1960 C   0  0  0  0  0  0  0  0  0  0  0  0
    8.5460    7.3310   23.0230 C   0  0  0  0  0  0  0  0  0  0  0  0
    8.5990    6.5240   24.1850 C   0  0  0  0  0  0  0  0  0  0  0  0
    9.6010    5.5310   24.6210 C   0  0  0  0  0  0  0  0  0  0  0  0
    9.7150    2.7740   24.1000 C   0  0  0  0  0  0  0  0  0  0  0  0
    9.4590    1.4000   24.0150 N   0  0  0  0  0  0  0  0  0  0  0  0
    8.1820    0.7740   24.3730 C   0  0  0  0  0  0  0  0  0  0  0  0
    8.4460   -0.4570   25.1250 N   0  0  0  0  0  0  0  0  0  0  0  0
    7.8610   -1.5660   24.5570 C   0  0  0  0  0  0  0  0  0  0  0  0
    8.0120   -0.2980   26.5130 C   0  0  0  0  0  0  0  0  0  0  0  0
   10.5660    0.7280   23.5460 C   0  0  0  0  0  0  0  0  0  0  0  0
   10.8060   -0.6280   23.2890 C   0  0  0  0  0  0  0  0  0  0  0  0
  1  2  1  0
  2  3  1  0
  3  4  2  0
  4  5  1  0
  5  6  1  0
  6  7  1  0
  7  8  1  0
  8  9  1  0
  9 10  1  0
 10 11  1  0
  7 12  1  0
 11 12  1  0
  5 13  2  0
 13 14  1  0
 15 14  1  0
 15 16  2  0
 15 17  2  0
 15 18  1  0
 18 19  2  0
 19 20  1  0
 20 21  2  0
 21 22  1  0
 18 23  1  0
 22 23  2  0
 14 24  2  0
 24 25  1  0
 25 26  1  0
 26 27  1  0
 27 28  1  0
 27 29  1  0
 13 30  1  0
 25 30  1  0
  3 31  1  0
 30 31  2  0
M  END
