DAR-DIA-eace69ff-7
     RDKit          3D

 30 33  0  0  0  0  0  0  0  0999 V2000
   13.2770   -2.2370   20.9630 C   0  0  0  0  0  0  0  0  0  0  0  0
   13.2060   -1.9020   22.2890 C   0  0  0  0  0  0  0  0  0  0  0  0
   12.2590   -0.9660   22.6120 C   0  0  0  0  0  0  0  0  0  0  0  0
   10.9020   -1.4100   22.9060 C   0  0  0  0  0  0  0  0  0  0  0  0
    9.8750   -0.4150   23.2310 C   0  0  0  0  0  0  0  0  0  0  0  0
    8.6740   -0.6590   23.4950 O   0  0  0  0  0  0  0  0  0  0  0  0
    8.3360   -2.0390   23.8340 C   0  0  0  0  0  0  0  0  0  0  0  0
    8.3030   -2.8060   22.6650 C   0  0  0  0  0  0  0  0  0  0  0  0
    7.6770   -4.0420   22.8640 C   0  0  0  0  0  0  0  0  0  0  0  0
    6.3310   -3.8290   23.0370 N   0  0  0  0  0  0  0  0  0  0  0  0
    5.3220   -4.8120   22.9240 C   0  0  0  0  0  0  0  0  0  0  0  0
    6.1720   -2.9820   24.1690 C   0  0  0  0  0  0  0  0  0  0  0  0
    7.1560   -2.1200   24.6110 C   0  0  0  0  0  0  0  0  0  0  0  0
   10.2110    0.9620   23.2540 C   0  0  0  0  0  0  0  0  0  0  0  0
   11.5680    1.3810   22.9580 C   0  0  0  0  0  0  0  0  0  0  0  0
   12.5620    0.4130   22.6510 C   0  0  0  0  0  0  0  0  0  0  0  0
   11.6340    2.8190   23.0400 C   0  0  0  0  0  0  0  0  0  0  0  0
   12.6350    3.7920   22.8480 C   0  0  0  0  0  0  0  0  0  0  0  0
   12.2160    5.1550   23.2960 N   0  0  0  0  0  0  0  0  0  0  0  0
   11.1320    5.6470   22.4930 C   0  0  0  0  0  0  0  0  0  0  0  0
   11.7370    5.2830   24.6780 C   0  0  0  0  0  0  0  0  0  0  0  0
   10.3580    3.2270   23.3880 C   0  0  0  0  0  0  0  0  0  0  0  0
    9.5120    2.1980   23.5220 N   0  0  0  0  0  0  0  0  0  0  0  0
    8.1370    2.3910   23.8780 C   0  0  0  0  0  0  0  0  0  0  0  0
    7.9790    2.9350   25.1690 C   0  0  0  0  0  0  0  0  0  0  0  0
    8.9220    3.8920   25.5530 C   0  0  0  0  0  0  0  0  0  0  0  0
    8.8730    4.4990   26.8140 C   0  0  0  0  0  0  0  0  0  0  0  0
    7.8790    4.1680   27.7330 C   0  0  0  0  0  0  0  0  0  0  0  0
    6.9080    3.2260   27.4150 C   0  0  0  0  0  0  0  0  0  0  0  0
    6.9570    2.5630   26.0420 C   0  0  0  0  0  0  0  0  0  0  0  0
  1  2  1  0
  2  3  1  0
  3  4  2  0
  4  5  1  0
  5  6  1  0
  6  7  1  0
  7  8  1  0
  8  9  1  0
  9 10  1  0
 10 11  1  0
 10 12  1  0
  7 13  1  0
 12 13  1  0
  5 14  2  0
 14 15  1  0
  3 16  1  0
 15 16  2  0
 15 17  1  0
 17 18  1  0
 18 19  1  0
 19 20  1  0
 19 21  1  0
 17 22  2  0
 14 23  1  0
 22 23  1  0
 23 24  1  0
 24 25  1  0
 25 26  2  0
 26 27  1  0
 27 28  2  0
 28 29  1  0
 25 30  1  0
 29 30  2  0
M  END
