DAR-DIA-fc970077-12
     RDKit          3D

 19 21  0  0  0  0  0  0  0  0999 V2000
    8.7150    0.9640   21.2210 O   0  0  0  0  0  0  0  0  0  0  0  0
    8.2740   -0.1050   21.6280 C   0  0  0  0  0  0  0  0  0  0  0  0
    8.9940   -0.8850   22.7520 C   0  0  2  0  0  0  0  0  0  0  0  0
   10.4760   -0.5190   22.7630 C   0  0  0  0  0  0  0  0  0  0  0  0
   10.7440    0.8120   22.9710 C   0  0  0  0  0  0  0  0  0  0  0  0
   12.0680    1.2300   22.9960 C   0  0  0  0  0  0  0  0  0  0  0  0
   13.0830    0.3100   22.8140 C   0  0  0  0  0  0  0  0  0  0  0  0
   12.7950   -1.0410   22.6000 C   0  0  0  0  0  0  0  0  0  0  0  0
   11.4610   -1.4820   22.5690 C   0  0  0  0  0  0  0  0  0  0  0  0
    8.7000   -2.3450   22.7770 C   0  0  0  0  0  0  0  0  0  0  0  0
    7.4740   -2.7850   22.3040 C   0  0  0  0  0  0  0  0  0  0  0  0
    6.5190   -1.8980   21.7960 C   0  0  0  0  0  0  0  0  0  0  0  0
    7.1190   -0.7140   21.1610 N   0  0  0  0  0  0  0  0  0  0  0  0
    6.4380   -0.0500   20.1260 C   0  0  0  0  0  0  0  0  0  0  0  0
    5.2530    0.6810   20.3230 C   0  0  0  0  0  0  0  0  0  0  0  0
    4.6230    1.3440   19.2560 C   0  0  0  0  0  0  0  0  0  0  0  0
    5.1710    1.2840   17.9750 C   0  0  0  0  0  0  0  0  0  0  0  0
    6.2900    0.6040   17.7120 N   0  0  0  0  0  0  0  0  0  0  0  0
    6.9150   -0.0680   18.8260 C   0  0  0  0  0  0  0  0  0  0  0  0
  1  2  2  0
  2  3  1  0
  3  4  1  6
  4  5  2  0
  5  6  1  0
  6  7  2  0
  7  8  1  0
  4  9  1  0
  8  9  2  0
  3 10  1  0
 10 11  2  0
 11 12  1  0
  2 13  1  0
 12 13  1  0
 13 14  1  0
 14 15  2  0
 15 16  1  0
 16 17  2  0
 17 18  1  0
 14 19  1  0
 18 19  2  0
M  END
