DAR-DIA-842b4336-23
     RDKit          3D

 19 21  0  0  0  0  0  0  0  0999 V2000
    4.4630    2.2140   18.5000 C   0  0  0  0  0  0  0  0  0  0  0  0
    5.3920    1.2330   18.7530 N   0  0  0  0  0  0  0  0  0  0  0  0
    5.4880    0.7870   20.0910 C   0  0  0  0  0  0  0  0  0  0  0  0
    6.4660   -0.1650   20.0860 C   0  0  0  0  0  0  0  0  0  0  0  0
    6.8480   -0.8440   21.3210 N   0  0  0  0  0  0  0  0  0  0  0  0
    8.0770   -0.4570   21.7970 C   0  0  0  0  0  0  0  0  0  0  0  0
    8.5050    0.6810   21.5500 O   0  0  0  0  0  0  0  0  0  0  0  0
    8.8630   -1.3200   22.5480 C   0  0  0  0  0  0  0  0  0  0  0  0
   10.2260   -0.7620   22.6870 C   0  0  0  0  0  0  0  0  0  0  0  0
   10.4770    0.4210   22.9250 C   0  0  0  0  0  0  0  0  0  0  0  0
   11.8730    0.8470   23.0050 C   0  0  0  0  0  0  0  0  0  0  0  0
   13.2560    0.8650   23.0040 C   0  0  0  0  0  0  0  0  0  0  0  0
   12.8500   -0.6380   22.7210 C   0  0  0  0  0  0  0  0  0  0  0  0
   11.5510   -1.5730   22.5470 C   0  0  0  0  0  0  0  0  0  0  0  0
   12.7680   -1.7780   22.5100 N   0  0  0  0  0  0  0  0  0  0  0  0
   12.5270   -0.4470   22.7610 C   0  0  0  0  0  0  0  0  0  0  0  0
   11.4250   -1.3270   22.5870 N   0  0  0  0  0  0  0  0  0  0  0  0
    6.9050   -0.2430   18.7390 C   0  0  0  0  0  0  0  0  0  0  0  0
    6.2460    0.6190   17.9110 N   0  0  0  0  0  0  0  0  0  0  0  0
  1  2  1  0
  2  3  1  0
  3  4  2  0
  4  5  1  0
  5  6  1  0
  6  7  2  0
  6  8  1  0
  8  9  1  0
  9 10  2  0
 10 11  1  0
 11 12  2  0
 12 13  1  0
 13 14  2  0
 14 15  1  0
 11 16  1  0
 15 16  2  0
  9 17  1  0
 16 17  1  0
  4 18  1  0
  2 19  1  0
 18 19  2  0
M  END
