DAR-DIA-eace69ff-13
     RDKit          3D

 29 32  0  0  0  0  0  0  0  0999 V2000
   13.0970   -2.5870   21.4080 C   0  0  0  0  0  0  0  0  0  0  0  0
   13.4020   -1.3900   21.8950 C   0  0  0  0  0  0  0  0  0  0  0  0
   12.4020   -0.6950   22.4720 C   0  0  0  0  0  0  0  0  0  0  0  0
   11.1870   -1.3250   22.9500 C   0  0  0  0  0  0  0  0  0  0  0  0
   10.1440   -0.4850   23.5600 C   0  0  0  0  0  0  0  0  0  0  0  0
    9.0780   -0.9630   23.9930 O   0  0  0  0  0  0  0  0  0  0  0  0
    8.8580   -2.3110   23.4990 C   0  0  0  0  0  0  0  0  0  0  0  0
    9.3910   -3.1560   24.4730 C   0  0  0  0  0  0  0  0  0  0  0  0
    8.4650   -3.9160   25.1890 C   0  0  0  0  0  0  0  0  0  0  0  0
    7.6030   -4.6170   24.3490 C   0  0  0  0  0  0  0  0  0  0  0  0
    7.1180   -3.8590   23.0920 C   0  0  0  0  0  0  0  0  0  0  0  0
    7.5390   -2.5460   23.0640 C   0  0  0  0  0  0  0  0  0  0  0  0
   10.3240    0.9300   23.6610 C   0  0  0  0  0  0  0  0  0  0  0  0
   11.5350    1.4620   23.1570 C   0  0  0  0  0  0  0  0  0  0  0  0
   12.5100    0.6540   22.6110 C   0  0  0  0  0  0  0  0  0  0  0  0
   11.5530    2.8310   23.2880 C   0  0  0  0  0  0  0  0  0  0  0  0
   12.5330    3.7600   22.8850 C   0  0  0  0  0  0  0  0  0  0  0  0
   12.2350    5.1680   23.1830 N   0  0  0  0  0  0  0  0  0  0  0  0
   10.8770    5.5780   22.8000 C   0  0  0  0  0  0  0  0  0  0  0  0
   13.2080    6.0640   22.5860 C   0  0  0  0  0  0  0  0  0  0  0  0
   10.3530    3.1700   23.9100 C   0  0  0  0  0  0  0  0  0  0  0  0
    9.6190    2.0200   24.1310 N   0  0  0  0  0  0  0  0  0  0  0  0
    8.3000    2.0270   24.7580 C   0  0  0  0  0  0  0  0  0  0  0  0
    7.3760    2.9770   24.2690 C   0  0  0  0  0  0  0  0  0  0  0  0
    7.2950    2.8780   22.8800 C   0  0  0  0  0  0  0  0  0  0  0  0
    6.4090    3.7950   22.3230 C   0  0  0  0  0  0  0  0  0  0  0  0
    6.6690    5.1420   22.5260 C   0  0  0  0  0  0  0  0  0  0  0  0
    7.0950    5.4460   23.8180 C   0  0  0  0  0  0  0  0  0  0  0  0
    7.4970    4.2890   24.7520 C   0  0  0  0  0  0  0  0  0  0  0  0
  1  2  1  0
  2  3  1  0
  3  4  2  0
  4  5  1  0
  5  6  1  0
  6  7  1  0
  7  8  1  0
  8  9  1  0
  9 10  1  0
 10 11  1  0
  7 12  1  0
 11 12  1  0
  5 13  2  0
 13 14  1  0
  3 15  1  0
 14 15  2  0
 14 16  1  0
 16 17  1  0
 17 18  1  0
 18 19  1  0
 18 20  1  0
 16 21  2  0
 13 22  1  0
 21 22  1  0
 22 23  1  0
 23 24  1  0
 24 25  1  0
 25 26  1  0
 26 27  1  0
 27 28  1  0
 24 29  1  0
 28 29  1  0
M  END
