DAR-DIA-eace69ff-35
     RDKit          3D

 15 16  0  0  0  0  0  0  0  0999 V2000
   13.6560   -2.6720   23.7000 C   0  0  0  0  0  0  0  0  0  0  0  0
   13.6580   -1.8490   22.5550 O   0  0  0  0  0  0  0  0  0  0  0  0
   12.5700   -1.0250   22.7140 C   0  0  0  0  0  0  0  0  0  0  0  0
   11.1750   -1.4420   22.8240 C   0  0  0  0  0  0  0  0  0  0  0  0
   10.1070   -0.3780   23.0260 C   0  0  0  0  0  0  0  0  0  0  0  0
   10.5740    0.9050   23.0840 C   0  0  0  0  0  0  0  0  0  0  0  0
    9.8160    2.0160   23.2670 N   0  0  0  0  0  0  0  0  0  0  0  0
   10.5980    3.2060   23.2800 C   0  0  0  0  0  0  0  0  0  0  0  0
   11.9090    2.8140   23.0960 C   0  0  0  0  0  0  0  0  0  0  0  0
   13.0780    3.8200   23.0400 C   0  0  0  0  0  0  0  0  0  0  0  0
   12.5920    4.8800   22.4190 N   0  0  0  0  0  0  0  0  0  0  0  0
   12.2850    4.6080   21.1780 C   0  0  0  0  0  0  0  0  0  0  0  0
   13.2870    6.0560   22.6620 C   0  0  0  0  0  0  0  0  0  0  0  0
   11.9520    1.3910   22.9750 C   0  0  0  0  0  0  0  0  0  0  0  0
   12.9470    0.4440   22.7900 C   0  0  0  0  0  0  0  0  0  0  0  0
  1  2  1  0
  2  3  1  0
  3  4  2  0
  4  5  1  0
  5  6  2  0
  6  7  1  0
  7  8  1  0
  8  9  2  0
  9 10  1  0
 10 11  1  0
 11 12  1  0
 11 13  1  0
  6 14  1  0
  9 14  1  0
  3 15  1  0
 14 15  2  0
M  END
