DAR-DIA-fc970077-7
     RDKit          3D

 19 21  0  0  0  0  0  0  0  0999 V2000
    8.8110    0.8080   21.2740 O   0  0  0  0  0  0  0  0  0  0  0  0
    8.3470   -0.3110   21.5330 C   0  0  0  0  0  0  0  0  0  0  0  0
    9.1140   -1.2270   22.1230 C   0  0  1  0  0  0  0  0  0  0  0  0
   10.4800   -0.7580   22.4030 C   0  0  0  0  0  0  0  0  0  0  0  0
   10.6300    0.7260   22.7930 C   0  0  0  0  0  0  0  0  0  0  0  0
   11.9050    1.1960   23.0250 C   0  0  0  0  0  0  0  0  0  0  0  0
   13.0250    0.3820   22.9320 C   0  0  0  0  0  0  0  0  0  0  0  0
   12.9780   -0.9680   22.5990 C   0  0  0  0  0  0  0  0  0  0  0  0
   11.6060   -1.5580   22.3170 C   0  0  0  0  0  0  0  0  0  0  0  0
    8.4490   -1.6330   23.4350 C   0  0  0  0  0  0  0  0  0  0  0  0
    7.0840   -2.2450   23.1010 C   0  0  0  0  0  0  0  0  0  0  0  0
    6.3040   -1.6840   22.0630 C   0  0  0  0  0  0  0  0  0  0  0  0
    7.0120   -0.6980   21.2340 N   0  0  0  0  0  0  0  0  0  0  0  0
    6.3120   -0.0050   20.1680 C   0  0  0  0  0  0  0  0  0  0  0  0
    5.1100    0.6980   20.3460 C   0  0  0  0  0  0  0  0  0  0  0  0
    4.5060    1.3570   19.2710 C   0  0  0  0  0  0  0  0  0  0  0  0
    5.2020    1.2690   17.9580 C   0  0  0  0  0  0  0  0  0  0  0  0
    6.3370    0.6020   17.7750 N   0  0  0  0  0  0  0  0  0  0  0  0
    6.8470   -0.0070   18.8700 C   0  0  0  0  0  0  0  0  0  0  0  0
  1  2  2  0
  2  3  1  0
  3  4  1  1
  4  5  2  0
  5  6  1  0
  6  7  2  0
  7  8  1  0
  4  9  1  0
  8  9  2  0
  3 10  1  0
 10 11  1  0
 11 12  1  0
  2 13  1  0
 12 13  1  0
 13 14  1  0
 14 15  2  0
 15 16  1  0
 16 17  2  0
 17 18  1  0
 14 19  1  0
 18 19  2  0
M  END
