DAR-DIA-a80d16a0-7
     RDKit          3D

 21 23  0  0  0  0  0  0  0  0999 V2000
   12.0110    7.2220   24.8250 C   0  0  0  0  0  0  0  0  0  0  0  0
   12.1260    6.6770   23.3760 C   0  0  0  0  0  0  0  0  0  0  0  0
   11.6280    5.2450   23.2510 C   0  0  0  0  0  0  0  0  0  0  0  0
   10.4840    4.9270   23.9490 C   0  0  0  0  0  0  0  0  0  0  0  0
   10.0890    3.6540   23.7970 C   0  0  0  0  0  0  0  0  0  0  0  0
   10.9200    2.9410   22.9730 C   0  0  0  0  0  0  0  0  0  0  0  0
   10.7050    1.5920   22.6740 C   0  0  0  0  0  0  0  0  0  0  0  0
   11.6180    0.5960   23.1560 C   0  0  2  0  0  0  0  0  0  0  0  0
   12.7640   -0.1540   22.4990 C   0  0  0  0  0  0  0  0  0  0  0  0
   12.3860   -1.3610   21.8700 C   0  0  0  0  0  0  0  0  0  0  0  0
   13.3190   -2.0240   21.1640 F   0  0  0  0  0  0  0  0  0  0  0  0
   11.1080   -1.8990   21.9170 C   0  0  0  0  0  0  0  0  0  0  0  0
   10.1290   -1.1780   22.6630 N   0  0  0  0  0  0  0  0  0  0  0  0
    8.8290   -1.6870   22.7810 C   0  0  0  0  0  0  0  0  0  0  0  0
    8.5550   -2.5000   23.8780 C   0  0  0  0  0  0  0  0  0  0  0  0
    7.6390   -2.1230   24.8020 N   0  0  0  0  0  0  0  0  0  0  0  0
    6.4410   -2.9140   25.0640 C   0  0  0  0  0  0  0  0  0  0  0  0
   10.6550   -0.3970   23.7340 C   0  0  0  0  0  0  0  0  0  0  0  0
    9.4960    1.2510   21.7760 C   0  0  0  0  0  0  0  0  0  0  0  0
    9.2660    1.3680   23.2090 C   0  0  0  0  0  0  0  0  0  0  0  0
   12.2460    3.8730   22.3530 S   0  0  0  0  0  0  0  0  0  0  0  0
  1  2  1  0
  2  3  1  0
  3  4  2  0
  4  5  1  0
  5  6  2  0
  6  7  1  0
  8  7  1  6
  8  9  1  0
  9 10  1  0
 10 11  1  0
 10 12  2  0
 12 13  1  0
 13 14  1  0
 14 15  1  0
 15 16  1  0
 16 17  1  0
  8 18  1  0
 13 18  1  0
  7 19  1  0
  7 20  1  0
 19 20  1  0
  3 21  1  0
  6 21  1  0
M  END
