DAR-DIA-43a5904b-12
     RDKit          3D

 27 29  0  0  0  0  0  0  0  0999 V2000
    7.8190    8.6180   24.0440 N   0  0  0  0  0  0  0  0  0  0  0  0
    8.7900    7.8350   23.7110 C   0  0  0  0  0  0  0  0  0  0  0  0
    8.6000    6.3780   24.1510 C   0  0  0  0  0  0  0  0  0  0  0  0
    9.0500    5.4600   23.1940 C   0  0  0  0  0  0  0  0  0  0  0  0
    8.9530    4.0820   23.4320 C   0  0  0  0  0  0  0  0  0  0  0  0
    9.6100    3.3170   22.5160 N   0  0  0  0  0  0  0  0  0  0  0  0
    8.9990    2.1470   22.4410 C   0  0  0  0  0  0  0  0  0  0  0  0
    8.8760    1.5490   21.2140 O   0  0  0  0  0  0  0  0  0  0  0  0
    8.3850    1.4640   23.5210 C   0  0  1  0  0  0  0  0  0  0  0  0
    7.0390    1.1830   23.3020 C   0  0  0  0  0  0  0  0  0  0  0  0
    6.9720   -0.1100   22.8380 C   0  0  0  0  0  0  0  0  0  0  0  0
    5.9320   -0.6940   22.1060 C   0  0  0  0  0  0  0  0  0  0  0  0
    5.2870   -1.8540   22.5270 C   0  0  0  0  0  0  0  0  0  0  0  0
    4.5910   -1.8760   23.7410 C   0  0  0  0  0  0  0  0  0  0  0  0
    3.8780   -3.1160   24.2220 C   0  0  0  0  0  0  0  0  0  0  0  0
    3.9620   -4.3300   23.3150 C   0  0  0  0  0  0  0  0  0  0  0  0
    4.6740   -4.2640   22.1030 N   0  0  0  0  0  0  0  0  0  0  0  0
    5.3110   -3.0190   21.7550 C   0  0  0  0  0  0  0  0  0  0  0  0
    8.2380   -0.8780   23.1880 C   0  0  0  0  0  0  0  0  0  0  0  0
    9.0180    0.0690   23.8920 C   0  0  1  0  0  0  0  0  0  0  0  0
   10.4160    0.0390   23.4650 C   0  0  0  0  0  0  0  0  0  0  0  0
   11.2580    1.0680   23.8470 C   0  0  0  0  0  0  0  0  0  0  0  0
   12.5920    0.8770   23.3280 C   0  0  0  0  0  0  0  0  0  0  0  0
   13.3400   -0.0550   22.5270 C   0  0  0  0  0  0  0  0  0  0  0  0
   12.5550   -1.0930   22.1260 C   0  0  0  0  0  0  0  0  0  0  0  0
   13.1240   -2.3490   21.1610 Cl  0  0  0  0  0  0  0  0  0  0  0  0
   11.0950   -1.0840   22.5720 C   0  0  0  0  0  0  0  0  0  0  0  0
  1  2  1  0
  2  3  1  0
  3  4  1  0
  4  5  1  0
  5  6  1  0
  6  7  1  0
  7  8  2  0
  9  7  1  6
  9 10  1  0
 10 11  1  0
 11 12  1  0
 12 13  1  0
 13 14  2  0
 14 15  1  0
 15 16  2  0
 16 17  1  0
 13 18  1  0
 17 18  2  0
 11 19  2  0
  9 20  1  0
 19 20  1  0
 20 21  1  6
 21 22  2  0
 22 23  1  0
 23 24  2  0
 24 25  1  0
 25 26  1  0
 21 27  1  0
 25 27  2  0
M  END
