DAR-DIA-eace69ff-11
     RDKit          3D

 30 33  0  0  0  0  0  0  0  0999 V2000
   13.6810   -2.6900   23.4020 C   0  0  0  0  0  0  0  0  0  0  0  0
   13.2030   -1.9650   22.3860 C   0  0  0  0  0  0  0  0  0  0  0  0
   12.3320   -0.9240   22.8000 C   0  0  0  0  0  0  0  0  0  0  0  0
   11.0470   -1.4230   23.4090 C   0  0  0  0  0  0  0  0  0  0  0  0
   10.1220   -0.5440   23.8700 C   0  0  0  0  0  0  0  0  0  0  0  0
    9.0530   -0.8980   24.3900 O   0  0  0  0  0  0  0  0  0  0  0  0
    8.0190   -1.6150   23.6790 C   0  0  0  0  0  0  0  0  0  0  0  0
    8.0770   -1.3630   22.3130 C   0  0  0  0  0  0  0  0  0  0  0  0
    6.6920   -1.7690   21.7630 C   0  0  0  0  0  0  0  0  0  0  0  0
    6.2350   -3.0850   22.4360 C   0  0  0  0  0  0  0  0  0  0  0  0
    7.4520   -3.7550   23.0580 C   0  0  0  0  0  0  0  0  0  0  0  0
    8.1070   -2.9620   23.9820 C   0  0  0  0  0  0  0  0  0  0  0  0
   10.3980    0.8590   23.7540 C   0  0  0  0  0  0  0  0  0  0  0  0
   11.6160    1.2960   23.1680 C   0  0  0  0  0  0  0  0  0  0  0  0
   12.5850    0.4130   22.6980 C   0  0  0  0  0  0  0  0  0  0  0  0
   11.6020    2.7400   23.1740 C   0  0  0  0  0  0  0  0  0  0  0  0
   12.5730    3.6310   22.6830 C   0  0  0  0  0  0  0  0  0  0  0  0
   12.3470    5.0120   23.1640 N   0  0  0  0  0  0  0  0  0  0  0  0
   11.0290    5.4810   22.7510 C   0  0  0  0  0  0  0  0  0  0  0  0
   13.2600    5.8470   22.5990 C   0  0  0  0  0  0  0  0  0  0  0  0
   10.4200    3.1100   23.7590 C   0  0  0  0  0  0  0  0  0  0  0  0
    9.6600    2.0190   24.1250 N   0  0  0  0  0  0  0  0  0  0  0  0
    8.3860    2.1030   24.7480 C   0  0  0  0  0  0  0  0  0  0  0  0
    7.7790    1.0620   24.9830 O   0  0  0  0  0  0  0  0  0  0  0  0
    7.7520    3.3050   25.1220 C   0  0  0  0  0  0  0  0  0  0  0  0
    6.7160    3.2370   26.0610 C   0  0  0  0  0  0  0  0  0  0  0  0
    6.0310    4.3780   26.4960 C   0  0  0  0  0  0  0  0  0  0  0  0
    6.4780    5.6970   25.8870 C   0  0  0  0  0  0  0  0  0  0  0  0
    7.5070    5.7240   24.9570 C   0  0  0  0  0  0  0  0  0  0  0  0
    8.1380    4.5410   24.5770 C   0  0  0  0  0  0  0  0  0  0  0  0
  1  2  1  0
  2  3  1  0
  3  4  2  0
  4  5  1  0
  5  6  1  0
  6  7  1  0
  7  8  1  0
  8  9  1  0
  9 10  1  0
 10 11  1  0
  7 12  1  0
 11 12  1  0
  5 13  2  0
 13 14  1  0
  3 15  1  0
 14 15  2  0
 14 16  1  0
 16 17  1  0
 17 18  1  0
 18 19  1  0
 18 20  1  0
 16 21  2  0
 13 22  1  0
 21 22  1  0
 22 23  1  0
 23 24  2  0
 23 25  1  0
 25 26  2  0
 26 27  1  0
 27 28  2  0
 28 29  1  0
 25 30  1  0
 29 30  2  0
M  END
