DAR-DIA-fc970077-6
     RDKit          3D

 19 21  0  0  0  0  0  0  0  0999 V2000
    8.6310    0.9240   21.2310 O   0  0  0  0  0  0  0  0  0  0  0  0
    8.3330   -0.2180   21.5610 C   0  0  0  0  0  0  0  0  0  0  0  0
    9.1050   -0.9490   22.3900 N   0  0  0  0  0  0  0  0  0  0  0  0
   10.4370   -0.5600   22.5690 C   0  0  0  0  0  0  0  0  0  0  0  0
   10.7640    0.7520   22.8980 C   0  0  0  0  0  0  0  0  0  0  0  0
   12.0860    1.1580   23.0540 C   0  0  0  0  0  0  0  0  0  0  0  0
   13.0930    0.2550   22.8870 C   0  0  0  0  0  0  0  0  0  0  0  0
   12.7980   -1.0490   22.5660 C   0  0  0  0  0  0  0  0  0  0  0  0
   11.4830   -1.4830   22.3990 C   0  0  0  0  0  0  0  0  0  0  0  0
    8.7540   -2.2970   22.8380 C   0  0  0  0  0  0  0  0  0  0  0  0
    7.3380   -2.4630   22.8430 C   0  0  0  0  0  0  0  0  0  0  0  0
    6.6400   -1.7610   21.8200 C   0  0  0  0  0  0  0  0  0  0  0  0
    7.2120   -0.7720   21.0950 N   0  0  0  0  0  0  0  0  0  0  0  0
    6.4180   -0.0730   20.1840 C   0  0  0  0  0  0  0  0  0  0  0  0
    5.1320    0.6730   20.4050 C   0  0  0  0  0  0  0  0  0  0  0  0
    4.4740    1.3920   19.2320 C   0  0  0  0  0  0  0  0  0  0  0  0
    5.1220    1.3460   17.8610 C   0  0  0  0  0  0  0  0  0  0  0  0
    6.2920    0.6150   17.8110 N   0  0  0  0  0  0  0  0  0  0  0  0
    6.9020   -0.0530   18.8910 C   0  0  0  0  0  0  0  0  0  0  0  0
  1  2  2  0
  2  3  1  0
  3  4  1  0
  4  5  2  0
  5  6  1  0
  6  7  2  0
  7  8  1  0
  4  9  1  0
  8  9  2  0
  3 10  1  0
 10 11  1  0
 11 12  1  0
  2 13  1  0
 12 13  1  0
 13 14  1  0
 14 15  2  0
 15 16  1  0
 16 17  2  0
 17 18  1  0
 14 19  1  0
 18 19  2  0
M  END
