DAR-DIA-eace69ff-23
     RDKit          3D

 22 24  0  0  0  0  0  0  0  0999 V2000
   11.0550    5.5300   22.7650 C   0  0  0  0  0  0  0  0  0  0  0  0
   12.3670    5.1240   23.1100 N   0  0  0  0  0  0  0  0  0  0  0  0
   13.2300    6.1580   22.5940 C   0  0  0  0  0  0  0  0  0  0  0  0
   12.6340    3.7620   22.6850 C   0  0  0  0  0  0  0  0  0  0  0  0
   11.7580    2.7850   23.1370 C   0  0  0  0  0  0  0  0  0  0  0  0
   10.4650    3.1590   23.7620 C   0  0  0  0  0  0  0  0  0  0  0  0
    9.7050    1.9890   24.1300 N   0  0  0  0  0  0  0  0  0  0  0  0
   10.5840    0.9020   23.7090 C   0  0  0  0  0  0  0  0  0  0  0  0
   10.2460   -0.4110   23.8570 C   0  0  0  0  0  0  0  0  0  0  0  0
    9.0090   -0.5420   24.4210 N   0  0  0  0  0  0  0  0  0  0  0  0
    8.1640   -1.1990   23.5540 C   0  0  0  0  0  0  0  0  0  0  0  0
    7.2250   -2.3280   23.9200 C   0  0  0  0  0  0  0  0  0  0  0  0
    6.5610   -2.2940   25.1550 C   0  0  0  0  0  0  0  0  0  0  0  0
    6.7540   -1.1180   25.8870 C   0  0  0  0  0  0  0  0  0  0  0  0
    8.0030   -1.0200   26.4990 C   0  0  0  0  0  0  0  0  0  0  0  0
    9.1490   -1.0900   25.7100 C   0  0  0  0  0  0  0  0  0  0  0  0
   11.0780   -1.4450   23.4680 C   0  0  0  0  0  0  0  0  0  0  0  0
   12.2900   -1.0610   22.9310 C   0  0  0  0  0  0  0  0  0  0  0  0
   13.1260   -2.0610   22.5710 C   0  0  0  0  0  0  0  0  0  0  0  0
   13.0000   -2.2340   20.8760 Cl  0  0  0  0  0  0  0  0  0  0  0  0
   12.6640    0.3100   22.7590 C   0  0  0  0  0  0  0  0  0  0  0  0
   11.7890    1.3340   23.1480 C   0  0  0  0  0  0  0  0  0  0  0  0
  1  2  1  0
  2  3  1  0
  2  4  1  0
  4  5  1  0
  5  6  2  0
  6  7  1  0
  7  8  1  0
  8  9  1  0
  9 10  1  0
 10 11  1  0
 11 12  1  0
 12 13  1  0
 13 14  1  0
 14 15  1  0
 10 16  1  0
 15 16  1  0
  9 17  2  0
 17 18  1  0
 18 19  1  0
 19 20  1  0
 18 21  2  0
  5 22  1  0
  8 22  2  0
 21 22  1  0
M  END
