DAR-DIA-fc970077-14
     RDKit          3D

 22 24  0  0  0  0  0  0  0  0999 V2000
    8.6670    0.8420   21.2200 O   0  0  0  0  0  0  0  0  0  0  0  0
    8.3280   -0.2410   21.6720 C   0  0  0  0  0  0  0  0  0  0  0  0
    9.1840   -0.9300   22.4950 N   0  0  0  0  0  0  0  0  0  0  0  0
   10.5300   -0.5870   22.5990 C   0  0  0  0  0  0  0  0  0  0  0  0
   10.7490    0.7550   22.8790 C   0  0  0  0  0  0  0  0  0  0  0  0
   12.0300    1.2850   23.0060 C   0  0  0  0  0  0  0  0  0  0  0  0
   13.1330    0.4940   22.8640 C   0  0  0  0  0  0  0  0  0  0  0  0
   12.9700   -0.9810   22.5620 C   0  0  0  0  0  0  0  0  0  0  0  0
   11.5580   -1.4890   22.4310 C   0  0  0  0  0  0  0  0  0  0  0  0
    7.1180   -0.7580   21.3600 N   0  0  0  0  0  0  0  0  0  0  0  0
    6.4570   -0.1200   20.2080 C   0  0  0  0  0  0  0  0  0  0  0  0
    5.2840    0.6220   20.4210 C   0  0  0  0  0  0  0  0  0  0  0  0
    4.6410    1.2630   19.3540 C   0  0  0  0  0  0  0  0  0  0  0  0
    5.1400    1.1880   18.0490 C   0  0  0  0  0  0  0  0  0  0  0  0
    6.2140    0.5220   17.7270 N   0  0  0  0  0  0  0  0  0  0  0  0
    6.9180   -0.1550   18.7660 C   0  0  0  0  0  0  0  0  0  0  0  0
    6.6670   -2.0020   21.9370 C   0  0  0  0  0  0  0  0  0  0  0  0
    7.6560   -3.0170   22.4990 C   0  0  0  0  0  0  0  0  0  0  0  0
    7.2030   -4.2210   23.0590 C   0  0  0  0  0  0  0  0  0  0  0  0
    5.7000   -4.6470   23.1710 C   0  0  0  0  0  0  0  0  0  0  0  0
    4.9100   -3.4450   22.5340 C   0  0  0  0  0  0  0  0  0  0  0  0
    5.3640   -2.2860   21.9940 N   0  0  0  0  0  0  0  0  0  0  0  0
  1  2  2  0
  2  3  1  0
  3  4  1  0
  4  5  2  0
  5  6  1  0
  6  7  2  0
  7  8  1  0
  4  9  1  0
  8  9  2  0
  2 10  1  0
 10 11  1  0
 11 12  2  0
 12 13  1  0
 13 14  2  0
 14 15  1  0
 11 16  1  0
 15 16  2  0
 10 17  1  0
 17 18  2  0
 18 19  1  0
 19 20  2  0
 20 21  1  0
 17 22  1  0
 21 22  2  0
M  END
