DAR-DIA-43a5904b-1
     RDKit          3D

 22 24  0  0  0  0  0  0  0  0999 V2000
    9.9970    2.9910   22.2960 N   0  0  0  0  0  0  0  0  0  0  0  0
    9.1950    1.9830   22.1720 C   0  0  0  0  0  0  0  0  0  0  0  0
    8.7300    1.6930   21.0760 O   0  0  0  0  0  0  0  0  0  0  0  0
    8.8570    1.2320   23.4700 C   0  0  1  0  0  0  0  0  0  0  0  0
    7.4580    0.9560   23.5670 C   0  0  0  0  0  0  0  0  0  0  0  0
    7.1760   -0.4190   23.4500 C   0  0  0  0  0  0  0  0  0  0  0  0
    5.9390   -1.0350   23.3830 C   0  0  0  0  0  0  0  0  0  0  0  0
    5.9830   -2.3970   23.0900 C   0  0  0  0  0  0  0  0  0  0  0  0
    6.8130   -3.2920   23.7880 C   0  0  0  0  0  0  0  0  0  0  0  0
    6.8210   -4.6630   23.4620 C   0  0  0  0  0  0  0  0  0  0  0  0
    6.0040   -5.1700   22.4430 C   0  0  0  0  0  0  0  0  0  0  0  0
    5.1010   -4.3060   21.6640 N   0  0  0  0  0  0  0  0  0  0  0  0
    5.1770   -2.9090   22.0740 C   0  0  0  0  0  0  0  0  0  0  0  0
    8.4410   -1.2430   23.4060 C   0  0  0  0  0  0  0  0  0  0  0  0
    9.4650   -0.1850   23.5620 C   0  0  1  0  0  0  0  0  0  0  0  0
   10.7700   -0.5550   22.9180 C   0  0  0  0  0  0  0  0  0  0  0  0
   12.0090    0.3760   23.1070 C   0  0  0  0  0  0  0  0  0  0  0  0
   13.3080   -0.0570   22.4290 C   0  0  0  0  0  0  0  0  0  0  0  0
   13.3800   -1.2350   21.6600 C   0  0  0  0  0  0  0  0  0  0  0  0
   12.0930   -1.8400   21.6970 C   0  0  0  0  0  0  0  0  0  0  0  0
   12.0440   -0.4020   22.6700 Cl  0  0  0  0  0  0  0  0  0  0  0  0
   10.8650   -1.7290   22.1650 C   0  0  0  0  0  0  0  0  0  0  0  0
  1  2  1  0
  2  3  2  0
  4  2  1  6
  4  5  1  0
  5  6  1  0
  6  7  1  0
  7  8  1  0
  8  9  2  0
  9 10  1  0
 10 11  2  0
 11 12  1  0
  8 13  1  0
 12 13  2  0
  6 14  2  0
  4 15  1  0
 14 15  1  0
 15 16  1  6
 16 17  2  0
 17 18  1  0
 18 19  2  0
 19 20  1  0
 20 21  1  0
 16 22  1  0
 20 22  2  0
M  END
