DAR-DIA-43a5904b-6
     RDKit          3D

 23 25  0  0  0  0  0  0  0  0999 V2000
    9.8010    2.9400   23.2760 N   0  0  0  0  0  0  0  0  0  0  0  0
    9.0760    2.1100   22.3160 C   0  0  0  0  0  0  0  0  0  0  0  0
    9.0440    2.3720   20.9550 O   0  0  0  0  0  0  0  0  0  0  0  0
    8.3100    0.9930   22.5940 C   0  0  1  0  0  0  0  0  0  0  0  0
    8.9320   -0.2900   22.4990 C   0  0  1  0  0  0  0  0  0  0  0  0
   10.3290   -0.4980   22.6600 C   0  0  0  0  0  0  0  0  0  0  0  0
   11.2760    0.4470   23.0800 C   0  0  0  0  0  0  0  0  0  0  0  0
   12.6550   -0.0800   23.1290 C   0  0  0  0  0  0  0  0  0  0  0  0
   13.2290   -1.2880   22.8560 C   0  0  0  0  0  0  0  0  0  0  0  0
   12.1630   -1.9700   22.4880 C   0  0  0  0  0  0  0  0  0  0  0  0
   11.7690   -0.3670   22.9240 Cl  0  0  0  0  0  0  0  0  0  0  0  0
   10.8110   -1.8100   22.3350 C   0  0  0  0  0  0  0  0  0  0  0  0
    8.0220   -1.2100   23.2770 C   0  0  0  0  0  0  0  0  0  0  0  0
    7.1290   -0.4820   24.0320 C   0  0  0  0  0  0  0  0  0  0  0  0
    6.0340   -0.9310   24.8040 C   0  0  0  0  0  0  0  0  0  0  0  0
    6.2150   -0.9670   26.1980 C   0  0  0  0  0  0  0  0  0  0  0  0
    6.4200   -2.1840   26.8510 C   0  0  0  0  0  0  0  0  0  0  0  0
    6.5900   -2.2400   28.2460 C   0  0  0  0  0  0  0  0  0  0  0  0
    6.5640   -1.0900   29.0330 C   0  0  0  0  0  0  0  0  0  0  0  0
    6.3490    0.2240   28.3760 N   0  0  0  0  0  0  0  0  0  0  0  0
    6.1870    0.1770   26.9860 C   0  0  0  0  0  0  0  0  0  0  0  0
    7.4610    1.0280   23.8980 C   0  0  2  0  0  0  0  0  0  0  0  0
    6.3200    1.8450   23.6690 O   0  0  0  0  0  0  0  0  0  0  0  0
  1  2  1  0
  2  3  2  0
  4  2  1  1
  4  5  1  0
  5  6  1  1
  6  7  2  0
  7  8  1  0
  8  9  2  0
  9 10  1  0
 10 11  1  0
  6 12  1  0
 10 12  2  0
  5 13  1  0
 13 14  2  0
 14 15  1  0
 15 16  1  0
 16 17  2  0
 17 18  1  0
 18 19  2  0
 19 20  1  0
 16 21  1  0
 20 21  2  0
  4 22  1  0
 14 22  1  0
 22 23  1  6
M  END
