DAR-DIA-eace69ff-26
     RDKit          3D

 22 24  0  0  0  0  0  0  0  0999 V2000
    7.0460   -3.2160   24.7050 C   0  0  0  0  0  0  0  0  0  0  0  0
    8.4030   -3.2630   23.9500 C   0  0  0  0  0  0  0  0  0  0  0  0
    8.8030   -1.9250   23.3610 C   0  0  0  0  0  0  0  0  0  0  0  0
    9.8750   -1.8450   22.6980 C   0  0  0  0  0  0  0  0  0  0  0  0
   10.2270   -0.7030   22.1140 C   0  0  0  0  0  0  0  0  0  0  0  0
   11.3800   -1.1160   21.6470 N   0  0  0  0  0  0  0  0  0  0  0  0
   12.6370   -0.7490   22.1720 C   0  0  0  0  0  0  0  0  0  0  0  0
   12.9880   -1.4240   23.3100 C   0  0  0  0  0  0  0  0  0  0  0  0
   13.2740   -2.6990   22.9260 C   0  0  0  0  0  0  0  0  0  0  0  0
   13.4490   -2.7570   21.4090 C   0  0  0  0  0  0  0  0  0  0  0  0
   12.4270   -2.4910   20.7180 C   0  0  0  0  0  0  0  0  0  0  0  0
   11.4010   -2.3490   21.4620 C   0  0  0  0  0  0  0  0  0  0  0  0
    9.8160    0.6290   21.9080 C   0  0  0  0  0  0  0  0  0  0  0  0
    9.1930    1.9240   21.8540 C   0  0  0  0  0  0  0  0  0  0  0  0
    8.0850    2.3350   22.4810 C   0  0  0  0  0  0  0  0  0  0  0  0
    7.6110    1.3040   23.1580 N   0  0  0  0  0  0  0  0  0  0  0  0
    6.3950    1.3100   23.9720 C   0  0  0  0  0  0  0  0  0  0  0  0
    5.4230    0.3170   23.4570 N   0  0  0  0  0  0  0  0  0  0  0  0
    5.0000   -0.6650   24.4690 C   0  0  0  0  0  0  0  0  0  0  0  0
    5.7480   -0.1450   22.1220 C   0  0  0  0  0  0  0  0  0  0  0  0
    8.5440    0.2520   22.8710 C   0  0  0  0  0  0  0  0  0  0  0  0
    8.1600   -0.7530   23.4330 C   0  0  0  0  0  0  0  0  0  0  0  0
  1  2  1  0
  2  3  1  0
  3  4  2  0
  4  5  1  0
  5  6  1  0
  6  7  1  0
  7  8  1  0
  8  9  1  0
  9 10  1  0
 10 11  1  0
  6 12  1  0
 11 12  1  0
  5 13  2  0
 13 14  1  0
 14 15  2  0
 15 16  1  0
 16 17  1  0
 17 18  1  0
 18 19  1  0
 18 20  1  0
 13 21  1  0
 16 21  1  0
  3 22  1  0
 21 22  2  0
M  END
