DAR-DIA-eace69ff-9
     RDKit          3D

 30 33  0  0  0  0  0  0  0  0999 V2000
   13.0940   -2.2400   20.9640 C   0  0  0  0  0  0  0  0  0  0  0  0
   13.2450   -1.8600   22.4120 C   0  0  0  0  0  0  0  0  0  0  0  0
   12.2810   -0.9870   22.8370 C   0  0  0  0  0  0  0  0  0  0  0  0
   11.0770   -1.5140   23.3450 C   0  0  0  0  0  0  0  0  0  0  0  0
    9.9990   -0.7600   23.8220 C   0  0  0  0  0  0  0  0  0  0  0  0
    8.7970   -1.2090   24.3230 O   0  0  0  0  0  0  0  0  0  0  0  0
    8.2680   -2.5270   24.2020 C   0  0  0  0  0  0  0  0  0  0  0  0
    7.0760   -2.6260   24.9380 C   0  0  0  0  0  0  0  0  0  0  0  0
    5.9700   -1.9850   24.3490 C   0  0  0  0  0  0  0  0  0  0  0  0
    5.5710   -2.4740   23.0930 C   0  0  0  0  0  0  0  0  0  0  0  0
    5.9080   -3.7890   22.7680 C   0  0  0  0  0  0  0  0  0  0  0  0
    7.2570   -4.0780   22.6760 C   0  0  0  0  0  0  0  0  0  0  0  0
    8.1520   -2.8630   22.7820 C   0  0  0  0  0  0  0  0  0  0  0  0
   10.2200    0.7190   23.7590 C   0  0  0  0  0  0  0  0  0  0  0  0
   11.4510    1.3450   23.2190 C   0  0  0  0  0  0  0  0  0  0  0  0
   12.5170    0.4060   22.7520 C   0  0  0  0  0  0  0  0  0  0  0  0
   11.2050    2.8060   23.3240 C   0  0  0  0  0  0  0  0  0  0  0  0
   12.4650    3.2870   22.7240 C   0  0  0  0  0  0  0  0  0  0  0  0
   12.3580    4.7640   22.6480 N   0  0  0  0  0  0  0  0  0  0  0  0
   11.0630    5.2090   22.5790 C   0  0  0  0  0  0  0  0  0  0  0  0
   12.9090    5.3880   23.8000 C   0  0  0  0  0  0  0  0  0  0  0  0
   10.0090    3.0610   23.8800 C   0  0  0  0  0  0  0  0  0  0  0  0
    9.4420    1.8010   24.1320 N   0  0  0  0  0  0  0  0  0  0  0  0
    8.1110    1.7140   24.7490 C   0  0  0  0  0  0  0  0  0  0  0  0
    8.1460    1.5490   26.2570 C   0  0  0  0  0  0  0  0  0  0  0  0
    7.4990    2.4840   27.0850 C   0  0  0  0  0  0  0  0  0  0  0  0
    7.5260    2.3450   28.4710 C   0  0  0  0  0  0  0  0  0  0  0  0
    8.1970    1.2730   29.0520 C   0  0  0  0  0  0  0  0  0  0  0  0
    8.8440    0.3370   28.2420 C   0  0  0  0  0  0  0  0  0  0  0  0
    8.8190    0.4740   26.8560 C   0  0  0  0  0  0  0  0  0  0  0  0
  1  2  1  0
  2  3  1  0
  3  4  2  0
  4  5  1  0
  5  6  1  0
  6  7  1  0
  7  8  1  0
  8  9  1  0
  9 10  1  0
 10 11  1  0
 11 12  1  0
  7 13  1  0
 12 13  1  0
  5 14  2  0
 14 15  1  0
  3 16  1  0
 15 16  2  0
 15 17  1  0
 17 18  1  0
 18 19  1  0
 19 20  1  0
 19 21  1  0
 17 22  2  0
 14 23  1  0
 22 23  1  0
 23 24  1  0
 24 25  1  0
 25 26  2  0
 26 27  1  0
 27 28  2  0
 28 29  1  0
 25 30  1  0
 29 30  2  0
M  END
