DAR-DIA-eace69ff-18
     RDKit          3D

 23 25  0  0  0  0  0  0  0  0999 V2000
   12.9370   -2.4650   21.2370 C   0  0  0  0  0  0  0  0  0  0  0  0
   13.3730   -1.4770   22.0310 C   0  0  0  0  0  0  0  0  0  0  0  0
   12.4000   -0.6510   22.4690 C   0  0  0  0  0  0  0  0  0  0  0  0
   11.0890   -1.1940   22.8200 C   0  0  0  0  0  0  0  0  0  0  0  0
   10.0180   -0.2980   23.2660 C   0  0  0  0  0  0  0  0  0  0  0  0
    8.8980   -0.6340   23.6170 O   0  0  0  0  0  0  0  0  0  0  0  0
    8.0370   -0.9700   22.5070 C   0  0  0  0  0  0  0  0  0  0  0  0
    7.2670    0.1660   22.2450 C   0  0  0  0  0  0  0  0  0  0  0  0
    6.8900    0.2740   20.9180 C   0  0  0  0  0  0  0  0  0  0  0  0
    6.6160   -0.9880   20.4150 C   0  0  0  0  0  0  0  0  0  0  0  0
    5.6330   -1.8500   21.2540 C   0  0  0  0  0  0  0  0  0  0  0  0
    6.2190   -2.7140   22.1700 C   0  0  0  0  0  0  0  0  0  0  0  0
    7.2310   -2.1870   22.9900 C   0  0  0  0  0  0  0  0  0  0  0  0
   10.3350    1.0450   23.2880 C   0  0  0  0  0  0  0  0  0  0  0  0
    9.5120    2.0920   23.6410 N   0  0  0  0  0  0  0  0  0  0  0  0
   10.2360    3.2760   23.5260 C   0  0  0  0  0  0  0  0  0  0  0  0
   11.5040    2.9600   23.1050 C   0  0  0  0  0  0  0  0  0  0  0  0
   12.5360    3.8610   22.8560 C   0  0  0  0  0  0  0  0  0  0  0  0
   12.3030    5.2260   23.3610 N   0  0  0  0  0  0  0  0  0  0  0  0
   11.5140    5.9750   22.4070 C   0  0  0  0  0  0  0  0  0  0  0  0
   11.6010    5.2990   24.6500 C   0  0  0  0  0  0  0  0  0  0  0  0
   11.6070    1.5730   22.9510 C   0  0  0  0  0  0  0  0  0  0  0  0
   12.6230    0.7160   22.5680 C   0  0  0  0  0  0  0  0  0  0  0  0
  1  2  1  0
  2  3  1  0
  3  4  2  0
  4  5  1  0
  5  6  1  0
  6  7  1  0
  7  8  1  0
  8  9  1  0
  9 10  1  0
 10 11  1  0
 11 12  1  0
  7 13  1  0
 12 13  1  0
  5 14  2  0
 14 15  1  0
 15 16  1  0
 16 17  2  0
 17 18  1  0
 18 19  1  0
 19 20  1  0
 19 21  1  0
 14 22  1  0
 17 22  1  0
  3 23  1  0
 22 23  2  0
M  END
