DAR-DIA-43a5904b-8
     RDKit          3D

 21 23  0  0  0  0  0  0  0  0999 V2000
   10.0690    3.1860   22.3300 N   0  0  0  0  0  0  0  0  0  0  0  0
    9.1530    2.0390   22.1840 C   0  0  0  0  0  0  0  0  0  0  0  0
    8.6170    1.7080   20.9110 O   0  0  0  0  0  0  0  0  0  0  0  0
    8.8570    1.3220   23.4720 C   0  0  1  0  0  0  0  0  0  0  0  0
    7.4040    1.0660   23.6770 C   0  0  0  0  0  0  0  0  0  0  0  0
    7.1330   -0.3300   23.2550 C   0  0  0  0  0  0  0  0  0  0  0  0
    5.8360   -0.7930   23.0440 C   0  0  0  0  0  0  0  0  0  0  0  0
    5.0630   -1.1090   24.3300 C   0  0  0  0  0  0  0  0  0  0  0  0
    5.1410   -2.4800   24.9560 C   0  0  0  0  0  0  0  0  0  0  0  0
    4.3830   -2.5820   26.1020 N   0  0  0  0  0  0  0  0  0  0  0  0
    3.7760   -1.4190   26.3450 C   0  0  0  0  0  0  0  0  0  0  0  0
    4.0430   -0.1000   25.2570 S   0  0  0  0  0  0  0  0  0  0  0  0
    8.2900   -0.9780   23.1350 C   0  0  0  0  0  0  0  0  0  0  0  0
    9.3860   -0.1590   23.4760 C   0  0  1  0  0  0  0  0  0  0  0  0
   10.6490   -0.4710   22.9820 C   0  0  0  0  0  0  0  0  0  0  0  0
   11.8710    0.4680   23.1050 C   0  0  0  0  0  0  0  0  0  0  0  0
   13.1460    0.1110   22.5970 C   0  0  0  0  0  0  0  0  0  0  0  0
   13.3110   -1.1200   21.9540 C   0  0  0  0  0  0  0  0  0  0  0  0
   12.0850   -1.8850   21.9130 C   0  0  0  0  0  0  0  0  0  0  0  0
   11.8980   -0.3970   22.7230 Cl  0  0  0  0  0  0  0  0  0  0  0  0
   10.8200   -1.7100   22.3410 C   0  0  0  0  0  0  0  0  0  0  0  0
  1  2  1  0
  2  3  2  0
  4  2  1  6
  4  5  1  0
  5  6  1  0
  6  7  1  0
  7  8  1  0
  8  9  2  0
  9 10  1  0
 10 11  2  0
  8 12  1  0
 11 12  1  0
  6 13  2  0
  4 14  1  0
 13 14  1  0
 14 15  1  6
 15 16  2  0
 16 17  1  0
 17 18  2  0
 18 19  1  0
 19 20  1  0
 15 21  1  0
 19 21  2  0
M  END
