DAR-DIA-eace69ff-1
     RDKit          3D

 31 34  0  0  0  0  0  0  0  0999 V2000
   13.6190   -2.6980   23.5360 C   0  0  0  0  0  0  0  0  0  0  0  0
   13.2000   -1.9200   22.4600 C   0  0  0  0  0  0  0  0  0  0  0  0
   12.2910   -0.9860   22.8230 C   0  0  0  0  0  0  0  0  0  0  0  0
   11.0700   -1.4240   23.3160 C   0  0  0  0  0  0  0  0  0  0  0  0
   10.1100   -0.5960   23.7160 C   0  0  0  0  0  0  0  0  0  0  0  0
    8.9130   -1.0630   24.2190 O   0  0  0  0  0  0  0  0  0  0  0  0
    7.8830   -1.7100   23.4340 C   0  0  0  0  0  0  0  0  0  0  0  0
    8.0140   -3.0980   23.4930 C   0  0  0  0  0  0  0  0  0  0  0  0
    7.1150   -3.7990   22.6940 C   0  0  0  0  0  0  0  0  0  0  0  0
    6.2060   -3.0410   21.9230 C   0  0  0  0  0  0  0  0  0  0  0  0
    6.7040   -1.8300   21.3660 C   0  0  0  0  0  0  0  0  0  0  0  0
    7.8780   -1.3290   21.9560 C   0  0  0  0  0  0  0  0  0  0  0  0
   10.3590    0.8090   23.6200 C   0  0  0  0  0  0  0  0  0  0  0  0
   11.5870    1.2970   23.1230 C   0  0  0  0  0  0  0  0  0  0  0  0
   12.5480    0.3720   22.7320 C   0  0  0  0  0  0  0  0  0  0  0  0
   11.5520    2.7330   23.1320 C   0  0  0  0  0  0  0  0  0  0  0  0
   12.5320    3.6400   22.7060 C   0  0  0  0  0  0  0  0  0  0  0  0
   12.3190    5.0130   23.2130 N   0  0  0  0  0  0  0  0  0  0  0  0
   11.0070    5.5160   22.8290 C   0  0  0  0  0  0  0  0  0  0  0  0
   13.2990    5.8850   22.5770 C   0  0  0  0  0  0  0  0  0  0  0  0
   10.3180    3.0670   23.6410 C   0  0  0  0  0  0  0  0  0  0  0  0
    9.5990    1.9360   23.9260 N   0  0  0  0  0  0  0  0  0  0  0  0
    8.0000    2.1290   24.5380 S   0  0  0  0  0  0  0  0  0  0  0  0
    7.1860    2.3480   23.3570 O   0  0  0  0  0  0  0  0  0  0  0  0
    8.0850    3.1970   25.4980 O   0  0  0  0  0  0  0  0  0  0  0  0
    7.2920    0.7460   25.2540 N   0  0  0  0  0  0  0  0  0  0  0  0
    5.8750    0.6390   25.1370 C   0  0  0  0  0  0  0  0  0  0  0  0
    5.1180    0.2910   26.2550 C   0  0  0  0  0  0  0  0  0  0  0  0
    5.6850   -0.5800   27.1820 C   0  0  0  0  0  0  0  0  0  0  0  0
    7.0300   -0.9020   27.0020 C   0  0  0  0  0  0  0  0  0  0  0  0
    7.8120    0.2850   26.4420 C   0  0  0  0  0  0  0  0  0  0  0  0
  1  2  1  0
  2  3  1  0
  3  4  2  0
  4  5  1  0
  5  6  1  0
  6  7  1  0
  7  8  1  0
  8  9  1  0
  9 10  1  0
 10 11  1  0
  7 12  1  0
 11 12  1  0
  5 13  2  0
 13 14  1  0
  3 15  1  0
 14 15  2  0
 14 16  1  0
 16 17  1  0
 17 18  1  0
 18 19  1  0
 18 20  1  0
 16 21  2  0
 13 22  1  0
 21 22  1  0
 23 22  1  0
 23 24  2  0
 23 25  2  0
 23 26  1  0
 26 27  1  0
 27 28  1  0
 28 29  1  0
 29 30  1  0
 26 31  1  0
 30 31  1  0
M  END
