DAR-DIA-eace69ff-28
     RDKit          3D

 22 24  0  0  0  0  0  0  0  0999 V2000
   12.7820    4.7970   23.2870 C   0  0  0  0  0  0  0  0  0  0  0  0
   12.5810    3.4540   22.6450 C   0  0  0  0  0  0  0  0  0  0  0  0
   11.3680    2.7780   22.8540 C   0  0  0  0  0  0  0  0  0  0  0  0
   11.5970    1.5570   22.8670 C   0  0  0  0  0  0  0  0  0  0  0  0
   10.0490    0.9190   23.0910 C   0  0  0  0  0  0  0  0  0  0  0  0
    8.7220    1.4440   23.2390 N   0  0  0  0  0  0  0  0  0  0  0  0
    8.6910    2.7990   23.8310 C   0  0  0  0  0  0  0  0  0  0  0  0
    8.2520    3.7900   22.9350 C   0  0  0  0  0  0  0  0  0  0  0  0
    6.7620    3.9550   22.6480 C   0  0  0  0  0  0  0  0  0  0  0  0
    6.0410    2.7230   22.1400 C   0  0  0  0  0  0  0  0  0  0  0  0
    6.5320    1.4410   22.4360 C   0  0  0  0  0  0  0  0  0  0  0  0
    7.8600    1.2290   22.0660 C   0  0  0  0  0  0  0  0  0  0  0  0
   10.5130   -0.2300   23.0690 C   0  0  0  0  0  0  0  0  0  0  0  0
   11.6920    1.1600   22.8740 S   0  0  0  0  0  0  0  0  0  0  0  0
   13.2340    0.3690   22.6860 C   0  0  0  0  0  0  0  0  0  0  0  0
   12.7230   -0.7920   22.7800 C   0  0  0  0  0  0  0  0  0  0  0  0
   13.0910   -2.1070   22.7620 C   0  0  0  0  0  0  0  0  0  0  0  0
   12.5400   -2.8690   23.8650 N   0  0  0  0  0  0  0  0  0  0  0  0
   11.1200   -2.6430   24.0730 C   0  0  0  0  0  0  0  0  0  0  0  0
   13.3070   -2.6350   25.0670 C   0  0  0  0  0  0  0  0  0  0  0  0
   11.5590   -0.0270   22.9210 C   0  0  0  0  0  0  0  0  0  0  0  0
   10.8450    1.4330   22.9770 C   0  0  0  0  0  0  0  0  0  0  0  0
  1  2  1  0
  2  3  1  0
  3  4  2  0
  4  5  1  0
  5  6  1  0
  6  7  1  0
  7  8  1  0
  8  9  1  0
  9 10  1  0
 10 11  1  0
  6 12  1  0
 11 12  1  0
  5 13  2  0
 13 14  1  0
 14 15  1  0
 15 16  2  0
 16 17  1  0
 17 18  1  0
 18 19  1  0
 18 20  1  0
 13 21  1  0
 16 21  1  0
  3 22  1  0
 21 22  2  0
M  END
