DAR-DIA-43a5904b-7
     RDKit          3D

 22 24  0  0  0  0  0  0  0  0999 V2000
   10.0350    3.1970   22.5660 N   0  0  0  0  0  0  0  0  0  0  0  0
    9.1490    2.0280   22.4230 C   0  0  0  0  0  0  0  0  0  0  0  0
    8.7990    1.5590   21.1300 O   0  0  0  0  0  0  0  0  0  0  0  0
    8.6340    1.4250   23.5480 C   0  0  1  0  0  0  0  0  0  0  0  0
    7.1890    1.1350   23.4440 C   0  0  0  0  0  0  0  0  0  0  0  0
    7.1130   -0.3660   23.1030 C   0  0  0  0  0  0  0  0  0  0  0  0
    5.9680   -0.9920   22.6460 C   0  0  0  0  0  0  0  0  0  0  0  0
    5.6990   -0.5990   21.3370 C   0  0  0  0  0  0  0  0  0  0  0  0
    6.6110   -0.9450   20.3200 C   0  0  0  0  0  0  0  0  0  0  0  0
    6.2740   -0.4910   18.8930 C   0  0  0  0  0  0  0  0  0  0  0  0
    5.0160    0.2950   18.6010 C   0  0  0  0  0  0  0  0  0  0  0  0
    4.1470    0.5870   19.7850 C   0  0  0  0  0  0  0  0  0  0  0  0
    4.5280    0.1350   21.0510 C   0  0  0  0  0  0  0  0  0  0  0  0
    8.3790   -0.8490   23.3470 C   0  0  0  0  0  0  0  0  0  0  0  0
    9.2390    0.1510   23.8250 C   0  0  1  0  0  0  0  0  0  0  0  0
   10.5390    0.0620   23.3900 C   0  0  0  0  0  0  0  0  0  0  0  0
   11.4560    1.1750   23.7640 C   0  0  0  0  0  0  0  0  0  0  0  0
   12.6540    0.9580   23.2820 C   0  0  0  0  0  0  0  0  0  0  0  0
   13.3460    0.1070   22.5830 C   0  0  0  0  0  0  0  0  0  0  0  0
   12.4440   -1.0570   22.1810 C   0  0  0  0  0  0  0  0  0  0  0  0
   13.0350   -2.3350   21.2500 Cl  0  0  0  0  0  0  0  0  0  0  0  0
   11.0820   -1.0200   22.6050 C   0  0  0  0  0  0  0  0  0  0  0  0
  1  2  1  0
  2  3  2  0
  4  2  1  6
  4  5  1  0
  5  6  1  0
  6  7  1  0
  7  8  1  0
  8  9  2  0
  9 10  1  0
 10 11  2  0
 11 12  1  0
  8 13  1  0
 12 13  2  0
  6 14  2  0
  4 15  1  0
 14 15  1  0
 15 16  1  6
 16 17  2  0
 17 18  1  0
 18 19  2  0
 19 20  1  0
 20 21  1  0
 16 22  1  0
 20 22  2  0
M  END
