DAR-DIA-03336633-3
     RDKit          3D

 29 31  0  0  0  0  0  0  0  0999 V2000
    8.8250    1.2660   21.2170 O   0  0  0  0  0  0  0  0  0  0  0  0
    8.3200    0.1910   21.5880 C   0  0  0  0  0  0  0  0  0  0  0  0
    8.8510   -0.5580   22.6850 N   0  0  0  0  0  0  0  0  0  0  0  0
   10.1350   -0.3910   22.9560 C   0  0  0  0  0  0  0  0  0  0  0  0
   10.7690    0.7620   22.7330 C   0  0  0  0  0  0  0  0  0  0  0  0
   12.2230    0.9530   23.0250 C   0  0  0  0  0  0  0  0  0  0  0  0
   12.9890   -0.2060   23.5990 C   0  0  0  0  0  0  0  0  0  0  0  0
   12.2820   -1.4890   23.8630 C   0  0  0  0  0  0  0  0  0  0  0  0
   13.1040   -2.8200   24.5340 Cl  0  0  0  0  0  0  0  0  0  0  0  0
   10.7940   -1.5030   23.4920 C   0  0  0  0  0  0  0  0  0  0  0  0
    7.2270   -0.3200   20.9730 N   0  0  0  0  0  0  0  0  0  0  0  0
    6.4710    0.2470   20.0540 C   0  0  0  0  0  0  0  0  0  0  0  0
    6.8610    0.1760   18.7350 C   0  0  0  0  0  0  0  0  0  0  0  0
    6.2190    0.7160   17.7010 N   0  0  0  0  0  0  0  0  0  0  0  0
    5.0950    1.3920   17.9810 C   0  0  0  0  0  0  0  0  0  0  0  0
    4.5360    1.5630   19.2100 C   0  0  0  0  0  0  0  0  0  0  0  0
    5.2780    0.9350   20.3650 C   0  0  0  0  0  0  0  0  0  0  0  0
    4.7570    1.0590   21.6580 C   0  0  0  0  0  0  0  0  0  0  0  0
    5.1740    2.1290   22.4380 C   0  0  0  0  0  0  0  0  0  0  0  0
    4.0640    2.9590   22.4810 N   0  0  0  0  0  0  0  0  0  0  0  0
    2.8280    2.6970   23.2970 C   0  0  0  0  0  0  0  0  0  0  0  0
    2.7690    1.9300   24.2650 O   0  0  0  0  0  0  0  0  0  0  0  0
    1.7930    3.4550   22.7740 N   0  0  0  0  0  0  0  0  0  0  0  0
    0.4990    3.8420   23.3690 C   0  0  0  0  0  0  0  0  0  0  0  0
    0.5480    4.5740   24.5550 C   0  0  0  0  0  0  0  0  0  0  0  0
   -0.6910    4.7790   25.1700 C   0  0  0  0  0  0  0  0  0  0  0  0
   -1.7340    4.7350   24.1860 C   0  0  0  0  0  0  0  0  0  0  0  0
   -1.7660    3.2650   23.7470 C   0  0  0  0  0  0  0  0  0  0  0  0
   -0.5370    2.7190   23.4600 C   0  0  0  0  0  0  0  0  0  0  0  0
  1  2  2  0
  2  3  1  0
  3  4  1  0
  4  5  2  0
  5  6  1  0
  6  7  2  0
  7  8  1  0
  8  9  1  0
  4 10  1  0
  8 10  2  0
  2 11  1  0
 11 12  1  0
 12 13  2  0
 13 14  1  0
 14 15  2  0
 15 16  1  0
 12 17  1  0
 16 17  2  0
 17 18  1  0
 18 19  1  0
 19 20  1  0
 20 21  1  0
 21 22  2  0
 21 23  1  0
 23 24  1  0
 24 25  1  0
 25 26  1  0
 26 27  1  0
 27 28  1  0
 24 29  1  0
 28 29  1  0
M  END
