DAR-DIA-43a5904b-17
     RDKit          3D

 31 34  0  0  0  0  0  0  0  0999 V2000
   12.3240   -2.7290   24.6690 C   0  0  0  0  0  0  0  0  0  0  0  0
   11.8950   -1.4320   24.4360 N   0  0  0  0  0  0  0  0  0  0  0  0
   10.8610   -0.6620   25.0210 C   0  0  0  0  0  0  0  0  0  0  0  0
   10.5460    0.5900   24.4170 C   0  0  0  0  0  0  0  0  0  0  0  0
   11.7090    1.4100   23.9440 N   0  0  0  0  0  0  0  0  0  0  0  0
   11.6300    2.5970   23.1800 C   0  0  0  0  0  0  0  0  0  0  0  0
   10.5370    3.4150   23.3860 C   0  0  0  0  0  0  0  0  0  0  0  0
    9.6800    3.1880   22.3270 N   0  0  0  0  0  0  0  0  0  0  0  0
    9.0010    2.0300   22.0670 C   0  0  0  0  0  0  0  0  0  0  0  0
    8.7470    1.7120   20.9110 O   0  0  0  0  0  0  0  0  0  0  0  0
    8.5210    1.1350   23.2210 C   0  0  1  0  0  0  0  0  0  0  0  0
    7.1510    0.8570   23.2200 C   0  0  0  0  0  0  0  0  0  0  0  0
    6.9080   -0.3620   22.6300 C   0  0  0  0  0  0  0  0  0  0  0  0
    5.6740   -0.7080   22.0910 C   0  0  0  0  0  0  0  0  0  0  0  0
    5.4460   -0.1200   20.8440 C   0  0  0  0  0  0  0  0  0  0  0  0
    4.5600    0.9640   20.7110 C   0  0  0  0  0  0  0  0  0  0  0  0
    4.3030    1.6160   19.3700 C   0  0  0  0  0  0  0  0  0  0  0  0
    5.0400    1.0540   18.1500 C   0  0  0  0  0  0  0  0  0  0  0  0
    5.9600   -0.0840   18.3080 N   0  0  0  0  0  0  0  0  0  0  0  0
    6.0960   -0.6040   19.7070 C   0  0  0  0  0  0  0  0  0  0  0  0
    8.0870   -1.0810   22.6860 C   0  0  0  0  0  0  0  0  0  0  0  0
    9.1260   -0.2000   23.4290 C   0  0  1  0  0  0  0  0  0  0  0  0
   10.4540   -0.2950   23.0200 C   0  0  0  0  0  0  0  0  0  0  0  0
   11.3170    0.7030   23.4440 C   0  0  0  0  0  0  0  0  0  0  0  0
   12.5450    0.4970   23.0080 C   0  0  0  0  0  0  0  0  0  0  0  0
   13.2410   -0.3380   22.3000 C   0  0  0  0  0  0  0  0  0  0  0  0
   12.4170   -1.3490   21.8460 C   0  0  0  0  0  0  0  0  0  0  0  0
   13.1390   -2.5130   20.8810 Cl  0  0  0  0  0  0  0  0  0  0  0  0
   11.0510   -1.3490   22.1890 C   0  0  0  0  0  0  0  0  0  0  0  0
   12.7780    0.5340   23.4390 C   0  0  0  0  0  0  0  0  0  0  0  0
   13.0240   -0.5630   24.2710 C   0  0  0  0  0  0  0  0  0  0  0  0
  1  2  1  0
  2  3  1  0
  3  4  1  0
  4  5  1  0
  5  6  1  0
  6  7  1  0
  7  8  1  0
  8  9  1  0
  9 10  2  0
 11  9  1  6
 11 12  1  0
 12 13  1  0
 13 14  1  0
 14 15  1  0
 15 16  2  0
 16 17  1  0
 17 18  2  0
 18 19  1  0
 15 20  1  0
 19 20  2  0
 13 21  2  0
 11 22  1  0
 21 22  1  0
 22 23  1  6
 23 24  2  0
 24 25  1  0
 25 26  2  0
 26 27  1  0
 27 28  1  0
 23 29  1  0
 27 29  2  0
  5 30  1  0
  2 31  1  0
 30 31  1  0
M  END
