DAR-DIA-03336633-6
     RDKit          3D

 29 31  0  0  0  0  0  0  0  0999 V2000
   13.0300   -2.1010   21.3140 C   0  0  0  0  0  0  0  0  0  0  0  0
   12.9900   -1.7390   22.7230 N   0  0  0  0  0  0  0  0  0  0  0  0
   12.8390   -0.3030   22.8460 C   0  0  0  0  0  0  0  0  0  0  0  0
   11.5640   -0.0040   23.1210 C   0  0  0  0  0  0  0  0  0  0  0  0
   10.5180   -0.7550   22.4280 N   0  0  0  0  0  0  0  0  0  0  0  0
    9.1830   -0.2440   22.7520 C   0  0  0  0  0  0  0  0  0  0  0  0
    8.4620    0.3680   21.6550 C   0  0  0  0  0  0  0  0  0  0  0  0
    8.8910    1.4450   21.2100 O   0  0  0  0  0  0  0  0  0  0  0  0
    7.2980   -0.2320   21.1350 N   0  0  0  0  0  0  0  0  0  0  0  0
    6.5060    0.3030   20.1210 C   0  0  0  0  0  0  0  0  0  0  0  0
    6.8810    0.1680   18.7910 C   0  0  0  0  0  0  0  0  0  0  0  0
    6.2190    0.6500   17.7160 N   0  0  0  0  0  0  0  0  0  0  0  0
    5.0990    1.3240   17.9510 C   0  0  0  0  0  0  0  0  0  0  0  0
    4.5860    1.5180   19.3500 C   0  0  0  0  0  0  0  0  0  0  0  0
    5.2960    1.0060   20.3970 C   0  0  0  0  0  0  0  0  0  0  0  0
    4.6510    1.2910   21.6380 C   0  0  0  0  0  0  0  0  0  0  0  0
    4.9450    2.5430   22.3810 C   0  0  0  0  0  0  0  0  0  0  0  0
    4.0430    2.8420   23.5030 N   0  0  0  0  0  0  0  0  0  0  0  0
    2.6910    2.5200   23.5880 C   0  0  0  0  0  0  0  0  0  0  0  0
    2.2680    1.5900   24.2750 O   0  0  0  0  0  0  0  0  0  0  0  0
    1.8930    3.3760   22.8530 N   0  0  0  0  0  0  0  0  0  0  0  0
    0.5780    3.9060   23.2810 C   0  0  0  0  0  0  0  0  0  0  0  0
    0.6620    4.5020   24.5420 C   0  0  0  0  0  0  0  0  0  0  0  0
   -0.6080    4.8420   25.0060 C   0  0  0  0  0  0  0  0  0  0  0  0
   -1.7150    4.5200   24.2240 C   0  0  0  0  0  0  0  0  0  0  0  0
   -1.7320    3.2770   23.5690 C   0  0  0  0  0  0  0  0  0  0  0  0
   -0.4850    2.8020   23.3660 C   0  0  0  0  0  0  0  0  0  0  0  0
   10.6830   -2.1660   22.7650 C   0  0  0  0  0  0  0  0  0  0  0  0
   11.8400   -2.3490   23.4110 C   0  0  0  0  0  0  0  0  0  0  0  0
  1  2  1  0
  2  3  1  0
  3  4  1  0
  4  5  1  0
  5  6  1  0
  6  7  1  0
  7  8  2  0
  7  9  1  0
  9 10  1  0
 10 11  2  0
 11 12  1  0
 12 13  2  0
 13 14  1  0
 10 15  1  0
 14 15  2  0
 15 16  1  0
 16 17  1  0
 17 18  1  0
 18 19  1  0
 19 20  2  0
 19 21  1  0
 21 22  1  0
 22 23  1  0
 23 24  1  0
 24 25  1  0
 25 26  1  0
 22 27  1  0
 26 27  1  0
  5 28  1  0
  2 29  1  0
 28 29  1  0
M  END
