DAR-DIA-fc970077-11
     RDKit          3D

 20 22  0  0  0  0  0  0  0  0999 V2000
    8.7040   -3.6830   24.6100 O   0  0  0  0  0  0  0  0  0  0  0  0
    8.0830   -2.7980   24.0180 C   0  0  0  0  0  0  0  0  0  0  0  0
    8.5270   -1.5230   24.0940 C   0  0  0  0  0  0  0  0  0  0  0  0
    9.0690   -1.0850   22.8200 N   0  0  0  0  0  0  0  0  0  0  0  0
   10.3840   -0.7030   22.7510 C   0  0  0  0  0  0  0  0  0  0  0  0
   10.6870    0.7400   23.1450 C   0  0  0  0  0  0  0  0  0  0  0  0
   11.9640    1.2480   23.1370 C   0  0  0  0  0  0  0  0  0  0  0  0
   13.0280    0.4450   22.7650 C   0  0  0  0  0  0  0  0  0  0  0  0
   12.8700   -0.8860   22.3750 C   0  0  0  0  0  0  0  0  0  0  0  0
   11.4670   -1.4910   22.3650 C   0  0  0  0  0  0  0  0  0  0  0  0
    8.1300   -0.3410   21.9860 C   0  0  0  0  0  0  0  0  0  0  0  0
    6.7770   -0.9990   22.0440 C   0  0  0  0  0  0  0  0  0  0  0  0
    6.8410   -2.3870   22.0830 C   0  0  0  0  0  0  0  0  0  0  0  0
    6.9380   -3.0020   23.2770 N   0  0  0  0  0  0  0  0  0  0  0  0
    6.1500   -4.2250   23.4810 C   0  0  0  0  0  0  0  0  0  0  0  0
    6.5410   -5.2970   22.6750 C   0  0  0  0  0  0  0  0  0  0  0  0
    5.8590   -6.4990   22.7880 C   0  0  0  0  0  0  0  0  0  0  0  0
    4.7350   -6.5830   23.7710 C   0  0  0  0  0  0  0  0  0  0  0  0
    4.3680   -5.5360   24.5460 N   0  0  0  0  0  0  0  0  0  0  0  0
    5.0780   -4.3900   24.3840 C   0  0  0  0  0  0  0  0  0  0  0  0
  1  2  2  0
  2  3  1  0
  3  4  1  0
  4  5  1  0
  5  6  2  0
  6  7  1  0
  7  8  2  0
  8  9  1  0
  5 10  1  0
  9 10  2  0
  4 11  1  0
 11 12  1  0
 12 13  1  0
  2 14  1  0
 13 14  1  0
 14 15  1  0
 15 16  2  0
 16 17  1  0
 17 18  2  0
 18 19  1  0
 15 20  1  0
 19 20  2  0
M  END
