DAR-DIA-03336633-5
     RDKit          3D

 28 30  0  0  0  0  0  0  0  0999 V2000
    8.9810    0.7470   21.5710 O   0  0  0  0  0  0  0  0  0  0  0  0
    8.4720   -0.3710   21.5910 C   0  0  0  0  0  0  0  0  0  0  0  0
    9.2040   -1.5450   22.1030 C   0  0  0  0  0  0  0  0  0  0  0  0
   10.2300   -1.4470   22.9320 C   0  0  0  0  0  0  0  0  0  0  0  0
   10.6130   -0.1830   23.6020 C   0  0  0  0  0  0  0  0  0  0  0  0
   11.8980    0.4920   23.1270 C   0  0  0  0  0  0  0  0  0  0  0  0
   13.0660   -0.4370   23.3720 C   0  0  0  0  0  0  0  0  0  0  0  0
   12.7320   -1.9230   23.1290 C   0  0  0  0  0  0  0  0  0  0  0  0
   11.4760   -1.9890   22.2390 C   0  0  0  0  0  0  0  0  0  0  0  0
    7.1320   -0.7270   21.1460 N   0  0  0  0  0  0  0  0  0  0  0  0
    6.3700   -0.0460   20.1790 C   0  0  0  0  0  0  0  0  0  0  0  0
    6.8710    0.0380   18.7370 C   0  0  0  0  0  0  0  0  0  0  0  0
    6.2440    0.6720   17.7510 N   0  0  0  0  0  0  0  0  0  0  0  0
    5.0740    1.2890   18.0270 C   0  0  0  0  0  0  0  0  0  0  0  0
    4.5110    1.2650   19.3110 C   0  0  0  0  0  0  0  0  0  0  0  0
    5.0340    0.6520   20.4470 C   0  0  0  0  0  0  0  0  0  0  0  0
    4.3810    0.6950   21.6760 C   0  0  0  0  0  0  0  0  0  0  0  0
    4.7470    1.6690   22.5930 C   0  0  0  0  0  0  0  0  0  0  0  0
    3.9480    2.7220   22.8790 N   0  0  0  0  0  0  0  0  0  0  0  0
    2.7130    2.4550   23.3920 C   0  0  0  0  0  0  0  0  0  0  0  0
    2.5050    1.6370   24.2950 O   0  0  0  0  0  0  0  0  0  0  0  0
    1.7630    3.2220   22.7470 N   0  0  0  0  0  0  0  0  0  0  0  0
    0.5010    3.7380   23.3350 C   0  0  0  0  0  0  0  0  0  0  0  0
    0.6690    4.4790   24.6660 C   0  0  0  0  0  0  0  0  0  0  0  0
   -0.7260    4.9180   25.1840 C   0  0  0  0  0  0  0  0  0  0  0  0
   -1.9030    4.5780   24.2450 C   0  0  0  0  0  0  0  0  0  0  0  0
   -1.9110    3.1130   23.7640 C   0  0  0  0  0  0  0  0  0  0  0  0
   -0.4970    2.7760   23.2840 C   0  0  0  0  0  0  0  0  0  0  0  0
  1  2  2  0
  2  3  1  0
  3  4  1  0
  4  5  1  0
  5  6  1  0
  6  7  1  0
  7  8  1  0
  4  9  1  0
  8  9  1  0
  2 10  1  0
 10 11  1  0
 11 12  2  0
 12 13  1  0
 13 14  2  0
 14 15  1  0
 11 16  1  0
 15 16  2  0
 16 17  1  0
 17 18  1  0
 18 19  1  0
 19 20  1  0
 20 21  2  0
 20 22  1  0
 22 23  1  0
 23 24  1  0
 24 25  1  0
 25 26  1  0
 26 27  1  0
 23 28  1  0
 27 28  1  0
M  END
