DAR-DIA-842b4336-10
     RDKit          3D

 15 16  0  0  0  0  0  0  0  0999 V2000
    9.0910    1.5470   21.2700 O   0  0  0  0  0  0  0  0  0  0  0  0
    8.7130    0.4320   21.6350 C   0  0  0  0  0  0  0  0  0  0  0  0
    9.3830   -0.3510   22.6850 C   0  0  0  0  0  0  0  0  0  0  0  0
    8.7590   -1.4540   23.1190 C   0  0  0  0  0  0  0  0  0  0  0  0
    7.7470   -1.5130   24.2060 C   0  0  0  0  0  0  0  0  0  0  0  0
    7.2610   -2.7660   24.4530 C   0  0  0  0  0  0  0  0  0  0  0  0
    7.9750   -3.9170   23.4120 S   0  0  0  0  0  0  0  0  0  0  0  0
    8.9470   -2.7290   22.6250 C   0  0  0  0  0  0  0  0  0  0  0  0
    7.6220   -0.2410   21.1340 N   0  0  0  0  0  0  0  0  0  0  0  0
    6.7140    0.2590   20.2000 C   0  0  0  0  0  0  0  0  0  0  0  0
    5.4820    1.0960   20.5470 C   0  0  0  0  0  0  0  0  0  0  0  0
    4.6990    1.5090   19.3370 C   0  0  0  0  0  0  0  0  0  0  0  0
    5.1360    1.1190   18.0780 C   0  0  0  0  0  0  0  0  0  0  0  0
    6.2210    0.3750   17.8310 N   0  0  0  0  0  0  0  0  0  0  0  0
    6.9660   -0.0300   18.8700 C   0  0  0  0  0  0  0  0  0  0  0  0
  1  2  2  0
  2  3  1  0
  3  4  1  0
  4  5  1  0
  5  6  2  0
  6  7  1  0
  4  8  2  0
  7  8  1  0
  2  9  1  0
  9 10  1  0
 10 11  2  0
 11 12  1  0
 12 13  2  0
 13 14  1  0
 10 15  1  0
 14 15  2  0
M  END
