DAR-DIA-a80d16a0-1
     RDKit          3D

 23 25  0  0  0  0  0  0  0  0999 V2000
   13.1440   -1.8010   21.3770 C   0  0  0  0  0  0  0  0  0  0  0  0
   13.2240   -0.7310   22.4320 C   0  0  0  0  0  0  0  0  0  0  0  0
   12.0280   -0.2060   22.8790 C   0  0  0  0  0  0  0  0  0  0  0  0
   10.9460   -1.0530   22.5580 C   0  0  0  0  0  0  0  0  0  0  0  0
    9.9950   -0.3090   23.1460 N   0  0  0  0  0  0  0  0  0  0  0  0
    8.8120   -0.9460   23.2640 C   0  0  0  0  0  0  0  0  0  0  0  0
    8.6430   -1.7040   24.3910 C   0  0  0  0  0  0  0  0  0  0  0  0
    7.5290   -2.5620   24.3800 N   0  0  0  0  0  0  0  0  0  0  0  0
    7.4240   -3.7160   23.6130 C   0  0  0  0  0  0  0  0  0  0  0  0
    6.5770   -2.4030   25.3390 C   0  0  0  0  0  0  0  0  0  0  0  0
    9.8780    1.0110   23.0230 C   0  0  0  0  0  0  0  0  0  0  0  0
   10.7620    1.8340   23.6680 C   0  0  2  0  0  0  0  0  0  0  0  0
   10.7250    3.1950   23.2300 C   0  0  0  0  0  0  0  0  0  0  0  0
   10.4350    4.3430   23.9540 C   0  0  0  0  0  0  0  0  0  0  0  0
    9.1380    4.6000   24.4270 C   0  0  0  0  0  0  0  0  0  0  0  0
    8.9470    5.7910   25.1410 C   0  0  0  0  0  0  0  0  0  0  0  0
    9.9950    6.6660   25.3590 C   0  0  0  0  0  0  0  0  0  0  0  0
    9.7590    8.1280   26.2350 Cl  0  0  0  0  0  0  0  0  0  0  0  0
   11.2460    6.3400   24.8560 C   0  0  0  0  0  0  0  0  0  0  0  0
   11.4770    5.2100   24.1660 N   0  0  0  0  0  0  0  0  0  0  0  0
   11.3950    3.6050   21.9700 C   0  0  0  0  0  0  0  0  0  0  0  0
   10.0200    3.2220   21.9350 C   0  0  0  0  0  0  0  0  0  0  0  0
   12.0870    1.0400   23.5780 C   0  0  0  0  0  0  0  0  0  0  0  0
  1  2  1  0
  2  3  1  0
  3  4  2  0
  4  5  1  0
  5  6  1  0
  6  7  1  0
  7  8  1  0
  8  9  1  0
  8 10  1  0
  5 11  1  0
 11 12  1  0
 12 13  1  6
 13 14  1  0
 14 15  2  0
 15 16  1  0
 16 17  2  0
 17 18  1  0
 17 19  1  0
 14 20  1  0
 19 20  2  0
 13 21  1  0
 13 22  1  0
 21 22  1  0
  3 23  1  0
 12 23  1  0
M  END
