DAR-DIA-842b4336-8
     RDKit          3D

 16 17  0  0  0  0  0  0  0  0999 V2000
    9.2500    0.9600   21.6330 O   0  0  0  0  0  0  0  0  0  0  0  0
    8.4910   -0.0060   21.7280 C   0  0  0  0  0  0  0  0  0  0  0  0
    7.0560    0.0490   21.5670 N   0  0  0  0  0  0  0  0  0  0  0  0
    6.4710    0.4190   20.2800 C   0  0  0  0  0  0  0  0  0  0  0  0
    5.3030    1.2940   20.2840 C   0  0  0  0  0  0  0  0  0  0  0  0
    4.7070    1.6870   19.1130 C   0  0  0  0  0  0  0  0  0  0  0  0
    5.2730    1.2110   17.9430 C   0  0  0  0  0  0  0  0  0  0  0  0
    6.3620    0.3870   17.8810 N   0  0  0  0  0  0  0  0  0  0  0  0
    6.9490   -0.0050   19.0340 C   0  0  0  0  0  0  0  0  0  0  0  0
    8.9180   -1.2800   22.0080 N   0  0  0  0  0  0  0  0  0  0  0  0
    9.9660   -1.6440   22.7630 C   0  0  0  0  0  0  0  0  0  0  0  0
   11.1230   -1.0180   23.0070 N   0  0  0  0  0  0  0  0  0  0  0  0
   11.7780   -1.8940   23.8360 C   0  0  0  0  0  0  0  0  0  0  0  0
   13.2940   -1.7020   24.5060 Cl  0  0  0  0  0  0  0  0  0  0  0  0
   10.8820   -3.0660   24.0320 C   0  0  0  0  0  0  0  0  0  0  0  0
    9.7540   -2.8740   23.3470 O   0  0  0  0  0  0  0  0  0  0  0  0
  1  2  2  0
  2  3  1  0
  3  4  1  0
  4  5  2  0
  5  6  1  0
  6  7  2  0
  7  8  1  0
  4  9  1  0
  8  9  2  0
  2 10  1  0
 10 11  1  0
 11 12  2  0
 12 13  1  0
 13 14  1  0
 13 15  2  0
 11 16  1  0
 15 16  1  0
M  END
