DAR-DIA-fc970077-5
     RDKit          3D

 19 21  0  0  0  0  0  0  0  0999 V2000
    8.4470    0.5950   21.1680 O   0  0  0  0  0  0  0  0  0  0  0  0
    8.2470   -0.4300   21.8160 C   0  0  0  0  0  0  0  0  0  0  0  0
    6.9330   -1.2280   21.7090 C   0  0  0  0  0  0  0  0  0  0  0  0
    6.7720   -2.2280   22.7470 N   0  0  0  0  0  0  0  0  0  0  0  0
    5.6050   -2.9660   22.9710 C   0  0  0  0  0  0  0  0  0  0  0  0
    4.9170   -2.6130   24.1430 C   0  0  0  0  0  0  0  0  0  0  0  0
    3.7400   -3.3050   24.4590 C   0  0  0  0  0  0  0  0  0  0  0  0
    3.2950   -4.3110   23.6060 C   0  0  0  0  0  0  0  0  0  0  0  0
    3.9940   -4.6410   22.4360 N   0  0  0  0  0  0  0  0  0  0  0  0
    5.1380   -3.9850   22.1190 C   0  0  0  0  0  0  0  0  0  0  0  0
    7.9960   -2.9610   23.0440 C   0  0  0  0  0  0  0  0  0  0  0  0
    8.9580   -2.0470   23.3840 C   0  0  0  0  0  0  0  0  0  0  0  0
    9.1590   -0.9550   22.6910 N   0  0  0  0  0  0  0  0  0  0  0  0
   10.5250   -0.5110   22.7050 C   0  0  0  0  0  0  0  0  0  0  0  0
   10.6650    0.8000   23.0690 C   0  0  0  0  0  0  0  0  0  0  0  0
   12.0170    1.4240   23.1400 C   0  0  0  0  0  0  0  0  0  0  0  0
   13.2180    0.5840   22.8070 C   0  0  0  0  0  0  0  0  0  0  0  0
   13.0550   -0.8620   22.4050 C   0  0  0  0  0  0  0  0  0  0  0  0
   11.6230   -1.3230   22.3830 C   0  0  0  0  0  0  0  0  0  0  0  0
  1  2  2  0
  2  3  1  0
  3  4  1  0
  4  5  1  0
  5  6  2  0
  6  7  1  0
  7  8  2  0
  8  9  1  0
  5 10  1  0
  9 10  2  0
  4 11  1  0
 11 12  1  0
  2 13  1  0
 12 13  1  0
 13 14  1  0
 14 15  2  0
 15 16  1  0
 16 17  2  0
 17 18  1  0
 14 19  1  0
 18 19  2  0
M  END
