DAR-DIA-43a5904b-13
     RDKit          3D

 25 27  0  0  0  0  0  0  0  0999 V2000
   10.9510    6.0910   24.0160 N   0  0  0  0  0  0  0  0  0  0  0  0
   10.8700    4.6540   23.7270 C   0  0  0  0  0  0  0  0  0  0  0  0
    9.6560    4.1280   23.2990 C   0  0  0  0  0  0  0  0  0  0  0  0
    9.8150    3.3140   22.1070 N   0  0  0  0  0  0  0  0  0  0  0  0
    9.1960    2.1280   22.0070 C   0  0  0  0  0  0  0  0  0  0  0  0
    8.8000    1.6220   20.9740 O   0  0  0  0  0  0  0  0  0  0  0  0
    8.8440    1.3200   23.2060 C   0  0  1  0  0  0  0  0  0  0  0  0
    7.3880    1.0050   23.4230 C   0  0  0  0  0  0  0  0  0  0  0  0
    7.2220   -0.3680   23.2350 C   0  0  0  0  0  0  0  0  0  0  0  0
    5.9590   -0.9360   23.0950 C   0  0  0  0  0  0  0  0  0  0  0  0
    5.6200   -1.8980   24.0470 C   0  0  0  0  0  0  0  0  0  0  0  0
    6.3970   -1.9360   25.1910 C   0  0  0  0  0  0  0  0  0  0  0  0
    6.1020   -2.9640   26.3010 C   0  0  0  0  0  0  0  0  0  0  0  0
    5.0350   -3.8000   26.0410 C   0  0  0  0  0  0  0  0  0  0  0  0
    4.2740   -3.7520   24.9060 N   0  0  0  0  0  0  0  0  0  0  0  0
    4.5730   -2.8200   23.9460 C   0  0  0  0  0  0  0  0  0  0  0  0
    8.4040   -0.9880   23.2120 C   0  0  0  0  0  0  0  0  0  0  0  0
    9.4720   -0.1090   23.4170 C   0  0  1  0  0  0  0  0  0  0  0  0
   10.7220   -0.4430   22.9350 C   0  0  0  0  0  0  0  0  0  0  0  0
   11.8710    0.4350   23.0730 C   0  0  0  0  0  0  0  0  0  0  0  0
   13.1560    0.0670   22.5780 C   0  0  0  0  0  0  0  0  0  0  0  0
   13.2880   -1.1780   21.9330 C   0  0  0  0  0  0  0  0  0  0  0  0
   12.1490   -1.8150   21.9080 C   0  0  0  0  0  0  0  0  0  0  0  0
   11.9720   -0.3300   22.7250 Cl  0  0  0  0  0  0  0  0  0  0  0  0
   10.8880   -1.6880   22.2910 C   0  0  0  0  0  0  0  0  0  0  0  0
  1  2  1  0
  2  3  1  0
  3  4  1  0
  4  5  1  0
  5  6  2  0
  7  5  1  6
  7  8  1  0
  8  9  1  0
  9 10  1  0
 10 11  1  0
 11 12  2  0
 12 13  1  0
 13 14  2  0
 14 15  1  0
 11 16  1  0
 15 16  2  0
  9 17  2  0
  7 18  1  0
 17 18  1  0
 18 19  1  6
 19 20  2  0
 20 21  1  0
 21 22  2  0
 22 23  1  0
 23 24  1  0
 19 25  1  0
 23 25  2  0
M  END
