DAR-DIA-fc970077-8
     RDKit          3D

 19 21  0  0  0  0  0  0  0  0999 V2000
    8.8890    0.7860   21.2520 O   0  0  0  0  0  0  0  0  0  0  0  0
    8.3900   -0.3080   21.5270 C   0  0  0  0  0  0  0  0  0  0  0  0
    9.0510   -1.1620   22.2990 C   0  0  1  0  0  0  0  0  0  0  0  0
   10.4460   -0.7320   22.5010 C   0  0  0  0  0  0  0  0  0  0  0  0
   10.6430    0.7540   22.8430 C   0  0  0  0  0  0  0  0  0  0  0  0
   11.9390    1.2050   23.0130 C   0  0  0  0  0  0  0  0  0  0  0  0
   13.0360    0.3660   22.8950 C   0  0  0  0  0  0  0  0  0  0  0  0
   12.9470   -0.9900   22.5970 C   0  0  0  0  0  0  0  0  0  0  0  0
   11.5500   -1.5630   22.3860 C   0  0  0  0  0  0  0  0  0  0  0  0
    8.5490   -1.2710   23.4180 O   0  0  0  0  0  0  0  0  0  0  0  0
    7.0890   -1.2580   23.4680 C   0  0  0  0  0  0  0  0  0  0  0  0
    6.3370   -1.3770   22.1360 C   0  0  0  0  0  0  0  0  0  0  0  0
    7.1180   -0.7350   21.0880 N   0  0  0  0  0  0  0  0  0  0  0  0
    6.4230   -0.0540   20.1100 C   0  0  0  0  0  0  0  0  0  0  0  0
    5.2400    0.6650   20.3080 C   0  0  0  0  0  0  0  0  0  0  0  0
    4.6110    1.3490   19.2460 C   0  0  0  0  0  0  0  0  0  0  0  0
    5.1310    1.3480   17.9450 C   0  0  0  0  0  0  0  0  0  0  0  0
    6.2800    0.6410   17.7440 N   0  0  0  0  0  0  0  0  0  0  0  0
    6.9110   -0.0510   18.8240 C   0  0  0  0  0  0  0  0  0  0  0  0
  1  2  2  0
  2  3  1  0
  3  4  1  1
  4  5  2  0
  5  6  1  0
  6  7  2  0
  7  8  1  0
  4  9  1  0
  8  9  2  0
  3 10  1  0
 10 11  1  0
 11 12  1  0
  2 13  1  0
 12 13  1  0
 13 14  1  0
 14 15  2  0
 15 16  1  0
 16 17  2  0
 17 18  1  0
 14 19  1  0
 18 19  2  0
M  END
