DAR-DIA-a80d16a0-8
     RDKit          3D

 21 23  0  0  0  0  0  0  0  0999 V2000
    6.0550    0.9200   19.0500 C   0  0  0  0  0  0  0  0  0  0  0  0
    5.8510    1.7170   20.3210 C   0  0  0  0  0  0  0  0  0  0  0  0
    7.0860    2.0970   21.0970 C   0  0  0  0  0  0  0  0  0  0  0  0
    7.1940    3.4340   21.7600 C   0  0  0  0  0  0  0  0  0  0  0  0
    8.3740    3.6180   22.4050 N   0  0  0  0  0  0  0  0  0  0  0  0
    9.2170    2.4520   22.2710 C   0  0  0  0  0  0  0  0  0  0  0  0
   10.5960    2.5260   22.9510 C   0  0  0  0  0  0  0  0  0  0  0  0
   11.0150    1.2320   23.6890 C   0  0  2  0  0  0  0  0  0  0  0  0
   12.3060    0.7010   23.0540 C   0  0  0  0  0  0  0  0  0  0  0  0
   12.3330   -0.6840   22.7620 C   0  0  0  0  0  0  0  0  0  0  0  0
   13.4970   -1.3500   22.7020 F   0  0  0  0  0  0  0  0  0  0  0  0
   11.1560   -1.3650   22.5330 C   0  0  0  0  0  0  0  0  0  0  0  0
    9.9680   -0.5730   22.6240 N   0  0  0  0  0  0  0  0  0  0  0  0
    8.6980   -1.1120   22.8930 C   0  0  0  0  0  0  0  0  0  0  0  0
    8.9030   -2.1020   23.9990 C   0  0  0  0  0  0  0  0  0  0  0  0
    7.9260   -1.8900   24.8740 N   0  0  0  0  0  0  0  0  0  0  0  0
    6.8600   -2.7230   24.8410 C   0  0  0  0  0  0  0  0  0  0  0  0
    9.9210    0.3620   23.7760 C   0  0  0  0  0  0  0  0  0  0  0  0
   11.6740    3.3770   22.2800 C   0  0  0  0  0  0  0  0  0  0  0  0
   10.9850    3.9380   23.3720 C   0  0  0  0  0  0  0  0  0  0  0  0
    8.5160    1.1660   21.3640 S   0  0  0  0  0  0  0  0  0  0  0  0
  1  2  1  0
  2  3  1  0
  3  4  2  0
  4  5  1  0
  5  6  2  0
  7  6  1  0
  8  7  1  6
  8  9  1  0
  9 10  1  0
 10 11  1  0
 10 12  2  0
 12 13  1  0
 13 14  1  0
 14 15  1  0
 15 16  1  0
 16 17  1  0
  8 18  1  0
 13 18  1  0
  7 19  1  0
  7 20  1  0
 19 20  1  0
  3 21  1  0
  6 21  1  0
M  END
