DAR-DIA-23aa0b97-16
     RDKit          3D

 17 18  0  0  0  0  0  0  0  0999 V2000
    8.8710    1.2570   21.2380 O   0  0  0  0  0  0  0  0  0  0  0  0
    8.4080    0.1710   21.6380 C   0  0  0  0  0  0  0  0  0  0  0  0
    8.9280   -0.5180   22.8350 C   0  0  0  0  0  0  0  0  0  0  0  0
   10.2910   -0.4070   22.9740 C   0  0  0  0  0  0  0  0  0  0  0  0
   10.9340    0.7540   22.7760 C   0  0  0  0  0  0  0  0  0  0  0  0
   12.2570    0.9200   22.8860 N   0  0  0  0  0  0  0  0  0  0  0  0
   13.2400    0.0100   23.2110 C   0  0  0  0  0  0  0  0  0  0  0  0
   12.4760   -1.1820   23.4140 C   0  0  0  0  0  0  0  0  0  0  0  0
   13.3660   -2.5630   23.8670 Cl  0  0  0  0  0  0  0  0  0  0  0  0
   11.1120   -1.4190   23.3110 C   0  0  0  0  0  0  0  0  0  0  0  0
    7.3850   -0.4640   21.0110 N   0  0  0  0  0  0  0  0  0  0  0  0
    6.5580    0.1440   20.0740 C   0  0  0  0  0  0  0  0  0  0  0  0
    5.3040    0.9370   20.4050 C   0  0  0  0  0  0  0  0  0  0  0  0
    4.5740    1.5320   19.2000 C   0  0  0  0  0  0  0  0  0  0  0  0
    5.1260    1.2830   17.9700 C   0  0  0  0  0  0  0  0  0  0  0  0
    6.2330    0.5630   17.7290 N   0  0  0  0  0  0  0  0  0  0  0  0
    6.9060    0.0240   18.7530 C   0  0  0  0  0  0  0  0  0  0  0  0
  1  2  2  0
  2  3  1  0
  3  4  1  0
  4  5  2  0
  5  6  1  0
  6  7  2  0
  7  8  1  0
  8  9  1  0
  4 10  1  0
  8 10  2  0
  2 11  1  0
 11 12  1  0
 12 13  2  0
 13 14  1  0
 14 15  2  0
 15 16  1  0
 12 17  1  0
 16 17  2  0
M  END
