DAR-DIA-eace69ff-4
     RDKit          3D

 31 34  0  0  0  0  0  0  0  0999 V2000
   12.8310   -2.5020   21.2310 C   0  0  0  0  0  0  0  0  0  0  0  0
   13.3480   -1.3640   21.9790 C   0  0  0  0  0  0  0  0  0  0  0  0
   12.3610   -0.6060   22.5200 C   0  0  0  0  0  0  0  0  0  0  0  0
   11.2050   -1.2340   22.9230 C   0  0  0  0  0  0  0  0  0  0  0  0
   10.1320   -0.3830   23.5100 C   0  0  0  0  0  0  0  0  0  0  0  0
    9.0190   -0.7500   23.9460 O   0  0  0  0  0  0  0  0  0  0  0  0
    8.4340   -2.0760   24.0110 C   0  0  0  0  0  0  0  0  0  0  0  0
    8.7680   -2.9630   25.0360 C   0  0  0  0  0  0  0  0  0  0  0  0
    7.9330   -4.2310   25.1170 C   0  0  0  0  0  0  0  0  0  0  0  0
    7.1590   -4.4600   23.8380 C   0  0  0  0  0  0  0  0  0  0  0  0
    7.5030   -3.7340   22.6820 C   0  0  0  0  0  0  0  0  0  0  0  0
    8.4430   -2.6930   22.7610 C   0  0  0  0  0  0  0  0  0  0  0  0
   10.3440    1.0220   23.5920 C   0  0  0  0  0  0  0  0  0  0  0  0
   11.5530    1.5470   23.1290 C   0  0  0  0  0  0  0  0  0  0  0  0
   12.5440    0.7510   22.6290 C   0  0  0  0  0  0  0  0  0  0  0  0
   11.4060    3.0040   23.3230 C   0  0  0  0  0  0  0  0  0  0  0  0
   12.4950    3.7880   22.8830 C   0  0  0  0  0  0  0  0  0  0  0  0
   12.1990    5.2350   23.0870 N   0  0  0  0  0  0  0  0  0  0  0  0
   10.8780    5.5490   22.6100 C   0  0  0  0  0  0  0  0  0  0  0  0
   12.2330    5.7250   24.4570 C   0  0  0  0  0  0  0  0  0  0  0  0
   10.1940    3.2570   23.8900 C   0  0  0  0  0  0  0  0  0  0  0  0
    9.5560    2.0520   24.0560 N   0  0  0  0  0  0  0  0  0  0  0  0
    8.2190    1.9430   24.6400 C   0  0  0  0  0  0  0  0  0  0  0  0
    7.2280    2.6300   23.9040 C   0  0  0  0  0  0  0  0  0  0  0  0
    6.1690    3.2630   24.7330 N   0  0  0  0  0  0  0  0  0  0  0  0
    4.8400    3.1500   24.0780 C   0  0  0  0  0  0  0  0  0  0  0  0
    4.2830    1.8670   24.0970 C   0  0  0  0  0  0  0  0  0  0  0  0
    4.6720    1.0280   25.2550 N   0  0  0  0  0  0  0  0  0  0  0  0
    3.6900   -0.0090   25.5620 C   0  0  0  0  0  0  0  0  0  0  0  0
    4.9930    1.8430   26.4380 C   0  0  0  0  0  0  0  0  0  0  0  0
    6.1100    2.8300   26.1480 C   0  0  0  0  0  0  0  0  0  0  0  0
  1  2  1  0
  2  3  1  0
  3  4  2  0
  4  5  1  0
  5  6  1  0
  6  7  1  0
  7  8  1  0
  8  9  1  0
  9 10  1  0
 10 11  1  0
  7 12  1  0
 11 12  1  0
  5 13  2  0
 13 14  1  0
  3 15  1  0
 14 15  2  0
 14 16  1  0
 16 17  1  0
 17 18  1  0
 18 19  1  0
 18 20  1  0
 16 21  2  0
 13 22  1  0
 21 22  1  0
 22 23  1  0
 23 24  1  0
 24 25  1  0
 25 26  1  0
 26 27  1  0
 27 28  1  0
 28 29  1  0
 28 30  1  0
 25 31  1  0
 30 31  1  0
M  END
