DAR-DIA-842b4336-18
     RDKit          3D

 19 21  0  0  0  0  0  0  0  0999 V2000
   13.2370   -2.2780   24.6080 C   0  0  0  0  0  0  0  0  0  0  0  0
   12.9760   -0.8630   24.0690 C   0  0  0  0  0  0  0  0  0  0  0  0
   12.4580    0.3530   23.4720 C   0  0  0  0  0  0  0  0  0  0  0  0
   11.2360    0.5350   22.8620 C   0  0  0  0  0  0  0  0  0  0  0  0
   10.5250   -0.5600   22.8560 C   0  0  0  0  0  0  0  0  0  0  0  0
    9.2410   -0.7450   22.3150 N   0  0  0  0  0  0  0  0  0  0  0  0
    8.3700    0.2060   21.8170 C   0  0  0  0  0  0  0  0  0  0  0  0
    8.7310    1.3600   21.1480 O   0  0  0  0  0  0  0  0  0  0  0  0
    6.9950   -0.0140   22.0100 C   0  0  0  0  0  0  0  0  0  0  0  0
    6.7210   -1.0040   22.9510 C   0  0  0  0  0  0  0  0  0  0  0  0
    6.4160   -2.3170   23.3850 C   0  0  0  0  0  0  0  0  0  0  0  0
    6.2790   -2.5430   24.7310 C   0  0  0  0  0  0  0  0  0  0  0  0
    5.9880   -3.6880   25.4670 C   0  0  0  0  0  0  0  0  0  0  0  0
    5.9440   -3.4400   26.9930 C   0  0  0  0  0  0  0  0  0  0  0  0
    6.2040   -2.0390   27.5800 C   0  0  0  0  0  0  0  0  0  0  0  0
    6.4980   -0.9090   26.7200 N   0  0  0  0  0  0  0  0  0  0  0  0
    6.5210   -1.2100   25.3500 C   0  0  0  0  0  0  0  0  0  0  0  0
    6.7830   -0.3050   24.1970 N   0  0  0  0  0  0  0  0  0  0  0  0
   11.5130   -1.7710   23.6690 S   0  0  0  0  0  0  0  0  0  0  0  0
  1  2  1  0
  2  3  2  0
  3  4  1  0
  4  5  2  0
  5  6  1  0
  6  7  1  0
  7  8  2  0
  7  9  1  0
  9 10  1  0
 10 11  2  0
 11 12  1  0
 12 13  2  0
 13 14  1  0
 14 15  2  0
 15 16  1  0
 12 17  1  0
 16 17  2  0
 10 18  1  0
 17 18  1  0
  2 19  1  0
  5 19  1  0
M  END
