DAR-DIA-842b4336-24
     RDKit          3D

 18 20  0  0  0  0  0  0  0  0999 V2000
    8.5270    1.0110   21.1410 O   0  0  0  0  0  0  0  0  0  0  0  0
    8.6650   -0.0200   21.8080 C   0  0  0  0  0  0  0  0  0  0  0  0
    8.1810   -1.2000   21.4170 C   0  0  0  0  0  0  0  0  0  0  0  0
    7.3950   -2.0060   22.3700 C   0  0  0  0  0  0  0  0  0  0  0  0
    7.6080   -3.3330   22.6460 C   0  0  0  0  0  0  0  0  0  0  0  0
    6.7270   -3.8300   23.5630 C   0  0  0  0  0  0  0  0  0  0  0  0
    6.6060   -5.1960   24.1270 C   0  0  0  0  0  0  0  0  0  0  0  0
    5.5270   -5.3530   25.1060 C   0  0  0  0  0  0  0  0  0  0  0  0
    4.7010   -4.0960   25.3860 C   0  0  0  0  0  0  0  0  0  0  0  0
    4.8680   -2.8640   24.8210 N   0  0  0  0  0  0  0  0  0  0  0  0
    5.8830   -2.8000   23.9330 C   0  0  0  0  0  0  0  0  0  0  0  0
    6.3150   -1.6250   23.1620 N   0  0  0  0  0  0  0  0  0  0  0  0
    9.3270   -0.0470   23.0190 N   0  0  0  0  0  0  0  0  0  0  0  0
   10.6680   -0.1370   23.1830 C   0  0  0  0  0  0  0  0  0  0  0  0
   11.1660   -1.1940   24.0930 C   0  0  0  0  0  0  0  0  0  0  0  0
   12.4280   -1.5190   24.4500 C   0  0  0  0  0  0  0  0  0  0  0  0
   12.8780   -0.2200   23.3940 S   0  0  0  0  0  0  0  0  0  0  0  0
   11.5960    0.6400   22.6040 C   0  0  0  0  0  0  0  0  0  0  0  0
  1  2  2  0
  2  3  1  0
  3  4  1  0
  4  5  2  0
  5  6  1  0
  6  7  2  0
  7  8  1  0
  8  9  2  0
  9 10  1  0
  6 11  1  0
 10 11  2  0
  4 12  1  0
 11 12  1  0
  2 13  1  0
 13 14  1  0
 14 15  1  0
 15 16  2  0
 16 17  1  0
 14 18  2  0
 17 18  1  0
M  END
