DAR-DIA-23aa0b97-15
     RDKit          3D

 17 18  0  0  0  0  0  0  0  0999 V2000
    9.0800    1.5220   21.3070 O   0  0  0  0  0  0  0  0  0  0  0  0
    8.7850    0.3880   21.7060 C   0  0  0  0  0  0  0  0  0  0  0  0
    9.5200   -0.3350   22.6380 N   0  0  0  0  0  0  0  0  0  0  0  0
   10.8310    0.0050   23.0880 C   0  0  0  0  0  0  0  0  0  0  0  0
   11.9850   -0.8720   22.8490 C   0  0  0  0  0  0  0  0  0  0  0  0
   10.9750    0.0140   23.1210 C   0  0  0  0  0  0  0  0  0  0  0  0
   11.6050    0.7460   23.6350 C   0  0  0  0  0  0  0  0  0  0  0  0
   10.2670    1.3090   23.6760 N   0  0  0  0  0  0  0  0  0  0  0  0
   11.3610    1.3960   23.9370 C   0  0  0  0  0  0  0  0  0  0  0  0
    7.6640   -0.3140   21.2900 N   0  0  0  0  0  0  0  0  0  0  0  0
    6.7660    0.1350   20.3180 C   0  0  0  0  0  0  0  0  0  0  0  0
    7.0190   -0.1500   18.7890 C   0  0  0  0  0  0  0  0  0  0  0  0
    6.1480    0.3160   17.8250 N   0  0  0  0  0  0  0  0  0  0  0  0
    5.0550    1.0260   18.1440 C   0  0  0  0  0  0  0  0  0  0  0  0
    4.9780    1.1770   19.5550 C   0  0  0  0  0  0  0  0  0  0  0  0
    3.5670    2.0780   19.9850 Cl  0  0  0  0  0  0  0  0  0  0  0  0
    5.6410    0.8560   20.7310 C   0  0  0  0  0  0  0  0  0  0  0  0
  1  2  2  0
  2  3  1  0
  3  4  1  0
  4  5  2  0
  5  6  1  0
  6  7  2  0
  7  8  1  0
  4  9  1  0
  8  9  2  0
  2 10  1  0
 10 11  1  0
 11 12  2  0
 12 13  1  0
 13 14  2  0
 14 15  1  0
 15 16  1  0
 11 17  1  0
 15 17  2  0
M  END
