DAR-DIA-eace69ff-14
     RDKit          3D

 29 32  0  0  0  0  0  0  0  0999 V2000
   13.3040   -2.0170   20.8450 C   0  0  0  0  0  0  0  0  0  0  0  0
   13.1550   -1.7200   22.2890 C   0  0  0  0  0  0  0  0  0  0  0  0
   12.2000   -0.8000   22.5900 C   0  0  0  0  0  0  0  0  0  0  0  0
   10.8800   -1.3030   22.8170 C   0  0  0  0  0  0  0  0  0  0  0  0
    9.7280   -0.5420   23.1300 C   0  0  0  0  0  0  0  0  0  0  0  0
    8.4350   -1.0190   23.3340 O   0  0  0  0  0  0  0  0  0  0  0  0
    8.0650   -2.2870   23.9290 C   0  0  0  0  0  0  0  0  0  0  0  0
    8.1120   -2.2100   25.4350 C   0  0  0  0  0  0  0  0  0  0  0  0
    7.2320   -3.3790   25.9010 C   0  0  0  0  0  0  0  0  0  0  0  0
    6.7520   -4.2210   24.7250 C   0  0  0  0  0  0  0  0  0  0  0  0
    8.0060   -4.5990   23.9360 C   0  0  0  0  0  0  0  0  0  0  0  0
    8.4940   -3.4480   23.3150 C   0  0  0  0  0  0  0  0  0  0  0  0
    9.9790    0.8230   23.2000 C   0  0  0  0  0  0  0  0  0  0  0  0
   11.2020    1.2290   22.9790 C   0  0  0  0  0  0  0  0  0  0  0  0
   12.4300    0.6120   22.6760 C   0  0  0  0  0  0  0  0  0  0  0  0
   11.4830    2.7130   23.0280 C   0  0  0  0  0  0  0  0  0  0  0  0
   12.5620    3.5850   22.8490 C   0  0  0  0  0  0  0  0  0  0  0  0
   12.2780    4.9730   23.3530 N   0  0  0  0  0  0  0  0  0  0  0  0
   11.3920    5.6040   22.4200 C   0  0  0  0  0  0  0  0  0  0  0  0
   11.5400    5.0690   24.6180 C   0  0  0  0  0  0  0  0  0  0  0  0
   10.1870    3.1180   23.3440 C   0  0  0  0  0  0  0  0  0  0  0  0
    9.3160    2.0100   23.4420 N   0  0  0  0  0  0  0  0  0  0  0  0
    7.9050    2.1650   23.7510 C   0  0  0  0  0  0  0  0  0  0  0  0
    7.1470    2.1540   22.5860 C   0  0  0  0  0  0  0  0  0  0  0  0
    7.6320    1.4590   21.4650 C   0  0  0  0  0  0  0  0  0  0  0  0
    6.9270    1.3990   20.2610 C   0  0  0  0  0  0  0  0  0  0  0  0
    5.7040    2.0330   20.1190 C   0  0  0  0  0  0  0  0  0  0  0  0
    5.0820    2.8160   21.2620 C   0  0  0  0  0  0  0  0  0  0  0  0
    5.9160    2.8220   22.5250 C   0  0  0  0  0  0  0  0  0  0  0  0
  1  2  1  0
  2  3  1  0
  3  4  2  0
  4  5  1  0
  5  6  1  0
  6  7  1  0
  7  8  1  0
  8  9  1  0
  9 10  1  0
 10 11  1  0
  7 12  1  0
 11 12  1  0
  5 13  2  0
 13 14  1  0
  3 15  1  0
 14 15  2  0
 14 16  1  0
 16 17  1  0
 17 18  1  0
 18 19  1  0
 18 20  1  0
 16 21  2  0
 13 22  1  0
 21 22  1  0
 22 23  1  0
 23 24  1  0
 24 25  2  0
 25 26  1  0
 26 27  2  0
 27 28  1  0
 24 29  1  0
 28 29  2  0
M  END
