DAR-DIA-842b4336-11
     RDKit          3D

 16 17  0  0  0  0  0  0  0  0999 V2000
    5.0740    1.3780   17.8850 C   0  0  0  0  0  0  0  0  0  0  0  0
    6.1150    0.5260   18.2060 N   0  0  0  0  0  0  0  0  0  0  0  0
    7.1170   -0.1750   19.0490 C   0  0  0  0  0  0  0  0  0  0  0  0
    7.2420    0.0170   20.3820 C   0  0  0  0  0  0  0  0  0  0  0  0
    8.1490   -0.5850   21.2440 C   0  0  0  0  0  0  0  0  0  0  0  0
    9.1630    0.2840   21.7210 C   0  0  0  0  0  0  0  0  0  0  0  0
    9.0930    1.4720   21.3450 O   0  0  0  0  0  0  0  0  0  0  0  0
   10.2480   -0.2720   22.6110 N   0  0  0  0  0  0  0  0  0  0  0  0
   10.5030   -1.6550   22.4420 C   0  0  0  0  0  0  0  0  0  0  0  0
    9.0500   -1.1100   22.4070 C   0  0  0  0  0  0  0  0  0  0  0  0
   10.4600   -0.8030   22.5780 C   0  0  0  0  0  0  0  0  0  0  0  0
   10.7050    0.5680   22.8350 C   0  0  0  0  0  0  0  0  0  0  0  0
   12.0100    0.3000   22.8900 N   0  0  0  0  0  0  0  0  0  0  0  0
   11.8870   -1.1130   22.6450 C   0  0  0  0  0  0  0  0  0  0  0  0
    6.2580    0.9240   20.5420 C   0  0  0  0  0  0  0  0  0  0  0  0
    5.6680    1.1810   19.3640 N   0  0  0  0  0  0  0  0  0  0  0  0
  1  2  1  0
  2  3  1  0
  3  4  2  0
  4  5  1  0
  5  6  1  0
  6  7  2  0
  6  8  1  0
  8  9  1  0
  9 10  2  0
 10 11  1  0
 11 12  2  0
 12 13  1  0
  9 14  1  0
 13 14  2  0
  4 15  1  0
  2 16  1  0
 15 16  2  0
M  END
