DAV-IMP-59dd6621-3
     RDKit          3D

 23 24  0  0  0  0  0  0  0  0999 V2000
    6.8440   -6.4270   22.5360 C   0  0  0  0  0  0  0  0  0  0  0  0
    6.3100   -5.4580   23.4440 C   0  0  0  0  0  0  0  0  0  0  0  0
    7.3540   -4.6940   24.0780 O   0  0  0  0  0  0  0  0  0  0  0  0
    7.9980   -3.7950   23.2770 C   0  0  0  0  0  0  0  0  0  0  0  0
    8.4410   -4.0560   22.1920 O   0  0  0  0  0  0  0  0  0  0  0  0
    8.0640   -2.4410   23.8670 C   0  0  0  0  0  0  0  0  0  0  0  0
    7.3690   -2.2570   25.0700 C   0  0  0  0  0  0  0  0  0  0  0  0
    7.2260   -1.0870   25.8070 C   0  0  0  0  0  0  0  0  0  0  0  0
    6.7540   -1.1880   27.1060 C   0  0  0  0  0  0  0  0  0  0  0  0
    6.5830   -0.0590   27.8820 C   0  0  0  0  0  0  0  0  0  0  0  0
    6.8890    1.1900   27.3430 C   0  0  0  0  0  0  0  0  0  0  0  0
    7.3700    1.3190   26.0400 C   0  0  0  0  0  0  0  0  0  0  0  0
    7.6380    2.5970   25.6280 O   0  0  0  0  0  0  0  0  0  0  0  0
    8.6710    2.7270   24.6610 C   0  0  0  0  0  0  0  0  0  0  0  0
    7.5370    0.1720   25.2740 C   0  0  0  0  0  0  0  0  0  0  0  0
    8.7330   -1.3750   23.2230 C   0  0  0  0  0  0  0  0  0  0  0  0
    8.0260   -0.5870   22.5940 O   0  0  0  0  0  0  0  0  0  0  0  0
   10.1230   -1.1460   23.2370 C   0  0  0  0  0  0  0  0  0  0  0  0
   10.5930   -0.0830   24.0450 C   0  0  0  0  0  0  0  0  0  0  0  0
   11.9510    0.2250   24.0820 C   0  0  0  0  0  0  0  0  0  0  0  0
   12.9410   -0.5420   23.2940 C   0  0  0  0  0  0  0  0  0  0  0  0
   12.4790   -1.6910   22.4250 C   0  0  0  0  0  0  0  0  0  0  0  0
   11.0080   -1.9390   22.4490 C   0  0  0  0  0  0  0  0  0  0  0  0
  1  2  1  0
  2  3  1  0
  3  4  1  0
  4  5  2  0
  4  6  1  0
  6  7  2  3
  7  8  1  0
  8  9  2  0
  9 10  1  0
 10 11  2  0
 11 12  1  0
 12 13  1  0
 13 14  1  0
  8 15  1  0
 12 15  2  0
  6 16  1  0
 16 17  2  0
 16 18  1  0
 18 19  2  0
 19 20  1  0
 20 21  2  0
 21 22  1  0
 18 23  1  0
 22 23  2  0
M  END
