DAV-AUT-7eb4e0c3-2
     RDKit          3D

 21 23  0  0  0  0  0  0  0  0999 V2000
   12.0370    7.9870   25.0590 C   0  0  0  0  0  0  0  0  0  0  0  0
   11.4560    6.8530   24.5510 N   0  0  0  0  0  0  0  0  0  0  0  0
   11.8720    5.5490   24.8460 C   0  0  0  0  0  0  0  0  0  0  0  0
   12.4930    4.8230   23.7260 C   0  0  1  0  0  0  0  0  0  0  0  0
   11.8370    3.5600   23.4410 C   0  0  0  0  0  0  0  0  0  0  0  0
   10.5100    3.4370   23.3950 C   0  0  0  0  0  0  0  0  0  0  0  0
    9.8520    2.2320   23.2120 C   0  0  0  0  0  0  0  0  0  0  0  0
   10.1480    0.8100   23.0320 C   0  0  0  0  0  0  0  0  0  0  0  0
   11.7820    0.9930   23.0760 C   0  0  0  0  0  0  0  0  0  0  0  0
   12.4800    2.3480   23.2510 C   0  0  0  0  0  0  0  0  0  0  0  0
   12.9210   -0.1320   23.0020 C   0  0  0  0  0  0  0  0  0  0  0  0
   13.6520   -1.2950   22.6380 O   0  0  0  0  0  0  0  0  0  0  0  0
   12.0970   -0.5870   22.1270 N   0  0  0  0  0  0  0  0  0  0  0  0
   10.6610   -0.7930   22.8340 S   0  0  1  0  0  0  0  0  0  0  0  0
   10.7690   -1.6620   24.2780 C   0  0  0  0  0  0  0  0  0  0  0  0
    9.7590   -1.4510   21.9160 O   0  0  0  0  0  0  0  0  0  0  0  0
   12.5260    5.6990   22.6970 O   0  0  0  0  0  0  0  0  0  0  0  0
   11.4130    5.6200   22.0850 C   0  0  0  0  0  0  0  0  0  0  0  0
   10.1110    6.3680   22.4810 C   0  0  0  0  0  0  0  0  0  0  0  0
   10.2580    7.1440   23.7700 C   0  0  0  0  0  0  0  0  0  0  0  0
    9.4010    7.9670   24.1070 O   0  0  0  0  0  0  0  0  0  0  0  0
  1  2  1  0
  2  3  1  0
  3  4  1  0
  4  5  1  6
  5  6  2  0
  6  7  1  0
  7  8  2  0
  8  9  1  0
  5 10  1  0
  9 10  2  0
  9 11  1  0
 11 12  2  0
 11 13  1  0
  8 14  1  0
 13 14  2  0
 14 15  1  1
 14 16  2  0
  4 17  1  0
 17 18  1  0
 18 19  1  0
  2 20  1  0
 19 20  1  0
 20 21  2  0
M  END
