DAV-AUT-fa25ac7f-4
     RDKit          3D

 23 25  0  0  0  0  0  0  0  0999 V2000
   13.1530   -1.2760   21.8170 C   0  0  0  0  0  0  0  0  0  0  0  0
   12.6760   -0.6990   23.1400 C   0  0  1  0  0  0  0  0  0  0  0  0
   12.2120    0.6490   23.1990 C   0  0  0  0  0  0  0  0  0  0  0  0
   13.0490    1.7110   22.8880 C   0  0  0  0  0  0  0  0  0  0  0  0
   12.5950    3.0380   22.9500 C   0  0  0  0  0  0  0  0  0  0  0  0
   11.2990    3.3370   23.3340 C   0  0  0  0  0  0  0  0  0  0  0  0
   10.7270    5.0320   23.4360 S   0  0  1  0  0  0  0  0  0  0  0  0
   12.0250    6.0030   22.6990 C   0  0  0  0  0  0  0  0  0  0  0  0
    9.2520    5.1950   22.6580 N   0  0  0  0  0  0  0  0  0  0  0  0
   10.5150    5.4540   24.7990 O   0  0  0  0  0  0  0  0  0  0  0  0
   10.4600    2.2760   23.6440 C   0  0  0  0  0  0  0  0  0  0  0  0
   10.9010    0.9560   23.5770 C   0  0  0  0  0  0  0  0  0  0  0  0
    9.9700   -0.0630   23.9100 N   0  0  0  0  0  0  0  0  0  0  0  0
    8.7170    0.3240   24.4070 C   0  0  0  0  0  0  0  0  0  0  0  0
    7.7030    0.4150   23.4650 C   0  0  0  0  0  0  0  0  0  0  0  0
    6.5850    1.1820   24.1670 C   0  0  0  0  0  0  0  0  0  0  0  0
    6.1310    0.3320   25.2150 O   0  0  0  0  0  0  0  0  0  0  0  0
    7.1460    0.0730   26.1850 C   0  0  0  0  0  0  0  0  0  0  0  0
    8.2530   -0.5300   25.5950 C   0  0  0  0  0  0  0  0  0  0  0  0
   10.5900   -1.2810   24.3910 C   0  0  0  0  0  0  0  0  0  0  0  0
   11.6530   -1.7350   23.6080 C   0  0  0  0  0  0  0  0  0  0  0  0
   11.1370   -2.3670   22.5250 F   0  0  0  0  0  0  0  0  0  0  0  0
   12.3110   -2.7130   24.2970 F   0  0  0  0  0  0  0  0  0  0  0  0
  2  1  1  6
  2  3  1  0
  3  4  1  0
  4  5  2  0
  5  6  1  0
  6  7  1  0
  7  8  1  6
  7  9  2  0
  7 10  2  0
  6 11  2  0
  3 12  2  0
 11 12  1  0
 12 13  1  0
 13 14  1  0
 14 15  1  0
 15 16  1  0
 16 17  1  0
 17 18  1  0
 14 19  1  0
 18 19  1  0
 13 20  1  0
  2 21  1  0
 20 21  1  0
 21 22  1  0
 21 23  1  0
M  END
