DAV-AUT-fa25ac7f-3
     RDKit          3D

 24 26  0  0  0  0  0  0  0  0999 V2000
   13.2730   -1.1620   22.0300 C   0  0  0  0  0  0  0  0  0  0  0  0
   12.4520   -0.8210   23.2200 C   0  0  0  0  0  0  0  0  0  0  0  0
   13.0140   -1.2100   24.5100 C   0  0  0  0  0  0  0  0  0  0  0  0
   11.9870    0.6610   23.2860 C   0  0  0  0  0  0  0  0  0  0  0  0
   12.9000    1.6810   22.9270 C   0  0  0  0  0  0  0  0  0  0  0  0
   12.5690    3.0470   22.9580 C   0  0  0  0  0  0  0  0  0  0  0  0
   11.2890    3.4380   23.3680 C   0  0  0  0  0  0  0  0  0  0  0  0
   10.9010    5.0920   23.4350 S   0  0  1  0  0  0  0  0  0  0  0  0
   12.2460    5.9670   22.6800 C   0  0  0  0  0  0  0  0  0  0  0  0
    9.4200    5.3830   22.6870 N   0  0  0  0  0  0  0  0  0  0  0  0
   10.7190    5.5300   24.7990 O   0  0  0  0  0  0  0  0  0  0  0  0
   10.4190    2.4580   23.7050 C   0  0  0  0  0  0  0  0  0  0  0  0
   10.6850    1.0040   23.6910 C   0  0  0  0  0  0  0  0  0  0  0  0
    9.7700    0.0790   24.0320 N   0  0  0  0  0  0  0  0  0  0  0  0
    8.5630    0.5010   24.7540 C   0  0  0  0  0  0  0  0  0  0  0  0
    7.5580    0.8860   23.8560 C   0  0  0  0  0  0  0  0  0  0  0  0
    6.1190    0.4260   24.1390 C   0  0  0  0  0  0  0  0  0  0  0  0
    5.8130    0.4440   25.3360 O   0  0  0  0  0  0  0  0  0  0  0  0
    6.7770   -0.1910   26.1710 C   0  0  0  0  0  0  0  0  0  0  0  0
    8.1820   -0.4680   25.6610 C   0  0  0  0  0  0  0  0  0  0  0  0
   10.2170   -1.3120   24.0850 C   0  0  0  0  0  0  0  0  0  0  0  0
   11.2480   -1.7230   23.0690 C   0  0  0  0  0  0  0  0  0  0  0  0
   10.8810   -1.8160   21.7910 F   0  0  0  0  0  0  0  0  0  0  0  0
   11.6290   -2.9750   23.4110 F   0  0  0  0  0  0  0  0  0  0  0  0
  2  1  1  0
  2  3  1  0
  2  4  1  0
  4  5  1  0
  5  6  2  0
  6  7  1  0
  7  8  1  0
  8  9  1  6
  8 10  2  0
  8 11  2  0
  7 12  2  0
  4 13  2  0
 12 13  1  0
 13 14  1  0
 14 15  1  0
 15 16  1  0
 16 17  1  0
 17 18  1  0
 18 19  1  0
 15 20  1  0
 19 20  1  0
 14 21  1  0
  2 22  1  0
 21 22  1  0
 22 23  1  0
 22 24  1  0
M  END
