DAV-IMP-59dd6621-11
     RDKit          3D

 19 20  0  0  0  0  0  0  0  0999 V2000
    8.0600   -1.0320   22.4550 O   0  0  0  0  0  0  0  0  0  0  0  0
    8.9390   -1.7270   22.9690 C   0  0  0  0  0  0  0  0  0  0  0  0
    8.5100   -2.9990   23.6990 C   0  0  0  0  0  0  0  0  0  0  0  0
    8.0660   -2.9960   25.1570 C   0  0  0  0  0  0  0  0  0  0  0  0
    7.5520   -4.2120   26.0040 C   0  0  0  0  0  0  0  0  0  0  0  0
    6.1460   -3.9840   26.3350 C   0  0  0  0  0  0  0  0  0  0  0  0
    6.6300   -2.9250   25.6040 C   0  0  0  0  0  0  0  0  0  0  0  0
    8.1110   -3.0840   25.2190 C   0  0  0  0  0  0  0  0  0  0  0  0
    8.9510   -4.2000   25.5530 C   0  0  0  0  0  0  0  0  0  0  0  0
    8.3290   -5.2870   26.3470 C   0  0  0  0  0  0  0  0  0  0  0  0
    7.1540   -5.8240   27.0200 N   0  0  0  0  0  0  0  0  0  0  0  0
    7.1530   -5.8160   28.2580 O   0  0  0  0  0  0  0  0  0  0  0  0
    6.1570   -6.0380   26.3170 O   0  0  0  0  0  0  0  0  0  0  0  0
   10.3410   -1.2460   22.8260 C   0  0  0  0  0  0  0  0  0  0  0  0
   10.6880    0.1350   23.3240 C   0  0  0  0  0  0  0  0  0  0  0  0
   12.1260    0.6270   23.1770 C   0  0  0  0  0  0  0  0  0  0  0  0
   13.1220   -0.2960   22.5440 C   0  0  0  0  0  0  0  0  0  0  0  0
   12.6310   -1.6560   22.0790 C   0  0  0  0  0  0  0  0  0  0  0  0
   11.3040   -2.0600   22.2330 C   0  0  0  0  0  0  0  0  0  0  0  0
  1  2  2  0
  2  3  1  0
  3  4  2  3
  4  5  1  0
  5  6  2  0
  6  7  1  0
  7  8  2  0
  8  9  1  0
  5 10  1  0
  9 10  2  0
 10 11  1  0
 11 12  2  0
 11 13  1  0
  2 14  1  0
 14 15  2  0
 15 16  1  0
 16 17  2  0
 17 18  1  0
 14 19  1  0
 18 19  2  0
M  CHG  2  11   1  13  -1
M  END
