DAV-AUT-7eb4e0c3-1
     RDKit          3D

 22 24  0  0  0  0  0  0  0  0999 V2000
   12.8390    6.4320   22.5610 C   0  0  0  0  0  0  0  0  0  0  0  0
   11.4620    5.9490   22.7810 C   0  0  1  0  0  0  0  0  0  0  0  0
   11.2960    5.0300   23.7610 C   0  0  1  0  0  0  0  0  0  0  0  0
   11.3360    3.6490   23.5460 C   0  0  0  0  0  0  0  0  0  0  0  0
   10.1110    3.0660   23.8460 C   0  0  0  0  0  0  0  0  0  0  0  0
    9.8010    1.6370   23.7550 C   0  0  0  0  0  0  0  0  0  0  0  0
   10.8960    0.7150   23.2940 C   0  0  0  0  0  0  0  0  0  0  0  0
   12.2190    1.3270   22.9710 C   0  0  0  0  0  0  0  0  0  0  0  0
   12.4270    2.8200   23.0940 C   0  0  0  0  0  0  0  0  0  0  0  0
   13.1690    0.2280   22.5280 C   0  0  0  0  0  0  0  0  0  0  0  0
   13.7610   -0.8300   22.4020 O   0  0  0  0  0  0  0  0  0  0  0  0
   12.4920   -0.5570   23.5040 N   0  0  0  0  0  0  0  0  0  0  0  0
   11.0950   -0.9430   23.0120 S   0  0  1  0  0  0  0  0  0  0  0  0
   10.1620   -1.7730   24.2320 C   0  0  0  0  0  0  0  0  0  0  0  0
   10.6210   -1.2240   21.6820 O   0  0  0  0  0  0  0  0  0  0  0  0
   12.1820    5.3270   24.8290 O   0  0  0  0  0  0  0  0  0  0  0  0
   11.9990    6.5950   25.4530 C   0  0  0  0  0  0  0  0  0  0  0  0
   10.6780    7.0140   25.4430 C   0  0  0  0  0  0  0  0  0  0  0  0
   10.1460    7.5620   24.2730 C   0  0  0  0  0  0  0  0  0  0  0  0
    9.3860    8.5290   24.4020 O   0  0  0  0  0  0  0  0  0  0  0  0
   10.4400    7.0280   23.0120 N   0  0  0  0  0  0  0  0  0  0  0  0
    9.1820    6.7880   22.3100 C   0  0  0  0  0  0  0  0  0  0  0  0
  2  1  1  1
  2  3  1  0
  3  4  1  6
  4  5  2  0
  5  6  1  0
  6  7  2  0
  7  8  1  0
  4  9  1  0
  8  9  2  0
  8 10  1  0
 10 11  2  0
 10 12  1  0
  7 13  1  0
 12 13  2  0
 13 14  1  1
 13 15  2  0
  3 16  1  0
 16 17  1  0
 17 18  1  0
 18 19  1  0
 19 20  2  0
  2 21  1  0
 19 21  1  0
 21 22  1  0
M  END
