DAV-CRI-de95a6f4-1
     RDKit          3D

 26 28  0  0  0  0  0  0  0  0999 V2000
    8.7030    3.7450   24.3670 N   0  0  0  0  0  0  0  0  0  0  0  0
    9.3460    2.2450   23.9170 S   0  0  0  0  0  0  0  0  0  0  0  0
    8.5660    1.8860   22.7540 O   0  0  0  0  0  0  0  0  0  0  0  0
    9.3740    1.4260   25.0980 O   0  0  0  0  0  0  0  0  0  0  0  0
   11.0080    2.6690   23.3620 C   0  0  0  0  0  0  0  0  0  0  0  0
   10.1750    3.8580   23.2760 C   0  0  0  0  0  0  0  0  0  0  0  0
   11.3480    3.7670   22.9770 C   0  0  0  0  0  0  0  0  0  0  0  0
   11.9500    2.3550   23.1980 C   0  0  0  0  0  0  0  0  0  0  0  0
   11.4490    0.9880   23.7200 C   0  0  2  0  0  0  0  0  0  0  0  0
   12.5350   -0.0850   23.8810 C   0  0  0  0  0  0  0  0  0  0  0  0
   12.2360   -1.3800   23.4500 C   0  0  0  0  0  0  0  0  0  0  0  0
   10.9350   -1.5460   22.9640 C   0  0  1  0  0  0  0  0  0  0  0  0
    9.9700   -2.1770   23.7300 C   0  0  0  0  0  0  0  0  0  0  0  0
    8.6540   -2.0940   23.0710 N   0  0  0  0  0  0  0  0  0  0  0  0
    8.7760   -1.8500   21.6370 C   0  0  0  0  0  0  0  0  0  0  0  0
    7.6090   -1.3900   21.0860 C   0  0  0  0  0  0  0  0  0  0  0  0
    6.5230   -2.3540   21.3150 N   0  0  0  0  0  0  0  0  0  0  0  0
    6.0280   -2.8040   20.0210 C   0  0  1  0  0  0  0  0  0  0  0  0
    4.7220   -2.7890   20.1420 O   0  0  0  0  0  0  0  0  0  0  0  0
    6.3170   -2.0030   18.9110 C   0  0  0  0  0  0  0  0  0  0  0  0
    5.4470   -0.4410   18.8950 Cl  0  0  0  0  0  0  0  0  0  0  0  0
    6.9620   -3.4770   22.1910 C   0  0  0  0  0  0  0  0  0  0  0  0
    7.8110   -3.1670   23.2530 C   0  0  0  0  0  0  0  0  0  0  0  0
   10.3580    0.1440   22.5630 S   0  0  0  0  0  0  0  0  0  0  0  0
   13.1420    2.6400   22.7850 C   0  0  0  0  0  0  0  0  0  0  0  0
   12.0980    3.6620   22.8000 C   0  0  0  0  0  0  0  0  0  0  0  0
  2  1  1  0
  2  3  2  0
  2  4  2  0
  2  5  1  0
  5  6  2  0
  6  7  1  0
  7  8  2  0
  9  8  1  6
  9 10  1  0
 10 11  1  0
 11 12  1  0
 12 13  1  1
 13 14  1  0
 14 15  1  0
 15 16  1  0
 16 17  1  0
 17 18  1  0
 18 19  1  1
 18 20  1  0
 20 21  1  0
 17 22  1  0
 14 23  1  0
 22 23  1  0
  9 24  1  0
 12 24  1  0
  8 25  1  0
  5 26  1  0
 25 26  2  0
M  END
