DAV-CRI-de95a6f4-2
     RDKit          3D

 27 29  0  0  0  0  0  0  0  0999 V2000
   13.3230    6.2660   21.9250 N   0  0  0  0  0  0  0  0  0  0  0  0
   11.8890    6.1290   22.7610 S   0  0  0  0  0  0  0  0  0  0  0  0
   12.1490    6.5570   24.1160 O   0  0  0  0  0  0  0  0  0  0  0  0
   10.8090    6.7290   22.0220 O   0  0  0  0  0  0  0  0  0  0  0  0
   11.7340    4.4120   22.7830 C   0  0  0  0  0  0  0  0  0  0  0  0
   12.9720    3.5590   22.8280 C   0  0  0  0  0  0  0  0  0  0  0  0
   12.8200    2.2570   22.8940 C   0  0  0  0  0  0  0  0  0  0  0  0
   11.4790    1.6150   22.9230 C   0  0  0  0  0  0  0  0  0  0  0  0
   11.4690    0.1080   23.0880 C   0  0  2  0  0  0  0  0  0  0  0  0
   12.7830   -0.6300   23.1750 C   0  0  0  0  0  0  0  0  0  0  0  0
   12.4400   -2.1300   23.0610 C   0  0  0  0  0  0  0  0  0  0  0  0
   10.8890   -2.3240   22.8400 C   0  0  1  0  0  0  0  0  0  0  0  0
    9.8570   -2.5470   23.7230 C   0  0  0  0  0  0  0  0  0  0  0  0
    8.5390   -2.2600   23.1490 N   0  0  0  0  0  0  0  0  0  0  0  0
    8.6620   -1.4120   21.9680 C   0  0  0  0  0  0  0  0  0  0  0  0
    7.4630   -1.1210   21.4500 C   0  0  0  0  0  0  0  0  0  0  0  0
    6.6940   -2.1410   21.1010 N   0  0  0  0  0  0  0  0  0  0  0  0
    5.7930   -2.0010   19.9710 C   0  0  1  0  0  0  0  0  0  0  0  0
    4.7530   -1.1580   20.4210 O   0  0  0  0  0  0  0  0  0  0  0  0
    6.3160   -1.4510   18.8030 C   0  0  0  0  0  0  0  0  0  0  0  0
    5.7790    0.1370   18.3880 Cl  0  0  0  0  0  0  0  0  0  0  0  0
    6.4730   -3.1400   22.1590 C   0  0  0  0  0  0  0  0  0  0  0  0
    7.6110   -3.3960   22.9490 C   0  0  0  0  0  0  0  0  0  0  0  0
   10.4250   -0.7960   22.0010 S   0  0  0  0  0  0  0  0  0  0  0  0
   10.3260    2.4140   22.8390 C   0  0  0  0  0  0  0  0  0  0  0  0
   10.4770    3.8000   22.7680 C   0  0  0  0  0  0  0  0  0  0  0  0
    9.2550    4.5150   22.6880 O   0  0  0  0  0  0  0  0  0  0  0  0
  2  1  1  0
  2  3  2  0
  2  4  2  0
  2  5  1  0
  5  6  2  0
  6  7  1  0
  7  8  2  0
  9  8  1  6
  9 10  1  0
 10 11  1  0
 11 12  1  0
 12 13  1  1
 13 14  1  0
 14 15  1  0
 15 16  1  0
 16 17  1  0
 17 18  1  0
 18 19  1  1
 18 20  1  0
 20 21  1  0
 17 22  1  0
 14 23  1  0
 22 23  1  0
  9 24  1  0
 12 24  1  0
  8 25  1  0
  5 26  1  0
 25 26  2  0
 26 27  1  0
M  END
