DAV-UNI-bdcebb58-4
     RDKit          3D

 27 28  0  0  0  0  0  0  0  0999 V2000
    4.3200   -1.5440   24.6730 C   0  0  0  0  0  0  0  0  0  0  0  0
    4.9000   -2.7740   24.1160 C   0  0  2  0  0  0  0  0  0  0  0  0
    5.9950   -2.6690   23.3730 N   0  0  0  0  0  0  0  0  0  0  0  0
    7.2010   -3.4990   23.5510 C   0  0  1  0  0  0  0  0  0  0  0  0
    8.3820   -2.7860   23.9230 C   0  0  0  0  0  0  0  0  0  0  0  0
    8.9220   -1.5900   23.2040 C   0  0  0  0  0  0  0  0  0  0  0  0
   10.2680   -1.2700   23.0850 C   0  0  0  0  0  0  0  0  0  0  0  0
   10.6000    0.1610   23.1890 C   0  0  0  0  0  0  0  0  0  0  0  0
   11.8780    0.6290   23.0780 C   0  0  0  0  0  0  0  0  0  0  0  0
   13.1540   -0.1700   22.8420 C   0  0  0  0  0  0  0  0  0  0  0  0
   12.6280   -1.6060   22.7650 C   0  0  0  0  0  0  0  0  0  0  0  0
   11.3220   -2.1100   22.8750 C   0  0  0  0  0  0  0  0  0  0  0  0
    6.8730   -4.6160   24.5540 C   0  0  0  0  0  0  0  0  0  0  0  0
    7.2520   -5.7690   24.4220 O   0  0  0  0  0  0  0  0  0  0  0  0
    6.1650   -4.1660   25.6520 O   0  0  0  0  0  0  0  0  0  0  0  0
    5.7820   -5.1690   26.6050 C   0  0  0  0  0  0  0  0  0  0  0  0
    6.2690   -4.7020   28.2950 S   0  0  0  0  0  0  0  0  0  0  0  0
    4.0440   -3.6350   23.3840 C   0  0  0  0  0  0  0  0  0  0  0  0
    4.2800   -3.8190   22.1840 O   0  0  0  0  0  0  0  0  0  0  0  0
    2.9610   -4.2350   24.0690 N   0  0  0  0  0  0  0  0  0  0  0  0
    2.2230   -3.5700   25.1670 C   0  0  0  0  0  0  0  0  0  0  0  0
    2.1000   -4.5330   26.1460 C   0  0  0  0  0  0  0  0  0  0  0  0
    2.5740   -5.7470   25.6830 C   0  0  0  0  0  0  0  0  0  0  0  0
    2.9040   -5.7040   24.3210 C   0  0  1  0  0  0  0  0  0  0  0  0
    2.0020   -6.3480   23.4650 C   0  0  0  0  0  0  0  0  0  0  0  0
    1.7460   -7.6660   23.7240 O   0  0  0  0  0  0  0  0  0  0  0  0
    1.4980   -5.7090   22.5670 O   0  0  0  0  0  0  0  0  0  0  0  0
  2  1  1  6
  2  3  1  0
  3  4  1  0
  4  5  1  1
  5  6  1  0
  6  7  1  0
  7  8  2  0
  8  9  1  0
  9 10  2  0
 10 11  1  0
  7 12  1  0
 11 12  2  0
  4 13  1  0
 13 14  2  0
 13 15  1  0
 15 16  1  0
 16 17  1  0
  2 18  1  0
 18 19  2  0
 18 20  1  0
 20 21  1  0
 21 22  1  0
 22 23  1  0
 20 24  1  0
 23 24  1  0
 24 25  1  6
 25 26  2  0
 25 27  1  0
M  END
