DAV-AUT-fa25ac7f-1
     RDKit          3D

 23 25  0  0  0  0  0  0  0  0999 V2000
   13.5410   -0.6290   22.2720 C   0  0  0  0  0  0  0  0  0  0  0  0
   12.4740   -0.2940   23.1390 C   0  0  1  0  0  0  0  0  0  0  0  0
   12.0630    0.9920   23.2500 C   0  0  0  0  0  0  0  0  0  0  0  0
   12.9530    2.1980   22.7750 C   0  0  0  0  0  0  0  0  0  0  0  0
   12.1240    3.2940   23.1020 N   0  0  0  0  0  0  0  0  0  0  0  0
   10.8950    3.4140   23.6700 C   0  0  0  0  0  0  0  0  0  0  0  0
   10.3370    5.1230   23.9020 S   0  0  1  0  0  0  0  0  0  0  0  0
   11.7680    5.9060   24.6150 C   0  0  0  0  0  0  0  0  0  0  0  0
   10.1290    5.9120   22.5930 N   0  0  0  0  0  0  0  0  0  0  0  0
    9.3430    5.1190   24.9690 O   0  0  0  0  0  0  0  0  0  0  0  0
   10.1450    2.3590   24.0630 C   0  0  0  0  0  0  0  0  0  0  0  0
   10.6710    0.9880   23.8900 C   0  0  0  0  0  0  0  0  0  0  0  0
    9.9920   -0.1940   24.2700 N   0  0  0  0  0  0  0  0  0  0  0  0
    8.5160   -0.2750   24.4660 C   0  0  0  0  0  0  0  0  0  0  0  0
    8.1250    0.0660   25.9150 C   0  0  0  0  0  0  0  0  0  0  0  0
    6.9180   -0.7100   26.3770 C   0  0  0  0  0  0  0  0  0  0  0  0
    6.1000   -1.0530   25.5320 O   0  0  0  0  0  0  0  0  0  0  0  0
    6.5570   -1.7010   24.3950 C   0  0  0  0  0  0  0  0  0  0  0  0
    7.9190   -1.6390   24.0700 C   0  0  0  0  0  0  0  0  0  0  0  0
   10.7540   -1.4460   24.1290 C   0  0  0  0  0  0  0  0  0  0  0  0
   11.4950   -1.2510   23.0100 C   0  0  0  0  0  0  0  0  0  0  0  0
   12.0480   -2.3490   22.4800 F   0  0  0  0  0  0  0  0  0  0  0  0
   10.6340   -0.8230   22.0480 F   0  0  0  0  0  0  0  0  0  0  0  0
  2  1  1  6
  2  3  1  0
  3  4  1  0
  4  5  2  0
  5  6  1  0
  6  7  1  0
  7  8  1  1
  7  9  2  0
  7 10  2  0
  6 11  2  0
  3 12  2  0
 11 12  1  0
 12 13  1  0
 13 14  1  0
 14 15  1  0
 15 16  1  0
 16 17  1  0
 17 18  1  0
 14 19  1  0
 18 19  1  0
 13 20  1  0
  2 21  1  0
 20 21  1  0
 21 22  1  0
 21 23  1  0
M  END
