DAV-UNI-bdcebb58-3
     RDKit          3D

 39 41  0  0  0  0  0  0  0  0999 V2000
    6.7510   -1.5480   29.1270 C   0  0  0  0  0  0  0  0  0  0  0  0
    5.4200   -1.6470   29.0310 C   0  0  0  0  0  0  0  0  0  0  0  0
    4.5480   -1.3940   30.2170 C   0  0  0  0  0  0  0  0  0  0  0  0
    4.6790   -2.0170   27.7370 C   0  0  1  0  0  0  0  0  0  0  0  0
    4.8630   -1.1240   26.9120 O   0  0  0  0  0  0  0  0  0  0  0  0
    4.7440    0.2620   27.3210 C   0  0  0  0  0  0  0  0  0  0  0  0
    3.6220    0.8520   27.5520 O   0  0  0  0  0  0  0  0  0  0  0  0
    5.9800    0.9110   27.4420 C   0  0  0  0  0  0  0  0  0  0  0  0
    6.1630    1.9050   28.4050 C   0  0  0  0  0  0  0  0  0  0  0  0
    5.1870   -3.2640   27.2660 O   0  0  0  0  0  0  0  0  0  0  0  0
    5.0400   -3.7070   25.7160 P   0  0  1  0  0  0  0  0  0  0  0  0
    4.1440   -2.8040   24.9110 O   0  0  0  0  0  0  0  0  0  0  0  0
    6.7250   -3.7020   25.1290 C   0  0  0  0  0  0  0  0  0  0  0  0
    7.1690   -3.0260   23.8630 C   0  0  0  0  0  0  0  0  0  0  0  0
    8.5420   -2.8110   23.6340 C   0  0  0  0  0  0  0  0  0  0  0  0
    8.8140   -1.3950   23.2280 C   0  0  0  0  0  0  0  0  0  0  0  0
   10.3140   -1.1320   23.0980 C   0  0  0  0  0  0  0  0  0  0  0  0
   10.6190    0.2310   23.2140 C   0  0  0  0  0  0  0  0  0  0  0  0
   12.0640    0.6650   23.0990 C   0  0  0  0  0  0  0  0  0  0  0  0
   13.0990   -0.4230   22.8630 C   0  0  0  0  0  0  0  0  0  0  0  0
   12.6770   -1.7380   22.7660 C   0  0  0  0  0  0  0  0  0  0  0  0
   11.3160   -2.1080   22.8790 C   0  0  0  0  0  0  0  0  0  0  0  0
    4.4440   -5.3960   25.7290 C   0  0  0  0  0  0  0  0  0  0  0  0
    3.1510   -5.5020   25.2120 C   0  0  0  0  0  0  0  0  0  0  0  0
    2.8680   -5.0800   24.0890 O   0  0  0  0  0  0  0  0  0  0  0  0
    2.1790   -6.1100   26.0040 N   0  0  0  0  0  0  0  0  0  0  0  0
    2.3050   -7.5340   26.3130 C   0  0  0  0  0  0  0  0  0  0  0  0
    1.0050   -7.9230   26.6990 C   0  0  2  0  0  0  0  0  0  0  0  0
    0.6270   -9.3880   26.6410 C   0  0  0  0  0  0  0  0  0  0  0  0
    0.9010  -10.0930   25.4570 C   0  0  0  0  0  0  0  0  0  0  0  0
    0.2430  -11.3120   25.2110 C   0  0  0  0  0  0  0  0  0  0  0  0
   -1.0930  -11.4000   25.5590 C   0  0  0  0  0  0  0  0  0  0  0  0
   -1.6280  -10.2660   26.1310 C   0  0  0  0  0  0  0  0  0  0  0  0
   -0.8520   -9.5710   27.0680 C   0  0  0  0  0  0  0  0  0  0  0  0
    0.1470   -6.9580   25.8670 C   0  0  0  0  0  0  0  0  0  0  0  0
    0.7620   -5.7220   26.1120 C   0  0  1  0  0  0  0  0  0  0  0  0
    0.4640   -5.0570   27.4010 C   0  0  0  0  0  0  0  0  0  0  0  0
    0.9390   -5.3850   28.4800 O   0  0  0  0  0  0  0  0  0  0  0  0
   -0.4070   -4.0240   27.3080 O   0  0  0  0  0  0  0  0  0  0  0  0
  1  2  2  3
  2  3  1  0
  2  4  1  0
  4  5  1  6
  5  6  1  0
  6  7  2  0
  6  8  1  0
  8  9  1  0
  4 10  1  0
 10 11  1  0
 11 12  2  0
 11 13  1  6
 13 14  1  0
 14 15  1  0
 15 16  1  0
 16 17  1  0
 17 18  2  0
 18 19  1  0
 19 20  2  0
 20 21  1  0
 17 22  1  0
 21 22  2  0
 11 23  1  0
 23 24  1  0
 24 25  2  0
 24 26  1  0
 26 27  1  0
 27 28  1  0
 28 29  1  6
 29 30  1  0
 30 31  1  0
 31 32  1  0
 32 33  1  0
 29 34  1  0
 33 34  1  0
 28 35  1  0
 26 36  1  0
 35 36  1  0
 36 37  1  1
 37 38  2  0
 37 39  1  0
M  END
