DAV-UNI-bdcebb58-2
     RDKit          3D

 39 41  0  0  0  0  0  0  0  0999 V2000
    1.7830   -9.5060   25.6740 C   0  0  0  0  0  0  0  0  0  0  0  0
    2.3700   -8.2080   26.0270 C   0  0  0  0  0  0  0  0  0  0  0  0
    3.3350   -7.4740   25.3870 C   0  0  0  0  0  0  0  0  0  0  0  0
    4.1070   -8.0170   24.6060 O   0  0  0  0  0  0  0  0  0  0  0  0
    3.3140   -6.1660   25.7190 O   0  0  0  0  0  0  0  0  0  0  0  0
    3.7790   -5.3140   24.6680 C   0  0  2  0  0  0  0  0  0  0  0  0
    4.4020   -4.1300   24.8660 O   0  0  0  0  0  0  0  0  0  0  0  0
    5.6730   -4.1830   25.8330 P   0  0  1  0  0  0  0  0  0  0  0  0
    5.8770   -5.5870   26.3220 O   0  0  0  0  0  0  0  0  0  0  0  0
    7.0840   -3.5990   24.8840 C   0  0  0  0  0  0  0  0  0  0  0  0
    7.1140   -2.8360   23.7610 C   0  0  0  0  0  0  0  0  0  0  0  0
    8.5880   -2.7360   23.3270 C   0  0  0  0  0  0  0  0  0  0  0  0
    9.0840   -1.4530   23.4240 C   0  0  0  0  0  0  0  0  0  0  0  0
   10.5980   -1.4590   23.2680 C   0  0  0  0  0  0  0  0  0  0  0  0
   10.5080    0.0150   23.1870 C   0  0  0  0  0  0  0  0  0  0  0  0
   11.7070    0.7250   23.0120 C   0  0  0  0  0  0  0  0  0  0  0  0
   13.0450   -0.0420   22.9170 C   0  0  0  0  0  0  0  0  0  0  0  0
   13.0240   -1.5820   23.0170 C   0  0  0  0  0  0  0  0  0  0  0  0
   11.7080   -2.2860   23.2020 C   0  0  0  0  0  0  0  0  0  0  0  0
    5.3610   -3.0640   27.1830 C   0  0  0  0  0  0  0  0  0  0  0  0
    4.3300   -2.1550   26.9150 C   0  0  0  0  0  0  0  0  0  0  0  0
    4.2070   -1.6930   25.7820 O   0  0  0  0  0  0  0  0  0  0  0  0
    3.4850   -1.8050   27.9490 N   0  0  0  0  0  0  0  0  0  0  0  0
    3.0670   -2.7960   28.9210 C   0  0  0  0  0  0  0  0  0  0  0  0
    1.9670   -2.2090   29.5470 C   0  0  2  0  0  0  0  0  0  0  0  0
    1.0350   -3.0900   30.1280 C   0  0  0  0  0  0  0  0  0  0  0  0
    0.6810   -2.8800   31.4580 C   0  0  0  0  0  0  0  0  0  0  0  0
   -0.3030   -3.6970   32.0080 C   0  0  0  0  0  0  0  0  0  0  0  0
   -0.2490   -5.0810   31.8030 C   0  0  0  0  0  0  0  0  0  0  0  0
    0.7160   -5.5640   30.7550 C   0  0  0  0  0  0  0  0  0  0  0  0
    1.5350   -4.5470   29.9900 C   0  0  0  0  0  0  0  0  0  0  0  0
    1.4090   -1.1380   28.8020 C   0  0  0  0  0  0  0  0  0  0  0  0
    2.4580   -0.7430   27.9610 C   0  0  1  0  0  0  0  0  0  0  0  0
    3.0790    0.4010   28.4360 C   0  0  0  0  0  0  0  0  0  0  0  0
    4.0830    0.4190   29.1370 O   0  0  0  0  0  0  0  0  0  0  0  0
    2.4730    1.5550   28.0610 O   0  0  0  0  0  0  0  0  0  0  0  0
    2.5430   -4.9700   23.8530 C   0  0  0  0  0  0  0  0  0  0  0  0
    2.0240   -6.1140   23.2420 C   0  0  0  0  0  0  0  0  0  0  0  0
    1.4600   -4.3930   24.7790 C   0  0  0  0  0  0  0  0  0  0  0  0
  1  2  1  0
  2  3  1  0
  3  4  2  0
  3  5  1  0
  6  5  1  1
  6  7  1  0
  7  8  1  0
  8  9  2  0
  8 10  1  6
 10 11  1  0
 11 12  1  0
 12 13  1  0
 13 14  1  0
 14 15  2  0
 15 16  1  0
 16 17  2  0
 17 18  1  0
 14 19  1  0
 18 19  2  0
  8 20  1  0
 20 21  1  0
 21 22  2  0
 21 23  1  0
 23 24  1  0
 24 25  1  0
 25 26  1  6
 26 27  1  0
 27 28  1  0
 28 29  1  0
 29 30  1  0
 26 31  1  0
 30 31  1  0
 25 32  1  0
 23 33  1  0
 32 33  1  0
 33 34  1  1
 34 35  2  0
 34 36  1  0
  6 37  1  0
 37 38  1  0
 37 39  1  0
M  END
