DAV-IMP-59dd6621-10
     RDKit          3D

 19 20  0  0  0  0  0  0  0  0999 V2000
    8.5380   -2.0950   21.9230 O   0  0  0  0  0  0  0  0  0  0  0  0
    9.2050   -1.9540   22.9370 C   0  0  0  0  0  0  0  0  0  0  0  0
    8.6600   -2.4150   24.2220 C   0  0  0  0  0  0  0  0  0  0  0  0
    8.4580   -3.7030   24.5540 C   0  0  0  0  0  0  0  0  0  0  0  0
    7.8680   -4.0240   25.8740 C   0  0  0  0  0  0  0  0  0  0  0  0
    7.4130   -5.3400   26.1110 C   0  0  0  0  0  0  0  0  0  0  0  0
    6.8090   -5.7470   27.3470 C   0  0  0  0  0  0  0  0  0  0  0  0
    6.6950   -4.8330   28.2410 C   0  0  0  0  0  0  0  0  0  0  0  0
    7.1810   -3.4860   27.9370 C   0  0  0  0  0  0  0  0  0  0  0  0
    7.0260   -2.4370   28.9550 N   0  0  0  0  0  0  0  0  0  0  0  0
    5.8670   -2.1220   29.2730 O   0  0  0  0  0  0  0  0  0  0  0  0
    8.0180   -1.7370   29.2010 O   0  0  0  0  0  0  0  0  0  0  0  0
    7.8460   -2.8830   26.7210 C   0  0  0  0  0  0  0  0  0  0  0  0
   10.5330   -1.2980   22.8370 C   0  0  0  0  0  0  0  0  0  0  0  0
   10.7680   -0.0120   23.2800 C   0  0  0  0  0  0  0  0  0  0  0  0
   12.0510    0.5530   23.1580 C   0  0  0  0  0  0  0  0  0  0  0  0
   13.1020   -0.1670   22.6000 C   0  0  0  0  0  0  0  0  0  0  0  0
   12.8640   -1.4810   22.1420 C   0  0  0  0  0  0  0  0  0  0  0  0
   11.5670   -2.0330   22.2650 C   0  0  0  0  0  0  0  0  0  0  0  0
  1  2  2  0
  2  3  1  0
  3  4  2  3
  4  5  1  0
  5  6  2  0
  6  7  1  0
  7  8  2  0
  8  9  1  0
  9 10  1  0
 10 11  2  0
 10 12  1  0
  5 13  1  0
  9 13  2  0
  2 14  1  0
 14 15  2  0
 15 16  1  0
 16 17  2  0
 17 18  1  0
 14 19  1  0
 18 19  2  0
M  CHG  2  10   1  12  -1
M  END
