DAV-IMP-59dd6621-12
     RDKit          3D

 16 17  0  0  0  0  0  0  0  0999 V2000
    7.9200   -1.2620   22.8980 O   0  0  0  0  0  0  0  0  0  0  0  0
    8.8870   -1.9540   23.2310 C   0  0  0  0  0  0  0  0  0  0  0  0
    8.6640   -3.1880   23.8090 C   0  0  0  0  0  0  0  0  0  0  0  0
    8.1780   -3.3700   25.2640 C   0  0  0  0  0  0  0  0  0  0  0  0
    7.9420   -4.6680   25.8600 C   0  0  0  0  0  0  0  0  0  0  0  0
    6.6950   -4.1530   26.1720 C   0  0  0  0  0  0  0  0  0  0  0  0
    6.5520   -2.8840   25.7530 C   0  0  0  0  0  0  0  0  0  0  0  0
    7.6940   -2.4420   25.1230 C   0  0  0  0  0  0  0  0  0  0  0  0
    8.9800   -3.3100   24.9220 C   0  0  0  0  0  0  0  0  0  0  0  0
    9.2160   -4.7820   25.3850 C   0  0  0  0  0  0  0  0  0  0  0  0
   10.2690   -1.4200   22.9780 C   0  0  0  0  0  0  0  0  0  0  0  0
   10.6230   -0.0070   23.3440 C   0  0  0  0  0  0  0  0  0  0  0  0
   12.0280    0.6220   23.1360 C   0  0  0  0  0  0  0  0  0  0  0  0
   13.0330   -0.1650   22.5740 C   0  0  0  0  0  0  0  0  0  0  0  0
   12.6850   -1.5830   22.1880 C   0  0  0  0  0  0  0  0  0  0  0  0
   11.2800   -2.1730   22.4080 C   0  0  0  0  0  0  0  0  0  0  0  0
  1  2  2  0
  2  3  1  0
  3  4  2  3
  4  5  1  0
  5  6  2  0
  6  7  1  0
  7  8  2  0
  8  9  1  0
  5 10  1  0
  9 10  2  0
  2 11  1  0
 11 12  2  0
 12 13  1  0
 13 14  2  0
 14 15  1  0
 11 16  1  0
 15 16  2  0
M  END
