DEM-REL-172c3d60-6
     RDKit          3D

 26 29  0  0  0  0  0  0  0  0999 V2000
    3.8820   -4.1310   22.2960 O   0  0  0  0  0  0  0  0  0  0  0  0
    4.8410   -3.5460   22.7480 C   0  0  0  0  0  0  0  0  0  0  0  0
    4.9000   -3.1900   24.1740 C   0  0  0  0  0  0  0  0  0  0  0  0
    6.0250   -3.3970   24.8640 C   0  0  0  0  0  0  0  0  0  0  0  0
    5.9600   -3.7350   26.0470 O   0  0  0  0  0  0  0  0  0  0  0  0
    7.1530   -3.1880   24.0960 N   0  0  0  0  0  0  0  0  0  0  0  0
    8.3040   -2.6020   24.2380 C   0  0  0  0  0  0  0  0  0  0  0  0
    8.6890   -1.3230   24.7230 C   0  0  0  0  0  0  0  0  0  0  0  0
   10.0390   -1.2660   24.5890 C   0  0  0  0  0  0  0  0  0  0  0  0
   10.4770   -2.4290   24.0520 C   0  0  0  0  0  0  0  0  0  0  0  0
   11.9400   -2.5330   23.8310 C   0  0  0  0  0  0  0  0  0  0  0  0
   12.6530   -2.4520   25.0640 C   0  0  0  0  0  0  0  0  0  0  0  0
   13.9040   -2.5620   24.8180 C   0  0  0  0  0  0  0  0  0  0  0  0
   14.0680   -2.7020   23.5040 N   0  0  0  0  0  0  0  0  0  0  0  0
   12.8770   -2.6840   22.8190 C   0  0  0  0  0  0  0  0  0  0  0  0
    9.4470   -3.2520   23.8450 N   0  0  0  0  0  0  0  0  0  0  0  0
    7.2570   -3.6220   22.7160 C   0  0  2  0  0  0  0  0  0  0  0  0
    8.5960   -3.0780   22.2470 O   0  0  0  0  0  0  0  0  0  0  0  0
    8.6970   -1.6850   21.9970 C   0  0  0  0  0  0  0  0  0  0  0  0
    7.7330   -1.0250   21.6730 C   0  0  0  0  0  0  0  0  0  0  0  0
    9.0330   -0.3610   21.7950 C   0  0  0  0  0  0  0  0  0  0  0  0
    9.8300   -1.6340   22.2250 C   0  0  0  0  0  0  0  0  0  0  0  0
   10.9370   -2.2970   22.5900 F   0  0  0  0  0  0  0  0  0  0  0  0
   10.8910   -0.8080   22.2540 C   0  0  0  0  0  0  0  0  0  0  0  0
    9.6690   -0.5650   21.9630 C   0  0  0  0  0  0  0  0  0  0  0  0
    6.0270   -3.1970   21.9130 C   0  0  0  0  0  0  0  0  0  0  0  0
  1  2  2  0
  2  3  1  0
  3  4  1  0
  4  5  2  0
  4  6  1  0
  6  7  1  0
  7  8  2  0
  8  9  1  0
  9 10  2  0
 10 11  1  0
 11 12  1  0
 12 13  2  0
 13 14  1  0
 11 15  2  0
 14 15  1  0
  7 16  1  0
 10 16  1  0
  6 17  1  0
 17 18  1  6
 18 19  1  0
 19 20  2  0
 20 21  1  0
 21 22  2  0
 22 23  1  0
 22 24  1  0
 19 25  1  0
 24 25  2  0
  2 26  1  0
 17 26  1  0
M  END
