DEM-REL-172c3d60-2
     RDKit          3D

 24 26  0  0  0  0  0  0  0  0999 V2000
    6.1180   -3.2880   25.9140 O   0  0  0  0  0  0  0  0  0  0  0  0
    6.6630   -2.1840   25.8670 C   0  0  0  0  0  0  0  0  0  0  0  0
    6.3730   -1.1400   26.8920 C   0  0  0  0  0  0  0  0  0  0  0  0
    7.0180    0.0640   26.6790 C   0  0  0  0  0  0  0  0  0  0  0  0
    6.5130    1.1290   27.0450 O   0  0  0  0  0  0  0  0  0  0  0  0
    8.2460    0.0260   26.0410 C   0  0  0  0  0  0  0  0  0  0  0  0
    8.3120   -0.4600   24.7740 C   0  0  0  0  0  0  0  0  0  0  0  0
    9.6590   -0.6810   24.3930 C   0  0  2  0  0  0  0  0  0  0  0  0
   10.2700    0.5840   24.0970 N   0  0  0  0  0  0  0  0  0  0  0  0
   10.2560    1.1080   22.8220 C   0  0  0  0  0  0  0  0  0  0  0  0
    9.5880    0.6110   21.9140 O   0  0  0  0  0  0  0  0  0  0  0  0
   11.1160    2.3320   22.7010 C   0  0  0  0  0  0  0  0  0  0  0  0
   12.6290    2.2520   22.8800 C   0  0  0  0  0  0  0  0  0  0  0  0
   13.1190    3.6870   22.6920 C   0  0  0  0  0  0  0  0  0  0  0  0
   12.0330    4.6600   22.4070 C   0  0  0  0  0  0  0  0  0  0  0  0
   10.5000    3.9040   22.3730 S   0  0  0  0  0  0  0  0  0  0  0  0
    9.7890   -1.4830   23.0970 C   0  0  0  0  0  0  0  0  0  0  0  0
    8.8820   -2.0940   22.5300 C   0  0  0  0  0  0  0  0  0  0  0  0
   10.2400   -2.0490   22.0140 C   0  0  0  0  0  0  0  0  0  0  0  0
   10.7790   -1.1500   23.1940 C   0  0  0  0  0  0  0  0  0  0  0  0
   11.6920   -0.4330   23.9250 F   0  0  0  0  0  0  0  0  0  0  0  0
   11.9800   -1.2500   22.5180 C   0  0  0  0  0  0  0  0  0  0  0  0
   10.8710   -1.7760   22.1770 C   0  0  0  0  0  0  0  0  0  0  0  0
    7.6490   -1.8670   24.7520 C   0  0  0  0  0  0  0  0  0  0  0  0
  1  2  2  0
  2  3  1  0
  3  4  1  0
  4  5  2  0
  4  6  1  0
  6  7  1  0
  7  8  1  0
  8  9  1  6
  9 10  1  0
 10 11  2  0
 10 12  1  0
 12 13  2  0
 13 14  1  0
 14 15  2  0
 12 16  1  0
 15 16  1  0
  8 17  1  0
 17 18  2  0
 18 19  1  0
 19 20  2  0
 20 21  1  0
 20 22  1  0
 17 23  1  0
 22 23  2  0
  2 24  1  0
  7 24  1  0
M  END
