DEM-REL-172c3d60-7
     RDKit          3D

 25 28  0  0  0  0  0  0  0  0999 V2000
    5.1820    0.7130   23.4480 O   0  0  0  0  0  0  0  0  0  0  0  0
    6.2290    1.1520   22.9760 C   0  0  0  0  0  0  0  0  0  0  0  0
    6.1710    2.5060   22.3530 C   0  0  0  0  0  0  0  0  0  0  0  0
    7.2640    3.1170   21.8840 C   0  0  0  0  0  0  0  0  0  0  0  0
    8.6010    2.4540   21.9640 C   0  0  0  0  0  0  0  0  0  0  0  0
    8.4590    0.9210   21.9490 C   0  0  1  0  0  0  0  0  0  0  0  0
    9.7790    0.3070   22.1540 O   0  0  0  0  0  0  0  0  0  0  0  0
    9.6880   -1.0760   22.1350 C   0  0  0  0  0  0  0  0  0  0  0  0
    8.6040   -1.6330   22.1090 C   0  0  0  0  0  0  0  0  0  0  0  0
    9.8450   -2.3770   22.1180 C   0  0  0  0  0  0  0  0  0  0  0  0
   10.7430   -1.0820   22.1410 C   0  0  0  0  0  0  0  0  0  0  0  0
   11.9270   -0.4170   22.1600 F   0  0  0  0  0  0  0  0  0  0  0  0
   11.8000   -1.9330   22.1440 C   0  0  0  0  0  0  0  0  0  0  0  0
   10.5650   -2.2150   22.1330 C   0  0  0  0  0  0  0  0  0  0  0  0
    7.4720    0.5010   22.9760 N   0  0  0  0  0  0  0  0  0  0  0  0
    7.7960   -0.2140   24.1590 C   0  0  0  0  0  0  0  0  0  0  0  0
    8.2040   -1.5240   24.3660 C   0  0  0  0  0  0  0  0  0  0  0  0
    8.3860   -1.7230   25.7550 C   0  0  0  0  0  0  0  0  0  0  0  0
    8.0890   -0.5380   26.3760 C   0  0  0  0  0  0  0  0  0  0  0  0
    8.1290   -0.2250   27.8810 C   0  0  0  0  0  0  0  0  0  0  0  0
    8.3110   -1.1370   28.9450 C   0  0  0  0  0  0  0  0  0  0  0  0
    8.2770   -0.4040   30.1100 C   0  0  0  0  0  0  0  0  0  0  0  0
    8.0830    0.9110   29.7830 N   0  0  0  0  0  0  0  0  0  0  0  0
    7.9910    1.0300   28.4220 C   0  0  0  0  0  0  0  0  0  0  0  0
    7.7350    0.3610   25.4100 N   0  0  0  0  0  0  0  0  0  0  0  0
  1  2  2  0
  2  3  1  0
  3  4  2  0
  4  5  1  0
  5  6  1  0
  6  7  1  1
  7  8  1  0
  8  9  2  0
  9 10  1  0
 10 11  2  0
 11 12  1  0
 11 13  1  0
  8 14  1  0
 13 14  2  0
  2 15  1  0
  6 15  1  0
 15 16  1  0
 16 17  2  0
 17 18  1  0
 18 19  2  0
 19 20  1  0
 20 21  1  0
 21 22  2  0
 22 23  1  0
 20 24  2  0
 23 24  1  0
 16 25  1  0
 19 25  1  0
M  END
