DEM-REL-172c3d60-4
     RDKit          3D

 23 25  0  0  0  0  0  0  0  0999 V2000
    7.1140   -3.5560   28.3540 O   0  0  0  0  0  0  0  0  0  0  0  0
    7.6200   -2.8270   27.5030 C   0  0  0  0  0  0  0  0  0  0  0  0
    8.1110   -3.3910   26.2060 C   0  0  0  0  0  0  0  0  0  0  0  0
    8.4940   -2.4390   25.1200 C   0  0  0  0  0  0  0  0  0  0  0  0
    8.4020   -0.9070   25.2510 C   0  0  2  0  0  0  0  0  0  0  0  0
    9.5060   -0.2740   24.4230 C   0  0  2  0  0  0  0  0  0  0  0  0
    9.0200    1.0310   23.9370 N   0  0  0  0  0  0  0  0  0  0  0  0
    7.6730    1.2630   23.5120 C   0  0  0  0  0  0  0  0  0  0  0  0
    6.9100    2.0410   24.0960 O   0  0  0  0  0  0  0  0  0  0  0  0
    7.1960    0.5270   22.2850 C   0  0  0  0  0  0  0  0  0  0  0  0
    7.9370    0.1500   21.1720 C   0  0  0  0  0  0  0  0  0  0  0  0
    7.1620   -0.5640   20.1220 C   0  0  0  0  0  0  0  0  0  0  0  0
    5.8340   -0.7040   20.4960 C   0  0  0  0  0  0  0  0  0  0  0  0
    5.5470    0.0030   22.0520 S   0  0  0  0  0  0  0  0  0  0  0  0
    9.7040   -1.1000   23.1440 C   0  0  0  0  0  0  0  0  0  0  0  0
    8.7430   -1.8660   22.5240 C   0  0  0  0  0  0  0  0  0  0  0  0
   10.2140   -1.7470   21.9660 C   0  0  0  0  0  0  0  0  0  0  0  0
   10.6530   -0.6900   23.2050 C   0  0  0  0  0  0  0  0  0  0  0  0
   11.4690    0.1290   23.9340 F   0  0  0  0  0  0  0  0  0  0  0  0
   11.8980   -0.7290   22.5700 C   0  0  0  0  0  0  0  0  0  0  0  0
   10.8950   -1.3910   22.1440 C   0  0  0  0  0  0  0  0  0  0  0  0
    8.6740   -0.6690   26.7540 C   0  0  0  0  0  0  0  0  0  0  0  0
    7.7970   -1.4330   27.6360 N   0  0  0  0  0  0  0  0  0  0  0  0
  1  2  2  0
  2  3  1  0
  3  4  2  0
  5  4  1  1
  5  6  1  0
  6  7  1  6
  7  8  1  0
  8  9  2  0
  8 10  1  0
 10 11  2  0
 11 12  1  0
 12 13  2  0
 10 14  1  0
 13 14  1  0
  6 15  1  0
 15 16  2  0
 16 17  1  0
 17 18  2  0
 18 19  1  0
 18 20  1  0
 15 21  1  0
 20 21  2  0
  5 22  1  0
  2 23  1  0
 22 23  1  0
M  END
