DEN-EUR-293438d2-2
     RDKit          3D

 17 18  0  0  0  0  0  0  0  0999 V2000
   11.7710    5.7090   23.2550 O   0  0  0  0  0  0  0  0  0  0  0  0
   10.9170    5.0410   23.8210 C   0  0  0  0  0  0  0  0  0  0  0  0
   10.0970    5.5460   24.7700 O   0  0  0  0  0  0  0  0  0  0  0  0
   10.6970    3.5650   23.5070 C   0  0  0  0  0  0  0  0  0  0  0  0
    9.4570    2.9500   23.6990 C   0  0  0  0  0  0  0  0  0  0  0  0
    9.3190    1.5490   23.3910 N   0  0  0  0  0  0  0  0  0  0  0  0
   10.3900    0.7350   23.1570 C   0  0  0  0  0  0  0  0  0  0  0  0
   10.1480   -0.6220   23.1460 C   0  0  0  0  0  0  0  0  0  0  0  0
    8.9000   -1.0690   23.3640 F   0  0  0  0  0  0  0  0  0  0  0  0
   11.2530   -1.5900   22.8920 C   0  0  0  0  0  0  0  0  0  0  0  0
   10.9710   -2.8860   22.8900 F   0  0  0  0  0  0  0  0  0  0  0  0
   12.6770   -1.1080   22.6380 C   0  0  0  0  0  0  0  0  0  0  0  0
   13.6510   -1.9610   22.4020 F   0  0  0  0  0  0  0  0  0  0  0  0
   12.8860    0.4220   22.6760 C   0  0  0  0  0  0  0  0  0  0  0  0
   11.6490    1.2460   22.9450 C   0  0  0  0  0  0  0  0  0  0  0  0
   11.8970    2.7560   22.9630 C   0  0  0  0  0  0  0  0  0  0  0  0
   12.9240    3.2880   22.5770 O   0  0  0  0  0  0  0  0  0  0  0  0
  1  2  2  0
  2  3  1  0
  2  4  1  0
  4  5  2  0
  5  6  1  0
  6  7  1  0
  7  8  1  0
  8  9  1  0
  8 10  2  0
 10 11  1  0
 10 12  1  0
 12 13  1  0
 12 14  2  0
  7 15  2  0
 14 15  1  0
  4 16  1  0
 15 16  1  0
 16 17  2  0
M  END
