DEN-EUR-293438d2-1
     RDKit          3D

 15 16  0  0  0  0  0  0  0  0999 V2000
    9.8970    5.7600   23.3850 O   0  0  0  0  0  0  0  0  0  0  0  0
   10.7580    4.9580   23.7200 C   0  0  0  0  0  0  0  0  0  0  0  0
   11.8290    5.3490   24.4380 O   0  0  0  0  0  0  0  0  0  0  0  0
   10.7130    3.4320   23.3940 C   0  0  0  0  0  0  0  0  0  0  0  0
    9.4710    2.8350   23.5990 C   0  0  0  0  0  0  0  0  0  0  0  0
    9.4280    1.4210   23.3120 N   0  0  0  0  0  0  0  0  0  0  0  0
   10.5630    0.6240   23.1720 C   0  0  0  0  0  0  0  0  0  0  0  0
   10.4620   -0.7490   23.2410 C   0  0  0  0  0  0  0  0  0  0  0  0
   11.7000   -1.6030   23.0890 C   0  0  0  0  0  0  0  0  0  0  0  0
   11.6430   -2.9210   23.1580 F   0  0  0  0  0  0  0  0  0  0  0  0
   12.9840   -0.8490   22.8620 C   0  0  0  0  0  0  0  0  0  0  0  0
   12.9840    0.5440   22.8150 C   0  0  0  0  0  0  0  0  0  0  0  0
   11.8030    1.2700   22.9670 C   0  0  0  0  0  0  0  0  0  0  0  0
   11.8140    2.6730   22.9230 C   0  0  0  0  0  0  0  0  0  0  0  0
   12.7770    3.2740   22.4690 O   0  0  0  0  0  0  0  0  0  0  0  0
  1  2  2  0
  2  3  1  0
  2  4  1  0
  4  5  2  0
  5  6  1  0
  6  7  1  0
  7  8  1  0
  8  9  2  0
  9 10  1  0
  9 11  1  0
 11 12  2  0
  7 13  2  0
 12 13  1  0
  4 14  1  0
 13 14  1  0
 14 15  2  0
M  END
