DOU-UNK-b5326f8f-17
     RDKit          3D

 35 40  0  0  0  0  0  0  0  0999 V2000
   11.3350    4.4140   23.5610 C   0  0  0  0  0  0  0  0  0  0  0  0
   11.3340    2.9880   23.1900 C   0  0  0  0  0  0  0  0  0  0  0  0
   11.0030    2.1340   24.0170 O   0  0  0  0  0  0  0  0  0  0  0  0
   11.1360    0.8410   23.5850 C   0  0  0  0  0  0  0  0  0  0  0  0
   12.3310    0.1270   23.5650 C   0  0  0  0  0  0  0  0  0  0  0  0
   12.4970   -1.1850   23.1190 C   0  0  0  0  0  0  0  0  0  0  0  0
   11.2590   -1.8630   22.6180 C   0  0  0  0  0  0  0  0  0  0  0  0
    9.9260   -1.0920   22.6300 C   0  0  0  0  0  0  0  0  0  0  0  0
    8.6930   -1.8170   22.0820 C   0  0  1  0  0  0  0  0  0  0  0  0
    7.8710   -2.8260   22.7970 C   0  0  0  0  0  0  0  0  0  0  0  0
    8.4820   -3.8420   23.2980 C   0  0  0  0  0  0  0  0  0  0  0  0
    7.8550   -4.8980   23.9380 C   0  0  0  0  0  0  0  0  0  0  0  0
    6.4950   -4.9040   24.1150 C   0  0  0  0  0  0  0  0  0  0  0  0
    5.7920   -3.8280   23.6170 C   0  0  0  0  0  0  0  0  0  0  0  0
    6.4800   -2.8010   22.9590 C   0  0  0  0  0  0  0  0  0  0  0  0
    5.7230   -1.7890   22.4860 C   0  0  1  0  0  0  0  0  0  0  0  0
    5.7540   -0.6550   23.3060 C   0  0  0  0  0  0  0  0  0  0  0  0
    6.6300   -0.4880   24.2060 C   0  0  0  0  0  0  0  0  0  0  0  0
    5.1590   -0.7580   24.6520 C   0  0  0  0  0  0  0  0  0  0  0  0
    6.3410   -1.4610   21.1980 N   0  0  0  0  0  0  0  0  0  0  0  0
    5.9110   -2.1800   20.0660 C   0  0  0  0  0  0  0  0  0  0  0  0
    6.1190   -1.6070   18.8100 C   0  0  0  0  0  0  0  0  0  0  0  0
    5.3560   -3.2920   20.1240 O   0  0  0  0  0  0  0  0  0  0  0  0
    7.7440   -0.8910   21.2600 C   0  0  1  0  0  0  0  0  0  0  0  0
    7.8370    0.4430   21.6300 C   0  0  0  0  0  0  0  0  0  0  0  0
    6.7580    1.3070   21.5170 C   0  0  0  0  0  0  0  0  0  0  0  0
    6.1930    2.1080   22.5460 C   0  0  0  0  0  0  0  0  0  0  0  0
    5.1420    2.8320   22.0860 N   0  0  0  0  0  0  0  0  0  0  0  0
    4.9740    2.5390   20.7550 C   0  0  0  0  0  0  0  0  0  0  0  0
    3.9940    3.1070   20.0100 N   0  0  0  0  0  0  0  0  0  0  0  0
    3.9570    2.7240   18.7070 C   0  0  0  0  0  0  0  0  0  0  0  0
    4.9100    1.7330   18.0500 C   0  0  0  0  0  0  0  0  0  0  0  0
    5.9720    1.1370   18.9270 C   0  0  0  0  0  0  0  0  0  0  0  0
    5.9670    1.5980   20.3730 C   0  0  0  0  0  0  0  0  0  0  0  0
    9.9460    0.2370   23.1270 C   0  0  0  0  0  0  0  0  0  0  0  0
  1  2  1  0
  2  3  1  0
  3  4  1  0
  4  5  2  0
  5  6  1  0
  6  7  2  0
  7  8  1  0
  9  8  1  1
  9 10  1  0
 10 11  2  0
 11 12  1  0
 12 13  2  0
 13 14  1  0
 10 15  1  0
 14 15  2  0
 15 16  1  0
 16 17  1  1
 17 18  1  0
 17 19  1  0
 18 19  1  0
 16 20  1  0
 20 21  1  0
 21 22  1  0
 21 23  2  0
  9 24  1  0
 20 24  1  0
 24 25  1  1
 25 26  1  0
 26 27  2  0
 27 28  1  0
 28 29  1  0
 29 30  1  0
 30 31  2  0
 31 32  1  0
 32 33  2  0
 26 34  1  0
 29 34  2  0
 33 34  1  0
  4 35  1  0
  8 35  2  0
M  END
