DOU-UNK-b5326f8f-18
     RDKit          3D

 25 27  0  0  0  0  0  0  0  0999 V2000
    7.4010    1.8080   21.1420 C   0  0  0  0  0  0  0  0  0  0  0  0
    6.0760    1.6340   20.5290 C   0  0  0  0  0  0  0  0  0  0  0  0
    4.9770    2.2300   21.0990 C   0  0  0  0  0  0  0  0  0  0  0  0
    3.6770    2.1650   20.6240 C   0  0  0  0  0  0  0  0  0  0  0  0
    3.3350    1.4930   19.5110 N   0  0  0  0  0  0  0  0  0  0  0  0
    4.3810    0.8610   18.9000 C   0  0  0  0  0  0  0  0  0  0  0  0
    5.8020    0.8970   19.3790 C   0  0  0  0  0  0  0  0  0  0  0  0
    6.8230    0.1570   18.6400 N   0  0  0  0  0  0  0  0  0  0  0  0
    7.4410   -0.9270   19.2140 C   0  0  0  0  0  0  0  0  0  0  0  0
    7.5200   -2.0080   18.6850 O   0  0  0  0  0  0  0  0  0  0  0  0
    8.0920   -0.6700   20.5970 C   0  0  0  0  0  0  0  0  0  0  0  0
    7.7660   -1.2610   21.8950 C   0  0  2  0  0  0  0  0  0  0  0  0
    8.1330   -0.4120   22.8990 C   0  0  0  0  0  0  0  0  0  0  0  0
    9.6160   -0.5290   23.1140 N   0  0  0  0  0  0  0  0  0  0  0  0
   10.0650   -1.5370   23.8900 C   0  0  0  0  0  0  0  0  0  0  0  0
   11.4360   -1.7240   23.8630 C   0  0  0  0  0  0  0  0  0  0  0  0
   12.2440   -0.5960   23.8540 C   0  0  0  0  0  0  0  0  0  0  0  0
   13.3950   -0.9290   23.2110 O   0  0  0  0  0  0  0  0  0  0  0  0
   11.6250    0.5680   23.3250 C   0  0  0  0  0  0  0  0  0  0  0  0
   10.2270    0.6190   23.5010 C   0  0  0  0  0  0  0  0  0  0  0  0
    8.5490   -2.4390   21.9380 C   0  0  0  0  0  0  0  0  0  0  0  0
    7.7900   -3.5570   23.1320 S   0  0  0  0  0  0  0  0  0  0  0  0
    6.1400   -2.8420   22.9580 C   0  0  0  0  0  0  0  0  0  0  0  0
    6.2560   -1.7420   21.9010 C   0  0  2  0  0  0  0  0  0  0  0  0
    5.8170   -2.1760   20.6280 C   0  0  0  0  0  0  0  0  0  0  0  0
  1  2  1  0
  2  3  2  0
  3  4  1  0
  4  5  2  0
  5  6  1  0
  2  7  1  0
  6  7  2  0
  7  8  1  0
  8  9  1  0
  9 10  2  0
  9 11  1  0
 12 11  1  6
 12 13  1  0
 13 14  1  0
 14 15  1  0
 15 16  1  0
 16 17  1  0
 17 18  1  0
 17 19  1  0
 14 20  1  0
 19 20  1  0
 12 21  1  0
 21 22  1  0
 22 23  1  0
 12 24  1  0
 23 24  1  0
 24 25  1  6
M  END
