DOU-UNK-b5326f8f-19
     RDKit          3D

 24 26  0  0  0  0  0  0  0  0999 V2000
    5.8590   -2.7770   20.2210 C   0  0  0  0  0  0  0  0  0  0  0  0
    6.7740   -2.8110   21.4040 C   0  0  0  0  0  0  0  0  0  0  0  0
    6.5920   -3.7520   22.3350 C   0  0  0  0  0  0  0  0  0  0  0  0
    7.6690   -3.6980   23.5760 S   0  0  0  0  0  0  0  0  0  0  0  0
    8.3730   -2.3720   22.8170 C   0  0  0  0  0  0  0  0  0  0  0  0
    7.8900   -1.8090   21.5390 C   0  0  0  0  0  0  0  0  0  0  0  0
    8.9700   -0.9470   21.8040 C   0  0  1  0  0  0  0  0  0  0  0  0
    8.6160    0.3640   22.2600 N   0  0  0  0  0  0  0  0  0  0  0  0
    7.8110    1.1370   21.4570 C   0  0  0  0  0  0  0  0  0  0  0  0
    8.1630    2.2120   20.9900 O   0  0  0  0  0  0  0  0  0  0  0  0
    6.6220    0.5110   21.2950 N   0  0  0  0  0  0  0  0  0  0  0  0
    5.7420    1.1290   20.4940 C   0  0  0  0  0  0  0  0  0  0  0  0
    5.8570    1.1380   18.9750 C   0  0  0  0  0  0  0  0  0  0  0  0
    4.9230    1.7890   18.1850 C   0  0  0  0  0  0  0  0  0  0  0  0
    3.8510    2.4460   18.8900 C   0  0  0  0  0  0  0  0  0  0  0  0
    3.6700    2.4880   20.2320 N   0  0  0  0  0  0  0  0  0  0  0  0
    4.6650    1.7960   21.0400 C   0  0  0  0  0  0  0  0  0  0  0  0
   10.0200   -1.4970   22.5390 N   0  0  0  0  0  0  0  0  0  0  0  0
   10.0300   -1.8310   23.9640 C   0  0  0  0  0  0  0  0  0  0  0  0
   11.3160   -2.2150   24.4290 C   0  0  0  0  0  0  0  0  0  0  0  0
   12.4980   -1.9810   23.7430 C   0  0  0  0  0  0  0  0  0  0  0  0
   13.1760   -0.9240   24.3710 O   0  0  0  0  0  0  0  0  0  0  0  0
   12.4360   -1.6600   22.4410 C   0  0  0  0  0  0  0  0  0  0  0  0
   11.2740   -1.1560   21.9470 C   0  0  0  0  0  0  0  0  0  0  0  0
  1  2  1  0
  2  3  2  0
  3  4  1  0
  4  5  1  0
  2  6  1  0
  5  6  2  0
  6  7  1  0
  7  8  1  1
  8  9  1  0
  9 10  2  0
  9 11  1  0
 11 12  1  0
 12 13  2  0
 13 14  1  0
 14 15  2  0
 15 16  1  0
 12 17  1  0
 16 17  2  0
  7 18  1  0
 18 19  1  0
 19 20  1  0
 20 21  1  0
 21 22  1  0
 21 23  1  0
 18 24  1  0
 23 24  1  0
M  END
