DOU-UNK-b5326f8f-5
     RDKit          3D

 39 43  0  0  0  0  0  0  0  0999 V2000
    5.9550   -1.5320   18.5050 C   0  0  0  0  0  0  0  0  0  0  0  0
    5.6740   -2.4470   19.6460 C   0  0  0  0  0  0  0  0  0  0  0  0
    5.2870   -3.6260   19.5000 O   0  0  0  0  0  0  0  0  0  0  0  0
    5.9330   -1.8800   20.8730 N   0  0  0  0  0  0  0  0  0  0  0  0
    7.1810   -1.1010   20.9040 C   0  0  1  0  0  0  0  0  0  0  0  0
    6.9960    0.2920   20.8670 C   0  0  0  0  0  0  0  0  0  0  0  0
    5.7340    0.6880   21.5420 N   0  0  0  0  0  0  0  0  0  0  0  0
    4.8190    1.9590   20.9020 S   0  0  0  0  0  0  0  0  0  0  0  0
    4.8520    1.7780   19.4690 O   0  0  0  0  0  0  0  0  0  0  0  0
    3.5700    2.0450   21.6210 O   0  0  0  0  0  0  0  0  0  0  0  0
    5.7790    3.4070   21.2750 C   0  0  0  0  0  0  0  0  0  0  0  0
    5.2270    4.6660   20.9970 C   0  0  0  0  0  0  0  0  0  0  0  0
    6.0050    5.8920   21.2740 C   0  0  0  0  0  0  0  0  0  0  0  0
    7.2530    5.8400   21.7960 C   0  0  0  0  0  0  0  0  0  0  0  0
    7.9620    7.0840   22.0260 C   0  0  0  0  0  0  0  0  0  0  0  0
    7.8070    4.5850   22.0870 C   0  0  0  0  0  0  0  0  0  0  0  0
    7.0610    3.3410   21.8240 C   0  0  0  0  0  0  0  0  0  0  0  0
    8.0860   -1.4910   22.1160 C   0  0  0  0  0  0  0  0  0  0  0  0
    8.2500   -2.9410   22.3710 N   0  0  0  0  0  0  0  0  0  0  0  0
    8.5830   -3.1630   23.7250 C   0  0  1  0  0  0  0  0  0  0  0  0
    8.9930   -1.9600   24.3480 O   0  0  0  0  0  0  0  0  0  0  0  0
    7.5040   -3.7200   24.3880 C   0  0  0  0  0  0  0  0  0  0  0  0
    6.6440   -2.9960   25.3970 C   0  0  0  0  0  0  0  0  0  0  0  0
    5.6130   -3.9940   25.8830 C   0  0  0  0  0  0  0  0  0  0  0  0
    5.7090   -5.2650   25.3080 C   0  0  0  0  0  0  0  0  0  0  0  0
    7.0010   -5.3800   24.1600 S   0  0  0  0  0  0  0  0  0  0  0  0
    7.0640   -3.7510   22.0470 C   0  0  1  0  0  0  0  0  0  0  0  0
    6.4390   -4.5760   22.9740 C   0  0  0  0  0  0  0  0  0  0  0  0
    5.0320   -4.4450   23.2420 C   0  0  0  0  0  0  0  0  0  0  0  0
    4.9820   -5.6710   23.2040 O   0  0  0  0  0  0  0  0  0  0  0  0
    5.3940   -3.0710   23.2230 N   0  0  0  0  0  0  0  0  0  0  0  0
    4.7010   -2.1170   24.1250 C   0  0  0  0  0  0  0  0  0  0  0  0
    5.2340   -0.8560   24.3030 C   0  0  0  0  0  0  0  0  0  0  0  0
    4.7450    0.1390   25.0930 N   0  0  0  0  0  0  0  0  0  0  0  0
    3.6190   -0.1680   25.7590 C   0  0  0  0  0  0  0  0  0  0  0  0
    2.9770   -1.4150   25.6640 C   0  0  0  0  0  0  0  0  0  0  0  0
    3.5220   -2.4120   24.8340 C   0  0  0  0  0  0  0  0  0  0  0  0
    2.7920   -3.7290   24.7730 C   0  0  0  0  0  0  0  0  0  0  0  0
    5.8250   -2.9420   21.8620 C   0  0  1  0  0  0  0  0  0  0  0  0
  1  2  1  0
  2  3  2  0
  2  4  1  0
  4  5  1  0
  5  6  1  1
  6  7  1  0
  8  7  1  0
  8  9  2  0
  8 10  2  0
  8 11  1  0
 11 12  2  0
 12 13  1  0
 13 14  2  0
 14 15  1  0
 14 16  1  0
 11 17  1  0
 16 17  2  0
  5 18  1  0
 18 19  1  0
 19 20  1  0
 20 21  1  1
 20 22  1  0
 22 23  2  0
 23 24  1  0
 24 25  2  0
 22 26  1  0
 25 26  1  0
 19 27  1  0
 27 28  1  1
 28 29  1  0
 29 30  2  0
 29 31  1  0
 31 32  1  0
 32 33  2  0
 33 34  1  0
 34 35  2  0
 35 36  1  0
 32 37  1  0
 36 37  2  0
 37 38  1  0
 39  4  1  1
 27 39  1  0
 31 39  1  0
M  END
