DOU-UNK-b5326f8f-11
     RDKit          3D

 17 19  0  0  0  0  0  0  0  0999 V2000
    9.2840    1.2070   23.2330 N   0  0  0  0  0  0  0  0  0  0  0  0
   10.6220    1.0520   22.8520 C   0  0  0  0  0  0  0  0  0  0  0  0
   11.3940    2.2370   22.6740 O   0  0  0  0  0  0  0  0  0  0  0  0
   11.2630   -0.3270   22.6490 C   0  0  0  0  0  0  0  0  0  0  0  0
   11.4250   -1.6010   22.6210 C   0  0  0  0  0  0  0  0  0  0  0  0
   10.3360   -2.0110   23.0320 C   0  0  0  0  0  0  0  0  0  0  0  0
    9.8590   -3.0300   23.2550 C   0  0  0  0  0  0  0  0  0  0  0  0
    9.6510   -1.1520   23.2690 S   0  0  0  0  0  0  0  0  0  0  0  0
    8.6590   -3.4120   23.7390 C   0  0  0  0  0  0  0  0  0  0  0  0
    8.3560   -4.5100   24.5590 C   0  0  0  0  0  0  0  0  0  0  0  0
    7.0690   -4.5160   24.8310 C   0  0  0  0  0  0  0  0  0  0  0  0
    5.9620   -3.8050   24.5710 C   0  0  0  0  0  0  0  0  0  0  0  0
    6.3240   -2.7320   23.7490 C   0  0  0  0  0  0  0  0  0  0  0  0
    7.6650   -2.5340   23.3360 C   0  0  0  0  0  0  0  0  0  0  0  0
    7.8370   -1.2860   22.4290 C   0  0  0  0  0  0  0  0  0  0  0  0
    8.4350   -0.0850   21.9360 O   0  0  0  0  0  0  0  0  0  0  0  0
    9.1190   -1.1450   23.4090 C   0  0  0  0  0  0  0  0  0  0  0  0
  1  2  1  0
  2  3  2  0
  2  4  1  0
  4  5  2  0
  5  6  1  0
  6  7  2  0
  4  8  1  0
  7  8  1  0
  7  9  1  0
  9 10  2  0
 10 11  1  0
 11 12  2  0
 12 13  1  0
  9 14  1  0
 13 14  2  0
 14 15  1  0
 15 16  2  0
  6 17  1  0
 15 17  1  0
M  END
