DOU-UNK-b5326f8f-3
     RDKit          3D

 23 25  0  0  0  0  0  0  0  0999 V2000
    6.5830   -1.2070   17.8480 C   0  0  0  0  0  0  0  0  0  0  0  0
    6.2360   -1.5120   19.2560 C   0  0  0  0  0  0  0  0  0  0  0  0
    5.2310   -2.1620   19.5570 O   0  0  0  0  0  0  0  0  0  0  0  0
    7.2370   -0.9590   20.2280 N   0  0  0  0  0  0  0  0  0  0  0  0
    7.6100   -1.9410   21.1580 C   0  0  0  0  0  0  0  0  0  0  0  0
    6.8030   -0.6650   21.4770 C   0  0  0  0  0  0  0  0  0  0  0  0
    7.4810   -1.3640   20.2900 N   0  0  0  0  0  0  0  0  0  0  0  0
    7.0650   -1.1760   21.5730 C   0  0  0  0  0  0  0  0  0  0  0  0
    7.0780   -0.5200   20.1610 C   0  0  0  0  0  0  0  0  0  0  0  0
    7.7250   -1.6450   19.9650 C   0  0  0  0  0  0  0  0  0  0  0  0
    7.0450   -0.8250   21.1450 C   0  0  0  0  0  0  0  0  0  0  0  0
    7.7170    0.6230   21.2740 C   0  0  0  0  0  0  0  0  0  0  0  0
    7.1190    1.5690   20.4600 N   0  0  0  0  0  0  0  0  0  0  0  0
    6.3440    2.4770   21.1340 C   0  0  0  0  0  0  0  0  0  0  0  0
    5.9700    3.4200   21.8250 O   0  0  0  0  0  0  0  0  0  0  0  0
    7.6140    2.9440   21.4460 N   0  0  0  0  0  0  0  0  0  0  0  0
    7.9270    3.5810   22.7360 C   0  0  0  0  0  0  0  0  0  0  0  0
    9.3200    3.2010   23.0880 C   0  0  0  0  0  0  0  0  0  0  0  0
    9.6680    3.9290   24.3030 C   0  0  0  0  0  0  0  0  0  0  0  0
    9.3630    5.3030   24.3020 C   0  0  0  0  0  0  0  0  0  0  0  0
    8.6260    5.7610   23.2000 C   0  0  0  0  0  0  0  0  0  0  0  0
    7.6400    4.9440   22.6510 C   0  0  0  0  0  0  0  0  0  0  0  0
    6.5870    0.7400   19.5070 C   0  0  0  0  0  0  0  0  0  0  0  0
  1  2  1  0
  2  3  2  0
  2  4  1  0
  4  5  1  0
  5  6  2  0
  6  7  1  0
  7  8  2  0
  8  9  1  0
  5 10  1  0
  9 10  2  0
 10 11  1  0
 11 12  1  0
 12 13  1  0
 13 14  1  0
 14 15  2  0
 14 16  1  0
 16 17  1  0
 17 18  1  0
 18 19  1  0
 19 20  1  0
 20 21  1  0
 17 22  1  0
 21 22  1  0
  9 23  1  0
 13 23  1  0
M  END
