DOU-UNK-b5326f8f-13
     RDKit          3D

 21 25  0  0  0  0  0  0  0  0999 V2000
    3.4420    0.1450   23.2210 Cl  0  0  0  0  0  0  0  0  0  0  0  0
    4.4240    1.3530   22.3510 C   0  0  1  0  0  0  0  0  0  0  0  0
    5.7400    0.7740   22.0310 C   0  0  0  0  0  0  0  0  0  0  0  0
    5.8490    0.3700   20.7210 C   0  0  2  0  0  0  0  0  0  0  0  0
    7.0130   -0.2310   20.2300 C   0  0  0  0  0  0  0  0  0  0  0  0
    7.9230   -0.9230   21.0530 C   0  0  0  0  0  0  0  0  0  0  0  0
    8.9040   -0.2250   21.8110 C   0  0  0  0  0  0  0  0  0  0  0  0
    7.9540   -0.8490   22.7140 C   0  0  0  0  0  0  0  0  0  0  0  0
    7.0100    0.0070   18.9230 C   0  0  0  0  0  0  0  0  0  0  0  0
    5.8660    0.8200   18.5210 N   0  0  0  0  0  0  0  0  0  0  0  0
    5.5390    1.5090   19.6850 C   0  0  1  0  0  0  0  0  0  0  0  0
    4.3010    1.9760   19.9180 C   0  0  0  0  0  0  0  0  0  0  0  0
    3.2440    2.7300   18.7470 S   0  0  0  0  0  0  0  0  0  0  0  0
    2.0070    2.9010   19.9940 C   0  0  0  0  0  0  0  0  0  0  0  0
    0.7030    3.4310   19.9420 C   0  0  0  0  0  0  0  0  0  0  0  0
   -0.4270    2.8170   20.6000 N   0  0  0  0  0  0  0  0  0  0  0  0
   -1.4520    3.6590   20.2830 N   0  0  0  0  0  0  0  0  0  0  0  0
   -0.8500    4.6120   19.5200 C   0  0  0  0  0  0  0  0  0  0  0  0
    0.3780    4.4640   19.3370 O   0  0  0  0  0  0  0  0  0  0  0  0
    2.4110    2.4270   21.2250 C   0  0  0  0  0  0  0  0  0  0  0  0
    3.6920    1.9220   21.1720 C   0  0  0  0  0  0  0  0  0  0  0  0
  2  1  1  6
  2  3  1  0
  4  3  1  1
  4  5  1  0
  5  6  1  0
  6  7  1  0
  6  8  1  0
  7  8  1  0
  5  9  2  0
  9 10  1  0
  4 11  1  0
 11 10  1  6
 11 12  1  0
 12 13  1  0
 13 14  1  0
 14 15  1  0
 15 16  2  0
 16 17  1  0
 17 18  2  0
 15 19  1  0
 18 19  1  0
 14 20  2  0
  2 21  1  0
 12 21  2  0
 20 21  1  0
M  END
