DOU-UNK-b5326f8f-2
     RDKit          3D

 23 24  0  0  0  0  0  0  0  0999 V2000
    9.7800   -2.8130   23.3880 C   0  0  0  0  0  0  0  0  0  0  0  0
    9.1180   -1.6870   24.0780 C   0  0  0  0  0  0  0  0  0  0  0  0
    7.8970   -1.7030   24.2530 O   0  0  0  0  0  0  0  0  0  0  0  0
    9.9340   -0.6480   24.5060 N   0  0  0  0  0  0  0  0  0  0  0  0
   11.2100   -0.3200   23.8630 C   0  0  0  0  0  0  0  0  0  0  0  0
   10.7910    0.8990   23.8540 C   0  0  0  0  0  0  0  0  0  0  0  0
    9.6290    1.4820   24.3010 N   0  0  0  0  0  0  0  0  0  0  0  0
   10.2750    2.5680   23.8090 C   0  0  0  0  0  0  0  0  0  0  0  0
   11.5720    2.1960   23.2600 C   0  0  0  0  0  0  0  0  0  0  0  0
   12.3250    3.2720   22.7040 C   0  0  0  0  0  0  0  0  0  0  0  0
   12.0990    4.6150   23.2760 C   0  0  0  0  0  0  0  0  0  0  0  0
   11.1730    5.3750   22.6070 N   0  0  0  0  0  0  0  0  0  0  0  0
   10.1250    5.8310   23.3280 C   0  0  0  0  0  0  0  0  0  0  0  0
   10.2430    6.1870   24.7050 O   0  0  0  0  0  0  0  0  0  0  0  0
    8.7420    6.0010   22.6880 C   0  0  0  0  0  0  0  0  0  0  0  0
    8.4340    7.2750   22.2750 C   0  0  0  0  0  0  0  0  0  0  0  0
    7.1080    7.6430   21.6050 C   0  0  0  0  0  0  0  0  0  0  0  0
    6.2010    6.6100   21.4260 C   0  0  0  0  0  0  0  0  0  0  0  0
    6.4970    5.1820   21.8700 C   0  0  0  0  0  0  0  0  0  0  0  0
    7.7050    4.8620   22.4780 C   0  0  0  0  0  0  0  0  0  0  0  0
    7.9380    3.5990   22.8580 F   0  0  0  0  0  0  0  0  0  0  0  0
   12.0520    0.7140   23.2950 C   0  0  0  0  0  0  0  0  0  0  0  0
   13.2820    0.3150   22.7980 C   0  0  0  0  0  0  0  0  0  0  0  0
  1  2  1  0
  2  3  2  0
  2  4  1  0
  4  5  1  0
  5  6  2  0
  6  7  1  0
  7  8  2  0
  8  9  1  0
  9 10  1  0
 10 11  1  0
 11 12  1  0
 12 13  1  0
 13 14  2  0
 13 15  1  0
 15 16  2  0
 16 17  1  0
 17 18  2  0
 18 19  1  0
 15 20  1  0
 19 20  2  0
 20 21  1  0
  5 22  1  0
  9 22  2  0
 22 23  1  0
M  END
