DRA-CSI-13f611db-1
     RDKit          3D

 28 31  0  0  0  0  0  0  0  0999 V2000
    4.5750    0.3750   21.3750 O   0  0  0  0  0  0  0  0  0  0  0  0
    5.3210   -0.5980   21.2890 C   0  0  0  0  0  0  0  0  0  0  0  0
    5.3430   -1.5540   20.3100 N   0  0  0  0  0  0  0  0  0  0  0  0
    5.3930   -1.2690   18.9790 C   0  0  0  0  0  0  0  0  0  0  0  0
    5.4420   -0.1960   18.3280 N   0  0  0  0  0  0  0  0  0  0  0  0
    5.4540   -0.4810   16.9820 N   0  0  0  0  0  0  0  0  0  0  0  0
    5.3960   -1.7210   16.4400 C   0  0  0  0  0  0  0  0  0  0  0  0
    5.4210   -2.4270   14.2820 C   0  0  0  0  0  0  0  0  0  0  0  0
    6.1340   -3.1150   13.4490 C   0  0  0  0  0  0  0  0  0  0  0  0
    5.7480   -2.9830   12.0870 C   0  0  0  0  0  0  0  0  0  0  0  0
    4.8190   -2.5500   11.8620 C   0  0  0  0  0  0  0  0  0  0  0  0
    4.3910   -2.4520   10.3270 Br  0  0  0  0  0  0  0  0  0  0  0  0
    4.0560   -2.1170   12.8800 S   0  0  0  0  0  0  0  0  0  0  0  0
    5.3880   -2.6150   17.9860 S   0  0  0  0  0  0  0  0  0  0  0  0
    6.3870   -0.8710   22.3310 C   0  0  0  0  0  0  0  0  0  0  0  0
    6.1500   -2.2510   22.9680 C   0  0  0  0  0  0  0  0  0  0  0  0
    6.9490   -3.2230   22.1570 C   0  0  0  0  0  0  0  0  0  0  0  0
    8.3410   -2.9940   22.4500 N   0  0  0  0  0  0  0  0  0  0  0  0
    8.5970   -3.5510   23.6460 C   0  0  0  0  0  0  0  0  0  0  0  0
    9.7120   -3.5740   24.1430 O   0  0  0  0  0  0  0  0  0  0  0  0
    7.3760   -4.1270   24.2890 C   0  0  0  0  0  0  0  0  0  0  0  0
    7.9200   -5.2540   23.6060 C   0  0  0  0  0  0  0  0  0  0  0  0
    6.8790   -5.2980   24.2840 C   0  0  0  0  0  0  0  0  0  0  0  0
    6.7010   -3.9900   24.7980 C   0  0  0  0  0  0  0  0  0  0  0  0
    5.6570   -4.0500   25.4640 C   0  0  0  0  0  0  0  0  0  0  0  0
    6.2580   -5.1360   24.7350 C   0  0  0  0  0  0  0  0  0  0  0  0
    8.8550   -1.6700   22.1400 C   0  0  0  0  0  0  0  0  0  0  0  0
    7.7650   -0.7310   21.6310 C   0  0  0  0  0  0  0  0  0  0  0  0
  1  2  2  0
  2  3  1  0
  3  4  1  0
  4  5  2  0
  5  6  1  0
  6  7  2  0
  7  8  1  0
  8  9  2  0
  9 10  1  0
 10 11  2  0
 11 12  1  0
  8 13  1  0
 11 13  1  0
  4 14  1  0
  7 14  1  0
  2 15  1  0
 15 16  1  0
 16 17  1  0
 17 18  1  0
 18 19  1  0
 19 20  2  0
 19 21  1  0
 21 22  2  0
 22 23  1  0
 23 24  2  0
 24 25  1  0
 21 26  1  0
 25 26  2  0
 18 27  1  0
 15 28  1  0
 27 28  1  0
M  END
