DRA-CSI-47e38074-3
     RDKit          3D

 17 18  0  0  0  0  0  0  0  0999 V2000
    5.3780   -0.5650   18.3760 C   0  0  0  0  0  0  0  0  0  0  0  0
    5.7960   -1.9250   18.3320 O   0  0  0  0  0  0  0  0  0  0  0  0
    5.7110   -2.5970   19.5090 C   0  0  0  0  0  0  0  0  0  0  0  0
    5.3080   -3.7680   19.5220 O   0  0  0  0  0  0  0  0  0  0  0  0
    6.1030   -2.0140   20.6820 N   0  0  0  0  0  0  0  0  0  0  0  0
    7.3010   -1.2440   20.8380 C   0  0  0  0  0  0  0  0  0  0  0  0
    8.1370   -1.5110   21.9300 C   0  0  0  0  0  0  0  0  0  0  0  0
    7.4810   -1.7900   23.1250 C   0  0  0  0  0  0  0  0  0  0  0  0
    8.2050   -2.2070   24.1830 C   0  0  0  0  0  0  0  0  0  0  0  0
    7.5050   -3.3180   24.6730 C   0  0  0  0  0  0  0  0  0  0  0  0
    7.6010   -4.6130   23.7420 C   0  0  0  0  0  0  0  0  0  0  0  0
    6.8030   -5.6730   24.4020 C   0  0  0  0  0  0  0  0  0  0  0  0
    6.1510   -5.4440   25.6390 C   0  0  0  0  0  0  0  0  0  0  0  0
    6.0110   -4.4010   26.5400 C   0  0  0  0  0  0  0  0  0  0  0  0
    6.7350   -3.2570   25.9810 C   0  0  0  0  0  0  0  0  0  0  0  0
    6.4130   -2.6580   22.9490 C   0  0  0  0  0  0  0  0  0  0  0  0
    5.3910   -2.3280   21.9140 C   0  0  0  0  0  0  0  0  0  0  0  0
  1  2  1  0
  2  3  1  0
  3  4  2  0
  3  5  1  0
  5  6  1  0
  6  7  1  0
  7  8  1  0
  8  9  1  0
  9 10  1  0
 10 11  2  0
 11 12  1  0
 12 13  2  0
 13 14  1  0
 10 15  1  0
 14 15  2  0
  8 16  1  0
  5 17  1  0
 16 17  1  0
M  END
