DRA-CSI-47e38074-9
     RDKit          3D

 24 26  0  0  0  0  0  0  0  0999 V2000
    5.4600   -0.5920   24.7770 O   0  0  0  0  0  0  0  0  0  0  0  0
    5.3800   -0.5870   23.3600 C   0  0  0  0  0  0  0  0  0  0  0  0
    4.5780    0.2950   22.6750 N   0  0  0  0  0  0  0  0  0  0  0  0
    4.8520    0.5820   21.2950 C   0  0  0  0  0  0  0  0  0  0  0  0
    4.8530    1.9310   20.8980 C   0  0  0  0  0  0  0  0  0  0  0  0
    5.1170    2.1910   19.5690 C   0  0  0  0  0  0  0  0  0  0  0  0
    5.3740    1.2090   18.6490 C   0  0  0  0  0  0  0  0  0  0  0  0
    5.6250    1.5730   17.3990 F   0  0  0  0  0  0  0  0  0  0  0  0
    5.3790   -0.1320   19.0020 C   0  0  0  0  0  0  0  0  0  0  0  0
    5.6950   -1.3880   17.8850 Cl  0  0  0  0  0  0  0  0  0  0  0  0
    5.1020   -0.4630   20.3940 C   0  0  0  0  0  0  0  0  0  0  0  0
    6.0810   -1.4570   22.5250 N   0  0  0  0  0  0  0  0  0  0  0  0
    6.2040   -2.7940   22.7710 C   0  0  0  0  0  0  0  0  0  0  0  0
    7.5260   -3.1800   23.2260 C   0  0  0  0  0  0  0  0  0  0  0  0
    8.3720   -2.1510   23.3430 C   0  0  0  0  0  0  0  0  0  0  0  0
    9.7520   -2.6140   23.5230 C   0  0  0  0  0  0  0  0  0  0  0  0
   10.6980   -1.6110   23.3300 C   0  0  0  0  0  0  0  0  0  0  0  0
   10.3380   -0.1350   23.2100 C   0  0  0  0  0  0  0  0  0  0  0  0
   11.2930    0.8450   23.0070 C   0  0  0  0  0  0  0  0  0  0  0  0
   12.7530    0.4630   22.9110 C   0  0  0  0  0  0  0  0  0  0  0  0
   13.0340   -1.0280   23.0410 C   0  0  0  0  0  0  0  0  0  0  0  0
   12.0310   -1.9690   23.2370 C   0  0  0  0  0  0  0  0  0  0  0  0
    8.3850   -1.4020   21.9960 C   0  0  0  0  0  0  0  0  0  0  0  0
    7.1310   -0.8940   21.6650 C   0  0  0  0  0  0  0  0  0  0  0  0
  1  2  2  0
  2  3  1  0
  3  4  1  0
  4  5  2  0
  5  6  1  0
  6  7  2  0
  7  8  1  0
  7  9  1  0
  9 10  1  0
  4 11  1  0
  9 11  2  0
  2 12  1  0
 12 13  1  0
 13 14  1  0
 14 15  1  0
 15 16  1  0
 16 17  1  0
 17 18  2  0
 18 19  1  0
 19 20  2  0
 20 21  1  0
 17 22  1  0
 21 22  2  0
 15 23  1  0
 12 24  1  0
 23 24  1  0
M  END
