DRA-CSI-0a78d9ba-6
     RDKit          3D

 35 39  0  0  0  0  0  0  0  0999 V2000
    2.7460   -2.9530    7.1850 C   0  0  0  0  0  0  0  0  0  0  0  0
    3.6250   -2.1230    8.6520 O   0  0  0  0  0  0  0  0  0  0  0  0
    4.1790   -2.3010   10.1610 C   0  0  0  0  0  0  0  0  0  0  0  0
    3.5800   -2.1750   11.2770 C   0  0  0  0  0  0  0  0  0  0  0  0
    4.1440   -2.3020   12.6420 C   0  0  0  0  0  0  0  0  0  0  0  0
    5.6520   -2.6430   13.0490 C   0  0  0  0  0  0  0  0  0  0  0  0
    6.1160   -2.6280   14.8160 C   0  0  0  0  0  0  0  0  0  0  0  0
    5.8910   -1.4280   15.9970 N   0  0  0  0  0  0  0  0  0  0  0  0
    6.0010   -1.4720   17.1980 C   0  0  0  0  0  0  0  0  0  0  0  0
    5.6970   -0.4050   18.2410 C   0  0  0  0  0  0  0  0  0  0  0  0
    5.8640   -0.6740   19.5210 C   0  0  0  0  0  0  0  0  0  0  0  0
    6.3850   -2.1170   19.6210 C   0  0  0  0  0  0  0  0  0  0  0  0
    6.6440   -2.7190   20.7050 N   0  0  0  0  0  0  0  0  0  0  0  0
    5.7100   -3.0360   21.7300 C   0  0  0  0  0  0  0  0  0  0  0  0
    4.6110   -3.5960   21.7800 O   0  0  0  0  0  0  0  0  0  0  0  0
    6.4800   -2.4950   22.7970 C   0  0  0  0  0  0  0  0  0  0  0  0
    6.1990   -2.6120   24.0700 C   0  0  0  0  0  0  0  0  0  0  0  0
    7.4220   -2.8120   24.6460 C   0  0  0  0  0  0  0  0  0  0  0  0
    8.4050   -2.0480   23.9630 N   0  0  0  0  0  0  0  0  0  0  0  0
    9.6410   -2.5980   23.5590 C   0  0  0  0  0  0  0  0  0  0  0  0
   10.5910   -1.6130   23.3660 C   0  0  0  0  0  0  0  0  0  0  0  0
   10.1730   -0.2760   23.2820 C   0  0  0  0  0  0  0  0  0  0  0  0
   10.9320    0.8640   23.0880 C   0  0  0  0  0  0  0  0  0  0  0  0
   12.3280    0.8340   22.9450 C   0  0  0  0  0  0  0  0  0  0  0  0
   13.0730    2.1490   22.7460 C   0  0  0  0  0  0  0  0  0  0  0  0
   12.9960   -0.5300   23.0030 C   0  0  0  0  0  0  0  0  0  0  0  0
   12.0200   -1.6650   23.2150 C   0  0  0  0  0  0  0  0  0  0  0  0
    8.0350   -0.8420   23.1710 C   0  0  0  0  0  0  0  0  0  0  0  0
    6.8630   -1.0760   22.4910 C   0  0  0  0  0  0  0  0  0  0  0  0
    6.6430   -2.9740   18.5710 C   0  0  0  0  0  0  0  0  0  0  0  0
    6.4230   -2.6340   17.3430 C   0  0  0  0  0  0  0  0  0  0  0  0
    6.6020   -3.3560   15.9540 O   0  0  0  0  0  0  0  0  0  0  0  0
    6.1290   -2.7090   11.6380 C   0  0  0  0  0  0  0  0  0  0  0  0
    7.5640   -2.9120   10.3730 Br  0  0  0  0  0  0  0  0  0  0  0  0
    5.4680   -2.5710   10.5250 C   0  0  0  0  0  0  0  0  0  0  0  0
  1  2  1  0
  2  3  1  0
  3  4  2  0
  4  5  1  0
  5  6  2  0
  6  7  1  0
  7  8  2  0
  8  9  1  0
  9 10  2  0
 10 11  1  0
 11 12  2  0
 12 13  1  0
 13 14  1  0
 14 15  2  0
 14 16  1  0
 16 17  1  0
 17 18  1  0
 18 19  1  0
 19 20  1  0
 20 21  1  0
 21 22  2  0
 22 23  1  0
 23 24  2  0
 24 25  1  0
 24 26  1  0
 21 27  1  0
 26 27  2  0
 19 28  1  0
 16 29  1  0
 28 29  1  0
 12 30  1  0
  9 31  1  0
 30 31  2  0
  7 32  1  0
 31 32  1  0
  6 33  1  0
 33 34  1  0
  3 35  1  0
 33 35  2  0
M  END
