DRA-CSI-0a78d9ba-4
     RDKit          3D

 37 41  0  0  0  0  0  0  0  0999 V2000
   -3.4150    3.5360   29.1760 C   0  0  0  0  0  0  0  0  0  0  0  0
   -3.9520    3.0090   27.9680 O   0  0  0  0  0  0  0  0  0  0  0  0
   -3.0790    2.8020   26.9380 C   0  0  0  0  0  0  0  0  0  0  0  0
   -3.4880    2.1950   25.7400 C   0  0  0  0  0  0  0  0  0  0  0  0
   -2.6030    1.9770   24.6760 C   0  0  0  0  0  0  0  0  0  0  0  0
   -1.2730    2.3650   24.7860 C   0  0  0  0  0  0  0  0  0  0  0  0
   -0.3750    2.1560   23.7430 C   0  0  0  0  0  0  0  0  0  0  0  0
   -0.4410    2.6210   22.4920 N   0  0  0  0  0  0  0  0  0  0  0  0
    0.6920    2.0880   21.9770 C   0  0  0  0  0  0  0  0  0  0  0  0
    1.3920    2.0380   20.8320 C   0  0  0  0  0  0  0  0  0  0  0  0
    2.5250    1.5040   20.3110 C   0  0  0  0  0  0  0  0  0  0  0  0
    3.2160    0.7430   21.2700 C   0  0  0  0  0  0  0  0  0  0  0  0
    4.4520    0.1030   20.8440 N   0  0  0  0  0  0  0  0  0  0  0  0
    5.6170    0.3580   21.5630 C   0  0  0  0  0  0  0  0  0  0  0  0
    6.0790    1.4760   21.7560 O   0  0  0  0  0  0  0  0  0  0  0  0
    6.5240   -0.6780   22.2270 C   0  0  0  0  0  0  0  0  0  0  0  0
    5.7560   -1.9940   22.3590 C   0  0  0  0  0  0  0  0  0  0  0  0
    6.5990   -2.9760   22.8930 C   0  0  0  0  0  0  0  0  0  0  0  0
    7.9730   -2.4600   23.0340 N   0  0  0  0  0  0  0  0  0  0  0  0
    8.3680   -1.9780   24.3670 C   0  0  0  0  0  0  0  0  0  0  0  0
    9.6040   -1.4800   24.0820 C   0  0  0  0  0  0  0  0  0  0  0  0
   10.1770   -0.2980   24.5260 C   0  0  0  0  0  0  0  0  0  0  0  0
   11.5580    0.0440   24.0460 C   0  0  0  0  0  0  0  0  0  0  0  0
   12.1550   -0.9840   23.1130 C   0  0  0  0  0  0  0  0  0  0  0  0
   13.3520   -0.8510   22.6190 C   0  0  0  0  0  0  0  0  0  0  0  0
   13.4580   -1.0400   21.2780 F   0  0  0  0  0  0  0  0  0  0  0  0
   13.8970    0.3120   22.9330 F   0  0  0  0  0  0  0  0  0  0  0  0
   13.9880   -1.8890   23.1850 F   0  0  0  0  0  0  0  0  0  0  0  0
   11.5690   -2.1210   22.7070 C   0  0  0  0  0  0  0  0  0  0  0  0
   10.3380   -2.4280   23.1350 C   0  0  0  0  0  0  0  0  0  0  0  0
    8.5890   -1.7210   21.8840 C   0  0  0  0  0  0  0  0  0  0  0  0
    7.6450   -0.9350   21.2360 C   0  0  0  0  0  0  0  0  0  0  0  0
    2.6850    0.6300   22.6000 C   0  0  0  0  0  0  0  0  0  0  0  0
    1.3480    1.3610   22.9120 C   0  0  0  0  0  0  0  0  0  0  0  0
    0.6040    1.4380   24.0530 O   0  0  0  0  0  0  0  0  0  0  0  0
   -0.8490    2.9710   25.9710 C   0  0  0  0  0  0  0  0  0  0  0  0
   -1.7360    3.1860   27.0300 C   0  0  0  0  0  0  0  0  0  0  0  0
  1  2  1  0
  2  3  1  0
  3  4  2  0
  4  5  1  0
  5  6  2  0
  6  7  1  0
  7  8  2  0
  8  9  1  0
  9 10  2  0
 10 11  1  0
 11 12  2  0
 12 13  1  0
 13 14  1  0
 14 15  2  0
 14 16  1  0
 16 17  1  0
 17 18  1  0
 18 19  1  0
 19 20  1  0
 20 21  1  0
 21 22  2  0
 22 23  1  0
 23 24  2  0
 24 25  1  0
 25 26  1  0
 25 27  1  0
 25 28  1  0
 24 29  1  0
 21 30  1  0
 29 30  2  0
 19 31  1  0
 16 32  1  0
 31 32  1  0
 12 33  1  0
  9 34  1  0
 33 34  2  0
  7 35  1  0
 34 35  1  0
  6 36  1  0
  3 37  1  0
 36 37  2  0
M  END
