DRA-CSI-0a78d9ba-11
     RDKit          3D

 37 41  0  0  0  0  0  0  0  0999 V2000
   19.0100   16.7760   27.3770 C   0  0  0  0  0  0  0  0  0  0  0  0
   17.6990   17.3230   27.4680 O   0  0  0  0  0  0  0  0  0  0  0  0
   16.6560   16.4870   27.1840 C   0  0  0  0  0  0  0  0  0  0  0  0
   16.4930   15.0710   27.6880 C   0  0  0  0  0  0  0  0  0  0  0  0
   15.3320   14.3440   27.2880 C   0  0  0  0  0  0  0  0  0  0  0  0
   14.3560   14.8840   26.4620 C   0  0  0  0  0  0  0  0  0  0  0  0
   13.2710   13.9980   26.1760 C   0  0  0  0  0  0  0  0  0  0  0  0
   12.0280   14.2720   25.6580 N   0  0  0  0  0  0  0  0  0  0  0  0
   11.2910   13.1570   25.5400 C   0  0  0  0  0  0  0  0  0  0  0  0
   10.0080   12.8910   25.0890 C   0  0  0  0  0  0  0  0  0  0  0  0
    9.5020   11.4450   25.1100 C   0  0  0  0  0  0  0  0  0  0  0  0
   10.4840   10.4080   25.6370 C   0  0  0  0  0  0  0  0  0  0  0  0
   10.1850    9.0340   25.7210 N   0  0  0  0  0  0  0  0  0  0  0  0
   11.0760    7.9710   25.6530 C   0  0  0  0  0  0  0  0  0  0  0  0
   12.1570    7.8830   26.2260 O   0  0  0  0  0  0  0  0  0  0  0  0
   10.5930    6.8550   24.8050 C   0  0  0  0  0  0  0  0  0  0  0  0
   11.3010    6.4820   23.6530 C   0  0  0  0  0  0  0  0  0  0  0  0
   11.2520    5.1390   23.2530 C   0  0  0  0  0  0  0  0  0  0  0  0
    9.9210    4.5490   23.4890 N   0  0  0  0  0  0  0  0  0  0  0  0
    9.7730    3.2000   22.8710 C   0  0  0  0  0  0  0  0  0  0  0  0
   11.0210    2.5930   22.6690 C   0  0  0  0  0  0  0  0  0  0  0  0
   11.9720    3.2280   22.2240 O   0  0  0  0  0  0  0  0  0  0  0  0
   11.2200    1.2490   22.9790 C   0  0  0  0  0  0  0  0  0  0  0  0
   12.5510    0.8420   23.0320 C   0  0  0  0  0  0  0  0  0  0  0  0
   12.8290   -0.5960   23.4180 C   0  0  0  0  0  0  0  0  0  0  0  0
   11.8060   -1.4470   23.7040 C   0  0  0  0  0  0  0  0  0  0  0  0
   12.1980   -3.0100   24.1730 Cl  0  0  0  0  0  0  0  0  0  0  0  0
   10.4850   -1.0770   23.6380 C   0  0  0  0  0  0  0  0  0  0  0  0
   10.1720    0.3610   23.2500 C   0  0  0  0  0  0  0  0  0  0  0  0
    9.6040    4.5230   24.9290 C   0  0  0  0  0  0  0  0  0  0  0  0
   10.3950    5.6050   25.6600 C   0  0  0  0  0  0  0  0  0  0  0  0
   11.7670   10.7790   26.0730 C   0  0  0  0  0  0  0  0  0  0  0  0
   12.1200   12.1230   26.0100 C   0  0  0  0  0  0  0  0  0  0  0  0
   13.3530   12.6500   26.4060 O   0  0  0  0  0  0  0  0  0  0  0  0
   14.5210   16.2090   25.9980 C   0  0  0  0  0  0  0  0  0  0  0  0
   13.2570   17.0670   24.8590 Br  0  0  0  0  0  0  0  0  0  0  0  0
   15.6470   16.9920   26.3530 C   0  0  0  0  0  0  0  0  0  0  0  0
  1  2  1  0
  2  3  1  0
  3  4  2  0
  4  5  1  0
  5  6  2  0
  6  7  1  0
  7  8  2  0
  8  9  1  0
  9 10  2  0
 10 11  1  0
 11 12  2  0
 12 13  1  0
 13 14  1  0
 14 15  2  0
 14 16  1  0
 16 17  1  0
 17 18  1  0
 18 19  1  0
 19 20  1  0
 20 21  1  0
 21 22  2  0
 21 23  1  0
 23 24  2  0
 24 25  1  0
 25 26  2  0
 26 27  1  0
 26 28  1  0
 23 29  1  0
 28 29  2  0
 19 30  1  0
 16 31  1  0
 30 31  1  0
 12 32  1  0
  9 33  1  0
 32 33  2  0
  7 34  1  0
 33 34  1  0
  6 35  1  0
 35 36  1  0
  3 37  1  0
 35 37  2  0
M  END
