DRA-CSI-47e38074-10
     RDKit          3D

 20 22  0  0  0  0  0  0  0  0999 V2000
    7.3750   -1.5690   26.3620 O   0  0  0  0  0  0  0  0  0  0  0  0
    6.4770   -2.0990   25.4270 C   0  0  0  0  0  0  0  0  0  0  0  0
    5.1160   -2.2660   26.0180 C   0  0  0  0  0  0  0  0  0  0  0  0
    4.8680   -3.1930   27.0530 C   0  0  0  0  0  0  0  0  0  0  0  0
    3.5510   -3.0690   27.3350 C   0  0  0  0  0  0  0  0  0  0  0  0
    2.9230   -2.1710   26.6020 N   0  0  0  0  0  0  0  0  0  0  0  0
    3.8610   -1.6330   25.7540 C   0  0  0  0  0  0  0  0  0  0  0  0
    6.6630   -2.4770   24.1000 N   0  0  0  0  0  0  0  0  0  0  0  0
    7.9490   -2.5460   23.6300 C   0  0  0  0  0  0  0  0  0  0  0  0
    8.1720   -1.6350   22.4840 C   0  0  0  0  0  0  0  0  0  0  0  0
    7.0500   -1.1430   21.8890 C   0  0  0  0  0  0  0  0  0  0  0  0
    7.2590   -0.6290   20.5470 C   0  0  0  0  0  0  0  0  0  0  0  0
    6.2380    0.0660   20.0420 C   0  0  0  0  0  0  0  0  0  0  0  0
    6.3890    0.6540   18.6720 C   0  0  0  0  0  0  0  0  0  0  0  0
    5.3430    1.3970   18.0860 C   0  0  0  0  0  0  0  0  0  0  0  0
    4.0620    1.5860   18.8910 C   0  0  0  0  0  0  0  0  0  0  0  0
    3.9150    1.0560   20.1360 C   0  0  0  0  0  0  0  0  0  0  0  0
    5.0290    0.2610   20.7600 C   0  0  0  0  0  0  0  0  0  0  0  0
    6.0180   -2.2960   21.8430 C   0  0  0  0  0  0  0  0  0  0  0  0
    5.5460   -2.5820   23.1150 C   0  0  0  0  0  0  0  0  0  0  0  0
  1  2  2  0
  2  3  1  0
  3  4  1  0
  4  5  2  0
  5  6  1  0
  3  7  2  0
  6  7  1  0
  2  8  1  0
  8  9  1  0
  9 10  1  0
 10 11  1  0
 11 12  1  0
 12 13  1  0
 13 14  2  0
 14 15  1  0
 15 16  2  0
 16 17  1  0
 13 18  1  0
 17 18  2  0
 11 19  1  0
  8 20  1  0
 19 20  1  0
M  END
