DRA-CSI-3ab97369-12
     RDKit          3D

 35 39  0  0  0  0  0  0  0  0999 V2000
    9.0570    7.0140   22.4200 C   0  0  0  0  0  0  0  0  0  0  0  0
    9.8120    6.9020   23.7470 C   0  0  0  0  0  0  0  0  0  0  0  0
   11.0590    6.2710   23.7310 C   0  0  0  0  0  0  0  0  0  0  0  0
   11.1490    4.9210   24.0950 C   0  0  0  0  0  0  0  0  0  0  0  0
   10.1220    4.0370   23.7630 C   0  0  0  0  0  0  0  0  0  0  0  0
   10.0990    3.3960   22.5570 C   0  0  0  0  0  0  0  0  0  0  0  0
    9.0860    2.5080   22.1830 C   0  0  0  0  0  0  0  0  0  0  0  0
    7.9820    2.1680   22.9850 C   0  0  0  0  0  0  0  0  0  0  0  0
    6.7920    1.4490   23.1640 C   0  0  0  0  0  0  0  0  0  0  0  0
    6.9700    0.5740   24.3160 N   0  0  0  0  0  0  0  0  0  0  0  0
    6.5330   -0.7550   24.2100 C   0  0  0  0  0  0  0  0  0  0  0  0
    6.7820   -1.5860   25.3110 C   0  0  0  0  0  0  0  0  0  0  0  0
    6.3150   -3.0430   25.2310 C   0  0  0  0  0  0  0  0  0  0  0  0
    5.6190   -3.4390   23.9340 C   0  0  0  0  0  0  0  0  0  0  0  0
    5.1180   -4.7310   23.6890 C   0  0  0  0  0  0  0  0  0  0  0  0
    4.0250   -5.2210   24.0980 C   0  0  0  0  0  0  0  0  0  0  0  0
    5.0720   -5.6650   23.3230 C   0  0  0  0  0  0  0  0  0  0  0  0
    6.2540   -4.7490   23.0940 C   0  0  0  0  0  0  0  0  0  0  0  0
    7.6190   -4.8430   22.3130 N   0  0  0  0  0  0  0  0  0  0  0  0
    8.0960   -3.6860   22.6390 C   0  0  0  0  0  0  0  0  0  0  0  0
    9.0980   -2.5500   22.6930 C   0  0  0  0  0  0  0  0  0  0  0  0
    8.8240   -1.4390   21.9160 C   0  0  0  0  0  0  0  0  0  0  0  0
    9.7820   -0.2650   21.9490 C   0  0  0  0  0  0  0  0  0  0  0  0
   10.9100   -0.3440   22.7560 C   0  0  0  0  0  0  0  0  0  0  0  0
   11.8630    0.6210   22.8920 O   0  0  0  0  0  0  0  0  0  0  0  0
   13.2070    0.1880   22.8740 C   0  0  0  0  0  0  0  0  0  0  0  0
   11.1380   -1.4960   23.5180 C   0  0  0  0  0  0  0  0  0  0  0  0
   10.2510   -2.5750   23.4880 C   0  0  0  0  0  0  0  0  0  0  0  0
    7.0140   -3.9380   23.0700 O   0  0  0  0  0  0  0  0  0  0  0  0
    6.7410   -5.3970   22.5310 C   0  0  0  0  0  0  0  0  0  0  0  0
    5.6640   -5.9040   22.8820 C   0  0  0  0  0  0  0  0  0  0  0  0
    5.4870   -2.4330   22.9740 C   0  0  0  0  0  0  0  0  0  0  0  0
    5.9110   -1.1590   23.0870 N   0  0  0  0  0  0  0  0  0  0  0  0
    8.0610    2.8650   24.2300 C   0  0  0  0  0  0  0  0  0  0  0  0
    9.0720    3.7570   24.6130 C   0  0  0  0  0  0  0  0  0  0  0  0
  1  2  1  0
  2  3  1  0
  3  4  1  0
  4  5  1  0
  5  6  2  0
  6  7  1  0
  7  8  2  0
  8  9  1  0
  9 10  1  0
 10 11  1  0
 11 12  2  0
 12 13  1  0
 13 14  2  0
 14 15  1  0
 15 16  2  0
 16 17  1  0
 17 18  2  0
 18 19  1  0
 19 20  2  0
 20 21  1  0
 21 22  2  0
 22 23  1  0
 23 24  2  0
 24 25  1  0
 25 26  1  0
 24 27  1  0
 21 28  1  0
 27 28  2  0
 20 29  1  0
 18 30  1  0
 29 30  1  0
 15 31  1  0
 30 31  2  0
 14 32  1  0
 11 33  1  0
 32 33  2  0
  8 34  1  0
  5 35  1  0
 34 35  2  0
M  END
