DRA-CSI-3ab97369-3
     RDKit          3D

 38 42  0  0  0  0  0  0  0  0999 V2000
    7.4780   -3.9240   24.1710 C   0  0  0  0  0  0  0  0  0  0  0  0
    7.8270   -4.6910   23.0170 O   0  0  0  0  0  0  0  0  0  0  0  0
    6.8430   -5.2720   22.4080 C   0  0  0  0  0  0  0  0  0  0  0  0
    6.9770   -3.8990   22.1030 C   0  0  0  0  0  0  0  0  0  0  0  0
    6.1140   -3.2440   21.1970 C   0  0  0  0  0  0  0  0  0  0  0  0
    5.3680   -4.4620   20.9490 C   0  0  0  0  0  0  0  0  0  0  0  0
    5.1970   -3.0970   20.2470 C   0  0  0  0  0  0  0  0  0  0  0  0
    6.2840   -2.5380   20.3340 N   0  0  0  0  0  0  0  0  0  0  0  0
    5.5640   -1.7390   19.8230 C   0  0  0  0  0  0  0  0  0  0  0  0
    6.8860   -1.4980   20.1490 C   0  0  0  0  0  0  0  0  0  0  0  0
    7.3700   -0.4080   19.9530 C   0  0  0  0  0  0  0  0  0  0  0  0
    7.1400    0.6280   19.5310 C   0  0  0  0  0  0  0  0  0  0  0  0
    8.2520    1.4480   19.6440 N   0  0  0  0  0  0  0  0  0  0  0  0
    9.1570    1.1740   20.6850 C   0  0  0  0  0  0  0  0  0  0  0  0
   10.1150    0.4290   20.6570 O   0  0  0  0  0  0  0  0  0  0  0  0
    8.8370    1.8600   21.8750 C   0  0  0  0  0  0  0  0  0  0  0  0
    7.4370    2.4310   21.8630 C   0  0  0  0  0  0  0  0  0  0  0  0
    7.1730    3.3170   20.6410 C   0  0  0  0  0  0  0  0  0  0  0  0
    8.4720    3.7980   20.0040 N   0  0  0  0  0  0  0  0  0  0  0  0
    8.2890    5.0660   18.8660 S   0  0  0  0  0  0  0  0  0  0  0  0
    7.5540    6.1340   19.5020 O   0  0  0  0  0  0  0  0  0  0  0  0
    9.5750    5.3160   18.2310 O   0  0  0  0  0  0  0  0  0  0  0  0
    7.2430    4.4070   17.5500 C   0  0  0  0  0  0  0  0  0  0  0  0
    7.2340    5.0830   16.3450 C   0  0  0  0  0  0  0  0  0  0  0  0
    6.4010    4.6370   15.1420 C   0  0  0  0  0  0  0  0  0  0  0  0
    5.5490    3.3650   15.3330 C   0  0  0  0  0  0  0  0  0  0  0  0
    4.7030    2.8470   14.2290 N   0  0  0  0  0  0  0  0  0  0  0  0
    4.2470    1.6890   14.3540 O   0  0  0  0  0  0  0  0  0  0  0  0
    4.1860    3.6880   13.4660 O   0  0  0  0  0  0  0  0  0  0  0  0
    5.5900    2.6530   16.7140 C   0  0  0  0  0  0  0  0  0  0  0  0
    6.4860    3.2710   17.7890 C   0  0  0  0  0  0  0  0  0  0  0  0
    9.5840    4.0950   20.9540 C   0  0  0  0  0  0  0  0  0  0  0  0
    9.7510    3.0430   22.0450 C   0  0  0  0  0  0  0  0  0  0  0  0
    5.8390    0.5770   19.1010 C   0  0  0  0  0  0  0  0  0  0  0  0
    4.9650   -0.6540   19.2460 C   0  0  0  0  0  0  0  0  0  0  0  0
    4.2970   -2.0680   19.5250 O   0  0  0  0  0  0  0  0  0  0  0  0
    4.6050   -5.4280   20.6030 C   0  0  0  0  0  0  0  0  0  0  0  0
    5.6090   -6.0010   21.6450 C   0  0  0  0  0  0  0  0  0  0  0  0
  1  2  1  0
  2  3  1  0
  3  4  2  0
  4  5  1  0
  5  6  2  0
  6  7  1  0
  7  8  2  0
  8  9  1  0
  9 10  2  0
 10 11  1  0
 11 12  2  0
 12 13  1  0
 13 14  1  0
 14 15  2  0
 14 16  1  0
 16 17  1  0
 17 18  1  0
 18 19  1  0
 19 20  1  0
 20 21  2  0
 20 22  2  0
 20 23  1  0
 23 24  2  0
 24 25  1  0
 25 26  2  0
 26 27  1  0
 27 28  2  0
 27 29  1  0
 26 30  1  0
 23 31  1  0
 30 31  2  0
 19 32  1  0
 16 33  1  0
 32 33  1  0
 12 34  1  0
  9 35  1  0
 34 35  2  0
  7 36  1  0
 35 36  1  0
  6 37  1  0
  3 38  1  0
 37 38  2  0
M  CHG  2  27   1  29  -1
M  END
