DRA-CSI-47e38074-2
     RDKit          3D

 16 17  0  0  0  0  0  0  0  0999 V2000
    6.4410   -2.1570   18.3730 C   0  0  0  0  0  0  0  0  0  0  0  0
    5.9420   -2.7180   19.6260 C   0  0  0  0  0  0  0  0  0  0  0  0
    5.4230   -3.8470   19.6540 O   0  0  0  0  0  0  0  0  0  0  0  0
    6.0730   -2.0090   20.6800 N   0  0  0  0  0  0  0  0  0  0  0  0
    7.1670   -1.0430   20.7360 C   0  0  0  0  0  0  0  0  0  0  0  0
    8.0970   -1.3860   21.8480 C   0  0  0  0  0  0  0  0  0  0  0  0
    7.5080   -1.7000   23.0510 C   0  0  0  0  0  0  0  0  0  0  0  0
    8.2520   -2.3040   24.1400 C   0  0  0  0  0  0  0  0  0  0  0  0
    7.5740   -3.3450   24.5990 C   0  0  0  0  0  0  0  0  0  0  0  0
    7.5820   -4.6180   23.8350 C   0  0  0  0  0  0  0  0  0  0  0  0
    6.7830   -5.5730   24.5560 C   0  0  0  0  0  0  0  0  0  0  0  0
    6.0320   -5.5000   25.8400 C   0  0  0  0  0  0  0  0  0  0  0  0
    6.0020   -4.2030   26.6850 C   0  0  0  0  0  0  0  0  0  0  0  0
    6.8210   -3.2420   25.8640 C   0  0  0  0  0  0  0  0  0  0  0  0
    6.3950   -2.6690   22.7580 C   0  0  0  0  0  0  0  0  0  0  0  0
    5.3950   -2.3030   21.9130 C   0  0  0  0  0  0  0  0  0  0  0  0
  1  2  1  0
  2  3  2  0
  2  4  1  0
  4  5  1  0
  5  6  1  0
  6  7  1  0
  7  8  1  0
  8  9  1  0
  9 10  2  0
 10 11  1  0
 11 12  2  0
 12 13  1  0
  9 14  1  0
 13 14  2  0
  7 15  1  0
  4 16  1  0
 15 16  1  0
M  END
