DRA-CSI-3ab97369-17
     RDKit          3D

 19 21  0  0  0  0  0  0  0  0999 V2000
    5.9050    0.3800   18.2990 Br  0  0  0  0  0  0  0  0  0  0  0  0
    6.1200   -1.1980   19.3520 C   0  0  0  0  0  0  0  0  0  0  0  0
    5.3870   -2.4670   19.2540 C   0  0  0  0  0  0  0  0  0  0  0  0
    5.5100   -3.6190   20.0450 C   0  0  0  0  0  0  0  0  0  0  0  0
    6.5240   -2.9970   20.8170 C   0  0  0  0  0  0  0  0  0  0  0  0
    7.0660   -3.6040   21.8300 C   0  0  0  0  0  0  0  0  0  0  0  0
    7.7070   -4.4720   22.5710 N   0  0  0  0  0  0  0  0  0  0  0  0
    7.4870   -3.6120   23.9570 N   0  0  0  0  0  0  0  0  0  0  0  0
    6.7260   -2.3580   23.7730 C   0  0  0  0  0  0  0  0  0  0  0  0
    6.5950   -1.6870   24.9400 N   0  0  0  0  0  0  0  0  0  0  0  0
    6.5110   -2.3180   26.1460 C   0  0  0  0  0  0  0  0  0  0  0  0
    5.0430   -2.3450   26.4680 C   0  0  0  0  0  0  0  0  0  0  0  0
    4.6940   -3.3750   27.5310 C   0  0  0  0  0  0  0  0  0  0  0  0
    3.2070   -3.4070   27.8750 C   0  0  0  0  0  0  0  0  0  0  0  0
    2.1890   -2.5010   27.2160 C   0  0  0  0  0  0  0  0  0  0  0  0
    2.7140   -1.5230   26.1620 C   0  0  0  0  0  0  0  0  0  0  0  0
    4.0960   -1.5060   25.8580 C   0  0  0  0  0  0  0  0  0  0  0  0
    7.3300   -3.5840   23.2810 S   0  0  0  0  0  0  0  0  0  0  0  0
    7.1650   -1.3990   20.5730 S   0  0  0  0  0  0  0  0  0  0  0  0
  1  2  1  0
  2  3  2  0
  3  4  1  0
  4  5  2  0
  5  6  1  0
  6  7  2  0
  7  8  1  0
  8  9  2  0
  9 10  1  0
 10 11  1  0
 11 12  1  0
 12 13  2  0
 13 14  1  0
 14 15  2  0
 15 16  1  0
 12 17  1  0
 16 17  2  0
  6 18  1  0
  9 18  1  0
  2 19  1  0
  5 19  1  0
M  END
