DRA-CSI-7ec17797-11
     RDKit          3D

 32 35  0  0  0  0  0  0  0  0999 V2000
    6.8200   -1.7990   29.1220 C   0  0  0  0  0  0  0  0  0  0  0  0
    5.6500   -2.5390   29.1350 N   0  0  0  0  0  0  0  0  0  0  0  0
    4.6260   -2.3310   30.0810 C   0  0  0  0  0  0  0  0  0  0  0  0
    5.5570   -3.5080   28.0900 C   0  0  0  0  0  0  0  0  0  0  0  0
    6.0140   -3.1550   26.8600 N   0  0  0  0  0  0  0  0  0  0  0  0
    5.9900   -4.0140   25.6960 C   0  0  0  0  0  0  0  0  0  0  0  0
    6.5210   -3.4660   24.5350 N   0  0  0  0  0  0  0  0  0  0  0  0
    7.3610   -2.2750   24.6190 C   0  0  0  0  0  0  0  0  0  0  0  0
    7.6380   -1.6230   25.6010 O   0  0  0  0  0  0  0  0  0  0  0  0
    7.7720   -1.9450   23.3390 C   0  0  0  0  0  0  0  0  0  0  0  0
    7.4100   -0.6510   22.9420 C   0  0  0  0  0  0  0  0  0  0  0  0
    7.6780   -0.3880   21.4550 C   0  0  0  0  0  0  0  0  0  0  0  0
    7.9930   -1.5910   20.9760 N   0  0  0  0  0  0  0  0  0  0  0  0
    6.8760   -2.3280   20.5740 C   0  0  0  0  0  0  0  0  0  0  0  0
    7.2960   -3.2290   21.2830 O   0  0  0  0  0  0  0  0  0  0  0  0
    6.6170   -1.0670   19.8040 C   0  0  0  0  0  0  0  0  0  0  0  0
    7.0570   -0.0620   18.7380 C   0  0  0  0  0  0  0  0  0  0  0  0
    6.1750    1.1370   18.4580 C   0  0  0  0  0  0  0  0  0  0  0  0
    4.8990    1.1770   19.3260 C   0  0  0  0  0  0  0  0  0  0  0  0
    3.9900    2.3100   19.1340 N   0  0  0  0  0  0  0  0  0  0  0  0
    3.9670    2.8820   18.0560 O   0  0  0  0  0  0  0  0  0  0  0  0
    3.2260    2.6910   20.2270 O   0  0  0  0  0  0  0  0  0  0  0  0
    4.5550    0.1980   20.2910 C   0  0  0  0  0  0  0  0  0  0  0  0
    5.4340   -0.8930   20.4920 C   0  0  0  0  0  0  0  0  0  0  0  0
    9.1720   -2.0550   21.5570 C   0  0  0  0  0  0  0  0  0  0  0  0
    9.1020   -2.2760   23.0490 C   0  0  0  0  0  0  0  0  0  0  0  0
    5.5220   -5.2710   25.6270 N   0  0  0  0  0  0  0  0  0  0  0  0
    5.0630   -5.6330   26.8640 C   0  0  0  0  0  0  0  0  0  0  0  0
    4.5230   -6.7980   27.2200 N   0  0  0  0  0  0  0  0  0  0  0  0
    4.1880   -6.7840   28.5430 C   0  0  0  0  0  0  0  0  0  0  0  0
    4.4740   -5.6270   29.1410 N   0  0  0  0  0  0  0  0  0  0  0  0
    5.0370   -4.8230   28.1600 C   0  0  0  0  0  0  0  0  0  0  0  0
  1  2  1  0
  2  3  1  0
  2  4  1  0
  4  5  2  0
  5  6  1  0
  6  7  1  0
  7  8  1  0
  8  9  2  0
  8 10  1  0
 10 11  1  0
 11 12  1  0
 12 13  1  0
 13 14  1  0
 14 15  2  0
 14 16  1  0
 16 17  2  0
 17 18  1  0
 18 19  2  0
 19 20  1  0
 20 21  2  0
 20 22  1  0
 19 23  1  0
 16 24  1  0
 23 24  2  0
 13 25  1  0
 10 26  1  0
 25 26  1  0
  6 27  2  0
 27 28  1  0
 28 29  1  0
 29 30  1  0
 30 31  2  0
  4 32  1  0
 28 32  2  0
 31 32  1  0
M  CHG  2  20   1  22  -1
M  END
