DRA-CSI-7ec17797-8
     RDKit          3D

 32 35  0  0  0  0  0  0  0  0999 V2000
    7.3000   -4.7810   23.9780 O   0  0  0  0  0  0  0  0  0  0  0  0
    7.4220   -3.5660   23.8330 C   0  0  0  0  0  0  0  0  0  0  0  0
    7.4610   -2.6220   24.8260 N   0  0  0  0  0  0  0  0  0  0  0  0
    8.0740   -1.4620   24.3900 C   0  0  0  0  0  0  0  0  0  0  0  0
    7.7260   -0.1950   24.2780 N   0  0  0  0  0  0  0  0  0  0  0  0
    8.8250    0.4310   23.7000 N   0  0  0  0  0  0  0  0  0  0  0  0
    9.6830   -0.5570   23.5430 C   0  0  0  0  0  0  0  0  0  0  0  0
   10.9470   -0.6780   23.0030 C   0  0  0  0  0  0  0  0  0  0  0  0
   11.1790   -1.8420   22.2850 C   0  0  0  0  0  0  0  0  0  0  0  0
   12.3730   -2.0510   21.6890 C   0  0  0  0  0  0  0  0  0  0  0  0
   13.3410   -1.1110   21.8090 C   0  0  0  0  0  0  0  0  0  0  0  0
   13.1490    0.1200   22.5680 C   0  0  0  0  0  0  0  0  0  0  0  0
   11.8500    0.3080   23.1820 N   0  0  0  0  0  0  0  0  0  0  0  0
    9.1900   -1.7290   23.9990 O   0  0  0  0  0  0  0  0  0  0  0  0
    7.5360   -2.9240   22.4510 C   0  0  0  0  0  0  0  0  0  0  0  0
    6.4870   -1.7960   22.5290 C   0  0  0  0  0  0  0  0  0  0  0  0
    6.8550   -0.6380   21.8740 C   0  0  0  0  0  0  0  0  0  0  0  0
    7.8390   -0.9920   20.8900 N   0  0  0  0  0  0  0  0  0  0  0  0
    7.3990   -1.6070   19.6160 C   0  0  0  0  0  0  0  0  0  0  0  0
    6.6080   -2.0240   18.7570 O   0  0  0  0  0  0  0  0  0  0  0  0
    6.1940   -1.2690   20.2000 C   0  0  0  0  0  0  0  0  0  0  0  0
    6.5780   -0.1580   19.1600 C   0  0  0  0  0  0  0  0  0  0  0  0
    5.9060    0.9970   18.8270 C   0  0  0  0  0  0  0  0  0  0  0  0
    4.7470    1.3130   19.4220 C   0  0  0  0  0  0  0  0  0  0  0  0
    4.0270    2.4530   19.1600 C   0  0  0  0  0  0  0  0  0  0  0  0
    4.3870    3.4870   19.9720 F   0  0  0  0  0  0  0  0  0  0  0  0
    2.6850    2.3090   19.3530 F   0  0  0  0  0  0  0  0  0  0  0  0
    4.2170    2.8470   17.9020 F   0  0  0  0  0  0  0  0  0  0  0  0
    4.2910    0.4460   20.3230 C   0  0  0  0  0  0  0  0  0  0  0  0
    4.9650   -0.7130   20.6540 C   0  0  0  0  0  0  0  0  0  0  0  0
    9.0560   -1.3700   21.5990 C   0  0  0  0  0  0  0  0  0  0  0  0
    8.8920   -2.6510   22.0930 C   0  0  0  0  0  0  0  0  0  0  0  0
  1  2  2  0
  2  3  1  0
  3  4  1  0
  4  5  2  0
  5  6  1  0
  6  7  2  0
  7  8  1  0
  8  9  2  0
  9 10  1  0
 10 11  2  0
 11 12  1  0
  8 13  1  0
 12 13  2  0
  4 14  1  0
  7 14  1  0
  2 15  1  0
 15 16  1  0
 16 17  1  0
 17 18  1  0
 18 19  1  0
 19 20  2  0
 19 21  1  0
 21 22  2  0
 22 23  1  0
 23 24  2  0
 24 25  1  0
 25 26  1  0
 25 27  1  0
 25 28  1  0
 24 29  1  0
 21 30  1  0
 29 30  2  0
 18 31  1  0
 15 32  1  0
 31 32  1  0
M  END
