DRA-CSI-47e38074-6
     RDKit          3D

 24 26  0  0  0  0  0  0  0  0999 V2000
    2.8420    5.2320   21.9710 C   0  0  0  0  0  0  0  0  0  0  0  0
    3.5460    4.8550   20.7960 O   0  0  0  0  0  0  0  0  0  0  0  0
    3.7980    3.5280   20.6400 C   0  0  0  0  0  0  0  0  0  0  0  0
    3.6800    2.7510   19.4740 C   0  0  0  0  0  0  0  0  0  0  0  0
    3.9700    1.3780   19.4880 C   0  0  0  0  0  0  0  0  0  0  0  0
    4.3830    0.7730   20.6720 C   0  0  0  0  0  0  0  0  0  0  0  0
    4.6930   -0.5820   20.8570 N   0  0  0  0  0  0  0  0  0  0  0  0
    5.4210   -1.4390   20.0820 C   0  0  0  0  0  0  0  0  0  0  0  0
    5.1590   -1.8200   18.9480 O   0  0  0  0  0  0  0  0  0  0  0  0
    6.5430   -1.8500   20.7560 N   0  0  0  0  0  0  0  0  0  0  0  0
    6.3220   -2.7770   21.8860 C   0  0  0  0  0  0  0  0  0  0  0  0
    7.3230   -2.5280   22.7640 C   0  0  0  0  0  0  0  0  0  0  0  0
    8.3860   -1.7450   23.0800 C   0  0  0  0  0  0  0  0  0  0  0  0
    9.4730   -2.1920   23.7960 C   0  0  0  0  0  0  0  0  0  0  0  0
   10.6570   -1.5440   23.5160 C   0  0  0  0  0  0  0  0  0  0  0  0
   10.4520   -0.0590   23.3220 C   0  0  0  0  0  0  0  0  0  0  0  0
   11.7250    0.7210   23.0040 C   0  0  0  0  0  0  0  0  0  0  0  0
   12.9530    0.0880   22.9130 C   0  0  0  0  0  0  0  0  0  0  0  0
   13.0340   -1.2910   23.1100 C   0  0  0  0  0  0  0  0  0  0  0  0
   11.9270   -2.0900   23.4030 C   0  0  0  0  0  0  0  0  0  0  0  0
    8.8870   -1.3370   21.7010 C   0  0  0  0  0  0  0  0  0  0  0  0
    7.7220   -0.9600   20.7820 C   0  0  0  0  0  0  0  0  0  0  0  0
    4.5090    1.5430   21.8260 C   0  0  0  0  0  0  0  0  0  0  0  0
    4.2220    2.8950   21.8130 C   0  0  0  0  0  0  0  0  0  0  0  0
  1  2  1  0
  2  3  1  0
  3  4  2  0
  4  5  1  0
  5  6  2  0
  6  7  1  0
  7  8  1  0
  8  9  2  0
  8 10  1  0
 10 11  1  0
 11 12  1  0
 12 13  1  0
 13 14  1  0
 14 15  1  0
 15 16  2  0
 16 17  1  0
 17 18  2  0
 18 19  1  0
 15 20  1  0
 19 20  2  0
 13 21  1  0
 10 22  1  0
 21 22  1  0
  6 23  1  0
  3 24  1  0
 23 24  2  0
M  END
