DRA-CSI-3ab97369-8
     RDKit          3D

 32 36  0  0  0  0  0  0  0  0999 V2000
   -1.5840    1.4840   27.4520 C   0  0  0  0  0  0  0  0  0  0  0  0
   -0.5230    1.1410   28.3380 O   0  0  0  0  0  0  0  0  0  0  0  0
    0.3440    0.1830   27.8950 C   0  0  0  0  0  0  0  0  0  0  0  0
    1.1430   -0.6410   28.6950 C   0  0  0  0  0  0  0  0  0  0  0  0
    1.9870   -1.5810   28.0990 C   0  0  0  0  0  0  0  0  0  0  0  0
    2.0380   -1.7030   26.7100 C   0  0  0  0  0  0  0  0  0  0  0  0
    3.0010   -2.7620   26.1250 C   0  0  0  0  0  0  0  0  0  0  0  0
    3.8810   -2.6170   25.1710 N   0  0  0  0  0  0  0  0  0  0  0  0
    4.5470   -3.8370   24.8610 C   0  0  0  0  0  0  0  0  0  0  0  0
    4.8510   -5.5270   25.0840 C   0  0  0  0  0  0  0  0  0  0  0  0
    5.6650   -5.2980   24.0720 C   0  0  0  0  0  0  0  0  0  0  0  0
    5.2410   -4.1820   24.1520 C   0  0  0  0  0  0  0  0  0  0  0  0
    6.0910   -3.8400   23.0440 C   0  0  0  0  0  0  0  0  0  0  0  0
    5.9200   -4.4880   21.9630 C   0  0  0  0  0  0  0  0  0  0  0  0
    6.7920   -3.4740   22.3480 C   0  0  0  0  0  0  0  0  0  0  0  0
    6.7580   -2.7930   23.7530 C   0  0  0  0  0  0  0  0  0  0  0  0
    5.9820   -2.8790   24.9390 N   0  0  0  0  0  0  0  0  0  0  0  0
    6.3020   -2.4930   26.2330 C   0  0  0  0  0  0  0  0  0  0  0  0
    6.7480   -3.3260   26.9970 O   0  0  0  0  0  0  0  0  0  0  0  0
    6.0820   -1.0960   26.8420 C   0  0  0  0  0  0  0  0  0  0  0  0
    6.7050   -0.7990   28.0630 C   0  0  0  0  0  0  0  0  0  0  0  0
    6.5270    0.4520   28.6610 C   0  0  0  0  0  0  0  0  0  0  0  0
    5.7230    1.4070   28.0370 C   0  0  0  0  0  0  0  0  0  0  0  0
    5.1030    1.1190   26.8210 C   0  0  0  0  0  0  0  0  0  0  0  0
    5.2790   -0.1310   26.2190 C   0  0  0  0  0  0  0  0  0  0  0  0
    7.6790   -2.0310   23.5860 N   0  0  0  0  0  0  0  0  0  0  0  0
    7.2460   -2.8830   22.6760 C   0  0  0  0  0  0  0  0  0  0  0  0
    4.7140   -5.3910   25.1590 C   0  0  0  0  0  0  0  0  0  0  0  0
    3.9660   -4.4360   25.6710 C   0  0  0  0  0  0  0  0  0  0  0  0
    3.0160   -4.0330   26.5640 O   0  0  0  0  0  0  0  0  0  0  0  0
    1.2400   -0.8800   25.9130 C   0  0  0  0  0  0  0  0  0  0  0  0
    0.4000    0.0560   26.5070 C   0  0  0  0  0  0  0  0  0  0  0  0
  1  2  1  0
  2  3  1  0
  3  4  2  0
  4  5  1  0
  5  6  2  0
  6  7  1  0
  7  8  2  0
  8  9  1  0
  9 10  2  0
 10 11  1  0
 11 12  2  0
 12 13  1  0
 13 14  2  0
 14 15  1  0
 15 16  2  0
 16 17  1  0
 17 18  1  0
 18 19  2  0
 18 20  1  0
 20 21  2  0
 21 22  1  0
 22 23  2  0
 23 24  1  0
 20 25  1  0
 24 25  2  0
 16 26  1  0
 13 27  1  0
 26 27  2  0
 12 28  1  0
  9 29  1  0
 28 29  2  0
  7 30  1  0
 29 30  1  0
  6 31  1  0
  3 32  1  0
 31 32  2  0
M  END
