DRA-CSI-3ab97369-4
     RDKit          3D

 37 41  0  0  0  0  0  0  0  0999 V2000
    7.9060   -2.7390   18.2550 C   0  0  0  0  0  0  0  0  0  0  0  0
    6.5540   -3.1560   18.1510 O   0  0  0  0  0  0  0  0  0  0  0  0
    6.0520   -2.0730   18.6060 C   0  0  0  0  0  0  0  0  0  0  0  0
    5.7180   -1.0450   17.8020 C   0  0  0  0  0  0  0  0  0  0  0  0
    5.2910    0.0580   18.2530 C   0  0  0  0  0  0  0  0  0  0  0  0
    5.1900    0.1900   19.5400 C   0  0  0  0  0  0  0  0  0  0  0  0
    4.8720    1.3740   19.8740 C   0  0  0  0  0  0  0  0  0  0  0  0
    5.6190    1.9930   20.5180 N   0  0  0  0  0  0  0  0  0  0  0  0
    4.4320    2.0760   19.9160 C   0  0  0  0  0  0  0  0  0  0  0  0
    4.5460    0.6820   19.3610 C   0  0  0  0  0  0  0  0  0  0  0  0
    5.8140    0.4410   19.9460 C   0  0  0  0  0  0  0  0  0  0  0  0
    6.6710    1.0920   20.7080 C   0  0  0  0  0  0  0  0  0  0  0  0
    7.8740    0.3780   21.0760 N   0  0  0  0  0  0  0  0  0  0  0  0
    8.7910    1.3570   21.5800 C   0  0  0  0  0  0  0  0  0  0  0  0
    9.1450    2.3440   20.9850 O   0  0  0  0  0  0  0  0  0  0  0  0
    9.3290    1.1200   22.9410 C   0  0  0  0  0  0  0  0  0  0  0  0
   10.7050    1.7840   22.7830 C   0  0  0  0  0  0  0  0  0  0  0  0
   11.7460    0.8370   22.8180 C   0  0  0  0  0  0  0  0  0  0  0  0
   11.3940   -0.4750   22.8870 N   0  0  0  0  0  0  0  0  0  0  0  0
   10.8560   -1.3610   21.6210 S   0  0  0  0  0  0  0  0  0  0  0  0
    9.7520   -0.6660   21.0380 O   0  0  0  0  0  0  0  0  0  0  0  0
   12.0090   -1.9240   20.9320 O   0  0  0  0  0  0  0  0  0  0  0  0
   10.2870   -2.5440   22.7840 C   0  0  0  0  0  0  0  0  0  0  0  0
   11.4240   -2.4870   23.5370 C   0  0  0  0  0  0  0  0  0  0  0  0
   12.2360   -1.3880   23.2880 C   0  0  0  0  0  0  0  0  0  0  0  0
   13.4750   -1.2370   24.0370 C   0  0  0  0  0  0  0  0  0  0  0  0
   13.8630   -2.1630   24.9670 C   0  0  0  0  0  0  0  0  0  0  0  0
   12.9950   -3.2780   25.1750 C   0  0  0  0  0  0  0  0  0  0  0  0
   11.8060   -3.4000   24.4690 C   0  0  0  0  0  0  0  0  0  0  0  0
   10.3820   -0.8550   23.8420 C   0  0  0  0  0  0  0  0  0  0  0  0
    9.1970   -0.3580   23.3760 C   0  0  0  0  0  0  0  0  0  0  0  0
    6.2400    2.4800   21.0780 C   0  0  0  0  0  0  0  0  0  0  0  0
    4.8090    3.0370   20.5430 C   0  0  0  0  0  0  0  0  0  0  0  0
    3.8200    2.4550   19.7590 O   0  0  0  0  0  0  0  0  0  0  0  0
    5.4900   -0.8450   20.4640 C   0  0  0  0  0  0  0  0  0  0  0  0
    5.4260   -0.8020   22.3700 Br  0  0  0  0  0  0  0  0  0  0  0  0
    5.9280   -2.0130   19.9560 C   0  0  0  0  0  0  0  0  0  0  0  0
  1  2  1  0
  2  3  1  0
  3  4  2  0
  4  5  1  0
  5  6  2  0
  6  7  1  0
  7  8  2  0
  8  9  1  0
  9 10  2  0
 10 11  1  0
 11 12  2  0
 12 13  1  0
 13 14  1  0
 14 15  2  0
 14 16  1  0
 16 17  1  0
 17 18  1  0
 18 19  1  0
 19 20  1  0
 20 21  2  0
 20 22  2  0
 20 23  1  0
 23 24  1  0
 24 25  2  0
 25 26  1  0
 26 27  2  0
 27 28  1  0
 24 29  1  0
 28 29  2  0
 19 30  1  0
 16 31  1  0
 30 31  1  0
 12 32  1  0
  9 33  1  0
 32 33  2  0
  7 34  1  0
 33 34  1  0
  6 35  1  0
 35 36  1  0
  3 37  1  0
 35 37  2  0
M  END
