DRA-CSI-3ab97369-1
     RDKit          3D

 35 39  0  0  0  0  0  0  0  0999 V2000
   -3.2300    4.4060   18.7730 C   0  0  0  0  0  0  0  0  0  0  0  0
   -2.1650    5.0470   19.4620 O   0  0  0  0  0  0  0  0  0  0  0  0
   -0.9380    4.4350   19.4360 C   0  0  0  0  0  0  0  0  0  0  0  0
   -0.6950    3.3600   20.1990 C   0  0  0  0  0  0  0  0  0  0  0  0
    0.5930    2.5890   20.2700 C   0  0  0  0  0  0  0  0  0  0  0  0
    1.6800    3.1490   19.3570 C   0  0  0  0  0  0  0  0  0  0  0  0
    3.0000    2.4060   19.3940 C   0  0  0  0  0  0  0  0  0  0  0  0
    3.8050    2.1720   18.2290 N   0  0  0  0  0  0  0  0  0  0  0  0
    4.8250    1.5040   18.6780 C   0  0  0  0  0  0  0  0  0  0  0  0
    5.9960    0.9790   17.8960 C   0  0  0  0  0  0  0  0  0  0  0  0
    6.9910    0.3080   18.4780 C   0  0  0  0  0  0  0  0  0  0  0  0
    6.7980    0.1530   19.9800 C   0  0  0  0  0  0  0  0  0  0  0  0
    7.6930   -0.4600   20.6550 N   0  0  0  0  0  0  0  0  0  0  0  0
    8.8280    0.1350   21.2880 C   0  0  0  0  0  0  0  0  0  0  0  0
    9.2180    1.3100   21.3000 O   0  0  0  0  0  0  0  0  0  0  0  0
    9.4050   -1.0550   21.8950 C   0  0  0  0  0  0  0  0  0  0  0  0
   10.6090   -1.0380   22.5850 C   0  0  0  0  0  0  0  0  0  0  0  0
   10.4390   -0.8030   23.9110 C   0  0  0  0  0  0  0  0  0  0  0  0
    9.4010   -1.6250   24.3070 N   0  0  0  0  0  0  0  0  0  0  0  0
    9.4880   -3.1610   23.6020 S   0  0  0  0  0  0  0  0  0  0  0  0
   10.5660   -3.7660   24.3230 O   0  0  0  0  0  0  0  0  0  0  0  0
    9.6270   -3.0790   22.1710 O   0  0  0  0  0  0  0  0  0  0  0  0
    7.8580   -3.8670   23.8890 C   0  0  0  0  0  0  0  0  0  0  0  0
    6.9890   -3.2480   24.7710 C   0  0  0  0  0  0  0  0  0  0  0  0
    5.7200   -3.7780   25.0110 C   0  0  0  0  0  0  0  0  0  0  0  0
    5.2010   -4.9260   24.4260 C   0  0  0  0  0  0  0  0  0  0  0  0
    6.0310   -5.6250   23.5020 C   0  0  0  0  0  0  0  0  0  0  0  0
    7.4220   -5.0390   23.2440 C   0  0  0  0  0  0  0  0  0  0  0  0
    8.2120   -1.1150   24.0240 C   0  0  0  0  0  0  0  0  0  0  0  0
    8.1340   -1.5500   22.6170 C   0  0  0  0  0  0  0  0  0  0  0  0
    5.7070    0.6300   20.7300 C   0  0  0  0  0  0  0  0  0  0  0  0
    4.7280    1.3100   20.0300 C   0  0  0  0  0  0  0  0  0  0  0  0
    3.5610    1.8780   20.5270 O   0  0  0  0  0  0  0  0  0  0  0  0
    1.3840    4.2740   18.5780 C   0  0  0  0  0  0  0  0  0  0  0  0
    0.1170    4.8960   18.6160 C   0  0  0  0  0  0  0  0  0  0  0  0
  1  2  1  0
  2  3  1  0
  3  4  2  0
  4  5  1  0
  5  6  2  0
  6  7  1  0
  7  8  2  0
  8  9  1  0
  9 10  2  0
 10 11  1  0
 11 12  2  0
 12 13  1  0
 13 14  1  0
 14 15  2  0
 14 16  1  0
 16 17  1  0
 17 18  1  0
 18 19  1  0
 19 20  1  0
 20 21  2  0
 20 22  2  0
 20 23  1  0
 23 24  2  0
 24 25  1  0
 25 26  2  0
 26 27  1  0
 23 28  1  0
 27 28  2  0
 19 29  1  0
 16 30  1  0
 29 30  1  0
 12 31  1  0
  9 32  1  0
 31 32  2  0
  7 33  1  0
 32 33  1  0
  6 34  1  0
  3 35  1  0
 34 35  2  0
M  END
