DRA-CSI-7ec17797-2
     RDKit          3D

 38 42  0  0  0  0  0  0  0  0999 V2000
    6.8660    5.4530   36.1500 C   0  0  0  0  0  0  0  0  0  0  0  0
    7.7620    5.9850   35.1820 O   0  0  0  0  0  0  0  0  0  0  0  0
    7.8250    5.3540   33.9640 C   0  0  0  0  0  0  0  0  0  0  0  0
    8.9480    5.0420   33.3150 C   0  0  0  0  0  0  0  0  0  0  0  0
    9.0120    4.3510   31.9810 C   0  0  0  0  0  0  0  0  0  0  0  0
    7.6360    4.0140   31.3910 C   0  0  0  0  0  0  0  0  0  0  0  0
    7.6970    3.3170   30.0410 C   0  0  0  0  0  0  0  0  0  0  0  0
    7.2280    3.8860   28.8190 N   0  0  0  0  0  0  0  0  0  0  0  0
    7.5140    2.9150   27.9170 C   0  0  0  0  0  0  0  0  0  0  0  0
    7.2660    2.9170   26.4060 C   0  0  0  0  0  0  0  0  0  0  0  0
    7.6040    1.8850   25.5820 C   0  0  0  0  0  0  0  0  0  0  0  0
    8.2690    0.6900   26.3240 C   0  0  0  0  0  0  0  0  0  0  0  0
    8.6720   -0.4090   25.6510 N   0  0  0  0  0  0  0  0  0  0  0  0
    9.8020   -0.5180   24.7170 C   0  0  0  0  0  0  0  0  0  0  0  0
   10.9940   -0.4900   25.0080 O   0  0  0  0  0  0  0  0  0  0  0  0
    9.3210   -0.6740   23.2900 C   0  0  0  0  0  0  0  0  0  0  0  0
    7.9640   -0.8820   23.0770 C   0  0  0  0  0  0  0  0  0  0  0  0
    7.6020   -2.2150   23.2250 C   0  0  0  0  0  0  0  0  0  0  0  0
    7.9010   -2.7910   22.0140 N   0  0  0  0  0  0  0  0  0  0  0  0
    6.7880   -2.8260   21.0940 C   0  0  0  0  0  0  0  0  0  0  0  0
    6.2460   -3.8910   20.7520 O   0  0  0  0  0  0  0  0  0  0  0  0
    6.2490   -1.6410   20.6250 C   0  0  0  0  0  0  0  0  0  0  0  0
    5.6010   -0.8010   21.5540 C   0  0  0  0  0  0  0  0  0  0  0  0
    4.9960    0.4190   21.2610 C   0  0  0  0  0  0  0  0  0  0  0  0
    4.9660    0.9560   19.9600 C   0  0  0  0  0  0  0  0  0  0  0  0
    4.2760    2.2960   19.7220 C   0  0  0  0  0  0  0  0  0  0  0  0
    2.9410    2.2680   20.0020 F   0  0  0  0  0  0  0  0  0  0  0  0
    4.7840    3.2920   20.5080 F   0  0  0  0  0  0  0  0  0  0  0  0
    4.3910    2.7120   18.4400 F   0  0  0  0  0  0  0  0  0  0  0  0
    5.6200    0.1900   18.8280 C   0  0  0  0  0  0  0  0  0  0  0  0
    6.2380   -1.1130   19.2800 C   0  0  0  0  0  0  0  0  0  0  0  0
    9.2160   -2.2360   21.5320 C   0  0  0  0  0  0  0  0  0  0  0  0
   10.0400   -1.8000   22.5780 C   0  0  0  0  0  0  0  0  0  0  0  0
    8.4990    0.6740   27.7400 C   0  0  0  0  0  0  0  0  0  0  0  0
    8.1110    1.8010   28.4950 C   0  0  0  0  0  0  0  0  0  0  0  0
    8.2470    2.0130   29.8720 O   0  0  0  0  0  0  0  0  0  0  0  0
    6.4900    4.3720   32.1320 C   0  0  0  0  0  0  0  0  0  0  0  0
    6.5900    5.0240   33.3810 C   0  0  0  0  0  0  0  0  0  0  0  0
  1  2  1  0
  2  3  1  0
  3  4  2  0
  4  5  1  0
  5  6  2  0
  6  7  1  0
  7  8  2  0
  8  9  1  0
  9 10  2  0
 10 11  1  0
 11 12  2  0
 12 13  1  0
 13 14  1  0
 14 15  2  0
 14 16  1  0
 16 17  1  0
 17 18  1  0
 18 19  1  0
 19 20  1  0
 20 21  2  0
 20 22  1  0
 22 23  2  0
 23 24  1  0
 24 25  2  0
 25 26  1  0
 26 27  1  0
 26 28  1  0
 26 29  1  0
 25 30  1  0
 22 31  1  0
 30 31  2  0
 19 32  1  0
 16 33  1  0
 32 33  1  0
 12 34  1  0
  9 35  1  0
 34 35  2  0
  7 36  1  0
 35 36  1  0
  6 37  1  0
  3 38  1  0
 37 38  2  0
M  END
