DRA-CSI-0a78d9ba-10
     RDKit          3D

 36 40  0  0  0  0  0  0  0  0999 V2000
    5.3360   -7.9070   32.4020 C   0  0  0  0  0  0  0  0  0  0  0  0
    4.3950   -8.0860   31.6400 O   0  0  0  0  0  0  0  0  0  0  0  0
    4.5040   -7.5350   30.3940 C   0  0  0  0  0  0  0  0  0  0  0  0
    5.6860   -7.0960   29.9620 C   0  0  0  0  0  0  0  0  0  0  0  0
    5.8250   -6.4790   28.6120 C   0  0  0  0  0  0  0  0  0  0  0  0
    4.5910   -6.3550   27.7260 C   0  0  0  0  0  0  0  0  0  0  0  0
    4.7600   -5.6840   26.3510 C   0  0  0  0  0  0  0  0  0  0  0  0
    4.7580   -4.3840   26.2270 N   0  0  0  0  0  0  0  0  0  0  0  0
    4.9130   -4.1550   24.9010 C   0  0  0  0  0  0  0  0  0  0  0  0
    4.9840   -2.8550   24.0890 C   0  0  0  0  0  0  0  0  0  0  0  0
    5.1470   -2.9250   22.7010 C   0  0  0  0  0  0  0  0  0  0  0  0
    5.2640   -4.2730   21.9310 C   0  0  0  0  0  0  0  0  0  0  0  0
    5.4260   -4.2950   20.5830 N   0  0  0  0  0  0  0  0  0  0  0  0
    5.8790   -3.0720   20.1990 C   0  0  0  0  0  0  0  0  0  0  0  0
    5.8940   -2.5530   19.0820 O   0  0  0  0  0  0  0  0  0  0  0  0
    6.3860   -2.3120   21.2470 C   0  0  0  0  0  0  0  0  0  0  0  0
    6.6680   -3.1480   22.3250 C   0  0  0  0  0  0  0  0  0  0  0  0
    7.6100   -2.7700   23.2130 C   0  0  0  0  0  0  0  0  0  0  0  0
    8.7500   -2.3850   22.7110 N   0  0  0  0  0  0  0  0  0  0  0  0
    9.7560   -2.1890   23.6820 C   0  0  0  0  0  0  0  0  0  0  0  0
   10.8480   -1.4240   23.3510 C   0  0  0  0  0  0  0  0  0  0  0  0
   10.3900    0.0290   23.3040 C   0  0  0  0  0  0  0  0  0  0  0  0
    9.0840    0.3070   23.5470 F   0  0  0  0  0  0  0  0  0  0  0  0
   11.4030    1.0700   22.9960 C   0  0  0  0  0  0  0  0  0  0  0  0
   12.7520    0.5020   22.7590 C   0  0  0  0  0  0  0  0  0  0  0  0
   13.0460   -0.9920   22.8190 C   0  0  0  0  0  0  0  0  0  0  0  0
   12.0560   -2.1590   23.1520 C   0  0  0  0  0  0  0  0  0  0  0  0
   13.2890   -2.6150   22.9190 F   0  0  0  0  0  0  0  0  0  0  0  0
    8.6100   -1.3280   21.8400 C   0  0  0  0  0  0  0  0  0  0  0  0
    7.5720   -1.4050   20.8710 C   0  0  0  0  0  0  0  0  0  0  0  0
    5.1990   -5.4840   22.6800 C   0  0  0  0  0  0  0  0  0  0  0  0
    5.0140   -5.3710   24.2240 C   0  0  0  0  0  0  0  0  0  0  0  0
    4.9160   -6.3780   25.1690 O   0  0  0  0  0  0  0  0  0  0  0  0
    3.3890   -6.8620   28.2770 C   0  0  0  0  0  0  0  0  0  0  0  0
    1.7130   -6.8280   27.3760 Br  0  0  0  0  0  0  0  0  0  0  0  0
    3.3770   -7.4270   29.5710 C   0  0  0  0  0  0  0  0  0  0  0  0
  1  2  1  0
  2  3  1  0
  3  4  2  0
  4  5  1  0
  5  6  2  0
  6  7  1  0
  7  8  2  0
  8  9  1  0
  9 10  2  0
 10 11  1  0
 11 12  2  0
 12 13  1  0
 13 14  1  0
 14 15  2  0
 14 16  1  0
 16 17  1  0
 17 18  1  0
 18 19  1  0
 19 20  1  0
 20 21  1  0
 21 22  2  0
 22 23  1  0
 22 24  1  0
 24 25  2  0
 25 26  1  0
 21 27  1  0
 26 27  2  0
 27 28  1  0
 19 29  1  0
 16 30  1  0
 29 30  1  0
 12 31  1  0
  9 32  1  0
 31 32  2  0
  7 33  1  0
 32 33  1  0
  6 34  1  0
 34 35  1  0
  3 36  1  0
 34 36  2  0
M  END
