DRA-CSI-7ec17797-7
     RDKit          3D

 29 32  0  0  0  0  0  0  0  0999 V2000
    9.0980    1.4880   21.1860 O   0  0  0  0  0  0  0  0  0  0  0  0
    8.4620    1.1800   22.1890 C   0  0  0  0  0  0  0  0  0  0  0  0
    7.6630    2.0850   22.9180 N   0  0  0  0  0  0  0  0  0  0  0  0
    6.9700    1.5340   24.1100 C   0  0  0  0  0  0  0  0  0  0  0  0
    6.3270    2.3310   25.1840 N   0  0  0  0  0  0  0  0  0  0  0  0
    5.8440    1.3720   26.0450 N   0  0  0  0  0  0  0  0  0  0  0  0
    6.1810    0.2050   25.5110 C   0  0  0  0  0  0  0  0  0  0  0  0
    5.9620   -1.1040   25.9580 C   0  0  0  0  0  0  0  0  0  0  0  0
    6.3520   -2.2000   25.1700 C   0  0  0  0  0  0  0  0  0  0  0  0
    6.1100   -3.5980   25.6600 C   0  0  0  0  0  0  0  0  0  0  0  0
    5.4390   -3.7440   27.0300 C   0  0  0  0  0  0  0  0  0  0  0  0
    5.1060   -2.4390   27.7060 C   0  0  0  0  0  0  0  0  0  0  0  0
    5.3580   -1.2150   27.1850 N   0  0  0  0  0  0  0  0  0  0  0  0
    6.8700    0.3280   24.3130 O   0  0  0  0  0  0  0  0  0  0  0  0
    8.4460   -0.2580   22.7340 C   0  0  0  0  0  0  0  0  0  0  0  0
    7.2890   -0.7870   22.3120 C   0  0  0  0  0  0  0  0  0  0  0  0
    7.2970   -1.6680   21.2520 C   0  0  0  0  0  0  0  0  0  0  0  0
    7.9780   -2.8190   21.7460 N   0  0  0  0  0  0  0  0  0  0  0  0
    7.2070   -4.0310   21.8600 C   0  0  0  0  0  0  0  0  0  0  0  0
    7.5230   -5.1290   21.4340 O   0  0  0  0  0  0  0  0  0  0  0  0
    5.9530   -4.1010   22.4770 C   0  0  0  0  0  0  0  0  0  0  0  0
    5.5210   -5.4390   22.6240 C   0  0  0  0  0  0  0  0  0  0  0  0
    4.3430   -5.7260   23.1880 C   0  0  0  0  0  0  0  0  0  0  0  0
    3.5770   -4.7000   23.6160 C   0  0  0  0  0  0  0  0  0  0  0  0
    2.3910   -4.9430   24.1900 F   0  0  0  0  0  0  0  0  0  0  0  0
    4.0310   -3.3880   23.4570 C   0  0  0  0  0  0  0  0  0  0  0  0
    5.3460   -2.8420   22.8340 C   0  0  0  0  0  0  0  0  0  0  0  0
    9.3390   -2.5110   22.2480 C   0  0  0  0  0  0  0  0  0  0  0  0
    9.6370   -1.1290   22.2580 C   0  0  0  0  0  0  0  0  0  0  0  0
  1  2  2  0
  2  3  1  0
  3  4  1  0
  4  5  2  0
  5  6  1  0
  6  7  2  0
  7  8  1  0
  8  9  2  0
  9 10  1  0
 10 11  2  0
 11 12  1  0
  8 13  1  0
 12 13  2  0
  4 14  1  0
  7 14  1  0
  2 15  1  0
 15 16  1  0
 16 17  1  0
 17 18  1  0
 18 19  1  0
 19 20  2  0
 19 21  1  0
 21 22  2  0
 22 23  1  0
 23 24  2  0
 24 25  1  0
 24 26  1  0
 21 27  1  0
 26 27  2  0
 18 28  1  0
 15 29  1  0
 28 29  1  0
M  END
