DRA-CSI-3ab97369-16
     RDKit          3D

 21 23  0  0  0  0  0  0  0  0999 V2000
    7.2830   -2.9310   26.7360 O   0  0  0  0  0  0  0  0  0  0  0  0
    6.4810   -2.3460   26.0190 C   0  0  0  0  0  0  0  0  0  0  0  0
    6.8100   -1.6240   24.8460 N   0  0  0  0  0  0  0  0  0  0  0  0
    6.9610   -2.2250   23.6450 C   0  0  0  0  0  0  0  0  0  0  0  0
    8.0590   -2.6810   23.1060 N   0  0  0  0  0  0  0  0  0  0  0  0
    7.8290   -3.1880   21.8560 N   0  0  0  0  0  0  0  0  0  0  0  0
    6.5420   -3.0870   21.5120 C   0  0  0  0  0  0  0  0  0  0  0  0
    5.9650   -3.5500   20.1730 C   0  0  0  0  0  0  0  0  0  0  0  0
    5.7070   -4.8510   20.4530 C   0  0  0  0  0  0  0  0  0  0  0  0
    6.3300   -3.9730   21.5370 C   0  0  0  0  0  0  0  0  0  0  0  0
    6.4690   -2.4430   20.7010 C   0  0  0  0  0  0  0  0  0  0  0  0
    7.1840   -0.7770   21.3680 Br  0  0  0  0  0  0  0  0  0  0  0  0
    5.8740   -2.4650   19.0440 S   0  0  0  0  0  0  0  0  0  0  0  0
    5.5330   -2.3780   22.7360 S   0  0  0  0  0  0  0  0  0  0  0  0
    5.0310   -2.3680   26.3920 C   0  0  0  0  0  0  0  0  0  0  0  0
    4.6270   -3.3900   27.4270 C   0  0  0  0  0  0  0  0  0  0  0  0
    3.3070   -3.4230   27.7890 C   0  0  0  0  0  0  0  0  0  0  0  0
    2.3720   -2.5430   27.2150 C   0  0  0  0  0  0  0  0  0  0  0  0
    1.0940   -2.6180   27.6050 F   0  0  0  0  0  0  0  0  0  0  0  0
    2.7380   -1.6000   26.2570 C   0  0  0  0  0  0  0  0  0  0  0  0
    4.0590   -1.5090   25.8460 C   0  0  0  0  0  0  0  0  0  0  0  0
  1  2  2  0
  2  3  1  0
  3  4  1  0
  4  5  2  0
  5  6  1  0
  6  7  2  0
  7  8  1  0
  8  9  2  0
  9 10  1  0
 10 11  2  0
 11 12  1  0
  8 13  1  0
 11 13  1  0
  4 14  1  0
  7 14  1  0
  2 15  1  0
 15 16  2  0
 16 17  1  0
 17 18  2  0
 18 19  1  0
 18 20  1  0
 15 21  1  0
 20 21  2  0
M  END
