DRA-CSI-7ec17797-9
     RDKit          3D

 32 35  0  0  0  0  0  0  0  0999 V2000
    4.9210    1.4380   18.0340 C   0  0  0  0  0  0  0  0  0  0  0  0
    5.7140    1.0430   19.0870 N   0  0  0  0  0  0  0  0  0  0  0  0
    6.8870    0.2830   18.9180 C   0  0  0  0  0  0  0  0  0  0  0  0
    5.1690    1.3660   20.4180 C   0  0  0  0  0  0  0  0  0  0  0  0
    5.7680    0.8280   21.5060 N   0  0  0  0  0  0  0  0  0  0  0  0
    5.3380    1.0710   22.7680 C   0  0  0  0  0  0  0  0  0  0  0  0
    6.0650    0.4270   23.7070 N   0  0  0  0  0  0  0  0  0  0  0  0
    7.4320    0.2350   23.7170 C   0  0  0  0  0  0  0  0  0  0  0  0
    8.2580    1.1050   23.4640 O   0  0  0  0  0  0  0  0  0  0  0  0
    7.8060   -1.0830   24.0690 C   0  0  0  0  0  0  0  0  0  0  0  0
    6.9410   -2.1340   23.8100 C   0  0  0  0  0  0  0  0  0  0  0  0
    7.5180   -3.3480   23.3280 C   0  0  0  0  0  0  0  0  0  0  0  0
    8.2130   -2.9800   22.1490 N   0  0  0  0  0  0  0  0  0  0  0  0
    7.4030   -2.6980   21.0480 C   0  0  0  0  0  0  0  0  0  0  0  0
    6.6650   -2.1000   19.9860 O   0  0  0  0  0  0  0  0  0  0  0  0
    7.8190   -1.2390   21.3090 C   0  0  0  0  0  0  0  0  0  0  0  0
    8.5210   -0.0440   21.6260 C   0  0  0  0  0  0  0  0  0  0  0  0
    9.9380    0.3560   22.0710 C   0  0  0  0  0  0  0  0  0  0  0  0
   10.8920   -0.5790   22.2390 C   0  0  0  0  0  0  0  0  0  0  0  0
   12.1870   -0.2790   22.6430 N   0  0  0  0  0  0  0  0  0  0  0  0
   12.4190    0.9260   22.8390 O   0  0  0  0  0  0  0  0  0  0  0  0
   13.0610   -1.1070   22.3440 O   0  0  0  0  0  0  0  0  0  0  0  0
   10.4130   -1.9490   21.9450 C   0  0  0  0  0  0  0  0  0  0  0  0
    9.0750   -2.2130   21.5450 C   0  0  0  0  0  0  0  0  0  0  0  0
    9.4040   -2.1600   22.4580 C   0  0  0  0  0  0  0  0  0  0  0  0
    9.2710   -1.4320   23.6650 C   0  0  0  0  0  0  0  0  0  0  0  0
    4.3030    1.8570   23.1020 N   0  0  0  0  0  0  0  0  0  0  0  0
    3.7140    2.3820   22.0190 C   0  0  0  0  0  0  0  0  0  0  0  0
    2.6320    3.2160   22.0150 N   0  0  0  0  0  0  0  0  0  0  0  0
    2.3500    3.5140   20.7140 C   0  0  0  0  0  0  0  0  0  0  0  0
    3.1830    2.9250   19.8860 N   0  0  0  0  0  0  0  0  0  0  0  0
    4.0550    2.2040   20.6870 C   0  0  0  0  0  0  0  0  0  0  0  0
  1  2  1  0
  2  3  1  0
  2  4  1  0
  4  5  2  0
  5  6  1  0
  6  7  1  0
  7  8  1  0
  8  9  2  0
  8 10  1  0
 10 11  1  0
 11 12  1  0
 12 13  1  0
 13 14  1  0
 14 15  2  0
 14 16  1  0
 16 17  2  0
 17 18  1  0
 18 19  2  0
 19 20  1  0
 20 21  2  0
 20 22  1  0
 19 23  1  0
 16 24  1  0
 23 24  2  0
 13 25  1  0
 10 26  1  0
 25 26  1  0
  6 27  2  0
 27 28  1  0
 28 29  1  0
 29 30  1  0
 30 31  2  0
  4 32  1  0
 28 32  2  0
 31 32  1  0
M  CHG  2  20   1  22  -1
M  END
