DRA-CSI-47e38074-8
     RDKit          3D

 25 27  0  0  0  0  0  0  0  0999 V2000
    2.5850   -8.0380   25.3170 C   0  0  0  0  0  0  0  0  0  0  0  0
    2.9530   -6.6730   25.4910 O   0  0  0  0  0  0  0  0  0  0  0  0
    3.5970   -6.0790   24.4440 C   0  0  0  0  0  0  0  0  0  0  0  0
    3.3970   -4.7050   23.9470 C   0  0  0  0  0  0  0  0  0  0  0  0
    4.1430   -4.2630   22.8630 C   0  0  0  0  0  0  0  0  0  0  0  0
    5.0730   -5.1040   22.2390 C   0  0  0  0  0  0  0  0  0  0  0  0
    5.8710   -4.6220   21.0560 C   0  0  0  0  0  0  0  0  0  0  0  0
    5.3430   -3.7260   20.1750 N   0  0  0  0  0  0  0  0  0  0  0  0
    5.9510   -2.5260   19.9970 C   0  0  0  0  0  0  0  0  0  0  0  0
    6.0320   -1.8590   18.6830 N   0  0  0  0  0  0  0  0  0  0  0  0
    6.4840   -1.9890   21.1050 N   0  0  0  0  0  0  0  0  0  0  0  0
    6.1010   -2.4500   22.3450 C   0  0  0  0  0  0  0  0  0  0  0  0
    7.3450   -2.7130   23.1900 C   0  0  0  0  0  0  0  0  0  0  0  0
    8.4240   -1.8200   23.1200 C   0  0  0  0  0  0  0  0  0  0  0  0
    9.7890   -2.3840   23.4600 C   0  0  0  0  0  0  0  0  0  0  0  0
   10.7800   -1.4910   23.2060 C   0  0  0  0  0  0  0  0  0  0  0  0
   12.1440   -1.9840   22.7520 C   0  0  0  0  0  0  0  0  0  0  0  0
   13.1430   -1.0700   22.4970 C   0  0  0  0  0  0  0  0  0  0  0  0
   12.8390    0.4130   22.6910 C   0  0  0  0  0  0  0  0  0  0  0  0
   11.5760    0.8100   23.0950 C   0  0  0  0  0  0  0  0  0  0  0  0
   10.5690   -0.1170   23.3490 C   0  0  0  0  0  0  0  0  0  0  0  0
    8.5320   -1.1230   21.7180 C   0  0  0  0  0  0  0  0  0  0  0  0
    7.2880   -0.8110   21.1230 C   0  0  0  0  0  0  0  0  0  0  0  0
    5.2630   -6.4020   22.7100 C   0  0  0  0  0  0  0  0  0  0  0  0
    4.5290   -6.8790   23.8030 C   0  0  0  0  0  0  0  0  0  0  0  0
  1  2  1  0
  2  3  1  0
  3  4  2  0
  4  5  1  0
  5  6  2  0
  6  7  1  0
  7  8  1  0
  8  9  1  0
  9 10  2  3
  9 11  1  0
 11 12  1  0
 12 13  1  0
 13 14  1  0
 14 15  1  0
 15 16  1  0
 16 17  2  0
 17 18  1  0
 18 19  2  0
 19 20  1  0
 16 21  1  0
 20 21  2  0
 14 22  1  0
 11 23  1  0
 22 23  1  0
  6 24  1  0
  3 25  1  0
 24 25  2  0
M  END
