DRA-CSI-3ab97369-11
     RDKit          3D

 35 39  0  0  0  0  0  0  0  0999 V2000
    4.5070    2.3640   18.3050 C   0  0  0  0  0  0  0  0  0  0  0  0
    5.7540    1.8530   18.7390 O   0  0  0  0  0  0  0  0  0  0  0  0
    5.6980    0.5640   19.0900 C   0  0  0  0  0  0  0  0  0  0  0  0
    5.7250    0.4160   20.4510 C   0  0  0  0  0  0  0  0  0  0  0  0
    5.6850   -0.7840   21.0940 C   0  0  0  0  0  0  0  0  0  0  0  0
    5.6160   -1.9430   20.3210 C   0  0  0  0  0  0  0  0  0  0  0  0
    5.5880   -3.2280   21.0570 C   0  0  0  0  0  0  0  0  0  0  0  0
    5.3430   -4.3300   21.2750 N   0  0  0  0  0  0  0  0  0  0  0  0
    6.0710   -4.3640   22.7230 C   0  0  0  0  0  0  0  0  0  0  0  0
    6.3290   -5.4190   23.9610 C   0  0  0  0  0  0  0  0  0  0  0  0
    7.1050   -4.9660   25.1540 C   0  0  0  0  0  0  0  0  0  0  0  0
    6.7540   -4.4710   24.1020 C   0  0  0  0  0  0  0  0  0  0  0  0
    7.0470   -3.1480   23.6980 C   0  0  0  0  0  0  0  0  0  0  0  0
    7.9870   -2.8810   22.6780 C   0  0  0  0  0  0  0  0  0  0  0  0
    8.2620   -1.5720   22.3030 C   0  0  0  0  0  0  0  0  0  0  0  0
    7.6020   -0.5230   22.9440 C   0  0  0  0  0  0  0  0  0  0  0  0
    7.8600    0.7880   22.5710 N   0  0  0  0  0  0  0  0  0  0  0  0
    7.6050    1.8350   23.5520 C   0  0  0  0  0  0  0  0  0  0  0  0
    8.7140    2.6920   23.5520 C   0  0  0  0  0  0  0  0  0  0  0  0
    9.0060    3.5410   24.6340 C   0  0  0  0  0  0  0  0  0  0  0  0
   10.2150    4.4470   24.5760 C   0  0  0  0  0  0  0  0  0  0  0  0
   11.0290    4.4240   23.4310 C   0  0  0  0  0  0  0  0  0  0  0  0
   12.1490    5.2240   23.2800 C   0  0  0  0  0  0  0  0  0  0  0  0
   13.4060    4.6620   23.1760 C   0  0  0  0  0  0  0  0  0  0  0  0
   12.0600    5.8870   21.9210 C   0  0  0  0  0  0  0  0  0  0  0  0
   12.1260    6.3350   24.3510 C   0  0  0  0  0  0  0  0  0  0  0  0
   10.6670    3.5510   22.4090 C   0  0  0  0  0  0  0  0  0  0  0  0
    9.5620    2.7070   22.4400 C   0  0  0  0  0  0  0  0  0  0  0  0
    6.7010   -0.7290   23.9260 N   0  0  0  0  0  0  0  0  0  0  0  0
    6.4460   -2.0210   24.2750 C   0  0  0  0  0  0  0  0  0  0  0  0
    5.9810   -5.6060   23.4120 C   0  0  0  0  0  0  0  0  0  0  0  0
    5.5710   -5.0450   22.2150 C   0  0  0  0  0  0  0  0  0  0  0  0
    6.0360   -3.5630   22.1240 O   0  0  0  0  0  0  0  0  0  0  0  0
    5.5800   -1.8360   18.9260 C   0  0  0  0  0  0  0  0  0  0  0  0
    5.6200   -0.5790   18.3050 C   0  0  0  0  0  0  0  0  0  0  0  0
  1  2  1  0
  2  3  1  0
  3  4  2  0
  4  5  1  0
  5  6  2  0
  6  7  1  0
  7  8  2  0
  8  9  1  0
  9 10  2  0
 10 11  1  0
 11 12  2  0
 12 13  1  0
 13 14  2  0
 14 15  1  0
 15 16  2  0
 16 17  1  0
 17 18  1  0
 18 19  1  0
 19 20  2  0
 20 21  1  0
 21 22  2  0
 22 23  1  0
 23 24  1  0
 23 25  1  0
 23 26  1  0
 22 27  1  0
 19 28  1  0
 27 28  2  0
 16 29  1  0
 13 30  1  0
 29 30  2  0
 12 31  1  0
  9 32  1  0
 31 32  2  0
  7 33  1  0
 32 33  1  0
  6 34  1  0
  3 35  1  0
 34 35  2  0
M  END
