DRA-CSI-47e38074-16
     RDKit          3D

 18 19  0  0  0  0  0  0  0  0999 V2000
    5.8810    1.1260   18.2080 C   0  0  0  0  0  0  0  0  0  0  0  0
    5.2010   -0.1550   18.6070 C   0  0  0  0  0  0  0  0  0  0  0  0
    6.1190   -1.0820   19.0650 N   0  0  0  0  0  0  0  0  0  0  0  0
    5.8240   -2.2870   19.7510 C   0  0  0  0  0  0  0  0  0  0  0  0
    5.1970   -3.2930   19.0770 N   0  0  0  0  0  0  0  0  0  0  0  0
    6.2860   -2.2310   21.1290 N   0  0  0  0  0  0  0  0  0  0  0  0
    7.2820   -1.2100   21.5250 C   0  0  0  0  0  0  0  0  0  0  0  0
    8.2130   -1.7120   22.4220 C   0  0  0  0  0  0  0  0  0  0  0  0
    7.7510   -2.4050   23.5150 C   0  0  0  0  0  0  0  0  0  0  0  0
    8.7140   -2.5970   24.4980 C   0  0  0  0  0  0  0  0  0  0  0  0
    8.4770   -3.6740   25.5630 C   0  0  0  0  0  0  0  0  0  0  0  0
    9.4950   -4.7740   25.4480 C   0  0  0  0  0  0  0  0  0  0  0  0
    9.5360   -5.9700   26.3380 C   0  0  0  0  0  0  0  0  0  0  0  0
    8.5060   -5.9830   27.3480 C   0  0  0  0  0  0  0  0  0  0  0  0
    7.5690   -4.9820   27.4750 C   0  0  0  0  0  0  0  0  0  0  0  0
    7.5120   -3.7520   26.5600 C   0  0  0  0  0  0  0  0  0  0  0  0
    7.1510   -3.5970   23.0710 C   0  0  0  0  0  0  0  0  0  0  0  0
    6.0380   -3.3300   22.0650 C   0  0  0  0  0  0  0  0  0  0  0  0
  1  2  1  0
  2  3  1  0
  3  4  1  0
  4  5  2  3
  4  6  1  0
  6  7  1  0
  7  8  1  0
  8  9  1  0
  9 10  1  0
 10 11  1  0
 11 12  2  0
 12 13  1  0
 13 14  2  0
 14 15  1  0
 11 16  1  0
 15 16  2  0
  9 17  1  0
  6 18  1  0
 17 18  1  0
M  END
