DRA-CSI-7ec17797-4
     RDKit          3D

 31 34  0  0  0  0  0  0  0  0999 V2000
    7.3850   -0.4750   19.6420 C   0  0  0  0  0  0  0  0  0  0  0  0
    6.1290   -1.0430   20.0770 N   0  0  0  0  0  0  0  0  0  0  0  0
    5.1970   -1.1740   18.9770 C   0  0  0  0  0  0  0  0  0  0  0  0
    6.2940   -2.2390   20.8040 C   0  0  0  0  0  0  0  0  0  0  0  0
    6.5510   -3.1370   21.6510 N   0  0  0  0  0  0  0  0  0  0  0  0
    6.9530   -2.2710   22.3640 C   0  0  0  0  0  0  0  0  0  0  0  0
    6.7300   -0.9680   21.8240 N   0  0  0  0  0  0  0  0  0  0  0  0
    5.5460   -0.2180   22.0300 C   0  0  0  0  0  0  0  0  0  0  0  0
    4.4730   -0.6800   22.4190 O   0  0  0  0  0  0  0  0  0  0  0  0
    5.6610    1.1590   21.7530 C   0  0  0  0  0  0  0  0  0  0  0  0
    4.9870    1.9840   22.8770 C   0  0  0  0  0  0  0  0  0  0  0  0
    3.8630    2.8820   22.3580 C   0  0  0  0  0  0  0  0  0  0  0  0
    2.9440    2.1310   21.4760 N   0  0  0  0  0  0  0  0  0  0  0  0
    1.3010    2.5610   21.3800 S   0  0  0  0  0  0  0  0  0  0  0  0
    1.1610    3.9310   21.8320 O   0  0  0  0  0  0  0  0  0  0  0  0
    0.7730    2.1360   20.1020 O   0  0  0  0  0  0  0  0  0  0  0  0
    0.5380    1.5240   22.6160 C   0  0  0  0  0  0  0  0  0  0  0  0
    1.3010    1.1100   23.8940 C   0  0  0  0  0  0  0  0  0  0  0  0
    0.6460    0.2940   24.8230 C   0  0  0  0  0  0  0  0  0  0  0  0
   -0.6710   -0.1220   24.5780 C   0  0  0  0  0  0  0  0  0  0  0  0
   -1.2840   -0.9040   25.4770 F   0  0  0  0  0  0  0  0  0  0  0  0
   -1.3640    0.2550   23.4170 C   0  0  0  0  0  0  0  0  0  0  0  0
   -0.7720    1.0680   22.4430 C   0  0  0  0  0  0  0  0  0  0  0  0
    3.5610    1.4010   20.3450 C   0  0  0  0  0  0  0  0  0  0  0  0
    5.0800    1.5540   20.3760 C   0  0  0  0  0  0  0  0  0  0  0  0
    7.4690   -2.3410   23.4110 N   0  0  0  0  0  0  0  0  0  0  0  0
    7.5860   -1.0740   23.3560 C   0  0  0  0  0  0  0  0  0  0  0  0
    7.9840   -1.8540   24.4170 N   0  0  0  0  0  0  0  0  0  0  0  0
    7.5680   -3.0760   23.7880 C   0  0  0  0  0  0  0  0  0  0  0  0
    7.4140   -1.9640   23.1880 N   0  0  0  0  0  0  0  0  0  0  0  0
    6.9400   -1.3650   22.0020 C   0  0  0  0  0  0  0  0  0  0  0  0
  1  2  1  0
  2  3  1  0
  2  4  1  0
  4  5  2  0
  5  6  1  0
  6  7  1  0
  7  8  1  0
  8  9  2  0
  8 10  1  0
 10 11  1  0
 11 12  1  0
 12 13  1  0
 13 14  1  0
 14 15  2  0
 14 16  2  0
 14 17  1  0
 17 18  2  0
 18 19  1  0
 19 20  2  0
 20 21  1  0
 20 22  1  0
 17 23  1  0
 22 23  2  0
 13 24  1  0
 10 25  1  0
 24 25  1  0
  6 26  2  0
 26 27  1  0
 27 28  1  0
 28 29  1  0
 29 30  2  0
  4 31  1  0
 27 31  2  0
 30 31  1  0
M  END
