DRA-CSI-7ec17797-10
     RDKit          3D

 30 33  0  0  0  0  0  0  0  0999 V2000
    7.2730    6.9270   21.3120 C   0  0  0  0  0  0  0  0  0  0  0  0
    7.9140    6.5840   22.4950 N   0  0  0  0  0  0  0  0  0  0  0  0
    9.2100    7.0340   22.8220 C   0  0  0  0  0  0  0  0  0  0  0  0
    7.1910    5.6460   23.3540 C   0  0  0  0  0  0  0  0  0  0  0  0
    7.2580    4.2890   23.0950 N   0  0  0  0  0  0  0  0  0  0  0  0
    6.6010    3.3820   23.8610 C   0  0  0  0  0  0  0  0  0  0  0  0
    6.7830    1.9720   23.4220 N   0  0  0  0  0  0  0  0  0  0  0  0
    7.9440    1.3600   22.9450 C   0  0  0  0  0  0  0  0  0  0  0  0
    8.8210    1.9310   22.3030 O   0  0  0  0  0  0  0  0  0  0  0  0
    8.0280   -0.0060   23.2650 C   0  0  0  0  0  0  0  0  0  0  0  0
    7.1650   -0.8960   22.6110 C   0  0  0  0  0  0  0  0  0  0  0  0
    7.4590   -1.0560   21.2740 C   0  0  0  0  0  0  0  0  0  0  0  0
    8.7080   -1.4770   21.2210 N   0  0  0  0  0  0  0  0  0  0  0  0
    8.9440   -2.6010   21.8660 C   0  0  0  0  0  0  0  0  0  0  0  0
    8.1780   -3.5820   21.9910 O   0  0  0  0  0  0  0  0  0  0  0  0
   10.2080   -2.5930   22.5090 C   0  0  0  0  0  0  0  0  0  0  0  0
   11.3150   -2.0510   21.8380 C   0  0  0  0  0  0  0  0  0  0  0  0
   12.6800   -1.9970   22.4960 C   0  0  0  0  0  0  0  0  0  0  0  0
   12.7390   -2.5630   23.8850 C   0  0  0  0  0  0  0  0  0  0  0  0
   13.8650   -2.5820   24.5920 F   0  0  0  0  0  0  0  0  0  0  0  0
   11.5920   -3.0680   24.4260 C   0  0  0  0  0  0  0  0  0  0  0  0
   10.3500   -3.0980   23.7970 C   0  0  0  0  0  0  0  0  0  0  0  0
    9.6960   -0.4970   21.6930 C   0  0  0  0  0  0  0  0  0  0  0  0
    9.5510   -0.3060   23.0360 C   0  0  0  0  0  0  0  0  0  0  0  0
    5.8420    3.6700   24.9230 N   0  0  0  0  0  0  0  0  0  0  0  0
    5.7840    4.9820   25.1670 C   0  0  0  0  0  0  0  0  0  0  0  0
    5.0890    5.5790   26.1800 N   0  0  0  0  0  0  0  0  0  0  0  0
    5.2900    6.9280   26.0740 C   0  0  0  0  0  0  0  0  0  0  0  0
    6.0700    7.2250   25.0580 N   0  0  0  0  0  0  0  0  0  0  0  0
    6.3940    6.0120   24.4720 C   0  0  0  0  0  0  0  0  0  0  0  0
  1  2  1  0
  2  3  1  0
  2  4  1  0
  4  5  2  0
  5  6  1  0
  6  7  1  0
  7  8  1  0
  8  9  2  0
  8 10  1  0
 10 11  1  0
 11 12  1  0
 12 13  1  0
 13 14  1  0
 14 15  2  0
 14 16  1  0
 16 17  2  0
 17 18  1  0
 18 19  2  0
 19 20  1  0
 19 21  1  0
 16 22  1  0
 21 22  2  0
 13 23  1  0
 10 24  1  0
 23 24  1  0
  6 25  2  0
 25 26  1  0
 26 27  1  0
 27 28  1  0
 28 29  2  0
  4 30  1  0
 26 30  2  0
 29 30  1  0
M  END
