DRA-CSI-0a78d9ba-8
     RDKit          3D

 38 42  0  0  0  0  0  0  0  0999 V2000
   13.3460   -2.1640   22.9360 C   0  0  0  0  0  0  0  0  0  0  0  0
   13.2840   -0.8620   22.1220 C   0  0  0  0  0  0  0  0  0  0  0  0
   13.6000    0.3210   22.7020 C   0  0  0  0  0  0  0  0  0  0  0  0
   12.5990    1.3970   22.7950 C   0  0  0  0  0  0  0  0  0  0  0  0
   11.6000    0.3600   22.9840 C   0  0  0  0  0  0  0  0  0  0  0  0
   10.2310    0.7730   23.3130 C   0  0  0  0  0  0  0  0  0  0  0  0
    9.3360   -0.4220   23.5140 C   0  0  0  0  0  0  0  0  0  0  0  0
    9.9130   -1.8570   23.3550 C   0  0  0  0  0  0  0  0  0  0  0  0
    9.1950   -2.9710   23.5150 C   0  0  0  0  0  0  0  0  0  0  0  0
    7.7980   -2.6700   23.5510 N   0  0  0  0  0  0  0  0  0  0  0  0
    7.0630   -3.7770   23.2350 C   0  0  0  0  0  0  0  0  0  0  0  0
    5.7550   -3.7360   22.8590 C   0  0  0  0  0  0  0  0  0  0  0  0
    5.5380   -2.7390   21.7570 C   0  0  0  0  0  0  0  0  0  0  0  0
    6.0270   -3.0450   20.5150 C   0  0  0  0  0  0  0  0  0  0  0  0
    5.5000   -3.9350   19.8000 O   0  0  0  0  0  0  0  0  0  0  0  0
    7.1170   -2.2270   20.2800 N   0  0  0  0  0  0  0  0  0  0  0  0
    7.0320   -1.2520   19.2560 C   0  0  0  0  0  0  0  0  0  0  0  0
    6.3010   -0.1220   19.6060 C   0  0  0  0  0  0  0  0  0  0  0  0
    6.1100    0.8500   18.6900 C   0  0  0  0  0  0  0  0  0  0  0  0
    6.6490    0.6340   17.4610 C   0  0  0  0  0  0  0  0  0  0  0  0
    6.5190    1.4530   16.3690 N   0  0  0  0  0  0  0  0  0  0  0  0
    7.2260    0.6930   15.3300 C   0  0  0  0  0  0  0  0  0  0  0  0
    7.3320    0.9160   13.8530 C   0  0  0  0  0  0  0  0  0  0  0  0
    6.3590    1.5130   12.6180 C   0  0  0  0  0  0  0  0  0  0  0  0
    6.3980    1.6030   11.5810 C   0  0  0  0  0  0  0  0  0  0  0  0
    7.4160    1.2450   11.1560 C   0  0  0  0  0  0  0  0  0  0  0  0
    7.3530    1.3690    9.8650 O   0  0  0  0  0  0  0  0  0  0  0  0
    6.8060    0.2590    9.2650 C   0  0  0  0  0  0  0  0  0  0  0  0
    8.3890    0.8070   12.1080 C   0  0  0  0  0  0  0  0  0  0  0  0
    8.3270    0.6220   13.4140 C   0  0  0  0  0  0  0  0  0  0  0  0
    9.6960    0.1050   14.5560 Br  0  0  0  0  0  0  0  0  0  0  0  0
    7.7910   -0.4280   15.8370 O   0  0  0  0  0  0  0  0  0  0  0  0
    7.3740   -0.4470   17.1410 C   0  0  0  0  0  0  0  0  0  0  0  0
    7.6060   -1.4130   18.0000 C   0  0  0  0  0  0  0  0  0  0  0  0
    6.1510   -1.4070   22.1520 C   0  0  0  0  0  0  0  0  0  0  0  0
    7.5900   -1.5440   22.6230 C   0  0  0  0  0  0  0  0  0  0  0  0
   11.2340   -2.0260   23.0250 C   0  0  0  0  0  0  0  0  0  0  0  0
   12.0600   -0.9430   22.8430 C   0  0  0  0  0  0  0  0  0  0  0  0
  1  2  1  0
  2  3  1  0
  3  4  1  0
  4  5  1  0
  5  6  2  0
  6  7  1  0
  7  8  2  0
  8  9  1  0
  9 10  1  0
 10 11  1  0
 11 12  1  0
 12 13  1  0
 13 14  1  0
 14 15  2  0
 14 16  1  0
 16 17  1  0
 17 18  2  0
 18 19  1  0
 19 20  2  0
 20 21  1  0
 21 22  2  0
 22 23  1  0
 23 24  2  0
 24 25  1  0
 25 26  2  0
 26 27  1  0
 27 28  1  0
 26 29  1  0
 23 30  1  0
 29 30  2  0
 30 31  1  0
 22 32  1  0
 20 33  1  0
 32 33  1  0
 17 34  1  0
 33 34  2  0
 13 35  1  0
 10 36  1  0
 35 36  1  0
  8 37  1  0
  5 38  1  0
 37 38  2  0
M  END
