DRA-CSI-3ab97369-13
     RDKit          3D

 28 31  0  0  0  0  0  0  0  0999 V2000
    3.9580   -4.4580   20.7870 O   0  0  0  0  0  0  0  0  0  0  0  0
    3.9550   -4.0300   21.9620 C   0  0  0  0  0  0  0  0  0  0  0  0
    3.1840   -2.9230   22.4660 N   0  0  0  0  0  0  0  0  0  0  0  0
    1.7660   -2.8340   22.7690 C   0  0  0  0  0  0  0  0  0  0  0  0
    1.3270   -2.2100   24.0510 N   0  0  0  0  0  0  0  0  0  0  0  0
   -0.0600   -2.2260   24.1050 N   0  0  0  0  0  0  0  0  0  0  0  0
   -0.6540   -2.7520   23.0350 C   0  0  0  0  0  0  0  0  0  0  0  0
   -2.2160   -2.8200   22.9640 C   0  0  0  0  0  0  0  0  0  0  0  0
   -2.8910   -3.0220   21.7860 C   0  0  0  0  0  0  0  0  0  0  0  0
   -4.3850   -3.1300   21.8330 C   0  0  0  0  0  0  0  0  0  0  0  0
   -4.6750   -2.9100   23.3260 C   0  0  0  0  0  0  0  0  0  0  0  0
   -6.4710   -2.8960   24.0220 Br  0  0  0  0  0  0  0  0  0  0  0  0
   -3.2620   -2.7010   24.3030 S   0  0  0  0  0  0  0  0  0  0  0  0
    0.4330   -3.3010   21.7850 S   0  0  0  0  0  0  0  0  0  0  0  0
    4.8160   -4.7780   22.9420 C   0  0  0  0  0  0  0  0  0  0  0  0
    6.3320   -4.5960   23.1590 C   0  0  0  0  0  0  0  0  0  0  0  0
    6.7110   -4.1630   24.4940 C   0  0  0  0  0  0  0  0  0  0  0  0
    5.9800   -3.0630   24.9110 N   0  0  0  0  0  0  0  0  0  0  0  0
    6.7390   -2.0390   25.4940 C   0  0  0  0  0  0  0  0  0  0  0  0
    8.0770   -1.7620   25.2650 O   0  0  0  0  0  0  0  0  0  0  0  0
    6.2090   -1.0750   26.4570 C   0  0  0  0  0  0  0  0  0  0  0  0
    7.3240   -1.2230   27.2500 C   0  0  0  0  0  0  0  0  0  0  0  0
    6.9160   -0.3110   28.2270 C   0  0  0  0  0  0  0  0  0  0  0  0
    5.6340    0.3280   28.0020 C   0  0  0  0  0  0  0  0  0  0  0  0
    4.6380    0.0770   26.7660 C   0  0  0  0  0  0  0  0  0  0  0  0
    5.2100   -0.9430   25.7440 C   0  0  0  0  0  0  0  0  0  0  0  0
    4.6310   -3.1100   24.5540 C   0  0  0  0  0  0  0  0  0  0  0  0
    4.2470   -4.4230   24.3020 C   0  0  0  0  0  0  0  0  0  0  0  0
  1  2  2  0
  2  3  1  0
  3  4  1  0
  4  5  2  0
  5  6  1  0
  6  7  2  0
  7  8  1  0
  8  9  2  0
  9 10  1  0
 10 11  2  0
 11 12  1  0
  8 13  1  0
 11 13  1  0
  4 14  1  0
  7 14  1  0
  2 15  1  0
 15 16  1  0
 16 17  1  0
 17 18  1  0
 18 19  1  0
 19 20  2  0
 19 21  1  0
 21 22  2  0
 22 23  1  0
 23 24  2  0
 24 25  1  0
 21 26  1  0
 25 26  2  0
 18 27  1  0
 15 28  1  0
 27 28  1  0
M  END
