DRA-CSI-3ab97369-2
     RDKit          3D

 32 36  0  0  0  0  0  0  0  0999 V2000
   -2.1660    5.4990   17.9900 C   0  0  0  0  0  0  0  0  0  0  0  0
   -1.6670    5.0270   19.2310 O   0  0  0  0  0  0  0  0  0  0  0  0
   -0.4480    4.3980   19.2190 C   0  0  0  0  0  0  0  0  0  0  0  0
    0.5790    4.7240   18.4270 C   0  0  0  0  0  0  0  0  0  0  0  0
    1.9120    4.0280   18.4190 C   0  0  0  0  0  0  0  0  0  0  0  0
    1.9850    2.8850   19.4270 C   0  0  0  0  0  0  0  0  0  0  0  0
    3.2830    2.1010   19.5200 C   0  0  0  0  0  0  0  0  0  0  0  0
    3.9500    1.5220   18.3810 N   0  0  0  0  0  0  0  0  0  0  0  0
    4.9910    0.9290   18.9210 C   0  0  0  0  0  0  0  0  0  0  0  0
    6.0580    0.1350   18.2320 C   0  0  0  0  0  0  0  0  0  0  0  0
    7.1120   -0.4470   18.8640 C   0  0  0  0  0  0  0  0  0  0  0  0
    7.0860   -0.1960   20.3990 C   0  0  0  0  0  0  0  0  0  0  0  0
    8.0220   -0.6610   21.2380 N   0  0  0  0  0  0  0  0  0  0  0  0
    9.1470    0.1000   21.7930 C   0  0  0  0  0  0  0  0  0  0  0  0
   10.3040   -0.2260   21.7200 O   0  0  0  0  0  0  0  0  0  0  0  0
    8.7900    1.3960   22.5040 C   0  0  0  0  0  0  0  0  0  0  0  0
    7.8840    2.3050   21.9070 C   0  0  0  0  0  0  0  0  0  0  0  0
    7.6340    3.5200   22.5990 C   0  0  0  0  0  0  0  0  0  0  0  0
    8.8570    4.0410   23.0090 N   0  0  0  0  0  0  0  0  0  0  0  0
    8.9230    5.6920   23.4770 S   0  0  0  0  0  0  0  0  0  0  0  0
    8.5630    5.7530   24.8770 O   0  0  0  0  0  0  0  0  0  0  0  0
    8.1870    6.4860   22.5160 O   0  0  0  0  0  0  0  0  0  0  0  0
   10.6540    6.0890   23.3110 C   0  0  0  0  0  0  0  0  0  0  0  0
   11.4400    5.7110   24.2190 C   0  0  0  0  0  0  0  0  0  0  0  0
   11.1820    7.1230   24.3860 C   0  0  0  0  0  0  0  0  0  0  0  0
    9.6640    3.1440   23.8040 C   0  0  0  0  0  0  0  0  0  0  0  0
   10.0650    2.1340   22.9010 C   0  0  0  0  0  0  0  0  0  0  0  0
    6.0500    0.5560   21.0150 C   0  0  0  0  0  0  0  0  0  0  0  0
    5.0350    1.0980   20.2710 C   0  0  0  0  0  0  0  0  0  0  0  0
    3.9470    1.8540   20.6970 O   0  0  0  0  0  0  0  0  0  0  0  0
    0.8680    2.5980   20.2250 C   0  0  0  0  0  0  0  0  0  0  0  0
   -0.3080    3.3310   20.1230 C   0  0  0  0  0  0  0  0  0  0  0  0
  1  2  1  0
  2  3  1  0
  3  4  2  0
  4  5  1  0
  5  6  2  0
  6  7  1  0
  7  8  2  0
  8  9  1  0
  9 10  2  0
 10 11  1  0
 11 12  2  0
 12 13  1  0
 13 14  1  0
 14 15  2  0
 14 16  1  0
 16 17  1  0
 17 18  1  0
 18 19  1  0
 20 19  1  0
 20 21  2  0
 20 22  2  0
 20 23  1  0
 23 24  1  0
 23 25  1  0
 24 25  1  0
 19 26  1  0
 16 27  1  0
 26 27  1  0
 12 28  1  0
  9 29  1  0
 28 29  2  0
  7 30  1  0
 29 30  1  0
  6 31  1  0
  3 32  1  0
 31 32  2  0
M  END
