DRA-CSI-47e38074-14
     RDKit          3D

 25 27  0  0  0  0  0  0  0  0999 V2000
    7.3850   -1.5600   26.4000 O   0  0  0  0  0  0  0  0  0  0  0  0
    6.5550   -2.0360   25.6630 C   0  0  0  0  0  0  0  0  0  0  0  0
    5.1640   -2.1720   26.1320 C   0  0  0  0  0  0  0  0  0  0  0  0
    4.9040   -3.1300   27.1060 C   0  0  0  0  0  0  0  0  0  0  0  0
    3.5060   -3.2980   27.6320 C   0  0  0  0  0  0  0  0  0  0  0  0
    2.4640   -2.5030   27.1530 C   0  0  0  0  0  0  0  0  0  0  0  0
    1.0730   -2.6870   27.7050 C   0  0  0  0  0  0  0  0  0  0  0  0
    0.7780   -2.0500   28.8610 F   0  0  0  0  0  0  0  0  0  0  0  0
    0.1100   -2.2780   26.8320 F   0  0  0  0  0  0  0  0  0  0  0  0
    0.7900   -3.9950   27.9490 F   0  0  0  0  0  0  0  0  0  0  0  0
    2.7170   -1.4600   26.0930 C   0  0  0  0  0  0  0  0  0  0  0  0
    4.1460   -1.3620   25.6270 C   0  0  0  0  0  0  0  0  0  0  0  0
    6.7850   -2.4790   24.3720 N   0  0  0  0  0  0  0  0  0  0  0  0
    7.9870   -2.3340   23.6660 C   0  0  0  0  0  0  0  0  0  0  0  0
    8.0570   -1.5670   22.3350 C   0  0  0  0  0  0  0  0  0  0  0  0
    6.7360   -1.7260   21.6190 C   0  0  0  0  0  0  0  0  0  0  0  0
    5.7640   -0.7250   21.7020 C   0  0  0  0  0  0  0  0  0  0  0  0
    5.5210    0.0210   20.5620 C   0  0  0  0  0  0  0  0  0  0  0  0
    4.2960    0.6600   20.3380 C   0  0  0  0  0  0  0  0  0  0  0  0
    4.0030    1.4280   19.2100 C   0  0  0  0  0  0  0  0  0  0  0  0
    4.8990    1.6540   18.1590 C   0  0  0  0  0  0  0  0  0  0  0  0
    6.2780    1.0120   18.2630 C   0  0  0  0  0  0  0  0  0  0  0  0
    6.6070    0.1720   19.4910 C   0  0  0  0  0  0  0  0  0  0  0  0
    6.1020   -3.0410   22.0980 C   0  0  0  0  0  0  0  0  0  0  0  0
    5.6670   -2.9200   23.5350 C   0  0  0  0  0  0  0  0  0  0  0  0
  1  2  2  0
  2  3  1  0
  3  4  2  0
  4  5  1  0
  5  6  2  0
  6  7  1  0
  7  8  1  0
  7  9  1  0
  7 10  1  0
  6 11  1  0
  3 12  1  0
 11 12  2  0
  2 13  1  0
 13 14  1  0
 14 15  1  0
 15 16  1  0
 16 17  1  0
 17 18  1  0
 18 19  2  0
 19 20  1  0
 20 21  2  0
 21 22  1  0
 18 23  1  0
 22 23  2  0
 16 24  1  0
 13 25  1  0
 24 25  1  0
M  END
