DRA-CSI-47e38074-7
     RDKit          3D

 26 28  0  0  0  0  0  0  0  0999 V2000
    4.7520   -3.4700   21.2820 O   0  0  0  0  0  0  0  0  0  0  0  0
    4.8600   -3.0650   22.4290 C   0  0  0  0  0  0  0  0  0  0  0  0
    3.9780   -3.3030   23.4650 N   0  0  0  0  0  0  0  0  0  0  0  0
    3.7770   -4.5870   24.0160 C   0  0  0  0  0  0  0  0  0  0  0  0
    4.4580   -5.6660   23.5800 C   0  0  0  0  0  0  0  0  0  0  0  0
    4.2820   -7.0440   24.1360 C   0  0  0  0  0  0  0  0  0  0  0  0
    3.3710   -7.2130   25.1490 C   0  0  0  0  0  0  0  0  0  0  0  0
    2.5410   -6.0830   25.7280 C   0  0  0  0  0  0  0  0  0  0  0  0
    2.8280   -4.7230   25.0610 C   0  0  0  0  0  0  0  0  0  0  0  0
    1.9700   -3.5990   25.6770 C   0  0  0  0  0  0  0  0  0  0  0  0
    1.9130   -3.6790   27.0360 F   0  0  0  0  0  0  0  0  0  0  0  0
    2.4030   -2.3320   25.4090 F   0  0  0  0  0  0  0  0  0  0  0  0
    0.6720   -3.6370   25.2580 F   0  0  0  0  0  0  0  0  0  0  0  0
    5.9570   -2.3110   22.8160 N   0  0  0  0  0  0  0  0  0  0  0  0
    6.7160   -2.9490   23.8710 C   0  0  0  0  0  0  0  0  0  0  0  0
    7.7590   -3.5710   23.2280 C   0  0  0  0  0  0  0  0  0  0  0  0
    8.7380   -2.6850   22.8390 C   0  0  0  0  0  0  0  0  0  0  0  0
    9.7140   -2.4710   23.7850 C   0  0  0  0  0  0  0  0  0  0  0  0
   10.7080   -1.5870   23.4620 C   0  0  0  0  0  0  0  0  0  0  0  0
   10.4000   -0.2320   23.3600 C   0  0  0  0  0  0  0  0  0  0  0  0
   11.3630    0.7060   23.0430 C   0  0  0  0  0  0  0  0  0  0  0  0
   12.7860    0.2610   22.8050 C   0  0  0  0  0  0  0  0  0  0  0  0
   13.0490   -1.2300   22.9280 C   0  0  0  0  0  0  0  0  0  0  0  0
   12.0020   -2.0720   23.2490 C   0  0  0  0  0  0  0  0  0  0  0  0
    8.1260   -1.3950   22.2460 C   0  0  0  0  0  0  0  0  0  0  0  0
    6.7730   -1.4970   21.8810 C   0  0  0  0  0  0  0  0  0  0  0  0
  1  2  2  0
  2  3  1  0
  3  4  1  0
  4  5  2  0
  5  6  1  0
  6  7  2  0
  7  8  1  0
  4  9  1  0
  8  9  2  0
  9 10  1  0
 10 11  1  0
 10 12  1  0
 10 13  1  0
  2 14  1  0
 14 15  1  0
 15 16  1  0
 16 17  1  0
 17 18  1  0
 18 19  1  0
 19 20  2  0
 20 21  1  0
 21 22  2  0
 22 23  1  0
 19 24  1  0
 23 24  2  0
 17 25  1  0
 14 26  1  0
 25 26  1  0
M  END
