DRA-CSI-7ec17797-18
     RDKit          3D

 30 33  0  0  0  0  0  0  0  0999 V2000
    5.3910   -4.0460   19.6630 O   0  0  0  0  0  0  0  0  0  0  0  0
    5.8640   -2.8980   19.7320 C   0  0  0  0  0  0  0  0  0  0  0  0
    5.5300   -1.8650   18.7550 N   0  0  0  0  0  0  0  0  0  0  0  0
    5.0560   -0.5060   19.1300 C   0  0  0  0  0  0  0  0  0  0  0  0
    4.6140    0.6520   18.3390 N   0  0  0  0  0  0  0  0  0  0  0  0
    4.3270    1.5510   19.2950 N   0  0  0  0  0  0  0  0  0  0  0  0
    4.5720    0.9920   20.4900 C   0  0  0  0  0  0  0  0  0  0  0  0
    4.4340    1.5160   21.7840 C   0  0  0  0  0  0  0  0  0  0  0  0
    4.8040    2.5790   20.8830 C   0  0  0  0  0  0  0  0  0  0  0  0
    5.0400    4.0540   21.1280 C   0  0  0  0  0  0  0  0  0  0  0  0
    4.9040    4.5950   22.4300 C   0  0  0  0  0  0  0  0  0  0  0  0
    4.5280    3.5280   23.3630 C   0  0  0  0  0  0  0  0  0  0  0  0
    4.3520    2.2460   22.9880 N   0  0  0  0  0  0  0  0  0  0  0  0
    4.9900   -0.1940   20.4520 O   0  0  0  0  0  0  0  0  0  0  0  0
    6.8810   -2.6040   20.8470 C   0  0  0  0  0  0  0  0  0  0  0  0
    7.4970   -1.3630   20.5730 C   0  0  0  0  0  0  0  0  0  0  0  0
    8.4520   -0.9090   21.6940 C   0  0  0  0  0  0  0  0  0  0  0  0
    8.1850   -1.4100   22.9150 N   0  0  0  0  0  0  0  0  0  0  0  0
    9.1660   -2.6780   23.3100 S   0  0  0  0  0  0  0  0  0  0  0  0
    9.5780   -3.2240   22.0500 O   0  0  0  0  0  0  0  0  0  0  0  0
   10.1270   -2.2540   24.3020 O   0  0  0  0  0  0  0  0  0  0  0  0
    7.9850   -3.6960   23.9930 C   0  0  0  0  0  0  0  0  0  0  0  0
    7.6480   -5.1380   23.5250 C   0  0  0  0  0  0  0  0  0  0  0  0
    6.8370   -4.9910   24.4740 C   0  0  0  0  0  0  0  0  0  0  0  0
    5.8080   -5.3800   25.3450 C   0  0  0  0  0  0  0  0  0  0  0  0
    5.0060   -6.4250   25.5850 F   0  0  0  0  0  0  0  0  0  0  0  0
    6.0300   -4.1140   25.8820 C   0  0  0  0  0  0  0  0  0  0  0  0
    7.0990   -3.2780   25.1920 C   0  0  0  0  0  0  0  0  0  0  0  0
    6.8250   -1.6770   23.0780 C   0  0  0  0  0  0  0  0  0  0  0  0
    6.1420   -2.5650   22.1990 C   0  0  0  0  0  0  0  0  0  0  0  0
  1  2  2  0
  2  3  1  0
  3  4  1  0
  4  5  2  0
  5  6  1  0
  6  7  2  0
  7  8  1  0
  8  9  2  0
  9 10  1  0
 10 11  2  0
 11 12  1  0
  8 13  1  0
 12 13  2  0
  4 14  1  0
  7 14  1  0
  2 15  1  0
 15 16  1  0
 16 17  1  0
 17 18  1  0
 18 19  1  0
 19 20  2  0
 19 21  2  0
 19 22  1  0
 22 23  2  0
 23 24  1  0
 24 25  2  0
 25 26  1  0
 25 27  1  0
 22 28  1  0
 27 28  2  0
 18 29  1  0
 15 30  1  0
 29 30  1  0
M  END
