DRA-CSI-3ab97369-9
     RDKit          3D

 33 37  0  0  0  0  0  0  0  0999 V2000
   -2.7600   -0.8800   26.5460 C   0  0  0  0  0  0  0  0  0  0  0  0
   -2.0330   -1.8900   27.2370 O   0  0  0  0  0  0  0  0  0  0  0  0
   -0.6820   -1.9270   27.0240 C   0  0  0  0  0  0  0  0  0  0  0  0
    0.0550   -2.8990   26.4510 C   0  0  0  0  0  0  0  0  0  0  0  0
    1.4460   -2.7710   26.3060 C   0  0  0  0  0  0  0  0  0  0  0  0
    2.3640   -1.7210   26.6710 C   0  0  0  0  0  0  0  0  0  0  0  0
    3.1600   -2.7140   26.0760 C   0  0  0  0  0  0  0  0  0  0  0  0
    4.0510   -2.5780   25.1160 N   0  0  0  0  0  0  0  0  0  0  0  0
    4.6620   -3.8170   24.7350 C   0  0  0  0  0  0  0  0  0  0  0  0
    4.8490   -5.4630   24.8850 C   0  0  0  0  0  0  0  0  0  0  0  0
    5.8790   -5.4930   23.7350 C   0  0  0  0  0  0  0  0  0  0  0  0
    5.2020   -4.3400   24.1980 C   0  0  0  0  0  0  0  0  0  0  0  0
    6.0240   -3.7890   23.1440 C   0  0  0  0  0  0  0  0  0  0  0  0
    6.1510   -4.1550   21.9580 C   0  0  0  0  0  0  0  0  0  0  0  0
    6.9050   -3.1350   22.2550 C   0  0  0  0  0  0  0  0  0  0  0  0
    6.7550   -2.5210   23.8020 C   0  0  0  0  0  0  0  0  0  0  0  0
    5.9710   -2.7850   24.9590 N   0  0  0  0  0  0  0  0  0  0  0  0
    6.3320   -2.5280   26.2740 C   0  0  0  0  0  0  0  0  0  0  0  0
    6.7740   -3.3130   27.0790 O   0  0  0  0  0  0  0  0  0  0  0  0
    6.0990   -1.1150   26.8350 C   0  0  0  0  0  0  0  0  0  0  0  0
    6.7840   -0.8470   28.1740 C   0  0  0  0  0  0  0  0  0  0  0  0
    6.5650    0.5370   28.7670 C   0  0  0  0  0  0  0  0  0  0  0  0
    5.6870    1.4860   27.9480 C   0  0  0  0  0  0  0  0  0  0  0  0
    5.4590    2.7180   28.4210 F   0  0  0  0  0  0  0  0  0  0  0  0
    5.1160    1.1200   26.7290 C   0  0  0  0  0  0  0  0  0  0  0  0
    5.3160   -0.1550   26.1800 C   0  0  0  0  0  0  0  0  0  0  0  0
    7.5480   -1.6970   23.6610 N   0  0  0  0  0  0  0  0  0  0  0  0
    7.0920   -2.6500   22.7990 C   0  0  0  0  0  0  0  0  0  0  0  0
    4.6600   -5.5370   25.0700 C   0  0  0  0  0  0  0  0  0  0  0  0
    4.0180   -4.4700   25.5510 C   0  0  0  0  0  0  0  0  0  0  0  0
    3.0920   -4.0110   26.4490 O   0  0  0  0  0  0  0  0  0  0  0  0
    1.4160   -0.8060   27.2510 C   0  0  0  0  0  0  0  0  0  0  0  0
    0.0330   -0.8600   27.4290 C   0  0  0  0  0  0  0  0  0  0  0  0
  1  2  1  0
  2  3  1  0
  3  4  2  0
  4  5  1  0
  5  6  2  0
  6  7  1  0
  7  8  2  0
  8  9  1  0
  9 10  2  0
 10 11  1  0
 11 12  2  0
 12 13  1  0
 13 14  2  0
 14 15  1  0
 15 16  2  0
 16 17  1  0
 17 18  1  0
 18 19  2  0
 18 20  1  0
 20 21  2  0
 21 22  1  0
 22 23  2  0
 23 24  1  0
 23 25  1  0
 20 26  1  0
 25 26  2  0
 16 27  1  0
 13 28  1  0
 27 28  2  0
 12 29  1  0
  9 30  1  0
 29 30  2  0
  7 31  1  0
 30 31  1  0
  6 32  1  0
  3 33  1  0
 32 33  2  0
M  END
