DRA-CSI-57d71107-1
     RDKit          3D

 19 21  0  0  0  0  0  0  0  0999 V2000
    6.8620   -6.0880   28.5440 Br  0  0  0  0  0  0  0  0  0  0  0  0
    7.8260   -5.2160   27.1590 C   0  0  0  0  0  0  0  0  0  0  0  0
    9.0550   -5.7210   26.4340 C   0  0  0  0  0  0  0  0  0  0  0  0
    9.4780   -4.8600   25.5370 C   0  0  0  0  0  0  0  0  0  0  0  0
    8.6470   -3.6050   25.4490 C   0  0  0  0  0  0  0  0  0  0  0  0
    9.0180   -2.4770   24.4660 C   0  0  0  0  0  0  0  0  0  0  0  0
    9.1880   -2.6490   23.1430 N   0  0  0  0  0  0  0  0  0  0  0  0
    9.5610   -1.4790   22.5050 N   0  0  0  0  0  0  0  0  0  0  0  0
    9.6640   -0.4150   23.3790 C   0  0  0  0  0  0  0  0  0  0  0  0
   10.0450    0.8950   23.0690 N   0  0  0  0  0  0  0  0  0  0  0  0
   11.4300    1.3910   23.2140 C   0  0  0  0  0  0  0  0  0  0  0  0
   11.5420    2.9470   23.0650 C   0  0  0  0  0  0  0  0  0  0  0  0
   12.6880    3.6640   22.7130 C   0  0  0  0  0  0  0  0  0  0  0  0
   12.7360    5.2090   22.5850 C   0  0  0  0  0  0  0  0  0  0  0  0
   11.6020    5.9300   22.8290 C   0  0  0  0  0  0  0  0  0  0  0  0
   10.4040    5.0960   23.2030 C   0  0  0  0  0  0  0  0  0  0  0  0
   10.3950    3.7090   23.3080 C   0  0  0  0  0  0  0  0  0  0  0  0
    9.2810   -0.8490   24.9960 S   0  0  0  0  0  0  0  0  0  0  0  0
    7.3630   -3.6810   26.5820 S   0  0  0  0  0  0  0  0  0  0  0  0
  1  2  1  0
  2  3  2  0
  3  4  1  0
  4  5  2  0
  5  6  1  0
  6  7  2  0
  7  8  1  0
  8  9  2  0
  9 10  1  0
 10 11  1  0
 11 12  1  0
 12 13  2  0
 13 14  1  0
 14 15  2  0
 15 16  1  0
 12 17  1  0
 16 17  2  0
  6 18  1  0
  9 18  1  0
  2 19  1  0
  5 19  1  0
M  END
