DRA-CSI-0a78d9ba-13
     RDKit          3D

 28 31  0  0  0  0  0  0  0  0999 V2000
   13.6020    0.1040   22.5110 C   0  0  0  0  0  0  0  0  0  0  0  0
   12.2730    0.5170   22.8290 C   0  0  0  0  0  0  0  0  0  0  0  0
   11.0250    0.6690   23.1470 C   0  0  0  0  0  0  0  0  0  0  0  0
   10.0600   -0.3210   23.4860 C   0  0  0  0  0  0  0  0  0  0  0  0
   10.3950   -1.7400   23.5110 C   0  0  0  0  0  0  0  0  0  0  0  0
    9.2210   -2.6320   23.8830 C   0  0  0  0  0  0  0  0  0  0  0  0
    8.3890   -2.8280   22.9030 N   0  0  0  0  0  0  0  0  0  0  0  0
    7.1030   -2.9670   23.3530 C   0  0  0  0  0  0  0  0  0  0  0  0
    5.8740   -2.9300   22.4430 C   0  0  0  0  0  0  0  0  0  0  0  0
    6.4480   -2.9000   21.1690 C   0  0  0  0  0  0  0  0  0  0  0  0
    5.6580   -3.1260   19.8650 C   0  0  0  0  0  0  0  0  0  0  0  0
    5.2500   -4.2570   19.6160 O   0  0  0  0  0  0  0  0  0  0  0  0
    5.4020   -2.1930   18.9240 N   0  0  0  0  0  0  0  0  0  0  0  0
    6.2790   -1.1780   18.7560 C   0  0  0  0  0  0  0  0  0  0  0  0
    7.0510   -0.0250   18.5940 N   0  0  0  0  0  0  0  0  0  0  0  0
    6.4490    1.1650   18.6100 N   0  0  0  0  0  0  0  0  0  0  0  0
    5.2430    0.8520   18.7810 C   0  0  0  0  0  0  0  0  0  0  0  0
    4.0770    1.6140   18.8890 C   0  0  0  0  0  0  0  0  0  0  0  0
    2.9270    2.3960   19.2570 C   0  0  0  0  0  0  0  0  0  0  0  0
    2.4560    2.8400   20.4780 C   0  0  0  0  0  0  0  0  0  0  0  0
    3.0670    2.5840   21.6390 C   0  0  0  0  0  0  0  0  0  0  0  0
    4.2800    1.7800   21.4070 C   0  0  0  0  0  0  0  0  0  0  0  0
    4.6510    1.3960   20.1600 N   0  0  0  0  0  0  0  0  0  0  0  0
    5.2240   -0.4940   18.8570 O   0  0  0  0  0  0  0  0  0  0  0  0
    7.2540   -1.5990   21.0570 C   0  0  0  0  0  0  0  0  0  0  0  0
    8.5340   -1.7600   21.8990 C   0  0  0  0  0  0  0  0  0  0  0  0
   11.6340   -2.2890   23.2210 C   0  0  0  0  0  0  0  0  0  0  0  0
   12.4130   -0.9360   22.9030 C   0  0  0  0  0  0  0  0  0  0  0  0
  1  2  1  0
  2  3  2  0
  3  4  1  0
  4  5  2  0
  5  6  1  0
  6  7  1  0
  7  8  1  0
  8  9  1  0
  9 10  1  0
 10 11  1  0
 11 12  2  0
 11 13  1  0
 13 14  1  0
 14 15  2  0
 15 16  1  0
 16 17  2  0
 17 18  1  0
 18 19  2  0
 19 20  1  0
 20 21  2  0
 21 22  1  0
 18 23  1  0
 22 23  2  0
 14 24  1  0
 17 24  1  0
 10 25  1  0
  7 26  1  0
 25 26  1  0
  5 27  1  0
  2 28  1  0
 27 28  2  0
M  END
