DRA-CSI-7ec17797-16
     RDKit          3D

 38 42  0  0  0  0  0  0  0  0999 V2000
   12.1170   12.0130   25.4250 C   0  0  0  0  0  0  0  0  0  0  0  0
   11.1140   11.3500   26.1850 O   0  0  0  0  0  0  0  0  0  0  0  0
   10.8480   10.0640   25.8120 C   0  0  0  0  0  0  0  0  0  0  0  0
   11.7300    9.0240   26.1190 C   0  0  0  0  0  0  0  0  0  0  0  0
   11.4710    7.7060   25.7350 C   0  0  0  0  0  0  0  0  0  0  0  0
   10.3140    7.3930   25.0300 C   0  0  0  0  0  0  0  0  0  0  0  0
   10.0890    6.0740   24.6670 C   0  0  0  0  0  0  0  0  0  0  0  0
    9.0020    5.3160   24.7820 N   0  0  0  0  0  0  0  0  0  0  0  0
    9.4460    4.1230   24.2890 C   0  0  0  0  0  0  0  0  0  0  0  0
    8.9860    2.8820   24.0850 C   0  0  0  0  0  0  0  0  0  0  0  0
    9.4040    1.6850   23.6120 C   0  0  0  0  0  0  0  0  0  0  0  0
   10.7440    1.7910   23.2090 C   0  0  0  0  0  0  0  0  0  0  0  0
   11.4850    0.6590   22.6650 N   0  0  0  0  0  0  0  0  0  0  0  0
   10.9410   -0.6050   22.4100 C   0  0  0  0  0  0  0  0  0  0  0  0
   11.5380   -1.5050   21.8380 O   0  0  0  0  0  0  0  0  0  0  0  0
    9.5590   -1.1140   22.8100 C   0  0  0  0  0  0  0  0  0  0  0  0
    8.5350   -0.4100   21.9000 C   0  0  0  0  0  0  0  0  0  0  0  0
    7.7720   -1.2820   21.0990 C   0  0  0  0  0  0  0  0  0  0  0  0
    7.2220   -2.4490   21.8600 N   0  0  0  0  0  0  0  0  0  0  0  0
    5.8830   -3.0730   21.3450 C   0  0  0  0  0  0  0  0  0  0  0  0
    4.9600   -3.6840   21.8980 O   0  0  0  0  0  0  0  0  0  0  0  0
    5.7190   -2.9340   20.0180 C   0  0  0  0  0  0  0  0  0  0  0  0
    5.7680   -1.7500   20.6330 C   0  0  0  0  0  0  0  0  0  0  0  0
    5.8700   -1.9300   22.1590 C   0  0  0  0  0  0  0  0  0  0  0  0
    5.9080   -3.3740   22.8080 C   0  0  0  0  0  0  0  0  0  0  0  0
    5.9840   -3.5760   24.1580 N   0  0  0  0  0  0  0  0  0  0  0  0
    5.9470   -4.7560   24.5500 O   0  0  0  0  0  0  0  0  0  0  0  0
    5.6750   -2.6180   24.8870 O   0  0  0  0  0  0  0  0  0  0  0  0
    5.8550   -4.5570   21.9540 C   0  0  0  0  0  0  0  0  0  0  0  0
    5.7430   -4.3950   20.4100 C   0  0  0  0  0  0  0  0  0  0  0  0
    8.3230   -3.1040   22.6550 C   0  0  0  0  0  0  0  0  0  0  0  0
    9.5590   -2.5580   22.3830 C   0  0  0  0  0  0  0  0  0  0  0  0
   11.4460    3.0480   23.3300 C   0  0  0  0  0  0  0  0  0  0  0  0
   10.7530    4.1730   23.8780 C   0  0  0  0  0  0  0  0  0  0  0  0
   11.1880    5.4390   24.1120 O   0  0  0  0  0  0  0  0  0  0  0  0
    9.4140    8.4160   24.7160 C   0  0  0  0  0  0  0  0  0  0  0  0
    7.7890    8.1540   23.7580 Br  0  0  0  0  0  0  0  0  0  0  0  0
    9.6950    9.7190   25.1100 C   0  0  0  0  0  0  0  0  0  0  0  0
  1  2  1  0
  2  3  1  0
  3  4  2  0
  4  5  1  0
  5  6  2  0
  6  7  1  0
  7  8  2  0
  8  9  1  0
  9 10  2  0
 10 11  1  0
 11 12  2  0
 12 13  1  0
 13 14  1  0
 14 15  2  0
 14 16  1  0
 16 17  1  0
 17 18  1  0
 18 19  1  0
 19 20  1  0
 20 21  2  0
 20 22  1  0
 22 23  2  0
 23 24  1  0
 24 25  2  0
 25 26  1  0
 26 27  2  0
 26 28  1  0
 25 29  1  0
 22 30  1  0
 29 30  2  0
 19 31  1  0
 16 32  1  0
 31 32  1  0
 12 33  1  0
  9 34  1  0
 33 34  2  0
  7 35  1  0
 34 35  1  0
  6 36  1  0
 36 37  1  0
  3 38  1  0
 36 38  2  0
M  CHG  2  26   1  28  -1
M  END
