DRA-CSI-3ab97369-10
     RDKit          3D

 31 35  0  0  0  0  0  0  0  0999 V2000
    9.2870    2.4940   22.9710 C   0  0  0  0  0  0  0  0  0  0  0  0
   10.2680    1.4690   22.8500 O   0  0  0  0  0  0  0  0  0  0  0  0
    9.8430    0.1690   22.7840 C   0  0  0  0  0  0  0  0  0  0  0  0
   10.5990   -0.8440   22.3470 C   0  0  0  0  0  0  0  0  0  0  0  0
   10.1250   -2.2540   22.2760 C   0  0  0  0  0  0  0  0  0  0  0  0
    8.6880   -2.5240   22.7370 C   0  0  0  0  0  0  0  0  0  0  0  0
    8.2310   -3.9900   22.6410 C   0  0  0  0  0  0  0  0  0  0  0  0
    7.3410   -4.8430   22.6930 N   0  0  0  0  0  0  0  0  0  0  0  0
    6.0210   -4.1750   23.0080 C   0  0  0  0  0  0  0  0  0  0  0  0
    4.6250   -4.5850   23.2150 C   0  0  0  0  0  0  0  0  0  0  0  0
    3.9240   -3.5370   23.4690 C   0  0  0  0  0  0  0  0  0  0  0  0
    5.2450   -3.6550   23.2060 C   0  0  0  0  0  0  0  0  0  0  0  0
    5.2040   -2.2680   23.3700 C   0  0  0  0  0  0  0  0  0  0  0  0
    5.5580   -1.5300   22.0960 C   0  0  0  0  0  0  0  0  0  0  0  0
    5.5620   -0.1490   22.1530 C   0  0  0  0  0  0  0  0  0  0  0  0
    5.2290    0.4450   23.4110 C   0  0  0  0  0  0  0  0  0  0  0  0
    5.2590    1.8290   23.4020 N   0  0  0  0  0  0  0  0  0  0  0  0
    5.6740    2.5720   22.3190 C   0  0  0  0  0  0  0  0  0  0  0  0
    5.5700    1.9770   20.8950 C   0  0  0  0  0  0  0  0  0  0  0  0
    4.3610    1.9630   20.1660 C   0  0  0  0  0  0  0  0  0  0  0  0
    4.3350    1.4040   18.9020 C   0  0  0  0  0  0  0  0  0  0  0  0
    5.3730    0.8460   18.2550 C   0  0  0  0  0  0  0  0  0  0  0  0
    6.7090    0.8140   18.9520 C   0  0  0  0  0  0  0  0  0  0  0  0
    6.7240    1.4270   20.3260 C   0  0  0  0  0  0  0  0  0  0  0  0
    4.9040   -0.1940   24.5570 N   0  0  0  0  0  0  0  0  0  0  0  0
    4.8980   -1.5440   24.5120 C   0  0  0  0  0  0  0  0  0  0  0  0
    4.8020   -5.1750   23.1130 C   0  0  0  0  0  0  0  0  0  0  0  0
    6.2260   -5.1640   22.8530 C   0  0  0  0  0  0  0  0  0  0  0  0
    7.0000   -3.8660   22.8700 O   0  0  0  0  0  0  0  0  0  0  0  0
    7.9260   -1.4550   23.1930 C   0  0  0  0  0  0  0  0  0  0  0  0
    8.5260   -0.0610   23.2140 C   0  0  0  0  0  0  0  0  0  0  0  0
  1  2  1  0
  2  3  1  0
  3  4  2  0
  4  5  1  0
  5  6  2  0
  6  7  1  0
  7  8  2  0
  8  9  1  0
  9 10  2  0
 10 11  1  0
 11 12  2  0
 12 13  1  0
 13 14  2  0
 14 15  1  0
 15 16  2  0
 16 17  1  0
 17 18  1  0
 18 19  1  0
 19 20  2  0
 20 21  1  0
 21 22  2  0
 22 23  1  0
 19 24  1  0
 23 24  2  0
 16 25  1  0
 13 26  1  0
 25 26  2  0
 12 27  1  0
  9 28  1  0
 27 28  2  0
  7 29  1  0
 28 29  1  0
  6 30  1  0
  3 31  1  0
 30 31  2  0
M  END
