DRA-CSI-3ab97369-6
     RDKit          3D

 37 41  0  0  0  0  0  0  0  0999 V2000
   -2.6770   -3.5260   29.8020 C   0  0  0  0  0  0  0  0  0  0  0  0
   -2.5190   -4.8370   29.2730 O   0  0  0  0  0  0  0  0  0  0  0  0
   -1.3900   -5.0680   28.5420 C   0  0  0  0  0  0  0  0  0  0  0  0
   -0.0750   -5.5220   29.0490 C   0  0  0  0  0  0  0  0  0  0  0  0
    1.1170   -5.7450   28.1340 C   0  0  0  0  0  0  0  0  0  0  0  0
    0.8710   -5.4750   26.6770 C   0  0  0  0  0  0  0  0  0  0  0  0
    1.8590   -5.6330   25.7300 C   0  0  0  0  0  0  0  0  0  0  0  0
    2.6240   -6.6890   25.4730 N   0  0  0  0  0  0  0  0  0  0  0  0
    3.4040   -6.2020   24.4200 C   0  0  0  0  0  0  0  0  0  0  0  0
    4.4020   -6.8890   23.7340 C   0  0  0  0  0  0  0  0  0  0  0  0
    5.1550   -6.2120   22.6070 C   0  0  0  0  0  0  0  0  0  0  0  0
    4.8270   -4.8870   22.2700 C   0  0  0  0  0  0  0  0  0  0  0  0
    5.4340   -4.2010   21.2750 N   0  0  0  0  0  0  0  0  0  0  0  0
    6.7530   -4.0420   21.4280 C   0  0  0  0  0  0  0  0  0  0  0  0
    7.5480   -4.9610   21.3660 O   0  0  0  0  0  0  0  0  0  0  0  0
    7.2270   -2.6400   21.7000 C   0  0  0  0  0  0  0  0  0  0  0  0
    8.3580   -2.6700   22.7130 C   0  0  0  0  0  0  0  0  0  0  0  0
    7.8720   -2.0360   24.0070 C   0  0  0  0  0  0  0  0  0  0  0  0
    6.7050   -2.4960   24.4690 N   0  0  0  0  0  0  0  0  0  0  0  0
    6.4400   -2.3420   26.1560 S   0  0  0  0  0  0  0  0  0  0  0  0
    7.0620   -1.1330   26.6210 O   0  0  0  0  0  0  0  0  0  0  0  0
    6.6930   -3.5930   26.8060 O   0  0  0  0  0  0  0  0  0  0  0  0
    4.7220   -2.2350   26.4200 C   0  0  0  0  0  0  0  0  0  0  0  0
    4.2060   -3.2270   27.2300 C   0  0  0  0  0  0  0  0  0  0  0  0
    2.8860   -3.3330   27.5860 C   0  0  0  0  0  0  0  0  0  0  0  0
    1.9810   -2.3790   27.1020 C   0  0  0  0  0  0  0  0  0  0  0  0
    0.6500   -2.4790   27.4580 C   0  0  0  0  0  0  0  0  0  0  0  0
    2.4320   -1.3380   26.2660 C   0  0  0  0  0  0  0  0  0  0  0  0
    3.8920   -1.2530   25.8970 C   0  0  0  0  0  0  0  0  0  0  0  0
    5.5520   -2.1860   23.5840 C   0  0  0  0  0  0  0  0  0  0  0  0
    6.0200   -1.8140   22.1750 C   0  0  0  0  0  0  0  0  0  0  0  0
    3.8150   -4.1820   22.9710 C   0  0  0  0  0  0  0  0  0  0  0  0
    3.1010   -4.9270   24.0870 C   0  0  0  0  0  0  0  0  0  0  0  0
    2.0970   -4.5270   24.9210 O   0  0  0  0  0  0  0  0  0  0  0  0
   -0.4240   -5.0450   26.2800 C   0  0  0  0  0  0  0  0  0  0  0  0
   -0.8510   -4.6780   24.4630 Br  0  0  0  0  0  0  0  0  0  0  0  0
   -1.5050   -4.8500   27.1740 C   0  0  0  0  0  0  0  0  0  0  0  0
  1  2  1  0
  2  3  1  0
  3  4  2  0
  4  5  1  0
  5  6  2  0
  6  7  1  0
  7  8  2  0
  8  9  1  0
  9 10  2  0
 10 11  1  0
 11 12  2  0
 12 13  1  0
 13 14  1  0
 14 15  2  0
 14 16  1  0
 16 17  1  0
 17 18  1  0
 18 19  1  0
 19 20  1  0
 20 21  2  0
 20 22  2  0
 20 23  1  0
 23 24  2  0
 24 25  1  0
 25 26  2  0
 26 27  1  0
 26 28  1  0
 23 29  1  0
 28 29  2  0
 19 30  1  0
 16 31  1  0
 30 31  1  0
 12 32  1  0
  9 33  1  0
 32 33  2  0
  7 34  1  0
 33 34  1  0
  6 35  1  0
 35 36  1  0
  3 37  1  0
 35 37  2  0
M  END
