DRA-CSI-7ec17797-5
     RDKit          3D

 33 37  0  0  0  0  0  0  0  0999 V2000
    2.8820   -8.6960   32.8260 C   0  0  0  0  0  0  0  0  0  0  0  0
    2.9290   -7.2860   33.0030 O   0  0  0  0  0  0  0  0  0  0  0  0
    3.3970   -6.5540   31.9480 C   0  0  0  0  0  0  0  0  0  0  0  0
    3.1430   -5.1440   31.6850 C   0  0  0  0  0  0  0  0  0  0  0  0
    3.6990   -4.5450   30.5490 C   0  0  0  0  0  0  0  0  0  0  0  0
    4.4980   -5.2950   29.6730 C   0  0  0  0  0  0  0  0  0  0  0  0
    5.0410   -4.6920   28.5610 C   0  0  0  0  0  0  0  0  0  0  0  0
    5.0000   -5.3950   27.3010 N   0  0  0  0  0  0  0  0  0  0  0  0
    5.6170   -4.5470   26.4170 C   0  0  0  0  0  0  0  0  0  0  0  0
    5.8480   -4.8150   24.9350 C   0  0  0  0  0  0  0  0  0  0  0  0
    5.4120   -6.0270   24.2520 N   0  0  0  0  0  0  0  0  0  0  0  0
    5.9870   -6.4220   23.0580 C   0  0  0  0  0  0  0  0  0  0  0  0
    5.3950   -5.7030   21.9100 C   0  0  0  0  0  0  0  0  0  0  0  0
    4.3020   -5.2050   22.1610 O   0  0  0  0  0  0  0  0  0  0  0  0
    3.4940   -6.0820   22.9860 C   0  0  0  0  0  0  0  0  0  0  0  0
    4.0270   -6.1330   24.2920 C   0  0  0  0  0  0  0  0  0  0  0  0
    6.5580   -3.7410   24.2540 N   0  0  0  0  0  0  0  0  0  0  0  0
    6.9450   -2.5650   25.0190 C   0  0  0  0  0  0  0  0  0  0  0  0
    7.6180   -1.6850   24.2290 N   0  0  0  0  0  0  0  0  0  0  0  0
    8.1520   -2.1810   23.0080 C   0  0  0  0  0  0  0  0  0  0  0  0
    7.5260   -2.7880   22.1510 O   0  0  0  0  0  0  0  0  0  0  0  0
    9.6380   -1.8920   22.8000 C   0  0  0  0  0  0  0  0  0  0  0  0
    9.8800   -0.8730   21.6110 C   0  0  0  0  0  0  0  0  0  0  0  0
   10.7920   -1.4920   22.4430 C   0  0  0  0  0  0  0  0  0  0  0  0
   12.0760   -1.5290   22.6210 C   0  0  0  0  0  0  0  0  0  0  0  0
   12.4280   -2.2830   23.5520 N   0  0  0  0  0  0  0  0  0  0  0  0
   10.8830   -2.5200   23.6730 C   0  0  0  0  0  0  0  0  0  0  0  0
    6.6770   -2.3220   26.4680 N   0  0  0  0  0  0  0  0  0  0  0  0
    6.0370   -3.3570   27.0500 C   0  0  0  0  0  0  0  0  0  0  0  0
    5.6650   -3.4620   28.3810 N   0  0  0  0  0  0  0  0  0  0  0  0
    5.9190   -2.4410   29.3600 C   0  0  0  0  0  0  0  0  0  0  0  0
    4.7400   -6.6500   29.9340 C   0  0  0  0  0  0  0  0  0  0  0  0
    4.1960   -7.2640   31.0500 C   0  0  0  0  0  0  0  0  0  0  0  0
  1  2  1  0
  2  3  1  0
  3  4  2  0
  4  5  1  0
  5  6  2  0
  6  7  1  0
  7  8  2  0
  8  9  1  0
  9 10  2  0
 10 11  1  0
 11 12  1  0
 12 13  1  0
 13 14  1  0
 14 15  1  0
 11 16  1  0
 15 16  1  0
 10 17  1  0
 17 18  2  0
 18 19  1  0
 19 20  1  0
 20 21  2  0
 20 22  1  0
 22 23  2  0
 23 24  1  0
 24 25  2  0
 25 26  1  0
 22 27  1  0
 26 27  2  0
 18 28  1  0
  9 29  1  0
 28 29  2  0
  7 30  1  0
 29 30  1  0
 30 31  1  0
  6 32  1  0
  3 33  1  0
 32 33  2  0
M  END
