DRE-WAB-9b73098a-1
     RDKit          3D

 22 23  0  0  0  0  0  0  0  0999 V2000
    5.1410   -4.0470   24.7260 C   0  0  0  0  0  0  0  0  0  0  0  0
    6.8610   -3.6490   24.7270 S   0  0  0  0  0  0  0  0  0  0  0  0
    7.5440   -4.8370   24.2410 O   0  0  0  0  0  0  0  0  0  0  0  0
    7.0840   -3.0690   26.0370 O   0  0  0  0  0  0  0  0  0  0  0  0
    7.2380   -2.4070   23.6230 N   0  0  0  0  0  0  0  0  0  0  0  0
    8.4760   -2.3510   23.0400 C   0  0  0  0  0  0  0  0  0  0  0  0
    8.9730   -1.1600   22.5600 N   0  0  0  0  0  0  0  0  0  0  0  0
    8.2930   -0.4140   21.6430 C   0  0  0  0  0  0  0  0  0  0  0  0
    8.7660    0.9090   21.3600 O   0  0  0  0  0  0  0  0  0  0  0  0
    7.1220   -0.9620   20.9510 N   0  0  0  0  0  0  0  0  0  0  0  0
    6.3890   -0.1690   20.0420 C   0  0  0  0  0  0  0  0  0  0  0  0
    5.0110    0.3890   20.5780 C   0  0  0  0  0  0  0  0  0  0  0  0
    4.1300    1.2690   19.6890 C   0  0  0  0  0  0  0  0  0  0  0  0
    4.7750    1.4680   18.3630 C   0  0  0  0  0  0  0  0  0  0  0  0
    6.0860    0.9260   17.8780 C   0  0  0  0  0  0  0  0  0  0  0  0
    6.8550    0.1280   18.7100 C   0  0  0  0  0  0  0  0  0  0  0  0
   10.4010   -0.8810   22.6660 C   0  0  0  0  0  0  0  0  0  0  0  0
   10.6570    0.4310   22.9590 C   0  0  0  0  0  0  0  0  0  0  0  0
   12.1130    0.8490   23.0680 C   0  0  0  0  0  0  0  0  0  0  0  0
   13.1060   -0.0880   22.8760 C   0  0  0  0  0  0  0  0  0  0  0  0
   12.7470   -1.3960   22.5910 C   0  0  0  0  0  0  0  0  0  0  0  0
   11.4310   -1.7860   22.4860 C   0  0  0  0  0  0  0  0  0  0  0  0
  1  2  1  0
  2  3  2  0
  2  4  2  0
  2  5  1  0
  5  6  1  0
  6  7  1  0
  7  8  1  0
  8  9  2  0
  8 10  1  0
 10 11  1  0
 11 12  2  0
 12 13  1  0
 13 14  2  0
 14 15  1  0
 11 16  1  0
 15 16  2  0
  7 17  1  0
 17 18  2  0
 18 19  1  0
 19 20  2  0
 20 21  1  0
 17 22  1  0
 21 22  2  0
M  END
