DRE-WAB-ae4a693c-1
     RDKit          3D

 22 23  0  0  0  0  0  0  0  0999 V2000
   12.3120   -2.6290   24.4680 C   0  0  0  0  0  0  0  0  0  0  0  0
   12.5790   -1.6140   23.0270 S   0  0  0  0  0  0  0  0  0  0  0  0
   13.0910   -0.3360   23.4600 O   0  0  0  0  0  0  0  0  0  0  0  0
   13.2370   -2.4140   22.0230 O   0  0  0  0  0  0  0  0  0  0  0  0
   11.0170   -1.3700   22.4650 N   0  0  0  0  0  0  0  0  0  0  0  0
   10.1210   -0.6480   23.2810 C   0  0  0  0  0  0  0  0  0  0  0  0
    8.7430   -0.6120   23.0460 C   0  0  1  0  0  0  0  0  0  0  0  0
    8.2800   -0.1860   21.7840 C   0  0  0  0  0  0  0  0  0  0  0  0
    8.8060    0.7910   21.2280 O   0  0  0  0  0  0  0  0  0  0  0  0
    7.1380   -0.8910   21.1460 N   0  0  0  0  0  0  0  0  0  0  0  0
    6.4880   -0.1160   20.0560 C   0  0  0  0  0  0  0  0  0  0  0  0
    5.3180    0.6080   20.3110 C   0  0  0  0  0  0  0  0  0  0  0  0
    4.6980    1.3460   19.2760 C   0  0  0  0  0  0  0  0  0  0  0  0
    5.2420    1.3600   17.9970 C   0  0  0  0  0  0  0  0  0  0  0  0
    6.3920    0.6550   17.7130 N   0  0  0  0  0  0  0  0  0  0  0  0
    7.0000   -0.0910   18.7870 C   0  0  0  0  0  0  0  0  0  0  0  0
    8.0770   -1.9360   23.4740 C   0  0  0  0  0  0  0  0  0  0  0  0
    8.4120   -2.9510   22.5900 C   0  0  0  0  0  0  0  0  0  0  0  0
    7.8230   -4.3300   22.8730 C   0  0  0  0  0  0  0  0  0  0  0  0
    6.9310   -4.4320   24.0990 C   0  0  0  0  0  0  0  0  0  0  0  0
    6.6760   -3.3320   24.9100 C   0  0  0  0  0  0  0  0  0  0  0  0
    7.2380   -2.0890   24.6050 C   0  0  0  0  0  0  0  0  0  0  0  0
  1  2  1  0
  2  3  2  0
  2  4  2  0
  2  5  1  0
  5  6  1  0
  7  6  1  6
  7  8  1  0
  8  9  2  0
  8 10  1  0
 10 11  1  0
 11 12  2  0
 12 13  1  0
 13 14  2  0
 14 15  1  0
 11 16  1  0
 15 16  2  0
  7 17  1  0
 17 18  2  0
 18 19  1  0
 19 20  2  0
 20 21  1  0
 17 22  1  0
 21 22  2  0
M  END
