DRR-SHR-2ae5ab8c-2
     RDKit          3D

 22 23  0  0  0  0  0  0  0  0999 V2000
    4.5980   -7.8390   29.3070 C   0  0  0  0  0  0  0  0  0  0  0  0
    5.4520   -6.6570   29.3790 C   0  0  0  0  0  0  0  0  0  0  0  0
    6.6540   -6.7650   29.1580 O   0  0  0  0  0  0  0  0  0  0  0  0
    7.1510   -5.7410   28.3090 C   0  0  0  0  0  0  0  0  0  0  0  0
    6.5470   -4.4220   28.5790 C   0  0  0  0  0  0  0  0  0  0  0  0
    6.8790   -3.2770   27.8720 C   0  0  0  0  0  0  0  0  0  0  0  0
    7.8630   -3.3600   26.8090 C   0  0  0  0  0  0  0  0  0  0  0  0
    8.2600   -2.3270   26.0680 C   0  0  0  0  0  0  0  0  0  0  0  0
    8.2810   -2.2730   24.6090 C   0  0  0  0  0  0  0  0  0  0  0  0
    8.5500   -1.5430   23.3630 C   0  0  0  0  0  0  0  0  0  0  0  0
    7.3950   -1.5040   22.5100 O   0  0  0  0  0  0  0  0  0  0  0  0
    9.8010   -0.9900   23.1370 C   0  0  0  0  0  0  0  0  0  0  0  0
   10.1680    0.2810   23.5600 C   0  0  0  0  0  0  0  0  0  0  0  0
   11.4320    0.7900   23.2840 C   0  0  0  0  0  0  0  0  0  0  0  0
   11.9590    2.0300   23.5600 C   0  0  0  0  0  0  0  0  0  0  0  0
   12.3740   -0.0840   22.5660 C   0  0  0  0  0  0  0  0  0  0  0  0
   12.0070   -1.3420   22.1410 C   0  0  0  0  0  0  0  0  0  0  0  0
   13.0980   -2.4810   21.2030 Br  0  0  0  0  0  0  0  0  0  0  0  0
   10.7670   -1.8080   22.3870 C   0  0  0  0  0  0  0  0  0  0  0  0
   10.5590   -2.9000   21.9370 O   0  0  0  0  0  0  0  0  0  0  0  0
    8.4990   -4.7090   26.5130 C   0  0  0  0  0  0  0  0  0  0  0  0
    8.1140   -5.8370   27.2810 C   0  0  0  0  0  0  0  0  0  0  0  0
  1  2  1  0
  2  3  1  0
  3  4  1  0
  4  5  2  0
  5  6  1  0
  6  7  2  0
  7  8  1  0
  8  9  2  3
  9 10  1  0
 10 11  2  0
 10 12  1  0
 12 13  2  0
 13 14  1  0
 14 15  1  0
 14 16  2  0
 16 17  1  0
 17 18  1  0
 12 19  1  0
 17 19  2  0
 19 20  1  0
  7 21  1  0
  4 22  1  0
 21 22  2  0
M  END
