DRR-SHR-2ae5ab8c-4
     RDKit          3D

 22 23  0  0  0  0  0  0  0  0999 V2000
    5.8260   -7.6460   29.9670 C   0  0  0  0  0  0  0  0  0  0  0  0
    6.2580   -6.5430   29.1730 C   0  0  0  0  0  0  0  0  0  0  0  0
    5.6350   -6.5520   27.8850 O   0  0  0  0  0  0  0  0  0  0  0  0
    6.0160   -5.5550   27.0370 C   0  0  0  0  0  0  0  0  0  0  0  0
    6.9400   -4.5460   27.6410 C   0  0  0  0  0  0  0  0  0  0  0  0
    7.4160   -3.4540   26.9050 C   0  0  0  0  0  0  0  0  0  0  0  0
    7.0710   -3.2220   25.5710 C   0  0  0  0  0  0  0  0  0  0  0  0
    7.5290   -2.1330   24.8530 C   0  0  0  0  0  0  0  0  0  0  0  0
    8.2060   -2.1940   23.6470 C   0  0  0  0  0  0  0  0  0  0  0  0
    8.5660   -0.9850   23.0340 C   0  0  0  0  0  0  0  0  0  0  0  0
    7.7210   -0.1640   22.6730 O   0  0  0  0  0  0  0  0  0  0  0  0
    9.8970   -0.7050   22.8210 C   0  0  0  0  0  0  0  0  0  0  0  0
   10.5620    0.5320   23.1840 C   0  0  0  0  0  0  0  0  0  0  0  0
   11.9290    0.6220   22.9010 C   0  0  0  0  0  0  0  0  0  0  0  0
   12.7640    1.6620   23.1050 C   0  0  0  0  0  0  0  0  0  0  0  0
   12.7200   -0.4710   22.2830 C   0  0  0  0  0  0  0  0  0  0  0  0
   12.0620   -1.5930   21.9310 C   0  0  0  0  0  0  0  0  0  0  0  0
   13.0500   -3.1130   21.0160 I   0  0  0  0  0  0  0  0  0  0  0  0
   10.7290   -1.7220   22.1600 C   0  0  0  0  0  0  0  0  0  0  0  0
   10.1740   -2.8510   21.7260 O   0  0  0  0  0  0  0  0  0  0  0  0
    6.2130   -4.1460   24.9620 C   0  0  0  0  0  0  0  0  0  0  0  0
    5.6470   -5.3760   25.7080 C   0  0  0  0  0  0  0  0  0  0  0  0
  1  2  1  0
  2  3  1  0
  3  4  1  0
  4  5  2  0
  5  6  1  0
  6  7  2  0
  7  8  1  0
  8  9  2  3
  9 10  1  0
 10 11  2  0
 10 12  1  0
 12 13  2  0
 13 14  1  0
 14 15  1  0
 14 16  2  0
 16 17  1  0
 17 18  1  0
 12 19  1  0
 17 19  2  0
 19 20  1  0
  7 21  1  0
  4 22  1  0
 21 22  2  0
M  END
