DRR-SHR-2ae5ab8c-7
     RDKit          3D

 22 23  0  0  0  0  0  0  0  0999 V2000
    3.6440   -2.7710   24.6710 C   0  0  0  0  0  0  0  0  0  0  0  0
    4.4570   -3.4730   25.4740 C   0  0  0  0  0  0  0  0  0  0  0  0
    4.8310   -4.6000   25.1400 O   0  0  0  0  0  0  0  0  0  0  0  0
    6.0370   -4.8410   25.7400 C   0  0  0  0  0  0  0  0  0  0  0  0
    6.0910   -5.7070   26.8650 C   0  0  0  0  0  0  0  0  0  0  0  0
    7.2770   -6.0200   27.5490 C   0  0  0  0  0  0  0  0  0  0  0  0
    8.4950   -5.4970   27.1550 C   0  0  0  0  0  0  0  0  0  0  0  0
    8.5150   -4.6420   26.0680 C   0  0  0  0  0  0  0  0  0  0  0  0
    7.2590   -4.2690   25.3070 C   0  0  0  0  0  0  0  0  0  0  0  0
    7.4320   -3.3070   24.1570 C   0  0  0  0  0  0  0  0  0  0  0  0
    8.2830   -2.2000   24.2340 C   0  0  0  0  0  0  0  0  0  0  0  0
    8.4710   -1.1790   23.1430 C   0  0  0  0  0  0  0  0  0  0  0  0
    7.5340   -0.6870   22.5150 O   0  0  0  0  0  0  0  0  0  0  0  0
    9.9080   -0.7850   22.8660 C   0  0  0  0  0  0  0  0  0  0  0  0
   10.2830    0.5150   23.1950 C   0  0  0  0  0  0  0  0  0  0  0  0
   11.7510    0.8510   22.8750 C   0  0  0  0  0  0  0  0  0  0  0  0
   12.3120    2.2710   23.0940 C   0  0  0  0  0  0  0  0  0  0  0  0
   12.5970   -0.1200   22.3500 C   0  0  0  0  0  0  0  0  0  0  0  0
   12.0780   -1.3620   22.0560 C   0  0  0  0  0  0  0  0  0  0  0  0
   13.0520   -2.7310   21.2740 Br  0  0  0  0  0  0  0  0  0  0  0  0
   10.7810   -1.6400   22.3040 C   0  0  0  0  0  0  0  0  0  0  0  0
   10.4130   -2.9120   21.8940 O   0  0  0  0  0  0  0  0  0  0  0  0
  1  2  1  0
  2  3  1  0
  3  4  1  0
  4  5  2  0
  5  6  1  0
  6  7  2  0
  7  8  1  0
  4  9  1  0
  8  9  2  0
  9 10  1  0
 10 11  2  3
 11 12  1  0
 12 13  2  0
 12 14  1  0
 14 15  2  0
 15 16  1  0
 16 17  1  0
 16 18  2  0
 18 19  1  0
 19 20  1  0
 14 21  1  0
 19 21  2  0
 21 22  1  0
M  END
