DRR-SHR-2ae5ab8c-9
     RDKit          3D

 22 23  0  0  0  0  0  0  0  0999 V2000
    7.8830   -0.1310   27.4880 C   0  0  0  0  0  0  0  0  0  0  0  0
    6.8730   -1.2140   27.6150 C   0  0  0  0  0  0  0  0  0  0  0  0
    6.6570   -1.8480   26.3580 O   0  0  0  0  0  0  0  0  0  0  0  0
    6.2210   -3.1500   26.2970 C   0  0  0  0  0  0  0  0  0  0  0  0
    5.8320   -3.9410   27.5700 C   0  0  0  0  0  0  0  0  0  0  0  0
    5.3600   -5.3970   27.2760 C   0  0  0  0  0  0  0  0  0  0  0  0
    5.3540   -5.7670   25.9640 C   0  0  0  0  0  0  0  0  0  0  0  0
    5.7800   -4.7510   25.1610 C   0  0  0  0  0  0  0  0  0  0  0  0
    6.1760   -3.6600   24.9490 C   0  0  0  0  0  0  0  0  0  0  0  0
    6.6260   -2.5400   24.2760 C   0  0  0  0  0  0  0  0  0  0  0  0
    7.7030   -2.5690   23.3690 C   0  0  0  0  0  0  0  0  0  0  0  0
    8.0960   -1.2470   22.7560 C   0  0  0  0  0  0  0  0  0  0  0  0
    7.2520   -0.5250   22.2310 O   0  0  0  0  0  0  0  0  0  0  0  0
    9.4190   -0.8010   22.7640 C   0  0  0  0  0  0  0  0  0  0  0  0
    9.7360    0.5920   23.2940 C   0  0  0  0  0  0  0  0  0  0  0  0
   11.1970    1.0180   23.2290 C   0  0  0  0  0  0  0  0  0  0  0  0
   11.4390    2.4100   23.6820 C   0  0  0  0  0  0  0  0  0  0  0  0
   12.1830    0.1930   22.7600 C   0  0  0  0  0  0  0  0  0  0  0  0
   11.7200   -1.1490   22.2700 C   0  0  0  0  0  0  0  0  0  0  0  0
   13.0250   -2.4520   21.4790 I   0  0  0  0  0  0  0  0  0  0  0  0
   10.4280   -1.5790   22.2810 C   0  0  0  0  0  0  0  0  0  0  0  0
   10.1300   -2.8030   21.7810 O   0  0  0  0  0  0  0  0  0  0  0  0
  1  2  1  0
  2  3  1  0
  3  4  1  0
  4  5  2  0
  5  6  1  0
  6  7  2  0
  7  8  1  0
  4  9  1  0
  8  9  2  0
  9 10  1  0
 10 11  2  3
 11 12  1  0
 12 13  2  0
 12 14  1  0
 14 15  2  0
 15 16  1  0
 16 17  1  0
 16 18  2  0
 18 19  1  0
 19 20  1  0
 14 21  1  0
 19 21  2  0
 21 22  1  0
M  END
