DRR-SHR-2ae5ab8c-1
     RDKit          3D

 22 23  0  0  0  0  0  0  0  0999 V2000
    5.8680   -7.6740   30.1600 C   0  0  0  0  0  0  0  0  0  0  0  0
    6.1850   -6.5630   29.2210 C   0  0  0  0  0  0  0  0  0  0  0  0
    5.6200   -6.4420   28.1520 O   0  0  0  0  0  0  0  0  0  0  0  0
    6.3140   -5.7690   27.2020 C   0  0  0  0  0  0  0  0  0  0  0  0
    7.7940   -5.5950   27.0520 C   0  0  0  0  0  0  0  0  0  0  0  0
    8.4140   -4.8090   25.9430 C   0  0  0  0  0  0  0  0  0  0  0  0
    7.5560   -4.2600   25.0770 C   0  0  0  0  0  0  0  0  0  0  0  0
    7.8990   -3.4360   23.9180 C   0  0  0  0  0  0  0  0  0  0  0  0
    8.1920   -1.9990   24.2170 C   0  0  0  0  0  0  0  0  0  0  0  0
    8.5150   -0.9750   23.1630 C   0  0  0  0  0  0  0  0  0  0  0  0
    7.6330   -0.3270   22.6020 O   0  0  0  0  0  0  0  0  0  0  0  0
    9.9590   -0.7770   22.8300 C   0  0  0  0  0  0  0  0  0  0  0  0
   10.5870    0.5160   23.1220 C   0  0  0  0  0  0  0  0  0  0  0  0
   11.8880    0.7510   22.8460 C   0  0  0  0  0  0  0  0  0  0  0  0
   12.5530    2.2880   23.1040 Cl  0  0  0  0  0  0  0  0  0  0  0  0
   12.7250   -0.2690   22.2960 C   0  0  0  0  0  0  0  0  0  0  0  0
   12.1150   -1.4260   22.0140 C   0  0  0  0  0  0  0  0  0  0  0  0
   13.0520   -2.8110   21.2110 Br  0  0  0  0  0  0  0  0  0  0  0  0
   10.7070   -1.7100   22.2590 C   0  0  0  0  0  0  0  0  0  0  0  0
   10.1070   -2.8650   21.9170 O   0  0  0  0  0  0  0  0  0  0  0  0
    6.1550   -4.4370   25.2280 C   0  0  0  0  0  0  0  0  0  0  0  0
    5.5520   -5.1510   26.2330 C   0  0  0  0  0  0  0  0  0  0  0  0
  1  2  1  0
  2  3  1  0
  3  4  1  0
  4  5  2  0
  5  6  1  0
  6  7  2  0
  7  8  1  0
  8  9  2  3
  9 10  1  0
 10 11  2  0
 10 12  1  0
 12 13  2  0
 13 14  1  0
 14 15  1  0
 14 16  2  0
 16 17  1  0
 17 18  1  0
 12 19  1  0
 17 19  2  0
 19 20  1  0
  7 21  1  0
  4 22  1  0
 21 22  2  0
M  END
