DRV-DNY-5c7d8ee8-2
     RDKit          3D

 20 23  0  0  0  0  0  0  0  0999 V2000
   13.4150    0.4670   23.4520 Br  0  0  0  0  0  0  0  0  0  0  0  0
   12.5830   -1.1050   24.0750 C   0  0  0  0  0  0  0  0  0  0  0  0
   13.1880   -2.2040   25.0410 C   0  0  0  0  0  0  0  0  0  0  0  0
   12.4090   -3.3910   25.3590 C   0  0  0  0  0  0  0  0  0  0  0  0
   11.1080   -3.5360   24.7630 C   0  0  0  0  0  0  0  0  0  0  0  0
   10.1690   -4.5050   24.8030 O   0  0  0  0  0  0  0  0  0  0  0  0
    9.1030   -3.9810   24.0120 C   0  0  0  0  0  0  0  0  0  0  0  0
    7.7150   -4.1230   23.5100 C   0  0  0  0  0  0  0  0  0  0  0  0
    8.8090   -4.1050   22.7030 C   0  0  0  0  0  0  0  0  0  0  0  0
    8.7520   -4.1110   21.3570 N   0  0  0  0  0  0  0  0  0  0  0  0
    7.4170   -4.0140   21.0440 C   0  0  0  0  0  0  0  0  0  0  0  0
    7.3260   -4.0010   22.5120 C   0  0  0  0  0  0  0  0  0  0  0  0
    6.7050   -3.9990   23.8060 C   0  0  0  0  0  0  0  0  0  0  0  0
    5.3290   -3.9210   23.7310 C   0  0  0  0  0  0  0  0  0  0  0  0
    4.8900   -3.8880   22.3040 C   0  0  0  0  0  0  0  0  0  0  0  0
    6.2500   -3.9470   21.3670 C   0  0  0  0  0  0  0  0  0  0  0  0
    7.2290   -4.0640   22.8010 N   0  0  0  0  0  0  0  0  0  0  0  0
    9.4840   -2.7500   23.4690 N   0  0  0  0  0  0  0  0  0  0  0  0
   10.6830   -2.5530   23.9770 C   0  0  0  0  0  0  0  0  0  0  0  0
   11.3410   -1.3010   23.5670 C   0  0  0  0  0  0  0  0  0  0  0  0
  1  2  1  0
  2  3  2  0
  3  4  1  0
  4  5  2  0
  5  6  1  0
  6  7  1  0
  7  8  1  0
  8  9  2  0
  9 10  1  0
 10 11  2  0
 11 12  1  0
 12 13  2  0
 13 14  1  0
 14 15  2  0
 11 16  1  0
 15 16  1  0
  8 17  1  0
 16 17  2  0
  7 18  2  0
  5 19  1  0
 18 19  1  0
  2 20  1  0
 19 20  2  0
M  END
