DRV-DNY-3e405af9-8
     RDKit          3D

 34 38  0  0  0  0  0  0  0  0999 V2000
    9.9890    2.6760   21.9820 O   0  0  0  0  0  0  0  0  0  0  0  0
    9.0430    2.1700   21.3650 N   0  0  0  0  0  0  0  0  0  0  0  0
    8.0820    2.8190   20.9550 O   0  0  0  0  0  0  0  0  0  0  0  0
    8.7240    1.0250   21.7670 C   0  0  0  0  0  0  0  0  0  0  0  0
    9.3920    0.4710   23.0080 C   0  0  0  0  0  0  0  0  0  0  0  0
    8.9870   -0.8760   23.5350 C   0  0  0  0  0  0  0  0  0  0  0  0
    7.9890   -1.5290   22.8070 C   0  0  0  0  0  0  0  0  0  0  0  0
    7.5840   -2.7260   23.3890 N   0  0  0  0  0  0  0  0  0  0  0  0
    6.3060   -3.1520   23.1060 N   0  0  0  0  0  0  0  0  0  0  0  0
    6.1860   -4.1950   23.8540 C   0  0  0  0  0  0  0  0  0  0  0  0
    5.1270   -5.0930   24.1050 C   0  0  0  0  0  0  0  0  0  0  0  0
    5.3230   -5.9070   25.2130 C   0  0  0  0  0  0  0  0  0  0  0  0
    4.4060   -6.8680   25.6430 C   0  0  0  0  0  0  0  0  0  0  0  0
    3.1290   -7.0700   24.9070 C   0  0  0  0  0  0  0  0  0  0  0  0
    2.1680   -8.0000   25.2510 C   0  0  0  0  0  0  0  0  0  0  0  0
    1.0110   -8.0810   24.4810 C   0  0  0  0  0  0  0  0  0  0  0  0
    0.7740   -7.2550   23.3680 C   0  0  0  0  0  0  0  0  0  0  0  0
    1.7420   -6.3000   22.9980 C   0  0  0  0  0  0  0  0  0  0  0  0
    2.9400   -6.1500   23.7060 C   0  0  0  0  0  0  0  0  0  0  0  0
    3.9440   -5.2050   23.3550 C   0  0  0  0  0  0  0  0  0  0  0  0
    7.3770   -4.3450   24.5020 C   0  0  0  0  0  0  0  0  0  0  0  0
    8.4900   -3.3270   24.2570 C   0  0  0  0  0  0  0  0  0  0  0  0
    8.8160   -4.3520   25.1950 C   0  0  0  0  0  0  0  0  0  0  0  0
    9.3430   -5.2640   25.8380 C   0  0  0  0  0  0  0  0  0  0  0  0
    8.8220   -5.9050   26.9790 C   0  0  0  0  0  0  0  0  0  0  0  0
    7.5940   -5.5600   27.5410 C   0  0  0  0  0  0  0  0  0  0  0  0
    6.7440   -6.3190   29.0220 Br  0  0  0  0  0  0  0  0  0  0  0  0
    6.9310   -4.5770   26.9590 C   0  0  0  0  0  0  0  0  0  0  0  0
    7.5900   -3.9910   25.7690 C   0  0  0  0  0  0  0  0  0  0  0  0
    7.4150   -0.9860   21.6280 C   0  0  0  0  0  0  0  0  0  0  0  0
    6.3850   -1.6780   20.8720 N   0  0  0  0  0  0  0  0  0  0  0  0
    6.1290   -1.1550   19.7790 O   0  0  0  0  0  0  0  0  0  0  0  0
    5.5800   -2.3420   21.5270 O   0  0  0  0  0  0  0  0  0  0  0  0
    7.7640    0.2650   21.1050 C   0  0  0  0  0  0  0  0  0  0  0  0
  1  2  2  0
  2  3  1  0
  2  4  1  0
  4  5  2  0
  5  6  1  0
  6  7  2  0
  7  8  1  0
  8  9  1  0
  9 10  2  0
 10 11  1  0
 11 12  2  0
 12 13  1  0
 13 14  2  0
 14 15  1  0
 15 16  2  0
 16 17  1  0
 17 18  2  0
 14 19  1  0
 18 19  1  0
 11 20  1  0
 19 20  2  0
 10 21  1  0
  8 22  1  0
 21 22  2  0
 22 23  1  0
 23 24  2  0
 24 25  1  0
 25 26  2  0
 26 27  1  0
 26 28  1  0
 23 29  1  0
 28 29  2  0
  7 30  1  0
 30 31  1  0
 31 32  2  0
 31 33  1  0
  4 34  1  0
 30 34  2  0
M  CHG  4   2   1   3  -1  31   1  33  -1
M  END
