DRV-DNY-ae159ed1-18
     RDKit          3D

 24 27  0  0  0  0  0  0  0  0999 V2000
    7.3060   -0.2120   24.1970 O   0  0  0  0  0  0  0  0  0  0  0  0
    8.1220   -0.6870   24.9660 C   0  0  0  0  0  0  0  0  0  0  0  0
    7.8250   -0.7980   26.3240 C   0  0  0  0  0  0  0  0  0  0  0  0
    8.0210    0.2680   27.2270 C   0  0  0  0  0  0  0  0  0  0  0  0
    7.8260    0.2620   28.7170 C   0  0  0  0  0  0  0  0  0  0  0  0
    6.5650   -0.0510   29.4580 C   0  0  0  0  0  0  0  0  0  0  0  0
    6.5060   -0.0320   30.8150 N   0  0  0  0  0  0  0  0  0  0  0  0
    7.6410    0.2790   31.5080 C   0  0  0  0  0  0  0  0  0  0  0  0
    7.5710    0.2890   32.9170 C   0  0  0  0  0  0  0  0  0  0  0  0
    8.6610    0.5890   33.7480 C   0  0  0  0  0  0  0  0  0  0  0  0
    9.8790    0.8950   33.1390 C   0  0  0  0  0  0  0  0  0  0  0  0
    9.9880    0.8930   31.5990 C   0  0  0  0  0  0  0  0  0  0  0  0
    8.8670    0.5860   30.8640 C   0  0  0  0  0  0  0  0  0  0  0  0
    8.9530    0.5790   29.5030 N   0  0  0  0  0  0  0  0  0  0  0  0
    9.4500   -1.1560   24.4340 C   0  0  0  0  0  0  0  0  0  0  0  0
   10.6000   -1.3020   25.1850 C   0  0  0  0  0  0  0  0  0  0  0  0
   11.8750   -1.6920   24.7370 C   0  0  0  0  0  0  0  0  0  0  0  0
   11.9880   -1.9410   23.4490 C   0  0  0  0  0  0  0  0  0  0  0  0
   13.1820   -2.2950   22.8690 C   0  0  0  0  0  0  0  0  0  0  0  0
   13.1500   -2.5370   21.5380 C   0  0  0  0  0  0  0  0  0  0  0  0
   11.9970   -2.4280   20.8940 C   0  0  0  0  0  0  0  0  0  0  0  0
   10.8220   -2.0690   21.4710 C   0  0  0  0  0  0  0  0  0  0  0  0
   10.8380   -1.8260   22.7110 C   0  0  0  0  0  0  0  0  0  0  0  0
    9.5850   -1.4510   23.1400 C   0  0  0  0  0  0  0  0  0  0  0  0
  1  2  2  0
  2  3  1  0
  3  4  2  3
  4  5  1  0
  5  6  2  0
  6  7  1  0
  7  8  2  0
  8  9  1  0
  9 10  2  0
 10 11  1  0
 11 12  2  0
  8 13  1  0
 12 13  1  0
  5 14  1  0
 13 14  2  0
  2 15  1  0
 15 16  2  0
 16 17  1  0
 17 18  2  0
 18 19  1  0
 19 20  2  0
 20 21  1  0
 21 22  2  0
 18 23  1  0
 22 23  1  0
 15 24  1  0
 23 24  2  0
M  END
