DRV-UNK-dd7f8c68-9
     RDKit          3D

 34 38  0  0  0  0  0  0  0  0999 V2000
    9.1660   -3.6470   24.1880 N   0  0  0  0  0  0  0  0  0  0  0  0
    9.9150   -2.6210   25.2940 S   0  0  0  0  0  0  0  0  0  0  0  0
   10.5070   -3.4820   26.2800 O   0  0  0  0  0  0  0  0  0  0  0  0
    8.8110   -1.7300   25.5230 O   0  0  0  0  0  0  0  0  0  0  0  0
   11.1910   -1.7740   24.3640 C   0  0  0  0  0  0  0  0  0  0  0  0
   12.1710   -2.6610   23.8540 C   0  0  0  0  0  0  0  0  0  0  0  0
   13.1980   -2.2770   23.0160 C   0  0  0  0  0  0  0  0  0  0  0  0
   13.9480   -3.3620   22.6470 C   0  0  2  0  0  0  0  0  0  0  0  0
   15.1410   -3.8760   23.2940 N   0  0  0  0  0  0  0  0  0  0  0  0
   16.1000   -4.7360   22.2820 C   0  0  0  0  0  0  0  0  0  0  0  0
   17.1890   -5.1890   22.3580 O   0  0  0  0  0  0  0  0  0  0  0  0
   15.4860   -4.7790   21.2090 C   0  0  0  0  0  0  0  0  0  0  0  0
   16.0970   -5.3830   20.1270 C   0  0  0  0  0  0  0  0  0  0  0  0
   15.4680   -5.4370   19.0860 C   0  0  0  0  0  0  0  0  0  0  0  0
   14.2140   -4.8370   19.2060 C   0  0  0  0  0  0  0  0  0  0  0  0
   13.6170   -4.3000   20.0340 C   0  0  0  0  0  0  0  0  0  0  0  0
   14.2400   -4.1450   21.2560 C   0  0  0  0  0  0  0  0  0  0  0  0
   13.2560   -0.7920   22.6790 C   0  0  0  0  0  0  0  0  0  0  0  0
   12.2710    0.1170   23.2740 C   0  0  0  0  0  0  0  0  0  0  0  0
   11.3090   -0.4360   24.0720 C   0  0  0  0  0  0  0  0  0  0  0  0
   10.4790    0.5200   24.4970 N   0  0  0  0  0  0  0  0  0  0  0  0
    9.1990    0.1000   24.4290 C   0  0  0  0  0  0  0  0  0  0  0  0
    8.9710   -0.4750   23.0570 C   0  0  0  0  0  0  0  0  0  0  0  0
    9.2070    0.6770   22.1880 N   0  0  0  0  0  0  0  0  0  0  0  0
    8.3860    1.0920   21.3050 C   0  0  0  0  0  0  0  0  0  0  0  0
    8.5720    2.2150   20.8700 O   0  0  0  0  0  0  0  0  0  0  0  0
    7.2770    0.4460   20.8150 C   0  0  0  0  0  0  0  0  0  0  0  0
    6.2920    1.2700   20.2640 C   0  0  0  0  0  0  0  0  0  0  0  0
    5.1520    0.8340   19.7360 N   0  0  0  0  0  0  0  0  0  0  0  0
    4.9310   -0.5970   19.7370 C   0  0  0  0  0  0  0  0  0  0  0  0
    6.0480   -1.4080   20.3580 C   0  0  0  0  0  0  0  0  0  0  0  0
    7.1740   -0.9060   20.8760 N   0  0  0  0  0  0  0  0  0  0  0  0
    9.7050    1.8840   22.8710 C   0  0  0  0  0  0  0  0  0  0  0  0
   10.7860    1.6230   23.6400 C   0  0  0  0  0  0  0  0  0  0  0  0
  2  1  1  0
  2  3  2  0
  2  4  2  0
  2  5  1  0
  5  6  2  0
  6  7  1  0
  8  7  1  6
  8  9  1  0
  9 10  1  0
 10 11  2  0
 10 12  1  0
 12 13  1  0
 13 14  2  0
 14 15  1  0
 15 16  2  0
  8 17  1  0
 12 17  2  0
 16 17  1  0
  7 18  2  0
 18 19  1  0
  5 20  1  0
 19 20  2  0
 20 21  1  0
 21 22  1  0
 22 23  1  0
 23 24  1  0
 24 25  1  0
 25 26  2  0
 25 27  1  0
 27 28  2  0
 28 29  1  0
 29 30  2  0
 30 31  1  0
 27 32  1  0
 31 32  2  0
 24 33  1  0
 21 34  1  0
 33 34  1  0
M  END
