DRV-DNY-3e405af9-4
     RDKit          3D

 30 33  0  0  0  0  0  0  0  0999 V2000
   -1.2260   -9.4980   22.3090 O   0  0  0  0  0  0  0  0  0  0  0  0
   -0.5300   -9.3960   23.3180 N   0  0  0  0  0  0  0  0  0  0  0  0
   -0.6380  -10.1050   24.3260 O   0  0  0  0  0  0  0  0  0  0  0  0
    0.4140   -8.2760   23.3690 C   0  0  0  0  0  0  0  0  0  0  0  0
    0.1800   -7.1340   22.6220 C   0  0  0  0  0  0  0  0  0  0  0  0
    1.1000   -6.0900   22.7040 C   0  0  0  0  0  0  0  0  0  0  0  0
    2.3330   -6.1150   23.5420 C   0  0  0  0  0  0  0  0  0  0  0  0
    3.2280   -4.9700   23.5630 N   0  0  0  0  0  0  0  0  0  0  0  0
    4.4260   -4.9290   22.8380 N   0  0  0  0  0  0  0  0  0  0  0  0
    5.0090   -3.7090   23.1030 C   0  0  0  0  0  0  0  0  0  0  0  0
    6.2300   -3.1530   22.6490 C   0  0  0  0  0  0  0  0  0  0  0  0
    7.3800   -3.6180   23.3200 C   0  0  0  0  0  0  0  0  0  0  0  0
    8.6660   -3.1600   23.0240 C   0  0  0  0  0  0  0  0  0  0  0  0
    8.7710   -2.2080   22.0180 C   0  0  0  0  0  0  0  0  0  0  0  0
    7.4820   -1.7400   21.3120 C   0  0  0  0  0  0  0  0  0  0  0  0
    6.3000   -2.2100   21.6300 N   0  0  0  0  0  0  0  0  0  0  0  0
    4.2040   -2.9810   23.9660 C   0  0  0  0  0  0  0  0  0  0  0  0
    3.0960   -3.7280   24.2770 C   0  0  0  0  0  0  0  0  0  0  0  0
    2.0100   -3.4270   25.1040 C   0  0  0  0  0  0  0  0  0  0  0  0
    0.8260   -4.1720   25.0370 C   0  0  0  0  0  0  0  0  0  0  0  0
   -0.2560   -3.8670   25.8610 C   0  0  0  0  0  0  0  0  0  0  0  0
   -0.1660   -2.8090   26.7600 C   0  0  0  0  0  0  0  0  0  0  0  0
   -1.2560   -2.5270   27.5660 F   0  0  0  0  0  0  0  0  0  0  0  0
    1.0020   -2.0510   26.8460 C   0  0  0  0  0  0  0  0  0  0  0  0
    2.1050   -2.3590   26.0090 C   0  0  0  0  0  0  0  0  0  0  0  0
    2.4800   -7.3190   24.2600 C   0  0  0  0  0  0  0  0  0  0  0  0
    3.5820   -7.5920   25.1400 N   0  0  0  0  0  0  0  0  0  0  0  0
    3.5270   -7.1160   26.2860 O   0  0  0  0  0  0  0  0  0  0  0  0
    4.5900   -7.9500   24.5810 O   0  0  0  0  0  0  0  0  0  0  0  0
    1.5560   -8.3670   24.1790 C   0  0  0  0  0  0  0  0  0  0  0  0
  1  2  2  0
  2  3  1  0
  2  4  1  0
  4  5  2  0
  5  6  1  0
  6  7  2  0
  7  8  1  0
  8  9  1  0
  9 10  2  0
 10 11  1  0
 11 12  2  0
 12 13  1  0
 13 14  2  0
 14 15  1  0
 11 16  1  0
 15 16  2  0
 10 17  1  0
  8 18  1  0
 17 18  2  0
 18 19  1  0
 19 20  2  0
 20 21  1  0
 21 22  2  0
 22 23  1  0
 22 24  1  0
 19 25  1  0
 24 25  2  0
  7 26  1  0
 26 27  1  0
 27 28  2  0
 27 29  1  0
  4 30  1  0
 26 30  2  0
M  CHG  4   2   1   3  -1  27   1  29  -1
M  END
