DRV-UNK-64047f27-9
     RDKit          3D

 30 33  0  0  0  0  0  0  0  0999 V2000
   10.1570   -6.2020   13.7540 C   0  0  0  0  0  0  0  0  0  0  0  0
   10.8540   -6.8070   15.1030 O   0  0  0  0  0  0  0  0  0  0  0  0
   11.1170   -6.2910   16.0600 C   0  0  0  0  0  0  0  0  0  0  0  0
    9.9110   -5.5960   17.2160 C   0  0  0  0  0  0  0  0  0  0  0  0
   10.1950   -4.9810   18.0350 C   0  0  0  0  0  0  0  0  0  0  0  0
    9.2160   -4.2930   18.9600 N   0  0  0  0  0  0  0  0  0  0  0  0
    8.4020   -3.1860   18.7170 C   0  0  0  0  0  0  0  0  0  0  0  0
    8.0470   -2.8000   17.5040 C   0  0  0  0  0  0  0  0  0  0  0  0
    7.4260   -1.6660   17.5650 C   0  0  0  0  0  0  0  0  0  0  0  0
    6.9560   -0.7410   17.9890 C   0  0  0  0  0  0  0  0  0  0  0  0
    6.3470    0.4150   18.0610 C   0  0  1  0  0  0  0  0  0  0  0  0
    4.9140    0.3830   18.0990 N   0  0  0  0  0  0  0  0  0  0  0  0
    4.4020    1.1550   19.1820 C   0  0  0  0  0  0  0  0  0  0  0  0
    3.2920    1.6670   19.2510 O   0  0  0  0  0  0  0  0  0  0  0  0
    5.5090    1.2300   20.2240 C   0  0  0  0  0  0  0  0  0  0  0  0
    5.3780    1.6260   21.4910 C   0  0  0  0  0  0  0  0  0  0  0  0
    3.9560    1.9090   21.4240 C   0  0  0  0  0  0  0  0  0  0  0  0
    3.6260    1.5550   19.9520 C   0  0  0  0  0  0  0  0  0  0  0  0
    4.8180    1.0250   19.0010 C   0  0  0  0  0  0  0  0  0  0  0  0
    6.3460    0.8220   19.4200 C   0  0  0  0  0  0  0  0  0  0  0  0
    7.1800   -1.0190   19.3690 C   0  0  0  0  0  0  0  0  0  0  0  0
    7.8670   -2.1710   19.8110 C   0  0  0  0  0  0  0  0  0  0  0  0
    8.1300   -2.3540   21.5610 S   0  0  0  0  0  0  0  0  0  0  0  0
    9.7280   -1.7950   21.6820 N   0  0  0  0  0  0  0  0  0  0  0  0
    7.3180   -1.4000   22.2790 O   0  0  0  0  0  0  0  0  0  0  0  0
    8.1740   -3.7400   21.9390 O   0  0  0  0  0  0  0  0  0  0  0  0
   11.9300   -5.0670   17.8400 C   0  0  0  0  0  0  0  0  0  0  0  0
   13.1760   -4.4210   19.1090 C   0  0  0  0  0  0  0  0  0  0  0  0
   12.4900   -5.7990   16.5940 C   0  0  0  0  0  0  0  0  0  0  0  0
   12.1720   -6.3350   15.8480 N   0  0  0  0  0  0  0  0  0  0  0  0
  1  2  1  0
  2  3  1  0
  3  4  2  0
  4  5  1  0
  5  6  1  0
  6  7  1  0
  7  8  2  0
  8  9  1  0
  9 10  2  0
 11 10  1  1
 11 12  1  0
 12 13  1  0
 13 14  2  0
 13 15  1  0
 15 16  1  0
 16 17  2  0
 17 18  1  0
 18 19  2  0
 11 20  1  0
 15 20  2  0
 19 20  1  0
 10 21  1  0
  7 22  1  0
 21 22  2  0
 22 23  1  0
 23 24  1  0
 23 25  2  0
 23 26  2  0
  5 27  2  0
 27 28  1  0
 27 29  1  0
  3 30  1  0
 29 30  2  0
M  END
