DRV-DNY-5c7d8ee8-11
     RDKit          3D

 25 28  0  0  0  0  0  0  0  0999 V2000
    5.2810   -7.0060   22.7730 O   0  0  0  0  0  0  0  0  0  0  0  0
    4.6580   -6.2450   22.0370 N   0  0  0  0  0  0  0  0  0  0  0  0
    3.5190   -5.8740   22.3660 O   0  0  0  0  0  0  0  0  0  0  0  0
    5.5110   -5.1470   21.6430 C   0  0  0  0  0  0  0  0  0  0  0  0
    5.5320   -4.2030   20.6240 C   0  0  0  0  0  0  0  0  0  0  0  0
    5.4690   -3.2820   19.5450 C   0  0  0  0  0  0  0  0  0  0  0  0
    6.2060   -1.7610   18.6930 Br  0  0  0  0  0  0  0  0  0  0  0  0
    6.5180   -3.2200   20.5230 C   0  0  0  0  0  0  0  0  0  0  0  0
    7.1170   -3.8110   21.7560 C   0  0  0  0  0  0  0  0  0  0  0  0
    8.2050   -3.2740   22.2050 C   0  0  0  0  0  0  0  0  0  0  0  0
    8.6330   -3.8800   23.3040 C   0  0  0  0  0  0  0  0  0  0  0  0
    9.7440   -3.2830   23.6220 C   0  0  0  0  0  0  0  0  0  0  0  0
   10.0320   -2.0780   23.2710 N   0  0  0  0  0  0  0  0  0  0  0  0
   11.2220   -1.9710   23.7340 C   0  0  0  0  0  0  0  0  0  0  0  0
   12.0560   -0.7660   23.5850 C   0  0  0  0  0  0  0  0  0  0  0  0
   13.3250   -0.5910   24.0530 C   0  0  0  0  0  0  0  0  0  0  0  0
   12.6190    0.8850   23.0990 Br  0  0  0  0  0  0  0  0  0  0  0  0
   13.5610   -1.8800   24.7150 C   0  0  0  0  0  0  0  0  0  0  0  0
   12.8370   -3.0100   24.8730 C   0  0  0  0  0  0  0  0  0  0  0  0
   11.6280   -3.0710   24.3620 C   0  0  0  0  0  0  0  0  0  0  0  0
   10.7690   -3.9590   24.3470 O   0  0  0  0  0  0  0  0  0  0  0  0
    8.0610   -5.0320   24.0820 C   0  0  0  0  0  0  0  0  0  0  0  0
    8.6350   -5.7710   25.5170 Cl  0  0  0  0  0  0  0  0  0  0  0  0
    6.9490   -5.6140   23.6320 N   0  0  0  0  0  0  0  0  0  0  0  0
    6.5320   -4.9050   22.4040 C   0  0  0  0  0  0  0  0  0  0  0  0
  1  2  2  0
  2  3  1  0
  2  4  1  0
  4  5  2  0
  5  6  1  0
  6  7  1  0
  6  8  2  0
  8  9  1  0
  9 10  1  0
 10 11  2  0
 11 12  1  0
 12 13  2  0
 13 14  1  0
 14 15  2  0
 15 16  1  0
 16 17  1  0
 16 18  2  0
 18 19  1  0
 14 20  1  0
 19 20  2  0
 12 21  1  0
 20 21  1  0
 11 22  1  0
 22 23  1  0
 22 24  2  0
  4 25  1  0
  9 25  2  0
 24 25  1  0
M  CHG  2   2   1   3  -1
M  END
