DRV-DNY-5c7d8ee8-7
     RDKit          3D

 22 25  0  0  0  0  0  0  0  0999 V2000
    8.8090   -5.9250   25.1750 Cl  0  0  0  0  0  0  0  0  0  0  0  0
    8.0140   -5.3310   23.7910 C   0  0  0  0  0  0  0  0  0  0  0  0
    6.7870   -6.0010   23.3040 N   0  0  0  0  0  0  0  0  0  0  0  0
    6.4120   -5.1710   22.1600 C   0  0  0  0  0  0  0  0  0  0  0  0
    5.3870   -5.0930   21.1420 C   0  0  0  0  0  0  0  0  0  0  0  0
    5.4110   -3.8860   20.0960 C   0  0  0  0  0  0  0  0  0  0  0  0
    6.4250   -2.9690   20.2330 C   0  0  0  0  0  0  0  0  0  0  0  0
    5.9790   -1.7670   18.8500 Br  0  0  0  0  0  0  0  0  0  0  0  0
    6.0560   -4.0840   20.8360 C   0  0  0  0  0  0  0  0  0  0  0  0
    7.0220   -4.0880   21.6810 C   0  0  0  0  0  0  0  0  0  0  0  0
    8.1030   -3.5730   22.1450 C   0  0  0  0  0  0  0  0  0  0  0  0
    8.5910   -4.2400   23.2260 C   0  0  0  0  0  0  0  0  0  0  0  0
    9.6850   -3.6910   23.6180 C   0  0  0  0  0  0  0  0  0  0  0  0
    9.8130   -2.4240   23.1580 N   0  0  0  0  0  0  0  0  0  0  0  0
   10.9680   -2.1110   23.5660 C   0  0  0  0  0  0  0  0  0  0  0  0
   11.4390   -0.9490   23.2580 C   0  0  0  0  0  0  0  0  0  0  0  0
   12.6480   -0.7140   23.6820 C   0  0  0  0  0  0  0  0  0  0  0  0
   13.0850    0.9770   23.0450 Br  0  0  0  0  0  0  0  0  0  0  0  0
   13.3510   -1.6890   24.4550 C   0  0  0  0  0  0  0  0  0  0  0  0
   12.8130   -2.9170   24.7870 C   0  0  0  0  0  0  0  0  0  0  0  0
   11.5680   -3.1210   24.2960 C   0  0  0  0  0  0  0  0  0  0  0  0
   10.7100   -4.1960   24.3590 O   0  0  0  0  0  0  0  0  0  0  0  0
  1  2  1  0
  2  3  2  0
  3  4  1  0
  4  5  2  0
  5  6  1  0
  6  7  2  0
  7  8  1  0
  7  9  1  0
  4 10  1  0
  9 10  2  0
 10 11  1  0
  2 12  1  0
 11 12  2  0
 12 13  1  0
 13 14  2  0
 14 15  1  0
 15 16  2  0
 16 17  1  0
 17 18  1  0
 17 19  2  0
 19 20  1  0
 15 21  1  0
 20 21  2  0
 13 22  1  0
 21 22  1  0
M  END
