DRV-DNY-5c7d8ee8-1
     RDKit          3D

 19 22  0  0  0  0  0  0  0  0999 V2000
    6.1770   -6.3540   21.9320 C   0  0  0  0  0  0  0  0  0  0  0  0
    6.2270   -5.5670   23.0450 C   0  0  0  0  0  0  0  0  0  0  0  0
    5.8140   -4.2300   22.9160 C   0  0  1  0  0  0  0  0  0  0  0  0
    6.6300   -3.5070   23.7240 N   0  0  0  0  0  0  0  0  0  0  0  0
    7.8510   -3.4690   23.0540 C   0  0  0  0  0  0  0  0  0  0  0  0
    9.1460   -2.9190   23.4010 C   0  0  0  0  0  0  0  0  0  0  0  0
    9.8870   -3.7080   24.0350 C   0  0  0  0  0  0  0  0  0  0  0  0
   11.0370   -3.8910   24.5890 N   0  0  0  0  0  0  0  0  0  0  0  0
   11.7660   -2.8470   24.4570 C   0  0  0  0  0  0  0  0  0  0  0  0
   12.9550   -2.9870   25.0050 C   0  0  0  0  0  0  0  0  0  0  0  0
   13.6820   -1.9360   24.8470 C   0  0  0  0  0  0  0  0  0  0  0  0
   13.1390   -0.6740   24.0840 C   0  0  0  0  0  0  0  0  0  0  0  0
   11.8810   -0.6500   23.5720 C   0  0  0  0  0  0  0  0  0  0  0  0
   11.1330   -1.7670   23.7460 C   0  0  0  0  0  0  0  0  0  0  0  0
    9.7460   -1.7120   23.1590 N   0  0  0  0  0  0  0  0  0  0  0  0
    7.8280   -4.1150   21.8180 O   0  0  0  0  0  0  0  0  0  0  0  0
    6.4740   -3.7730   21.5910 C   0  0  1  0  0  0  0  0  0  0  0  0
    5.8830   -4.3780   20.5230 C   0  0  0  0  0  0  0  0  0  0  0  0
    5.7120   -5.7430   20.6470 C   0  0  0  0  0  0  0  0  0  0  0  0
  1  2  2  0
  3  2  1  1
  3  4  1  0
  4  5  2  0
  5  6  1  0
  6  7  2  0
  7  8  1  0
  8  9  2  0
  9 10  1  0
 10 11  2  0
 11 12  1  0
 12 13  2  0
  9 14  1  0
 13 14  1  0
  6 15  1  0
 14 15  2  0
  5 16  1  0
  3 17  1  0
 16 17  1  0
 17 18  1  6
  1 19  1  0
 18 19  2  0
M  END
