DRV-DNY-5c7d8ee8-5
     RDKit          3D

 22 25  0  0  0  0  0  0  0  0999 V2000
    6.8450   -1.4990   19.1960 F   0  0  0  0  0  0  0  0  0  0  0  0
    6.3310   -2.5690   19.8160 C   0  0  0  0  0  0  0  0  0  0  0  0
    5.2460   -3.5790   19.7590 C   0  0  0  0  0  0  0  0  0  0  0  0
    5.3040   -4.5970   20.9610 C   0  0  0  0  0  0  0  0  0  0  0  0
    6.2860   -4.6160   22.0650 C   0  0  0  0  0  0  0  0  0  0  0  0
    6.4760   -5.3700   23.1910 N   0  0  0  0  0  0  0  0  0  0  0  0
    7.5890   -4.9620   23.9070 C   0  0  0  0  0  0  0  0  0  0  0  0
    7.9260   -5.7530   25.3270 Cl  0  0  0  0  0  0  0  0  0  0  0  0
    8.4280   -3.9800   23.5570 C   0  0  0  0  0  0  0  0  0  0  0  0
    9.5270   -3.5700   24.0870 C   0  0  0  0  0  0  0  0  0  0  0  0
    9.7860   -2.4050   23.5140 N   0  0  0  0  0  0  0  0  0  0  0  0
   10.9970   -2.2750   24.0100 C   0  0  0  0  0  0  0  0  0  0  0  0
   11.5720   -1.2190   23.5740 C   0  0  0  0  0  0  0  0  0  0  0  0
   12.7920   -1.0270   23.9560 C   0  0  0  0  0  0  0  0  0  0  0  0
   13.2440    0.5390   23.0500 Br  0  0  0  0  0  0  0  0  0  0  0  0
   13.4290   -1.9580   24.8540 C   0  0  0  0  0  0  0  0  0  0  0  0
   12.7420   -3.1910   25.3940 C   0  0  0  0  0  0  0  0  0  0  0  0
   11.3620   -3.2670   24.8250 C   0  0  0  0  0  0  0  0  0  0  0  0
   10.2800   -4.1620   24.8990 O   0  0  0  0  0  0  0  0  0  0  0  0
    8.2130   -3.2400   22.4550 C   0  0  0  0  0  0  0  0  0  0  0  0
    7.0860   -3.6340   21.7580 C   0  0  0  0  0  0  0  0  0  0  0  0
    6.4600   -3.3240   20.7710 C   0  0  0  0  0  0  0  0  0  0  0  0
  1  2  1  0
  2  3  2  0
  3  4  1  0
  4  5  2  0
  5  6  1  0
  6  7  2  0
  7  8  1  0
  7  9  1  0
  9 10  1  0
 10 11  2  0
 11 12  1  0
 12 13  2  0
 13 14  1  0
 14 15  1  0
 14 16  2  0
 16 17  1  0
 12 18  1  0
 17 18  2  0
 10 19  1  0
 18 19  1  0
  9 20  2  0
  5 21  1  0
 20 21  1  0
  2 22  1  0
 21 22  2  0
M  END
