DRV-DNY-ae159ed1-1
     RDKit          3D

 20 22  0  0  0  0  0  0  0  0999 V2000
    9.8140    0.0070   26.4420 O   0  0  0  0  0  0  0  0  0  0  0  0
    9.5330    0.1320   25.2610 C   0  0  0  0  0  0  0  0  0  0  0  0
    8.2480    0.4140   24.9780 C   0  0  0  0  0  0  0  0  0  0  0  0
    7.8010    1.3650   23.9530 C   0  0  0  0  0  0  0  0  0  0  0  0
    6.2690    1.5360   23.8320 C   0  0  0  0  0  0  0  0  0  0  0  0
    5.4580    1.3750   24.9420 C   0  0  0  0  0  0  0  0  0  0  0  0
    4.1100    1.5630   24.8410 N   0  0  0  0  0  0  0  0  0  0  0  0
    3.4510    1.9390   23.6070 C   0  0  0  0  0  0  0  0  0  0  0  0
    2.0570    2.1450   23.6000 C   0  0  0  0  0  0  0  0  0  0  0  0
    1.3300    2.5370   22.2900 C   0  0  0  0  0  0  0  0  0  0  0  0
    2.2750    2.6580   21.1010 C   0  0  0  0  0  0  0  0  0  0  0  0
    3.7470    2.4150   21.2620 C   0  0  0  0  0  0  0  0  0  0  0  0
    4.2910    2.0700   22.4970 C   0  0  0  0  0  0  0  0  0  0  0  0
    5.6320    1.8780   22.5930 N   0  0  0  0  0  0  0  0  0  0  0  0
   10.5930   -0.1520   24.2430 C   0  0  0  0  0  0  0  0  0  0  0  0
   11.5610    0.8210   23.9420 C   0  0  0  0  0  0  0  0  0  0  0  0
   12.5670    0.5540   23.0130 C   0  0  0  0  0  0  0  0  0  0  0  0
   12.5820   -0.7870   22.3420 C   0  0  0  0  0  0  0  0  0  0  0  0
   11.6040   -1.7160   22.6590 C   0  0  0  0  0  0  0  0  0  0  0  0
   10.6210   -1.4110   23.5950 C   0  0  0  0  0  0  0  0  0  0  0  0
  1  2  2  0
  2  3  1  0
  3  4  2  3
  4  5  1  0
  5  6  2  0
  6  7  1  0
  7  8  2  0
  8  9  1  0
  9 10  2  0
 10 11  1  0
 11 12  2  0
  8 13  1  0
 12 13  1  0
  5 14  1  0
 13 14  2  0
  2 15  1  0
 15 16  2  0
 16 17  1  0
 17 18  2  0
 18 19  1  0
 15 20  1  0
 19 20  2  0
M  END
