DRV-UNK-64047f27-5
     RDKit          3D

 30 33  0  0  0  0  0  0  0  0999 V2000
    7.9470    0.1040   27.3280 N   0  0  0  0  0  0  0  0  0  0  0  0
    8.1710    0.5020   25.6820 S   0  0  0  0  0  0  0  0  0  0  0  0
    9.4140    1.1900   25.4830 O   0  0  0  0  0  0  0  0  0  0  0  0
    6.9240    1.0890   25.2310 O   0  0  0  0  0  0  0  0  0  0  0  0
    8.3190   -1.0800   24.9090 C   0  0  0  0  0  0  0  0  0  0  0  0
    6.9990   -1.7980   24.9840 C   0  0  0  0  0  0  0  0  0  0  0  0
    6.8450   -3.0660   24.4570 C   0  0  0  0  0  0  0  0  0  0  0  0
    5.6540   -3.7590   24.5450 C   0  0  1  0  0  0  0  0  0  0  0  0
    5.6460   -5.0180   23.7370 N   0  0  0  0  0  0  0  0  0  0  0  0
    5.0110   -6.0610   24.5660 C   0  0  0  0  0  0  0  0  0  0  0  0
    4.4290   -7.0610   24.2070 O   0  0  0  0  0  0  0  0  0  0  0  0
    5.2130   -5.6470   25.8640 C   0  0  0  0  0  0  0  0  0  0  0  0
    5.0710   -6.4660   27.0670 C   0  0  0  0  0  0  0  0  0  0  0  0
    5.3110   -5.9290   28.2940 C   0  0  0  0  0  0  0  0  0  0  0  0
    5.7070   -4.5250   28.3730 C   0  0  0  0  0  0  0  0  0  0  0  0
    5.8400   -3.7580   27.2880 C   0  0  0  0  0  0  0  0  0  0  0  0
    5.5870   -4.3190   25.9440 C   0  0  0  0  0  0  0  0  0  0  0  0
    8.0720   -3.7090   23.7730 C   0  0  0  0  0  0  0  0  0  0  0  0
    9.3950   -2.9360   23.7280 C   0  0  0  0  0  0  0  0  0  0  0  0
    9.4960   -1.6550   24.2980 C   0  0  0  0  0  0  0  0  0  0  0  0
   10.8830   -1.1470   24.1440 N   0  0  0  0  0  0  0  0  0  0  0  0
   11.5340   -1.6700   23.0830 C   0  0  0  0  0  0  0  0  0  0  0  0
   10.5810   -1.4300   21.9510 C   0  0  0  0  0  0  0  0  0  0  0  0
    9.9580   -0.0970   22.1750 N   0  0  0  0  0  0  0  0  0  0  0  0
    8.9230    0.3390   21.4920 C   0  0  0  0  0  0  0  0  0  0  0  0
    8.8170    1.5420   21.1830 O   0  0  0  0  0  0  0  0  0  0  0  0
    7.9150   -0.5240   21.0490 C   0  0  0  0  0  0  0  0  0  0  0  0
    6.8700    0.2800   20.5010 O   0  0  0  0  0  0  0  0  0  0  0  0
   10.6730    0.7310   22.9740 C   0  0  0  0  0  0  0  0  0  0  0  0
   11.0610    0.1800   24.1980 C   0  0  0  0  0  0  0  0  0  0  0  0
  2  1  1  0
  2  3  2  0
  2  4  2  0
  2  5  1  0
  5  6  2  0
  6  7  1  0
  8  7  1  1
  8  9  1  0
  9 10  1  0
 10 11  2  0
 10 12  1  0
 12 13  1  0
 13 14  2  0
 14 15  1  0
 15 16  2  0
  8 17  1  0
 12 17  2  0
 16 17  1  0
  7 18  2  0
 18 19  1  0
  5 20  1  0
 19 20  2  0
 20 21  1  0
 21 22  1  0
 22 23  1  0
 23 24  1  0
 24 25  1  0
 25 26  2  0
 25 27  1  0
 27 28  1  0
 24 29  1  0
 21 30  1  0
 29 30  1  0
M  END
