DRV-DNY-3e405af9-9
     RDKit          3D

 34 38  0  0  0  0  0  0  0  0999 V2000
    6.7510   -4.9330   23.8480 O   0  0  0  0  0  0  0  0  0  0  0  0
    7.5300   -4.8340   22.8940 N   0  0  0  0  0  0  0  0  0  0  0  0
    7.5810   -5.6480   21.9600 O   0  0  0  0  0  0  0  0  0  0  0  0
    8.3930   -3.6240   22.7980 C   0  0  0  0  0  0  0  0  0  0  0  0
    8.1160   -2.6560   21.8580 C   0  0  0  0  0  0  0  0  0  0  0  0
    8.9290   -1.5180   21.7820 C   0  0  0  0  0  0  0  0  0  0  0  0
   10.0780   -1.3280   22.6860 C   0  0  0  0  0  0  0  0  0  0  0  0
   10.8710   -0.1790   22.7040 N   0  0  0  0  0  0  0  0  0  0  0  0
   11.3690    1.1320   22.7430 N   0  0  0  0  0  0  0  0  0  0  0  0
   10.5400    2.1620   22.8070 C   0  0  0  0  0  0  0  0  0  0  0  0
   10.9930    3.4870   22.9230 C   0  0  0  0  0  0  0  0  0  0  0  0
   11.9270    4.0530   22.0350 C   0  0  0  0  0  0  0  0  0  0  0  0
   12.3940    5.3720   22.1620 C   0  0  0  0  0  0  0  0  0  0  0  0
   11.8940    6.1300   23.2200 C   0  0  0  0  0  0  0  0  0  0  0  0
   12.3020    7.3900   23.3970 F   0  0  0  0  0  0  0  0  0  0  0  0
   10.8710    5.5300   24.1970 C   0  0  0  0  0  0  0  0  0  0  0  0
   10.4760    4.2390   23.9920 C   0  0  0  0  0  0  0  0  0  0  0  0
    9.2840    1.6520   22.7550 C   0  0  0  0  0  0  0  0  0  0  0  0
    9.4880    0.2790   22.6960 C   0  0  0  0  0  0  0  0  0  0  0  0
    8.3340   -0.5880   22.6260 C   0  0  0  0  0  0  0  0  0  0  0  0
    7.6050   -0.7050   21.4060 C   0  0  0  0  0  0  0  0  0  0  0  0
    6.3840   -1.6040   21.2680 N   0  0  0  0  0  0  0  0  0  0  0  0
    6.1230   -2.2730   22.5540 C   0  0  0  0  0  0  0  0  0  0  0  0
    5.0250   -3.1160   22.5690 C   0  0  0  0  0  0  0  0  0  0  0  0
    4.6990   -3.7890   23.7660 C   0  0  0  0  0  0  0  0  0  0  0  0
    5.4720   -3.6120   24.9210 C   0  0  0  0  0  0  0  0  0  0  0  0
    6.5870   -2.7680   24.9290 C   0  0  0  0  0  0  0  0  0  0  0  0
    6.8940   -2.1030   23.7230 C   0  0  0  0  0  0  0  0  0  0  0  0
    8.0020   -1.2760   23.7940 N   0  0  0  0  0  0  0  0  0  0  0  0
   10.3310   -2.3460   23.5820 C   0  0  0  0  0  0  0  0  0  0  0  0
   11.4070   -2.2770   24.4190 N   0  0  0  0  0  0  0  0  0  0  0  0
   11.9840   -1.1930   24.4850 O   0  0  0  0  0  0  0  0  0  0  0  0
   11.9170   -3.3520   24.7410 O   0  0  0  0  0  0  0  0  0  0  0  0
    9.5040   -3.4530   23.6500 C   0  0  0  0  0  0  0  0  0  0  0  0
  1  2  2  0
  2  3  1  0
  2  4  1  0
  4  5  2  0
  5  6  1  0
  6  7  2  0
  7  8  1  0
  8  9  1  0
  9 10  2  0
 10 11  1  0
 11 12  2  0
 12 13  1  0
 13 14  2  0
 14 15  1  0
 14 16  1  0
 11 17  1  0
 16 17  2  0
 10 18  1  0
  8 19  1  0
 18 19  2  0
 19 20  1  0
 20 21  2  0
 21 22  1  0
 22 23  2  0
 23 24  1  0
 24 25  2  0
 25 26  1  0
 26 27  2  0
 23 28  1  0
 27 28  1  0
 20 29  1  0
 28 29  2  0
  7 30  1  0
 30 31  1  0
 31 32  2  0
 31 33  1  0
  4 34  1  0
 30 34  2  0
M  CHG  4   2   1   3  -1  31   1  33  -1
M  END
