DRV-DNY-ae159ed1-19
     RDKit          3D

 24 27  0  0  0  0  0  0  0  0999 V2000
   10.3080    2.9570   24.6020 O   0  0  0  0  0  0  0  0  0  0  0  0
    9.8650    1.8230   24.4770 C   0  0  0  0  0  0  0  0  0  0  0  0
    8.5780    1.6340   24.7720 C   0  0  0  0  0  0  0  0  0  0  0  0
    7.6620    1.7330   23.6380 C   0  0  0  0  0  0  0  0  0  0  0  0
    6.1470    1.6720   23.8550 C   0  0  0  0  0  0  0  0  0  0  0  0
    5.5290    1.1970   24.9950 C   0  0  0  0  0  0  0  0  0  0  0  0
    4.1660    1.2690   25.0960 N   0  0  0  0  0  0  0  0  0  0  0  0
    3.3260    1.8360   24.0560 C   0  0  0  0  0  0  0  0  0  0  0  0
    1.9430    1.9220   24.2630 C   0  0  0  0  0  0  0  0  0  0  0  0
    1.0170    2.5180   23.1690 C   0  0  0  0  0  0  0  0  0  0  0  0
    1.7720    2.9570   21.9250 C   0  0  0  0  0  0  0  0  0  0  0  0
    3.2630    2.8090   21.8490 C   0  0  0  0  0  0  0  0  0  0  0  0
    3.9860    2.2690   22.9050 C   0  0  0  0  0  0  0  0  0  0  0  0
    5.3220    2.1860   22.8080 N   0  0  0  0  0  0  0  0  0  0  0  0
   10.7360    0.8150   23.8670 C   0  0  0  0  0  0  0  0  0  0  0  0
   11.9860    1.2700   23.4580 C   0  0  0  0  0  0  0  0  0  0  0  0
   12.8730    0.4100   22.8460 C   0  0  0  0  0  0  0  0  0  0  0  0
   12.4360   -0.9930   22.6440 C   0  0  0  0  0  0  0  0  0  0  0  0
   11.1650   -1.3880   23.0870 C   0  0  0  0  0  0  0  0  0  0  0  0
   10.7570   -2.6790   22.9100 C   0  0  0  0  0  0  0  0  0  0  0  0
    9.3670   -3.1040   23.3990 C   0  0  0  0  0  0  0  0  0  0  0  0
    8.5790   -2.1650   23.9980 C   0  0  0  0  0  0  0  0  0  0  0  0
    9.0000   -0.8670   24.1700 C   0  0  0  0  0  0  0  0  0  0  0  0
   10.2890   -0.4790   23.7150 C   0  0  0  0  0  0  0  0  0  0  0  0
  1  2  2  0
  2  3  1  0
  3  4  2  3
  4  5  1  0
  5  6  2  0
  6  7  1  0
  7  8  2  0
  8  9  1  0
  9 10  2  0
 10 11  1  0
 11 12  2  0
  8 13  1  0
 12 13  1  0
  5 14  1  0
 13 14  2  0
  2 15  1  0
 15 16  2  0
 16 17  1  0
 17 18  2  0
 18 19  1  0
 19 20  1  0
 20 21  2  0
 21 22  1  0
 22 23  2  0
 15 24  1  0
 19 24  2  0
 23 24  1  0
M  END
