DRV-DNY-ae159ed1-17
     RDKit          3D

 20 22  0  0  0  0  0  0  0  0999 V2000
    3.6070   -2.1260   25.5820 O   0  0  0  0  0  0  0  0  0  0  0  0
    4.5180   -2.5090   24.8730 C   0  0  0  0  0  0  0  0  0  0  0  0
    5.8270   -1.7750   24.7570 C   0  0  0  0  0  0  0  0  0  0  0  0
    7.1760   -2.3970   24.5690 C   0  0  0  0  0  0  0  0  0  0  0  0
    8.3160   -1.4290   24.4480 C   0  0  0  0  0  0  0  0  0  0  0  0
    8.2720   -0.1920   25.1260 C   0  0  0  0  0  0  0  0  0  0  0  0
    9.4700    0.6880   24.9250 N   0  0  0  0  0  0  0  0  0  0  0  0
   10.5700    0.2500   24.0790 C   0  0  0  0  0  0  0  0  0  0  0  0
   11.7990    1.1300   23.8610 C   0  0  0  0  0  0  0  0  0  0  0  0
   12.8570    0.5510   22.9600 C   0  0  0  0  0  0  0  0  0  0  0  0
   12.6810   -0.7200   22.3600 C   0  0  0  0  0  0  0  0  0  0  0  0
   11.5370   -1.5010   22.5800 C   0  0  0  0  0  0  0  0  0  0  0  0
   10.5020   -1.0580   23.4120 C   0  0  0  0  0  0  0  0  0  0  0  0
    9.4150   -1.7720   23.6450 N   0  0  0  0  0  0  0  0  0  0  0  0
    4.2940   -3.7460   24.0940 C   0  0  0  0  0  0  0  0  0  0  0  0
    3.0210   -4.2110   23.7740 C   0  0  0  0  0  0  0  0  0  0  0  0
    2.8070   -5.3670   23.0420 C   0  0  0  0  0  0  0  0  0  0  0  0
    3.9660   -6.2100   22.5450 C   0  0  0  0  0  0  0  0  0  0  0  0
    5.2190   -5.6890   22.8950 C   0  0  0  0  0  0  0  0  0  0  0  0
    5.3670   -4.4290   23.6850 N   0  0  0  0  0  0  0  0  0  0  0  0
  1  2  2  0
  2  3  1  0
  3  4  2  3
  4  5  1  0
  5  6  2  0
  6  7  1  0
  7  8  2  0
  8  9  1  0
  9 10  2  0
 10 11  1  0
 11 12  2  0
  8 13  1  0
 12 13  1  0
  5 14  1  0
 13 14  2  0
  2 15  1  0
 15 16  2  0
 16 17  1  0
 17 18  2  0
 18 19  1  0
 15 20  1  0
 19 20  2  0
M  END
