DRV-UNK-dd7f8c68-6
     RDKit          3D

 30 33  0  0  0  0  0  0  0  0999 V2000
    7.1980   -0.2910   19.2650 C   0  0  0  0  0  0  0  0  0  0  0  0
    7.6980   -0.7050   20.6310 C   0  0  0  0  0  0  0  0  0  0  0  0
    6.6530   -1.3620   21.4120 C   0  0  0  0  0  0  0  0  0  0  0  0
    8.3450    0.4670   21.4220 C   0  0  0  0  0  0  0  0  0  0  0  0
    9.5950    0.1550   22.0170 N   0  0  0  0  0  0  0  0  0  0  0  0
   10.4380   -1.0040   21.9460 C   0  0  0  0  0  0  0  0  0  0  0  0
   11.7090   -1.0890   22.5200 C   0  0  0  0  0  0  0  0  0  0  0  0
   11.4950   -0.3700   23.5960 N   0  0  0  0  0  0  0  0  0  0  0  0
   10.1690   -0.7730   23.6630 C   0  0  0  0  0  0  0  0  0  0  0  0
    8.8650   -0.0180   23.4850 C   0  0  0  0  0  0  0  0  0  0  0  0
    7.5410   -0.7540   23.5820 C   0  0  0  0  0  0  0  0  0  0  0  0
    7.2980   -2.2170   23.8310 C   0  0  0  0  0  0  0  0  0  0  0  0
    6.3670   -3.3350   23.9880 C   0  0  1  0  0  0  0  0  0  0  0  0
    6.6430   -4.5120   24.6720 N   0  0  0  0  0  0  0  0  0  0  0  0
    5.7520   -4.9760   25.6300 C   0  0  0  0  0  0  0  0  0  0  0  0
    5.7110   -6.0180   26.2460 O   0  0  0  0  0  0  0  0  0  0  0  0
    4.8360   -3.7940   25.6870 C   0  0  0  0  0  0  0  0  0  0  0  0
    3.7060   -3.7900   26.7170 C   0  0  0  0  0  0  0  0  0  0  0  0
    2.8920   -2.5040   26.6190 C   0  0  0  0  0  0  0  0  0  0  0  0
    3.2430   -1.4320   25.5990 C   0  0  0  0  0  0  0  0  0  0  0  0
    4.4150   -1.6180   24.6470 C   0  0  0  0  0  0  0  0  0  0  0  0
    5.1580   -2.8250   24.7580 C   0  0  0  0  0  0  0  0  0  0  0  0
    8.6030   -2.8080   23.9870 C   0  0  0  0  0  0  0  0  0  0  0  0
    9.9850   -2.1100   23.9100 C   0  0  0  0  0  0  0  0  0  0  0  0
   11.4280   -2.9920   24.1250 S   0  0  0  0  0  0  0  0  0  0  0  0
   12.4860   -2.1130   25.0840 N   0  0  0  0  0  0  0  0  0  0  0  0
   12.1230   -3.0050   22.8650 O   0  0  0  0  0  0  0  0  0  0  0  0
   11.1420   -4.1930   24.8190 O   0  0  0  0  0  0  0  0  0  0  0  0
   11.6940    0.9460   23.0110 C   0  0  0  0  0  0  0  0  0  0  0  0
   10.2580    1.3310   22.6430 C   0  0  0  0  0  0  0  0  0  0  0  0
  1  2  1  0
  2  3  1  0
  2  4  1  0
  4  5  1  0
  5  6  1  0
  6  7  1  0
  7  8  1  0
  8  9  1  0
  9 10  2  0
 10 11  1  0
 11 12  2  0
 13 12  1  1
 13 14  1  0
 14 15  1  0
 15 16  2  0
 15 17  1  0
 17 18  1  0
 18 19  2  0
 19 20  1  0
 20 21  2  0
 13 22  1  0
 17 22  2  0
 21 22  1  0
 12 23  1  0
  9 24  1  0
 23 24  2  0
 24 25  1  0
 25 26  1  0
 25 27  2  0
 25 28  2  0
  8 29  1  0
  5 30  1  0
 29 30  1  0
M  END
