DRV-DNY-3e405af9-1
     RDKit          3D

 33 36  0  0  0  0  0  0  0  0999 V2000
   12.9220    4.0060   21.8070 O   0  0  0  0  0  0  0  0  0  0  0  0
   11.8690    3.9350   22.4420 N   0  0  0  0  0  0  0  0  0  0  0  0
   11.3720    4.8890   23.0570 O   0  0  0  0  0  0  0  0  0  0  0  0
   11.3280    2.6010   22.7540 C   0  0  0  0  0  0  0  0  0  0  0  0
    9.8640    2.5810   23.0130 C   0  0  0  0  0  0  0  0  0  0  0  0
    9.0900    1.3550   23.3700 C   0  0  0  0  0  0  0  0  0  0  0  0
    9.9090    0.0850   23.4580 C   0  0  0  0  0  0  0  0  0  0  0  0
    9.2410   -1.1090   23.8120 C   0  0  0  0  0  0  0  0  0  0  0  0
    9.3120   -1.9740   24.9880 C   0  0  0  0  0  0  0  0  0  0  0  0
    8.3850   -3.1060   24.6990 C   0  0  0  0  0  0  0  0  0  0  0  0
    8.3350   -4.2260   25.8360 C   0  0  0  0  0  0  0  0  0  0  0  0
    9.3130   -5.3790   25.9490 C   0  0  0  0  0  0  0  0  0  0  0  0
    8.3790   -5.0560   26.5870 C   0  0  0  0  0  0  0  0  0  0  0  0
    8.1240   -3.8990   25.7580 C   0  0  0  0  0  0  0  0  0  0  0  0
    8.9100   -3.6030   24.6910 F   0  0  0  0  0  0  0  0  0  0  0  0
    7.0510   -3.1760   26.1610 C   0  0  0  0  0  0  0  0  0  0  0  0
    7.1730   -4.1660   26.9740 C   0  0  0  0  0  0  0  0  0  0  0  0
    7.7020   -2.8940   23.4220 N   0  0  0  0  0  0  0  0  0  0  0  0
    7.2930   -2.2530   22.1460 C   0  0  0  0  0  0  0  0  0  0  0  0
    8.1160   -0.9900   21.9340 C   0  0  0  0  0  0  0  0  0  0  0  0
    7.7520   -0.2850   20.7830 C   0  0  0  0  0  0  0  0  0  0  0  0
    6.7490   -0.6980   19.9170 C   0  0  0  0  0  0  0  0  0  0  0  0
    6.4380    0.0270   18.8390 N   0  0  0  0  0  0  0  0  0  0  0  0
    6.8180    1.1980   18.8760 O   0  0  0  0  0  0  0  0  0  0  0  0
    5.4470   -0.3420   18.2080 O   0  0  0  0  0  0  0  0  0  0  0  0
    6.0250   -1.8570   20.1220 C   0  0  0  0  0  0  0  0  0  0  0  0
    6.3130   -2.6190   21.2440 C   0  0  0  0  0  0  0  0  0  0  0  0
    5.4610   -3.8160   21.3570 N   0  0  0  0  0  0  0  0  0  0  0  0
    6.0720   -4.8870   21.4220 O   0  0  0  0  0  0  0  0  0  0  0  0
    4.3810   -3.6290   21.9060 O   0  0  0  0  0  0  0  0  0  0  0  0
    8.3270   -1.7040   23.0550 N   0  0  0  0  0  0  0  0  0  0  0  0
   11.3180    0.1220   23.1880 C   0  0  0  0  0  0  0  0  0  0  0  0
   12.0680    1.4120   22.8250 C   0  0  0  0  0  0  0  0  0  0  0  0
  1  2  2  0
  2  3  1  0
  2  4  1  0
  4  5  2  0
  5  6  1  0
  6  7  2  0
  7  8  1  0
  8  9  1  0
  9 10  2  0
 10 11  1  0
 11 12  2  0
 12 13  1  0
 13 14  2  0
 14 15  1  0
 14 16  1  0
 11 17  1  0
 16 17  2  0
 10 18  1  0
 18 19  1  0
 19 20  2  0
 20 21  1  0
 21 22  2  0
 22 23  1  0
 23 24  2  0
 23 25  1  0
 22 26  1  0
 19 27  1  0
 26 27  2  0
 27 28  1  0
 28 29  2  0
 28 30  1  0
  8 31  2  0
 18 31  1  0
  7 32  1  0
  4 33  1  0
 32 33  2  0
M  CHG  6   2   1   3  -1  23   1  25  -1  28   1  30  -1
M  END
