DRV-UNK-64047f27-6
     RDKit          3D

 34 38  0  0  0  0  0  0  0  0999 V2000
    6.3130   -3.7710   23.7050 N   0  0  0  0  0  0  0  0  0  0  0  0
    7.8270   -3.9430   22.9990 S   0  0  0  0  0  0  0  0  0  0  0  0
    7.6750   -4.9820   22.0040 O   0  0  0  0  0  0  0  0  0  0  0  0
    8.7260   -4.0700   24.0970 O   0  0  0  0  0  0  0  0  0  0  0  0
    8.0770   -2.3570   22.2370 C   0  0  0  0  0  0  0  0  0  0  0  0
    6.7660   -1.6210   21.7980 C   0  0  0  0  0  0  0  0  0  0  0  0
    6.8340   -0.3560   21.2040 C   0  0  0  0  0  0  0  0  0  0  0  0
    5.8600    0.5320   20.7340 C   0  0  1  0  0  0  0  0  0  0  0  0
    4.6410    0.0920   20.0210 N   0  0  0  0  0  0  0  0  0  0  0  0
    3.6780    1.2070   20.1870 C   0  0  0  0  0  0  0  0  0  0  0  0
    2.8300    1.5730   19.4120 O   0  0  0  0  0  0  0  0  0  0  0  0
    3.9310    1.7870   21.4090 C   0  0  0  0  0  0  0  0  0  0  0  0
    3.0940    2.5990   22.1730 C   0  0  0  0  0  0  0  0  0  0  0  0
    3.7710    2.9160   23.2930 C   0  0  0  0  0  0  0  0  0  0  0  0
    4.9710    2.7020   23.8910 C   0  0  0  0  0  0  0  0  0  0  0  0
    5.7790    1.8820   23.0890 C   0  0  0  0  0  0  0  0  0  0  0  0
    5.2390    1.4360   21.8490 C   0  0  0  0  0  0  0  0  0  0  0  0
    8.2120    0.1510   21.0510 C   0  0  0  0  0  0  0  0  0  0  0  0
    9.4800   -0.5560   21.4710 C   0  0  0  0  0  0  0  0  0  0  0  0
    9.4010   -1.7820   22.0520 C   0  0  0  0  0  0  0  0  0  0  0  0
   10.7850   -2.2940   22.4210 N   0  0  0  0  0  0  0  0  0  0  0  0
   10.6810   -2.4860   23.7950 C   0  0  0  0  0  0  0  0  0  0  0  0
   10.0470   -1.3160   24.1470 C   0  0  0  0  0  0  0  0  0  0  0  0
   10.4000   -0.0890   23.3290 N   0  0  0  0  0  0  0  0  0  0  0  0
    9.5670    1.0440   22.7620 C   0  0  0  0  0  0  0  0  0  0  0  0
    8.7360    0.9690   21.8600 O   0  0  0  0  0  0  0  0  0  0  0  0
    9.8230    2.4340   23.3640 C   0  0  0  0  0  0  0  0  0  0  0  0
   11.1130    3.1090   22.8990 C   0  0  0  0  0  0  0  0  0  0  0  0
   11.4890    4.3430   23.3360 N   0  0  0  0  0  0  0  0  0  0  0  0
   10.6460    4.9280   24.2130 C   0  0  0  0  0  0  0  0  0  0  0  0
    9.3550    4.2550   24.6820 C   0  0  0  0  0  0  0  0  0  0  0  0
    8.9710    3.0310   24.2500 N   0  0  0  0  0  0  0  0  0  0  0  0
   11.7690   -0.1490   22.8800 C   0  0  0  0  0  0  0  0  0  0  0  0
   11.9800   -1.3940   22.2980 C   0  0  0  0  0  0  0  0  0  0  0  0
  2  1  1  0
  2  3  2  0
  2  4  2  0
  2  5  1  0
  5  6  2  0
  6  7  1  0
  8  7  1  1
  8  9  1  0
  9 10  1  0
 10 11  2  0
 10 12  1  0
 12 13  1  0
 13 14  2  0
 14 15  1  0
 15 16  2  0
  8 17  1  0
 12 17  2  0
 16 17  1  0
  7 18  2  0
 18 19  1  0
  5 20  1  0
 19 20  2  0
 20 21  1  0
 21 22  1  0
 22 23  1  0
 23 24  1  0
 24 25  1  0
 25 26  2  0
 25 27  1  0
 27 28  2  0
 28 29  1  0
 29 30  2  0
 30 31  1  0
 27 32  1  0
 31 32  2  0
 24 33  1  0
 21 34  1  0
 33 34  1  0
M  END
