DRV-DNY-5c7d8ee8-4
     RDKit          3D

 21 24  0  0  0  0  0  0  0  0999 V2000
    8.0000   -5.8220   25.5390 Cl  0  0  0  0  0  0  0  0  0  0  0  0
    7.6160   -5.1840   24.0020 C   0  0  0  0  0  0  0  0  0  0  0  0
    6.4510   -5.5930   23.3790 N   0  0  0  0  0  0  0  0  0  0  0  0
    6.3150   -4.8720   22.2010 C   0  0  0  0  0  0  0  0  0  0  0  0
    5.2540   -4.8880   21.2020 C   0  0  0  0  0  0  0  0  0  0  0  0
    5.2780   -3.8730   19.8890 C   0  0  0  0  0  0  0  0  0  0  0  0
    6.4380   -2.9870   19.8280 C   0  0  0  0  0  0  0  0  0  0  0  0
    6.5100   -3.7160   20.8200 C   0  0  0  0  0  0  0  0  0  0  0  0
    7.1730   -4.0060   21.8000 C   0  0  0  0  0  0  0  0  0  0  0  0
    8.2590   -3.6100   22.2560 C   0  0  0  0  0  0  0  0  0  0  0  0
    8.5070   -4.2140   23.4110 C   0  0  0  0  0  0  0  0  0  0  0  0
    9.7370   -3.6280   23.7740 C   0  0  0  0  0  0  0  0  0  0  0  0
    9.8780   -2.4510   23.3390 N   0  0  0  0  0  0  0  0  0  0  0  0
   11.0340   -2.1890   23.6950 C   0  0  0  0  0  0  0  0  0  0  0  0
   11.5520   -1.0480   23.3800 C   0  0  0  0  0  0  0  0  0  0  0  0
   12.7650   -0.8330   23.7440 C   0  0  0  0  0  0  0  0  0  0  0  0
   13.1460    0.8440   23.0480 Br  0  0  0  0  0  0  0  0  0  0  0  0
   13.4710   -1.8150   24.4900 C   0  0  0  0  0  0  0  0  0  0  0  0
   12.9070   -3.0120   24.8340 C   0  0  0  0  0  0  0  0  0  0  0  0
   11.6420   -3.2120   24.4030 C   0  0  0  0  0  0  0  0  0  0  0  0
   10.7690   -4.2650   24.5040 O   0  0  0  0  0  0  0  0  0  0  0  0
  1  2  1  0
  2  3  2  0
  3  4  1  0
  4  5  2  0
  5  6  1  0
  6  7  2  0
  7  8  1  0
  4  9  1  0
  8  9  2  0
  9 10  1  0
  2 11  1  0
 10 11  2  0
 11 12  1  0
 12 13  2  0
 13 14  1  0
 14 15  2  0
 15 16  1  0
 16 17  1  0
 16 18  2  0
 18 19  1  0
 14 20  1  0
 19 20  2  0
 12 21  1  0
 20 21  1  0
M  END
