DRV-DNY-3e405af9-7
     RDKit          3D

 34 38  0  0  0  0  0  0  0  0999 V2000
    9.3270    2.1690   21.4490 O   0  0  0  0  0  0  0  0  0  0  0  0
    9.8500    1.1580   21.9520 N   0  0  0  0  0  0  0  0  0  0  0  0
   10.8940    1.1740   22.6200 O   0  0  0  0  0  0  0  0  0  0  0  0
    8.9360    0.0810   22.1970 C   0  0  0  0  0  0  0  0  0  0  0  0
    9.0530   -0.5630   23.4050 C   0  0  0  0  0  0  0  0  0  0  0  0
    8.1650   -1.5560   23.7200 C   0  0  0  0  0  0  0  0  0  0  0  0
    7.1640   -1.9090   22.8150 C   0  0  0  0  0  0  0  0  0  0  0  0
    6.2760   -2.8700   23.3100 N   0  0  0  0  0  0  0  0  0  0  0  0
    5.1890   -3.3350   22.5980 N   0  0  0  0  0  0  0  0  0  0  0  0
    4.6220   -4.1130   23.4920 C   0  0  0  0  0  0  0  0  0  0  0  0
    3.3970   -4.9160   23.5100 C   0  0  0  0  0  0  0  0  0  0  0  0
    2.3800   -4.4100   24.3280 C   0  0  0  0  0  0  0  0  0  0  0  0
    1.1590   -5.0550   24.4630 C   0  0  0  0  0  0  0  0  0  0  0  0
    0.9120   -6.2380   23.7810 C   0  0  0  0  0  0  0  0  0  0  0  0
   -0.3190   -6.8950   23.9090 C   0  0  0  0  0  0  0  0  0  0  0  0
   -0.5650   -8.0800   23.2270 C   0  0  0  0  0  0  0  0  0  0  0  0
    0.4190   -8.6160   22.4090 C   0  0  0  0  0  0  0  0  0  0  0  0
    1.6450   -7.9770   22.2710 C   0  0  0  0  0  0  0  0  0  0  0  0
    1.9210   -6.7810   22.9500 C   0  0  0  0  0  0  0  0  0  0  0  0
    3.1660   -6.1110   22.8280 C   0  0  0  0  0  0  0  0  0  0  0  0
    5.3690   -4.0910   24.5920 C   0  0  0  0  0  0  0  0  0  0  0  0
    6.4980   -3.3060   24.6130 C   0  0  0  0  0  0  0  0  0  0  0  0
    6.3690   -3.9660   25.8360 C   0  0  0  0  0  0  0  0  0  0  0  0
    6.1920   -5.3700   25.7510 C   0  0  0  0  0  0  0  0  0  0  0  0
    6.0920   -6.0990   26.9300 C   0  0  0  0  0  0  0  0  0  0  0  0
    6.1520   -5.4530   28.1490 C   0  0  0  0  0  0  0  0  0  0  0  0
    6.0160   -6.4150   29.5620 Cl  0  0  0  0  0  0  0  0  0  0  0  0
    6.3050   -4.0670   28.2470 C   0  0  0  0  0  0  0  0  0  0  0  0
    6.4140   -3.3090   27.0770 C   0  0  0  0  0  0  0  0  0  0  0  0
    7.0800   -1.2840   21.5760 C   0  0  0  0  0  0  0  0  0  0  0  0
    6.0720   -1.6240   20.5930 N   0  0  0  0  0  0  0  0  0  0  0  0
    5.5160   -2.7220   20.7170 O   0  0  0  0  0  0  0  0  0  0  0  0
    5.6400   -0.6700   19.9300 O   0  0  0  0  0  0  0  0  0  0  0  0
    7.9690   -0.2670   21.2480 C   0  0  0  0  0  0  0  0  0  0  0  0
  1  2  2  0
  2  3  1  0
  2  4  1  0
  4  5  2  0
  5  6  1  0
  6  7  2  0
  7  8  1  0
  8  9  1  0
  9 10  2  0
 10 11  1  0
 11 12  2  0
 12 13  1  0
 13 14  2  0
 14 15  1  0
 15 16  2  0
 16 17  1  0
 17 18  2  0
 14 19  1  0
 18 19  1  0
 11 20  1  0
 19 20  2  0
 10 21  1  0
  8 22  1  0
 21 22  2  0
 22 23  1  0
 23 24  2  0
 24 25  1  0
 25 26  2  0
 26 27  1  0
 26 28  1  0
 23 29  1  0
 28 29  2  0
  7 30  1  0
 30 31  1  0
 31 32  2  0
 31 33  1  0
  4 34  1  0
 30 34  2  0
M  CHG  4   2   1   3  -1  31   1  33  -1
M  END
