DRV-DNY-5c7d8ee8-9
     RDKit          3D

 25 28  0  0  0  0  0  0  0  0999 V2000
    3.9300   -5.2080   22.2200 O   0  0  0  0  0  0  0  0  0  0  0  0
    4.7610   -5.4800   21.3370 N   0  0  0  0  0  0  0  0  0  0  0  0
    5.1730   -6.6150   21.1290 O   0  0  0  0  0  0  0  0  0  0  0  0
    5.6030   -4.6190   21.1140 C   0  0  0  0  0  0  0  0  0  0  0  0
    5.4220   -3.5790   19.7620 C   0  0  0  0  0  0  0  0  0  0  0  0
    6.5680   -2.7440   19.9300 C   0  0  0  0  0  0  0  0  0  0  0  0
    6.1470   -2.0830   18.8470 F   0  0  0  0  0  0  0  0  0  0  0  0
    6.4640   -3.6300   20.7780 C   0  0  0  0  0  0  0  0  0  0  0  0
    7.2650   -3.8680   21.7410 C   0  0  0  0  0  0  0  0  0  0  0  0
    8.3390   -3.4270   22.1700 C   0  0  0  0  0  0  0  0  0  0  0  0
    8.6110   -4.1410   23.2620 C   0  0  0  0  0  0  0  0  0  0  0  0
    9.7060   -3.7200   23.6900 C   0  0  0  0  0  0  0  0  0  0  0  0
    9.9020   -2.5370   23.2750 N   0  0  0  0  0  0  0  0  0  0  0  0
   11.0480   -2.2360   23.6620 C   0  0  0  0  0  0  0  0  0  0  0  0
   11.5720   -1.0930   23.3560 C   0  0  0  0  0  0  0  0  0  0  0  0
   12.7760   -0.8600   23.7510 C   0  0  0  0  0  0  0  0  0  0  0  0
   13.1480    0.8210   23.0480 Br  0  0  0  0  0  0  0  0  0  0  0  0
   13.5790   -1.8710   24.5830 C   0  0  0  0  0  0  0  0  0  0  0  0
   12.9600   -3.1540   24.9460 C   0  0  0  0  0  0  0  0  0  0  0  0
   11.6140   -3.2570   24.3920 C   0  0  0  0  0  0  0  0  0  0  0  0
   10.8230   -4.2260   24.4750 O   0  0  0  0  0  0  0  0  0  0  0  0
    7.9740   -5.1680   23.9310 C   0  0  0  0  0  0  0  0  0  0  0  0
    8.5540   -5.8850   25.3670 Cl  0  0  0  0  0  0  0  0  0  0  0  0
    6.6970   -5.6500   23.3290 N   0  0  0  0  0  0  0  0  0  0  0  0
    6.5290   -4.7680   22.1330 C   0  0  0  0  0  0  0  0  0  0  0  0
  1  2  2  0
  2  3  1  0
  2  4  1  0
  4  5  2  0
  5  6  1  0
  6  7  1  0
  6  8  2  0
  8  9  1  0
  9 10  1  0
 10 11  2  0
 11 12  1  0
 12 13  2  0
 13 14  1  0
 14 15  2  0
 15 16  1  0
 16 17  1  0
 16 18  2  0
 18 19  1  0
 14 20  1  0
 19 20  2  0
 12 21  1  0
 20 21  1  0
 11 22  1  0
 22 23  1  0
 22 24  2  0
  4 25  1  0
  9 25  2  0
 24 25  1  0
M  CHG  2   2   1   3  -1
M  END
