DRV-DNY-5c7d8ee8-8
     RDKit          3D

 24 27  0  0  0  0  0  0  0  0999 V2000
    6.4830   -0.5660   20.2290 O   0  0  0  0  0  0  0  0  0  0  0  0
    6.6450   -1.5700   19.5200 N   0  0  0  0  0  0  0  0  0  0  0  0
    6.5280   -1.5350   18.3020 O   0  0  0  0  0  0  0  0  0  0  0  0
    6.3260   -2.6920   20.0740 C   0  0  0  0  0  0  0  0  0  0  0  0
    5.4120   -3.8480   19.9240 C   0  0  0  0  0  0  0  0  0  0  0  0
    5.4060   -5.0470   20.9790 C   0  0  0  0  0  0  0  0  0  0  0  0
    6.4430   -4.7690   22.0600 C   0  0  0  0  0  0  0  0  0  0  0  0
    6.6090   -5.5810   23.1210 N   0  0  0  0  0  0  0  0  0  0  0  0
    7.6260   -5.0450   23.7600 C   0  0  0  0  0  0  0  0  0  0  0  0
    8.1430   -5.7890   25.1660 Cl  0  0  0  0  0  0  0  0  0  0  0  0
    8.3500   -3.9630   23.4570 C   0  0  0  0  0  0  0  0  0  0  0  0
    9.4360   -3.6570   24.0970 C   0  0  0  0  0  0  0  0  0  0  0  0
    9.7430   -2.4840   23.4880 N   0  0  0  0  0  0  0  0  0  0  0  0
   10.8900   -2.2290   23.9120 C   0  0  0  0  0  0  0  0  0  0  0  0
   11.5530   -1.2010   23.5090 C   0  0  0  0  0  0  0  0  0  0  0  0
   12.7640   -1.0190   23.9350 C   0  0  0  0  0  0  0  0  0  0  0  0
   13.2610    0.5290   23.0250 Br  0  0  0  0  0  0  0  0  0  0  0  0
   13.3680   -1.9270   24.8570 C   0  0  0  0  0  0  0  0  0  0  0  0
   12.6370   -3.1300   25.3850 C   0  0  0  0  0  0  0  0  0  0  0  0
   11.2660   -3.2050   24.7900 C   0  0  0  0  0  0  0  0  0  0  0  0
   10.2160   -4.1330   24.9270 O   0  0  0  0  0  0  0  0  0  0  0  0
    8.2790   -2.9840   22.4650 C   0  0  0  0  0  0  0  0  0  0  0  0
    7.1770   -3.6830   21.8790 C   0  0  0  0  0  0  0  0  0  0  0  0
    6.5330   -3.4480   20.9470 C   0  0  0  0  0  0  0  0  0  0  0  0
  1  2  2  0
  2  3  1  0
  2  4  1  0
  4  5  2  0
  5  6  1  0
  6  7  2  0
  7  8  1  0
  8  9  2  0
  9 10  1  0
  9 11  1  0
 11 12  1  0
 12 13  2  0
 13 14  1  0
 14 15  2  0
 15 16  1  0
 16 17  1  0
 16 18  2  0
 18 19  1  0
 14 20  1  0
 19 20  2  0
 12 21  1  0
 20 21  1  0
 11 22  2  0
  7 23  1  0
 22 23  1  0
  4 24  1  0
 23 24  2  0
M  CHG  2   2   1   3  -1
M  END
