DRV-DNY-ae159ed1-11
     RDKit          3D

 21 23  0  0  0  0  0  0  0  0999 V2000
   10.3030    2.1600   24.9180 O   0  0  0  0  0  0  0  0  0  0  0  0
    9.8230    1.1190   24.5710 C   0  0  0  0  0  0  0  0  0  0  0  0
    8.3330    0.8850   24.8000 C   0  0  0  0  0  0  0  0  0  0  0  0
    7.4680    1.6240   23.8020 C   0  0  0  0  0  0  0  0  0  0  0  0
    6.0980    1.6270   23.8870 C   0  0  0  0  0  0  0  0  0  0  0  0
    5.4380    1.2380   25.0560 C   0  0  0  0  0  0  0  0  0  0  0  0
    3.9800    1.3660   25.0590 N   0  0  0  0  0  0  0  0  0  0  0  0
    3.3130    1.8640   23.9340 C   0  0  0  0  0  0  0  0  0  0  0  0
    1.9280    2.0250   23.9820 C   0  0  0  0  0  0  0  0  0  0  0  0
    1.2070    2.5140   22.8740 C   0  0  0  0  0  0  0  0  0  0  0  0
    1.9620    2.8630   21.6200 C   0  0  0  0  0  0  0  0  0  0  0  0
    3.3390    2.6950   21.6230 C   0  0  0  0  0  0  0  0  0  0  0  0
    3.9930    2.2120   22.7650 C   0  0  0  0  0  0  0  0  0  0  0  0
    5.4340    2.0890   22.7240 N   0  0  0  0  0  0  0  0  0  0  0  0
   10.7140    0.2690   23.8120 C   0  0  0  0  0  0  0  0  0  0  0  0
   11.9810    0.7740   23.4960 C   0  0  0  0  0  0  0  0  0  0  0  0
   12.8870    0.0390   22.7460 C   0  0  0  0  0  0  0  0  0  0  0  0
   12.5670   -1.2390   22.2750 C   0  0  0  0  0  0  0  0  0  0  0  0
   13.4410   -1.9540   21.5300 O   0  0  0  0  0  0  0  0  0  0  0  0
   11.3140   -1.7510   22.5950 C   0  0  0  0  0  0  0  0  0  0  0  0
   10.3270   -0.9970   23.3930 C   0  0  0  0  0  0  0  0  0  0  0  0
  1  2  2  0
  2  3  1  0
  3  4  2  3
  4  5  1  0
  5  6  2  0
  6  7  1  0
  7  8  2  0
  8  9  1  0
  9 10  2  0
 10 11  1  0
 11 12  2  0
  8 13  1  0
 12 13  1  0
  5 14  1  0
 13 14  2  0
  2 15  1  0
 15 16  2  0
 16 17  1  0
 17 18  2  0
 18 19  1  0
 18 20  1  0
 15 21  1  0
 20 21  2  0
M  END
