DRV-DNY-ae159ed1-20
     RDKit          3D

 21 23  0  0  0  0  0  0  0  0999 V2000
    9.2100   -1.6360   23.7700 N   0  0  0  0  0  0  0  0  0  0  0  0
   10.3500   -1.1540   23.4390 C   0  0  0  0  0  0  0  0  0  0  0  0
   11.4420   -1.9060   22.6410 C   0  0  0  0  0  0  0  0  0  0  0  0
   12.7390   -1.1170   22.3580 C   0  0  0  0  0  0  0  0  0  0  0  0
   12.8680    0.1910   22.8260 C   0  0  0  0  0  0  0  0  0  0  0  0
   11.8870    0.8480   23.5320 C   0  0  0  0  0  0  0  0  0  0  0  0
   10.6680    0.2730   23.8540 C   0  0  0  0  0  0  0  0  0  0  0  0
    9.7090    0.9700   24.5380 C   0  0  0  0  0  0  0  0  0  0  0  0
   10.0250    2.0440   24.9570 O   0  0  0  0  0  0  0  0  0  0  0  0
    8.3610    0.6640   24.6930 C   0  0  0  0  0  0  0  0  0  0  0  0
    7.5120    1.5930   23.8820 C   0  0  0  0  0  0  0  0  0  0  0  0
    6.1390    1.6130   23.8780 C   0  0  0  0  0  0  0  0  0  0  0  0
    5.4560    1.2460   25.0370 C   0  0  0  0  0  0  0  0  0  0  0  0
    4.0040    1.3290   25.1240 N   0  0  0  0  0  0  0  0  0  0  0  0
    3.4420    1.8390   23.8800 C   0  0  0  0  0  0  0  0  0  0  0  0
    2.0490    2.0180   23.8550 C   0  0  0  0  0  0  0  0  0  0  0  0
    1.3880    2.4990   22.7020 C   0  0  0  0  0  0  0  0  0  0  0  0
    2.0930    2.8170   21.5270 C   0  0  0  0  0  0  0  0  0  0  0  0
    3.4770    2.6480   21.5580 C   0  0  0  0  0  0  0  0  0  0  0  0
    4.2020    2.1540   22.7540 C   0  0  0  0  0  0  0  0  0  0  0  0
    5.5090    2.0410   22.7370 N   0  0  0  0  0  0  0  0  0  0  0  0
  1  2  1  0
  2  3  2  0
  3  4  1  0
  4  5  2  0
  5  6  1  0
  2  7  1  0
  6  7  2  0
  7  8  1  0
  8  9  2  0
  8 10  1  0
 10 11  2  3
 11 12  1  0
 12 13  2  0
 13 14  1  0
 14 15  2  0
 15 16  1  0
 16 17  2  0
 17 18  1  0
 18 19  2  0
 15 20  1  0
 19 20  1  0
 12 21  1  0
 20 21  2  0
M  END
