DRV-DNY-ae159ed1-6
     RDKit          3D

 21 23  0  0  0  0  0  0  0  0999 V2000
    9.1280    1.7620   23.5420 C   0  0  0  0  0  0  0  0  0  0  0  0
   10.2730    0.8630   23.1450 C   0  0  0  0  0  0  0  0  0  0  0  0
   11.6460    1.4540   22.9820 C   0  0  0  0  0  0  0  0  0  0  0  0
   12.7590    0.5770   22.5860 C   0  0  0  0  0  0  0  0  0  0  0  0
   12.4590   -0.7440   22.3590 C   0  0  0  0  0  0  0  0  0  0  0  0
   13.4850   -1.7050   21.8650 C   0  0  0  0  0  0  0  0  0  0  0  0
   14.0020   -2.5090   22.6080 O   0  0  0  0  0  0  0  0  0  0  0  0
   13.4480   -1.3890   20.3190 C   0  0  0  0  0  0  0  0  0  0  0  0
   14.2820   -0.5890   18.9510 C   0  0  0  0  0  0  0  0  0  0  0  0
   13.4630   -0.0190   17.0250 C   0  0  0  0  0  0  0  0  0  0  0  0
   13.7130    1.0730   16.8050 C   0  0  0  0  0  0  0  0  0  0  0  0
   12.4170    2.0180   16.2460 N   0  0  0  0  0  0  0  0  0  0  0  0
   11.0480    1.0050   14.7310 C   0  0  0  0  0  0  0  0  0  0  0  0
   10.2840    1.4420   13.5720 C   0  0  0  0  0  0  0  0  0  0  0  0
    9.1800    1.2470   12.1190 C   0  0  0  0  0  0  0  0  0  0  0  0
    9.1880    0.2800   12.1520 C   0  0  0  0  0  0  0  0  0  0  0  0
   10.6790   -0.3480   13.9950 C   0  0  0  0  0  0  0  0  0  0  0  0
   11.1600    0.1090   14.7910 C   0  0  0  0  0  0  0  0  0  0  0  0
   12.1690   -0.5590   15.9390 N   0  0  0  0  0  0  0  0  0  0  0  0
   11.1740   -1.2810   22.5300 C   0  0  0  0  0  0  0  0  0  0  0  0
   10.0980   -0.4990   22.9210 C   0  0  0  0  0  0  0  0  0  0  0  0
  1  2  1  0
  2  3  2  0
  3  4  1  0
  4  5  2  0
  5  6  1  0
  6  7  2  0
  6  8  1  0
  8  9  2  3
  9 10  1  0
 10 11  2  0
 11 12  1  0
 12 13  2  0
 13 14  1  0
 14 15  2  0
 15 16  1  0
 16 17  2  0
 13 18  1  0
 17 18  1  0
 10 19  1  0
 18 19  2  0
  5 20  1  0
  2 21  1  0
 20 21  2  0
M  END
