DRV-DNY-ae159ed1-15
     RDKit          3D

 20 22  0  0  0  0  0  0  0  0999 V2000
    4.7110   -1.5760   27.8500 O   0  0  0  0  0  0  0  0  0  0  0  0
    5.3180   -2.0980   26.9080 C   0  0  0  0  0  0  0  0  0  0  0  0
    6.4380   -1.5200   26.4450 C   0  0  0  0  0  0  0  0  0  0  0  0
    6.8350   -1.6260   25.0260 C   0  0  0  0  0  0  0  0  0  0  0  0
    8.1540   -0.9140   24.6320 C   0  0  0  0  0  0  0  0  0  0  0  0
    8.3410    0.4170   24.9430 C   0  0  0  0  0  0  0  0  0  0  0  0
    9.5000    1.0460   24.6010 N   0  0  0  0  0  0  0  0  0  0  0  0
   10.5910    0.3940   23.9200 C   0  0  0  0  0  0  0  0  0  0  0  0
   11.7510    1.1300   23.6230 C   0  0  0  0  0  0  0  0  0  0  0  0
   12.9270    0.4540   22.8930 C   0  0  0  0  0  0  0  0  0  0  0  0
   12.6650   -1.0060   22.5630 C   0  0  0  0  0  0  0  0  0  0  0  0
   11.3720   -1.6630   22.9430 C   0  0  0  0  0  0  0  0  0  0  0  0
   10.3770   -0.9540   23.6080 C   0  0  0  0  0  0  0  0  0  0  0  0
    9.2210   -1.5840   23.9410 N   0  0  0  0  0  0  0  0  0  0  0  0
    4.8140   -3.3570   26.2820 C   0  0  0  0  0  0  0  0  0  0  0  0
    5.3170   -4.5930   26.6630 C   0  0  0  0  0  0  0  0  0  0  0  0
    4.8160   -5.7350   26.0530 C   0  0  0  0  0  0  0  0  0  0  0  0
    3.8580   -5.7090   25.0990 N   0  0  0  0  0  0  0  0  0  0  0  0
    3.3430   -4.5090   24.7000 C   0  0  0  0  0  0  0  0  0  0  0  0
    3.8200   -3.3280   25.2920 C   0  0  0  0  0  0  0  0  0  0  0  0
  1  2  2  0
  2  3  1  0
  3  4  2  3
  4  5  1  0
  5  6  2  0
  6  7  1  0
  7  8  2  0
  8  9  1  0
  9 10  2  0
 10 11  1  0
 11 12  2  0
  8 13  1  0
 12 13  1  0
  5 14  1  0
 13 14  2  0
  2 15  1  0
 15 16  2  0
 16 17  1  0
 17 18  2  0
 18 19  1  0
 15 20  1  0
 19 20  2  0
M  END
