DRV-DNY-ae159ed1-12
     RDKit          3D

 21 23  0  0  0  0  0  0  0  0999 V2000
    9.6710    2.4620   23.6800 O   0  0  0  0  0  0  0  0  0  0  0  0
    9.5230    1.2540   23.6620 C   0  0  0  0  0  0  0  0  0  0  0  0
    8.3100    0.7460   23.9970 C   0  0  0  0  0  0  0  0  0  0  0  0
    7.3330    1.6480   23.7040 C   0  0  0  0  0  0  0  0  0  0  0  0
    5.8830    1.6720   23.8460 C   0  0  0  0  0  0  0  0  0  0  0  0
    5.1250    1.2730   25.0610 C   0  0  0  0  0  0  0  0  0  0  0  0
    3.7830    1.3940   25.1120 N   0  0  0  0  0  0  0  0  0  0  0  0
    3.1560    1.9050   24.0110 C   0  0  0  0  0  0  0  0  0  0  0  0
    1.7640    2.0790   24.0790 C   0  0  0  0  0  0  0  0  0  0  0  0
    0.9820    2.5840   23.0270 C   0  0  0  0  0  0  0  0  0  0  0  0
    1.6310    2.9300   21.8460 C   0  0  0  0  0  0  0  0  0  0  0  0
    3.1580    2.7610   21.7420 C   0  0  0  0  0  0  0  0  0  0  0  0
    3.8370    2.2680   22.8240 C   0  0  0  0  0  0  0  0  0  0  0  0
    5.1790    2.1460   22.7430 N   0  0  0  0  0  0  0  0  0  0  0  0
   10.6500    0.4390   23.2630 C   0  0  0  0  0  0  0  0  0  0  0  0
   11.9100    1.0200   23.0820 C   0  0  0  0  0  0  0  0  0  0  0  0
   13.0010    0.2860   22.6950 C   0  0  0  0  0  0  0  0  0  0  0  0
   12.8770   -1.0640   22.4670 C   0  0  0  0  0  0  0  0  0  0  0  0
   11.6610   -1.6970   22.6370 C   0  0  0  0  0  0  0  0  0  0  0  0
   11.6430   -3.0090   22.3990 O   0  0  0  0  0  0  0  0  0  0  0  0
   10.5090   -1.0530   23.0280 C   0  0  0  0  0  0  0  0  0  0  0  0
  1  2  2  0
  2  3  1  0
  3  4  2  3
  4  5  1  0
  5  6  2  0
  6  7  1  0
  7  8  2  0
  8  9  1  0
  9 10  2  0
 10 11  1  0
 11 12  2  0
  8 13  1  0
 12 13  1  0
  5 14  1  0
 13 14  2  0
  2 15  1  0
 15 16  2  0
 16 17  1  0
 17 18  2  0
 18 19  1  0
 19 20  1  0
 15 21  1  0
 19 21  2  0
M  END
