DRV-DNY-5c7d8ee8-10
     RDKit          3D

 25 28  0  0  0  0  0  0  0  0999 V2000
    4.4600   -6.3330   22.1470 O   0  0  0  0  0  0  0  0  0  0  0  0
    4.1680   -5.1490   21.9880 N   0  0  0  0  0  0  0  0  0  0  0  0
    3.3150   -4.5740   22.6610 O   0  0  0  0  0  0  0  0  0  0  0  0
    5.2390   -4.3200   21.4630 C   0  0  0  0  0  0  0  0  0  0  0  0
    5.1270   -3.4080   20.1560 C   0  0  0  0  0  0  0  0  0  0  0  0
    6.1640   -2.6390   19.7710 C   0  0  0  0  0  0  0  0  0  0  0  0
    6.2580   -1.5690   18.4460 Cl  0  0  0  0  0  0  0  0  0  0  0  0
    7.0460   -2.8810   20.6330 C   0  0  0  0  0  0  0  0  0  0  0  0
    7.3420   -3.6170   21.7970 C   0  0  0  0  0  0  0  0  0  0  0  0
    8.4670   -3.5040   22.3650 C   0  0  0  0  0  0  0  0  0  0  0  0
    8.5590   -4.2090   23.4810 C   0  0  0  0  0  0  0  0  0  0  0  0
    9.8250   -3.8210   23.9020 C   0  0  0  0  0  0  0  0  0  0  0  0
    9.8930   -2.5720   23.3740 N   0  0  0  0  0  0  0  0  0  0  0  0
   11.0580   -2.2560   23.7130 C   0  0  0  0  0  0  0  0  0  0  0  0
   11.5420   -1.1080   23.3660 C   0  0  0  0  0  0  0  0  0  0  0  0
   12.7620   -0.8780   23.7330 C   0  0  0  0  0  0  0  0  0  0  0  0
   13.1670    0.7900   23.0350 Br  0  0  0  0  0  0  0  0  0  0  0  0
   13.4730   -1.8510   24.4950 C   0  0  0  0  0  0  0  0  0  0  0  0
   12.9340   -3.0590   24.8690 C   0  0  0  0  0  0  0  0  0  0  0  0
   11.6600   -3.2800   24.4430 C   0  0  0  0  0  0  0  0  0  0  0  0
   10.8810   -4.3960   24.6310 O   0  0  0  0  0  0  0  0  0  0  0  0
    7.7430   -5.0630   24.1610 C   0  0  0  0  0  0  0  0  0  0  0  0
    8.0890   -5.8360   25.6470 Cl  0  0  0  0  0  0  0  0  0  0  0  0
    6.4360   -5.2830   23.5220 N   0  0  0  0  0  0  0  0  0  0  0  0
    6.3480   -4.4260   22.2780 C   0  0  0  0  0  0  0  0  0  0  0  0
  1  2  2  0
  2  3  1  0
  2  4  1  0
  4  5  2  0
  5  6  1  0
  6  7  1  0
  6  8  2  0
  8  9  1  0
  9 10  1  0
 10 11  2  0
 11 12  1  0
 12 13  2  0
 13 14  1  0
 14 15  2  0
 15 16  1  0
 16 17  1  0
 16 18  2  0
 18 19  1  0
 14 20  1  0
 19 20  2  0
 12 21  1  0
 20 21  1  0
 11 22  1  0
 22 23  1  0
 22 24  2  0
  4 25  1  0
  9 25  2  0
 24 25  1  0
M  CHG  2   2   1   3  -1
M  END
