DRV-DNY-5c7d8ee8-6
     RDKit          3D

 22 25  0  0  0  0  0  0  0  0999 V2000
    5.9950   -1.5370   18.5360 Cl  0  0  0  0  0  0  0  0  0  0  0  0
    6.4380   -2.4680   19.8990 C   0  0  0  0  0  0  0  0  0  0  0  0
    5.3330   -3.4830   19.8140 C   0  0  0  0  0  0  0  0  0  0  0  0
    5.6260   -4.3110   20.9890 C   0  0  0  0  0  0  0  0  0  0  0  0
    5.8800   -5.1530   22.1380 C   0  0  0  0  0  0  0  0  0  0  0  0
    6.5440   -5.6140   23.3030 N   0  0  0  0  0  0  0  0  0  0  0  0
    7.7000   -5.0910   23.8840 C   0  0  0  0  0  0  0  0  0  0  0  0
    8.2600   -5.7870   25.3360 Cl  0  0  0  0  0  0  0  0  0  0  0  0
    8.3810   -4.0890   23.3800 C   0  0  0  0  0  0  0  0  0  0  0  0
    9.5050   -3.5190   23.7490 C   0  0  0  0  0  0  0  0  0  0  0  0
    9.6420   -2.2800   23.2460 N   0  0  0  0  0  0  0  0  0  0  0  0
   10.9030   -2.0700   23.6760 C   0  0  0  0  0  0  0  0  0  0  0  0
   11.4210   -0.9270   23.3180 C   0  0  0  0  0  0  0  0  0  0  0  0
   12.6700   -0.7230   23.6970 C   0  0  0  0  0  0  0  0  0  0  0  0
   13.2180    0.9220   23.0260 Br  0  0  0  0  0  0  0  0  0  0  0  0
   13.3640   -1.6820   24.4670 C   0  0  0  0  0  0  0  0  0  0  0  0
   12.7830   -2.9850   24.9120 C   0  0  0  0  0  0  0  0  0  0  0  0
   11.3920   -3.0980   24.3840 C   0  0  0  0  0  0  0  0  0  0  0  0
   10.3910   -4.0790   24.4300 O   0  0  0  0  0  0  0  0  0  0  0  0
    7.8900   -3.5430   22.3080 C   0  0  0  0  0  0  0  0  0  0  0  0
    6.6930   -4.0830   21.7670 C   0  0  0  0  0  0  0  0  0  0  0  0
    6.1380   -3.5450   20.6860 C   0  0  0  0  0  0  0  0  0  0  0  0
  1  2  1  0
  2  3  2  0
  3  4  1  0
  4  5  2  0
  5  6  1  0
  6  7  2  0
  7  8  1  0
  7  9  1  0
  9 10  1  0
 10 11  2  0
 11 12  1  0
 12 13  2  0
 13 14  1  0
 14 15  1  0
 14 16  2  0
 16 17  1  0
 12 18  1  0
 17 18  2  0
 10 19  1  0
 18 19  1  0
  9 20  2  0
  5 21  1  0
 20 21  1  0
  2 22  1  0
 21 22  2  0
M  END
