DRV-UNK-dd7f8c68-4
     RDKit          3D

 30 33  0  0  0  0  0  0  0  0999 V2000
    5.7330   -5.7860   23.2650 N   0  0  0  0  0  0  0  0  0  0  0  0
    7.3080   -5.2010   23.2720 S   0  0  0  0  0  0  0  0  0  0  0  0
    8.0130   -6.0910   24.1330 O   0  0  0  0  0  0  0  0  0  0  0  0
    7.6000   -5.0600   21.8760 O   0  0  0  0  0  0  0  0  0  0  0  0
    7.0840   -3.6640   24.1370 C   0  0  0  0  0  0  0  0  0  0  0  0
    5.7760   -3.5210   24.6410 C   0  0  0  0  0  0  0  0  0  0  0  0
    5.3940   -2.3980   25.3690 C   0  0  0  0  0  0  0  0  0  0  0  0
    4.1050   -2.2460   25.8870 C   0  0  1  0  0  0  0  0  0  0  0  0
    3.4040   -3.5500   26.0430 N   0  0  0  0  0  0  0  0  0  0  0  0
    3.0750   -3.8500   27.3560 C   0  0  0  0  0  0  0  0  0  0  0  0
    2.4690   -4.9760   27.8580 O   0  0  0  0  0  0  0  0  0  0  0  0
    3.5400   -2.6380   28.1070 C   0  0  0  0  0  0  0  0  0  0  0  0
    3.3750   -2.4730   29.6080 C   0  0  0  0  0  0  0  0  0  0  0  0
    3.8930   -1.1990   30.2080 C   0  0  0  0  0  0  0  0  0  0  0  0
    4.4810   -0.2850   29.2970 C   0  0  0  0  0  0  0  0  0  0  0  0
    4.6080   -0.4930   27.9060 C   0  0  0  0  0  0  0  0  0  0  0  0
    4.1310   -1.6840   27.3180 C   0  0  0  0  0  0  0  0  0  0  0  0
    6.3250   -1.4070   25.5880 C   0  0  0  0  0  0  0  0  0  0  0  0
    7.6120   -1.5190   25.1060 C   0  0  0  0  0  0  0  0  0  0  0  0
    8.0690   -2.6230   24.3710 C   0  0  0  0  0  0  0  0  0  0  0  0
    9.3990   -2.5080   24.0230 N   0  0  0  0  0  0  0  0  0  0  0  0
    9.9180   -2.6430   22.6600 C   0  0  0  0  0  0  0  0  0  0  0  0
   10.3320   -1.3030   22.0720 C   0  0  0  0  0  0  0  0  0  0  0  0
    9.3840   -0.2360   22.3310 N   0  0  0  0  0  0  0  0  0  0  0  0
    8.6270    0.4220   21.3960 C   0  0  0  0  0  0  0  0  0  0  0  0
    8.8380    1.6080   21.0850 O   0  0  0  0  0  0  0  0  0  0  0  0
    7.5940   -0.2940   20.7910 C   0  0  0  0  0  0  0  0  0  0  0  0
    6.5900    0.5800   20.2800 O   0  0  0  0  0  0  0  0  0  0  0  0
    8.8450   -0.3720   23.6530 C   0  0  0  0  0  0  0  0  0  0  0  0
    9.7250   -1.1640   24.4100 C   0  0  0  0  0  0  0  0  0  0  0  0
  2  1  1  0
  2  3  2  0
  2  4  2  0
  2  5  1  0
  5  6  2  0
  6  7  1  0
  8  7  1  1
  8  9  1  0
  9 10  1  0
 10 11  2  0
 10 12  1  0
 12 13  1  0
 13 14  2  0
 14 15  1  0
 15 16  2  0
  8 17  1  0
 12 17  2  0
 16 17  1  0
  7 18  2  0
 18 19  1  0
  5 20  1  0
 19 20  2  0
 20 21  1  0
 21 22  1  0
 22 23  1  0
 23 24  1  0
 24 25  1  0
 25 26  2  0
 25 27  1  0
 27 28  1  0
 24 29  1  0
 21 30  1  0
 29 30  1  0
M  END
