DRV-DNY-ae159ed1-14
     RDKit          3D

 21 23  0  0  0  0  0  0  0  0999 V2000
   10.7770   -2.8220   22.5390 N   0  0  0  0  0  0  0  0  0  0  0  0
   11.2150   -1.4910   22.8590 C   0  0  0  0  0  0  0  0  0  0  0  0
   12.5750   -0.9860   22.5290 C   0  0  0  0  0  0  0  0  0  0  0  0
   13.0280    0.2880   22.8210 C   0  0  0  0  0  0  0  0  0  0  0  0
   12.1710    1.1610   23.4480 C   0  0  0  0  0  0  0  0  0  0  0  0
   10.7920    0.6610   23.7790 C   0  0  0  0  0  0  0  0  0  0  0  0
    9.8680    1.4700   24.3730 C   0  0  0  0  0  0  0  0  0  0  0  0
   10.3490    2.8120   24.3300 O   0  0  0  0  0  0  0  0  0  0  0  0
    8.5980    1.1280   24.8080 C   0  0  0  0  0  0  0  0  0  0  0  0
    7.5620    1.6740   23.8640 C   0  0  0  0  0  0  0  0  0  0  0  0
    6.0880    1.5940   24.0520 C   0  0  0  0  0  0  0  0  0  0  0  0
    5.4160    1.1110   25.1740 C   0  0  0  0  0  0  0  0  0  0  0  0
    4.0540    1.2460   25.0990 N   0  0  0  0  0  0  0  0  0  0  0  0
    3.3330    1.8570   23.9360 C   0  0  0  0  0  0  0  0  0  0  0  0
    1.9580    1.9970   23.9710 C   0  0  0  0  0  0  0  0  0  0  0  0
    1.3290    2.5620   22.8550 C   0  0  0  0  0  0  0  0  0  0  0  0
    2.1090    2.9570   21.7610 C   0  0  0  0  0  0  0  0  0  0  0  0
    3.4850    2.8110   21.7640 C   0  0  0  0  0  0  0  0  0  0  0  0
    4.1320    2.2560   22.8730 C   0  0  0  0  0  0  0  0  0  0  0  0
    5.4570    2.1480   22.8770 N   0  0  0  0  0  0  0  0  0  0  0  0
   10.3760   -0.6310   23.4790 C   0  0  0  0  0  0  0  0  0  0  0  0
  1  2  1  0
  2  3  2  0
  3  4  1  0
  4  5  2  0
  5  6  1  0
  6  7  1  0
  7  8  2  0
  7  9  1  0
  9 10  2  3
 10 11  1  0
 11 12  2  0
 12 13  1  0
 13 14  2  0
 14 15  1  0
 15 16  2  0
 16 17  1  0
 17 18  2  0
 14 19  1  0
 18 19  1  0
 11 20  1  0
 19 20  2  0
  2 21  1  0
  6 21  2  0
M  END
