DUN-NEW-f8ce3686-9
     RDKit          3D

 25 27  0  0  0  0  0  0  0  0999 V2000
    4.4100    0.5160   19.1900 C   0  0  0  0  0  0  0  0  0  0  0  0
    5.1340   -0.7800   19.0610 C   0  0  0  0  0  0  0  0  0  0  0  0
    5.7300   -0.8330   17.7710 O   0  0  0  0  0  0  0  0  0  0  0  0
    5.1880   -1.7320   20.0440 N   0  0  0  0  0  0  0  0  0  0  0  0
    5.9570   -2.7890   19.6080 C   0  0  0  0  0  0  0  0  0  0  0  0
    5.8430   -4.1240   20.3050 C   0  0  0  0  0  0  0  0  0  0  0  0
    6.1730   -4.1640   21.6130 N   0  0  0  0  0  0  0  0  0  0  0  0
    7.1850   -3.4040   22.0290 C   0  0  0  0  0  0  0  0  0  0  0  0
    7.4020   -3.5190   23.4780 C   0  0  0  0  0  0  0  0  0  0  0  0
    8.3080   -2.9200   24.3070 C   0  0  0  0  0  0  0  0  0  0  0  0
    8.8040   -1.7150   23.8130 C   0  0  0  0  0  0  0  0  0  0  0  0
    9.9140   -1.5660   23.3050 O   0  0  0  0  0  0  0  0  0  0  0  0
    7.8080   -0.6380   24.0160 N   0  0  0  0  0  0  0  0  0  0  0  0
    7.5730    0.2130   22.8510 C   0  0  0  0  0  0  0  0  0  0  0  0
    6.2460    0.2950   22.4630 C   0  0  0  0  0  0  0  0  0  0  0  0
    5.8550    1.0520   21.3960 C   0  0  0  0  0  0  0  0  0  0  0  0
    6.9660    1.7800   20.6830 C   0  0  0  0  0  0  0  0  0  0  0  0
    8.2760    1.7260   21.0390 N   0  0  0  0  0  0  0  0  0  0  0  0
    8.5470    0.9330   22.1270 C   0  0  0  0  0  0  0  0  0  0  0  0
    6.2830   -4.5320   23.8530 C   0  0  0  0  0  0  0  0  0  0  0  0
    5.9440   -5.0350   25.0690 C   0  0  0  0  0  0  0  0  0  0  0  0
    4.7980   -6.0240   25.0750 C   0  0  0  0  0  0  0  0  0  0  0  0
    4.1220   -6.3990   23.9090 C   0  0  0  0  0  0  0  0  0  0  0  0
    4.5770   -5.7860   22.7450 C   0  0  0  0  0  0  0  0  0  0  0  0
    5.5970   -4.8890   22.6710 C   0  0  0  0  0  0  0  0  0  0  0  0
  1  2  1  0
  2  3  2  0
  2  4  1  0
  4  5  1  0
  5  6  1  0
  6  7  1  0
  7  8  1  0
  8  9  2  0
  9 10  1  0
 10 11  1  0
 11 12  2  0
 11 13  1  0
 13 14  1  0
 14 15  2  0
 15 16  1  0
 16 17  2  0
 17 18  1  0
 14 19  1  0
 18 19  2  0
  9 20  1  0
 20 21  1  0
 21 22  2  0
 22 23  1  0
 23 24  2  0
  7 25  1  0
 20 25  2  0
 24 25  1  0
M  END
