DUN-NEW-f8ce3686-1
     RDKit          3D

 20 22  0  0  0  0  0  0  0  0999 V2000
    6.7060   -2.7780   26.3920 N   0  0  0  0  0  0  0  0  0  0  0  0
    5.8590   -3.2980   25.4660 C   0  0  0  0  0  0  0  0  0  0  0  0
    4.5160   -2.8630   25.4030 O   0  0  0  0  0  0  0  0  0  0  0  0
    6.3920   -4.3500   24.5330 C   0  0  2  0  0  0  0  0  0  0  0  0
    7.5290   -4.0450   23.7480 C   0  0  0  0  0  0  0  0  0  0  0  0
    7.0140   -3.9160   22.3900 N   0  0  0  0  0  0  0  0  0  0  0  0
    6.4680   -2.5680   22.1470 C   0  0  0  0  0  0  0  0  0  0  0  0
    7.4010   -1.5630   21.9770 C   0  0  0  0  0  0  0  0  0  0  0  0
    7.6320   -0.7510   20.8710 C   0  0  0  0  0  0  0  0  0  0  0  0
    6.6150   -0.8940   19.8810 O   0  0  0  0  0  0  0  0  0  0  0  0
    5.3650   -1.3300   20.4090 C   0  0  0  0  0  0  0  0  0  0  0  0
    5.4750   -2.5380   20.9970 C   0  0  0  0  0  0  0  0  0  0  0  0
    6.0610   -5.0360   22.2930 C   0  0  0  0  0  0  0  0  0  0  0  0
    5.2960   -4.7770   23.5610 C   0  0  1  0  0  0  0  0  0  0  0  0
    4.4660   -5.9220   24.1420 C   0  0  0  0  0  0  0  0  0  0  0  0
    4.5170   -6.2560   25.5070 C   0  0  0  0  0  0  0  0  0  0  0  0
    3.7630   -7.2910   26.0730 C   0  0  0  0  0  0  0  0  0  0  0  0
    2.8140   -8.1530   25.2430 C   0  0  0  0  0  0  0  0  0  0  0  0
    2.7730   -7.7750   23.7630 C   0  0  0  0  0  0  0  0  0  0  0  0
    3.6360   -6.6390   23.2790 C   0  0  0  0  0  0  0  0  0  0  0  0
  1  2  1  0
  2  3  2  0
  4  2  1  6
  4  5  1  0
  5  6  1  0
  6  7  1  0
  7  8  1  0
  8  9  1  0
  9 10  1  0
 10 11  1  0
  7 12  1  0
 11 12  1  0
  6 13  1  0
  4 14  1  0
 13 14  1  0
 14 15  1  1
 15 16  2  0
 16 17  1  0
 17 18  2  0
 18 19  1  0
 15 20  1  0
 19 20  2  0
M  END
