DUN-NEW-f8ce3686-18
     RDKit          3D

 27 30  0  0  0  0  0  0  0  0999 V2000
    6.6690   -6.0860   21.3630 C   0  0  0  0  0  0  0  0  0  0  0  0
    6.2680   -5.0010   22.1480 N   0  0  0  0  0  0  0  0  0  0  0  0
    5.0040   -4.9540   22.3830 C   0  0  0  0  0  0  0  0  0  0  0  0
    4.6450   -3.9920   23.0710 C   0  0  0  0  0  0  0  0  0  0  0  0
    5.9470   -3.3020   23.3170 C   0  0  0  0  0  0  0  0  0  0  0  0
    6.0810   -1.9930   24.1520 C   0  0  0  0  0  0  0  0  0  0  0  0
    7.5080   -1.3700   24.3520 C   0  0  0  0  0  0  0  0  0  0  0  0
    8.7320   -2.0930   23.7110 C   0  0  0  0  0  0  0  0  0  0  0  0
    7.3800   -2.7380   23.4640 C   0  0  0  0  0  0  0  0  0  0  0  0
    6.2680   -1.9400   24.0910 N   0  0  0  0  0  0  0  0  0  0  0  0
    5.5630   -2.6130   25.2410 C   0  0  0  0  0  0  0  0  0  0  0  0
    4.4860   -3.2230   25.1300 O   0  0  0  0  0  0  0  0  0  0  0  0
    6.2010   -2.5010   26.6400 C   0  0  0  0  0  0  0  0  0  0  0  0
    6.0150   -3.7650   27.1650 C   0  0  0  0  0  0  0  0  0  0  0  0
    5.5940   -4.9280   26.3170 C   0  0  0  0  0  0  0  0  0  0  0  0
    5.4020   -6.1960   26.8380 C   0  0  0  0  0  0  0  0  0  0  0  0
    5.5950   -6.4690   28.1900 C   0  0  0  0  0  0  0  0  0  0  0  0
    5.9910   -5.4110   29.0250 N   0  0  0  0  0  0  0  0  0  0  0  0
    6.1860   -4.1070   28.4940 C   0  0  0  0  0  0  0  0  0  0  0  0
    5.7450   -0.8650   23.3470 C   0  0  1  0  0  0  0  0  0  0  0  0
    5.8960    0.4630   23.7710 C   0  0  0  0  0  0  0  0  0  0  0  0
    5.1030    1.3650   23.0770 C   0  0  0  0  0  0  0  0  0  0  0  0
    5.2780    1.3120   21.6650 C   0  0  1  0  0  0  0  0  0  0  0  0
    5.5800    2.3650   21.1130 O   0  0  0  0  0  0  0  0  0  0  0  0
    6.3700    0.2980   21.3100 C   0  0  0  0  0  0  0  0  0  0  0  0
    6.1370   -0.9510   21.8510 C   0  0  0  0  0  0  0  0  0  0  0  0
    7.1110   -3.8940   22.7490 C   0  0  0  0  0  0  0  0  0  0  0  0
  1  2  1  0
  2  3  1  0
  3  4  2  0
  4  5  1  0
  5  6  1  0
  6  7  2  0
  7  8  1  0
  8  9  2  0
  9 10  1  0
 10 11  1  0
 11 12  2  0
 11 13  1  0
 13 14  1  0
 14 15  2  0
 15 16  1  0
 16 17  2  0
 17 18  1  0
 14 19  1  0
 18 19  2  0
 20 10  1  1
 20 21  1  0
 21 22  1  0
 22 23  1  0
 23 24  1  1
 23 25  1  0
 20 26  1  0
 25 26  1  0
  2 27  1  0
  5 27  2  0
  9 27  1  0
M  END
