DUN-NEW-f8ce3686-19
     RDKit          3D

 27 29  0  0  0  0  0  0  0  0999 V2000
    5.6380   -3.6030   20.2420 C   0  0  0  0  0  0  0  0  0  0  0  0
    6.1530   -4.0430   21.5100 N   0  0  0  0  0  0  0  0  0  0  0  0
    5.8510   -5.2580   22.0060 C   0  0  0  0  0  0  0  0  0  0  0  0
    6.3140   -5.5730   23.1340 C   0  0  0  0  0  0  0  0  0  0  0  0
    7.0590   -4.3360   23.4250 C   0  0  0  0  0  0  0  0  0  0  0  0
    7.9030   -4.0670   24.7260 C   0  0  0  0  0  0  0  0  0  0  0  0
    8.6560   -2.6790   24.8460 C   0  0  0  0  0  0  0  0  0  0  0  0
    8.5460   -1.6510   23.6720 C   0  0  0  0  0  0  0  0  0  0  0  0
    7.7500   -2.9210   23.4750 C   0  0  0  0  0  0  0  0  0  0  0  0
    7.8430   -3.7780   24.7050 N   0  0  0  0  0  0  0  0  0  0  0  0
    7.0780   -5.0580   24.5670 C   0  0  0  0  0  0  0  0  0  0  0  0
    5.5790   -4.9240   25.0400 C   0  0  0  0  0  0  0  0  0  0  0  0
    4.9950   -6.2070   25.5020 N   0  0  0  0  0  0  0  0  0  0  0  0
    3.5370   -6.8020   24.8170 S   0  0  0  0  0  0  0  0  0  0  0  0
    3.7030   -6.4520   23.1560 C   0  0  0  0  0  0  0  0  0  0  0  0
    3.4960   -8.2410   24.9360 O   0  0  0  0  0  0  0  0  0  0  0  0
    2.4730   -5.9780   25.3570 O   0  0  0  0  0  0  0  0  0  0  0  0
    7.4510   -3.1060   25.8960 C   0  0  0  0  0  0  0  0  0  0  0  0
    6.9590   -1.7680   25.8830 O   0  0  0  0  0  0  0  0  0  0  0  0
    7.4570   -3.6500   27.1870 C   0  0  0  0  0  0  0  0  0  0  0  0
    7.1260   -2.7330   28.1850 C   0  0  0  0  0  0  0  0  0  0  0  0
    5.9490   -2.8110   28.9100 C   0  0  0  0  0  0  0  0  0  0  0  0
    5.6020   -1.9020   29.8990 C   0  0  0  0  0  0  0  0  0  0  0  0
    6.4070   -0.8100   30.2640 C   0  0  0  0  0  0  0  0  0  0  0  0
    7.6850   -0.6600   29.5300 N   0  0  0  0  0  0  0  0  0  0  0  0
    8.0180   -1.5560   28.5700 C   0  0  0  0  0  0  0  0  0  0  0  0
    6.9960   -3.2690   22.3680 C   0  0  0  0  0  0  0  0  0  0  0  0
  1  2  1  0
  2  3  1  0
  3  4  2  0
  4  5  1  0
  5  6  1  0
  6  7  2  0
  7  8  1  0
  8  9  2  0
  9 10  1  0
 10 11  1  0
 11 12  1  0
 12 13  1  0
 14 13  1  0
 14 15  1  0
 14 16  2  0
 14 17  2  0
 10 18  1  0
 18 19  2  0
 18 20  1  0
 20 21  1  0
 21 22  2  0
 22 23  1  0
 23 24  2  0
 24 25  1  0
 21 26  1  0
 25 26  2  0
  2 27  1  0
  5 27  2  0
  9 27  1  0
M  END
