DUN-NEW-f8ce3686-4
     RDKit          3D

 26 28  0  0  0  0  0  0  0  0999 V2000
    9.4410   -0.2650   26.7360 C   0  0  0  0  0  0  0  0  0  0  0  0
    7.7570   -0.7130   27.0360 S   0  0  0  0  0  0  0  0  0  0  0  0
    6.9820    0.4760   27.3180 O   0  0  0  0  0  0  0  0  0  0  0  0
    7.7530   -1.8620   27.9090 O   0  0  0  0  0  0  0  0  0  0  0  0
    7.3190   -1.2710   25.5120 N   0  0  0  0  0  0  0  0  0  0  0  0
    8.3240   -1.7630   24.6890 C   0  0  0  0  0  0  0  0  0  0  0  0
    8.6810   -0.9120   23.7160 C   0  0  0  0  0  0  0  0  0  0  0  0
   10.1060   -0.5240   23.5000 C   0  0  0  0  0  0  0  0  0  0  0  0
   10.6220    0.6210   24.2960 C   0  0  0  0  0  0  0  0  0  0  0  0
   12.0750    0.9730   24.0330 C   0  0  0  0  0  0  0  0  0  0  0  0
   12.9050    0.3310   23.1680 C   0  0  0  0  0  0  0  0  0  0  0  0
   12.3680   -0.6690   22.4960 C   0  0  0  0  0  0  0  0  0  0  0  0
   12.9580   -1.4360   21.5870 C   0  0  0  0  0  0  0  0  0  0  0  0
   12.0630   -2.2840   21.1310 C   0  0  0  0  0  0  0  0  0  0  0  0
   10.8530   -2.0870   21.7790 N   0  0  0  0  0  0  0  0  0  0  0  0
    9.6180   -2.6950   21.6670 C   0  0  0  0  0  0  0  0  0  0  0  0
    9.1650   -3.4140   22.9450 C   0  0  0  0  0  0  0  0  0  0  0  0
    9.9290   -3.3070   24.0300 O   0  0  0  0  0  0  0  0  0  0  0  0
    7.9820   -4.1370   22.8790 N   0  0  0  0  0  0  0  0  0  0  0  0
    7.7210   -4.6830   24.2520 C   0  0  0  0  0  0  0  0  0  0  0  0
    8.8960   -4.8830   25.0730 C   0  0  0  0  0  0  0  0  0  0  0  0
    8.6180   -5.3820   26.3220 C   0  0  0  0  0  0  0  0  0  0  0  0
    7.1960   -5.6940   26.7930 C   0  0  0  0  0  0  0  0  0  0  0  0
    6.1530   -5.4860   25.9810 N   0  0  0  0  0  0  0  0  0  0  0  0
    6.4390   -4.9940   24.7510 C   0  0  0  0  0  0  0  0  0  0  0  0
   11.0320   -1.0850   22.6340 C   0  0  0  0  0  0  0  0  0  0  0  0
  1  2  1  0
  2  3  2  0
  2  4  2  0
  2  5  1  0
  5  6  1  0
  6  7  1  0
  7  8  1  0
  8  9  2  0
  9 10  1  0
 10 11  2  0
 11 12  1  0
 12 13  1  0
 13 14  2  0
 14 15  1  0
 15 16  1  0
 16 17  1  0
 17 18  2  0
 17 19  1  0
 19 20  1  0
 20 21  2  0
 21 22  1  0
 22 23  2  0
 23 24  1  0
 20 25  1  0
 24 25  2  0
  8 26  1  0
 12 26  2  0
 15 26  1  0
M  END
