DUN-NEW-f8ce3686-7
     RDKit          3D

 28 31  0  0  0  0  0  0  0  0999 V2000
    4.9410   -1.9040   22.6760 C   0  0  0  0  0  0  0  0  0  0  0  0
    5.2530   -1.5300   21.2840 C   0  0  0  0  0  0  0  0  0  0  0  0
    4.7650   -0.5200   20.7750 O   0  0  0  0  0  0  0  0  0  0  0  0
    6.1070   -2.3750   20.5900 N   0  0  0  0  0  0  0  0  0  0  0  0
    5.5920   -3.4390   19.7470 C   0  0  0  0  0  0  0  0  0  0  0  0
    5.8220   -4.6910   20.3650 C   0  0  0  0  0  0  0  0  0  0  0  0
    6.2790   -4.4980   21.7180 N   0  0  0  0  0  0  0  0  0  0  0  0
    7.3350   -3.6720   22.0990 C   0  0  0  0  0  0  0  0  0  0  0  0
    7.4840   -3.6850   23.5480 C   0  0  0  0  0  0  0  0  0  0  0  0
    8.6010   -2.7870   24.1040 C   0  0  0  0  0  0  0  0  0  0  0  0
    8.3920   -1.4470   23.4510 C   0  0  0  0  0  0  0  0  0  0  0  0
    7.3160   -1.2790   22.9230 O   0  0  0  0  0  0  0  0  0  0  0  0
    9.2740   -0.4410   23.4530 N   0  0  0  0  0  0  0  0  0  0  0  0
    8.7220    0.5330   22.6910 C   0  0  0  0  0  0  0  0  0  0  0  0
    8.7060    1.8140   23.0490 C   0  0  0  0  0  0  0  0  0  0  0  0
    8.0120    2.6030   22.0240 N   0  0  0  0  0  0  0  0  0  0  0  0
    7.6220    1.6090   21.0160 C   0  0  0  0  0  0  0  0  0  0  0  0
    6.8960    1.8200   19.7880 N   0  0  0  0  0  0  0  0  0  0  0  0
    6.7070    0.6430   19.0490 C   0  0  0  0  0  0  0  0  0  0  0  0
    7.1710   -0.6100   19.4660 C   0  0  0  0  0  0  0  0  0  0  0  0
    7.8650   -0.7480   20.6850 C   0  0  0  0  0  0  0  0  0  0  0  0
    8.0820    0.3760   21.4530 C   0  0  0  0  0  0  0  0  0  0  0  0
    6.4200   -4.6140   24.0300 C   0  0  0  0  0  0  0  0  0  0  0  0
    5.9760   -5.0840   25.2830 C   0  0  0  0  0  0  0  0  0  0  0  0
    4.8340   -6.0560   25.4080 C   0  0  0  0  0  0  0  0  0  0  0  0
    4.1770   -6.5170   24.2670 C   0  0  0  0  0  0  0  0  0  0  0  0
    4.6140   -6.0400   23.0330 C   0  0  0  0  0  0  0  0  0  0  0  0
    5.6780   -5.1310   22.8920 C   0  0  0  0  0  0  0  0  0  0  0  0
  1  2  1  0
  2  3  2  0
  2  4  1  0
  4  5  1  0
  5  6  1  0
  6  7  1  0
  7  8  1  0
  8  9  2  0
  9 10  1  0
 10 11  1  0
 11 12  2  0
 11 13  1  0
 13 14  1  0
 14 15  2  0
 15 16  1  0
 16 17  1  0
 17 18  1  0
 18 19  2  0
 19 20  1  0
 20 21  2  0
 14 22  1  0
 17 22  2  0
 21 22  1  0
  9 23  1  0
 23 24  1  0
 24 25  2  0
 25 26  1  0
 26 27  2  0
  7 28  1  0
 23 28  2  0
 27 28  1  0
M  END
