DUN-NEW-f8ce3686-13
     RDKit          3D

 24 26  0  0  0  0  0  0  0  0999 V2000
    5.3270   -1.9470   23.7580 C   0  0  0  0  0  0  0  0  0  0  0  0
    6.4570   -1.7500   24.7330 C   0  0  0  0  0  0  0  0  0  0  0  0
    6.4280   -2.2180   25.8640 O   0  0  0  0  0  0  0  0  0  0  0  0
    7.5020   -0.9960   24.2360 N   0  0  0  0  0  0  0  0  0  0  0  0
    8.7960   -1.5730   23.8780 C   0  0  0  0  0  0  0  0  0  0  0  0
    8.8020   -2.9460   23.7690 C   0  0  0  0  0  0  0  0  0  0  0  0
    7.7290   -3.7760   24.0620 C   0  0  0  0  0  0  0  0  0  0  0  0
    7.5690   -3.6190   22.6570 C   0  0  0  0  0  0  0  0  0  0  0  0
    6.5460   -4.2200   21.9240 N   0  0  0  0  0  0  0  0  0  0  0  0
    6.4840   -4.0060   20.5860 C   0  0  0  0  0  0  0  0  0  0  0  0
    5.8100   -3.0400   19.9330 C   0  0  0  0  0  0  0  0  0  0  0  0
    4.8930   -3.4800   18.9330 O   0  0  0  0  0  0  0  0  0  0  0  0
    6.0300   -1.6570   20.1190 N   0  0  0  0  0  0  0  0  0  0  0  0
    7.2650   -1.0940   20.2900 C   0  0  0  0  0  0  0  0  0  0  0  0
    7.1830    0.0240   21.0200 C   0  0  0  0  0  0  0  0  0  0  0  0
    6.5720    1.0640   20.2430 O   0  0  0  0  0  0  0  0  0  0  0  0
    5.9660    0.5170   19.0630 C   0  0  0  0  0  0  0  0  0  0  0  0
    5.2230   -0.6220   19.4090 C   0  0  0  0  0  0  0  0  0  0  0  0
    5.8990   -4.8620   22.7430 C   0  0  0  0  0  0  0  0  0  0  0  0
    4.7950   -5.6430   22.5190 C   0  0  0  0  0  0  0  0  0  0  0  0
    4.0940   -6.3630   23.6260 C   0  0  0  0  0  0  0  0  0  0  0  0
    4.7250   -6.1330   24.9760 C   0  0  0  0  0  0  0  0  0  0  0  0
    5.8570   -5.3310   25.1550 C   0  0  0  0  0  0  0  0  0  0  0  0
    6.5230   -4.6540   24.0990 C   0  0  0  0  0  0  0  0  0  0  0  0
  1  2  1  0
  2  3  2  0
  2  4  1  0
  4  5  1  0
  5  6  1  0
  6  7  1  0
  7  8  2  0
  8  9  1  0
  9 10  1  0
 10 11  1  0
 11 12  2  0
 11 13  1  0
 13 14  1  0
 14 15  1  0
 15 16  1  0
 16 17  1  0
 13 18  1  0
 17 18  1  0
  9 19  1  0
 19 20  1  0
 20 21  2  0
 21 22  1  0
 22 23  2  0
  7 24  1  0
 19 24  2  0
 23 24  1  0
M  END
