DUN-NEW-f8ce3686-17
     RDKit          3D

 27 30  0  0  0  0  0  0  0  0999 V2000
    5.7010   -3.6630   20.2340 C   0  0  0  0  0  0  0  0  0  0  0  0
    6.0220   -4.1260   21.5700 N   0  0  0  0  0  0  0  0  0  0  0  0
    5.8840   -5.5280   21.9520 C   0  0  0  0  0  0  0  0  0  0  0  0
    6.2240   -5.5270   23.1710 C   0  0  0  0  0  0  0  0  0  0  0  0
    6.5880   -4.1500   23.6150 C   0  0  0  0  0  0  0  0  0  0  0  0
    7.0750   -3.6840   25.0260 C   0  0  0  0  0  0  0  0  0  0  0  0
    7.4320   -2.1460   25.2680 C   0  0  0  0  0  0  0  0  0  0  0  0
    7.2870   -1.1850   24.0360 C   0  0  0  0  0  0  0  0  0  0  0  0
    6.9000   -2.5940   23.8200 C   0  0  0  0  0  0  0  0  0  0  0  0
    6.9420   -3.3880   25.0920 N   0  0  0  0  0  0  0  0  0  0  0  0
    5.7860   -4.3320   24.9770 C   0  0  0  0  0  0  0  0  0  0  0  0
    5.8080   -5.4520   25.5240 O   0  0  0  0  0  0  0  0  0  0  0  0
    4.6110   -3.8500   24.2250 N   0  0  0  0  0  0  0  0  0  0  0  0
    3.3400   -4.4140   24.2530 C   0  0  0  0  0  0  0  0  0  0  0  0
    3.0590   -5.5800   23.3590 C   0  0  0  0  0  0  0  0  0  0  0  0
    1.7890   -6.1640   23.3580 C   0  0  0  0  0  0  0  0  0  0  0  0
    0.7500   -5.6930   24.1810 C   0  0  0  0  0  0  0  0  0  0  0  0
    0.9370   -4.6230   25.0320 N   0  0  0  0  0  0  0  0  0  0  0  0
    2.2740   -4.0060   25.0310 C   0  0  0  0  0  0  0  0  0  0  0  0
    6.7810   -2.6570   26.3190 C   0  0  1  0  0  0  0  0  0  0  0  0
    7.8110   -2.5060   27.2450 C   0  0  0  0  0  0  0  0  0  0  0  0
    7.3130   -2.0970   28.6320 C   0  0  0  0  0  0  0  0  0  0  0  0
    6.4420   -0.8190   28.6210 C   0  0  1  0  0  0  0  0  0  0  0  0
    7.1690    0.2410   29.2600 O   0  0  0  0  0  0  0  0  0  0  0  0
    6.0010   -0.4000   27.1910 C   0  0  0  0  0  0  0  0  0  0  0  0
    5.9170   -1.5420   26.1600 C   0  0  0  0  0  0  0  0  0  0  0  0
    6.4870   -3.1340   22.6120 C   0  0  0  0  0  0  0  0  0  0  0  0
  1  2  1  0
  2  3  1  0
  3  4  2  0
  4  5  1  0
  5  6  1  0
  6  7  2  0
  7  8  1  0
  8  9  2  0
  9 10  1  0
 10 11  1  0
 11 12  2  0
 11 13  1  0
 13 14  1  0
 14 15  2  0
 15 16  1  0
 16 17  2  0
 17 18  1  0
 14 19  1  0
 18 19  2  0
 20 10  1  6
 20 21  1  0
 21 22  1  0
 22 23  1  0
 23 24  1  6
 23 25  1  0
 20 26  1  0
 25 26  1  0
  2 27  1  0
  5 27  2  0
  9 27  1  0
M  END
