DUN-NEW-d8381160-1
     RDKit          3D

 21 23  0  0  0  0  0  0  0  0999 V2000
   10.4590    3.1010   22.3690 N   0  0  0  0  0  0  0  0  0  0  0  0
    9.4210    2.3550   22.9330 C   0  0  0  0  0  0  0  0  0  0  0  0
    8.9190    2.7500   24.1680 O   0  0  0  0  0  0  0  0  0  0  0  0
    8.8160    1.1670   22.2360 C   0  0  2  0  0  0  0  0  0  0  0  0
    7.4490    1.0300   22.4340 C   0  0  0  0  0  0  0  0  0  0  0  0
    7.2210   -0.1760   21.7720 N   0  0  0  0  0  0  0  0  0  0  0  0
    6.6960   -0.2250   20.4740 C   0  0  0  0  0  0  0  0  0  0  0  0
    5.5140    0.5770   20.3430 C   0  0  0  0  0  0  0  0  0  0  0  0
    5.3210    0.9820   19.2210 C   0  0  0  0  0  0  0  0  0  0  0  0
    6.3630    0.4160   18.6010 C   0  0  0  0  0  0  0  0  0  0  0  0
    6.7370   -0.2040   20.0140 C   0  0  0  0  0  0  0  0  0  0  0  0
    6.1990   -0.2080   21.5000 N   0  0  0  0  0  0  0  0  0  0  0  0
    5.0720    0.5960   21.4630 C   0  0  0  0  0  0  0  0  0  0  0  0
    8.3940   -0.9000   22.0960 C   0  0  0  0  0  0  0  0  0  0  0  0
    9.2050   -0.1350   22.9250 C   0  0  1  0  0  0  0  0  0  0  0  0
   10.6440   -0.5330   22.6880 C   0  0  0  0  0  0  0  0  0  0  0  0
   11.6630    0.4080   23.1460 C   0  0  0  0  0  0  0  0  0  0  0  0
   13.0390    0.2070   23.0010 C   0  0  0  0  0  0  0  0  0  0  0  0
   13.0720   -1.1200   22.3210 C   0  0  0  0  0  0  0  0  0  0  0  0
   12.2760   -2.2330   21.7720 C   0  0  0  0  0  0  0  0  0  0  0  0
   11.2010   -1.5760   22.1380 C   0  0  0  0  0  0  0  0  0  0  0  0
  1  2  1  0
  2  3  2  0
  4  2  1  1
  4  5  1  0
  5  6  1  0
  6  7  1  0
  7  8  1  0
  8  9  2  0
  9 10  1  0
 10 11  2  0
 11 12  1  0
  8 13  1  0
 12 13  2  0
  6 14  1  0
  4 15  1  0
 14 15  1  0
 15 16  1  6
 16 17  2  0
 17 18  1  0
 18 19  2  0
 19 20  1  0
 16 21  1  0
 20 21  2  0
M  END
