DUN-NEW-f8ce3686-8
     RDKit          3D

 25 27  0  0  0  0  0  0  0  0999 V2000
   12.6210   -0.7430   23.3460 C   0  0  0  0  0  0  0  0  0  0  0  0
   11.5840   -1.5650   24.0650 C   0  0  0  0  0  0  0  0  0  0  0  0
   11.9300   -2.5610   24.7000 O   0  0  0  0  0  0  0  0  0  0  0  0
   10.2590   -1.1430   23.9720 N   0  0  0  0  0  0  0  0  0  0  0  0
    9.2080   -1.8690   23.2640 C   0  0  0  0  0  0  0  0  0  0  0  0
    8.5740   -2.8070   24.0820 C   0  0  0  0  0  0  0  0  0  0  0  0
    7.5610   -3.5240   23.4920 C   0  0  0  0  0  0  0  0  0  0  0  0
    7.3360   -3.6200   22.1430 C   0  0  0  0  0  0  0  0  0  0  0  0
    6.2550   -4.3960   21.7980 N   0  0  0  0  0  0  0  0  0  0  0  0
    5.7660   -4.6620   20.5840 C   0  0  0  0  0  0  0  0  0  0  0  0
    5.5740   -3.4790   19.9680 C   0  0  0  0  0  0  0  0  0  0  0  0
    5.2820   -3.4980   18.7960 O   0  0  0  0  0  0  0  0  0  0  0  0
    5.7040   -2.3260   20.6580 N   0  0  0  0  0  0  0  0  0  0  0  0
    5.5090   -1.1500   20.0050 C   0  0  0  0  0  0  0  0  0  0  0  0
    5.8010   -0.9030   18.5520 C   0  0  0  0  0  0  0  0  0  0  0  0
    5.5030    0.5020   18.0330 C   0  0  0  0  0  0  0  0  0  0  0  0
    4.9820    1.5010   18.8700 C   0  0  0  0  0  0  0  0  0  0  0  0
    4.7490    1.1870   20.1760 N   0  0  0  0  0  0  0  0  0  0  0  0
    5.0000   -0.0510   20.6850 C   0  0  0  0  0  0  0  0  0  0  0  0
    5.7520   -4.8460   22.9720 C   0  0  0  0  0  0  0  0  0  0  0  0
    4.5410   -5.7670   23.0230 C   0  0  0  0  0  0  0  0  0  0  0  0
    4.0220   -6.2140   24.3410 C   0  0  0  0  0  0  0  0  0  0  0  0
    4.7840   -5.6710   25.5500 C   0  0  0  0  0  0  0  0  0  0  0  0
    6.0070   -4.7350   25.3690 C   0  0  0  0  0  0  0  0  0  0  0  0
    6.4760   -4.3470   24.0610 C   0  0  0  0  0  0  0  0  0  0  0  0
  1  2  1  0
  2  3  2  0
  2  4  1  0
  4  5  1  0
  5  6  1  0
  6  7  1  0
  7  8  2  0
  8  9  1  0
  9 10  1  0
 10 11  1  0
 11 12  2  0
 11 13  1  0
 13 14  1  0
 14 15  2  0
 15 16  1  0
 16 17  2  0
 17 18  1  0
 14 19  1  0
 18 19  2  0
  9 20  1  0
 20 21  1  0
 21 22  2  0
 22 23  1  0
 23 24  2  0
  7 25  1  0
 20 25  2  0
 24 25  1  0
M  END
