DUN-NEW-f8ce3686-10
     RDKit          3D

 22 23  0  0  0  0  0  0  0  0999 V2000
   10.1920    6.5140   23.7010 C   0  0  0  0  0  0  0  0  0  0  0  0
   11.5380    6.5790   23.0320 C   0  0  0  0  0  0  0  0  0  0  0  0
   12.3920    7.3680   23.4090 O   0  0  0  0  0  0  0  0  0  0  0  0
   11.6430    5.6750   21.9940 N   0  0  0  0  0  0  0  0  0  0  0  0
   12.3090    4.4300   22.0130 C   0  0  0  0  0  0  0  0  0  0  0  0
   12.2680    3.6310   23.1530 C   0  0  0  0  0  0  0  0  0  0  0  0
   11.4140    2.5210   23.2170 C   0  0  0  0  0  0  0  0  0  0  0  0
   10.0810    2.6340   23.5510 C   0  0  0  0  0  0  0  0  0  0  0  0
    9.5270    1.3870   23.4820 N   0  0  0  0  0  0  0  0  0  0  0  0
   10.4690    0.4480   23.1030 C   0  0  0  0  0  0  0  0  0  0  0  0
   10.3160   -1.0500   22.8540 C   0  0  0  0  0  0  0  0  0  0  0  0
    8.8900   -1.5750   23.0750 C   0  0  0  0  0  0  0  0  0  0  0  0
    8.8700   -3.0370   23.3950 C   0  0  0  0  0  0  0  0  0  0  0  0
    8.3670   -3.2000   24.6030 N   0  0  0  0  0  0  0  0  0  0  0  0
    7.9970   -4.7770   25.1410 S   0  0  0  0  0  0  0  0  0  0  0  0
    7.3010   -5.4850   23.7560 C   0  0  0  0  0  0  0  0  0  0  0  0
    9.2330   -5.4510   25.4780 O   0  0  0  0  0  0  0  0  0  0  0  0
    6.9620   -4.6710   26.1470 O   0  0  0  0  0  0  0  0  0  0  0  0
   11.4220   -1.8090   22.4480 C   0  0  0  0  0  0  0  0  0  0  0  0
   12.7940   -1.1520   22.3000 C   0  0  0  0  0  0  0  0  0  0  0  0
   12.9180    0.3330   22.5690 C   0  0  0  0  0  0  0  0  0  0  0  0
   11.6820    1.1330   22.9570 C   0  0  0  0  0  0  0  0  0  0  0  0
  1  2  1  0
  2  3  2  0
  2  4  1  0
  4  5  1  0
  5  6  1  0
  6  7  1  0
  7  8  2  0
  8  9  1  0
  9 10  1  0
 10 11  1  0
 11 12  1  0
 12 13  1  0
 13 14  1  0
 15 14  1  0
 15 16  1  0
 15 17  2  0
 15 18  2  0
 11 19  2  0
 19 20  1  0
 20 21  2  0
  7 22  1  0
 10 22  2  0
 21 22  1  0
M  END
