ELE-IMP-dfb36048-6
     RDKit          3D

 14 15  0  0  0  0  0  0  0  0999 V2000
    9.3850    5.3300   22.7730 N   0  0  0  0  0  0  0  0  0  0  0  0
   10.7390    5.1660   23.5220 S   0  0  0  0  0  0  0  0  0  0  0  0
   11.6910    5.6600   22.5600 O   0  0  0  0  0  0  0  0  0  0  0  0
   10.9060    5.6180   24.8830 O   0  0  0  0  0  0  0  0  0  0  0  0
   10.9280    3.3520   23.4640 C   0  0  0  0  0  0  0  0  0  0  0  0
   10.1960    2.4060   23.4360 C   0  0  0  0  0  0  0  0  0  0  0  0
   11.3840    1.5350   23.0830 C   0  0  0  0  0  0  0  0  0  0  0  0
   10.1200    1.9250   23.8030 C   0  0  0  0  0  0  0  0  0  0  0  0
   10.9490    2.5020   23.0640 C   0  0  0  0  0  0  0  0  0  0  0  0
   12.1250    2.3590   22.4120 F   0  0  0  0  0  0  0  0  0  0  0  0
   11.0120    0.9030   23.0180 C   0  0  0  0  0  0  0  0  0  0  0  0
   11.7930   -0.3820   22.8990 C   0  0  0  0  0  0  0  0  0  0  0  0
   12.1380    0.6570   23.7130 C   0  0  0  0  0  0  0  0  0  0  0  0
   11.7860    2.1260   23.8550 N   0  0  0  0  0  0  0  0  0  0  0  0
  2  1  1  0
  2  3  2  0
  2  4  2  0
  2  5  1  0
  5  6  2  0
  6  7  1  0
  7  8  2  0
  8  9  1  0
  9 10  1  0
  9 11  2  0
 11 12  1  0
  7 13  1  0
 12 13  2  0
  5 14  1  0
 13 14  1  0
M  END
