ELE-IMP-dfb36048-5
     RDKit          3D

 23 24  0  0  0  0  0  0  0  0999 V2000
    8.7320    6.4420   22.4700 C   0  0  0  0  0  0  0  0  0  0  0  0
   10.0600    6.3670   23.6500 S   0  0  0  0  0  0  0  0  0  0  0  0
    9.7560    5.3450   24.6160 O   0  0  0  0  0  0  0  0  0  0  0  0
   10.3930    7.7030   24.0730 O   0  0  0  0  0  0  0  0  0  0  0  0
   11.3090    5.7750   22.6880 N   0  0  0  0  0  0  0  0  0  0  0  0
   12.3440    4.9450   23.3540 C   0  0  0  0  0  0  0  0  0  0  0  0
   12.5700    3.6890   22.7680 C   0  0  0  0  0  0  0  0  0  0  0  0
   11.7690    2.5820   23.1050 C   0  0  0  0  0  0  0  0  0  0  0  0
   10.4750    2.7220   23.6090 C   0  0  0  0  0  0  0  0  0  0  0  0
    9.8380    1.5380   23.8510 N   0  0  0  0  0  0  0  0  0  0  0  0
   10.6790    0.5100   23.5150 C   0  0  0  0  0  0  0  0  0  0  0  0
   10.5480   -1.0040   23.5300 C   0  0  0  0  0  0  0  0  0  0  0  0
    9.2380   -1.6120   23.9810 C   0  0  0  0  0  0  0  0  0  0  0  0
    9.0870   -2.9200   23.4730 C   0  0  0  0  0  0  0  0  0  0  0  0
    7.7350   -3.4460   23.7260 N   0  0  0  0  0  0  0  0  0  0  0  0
    6.4010   -2.7490   22.9830 S   0  0  0  0  0  0  0  0  0  0  0  0
    5.5160   -4.1590   22.3480 C   0  0  0  0  0  0  0  0  0  0  0  0
    6.8570   -1.9580   21.8640 O   0  0  0  0  0  0  0  0  0  0  0  0
    5.6050   -2.1820   24.0480 O   0  0  0  0  0  0  0  0  0  0  0  0
   11.6760   -1.7350   23.1020 C   0  0  0  0  0  0  0  0  0  0  0  0
   12.8570   -1.1120   22.6860 C   0  0  0  0  0  0  0  0  0  0  0  0
   13.0220    0.2880   22.6520 C   0  0  0  0  0  0  0  0  0  0  0  0
   11.9990    1.1570   23.0300 C   0  0  0  0  0  0  0  0  0  0  0  0
  1  2  1  0
  2  3  2  0
  2  4  2  0
  2  5  1  0
  5  6  1  0
  6  7  1  0
  7  8  1  0
  8  9  2  0
  9 10  1  0
 10 11  1  0
 11 12  1  0
 12 13  1  0
 13 14  1  0
 14 15  1  0
 16 15  1  0
 16 17  1  0
 16 18  2  0
 16 19  2  0
 12 20  2  0
 20 21  1  0
 21 22  2  0
  8 23  1  0
 11 23  2  0
 22 23  1  0
M  END
