EMI-TUK-a58865cc-6
     RDKit          3D

 22 23  0  0  0  0  0  0  0  0999 V2000
    5.9160   -3.0700   25.9120 N   0  0  0  0  0  0  0  0  0  0  0  0
    5.9100   -4.1170   24.8590 C   0  0  0  0  0  0  0  0  0  0  0  0
    5.0890   -5.2570   25.0430 N   0  0  0  0  0  0  0  0  0  0  0  0
    6.7560   -3.7820   23.8120 N   0  0  0  0  0  0  0  0  0  0  0  0
    7.4860   -2.5110   23.8890 C   0  0  0  0  0  0  0  0  0  0  0  0
    8.4360   -2.4070   22.7800 C   0  0  0  0  0  0  0  0  0  0  0  0
    8.8860   -1.0200   22.5460 N   0  0  0  0  0  0  0  0  0  0  0  0
    8.2060   -0.2430   21.5960 C   0  0  0  0  0  0  0  0  0  0  0  0
    8.6510    0.8670   21.2860 O   0  0  0  0  0  0  0  0  0  0  0  0
    7.0530   -0.7530   21.0450 N   0  0  0  0  0  0  0  0  0  0  0  0
    6.3290   -0.0400   20.0840 C   0  0  0  0  0  0  0  0  0  0  0  0
    5.1370    0.6370   20.3020 C   0  0  0  0  0  0  0  0  0  0  0  0
    4.5290    1.3270   19.2540 C   0  0  0  0  0  0  0  0  0  0  0  0
    5.2040    1.3080   17.9140 C   0  0  0  0  0  0  0  0  0  0  0  0
    6.3480    0.6450   17.7160 N   0  0  0  0  0  0  0  0  0  0  0  0
    6.8670   -0.0010   18.7930 C   0  0  0  0  0  0  0  0  0  0  0  0
   10.2940   -0.6880   22.7060 C   0  0  0  0  0  0  0  0  0  0  0  0
   10.4740    0.5250   23.4900 C   0  0  0  0  0  0  0  0  0  0  0  0
   11.7460    1.0190   23.7140 C   0  0  0  0  0  0  0  0  0  0  0  0
   12.9860    0.3380   23.1720 C   0  0  0  0  0  0  0  0  0  0  0  0
   12.7960   -0.9260   22.3740 C   0  0  0  0  0  0  0  0  0  0  0  0
   11.3790   -1.4210   22.1570 C   0  0  0  0  0  0  0  0  0  0  0  0
  1  2  1  0
  2  3  1  0
  2  4  2  3
  4  5  1  0
  5  6  1  0
  6  7  1  0
  7  8  1  0
  8  9  2  0
  8 10  1  0
 10 11  1  0
 11 12  2  0
 12 13  1  0
 13 14  2  0
 14 15  1  0
 11 16  1  0
 15 16  2  0
  7 17  1  0
 17 18  2  0
 18 19  1  0
 19 20  2  0
 20 21  1  0
 17 22  1  0
 21 22  2  0
M  END
