EMI-TUK-b780fc43-1
     RDKit          3D

 23 25  0  0  0  0  0  0  0  0999 V2000
    5.9650   -5.4530   21.5710 C   0  0  0  0  0  0  0  0  0  0  0  0
    5.5910   -4.1640   21.7600 C   0  0  0  0  0  0  0  0  0  0  0  0
    4.2510   -4.1320   22.2700 O   0  0  0  0  0  0  0  0  0  0  0  0
    6.4950   -3.0440   21.4400 C   0  0  0  0  0  0  0  0  0  0  0  0
    6.3580   -1.7070   22.1930 C   0  0  1  0  0  0  0  0  0  0  0  0
    6.9980   -1.7240   23.4320 C   0  0  0  0  0  0  0  0  0  0  0  0
    8.4030   -1.9240   23.3780 C   0  0  0  0  0  0  0  0  0  0  0  0
    9.0220   -1.0050   22.4260 N   0  0  0  0  0  0  0  0  0  0  0  0
   10.3970   -0.5840   22.5710 C   0  0  0  0  0  0  0  0  0  0  0  0
   10.6710    0.8910   22.9040 C   0  0  0  0  0  0  0  0  0  0  0  0
   12.1290    1.3260   23.0300 C   0  0  0  0  0  0  0  0  0  0  0  0
   13.1540    0.2740   22.8240 C   0  0  0  0  0  0  0  0  0  0  0  0
   12.8080   -1.0170   22.5320 N   0  0  0  0  0  0  0  0  0  0  0  0
   11.4850   -1.4340   22.4080 C   0  0  0  0  0  0  0  0  0  0  0  0
    8.2160   -0.1450   21.6210 C   0  0  0  0  0  0  0  0  0  0  0  0
    8.6270    0.9270   21.1670 O   0  0  0  0  0  0  0  0  0  0  0  0
    6.9290   -0.5990   21.3860 N   0  0  0  0  0  0  0  0  0  0  0  0
    6.2900    0.0210   20.2480 C   0  0  0  0  0  0  0  0  0  0  0  0
    5.0870    0.7180   20.3400 C   0  0  0  0  0  0  0  0  0  0  0  0
    4.4990    1.3670   19.1180 C   0  0  0  0  0  0  0  0  0  0  0  0
    5.1700    1.2600   17.9060 C   0  0  0  0  0  0  0  0  0  0  0  0
    6.3210    0.5940   17.7790 N   0  0  0  0  0  0  0  0  0  0  0  0
    6.8710   -0.0330   18.9780 C   0  0  0  0  0  0  0  0  0  0  0  0
  1  2  1  0
  2  3  2  0
  2  4  1  0
  5  4  1  6
  5  6  1  0
  6  7  1  0
  7  8  1  0
  8  9  1  0
  9 10  2  0
 10 11  1  0
 11 12  2  0
 12 13  1  0
  9 14  1  0
 13 14  2  0
  8 15  1  0
 15 16  2  0
  5 17  1  0
 15 17  1  0
 17 18  1  0
 18 19  2  0
 19 20  1  0
 20 21  2  0
 21 22  1  0
 18 23  1  0
 22 23  2  0
M  END
