EMI-TUK-a58865cc-5
     RDKit          3D

 22 23  0  0  0  0  0  0  0  0999 V2000
    6.7300   -5.1440   24.6050 O   0  0  0  0  0  0  0  0  0  0  0  0
    7.5370   -4.5840   25.3380 C   0  0  0  0  0  0  0  0  0  0  0  0
    7.5420   -4.7440   26.6710 O   0  0  0  0  0  0  0  0  0  0  0  0
    8.6270   -3.6440   24.8510 C   0  0  0  0  0  0  0  0  0  0  0  0
    8.5590   -3.1930   23.5830 C   0  0  0  0  0  0  0  0  0  0  0  0
    8.4950   -1.6880   23.4140 C   0  0  0  0  0  0  0  0  0  0  0  0
    9.1060   -1.0590   22.3910 N   0  0  0  0  0  0  0  0  0  0  0  0
    8.3150   -0.2560   21.5850 C   0  0  0  0  0  0  0  0  0  0  0  0
    8.6800    0.8850   21.3030 O   0  0  0  0  0  0  0  0  0  0  0  0
    7.0500   -0.7470   21.0610 N   0  0  0  0  0  0  0  0  0  0  0  0
    6.3890   -0.0520   20.0780 C   0  0  0  0  0  0  0  0  0  0  0  0
    5.0910    0.7020   20.4180 C   0  0  0  0  0  0  0  0  0  0  0  0
    4.5830    1.4030   19.1430 C   0  0  0  0  0  0  0  0  0  0  0  0
    5.1900    1.3550   17.9220 C   0  0  0  0  0  0  0  0  0  0  0  0
    6.3250    0.6640   17.7060 N   0  0  0  0  0  0  0  0  0  0  0  0
    6.8820   -0.0060   18.7560 C   0  0  0  0  0  0  0  0  0  0  0  0
   10.4610   -0.6180   22.5550 C   0  0  0  0  0  0  0  0  0  0  0  0
   10.7100    0.7880   23.0590 C   0  0  0  0  0  0  0  0  0  0  0  0
   12.0190    1.2170   23.2080 C   0  0  0  0  0  0  0  0  0  0  0  0
   13.0420    0.3660   22.9000 C   0  0  0  0  0  0  0  0  0  0  0  0
   12.8590   -0.9220   22.4380 C   0  0  0  0  0  0  0  0  0  0  0  0
   11.5840   -1.4310   22.2590 C   0  0  0  0  0  0  0  0  0  0  0  0
  1  2  2  0
  2  3  1  0
  2  4  1  0
  4  5  1  0
  5  6  1  0
  6  7  1  0
  7  8  1  0
  8  9  2  0
  8 10  1  0
 10 11  1  0
 11 12  2  0
 12 13  1  0
 13 14  2  0
 14 15  1  0
 11 16  1  0
 15 16  2  0
  7 17  1  0
 17 18  2  0
 18 19  1  0
 19 20  2  0
 20 21  1  0
 17 22  1  0
 21 22  2  0
M  END
