EMI-TUK-a58865cc-7
     RDKit          3D

 22 23  0  0  0  0  0  0  0  0999 V2000
    5.3100   -3.8740   24.6800 N   0  0  0  0  0  0  0  0  0  0  0  0
    5.2250   -3.2110   23.4830 C   0  0  0  0  0  0  0  0  0  0  0  0
    3.9760   -3.2020   22.8940 N   0  0  0  0  0  0  0  0  0  0  0  0
    6.4270   -2.5660   22.9110 C   0  0  0  0  0  0  0  0  0  0  0  0
    7.6660   -3.0570   23.3060 C   0  0  0  0  0  0  0  0  0  0  0  0
    8.8760   -2.5960   22.5450 C   0  0  0  0  0  0  0  0  0  0  0  0
    9.1230   -1.1430   22.5610 N   0  0  0  0  0  0  0  0  0  0  0  0
    8.3590   -0.3260   21.5740 C   0  0  0  0  0  0  0  0  0  0  0  0
    8.7470    0.7930   21.2410 O   0  0  0  0  0  0  0  0  0  0  0  0
    7.1890   -0.8380   21.0480 N   0  0  0  0  0  0  0  0  0  0  0  0
    6.4290   -0.1060   20.1150 C   0  0  0  0  0  0  0  0  0  0  0  0
    5.2800    0.5430   20.3700 C   0  0  0  0  0  0  0  0  0  0  0  0
    4.5670    1.3040   19.3040 C   0  0  0  0  0  0  0  0  0  0  0  0
    5.2110    1.2960   17.9500 C   0  0  0  0  0  0  0  0  0  0  0  0
    6.3550    0.6250   17.7510 N   0  0  0  0  0  0  0  0  0  0  0  0
    6.9160   -0.0400   18.8030 C   0  0  0  0  0  0  0  0  0  0  0  0
   10.4290   -0.7160   22.7280 C   0  0  0  0  0  0  0  0  0  0  0  0
   10.6510    0.4410   23.4340 C   0  0  0  0  0  0  0  0  0  0  0  0
   11.9260    0.9390   23.6190 C   0  0  0  0  0  0  0  0  0  0  0  0
   13.0010    0.2630   23.0880 C   0  0  0  0  0  0  0  0  0  0  0  0
   12.8110   -0.9110   22.3820 C   0  0  0  0  0  0  0  0  0  0  0  0
   11.5250   -1.4040   22.1980 C   0  0  0  0  0  0  0  0  0  0  0  0
  1  2  2  3
  2  3  1  0
  2  4  1  0
  4  5  1  0
  5  6  1  0
  6  7  1  0
  7  8  1  0
  8  9  2  0
  8 10  1  0
 10 11  1  0
 11 12  2  0
 12 13  1  0
 13 14  2  0
 14 15  1  0
 11 16  1  0
 15 16  2  0
  7 17  1  0
 17 18  2  0
 18 19  1  0
 19 20  2  0
 20 21  1  0
 17 22  1  0
 21 22  2  0
M  END
