EMI-TUK-a58865cc-3
     RDKit          3D

 25 27  0  0  0  0  0  0  0  0999 V2000
   13.7910   -3.0220   23.1010 O   0  0  0  0  0  0  0  0  0  0  0  0
   13.2070   -2.3140   22.3020 C   0  0  0  0  0  0  0  0  0  0  0  0
   13.2350   -2.5070   20.9700 O   0  0  0  0  0  0  0  0  0  0  0  0
   12.3400   -1.1680   22.7280 C   0  0  0  0  0  0  0  0  0  0  0  0
   12.8260   -0.0240   23.2400 C   0  0  0  0  0  0  0  0  0  0  0  0
   11.9130    1.0940   23.6680 C   0  0  0  0  0  0  0  0  0  0  0  0
   10.4210    0.9040   23.5090 C   0  0  0  0  0  0  0  0  0  0  0  0
   10.0260   -0.4180   22.9150 C   0  0  0  0  0  0  0  0  0  0  0  0
    8.6100   -0.5980   22.7380 N   0  0  0  0  0  0  0  0  0  0  0  0
    8.0430   -0.0880   21.6030 C   0  0  0  0  0  0  0  0  0  0  0  0
    8.4560    0.9480   21.0780 O   0  0  0  0  0  0  0  0  0  0  0  0
    7.0010   -0.7790   21.1040 N   0  0  0  0  0  0  0  0  0  0  0  0
    6.4020   -0.1100   20.1150 C   0  0  0  0  0  0  0  0  0  0  0  0
    5.2320    0.6210   20.2960 C   0  0  0  0  0  0  0  0  0  0  0  0
    4.5830    1.3940   19.1290 C   0  0  0  0  0  0  0  0  0  0  0  0
    5.1870    1.3460   17.9080 C   0  0  0  0  0  0  0  0  0  0  0  0
    6.3130    0.6350   17.7320 N   0  0  0  0  0  0  0  0  0  0  0  0
    6.9280   -0.0980   18.8240 C   0  0  0  0  0  0  0  0  0  0  0  0
    7.8710   -1.7180   23.4100 C   0  0  0  0  0  0  0  0  0  0  0  0
    7.0780   -1.7290   24.5570 C   0  0  0  0  0  0  0  0  0  0  0  0
    6.4890   -2.9090   24.9830 C   0  0  0  0  0  0  0  0  0  0  0  0
    6.6800   -4.0770   24.2810 C   0  0  0  0  0  0  0  0  0  0  0  0
    7.4660   -4.0890   23.1390 C   0  0  0  0  0  0  0  0  0  0  0  0
    8.0560   -2.9070   22.7120 C   0  0  0  0  0  0  0  0  0  0  0  0
   10.9690   -1.3730   22.5590 C   0  0  0  0  0  0  0  0  0  0  0  0
  1  2  2  0
  2  3  1  0
  2  4  1  0
  4  5  2  0
  5  6  1  0
  6  7  2  0
  7  8  1  0
  8  9  1  0
  9 10  1  0
 10 11  2  0
 10 12  1  0
 12 13  1  0
 13 14  2  0
 14 15  1  0
 15 16  2  0
 16 17  1  0
 13 18  1  0
 17 18  2  0
  9 19  1  0
 19 20  2  0
 20 21  1  0
 21 22  2  0
 22 23  1  0
 19 24  1  0
 23 24  2  0
  4 25  1  0
  8 25  2  0
M  END
