EMI-TUK-6c6b371f-1
     RDKit          3D

 23 25  0  0  0  0  0  0  0  0999 V2000
    4.0420   -2.5130   23.9330 C   0  0  0  0  0  0  0  0  0  0  0  0
    4.5940   -2.9450   22.5450 C   0  0  0  0  0  0  0  0  0  0  0  0
    4.5520   -4.0980   22.1320 O   0  0  0  0  0  0  0  0  0  0  0  0
    5.1740   -1.7980   21.7100 C   0  0  0  0  0  0  0  0  0  0  0  0
    6.4120   -1.3660   22.1540 C   0  0  1  0  0  0  0  0  0  0  0  0
    7.2760   -2.3290   22.7320 C   0  0  0  0  0  0  0  0  0  0  0  0
    8.5560   -1.9600   23.1810 C   0  0  0  0  0  0  0  0  0  0  0  0
    9.1190   -0.8910   22.3740 N   0  0  0  0  0  0  0  0  0  0  0  0
   10.4730   -0.4760   22.5550 C   0  0  0  0  0  0  0  0  0  0  0  0
   10.7230    0.8400   22.8810 C   0  0  0  0  0  0  0  0  0  0  0  0
   12.1350    1.2850   23.0470 C   0  0  0  0  0  0  0  0  0  0  0  0
   13.0920    0.3160   22.8620 C   0  0  0  0  0  0  0  0  0  0  0  0
   12.9100   -0.9530   22.5560 N   0  0  0  0  0  0  0  0  0  0  0  0
   11.5860   -1.2990   22.4120 C   0  0  0  0  0  0  0  0  0  0  0  0
    8.3140   -0.1350   21.5420 C   0  0  0  0  0  0  0  0  0  0  0  0
    8.6160    0.9830   21.1200 O   0  0  0  0  0  0  0  0  0  0  0  0
    7.1040   -0.7220   21.2000 N   0  0  0  0  0  0  0  0  0  0  0  0
    6.4150   -0.0460   20.1360 C   0  0  0  0  0  0  0  0  0  0  0  0
    5.2280    0.6650   20.3560 C   0  0  0  0  0  0  0  0  0  0  0  0
    4.5870    1.3290   19.2970 C   0  0  0  0  0  0  0  0  0  0  0  0
    5.1820    1.2460   18.0400 C   0  0  0  0  0  0  0  0  0  0  0  0
    6.3180    0.5680   17.8040 N   0  0  0  0  0  0  0  0  0  0  0  0
    6.9060   -0.0630   18.8410 C   0  0  0  0  0  0  0  0  0  0  0  0
  1  2  1  0
  2  3  2  0
  2  4  1  0
  5  4  1  6
  5  6  1  0
  6  7  1  0
  7  8  1  0
  8  9  1  0
  9 10  2  0
 10 11  1  0
 11 12  2  0
 12 13  1  0
  9 14  1  0
 13 14  2  0
  8 15  1  0
 15 16  2  0
  5 17  1  0
 15 17  1  0
 17 18  1  0
 18 19  2  0
 19 20  1  0
 20 21  2  0
 21 22  1  0
 18 23  1  0
 22 23  2  0
M  END
