ERI-WAB-56c49854-1
     RDKit          3D

 19 20  0  0  0  0  0  0  0  0999 V2000
    5.4240    0.6180   20.5000 N   0  0  0  0  0  0  0  0  0  0  0  0
    5.6870   -0.2800   21.4010 C   0  0  0  0  0  0  0  0  0  0  0  0
    5.2390   -0.0580   22.6590 N   0  0  0  0  0  0  0  0  0  0  0  0
    6.4560   -1.5540   21.0690 C   0  0  0  0  0  0  0  0  0  0  0  0
    6.5600   -2.6680   22.1640 C   0  0  0  0  0  0  0  0  0  0  0  0
    5.2060   -3.3700   22.5340 C   0  0  0  0  0  0  0  0  0  0  0  0
    5.0980   -4.3620   23.4500 N   0  0  0  0  0  0  0  0  0  0  0  0
    6.2660   -4.7060   24.0270 C   0  0  0  0  0  0  0  0  0  0  0  0
    7.5120   -4.1260   23.7520 C   0  0  0  0  0  0  0  0  0  0  0  0
    7.7130   -3.1010   22.8310 C   0  0  0  0  0  0  0  0  0  0  0  0
    8.9850   -2.5820   22.6230 C   0  0  0  0  0  0  0  0  0  0  0  0
    9.1450   -1.2050   22.6920 C   0  0  0  0  0  0  0  0  0  0  0  0
    8.1960   -0.4220   22.7350 O   0  0  0  0  0  0  0  0  0  0  0  0
   10.4230   -0.6740   22.7140 C   0  0  0  0  0  0  0  0  0  0  0  0
   10.4900    0.8170   22.9350 C   0  0  0  0  0  0  0  0  0  0  0  0
   11.8760    1.4290   22.9650 C   0  0  0  0  0  0  0  0  0  0  0  0
   13.1160    0.5850   22.7930 C   0  0  0  0  0  0  0  0  0  0  0  0
   12.9450   -0.9130   22.5720 C   0  0  0  0  0  0  0  0  0  0  0  0
   11.5280   -1.4890   22.5420 C   0  0  0  0  0  0  0  0  0  0  0  0
  1  2  2  3
  2  3  1  0
  2  4  1  0
  4  5  1  0
  5  6  2  0
  6  7  1  0
  7  8  2  0
  8  9  1  0
  5 10  1  0
  9 10  2  0
 10 11  1  0
 11 12  1  0
 12 13  2  0
 12 14  1  0
 14 15  2  0
 15 16  1  0
 16 17  2  0
 17 18  1  0
 14 19  1  0
 18 19  2  0
M  END
