ERI-WAB-212bafa6-2
     RDKit          3D

 20 21  0  0  0  0  0  0  0  0999 V2000
    6.4270   -1.2960   25.6190 C   0  0  0  0  0  0  0  0  0  0  0  0
    6.4890   -0.7080   24.2190 C   0  0  0  0  0  0  0  0  0  0  0  0
    6.1220    0.5640   24.0090 C   0  0  0  0  0  0  0  0  0  0  0  0
    7.8900   -0.9480   23.6750 C   0  0  0  0  0  0  0  0  0  0  0  0
    8.5380    0.1110   22.7600 C   0  0  0  0  0  0  0  0  0  0  0  0
   10.0600    0.0910   22.7710 C   0  0  0  0  0  0  0  0  0  0  0  0
   10.5900    1.5020   22.9340 C   0  0  0  0  0  0  0  0  0  0  0  0
   12.1340    1.5190   22.9620 C   0  0  0  0  0  0  0  0  0  0  0  0
   12.9880    0.4670   22.8610 C   0  0  0  0  0  0  0  0  0  0  0  0
   12.3330   -0.9220   22.6910 C   0  0  0  0  0  0  0  0  0  0  0  0
   10.9370   -1.0260   22.6550 C   0  0  0  0  0  0  0  0  0  0  0  0
   10.4150   -2.4360   22.4790 C   0  0  0  0  0  0  0  0  0  0  0  0
    9.1260   -2.7990   22.8760 C   0  0  0  0  0  0  0  0  0  0  0  0
    8.9330   -3.4460   23.9100 O   0  0  0  0  0  0  0  0  0  0  0  0
    8.0190   -2.4290   22.1100 C   0  0  0  0  0  0  0  0  0  0  0  0
    6.7800   -2.9930   22.3330 C   0  0  0  0  0  0  0  0  0  0  0  0
    5.6930   -2.6210   21.5760 C   0  0  0  0  0  0  0  0  0  0  0  0
    5.7680   -1.6680   20.5540 C   0  0  0  0  0  0  0  0  0  0  0  0
    7.0120   -1.0730   20.2980 C   0  0  0  0  0  0  0  0  0  0  0  0
    8.1390   -1.4710   21.0960 C   0  0  0  0  0  0  0  0  0  0  0  0
  1  2  1  0
  2  3  1  0
  2  4  1  0
  4  5  1  0
  5  6  1  0
  6  7  2  0
  7  8  1  0
  8  9  2  0
  9 10  1  0
  6 11  1  0
 10 11  2  0
 11 12  1  0
 12 13  1  0
 13 14  2  0
 13 15  1  0
 15 16  2  0
 16 17  1  0
 17 18  2  0
 18 19  1  0
 15 20  1  0
 19 20  2  0
M  END
