FAB-ASS-ec2fd593-2
     RDKit          3D

 40 43  0  0  0  0  0  0  0  0999 V2000
    4.9120   -5.3210   23.3300 C   0  0  0  0  0  0  0  0  0  0  0  0
    5.0460   -4.8660   24.6730 O   0  0  0  0  0  0  0  0  0  0  0  0
    4.2620   -3.8110   25.1080 C   0  0  0  0  0  0  0  0  0  0  0  0
    4.7610   -2.6880   25.0780 O   0  0  0  0  0  0  0  0  0  0  0  0
    2.9010   -3.9500   25.5870 C   0  0  1  0  0  0  0  0  0  0  0  0
    2.0800   -3.0220   24.9450 C   0  0  0  0  0  0  0  0  0  0  0  0
    1.9820   -2.2070   25.9940 C   0  0  0  0  0  0  0  0  0  0  0  0
    1.2450   -0.9550   26.2110 C   0  0  0  0  0  0  0  0  0  0  0  0
    0.1280   -0.7360   27.0400 C   0  0  0  0  0  0  0  0  0  0  0  0
   -0.3750    0.5720   27.0550 C   0  0  0  0  0  0  0  0  0  0  0  0
   -0.7250    1.1980   26.0680 O   0  0  0  0  0  0  0  0  0  0  0  0
   -0.3970    1.0120   28.3460 O   0  0  0  0  0  0  0  0  0  0  0  0
   -1.7220    1.2460   28.9100 C   0  0  1  0  0  0  0  0  0  0  0  0
   -1.8130    0.5730   30.1440 C   0  0  0  0  0  0  0  0  0  0  0  0
   -2.9850   -0.1940   30.1860 C   0  0  0  0  0  0  0  0  0  0  0  0
   -4.1360    0.3290   30.7770 C   0  0  0  0  0  0  0  0  0  0  0  0
   -5.3130   -0.4220   30.8320 C   0  0  0  0  0  0  0  0  0  0  0  0
   -5.3430   -1.7160   30.2890 C   0  0  0  0  0  0  0  0  0  0  0  0
   -6.4990   -2.4400   30.3520 O   0  0  0  0  0  0  0  0  0  0  0  0
   -4.1910   -2.2520   29.6900 C   0  0  0  0  0  0  0  0  0  0  0  0
   -4.1980   -3.5090   29.1550 O   0  0  0  0  0  0  0  0  0  0  0  0
   -3.0220   -1.4910   29.6420 C   0  0  0  0  0  0  0  0  0  0  0  0
   -1.8150    2.7600   29.1420 C   0  0  0  0  0  0  0  0  0  0  0  0
   -1.1080    3.4020   29.9050 O   0  0  0  0  0  0  0  0  0  0  0  0
   -2.7820    3.3590   28.4000 O   0  0  0  0  0  0  0  0  0  0  0  0
    2.7810   -2.8670   26.8370 C   0  0  0  0  0  0  0  0  0  0  0  0
    3.5740   -3.9830   26.9560 C   0  0  0  0  0  0  0  0  0  0  0  0
    3.5330   -4.7210   25.7280 C   0  0  0  0  0  0  0  0  0  0  0  0
    4.2430   -5.8890   25.6290 O   0  0  0  0  0  0  0  0  0  0  0  0
    2.7200   -4.1840   24.6360 C   0  0  0  0  0  0  0  0  0  0  0  0
    2.5740   -4.7970   23.4910 O   0  0  0  0  0  0  0  0  0  0  0  0
    2.0230   -5.1130   24.7600 C   0  0  1  0  0  0  0  0  0  0  0  0
    1.9220   -6.4670   25.0780 C   0  0  0  0  0  0  0  0  0  0  0  0
    2.4580   -6.8750   26.4400 C   0  0  0  0  0  0  0  0  0  0  0  0
    2.3750   -8.2250   26.7980 C   0  0  0  0  0  0  0  0  0  0  0  0
    1.7490   -9.2490   25.8170 C   0  0  0  0  0  0  0  0  0  0  0  0
    1.6620  -10.5850   26.1410 O   0  0  0  0  0  0  0  0  0  0  0  0
    1.2360   -8.7080   24.4840 C   0  0  0  0  0  0  0  0  0  0  0  0
    0.6590   -9.5600   23.5910 O   0  0  0  0  0  0  0  0  0  0  0  0
    1.3470   -7.3660   24.1750 C   0  0  0  0  0  0  0  0  0  0  0  0
  1  2  1  0
  2  3  1  0
  3  4  2  0
  5  3  1  6
  5  6  1  0
  6  7  2  0
  7  8  1  0
  8  9  2  3
  9 10  1  0
 10 11  2  0
 10 12  1  0
 12 13  1  0
 13 14  1  1
 14 15  1  0
 15 16  2  0
 16 17  1  0
 17 18  2  0
 18 19  1  0
 18 20  1  0
 20 21  1  0
 15 22  1  0
 20 22  2  0
 13 23  1  0
 23 24  2  0
 23 25  1  0
  7 26  1  0
 26 27  2  0
 27 28  1  0
 28 29  1  0
  6 30  1  0
 28 30  2  0
 30 31  1  0
  5 32  1  0
 31 32  1  0
 32 33  1  1
 33 34  2  0
 34 35  1  0
 35 36  2  0
 36 37  1  0
 36 38  1  0
 38 39  1  0
 33 40  1  0
 38 40  2  0
M  END
