FAB-ASS-ec2fd593-1
     RDKit          3D

 39 42  0  0  0  0  0  0  0  0999 V2000
    0.8350    0.5010   26.9220 O   0  0  0  0  0  0  0  0  0  0  0  0
    0.6410   -0.5940   26.4210 C   0  0  0  0  0  0  0  0  0  0  0  0
    1.7390   -1.3280   25.8690 C   0  0  0  0  0  0  0  0  0  0  0  0
    2.1700   -2.6500   26.2800 C   0  0  0  0  0  0  0  0  0  0  0  0
    3.3260   -3.4630   25.6970 C   0  0  0  0  0  0  0  0  0  0  0  0
    2.1500   -3.7110   25.0010 C   0  0  0  0  0  0  0  0  0  0  0  0
    1.2240   -2.8870   25.6940 C   0  0  0  0  0  0  0  0  0  0  0  0
    1.3720   -1.9640   26.8820 C   0  0  0  0  0  0  0  0  0  0  0  0
    1.9400   -1.2130   28.0050 O   0  0  0  0  0  0  0  0  0  0  0  0
    2.7770   -2.0280   27.2720 C   0  0  0  0  0  0  0  0  0  0  0  0
    3.7220   -2.7620   26.6840 C   0  0  0  0  0  0  0  0  0  0  0  0
    5.1590   -2.7180   27.2110 C   0  0  2  0  0  0  0  0  0  0  0  0
    5.4780   -3.7390   28.0950 C   0  0  0  0  0  0  0  0  0  0  0  0
    4.6230   -4.7840   28.3580 O   0  0  0  0  0  0  0  0  0  0  0  0
    6.6910   -3.6270   28.6700 O   0  0  0  0  0  0  0  0  0  0  0  0
    4.8060   -1.3940   27.9680 C   0  0  2  0  0  0  0  0  0  0  0  0
    5.5400   -1.0290   29.0900 C   0  0  0  0  0  0  0  0  0  0  0  0
    4.8930   -0.8370   30.3230 C   0  0  0  0  0  0  0  0  0  0  0  0
    5.6140   -0.4670   31.4600 C   0  0  0  0  0  0  0  0  0  0  0  0
    6.9870   -0.2900   31.3470 C   0  0  0  0  0  0  0  0  0  0  0  0
    7.6720    0.0770   32.5420 O   0  0  0  0  0  0  0  0  0  0  0  0
    7.6420   -0.4680   30.1470 C   0  0  0  0  0  0  0  0  0  0  0  0
    8.8440   -0.2880   30.1160 O   0  0  0  0  0  0  0  0  0  0  0  0
    6.9220   -0.8440   28.9970 C   0  0  0  0  0  0  0  0  0  0  0  0
    3.3720   -1.3530   28.3020 O   0  0  0  0  0  0  0  0  0  0  0  0
   -0.5810   -1.2060   26.3210 O   0  0  0  0  0  0  0  0  0  0  0  0
   -1.7310   -0.4010   26.7190 C   0  0  1  0  0  0  0  0  0  0  0  0
   -2.7260   -0.4810   25.7410 C   0  0  0  0  0  0  0  0  0  0  0  0
   -2.9860    0.7950   25.1890 C   0  0  0  0  0  0  0  0  0  0  0  0
   -3.1260    0.8230   23.7960 C   0  0  0  0  0  0  0  0  0  0  0  0
   -3.3870    2.0250   23.1200 C   0  0  0  0  0  0  0  0  0  0  0  0
   -3.5180    3.2310   23.8060 C   0  0  0  0  0  0  0  0  0  0  0  0
   -3.7730    4.3870   23.1220 O   0  0  0  0  0  0  0  0  0  0  0  0
   -3.3920    3.2750   25.1900 C   0  0  0  0  0  0  0  0  0  0  0  0
   -3.5220    4.4610   25.8540 O   0  0  0  0  0  0  0  0  0  0  0  0
   -3.1050    1.9690   25.9390 C   0  0  0  0  0  0  0  0  0  0  0  0
   -2.2740   -0.9840   28.0250 C   0  0  0  0  0  0  0  0  0  0  0  0
   -2.2330   -0.4780   29.1400 O   0  0  0  0  0  0  0  0  0  0  0  0
   -2.8590   -2.1920   27.8660 O   0  0  0  0  0  0  0  0  0  0  0  0
  1  2  2  0
  2  3  1  0
  3  4  2  3
  4  5  1  0
  5  6  2  0
  6  7  1  0
  7  8  2  0
  8  9  1  0
  8 10  1  0
  5 11  1  0
 10 11  2  0
 11 12  1  0
 12 13  1  1
 13 14  2  0
 13 15  1  0
 12 16  1  0
 16 17  1  1
 17 18  2  0
 18 19  1  0
 19 20  2  0
 20 21  1  0
 20 22  1  0
 22 23  1  0
 17 24  1  0
 22 24  2  0
 10 25  1  0
 16 25  1  0
  2 26  1  0
 26 27  1  0
 27 28  1  6
 28 29  1  0
 29 30  2  0
 30 31  1  0
 31 32  2  0
 32 33  1  0
 32 34  1  0
 34 35  1  0
 29 36  1  0
 34 36  2  0
 27 37  1  0
 37 38  2  0
 37 39  1  0
M  END
