FAR-UNI-9a76d7b5-3
     RDKit          3D

 35 40  0  0  0  0  0  0  0  0999 V2000
   -0.5410   -7.8130   26.9120 N   0  0  0  0  0  0  0  0  0  0  0  0
    0.3550   -7.3100   26.1290 C   0  0  0  0  0  0  0  0  0  0  0  0
    0.1450   -6.0380   25.5010 O   0  0  0  0  0  0  0  0  0  0  0  0
    1.6000   -8.0930   25.8970 C   0  0  0  0  0  0  0  0  0  0  0  0
    2.3560   -7.8260   24.8200 C   0  0  0  0  0  0  0  0  0  0  0  0
    3.6950   -7.1200   25.0840 C   0  0  2  0  0  0  0  0  0  0  0  0
    3.8990   -6.7480   26.4950 N   0  0  0  0  0  0  0  0  0  0  0  0
    4.4970   -5.3940   26.5500 C   0  0  2  0  0  0  0  0  0  0  0  0
    5.5270   -5.2380   27.5710 C   0  0  0  0  0  0  0  0  0  0  0  0
    6.4990   -5.9590   27.7060 O   0  0  0  0  0  0  0  0  0  0  0  0
    5.2900   -4.1740   28.4510 N   0  0  0  0  0  0  0  0  0  0  0  0
    3.9820   -3.7230   28.1510 C   0  0  0  0  0  0  0  0  0  0  0  0
    3.2550   -2.6450   28.9230 C   0  0  0  0  0  0  0  0  0  0  0  0
    3.8980   -1.7920   30.2710 Cl  0  0  0  0  0  0  0  0  0  0  0  0
    1.8480   -2.3640   28.3850 C   0  0  0  0  0  0  0  0  0  0  0  0
    1.2760   -3.0270   27.2920 C   0  0  0  0  0  0  0  0  0  0  0  0
    2.0710   -4.0330   26.6410 C   0  0  0  0  0  0  0  0  0  0  0  0
    3.4410   -4.3840   27.0700 C   0  0  0  0  0  0  0  0  0  0  0  0
    4.9520   -5.1590   25.0620 C   0  0  1  0  0  0  0  0  0  0  0  0
    6.0860   -5.8500   24.4820 C   0  0  0  0  0  0  0  0  0  0  0  0
    6.3820   -5.7630   25.6540 O   0  0  0  0  0  0  0  0  0  0  0  0
    5.5990   -5.8650   23.1920 N   0  0  0  0  0  0  0  0  0  0  0  0
    6.2560   -5.1840   22.2040 C   0  0  0  0  0  0  0  0  0  0  0  0
    6.9520   -4.2830   22.9120 C   0  0  0  0  0  0  0  0  0  0  0  0
    8.0990   -3.6610   22.5640 C   0  0  0  0  0  0  0  0  0  0  0  0
    8.7040   -2.7390   23.3410 C   0  0  0  0  0  0  0  0  0  0  0  0
    8.1220   -2.4510   24.4740 C   0  0  0  0  0  0  0  0  0  0  0  0
    6.9320   -3.1070   24.8800 C   0  0  0  0  0  0  0  0  0  0  0  0
    6.4200   -3.9790   24.0860 C   0  0  0  0  0  0  0  0  0  0  0  0
    6.4850   -2.6840   26.0790 O   0  0  0  0  0  0  0  0  0  0  0  0
    7.1890   -1.4400   26.0580 C   0  0  0  0  0  0  0  0  0  0  0  0
    8.4640   -1.5760   25.3690 O   0  0  0  0  0  0  0  0  0  0  0  0
    4.1740   -5.7600   23.1830 C   0  0  0  0  0  0  0  0  0  0  0  0
    3.4720   -5.6750   22.2340 O   0  0  0  0  0  0  0  0  0  0  0  0
    3.7770   -5.7920   24.4130 C   0  0  1  0  0  0  0  0  0  0  0  0
  1  2  1  0
  2  3  2  0
  2  4  1  0
  4  5  1  0
  6  5  1  1
  6  7  1  0
  8  7  1  6
  8  9  1  0
  9 10  2  0
  9 11  1  0
 11 12  1  0
 12 13  1  0
 13 14  1  0
 13 15  2  0
 15 16  1  0
 16 17  2  0
  8 18  1  0
 12 18  2  0
 17 18  1  0
  8 19  1  0
 19 20  1  1
 20 21  2  0
 20 22  1  0
 22 23  1  0
 23 24  1  0
 24 25  2  0
 25 26  1  0
 26 27  2  0
 27 28  1  0
 24 29  1  0
 28 29  2  0
 28 30  1  0
 30 31  1  0
 27 32  1  0
 31 32  1  0
 22 33  1  0
 33 34  2  0
  6 35  1  0
 19 35  1  0
 35 33  1  6
M  END
