FAR-UNI-736b943a-7
     RDKit          3D

 26 29  0  0  0  0  0  0  0  0999 V2000
   10.1310    1.4140   23.1320 O   0  0  0  0  0  0  0  0  0  0  0  0
   11.5510    1.2450   22.9570 C   0  0  0  0  0  0  0  0  0  0  0  0
   11.5350    0.2850   23.8320 O   0  0  0  0  0  0  0  0  0  0  0  0
   12.5840    0.3630   23.1080 C   0  0  1  0  0  0  0  0  0  0  0  0
   12.2590   -0.5770   22.1620 N   0  0  0  0  0  0  0  0  0  0  0  0
   13.2070   -1.3350   21.3520 C   0  0  0  0  0  0  0  0  0  0  0  0
   14.0250   -1.0180   20.5400 O   0  0  0  0  0  0  0  0  0  0  0  0
   12.8920   -2.5520   21.6320 C   0  0  0  0  0  0  0  0  0  0  0  0
   11.5800   -2.5310   21.9640 C   0  0  0  0  0  0  0  0  0  0  0  0
   11.0720   -1.3330   22.3040 C   0  0  1  0  0  0  0  0  0  0  0  0
   10.2290   -1.5060   23.4780 C   0  0  0  0  0  0  0  0  0  0  0  0
   10.6140   -1.2200   24.5850 O   0  0  0  0  0  0  0  0  0  0  0  0
    8.9950   -2.0530   23.2850 N   0  0  0  0  0  0  0  0  0  0  0  0
    7.7320   -2.5850   23.2720 C   0  0  0  0  0  0  0  0  0  0  0  0
    6.6080   -1.6810   23.4450 C   0  0  0  0  0  0  0  0  0  0  0  0
    5.3340   -2.1070   23.4420 C   0  0  0  0  0  0  0  0  0  0  0  0
    5.0110   -3.5380   23.2560 C   0  0  0  0  0  0  0  0  0  0  0  0
    6.0500   -4.4530   23.0870 C   0  0  0  0  0  0  0  0  0  0  0  0
    5.7260   -6.1270   22.8700 Cl  0  0  0  0  0  0  0  0  0  0  0  0
    7.4950   -3.9500   23.0980 C   0  0  0  0  0  0  0  0  0  0  0  0
   12.5840    1.9280   22.8280 C   0  0  0  0  0  0  0  0  0  0  0  0
   11.0760    2.3280   22.7630 C   0  0  0  0  0  0  0  0  0  0  0  0
   10.6180    0.9280   23.0050 C   0  0  0  0  0  0  0  0  0  0  0  0
   11.9150    0.5210   23.0840 C   0  0  0  0  0  0  0  0  0  0  0  0
   12.6930   -0.5630   23.2860 C   0  0  0  0  0  0  0  0  0  0  0  0
   13.1330    0.7550   23.0400 C   0  0  0  0  0  0  0  0  0  0  0  0
  1  2  2  0
  2  3  1  0
  3  4  1  0
  4  5  1  6
  5  6  1  0
  6  7  2  0
  6  8  1  0
  8  9  1  0
  5 10  1  0
  9 10  1  0
 10 11  1  1
 11 12  2  0
 11 13  1  0
 13 14  1  0
 14 15  2  0
 15 16  1  0
 16 17  2  0
 17 18  1  0
 18 19  1  0
 14 20  1  0
 18 20  2  0
  4 21  1  0
 21 22  2  0
 22 23  1  0
 23 24  2  0
 24 25  1  0
  2 26  1  0
 21 26  1  0
 25 26  2  0
M  END
