FAR-UNI-124f5ee8-1
     RDKit          3D

 34 35  0  0  0  0  0  0  0  0999 V2000
    9.1870    4.2270   25.2750 C   0  0  0  0  0  0  0  0  0  0  0  0
    7.9210    3.5840   25.8460 C   0  0  0  0  0  0  0  0  0  0  0  0
    6.8980    4.5630   26.4880 C   0  0  0  0  0  0  0  0  0  0  0  0
    7.1710    2.7270   24.7940 C   0  0  0  0  0  0  0  0  0  0  0  0
    8.0150    2.2670   23.6200 C   0  0  1  0  0  0  0  0  0  0  0  0
    7.5970    0.9100   23.2130 N   0  0  0  0  0  0  0  0  0  0  0  0
    8.2670    0.2140   22.2230 C   0  0  0  0  0  0  0  0  0  0  0  0
    8.7780    0.7980   21.2760 O   0  0  0  0  0  0  0  0  0  0  0  0
    8.3170   -1.1810   22.3750 C   0  0  1  0  0  0  0  0  0  0  0  0
    9.4070   -1.7430   23.0710 C   0  0  0  0  0  0  0  0  0  0  0  0
   10.6730   -1.1460   22.9520 C   0  0  0  0  0  0  0  0  0  0  0  0
   11.7160   -1.9330   22.6150 C   0  0  0  0  0  0  0  0  0  0  0  0
   13.0100   -1.2150   22.5160 C   0  0  0  0  0  0  0  0  0  0  0  0
   13.1020    0.2730   22.7760 C   0  0  0  0  0  0  0  0  0  0  0  0
   11.9860    1.2620   23.1590 C   0  0  0  0  0  0  0  0  0  0  0  0
   10.8090    0.2310   23.1830 C   0  0  0  0  0  0  0  0  0  0  0  0
    7.0530   -1.5480   23.0160 N   0  0  0  0  0  0  0  0  0  0  0  0
    6.3840   -2.7140   22.7900 C   0  0  0  0  0  0  0  0  0  0  0  0
    5.9430   -3.0910   21.7120 O   0  0  0  0  0  0  0  0  0  0  0  0
    6.2770   -3.3760   23.9650 O   0  0  0  0  0  0  0  0  0  0  0  0
    6.8260   -4.6990   23.9890 C   0  0  0  0  0  0  0  0  0  0  0  0
    6.8360   -5.1450   25.3050 C   0  0  0  0  0  0  0  0  0  0  0  0
    8.0180   -5.6540   25.8630 C   0  0  0  0  0  0  0  0  0  0  0  0
    8.0680   -6.1080   27.1810 C   0  0  0  0  0  0  0  0  0  0  0  0
    6.9380   -6.0780   28.0100 C   0  0  0  0  0  0  0  0  0  0  0  0
    5.7320   -5.5850   27.5140 C   0  0  0  0  0  0  0  0  0  0  0  0
    5.6740   -5.0900   26.0820 C   0  0  0  0  0  0  0  0  0  0  0  0
    7.8000    3.1080   22.3420 C   0  0  0  0  0  0  0  0  0  0  0  0
    7.2490    2.6440   21.3360 O   0  0  0  0  0  0  0  0  0  0  0  0
    8.2230    4.4120   22.2910 N   0  0  0  0  0  0  0  0  0  0  0  0
    7.5430    5.5690   22.8490 C   0  0  0  0  0  0  0  0  0  0  0  0
    8.4030    6.6630   22.8880 C   0  0  0  0  0  0  0  0  0  0  0  0
    7.8500    7.8870   22.6600 N   0  0  0  0  0  0  0  0  0  0  0  0
    9.7290    6.4960   23.1540 O   0  0  0  0  0  0  0  0  0  0  0  0
  1  2  1  0
  2  3  1  0
  2  4  1  0
  5  4  1  1
  5  6  1  0
  6  7  1  0
  7  8  2  0
  7  9  1  0
  9 10  1  1
 10 11  1  0
 11 12  2  0
 12 13  1  0
 13 14  2  0
 14 15  1  0
 11 16  1  0
 15 16  2  0
  9 17  1  0
 17 18  1  0
 18 19  2  0
 18 20  1  0
 20 21  1  0
 21 22  1  0
 22 23  2  0
 23 24  1  0
 24 25  2  0
 25 26  1  0
 22 27  1  0
 26 27  2  0
  5 28  1  0
 28 29  2  0
 28 30  1  0
 30 31  1  0
 31 32  1  0
 32 33  1  0
 32 34  2  0
M  END
