FAR-UNI-9a76d7b5-1
     RDKit          3D

 33 34  0  0  0  0  0  0  0  0999 V2000
    1.4460    2.7290   25.2840 N   0  0  0  0  0  0  0  0  0  0  0  0
    1.0710    1.8770   24.1320 C   0  0  0  0  0  0  0  0  0  0  0  0
   -0.1010    1.0870   24.2200 N   0  0  0  0  0  0  0  0  0  0  0  0
    1.9880    2.0050   23.1040 N   0  0  0  0  0  0  0  0  0  0  0  0
    3.0700    1.0180   23.0350 C   0  0  0  0  0  0  0  0  0  0  0  0
    3.5360    0.8750   21.6530 C   0  0  0  0  0  0  0  0  0  0  0  0
    4.5610   -0.0590   21.4130 C   0  0  0  0  0  0  0  0  0  0  0  0
    4.9500   -0.3160   20.0830 C   0  0  2  0  0  0  0  0  0  0  0  0
    5.8890   -1.3330   19.8850 N   0  0  0  0  0  0  0  0  0  0  0  0
    5.5580   -2.6440   19.4920 C   0  0  0  0  0  0  0  0  0  0  0  0
    5.1310   -1.8580   18.4530 O   0  0  0  0  0  0  0  0  0  0  0  0
    6.1700   -2.8340   20.7430 C   0  0  2  0  0  0  0  0  0  0  0  0
    5.4490   -3.9050   21.5230 C   0  0  0  0  0  0  0  0  0  0  0  0
    6.5480   -4.2460   22.4290 C   0  0  0  0  0  0  0  0  0  0  0  0
    7.4940   -3.2100   22.7240 C   0  0  0  0  0  0  0  0  0  0  0  0
    8.6340   -2.8820   23.3830 C   0  0  0  0  0  0  0  0  0  0  0  0
    8.9960   -3.9990   23.9850 C   0  0  0  0  0  0  0  0  0  0  0  0
    8.1150   -5.3400   23.8770 C   0  0  0  0  0  0  0  0  0  0  0  0
    6.8600   -5.4150   23.0550 C   0  0  0  0  0  0  0  0  0  0  0  0
    6.4640   -1.7290   21.4800 N   0  0  0  0  0  0  0  0  0  0  0  0
    7.6350   -0.8340   21.3160 C   0  0  0  0  0  0  0  0  0  0  0  0
    7.6220    0.3130   20.8640 O   0  0  0  0  0  0  0  0  0  0  0  0
    8.6370   -1.4120   21.7120 O   0  0  0  0  0  0  0  0  0  0  0  0
    9.4240   -0.7090   22.6790 C   0  0  0  0  0  0  0  0  0  0  0  0
   10.7780   -1.3460   22.9560 C   0  0  0  0  0  0  0  0  0  0  0  0
   11.1530   -1.5340   24.3130 C   0  0  0  0  0  0  0  0  0  0  0  0
   12.5020   -2.1660   24.6600 C   0  0  0  0  0  0  0  0  0  0  0  0
   13.4360   -2.5970   23.5540 C   0  0  0  0  0  0  0  0  0  0  0  0
   12.9520   -2.3620   22.1350 C   0  0  0  0  0  0  0  0  0  0  0  0
   11.5950   -1.7230   21.9030 C   0  0  0  0  0  0  0  0  0  0  0  0
    5.4350    0.9270   19.3050 C   0  0  0  0  0  0  0  0  0  0  0  0
    5.9870    1.8890   19.8180 O   0  0  0  0  0  0  0  0  0  0  0  0
    5.2130    0.9030   17.9800 O   0  0  0  0  0  0  0  0  0  0  0  0
  1  2  2  3
  2  3  1  0
  2  4  1  0
  4  5  1  0
  5  6  1  0
  6  7  1  0
  8  7  1  1
  8  9  1  0
  9 10  1  0
 10 11  2  0
 10 12  1  0
 12 13  1  1
 13 14  1  0
 14 15  2  0
 15 16  1  0
 16 17  2  0
 17 18  1  0
 14 19  1  0
 18 19  2  0
 12 20  1  0
 20 21  1  0
 21 22  2  0
 21 23  1  0
 23 24  1  0
 24 25  1  0
 25 26  2  0
 26 27  1  0
 27 28  2  0
 28 29  1  0
 25 30  1  0
 29 30  2  0
  8 31  1  0
 31 32  2  0
 31 33  1  0
M  END
