FRA-BIO-8bf1eac9-10
     RDKit          3D

 26 28  0  0  0  0  0  0  0  0999 V2000
    5.9710   -2.5520   22.5650 O   0  0  0  0  0  0  0  0  0  0  0  0
    6.7200   -1.6150   22.3140 C   0  0  0  0  0  0  0  0  0  0  0  0
    7.8300   -1.2170   23.1690 N   0  0  0  0  0  0  0  0  0  0  0  0
    9.1340   -1.5380   22.9280 C   0  0  0  0  0  0  0  0  0  0  0  0
   10.1580   -0.6610   23.0140 C   0  0  0  0  0  0  0  0  0  0  0  0
    9.8830    0.7000   23.6200 C   0  0  0  0  0  0  0  0  0  0  0  0
   10.9670    1.7540   23.7600 C   0  0  0  0  0  0  0  0  0  0  0  0
   12.3590    1.5010   23.3030 C   0  0  0  0  0  0  0  0  0  0  0  0
   12.6790    0.1460   22.6950 C   0  0  0  0  0  0  0  0  0  0  0  0
   11.4890   -0.8910   22.5900 C   0  0  0  0  0  0  0  0  0  0  0  0
   11.8260   -1.9370   22.1060 O   0  0  0  0  0  0  0  0  0  0  0  0
   12.5160   -2.6690   23.1240 C   0  0  0  0  0  0  0  0  0  0  0  0
   13.1130   -1.8800   24.2960 C   0  0  0  0  0  0  0  0  0  0  0  0
   12.6220   -2.3210   25.3120 O   0  0  0  0  0  0  0  0  0  0  0  0
    6.5460   -0.7720   21.0290 C   0  0  0  0  0  0  0  0  0  0  0  0
    7.4940   -0.6420   20.2810 O   0  0  0  0  0  0  0  0  0  0  0  0
    5.2460   -0.1800   20.8210 N   0  0  0  0  0  0  0  0  0  0  0  0
    4.9920    0.7250   19.7750 C   0  0  1  0  0  0  0  0  0  0  0  0
    3.8090    1.2350   19.5990 C   0  0  0  0  0  0  0  0  0  0  0  0
    4.4850    2.2920   19.9650 C   0  0  1  0  0  0  0  0  0  0  0  0
    4.1570    2.8780   21.1820 C   0  0  0  0  0  0  0  0  0  0  0  0
    2.7930    3.1210   21.2830 C   0  0  0  0  0  0  0  0  0  0  0  0
    2.5070    4.3850   21.8040 C   0  0  0  0  0  0  0  0  0  0  0  0
    3.2570    4.6660   22.9870 O   0  0  0  0  0  0  0  0  0  0  0  0
    4.6270    4.3000   22.8640 C   0  0  0  0  0  0  0  0  0  0  0  0
    4.9000    4.0210   21.4950 C   0  0  0  0  0  0  0  0  0  0  0  0
  1  2  2  0
  2  3  1  0
  3  4  1  0
  4  5  1  0
  5  6  2  0
  6  7  1  0
  7  8  2  0
  8  9  1  0
  5 10  1  0
  9 10  2  0
 10 11  1  0
 11 12  1  0
 12 13  1  0
 13 14  1  0
  2 15  1  0
 15 16  2  0
 15 17  1  0
 18 17  1  1
 18 19  1  0
 18 20  1  0
 19 20  1  0
 20 21  1  1
 21 22  1  0
 22 23  1  0
 23 24  1  0
 24 25  1  0
 21 26  1  0
 25 26  1  0
M  END
