FRA-FAC-9ed5a63a-3
     RDKit          3D

 17 18  0  0  0  0  0  0  0  0999 V2000
   13.6040   -2.6410   20.6770 O   0  0  0  0  0  0  0  0  0  0  0  0
   12.9740   -2.4610   21.6880 C   0  0  0  0  0  0  0  0  0  0  0  0
   11.7560   -1.8980   21.6160 N   0  0  0  0  0  0  0  0  0  0  0  0
   11.4230   -0.7030   22.2070 C   0  0  0  0  0  0  0  0  0  0  0  0
   12.3060    0.3050   22.6520 C   0  0  0  0  0  0  0  0  0  0  0  0
   11.7730    1.4630   23.2160 C   0  0  0  0  0  0  0  0  0  0  0  0
   10.3850    1.5610   23.3150 C   0  0  0  0  0  0  0  0  0  0  0  0
    9.5190    0.6060   22.8930 N   0  0  0  0  0  0  0  0  0  0  0  0
   10.0710   -0.4980   22.3510 C   0  0  0  0  0  0  0  0  0  0  0  0
   13.4330   -2.8100   22.9190 N   0  0  0  0  0  0  0  0  0  0  0  0
   12.7280   -2.7500   24.1300 C   0  0  1  0  0  0  0  0  0  0  0  0
   13.1920   -1.7180   24.8840 C   0  0  0  0  0  0  0  0  0  0  0  0
   12.5630   -0.4920   24.7840 C   0  0  0  0  0  0  0  0  0  0  0  0
   11.2550   -0.4900   24.3350 C   0  0  2  0  0  0  0  0  0  0  0  0
   10.5350    0.5630   24.7410 F   0  0  0  0  0  0  0  0  0  0  0  0
   10.6290   -1.6450   24.5760 C   0  0  0  0  0  0  0  0  0  0  0  0
   11.3470   -2.8800   24.1310 C   0  0  0  0  0  0  0  0  0  0  0  0
  1  2  2  0
  2  3  1  0
  3  4  1  0
  4  5  2  0
  5  6  1  0
  6  7  2  0
  7  8  1  0
  4  9  1  0
  8  9  2  0
  2 10  1  0
 11 10  1  6
 11 12  1  0
 12 13  1  0
 13 14  1  0
 14 15  1  1
 14 16  1  0
 11 17  1  0
 16 17  1  0
M  END
