FRA-FAC-9ed5a63a-2
     RDKit          3D

 17 18  0  0  0  0  0  0  0  0999 V2000
   13.7010   -0.2330   21.5500 O   0  0  0  0  0  0  0  0  0  0  0  0
   13.1790    0.2060   22.5330 C   0  0  0  0  0  0  0  0  0  0  0  0
   13.0540    1.6950   22.9940 C   0  0  0  0  0  0  0  0  0  0  0  0
   12.3700    2.9070   22.5000 C   0  0  2  0  0  0  0  0  0  0  0  0
   13.0740    4.1110   22.7220 C   0  0  0  0  0  0  0  0  0  0  0  0
   12.2410    5.3150   22.4010 C   0  0  0  0  0  0  0  0  0  0  0  0
   11.0710    5.5140   23.1130 C   0  0  2  0  0  0  0  0  0  0  0  0
   11.3220    6.3800   24.1320 F   0  0  0  0  0  0  0  0  0  0  0  0
   10.5300    4.3450   23.6320 C   0  0  0  0  0  0  0  0  0  0  0  0
   10.8620    3.0670   22.8720 C   0  0  0  0  0  0  0  0  0  0  0  0
   12.6700   -0.7500   23.3730 N   0  0  0  0  0  0  0  0  0  0  0  0
   11.4120   -0.7210   23.2560 C   0  0  0  0  0  0  0  0  0  0  0  0
   10.9660    0.5130   22.9240 C   0  0  0  0  0  0  0  0  0  0  0  0
    9.6710    0.8150   22.7490 C   0  0  0  0  0  0  0  0  0  0  0  0
    8.7420   -0.1940   22.9150 C   0  0  0  0  0  0  0  0  0  0  0  0
    9.1110   -1.4930   23.2440 N   0  0  0  0  0  0  0  0  0  0  0  0
   10.4750   -1.7020   23.4030 C   0  0  0  0  0  0  0  0  0  0  0  0
  1  2  2  0
  2  3  1  0
  4  3  1  1
  4  5  1  0
  5  6  1  0
  6  7  1  0
  7  8  1  1
  7  9  1  0
  4 10  1  0
  9 10  1  0
  2 11  1  0
 11 12  1  0
 12 13  2  0
 13 14  1  0
 14 15  2  0
 15 16  1  0
 12 17  1  0
 16 17  2  0
M  END
