FRA-BIO-8bf1eac9-2
     RDKit          3D

 27 30  0  0  0  0  0  0  0  0999 V2000
    2.7030    2.7320   21.6550 C   0  0  0  0  0  0  0  0  0  0  0  0
    3.9340    3.6120   21.8440 C   0  0  0  0  0  0  0  0  0  0  0  0
    5.1960    2.8690   21.7800 N   0  0  0  0  0  0  0  0  0  0  0  0
    5.5080    2.2150   20.5040 C   0  0  0  0  0  0  0  0  0  0  0  0
    6.8580    1.4970   20.4050 C   0  0  0  0  0  0  0  0  0  0  0  0
    7.9650    1.9300   21.3090 N   0  0  0  0  0  0  0  0  0  0  0  0
    8.4770    0.8080   22.1590 C   0  0  0  0  0  0  0  0  0  0  0  0
    9.9950    0.6510   22.3700 C   0  0  0  0  0  0  0  0  0  0  0  0
   10.6610    1.9480   22.8150 C   0  0  0  0  0  0  0  0  0  0  0  0
   12.1840    1.7440   23.0190 C   0  0  0  0  0  0  0  0  0  0  0  0
   12.9210    0.6120   22.8600 C   0  0  0  0  0  0  0  0  0  0  0  0
   12.1500   -0.6400   22.4060 C   0  0  0  0  0  0  0  0  0  0  0  0
   10.7680   -0.5440   22.1910 C   0  0  0  0  0  0  0  0  0  0  0  0
   10.1020   -1.8180   21.7410 C   0  0  0  0  0  0  0  0  0  0  0  0
    8.8130   -1.8350   21.2780 N   0  0  0  0  0  0  0  0  0  0  0  0
    8.0620   -2.1480   22.4550 C   0  0  0  0  0  0  0  0  0  0  0  0
    7.6530   -3.4430   22.8440 N   0  0  0  0  0  0  0  0  0  0  0  0
    7.2660   -3.0720   24.0940 C   0  0  0  0  0  0  0  0  0  0  0  0
    8.1680   -1.9920   24.4260 C   0  0  1  0  0  0  0  0  0  0  0  0
    9.5200   -2.0360   23.9760 C   0  0  0  0  0  0  0  0  0  0  0  0
   10.1430   -3.2030   23.7710 C   0  0  0  0  0  0  0  0  0  0  0  0
   11.5180   -3.0870   24.0040 C   0  0  0  0  0  0  0  0  0  0  0  0
   11.8030   -1.8000   24.4070 C   0  0  0  0  0  0  0  0  0  0  0  0
   10.4250   -1.2100   24.5820 C   0  0  0  0  0  0  0  0  0  0  0  0
    7.7460   -1.1570   23.4570 N   0  0  0  0  0  0  0  0  0  0  0  0
    7.6410    3.1280   22.0930 C   0  0  0  0  0  0  0  0  0  0  0  0
    6.2780    3.0120   22.7550 C   0  0  0  0  0  0  0  0  0  0  0  0
  1  2  1  0
  2  3  1  0
  3  4  1  0
  4  5  1  0
  5  6  1  0
  6  7  1  0
  7  8  1  0
  8  9  2  0
  9 10  1  0
 10 11  2  0
 11 12  1  0
  8 13  1  0
 12 13  2  0
 13 14  1  0
 14 15  1  0
 15 16  1  0
 16 17  2  0
 17 18  1  0
 18 19  1  0
 19 20  1  6
 20 21  1  0
 21 22  1  0
 22 23  1  0
 20 24  1  0
 23 24  1  0
 16 25  1  0
 19 25  1  0
  6 26  1  0
  3 27  1  0
 26 27  1  0
M  END
