GAB-REV-4a4e2ff3-11
     RDKit          3D

 27 30  0  0  0  0  0  0  0  0999 V2000
    8.9770    6.6880   22.5200 C   0  0  0  0  0  0  0  0  0  0  0  0
   10.1420    6.2460   23.4100 C   0  0  0  0  0  0  0  0  0  0  0  0
   10.1630    6.3680   24.6310 O   0  0  0  0  0  0  0  0  0  0  0  0
   11.2080    5.6660   22.6390 N   0  0  0  0  0  0  0  0  0  0  0  0
   12.4200    5.1850   23.1960 C   0  0  0  0  0  0  0  0  0  0  0  0
   12.7130    3.8890   22.7620 C   0  0  0  0  0  0  0  0  0  0  0  0
   11.7990    2.8590   22.9370 C   0  0  0  0  0  0  0  0  0  0  0  0
   10.4800    3.1010   23.2810 C   0  0  0  0  0  0  0  0  0  0  0  0
    9.8050    1.9090   23.3450 N   0  0  0  0  0  0  0  0  0  0  0  0
   10.6360    0.8740   23.0550 C   0  0  0  0  0  0  0  0  0  0  0  0
   10.1900   -0.4100   23.0340 C   0  0  0  0  0  0  0  0  0  0  0  0
    8.7330   -0.5630   23.3610 N   0  0  0  0  0  0  0  0  0  0  0  0
    8.3310   -1.9580   23.4240 C   0  0  0  0  0  0  0  0  0  0  0  0
    8.8200   -2.7730   24.4420 C   0  0  0  0  0  0  0  0  0  0  0  0
    8.5100   -4.0990   24.5730 C   0  0  0  0  0  0  0  0  0  0  0  0
    7.5850   -4.6820   23.5490 C   0  0  0  0  0  0  0  0  0  0  0  0
    7.2440   -6.0900   23.6460 N   0  0  0  0  0  0  0  0  0  0  0  0
    6.3550   -6.6880   22.6660 C   0  0  0  0  0  0  0  0  0  0  0  0
    5.7840   -5.8470   21.5610 C   0  0  0  0  0  0  0  0  0  0  0  0
    6.1880   -4.4060   21.5490 C   0  0  0  0  0  0  0  0  0  0  0  0
    7.0600   -3.9080   22.5220 C   0  0  0  0  0  0  0  0  0  0  0  0
    7.4550   -2.4760   22.4570 C   0  0  0  0  0  0  0  0  0  0  0  0
   11.1100   -1.4000   22.7090 C   0  0  0  0  0  0  0  0  0  0  0  0
   12.5630   -1.0360   22.4200 C   0  0  0  0  0  0  0  0  0  0  0  0
   13.4700   -1.9550   22.1060 F   0  0  0  0  0  0  0  0  0  0  0  0
   12.9150    0.4630   22.5090 C   0  0  0  0  0  0  0  0  0  0  0  0
   11.9130    1.3940   22.8100 C   0  0  0  0  0  0  0  0  0  0  0  0
  1  2  1  0
  2  3  2  0
  2  4  1  0
  4  5  1  0
  5  6  1  0
  6  7  1  0
  7  8  2  0
  8  9  1  0
  9 10  1  0
 10 11  1  0
 11 12  1  0
 12 13  1  0
 13 14  2  0
 14 15  1  0
 15 16  2  0
 16 17  1  0
 17 18  2  0
 18 19  1  0
 19 20  2  0
 16 21  1  0
 20 21  1  0
 13 22  1  0
 21 22  2  0
 11 23  2  0
 23 24  1  0
 24 25  1  0
 24 26  2  0
  7 27  1  0
 10 27  2  0
 26 27  1  0
M  END
