GAB-REV-4a4e2ff3-9
     RDKit          3D

 26 29  0  0  0  0  0  0  0  0999 V2000
    8.9670    6.6670   22.5810 C   0  0  0  0  0  0  0  0  0  0  0  0
   10.0780    6.3090   23.3370 C   0  0  0  0  0  0  0  0  0  0  0  0
   10.0910    6.3180   24.5660 O   0  0  0  0  0  0  0  0  0  0  0  0
   11.2230    5.9220   22.4930 N   0  0  0  0  0  0  0  0  0  0  0  0
   12.3950    5.4150   23.2170 C   0  0  0  0  0  0  0  0  0  0  0  0
   12.8590    4.0690   22.7730 C   0  0  0  0  0  0  0  0  0  0  0  0
   11.9280    2.8880   22.8980 C   0  0  0  0  0  0  0  0  0  0  0  0
   10.6030    3.1360   23.1860 C   0  0  0  0  0  0  0  0  0  0  0  0
    9.8740    1.9790   23.2360 N   0  0  0  0  0  0  0  0  0  0  0  0
   10.7150    0.9310   22.9810 C   0  0  0  0  0  0  0  0  0  0  0  0
   10.2790   -0.3500   22.9420 C   0  0  0  0  0  0  0  0  0  0  0  0
    8.9670   -0.5560   23.1770 O   0  0  0  0  0  0  0  0  0  0  0  0
    8.5840   -1.7860   23.5920 C   0  0  0  0  0  0  0  0  0  0  0  0
    8.6320   -2.2180   25.0770 C   0  0  0  0  0  0  0  0  0  0  0  0
    8.2230   -3.4860   25.4140 C   0  0  0  0  0  0  0  0  0  0  0  0
    7.7850   -4.2930   24.3620 C   0  0  0  0  0  0  0  0  0  0  0  0
    7.3410   -5.5470   24.4390 C   0  0  0  0  0  0  0  0  0  0  0  0
    6.9730   -6.1130   23.2700 N   0  0  0  0  0  0  0  0  0  0  0  0
    7.2320   -5.0650   22.4090 N   0  0  0  0  0  0  0  0  0  0  0  0
    7.7360   -3.9170   23.0260 C   0  0  0  0  0  0  0  0  0  0  0  0
    8.1340   -2.6610   22.6140 C   0  0  0  0  0  0  0  0  0  0  0  0
   11.2440   -1.3260   22.6450 C   0  0  0  0  0  0  0  0  0  0  0  0
   12.5770   -0.9370   22.4340 C   0  0  0  0  0  0  0  0  0  0  0  0
   13.5000   -1.8490   22.1500 F   0  0  0  0  0  0  0  0  0  0  0  0
   12.9380    0.4310   22.5180 C   0  0  0  0  0  0  0  0  0  0  0  0
   12.0100    1.4220   22.7760 C   0  0  0  0  0  0  0  0  0  0  0  0
  1  2  1  0
  2  3  2  0
  2  4  1  0
  4  5  1  0
  5  6  1  0
  6  7  1  0
  7  8  2  0
  8  9  1  0
  9 10  1  0
 10 11  1  0
 11 12  1  0
 12 13  1  0
 13 14  2  0
 14 15  1  0
 15 16  2  0
 16 17  1  0
 17 18  2  0
 18 19  1  0
 16 20  1  0
 19 20  1  0
 13 21  1  0
 20 21  2  0
 11 22  2  0
 22 23  1  0
 23 24  1  0
 23 25  2  0
  7 26  1  0
 10 26  2  0
 25 26  1  0
M  END
