GAB-REV-70cc3ca5-8
     RDKit          3D

 26 28  0  0  0  0  0  0  0  0999 V2000
    5.2020    1.1620   21.9540 C   0  0  0  0  0  0  0  0  0  0  0  0
    5.5710    0.8140   20.5370 C   0  0  0  0  0  0  0  0  0  0  0  0
    4.7350    1.3640   19.4370 C   0  0  0  0  0  0  0  0  0  0  0  0
    5.0570    1.0540   18.0230 C   0  0  0  0  0  0  0  0  0  0  0  0
    6.1160    0.2490   17.7630 N   0  0  0  0  0  0  0  0  0  0  0  0
    6.9670   -0.3220   18.7640 C   0  0  0  0  0  0  0  0  0  0  0  0
    6.6600    0.0050   20.2100 C   0  0  0  0  0  0  0  0  0  0  0  0
    7.5040   -0.5120   21.2180 N   0  0  0  0  0  0  0  0  0  0  0  0
    8.0940    0.5300   21.9260 C   0  0  0  0  0  0  0  0  0  0  0  0
    8.6460    1.5310   21.4120 O   0  0  0  0  0  0  0  0  0  0  0  0
    8.0280    0.4250   23.4420 C   0  0  0  0  0  0  0  0  0  0  0  0
    9.0150   -0.3690   23.7860 N   0  0  0  0  0  0  0  0  0  0  0  0
    9.5400   -0.0330   25.0550 C   0  0  0  0  0  0  0  0  0  0  0  0
   10.0470   -0.3820   22.4870 S   0  0  0  0  0  0  0  0  0  0  0  0
   10.3920    1.0710   22.2910 O   0  0  0  0  0  0  0  0  0  0  0  0
    9.4140   -1.2000   21.4820 O   0  0  0  0  0  0  0  0  0  0  0  0
   11.5190   -1.1800   22.9380 C   0  0  0  0  0  0  0  0  0  0  0  0
   12.2100   -0.8630   24.0670 C   0  0  0  0  0  0  0  0  0  0  0  0
   13.4140   -1.6290   24.2890 C   0  0  0  0  0  0  0  0  0  0  0  0
   13.8050   -2.5800   23.3630 C   0  0  0  0  0  0  0  0  0  0  0  0
   13.1210   -2.8880   22.2120 C   0  0  0  0  0  0  0  0  0  0  0  0
   13.6230   -3.9320   21.2380 C   0  0  0  0  0  0  0  0  0  0  0  0
   12.7500   -4.1410   20.2810 C   0  0  0  0  0  0  0  0  0  0  0  0
   11.5960   -3.4880   20.1860 C   0  0  0  0  0  0  0  0  0  0  0  0
   11.2130   -2.5010   21.0380 N   0  0  0  0  0  0  0  0  0  0  0  0
   11.9510   -2.1710   22.0690 C   0  0  0  0  0  0  0  0  0  0  0  0
  1  2  1  0
  2  3  2  0
  3  4  1  0
  4  5  2  0
  5  6  1  0
  2  7  1  0
  6  7  2  0
  7  8  1  0
  8  9  1  0
  9 10  2  0
  9 11  1  0
 11 12  1  0
 12 13  1  0
 14 12  1  0
 14 15  2  0
 14 16  2  0
 14 17  1  0
 17 18  2  0
 18 19  1  0
 19 20  2  0
 20 21  1  0
 21 22  1  0
 22 23  2  0
 23 24  1  0
 24 25  2  0
 17 26  1  0
 21 26  2  0
 25 26  1  0
M  END
