GAB-REV-4a4e2ff3-19
     RDKit          3D

 28 31  0  0  0  0  0  0  0  0999 V2000
    8.9800    6.6460   22.6040 C   0  0  0  0  0  0  0  0  0  0  0  0
   10.2360    6.2580   23.2920 C   0  0  0  0  0  0  0  0  0  0  0  0
   10.3290    6.3930   24.5100 O   0  0  0  0  0  0  0  0  0  0  0  0
   11.2320    5.7750   22.5920 N   0  0  0  0  0  0  0  0  0  0  0  0
   12.4290    5.2340   23.2220 C   0  0  0  0  0  0  0  0  0  0  0  0
   12.7240    3.8220   22.8160 C   0  0  0  0  0  0  0  0  0  0  0  0
   11.8120    2.8070   23.1100 C   0  0  0  0  0  0  0  0  0  0  0  0
   10.5020    3.1070   23.7060 C   0  0  0  0  0  0  0  0  0  0  0  0
    9.8120    1.9570   23.8400 N   0  0  0  0  0  0  0  0  0  0  0  0
   10.5450    0.9500   23.3830 C   0  0  0  0  0  0  0  0  0  0  0  0
   10.1130   -0.4650   23.3200 C   0  0  0  0  0  0  0  0  0  0  0  0
    8.8420   -0.7740   23.7890 N   0  0  0  0  0  0  0  0  0  0  0  0
    8.0400    0.2400   24.4310 C   0  0  0  0  0  0  0  0  0  0  0  0
    8.3860   -2.0770   23.8740 C   0  0  0  0  0  0  0  0  0  0  0  0
    8.2580   -2.9870   22.6960 C   0  0  0  0  0  0  0  0  0  0  0  0
    7.7700   -4.2870   22.8640 C   0  0  0  0  0  0  0  0  0  0  0  0
    7.4060   -4.7410   24.1160 C   0  0  0  0  0  0  0  0  0  0  0  0
    7.5290   -3.8980   25.2200 C   0  0  0  0  0  0  0  0  0  0  0  0
    8.0060   -2.5950   25.1150 C   0  0  0  0  0  0  0  0  0  0  0  0
    8.0940   -1.6680   26.5790 Cl  0  0  0  0  0  0  0  0  0  0  0  0
    6.9870   -5.8880   24.1640 O   0  0  0  0  0  0  0  0  0  0  0  0
    6.8640   -6.1930   22.7520 C   0  0  0  0  0  0  0  0  0  0  0  0
    7.5790   -5.2590   21.9340 O   0  0  0  0  0  0  0  0  0  0  0  0
   11.0770   -1.4920   22.7350 C   0  0  0  0  0  0  0  0  0  0  0  0
   12.4870   -1.1250   22.2690 C   0  0  0  0  0  0  0  0  0  0  0  0
   13.3590   -2.0000   21.7770 F   0  0  0  0  0  0  0  0  0  0  0  0
   12.8000    0.3620   22.4200 C   0  0  0  0  0  0  0  0  0  0  0  0
   11.8080    1.3880   22.9440 C   0  0  0  0  0  0  0  0  0  0  0  0
  1  2  1  0
  2  3  2  0
  2  4  1  0
  4  5  1  0
  5  6  1  0
  6  7  1  0
  7  8  2  0
  8  9  1  0
  9 10  1  0
 10 11  1  0
 11 12  1  0
 12 13  1  0
 12 14  1  0
 14 15  2  0
 15 16  1  0
 16 17  2  0
 17 18  1  0
 14 19  1  0
 18 19  2  0
 19 20  1  0
 17 21  1  0
 21 22  1  0
 16 23  1  0
 22 23  1  0
 11 24  2  0
 24 25  1  0
 25 26  1  0
 25 27  2  0
  7 28  1  0
 10 28  2  0
 27 28  1  0
M  END
