GAB-REV-70cc3ca5-12
     RDKit          3D

 22 24  0  0  0  0  0  0  0  0999 V2000
    5.2150    0.8090   22.0350 C   0  0  0  0  0  0  0  0  0  0  0  0
    5.6210    0.5910   20.5540 C   0  0  0  0  0  0  0  0  0  0  0  0
    4.7550    1.1980   19.4650 C   0  0  0  0  0  0  0  0  0  0  0  0
    5.1610    0.9820   18.1750 C   0  0  0  0  0  0  0  0  0  0  0  0
    6.2380    0.2850   17.8140 N   0  0  0  0  0  0  0  0  0  0  0  0
    7.0280   -0.2720   18.7860 C   0  0  0  0  0  0  0  0  0  0  0  0
    6.8310   -0.1860   20.1690 C   0  0  0  0  0  0  0  0  0  0  0  0
    7.7620   -0.8020   21.1010 N   0  0  0  0  0  0  0  0  0  0  0  0
    8.7510    0.1940   21.4360 C   0  0  0  0  0  0  0  0  0  0  0  0
    8.7350    1.3720   21.0560 O   0  0  0  0  0  0  0  0  0  0  0  0
    9.7620   -0.3000   22.2530 C   0  0  0  0  0  0  0  0  0  0  0  0
   10.3860    0.8180   23.0220 C   0  0  0  0  0  0  0  0  0  0  0  0
   10.1080    2.1450   22.4370 N   0  0  0  0  0  0  0  0  0  0  0  0
   10.7310    3.3280   23.0410 C   0  0  0  0  0  0  0  0  0  0  0  0
   11.9340    3.8980   22.5020 C   0  0  0  0  0  0  0  0  0  0  0  0
   12.5930    5.0460   23.0180 C   0  0  0  0  0  0  0  0  0  0  0  0
   12.0060    5.6350   24.1260 C   0  0  0  0  0  0  0  0  0  0  0  0
   12.4030    6.7460   24.8450 N   0  0  0  0  0  0  0  0  0  0  0  0
   11.5340    6.9940   25.8820 N   0  0  0  0  0  0  0  0  0  0  0  0
   10.6590    5.9440   25.6610 C   0  0  0  0  0  0  0  0  0  0  0  0
   10.8640    5.0720   24.6210 C   0  0  0  0  0  0  0  0  0  0  0  0
   10.1810    3.9720   24.1710 C   0  0  0  0  0  0  0  0  0  0  0  0
  1  2  1  0
  2  3  2  0
  3  4  1  0
  4  5  2  0
  5  6  1  0
  2  7  1  0
  6  7  2  0
  7  8  1  0
  8  9  1  0
  9 10  2  0
  9 11  1  0
 11 12  1  0
 12 13  1  0
 13 14  1  0
 14 15  2  0
 15 16  1  0
 16 17  2  0
 17 18  1  0
 18 19  1  0
 19 20  2  0
 17 21  1  0
 20 21  1  0
 14 22  1  0
 21 22  2  0
M  END
