GAB-REV-4a4e2ff3-4
     RDKit          3D

 28 31  0  0  0  0  0  0  0  0999 V2000
    9.0280    6.6610   22.5550 C   0  0  0  0  0  0  0  0  0  0  0  0
   10.2240    6.2150   23.3520 C   0  0  0  0  0  0  0  0  0  0  0  0
   10.2680    6.3070   24.5770 O   0  0  0  0  0  0  0  0  0  0  0  0
   11.2320    5.7040   22.5750 N   0  0  0  0  0  0  0  0  0  0  0  0
   12.4330    5.1300   23.1710 C   0  0  0  0  0  0  0  0  0  0  0  0
   12.7650    3.8990   22.6320 C   0  0  0  0  0  0  0  0  0  0  0  0
   11.7540    2.8230   22.8930 C   0  0  0  0  0  0  0  0  0  0  0  0
   10.4330    3.0230   23.2990 C   0  0  0  0  0  0  0  0  0  0  0  0
    9.7900    1.8060   23.4180 N   0  0  0  0  0  0  0  0  0  0  0  0
   10.6420    0.7980   23.1020 C   0  0  0  0  0  0  0  0  0  0  0  0
   10.2930   -0.6440   23.1130 C   0  0  0  0  0  0  0  0  0  0  0  0
    8.9160   -1.0530   23.5430 C   0  0  0  0  0  0  0  0  0  0  0  0
    8.2560   -1.6520   22.4490 N   0  0  0  0  0  0  0  0  0  0  0  0
    7.6650   -0.8270   21.5330 C   0  0  0  0  0  0  0  0  0  0  0  0
    7.7680    0.5740   21.4840 C   0  0  0  0  0  0  0  0  0  0  0  0
    7.1150    1.3060   20.4870 C   0  0  0  0  0  0  0  0  0  0  0  0
    6.3700    0.6010   19.5450 C   0  0  0  0  0  0  0  0  0  0  0  0
    6.3160   -0.7720   19.6460 C   0  0  0  0  0  0  0  0  0  0  0  0
    6.9220   -1.4860   20.6010 C   0  0  0  0  0  0  0  0  0  0  0  0
    5.5270   -1.2680   18.5730 C   0  0  0  0  0  0  0  0  0  0  0  0
    4.9990   -2.3480   18.5250 O   0  0  0  0  0  0  0  0  0  0  0  0
    5.5570   -0.2500   17.6550 N   0  0  0  0  0  0  0  0  0  0  0  0
    5.5510    0.9940   18.3630 C   0  0  0  0  0  0  0  0  0  0  0  0
   11.3230   -1.4830   22.7100 C   0  0  0  0  0  0  0  0  0  0  0  0
   12.5680   -0.9580   22.3950 C   0  0  0  0  0  0  0  0  0  0  0  0
   13.5230   -1.8090   22.0310 F   0  0  0  0  0  0  0  0  0  0  0  0
   12.8720    0.4080   22.4400 C   0  0  0  0  0  0  0  0  0  0  0  0
   11.8790    1.3490   22.7780 C   0  0  0  0  0  0  0  0  0  0  0  0
  1  2  1  0
  2  3  2  0
  2  4  1  0
  4  5  1  0
  5  6  1  0
  6  7  1  0
  7  8  2  0
  8  9  1  0
  9 10  1  0
 10 11  1  0
 11 12  1  0
 12 13  1  0
 13 14  1  0
 14 15  2  0
 15 16  1  0
 16 17  2  0
 17 18  1  0
 14 19  1  0
 18 19  2  0
 18 20  1  0
 20 21  2  0
 20 22  1  0
 17 23  1  0
 22 23  1  0
 11 24  2  0
 24 25  1  0
 25 26  1  0
 25 27  2  0
  7 28  1  0
 10 28  2  0
 27 28  1  0
M  END
