GAB-REV-70cc3ca5-2
     RDKit          3D

 23 25  0  0  0  0  0  0  0  0999 V2000
    5.3460    0.8080   21.9370 C   0  0  0  0  0  0  0  0  0  0  0  0
    5.6690    0.6190   20.5850 C   0  0  0  0  0  0  0  0  0  0  0  0
    4.8110    1.1020   19.5870 C   0  0  0  0  0  0  0  0  0  0  0  0
    5.1340    0.9150   18.2370 C   0  0  0  0  0  0  0  0  0  0  0  0
    6.2330    0.2820   17.8170 N   0  0  0  0  0  0  0  0  0  0  0  0
    7.0610   -0.1870   18.7620 C   0  0  0  0  0  0  0  0  0  0  0  0
    6.8350   -0.0430   20.1840 C   0  0  0  0  0  0  0  0  0  0  0  0
    7.7800   -0.5530   21.1310 N   0  0  0  0  0  0  0  0  0  0  0  0
    8.8870    0.1500   21.5640 C   0  0  0  0  0  0  0  0  0  0  0  0
    9.1430    1.3330   21.2950 O   0  0  0  0  0  0  0  0  0  0  0  0
    9.7620   -0.6150   22.3370 C   0  0  0  0  0  0  0  0  0  0  0  0
   10.6730    0.0120   23.1620 N   0  0  0  0  0  0  0  0  0  0  0  0
   11.5070    1.0880   22.8470 C   0  0  0  0  0  0  0  0  0  0  0  0
   12.6680    0.8850   22.5200 O   0  0  0  0  0  0  0  0  0  0  0  0
   10.8930    2.3560   22.9860 C   0  0  0  0  0  0  0  0  0  0  0  0
    9.5940    2.4880   23.1960 N   0  0  0  0  0  0  0  0  0  0  0  0
    9.2920    3.8250   23.3070 N   0  0  0  0  0  0  0  0  0  0  0  0
   10.4040    4.5050   23.1630 C   0  0  0  0  0  0  0  0  0  0  0  0
   10.6560    5.8830   23.1970 C   0  0  0  0  0  0  0  0  0  0  0  0
   11.9740    6.2980   23.0120 C   0  0  0  0  0  0  0  0  0  0  0  0
   13.0340    5.4210   22.7870 C   0  0  0  0  0  0  0  0  0  0  0  0
   12.7780    4.0490   22.7550 C   0  0  0  0  0  0  0  0  0  0  0  0
   11.4640    3.6170   22.9480 N   0  0  0  0  0  0  0  0  0  0  0  0
  1  2  1  0
  2  3  2  0
  3  4  1  0
  4  5  2  0
  5  6  1  0
  2  7  1  0
  6  7  2  0
  7  8  1  0
  8  9  1  0
  9 10  2  0
  9 11  1  0
 11 12  1  0
 12 13  1  0
 13 14  2  0
 13 15  1  0
 15 16  2  0
 16 17  1  0
 17 18  2  0
 18 19  1  0
 19 20  2  0
 20 21  1  0
 21 22  2  0
 15 23  1  0
 18 23  1  0
 22 23  1  0
M  END
