GAB-FAC-da17721d-1
     RDKit          3D

 23 24  0  0  0  0  0  0  0  0999 V2000
    5.7340   -4.4720   25.7280 C   0  0  0  0  0  0  0  0  0  0  0  0
    6.6130   -3.2570   25.6510 C   0  0  0  0  0  0  0  0  0  0  0  0
    7.2830   -2.9390   24.3220 C   0  0  0  0  0  0  0  0  0  0  0  0
    8.6910   -2.3300   24.2660 C   0  0  0  0  0  0  0  0  0  0  0  0
    9.0470   -1.9380   23.1620 O   0  0  0  0  0  0  0  0  0  0  0  0
   10.0260   -1.0030   23.1000 C   0  0  0  0  0  0  0  0  0  0  0  0
    9.6780    0.2200   23.1310 C   0  0  0  0  0  0  0  0  0  0  0  0
   10.5240    1.3420   23.0700 C   0  0  0  0  0  0  0  0  0  0  0  0
   11.9420    1.0550   22.9660 C   0  0  0  0  0  0  0  0  0  0  0  0
   12.5450    2.2990   22.9220 N   0  0  0  0  0  0  0  0  0  0  0  0
   11.6740    3.4900   22.6270 C   0  0  0  0  0  0  0  0  0  0  0  0
   10.5430    3.4030   22.1660 O   0  0  0  0  0  0  0  0  0  0  0  0
   12.2650    4.7880   22.9420 N   0  0  0  0  0  0  0  0  0  0  0  0
   11.4510    5.6400   23.8580 C   0  0  0  0  0  0  0  0  0  0  0  0
   10.5370    5.2670   24.9620 N   0  0  0  0  0  0  0  0  0  0  0  0
   10.0300    6.5170   25.5180 C   0  0  0  0  0  0  0  0  0  0  0  0
   10.4980    7.6000   24.9050 C   0  0  0  0  0  0  0  0  0  0  0  0
   10.0620    8.8230   25.3850 N   0  0  0  0  0  0  0  0  0  0  0  0
   10.7990    9.7960   25.1870 O   0  0  0  0  0  0  0  0  0  0  0  0
    8.9210    8.8810   25.8620 O   0  0  0  0  0  0  0  0  0  0  0  0
   11.5790    7.4010   23.6050 S   0  0  0  0  0  0  0  0  0  0  0  0
   12.3660   -0.2920   22.9280 C   0  0  0  0  0  0  0  0  0  0  0  0
   11.4260   -1.2970   22.9920 C   0  0  0  0  0  0  0  0  0  0  0  0
  1  2  1  0
  2  3  1  0
  3  4  1  0
  4  5  1  0
  5  6  1  0
  6  7  2  0
  7  8  1  0
  8  9  2  0
  9 10  1  0
 10 11  1  0
 11 12  2  0
 11 13  1  0
 13 14  1  0
 14 15  2  0
 15 16  1  0
 16 17  2  0
 17 18  1  0
 18 19  2  0
 18 20  1  0
 14 21  1  0
 17 21  1  0
  9 22  1  0
  6 23  1  0
 22 23  2  0
M  CHG  2  18   1  20  -1
M  END
