GAB-REV-4a4e2ff3-6
     RDKit          3D

 27 29  0  0  0  0  0  0  0  0999 V2000
    6.3740   -6.3370   22.1810 C   0  0  0  0  0  0  0  0  0  0  0  0
    7.4610   -5.4670   21.8890 O   0  0  0  0  0  0  0  0  0  0  0  0
    7.8320   -4.5430   22.8260 C   0  0  0  0  0  0  0  0  0  0  0  0
    8.1910   -3.2000   22.5610 C   0  0  0  0  0  0  0  0  0  0  0  0
    8.5560   -2.4040   23.6070 C   0  0  0  0  0  0  0  0  0  0  0  0
    8.8990   -1.1020   23.4150 N   0  0  0  0  0  0  0  0  0  0  0  0
   10.1690   -0.6970   23.0900 C   0  0  0  0  0  0  0  0  0  0  0  0
   11.2260   -1.5490   22.6900 C   0  0  0  0  0  0  0  0  0  0  0  0
   12.5290   -1.0650   22.3930 C   0  0  0  0  0  0  0  0  0  0  0  0
   13.4730   -1.9220   22.0320 F   0  0  0  0  0  0  0  0  0  0  0  0
   12.8580    0.4160   22.4830 C   0  0  0  0  0  0  0  0  0  0  0  0
   11.6940    1.2590   22.8590 C   0  0  0  0  0  0  0  0  0  0  0  0
   11.5480    2.6620   22.9960 C   0  0  0  0  0  0  0  0  0  0  0  0
   12.5120    3.6540   22.7680 C   0  0  0  0  0  0  0  0  0  0  0  0
   12.1800    4.8760   23.3760 C   0  0  0  0  0  0  0  0  0  0  0  0
   11.3300    5.6010   22.5490 N   0  0  0  0  0  0  0  0  0  0  0  0
   10.2860    6.1770   23.2650 C   0  0  0  0  0  0  0  0  0  0  0  0
    9.1430    6.6390   22.6070 C   0  0  0  0  0  0  0  0  0  0  0  0
   10.3280    6.3340   24.6950 O   0  0  0  0  0  0  0  0  0  0  0  0
   10.2650    3.0250   23.3900 C   0  0  0  0  0  0  0  0  0  0  0  0
    9.5150    1.7560   23.5010 N   0  0  0  0  0  0  0  0  0  0  0  0
   10.4460    0.6750   23.1450 C   0  0  0  0  0  0  0  0  0  0  0  0
    8.5660   -2.9390   24.9320 C   0  0  0  0  0  0  0  0  0  0  0  0
    8.2180   -4.2410   25.2130 C   0  0  0  0  0  0  0  0  0  0  0  0
    8.1960   -4.8320   26.4480 O   0  0  0  0  0  0  0  0  0  0  0  0
    9.1900   -5.8080   26.7550 C   0  0  0  0  0  0  0  0  0  0  0  0
    7.8490   -5.0410   24.1400 C   0  0  0  0  0  0  0  0  0  0  0  0
  1  2  1  0
  2  3  1  0
  3  4  2  0
  4  5  1  0
  5  6  1  0
  6  7  1  0
  7  8  2  0
  8  9  1  0
  9 10  1  0
  9 11  2  0
 11 12  1  0
 12 13  1  0
 13 14  1  0
 14 15  1  0
 15 16  1  0
 16 17  1  0
 17 18  1  0
 17 19  2  0
 13 20  2  0
 20 21  1  0
  7 22  1  0
 12 22  2  0
 21 22  1  0
  5 23  2  0
 23 24  1  0
 24 25  1  0
 25 26  1  0
  3 27  1  0
 24 27  2  0
M  END
