GAB-REV-4a4e2ff3-3
     RDKit          3D

 26 29  0  0  0  0  0  0  0  0999 V2000
    9.0770    6.5720   22.6350 C   0  0  0  0  0  0  0  0  0  0  0  0
   10.2190    6.2440   23.3620 C   0  0  0  0  0  0  0  0  0  0  0  0
   10.2710    6.2970   24.5910 O   0  0  0  0  0  0  0  0  0  0  0  0
   11.3390    5.8410   22.4910 N   0  0  0  0  0  0  0  0  0  0  0  0
   12.4520    5.1410   23.1630 C   0  0  0  0  0  0  0  0  0  0  0  0
   12.6700    3.7420   22.6750 C   0  0  0  0  0  0  0  0  0  0  0  0
   11.7820    2.6320   23.1860 C   0  0  0  0  0  0  0  0  0  0  0  0
   10.6020    2.8630   23.8560 C   0  0  0  0  0  0  0  0  0  0  0  0
    9.9980    1.6760   24.1790 N   0  0  0  0  0  0  0  0  0  0  0  0
   10.7800    0.6460   23.7190 C   0  0  0  0  0  0  0  0  0  0  0  0
   10.4710   -0.6860   23.8540 C   0  0  0  0  0  0  0  0  0  0  0  0
    9.2730   -0.9750   24.5050 C   0  0  0  0  0  0  0  0  0  0  0  0
    8.0340   -0.2470   23.9020 C   0  0  0  0  0  0  0  0  0  0  0  0
    7.0620    0.2410   24.7950 N   0  0  0  0  0  0  0  0  0  0  0  0
    6.1200    0.8270   23.9550 C   0  0  0  0  0  0  0  0  0  0  0  0
    4.9300    1.4770   24.3190 C   0  0  0  0  0  0  0  0  0  0  0  0
    4.1090    2.0110   23.3010 C   0  0  0  0  0  0  0  0  0  0  0  0
    4.4870    1.8840   21.9480 C   0  0  0  0  0  0  0  0  0  0  0  0
    5.6790    1.2260   21.6510 C   0  0  0  0  0  0  0  0  0  0  0  0
    6.4910    0.7020   22.6390 C   0  0  0  0  0  0  0  0  0  0  0  0
    7.6930    0.0220   22.6260 N   0  0  0  0  0  0  0  0  0  0  0  0
   11.4100   -1.5750   23.3080 C   0  0  0  0  0  0  0  0  0  0  0  0
   12.5880   -1.0990   22.6760 C   0  0  0  0  0  0  0  0  0  0  0  0
   13.4590   -1.9670   22.1640 F   0  0  0  0  0  0  0  0  0  0  0  0
   12.8230    0.2720   22.5940 C   0  0  0  0  0  0  0  0  0  0  0  0
   11.9260    1.2060   23.0970 C   0  0  0  0  0  0  0  0  0  0  0  0
  1  2  1  0
  2  3  2  0
  2  4  1  0
  4  5  1  0
  5  6  1  0
  6  7  1  0
  7  8  2  0
  8  9  1  0
  9 10  1  0
 10 11  1  0
 11 12  1  0
 12 13  1  0
 13 14  2  0
 14 15  1  0
 15 16  2  0
 16 17  1  0
 17 18  2  0
 18 19  1  0
 15 20  1  0
 19 20  2  0
 13 21  1  0
 20 21  1  0
 11 22  2  0
 22 23  1  0
 23 24  1  0
 23 25  2  0
  7 26  1  0
 10 26  2  0
 25 26  1  0
M  END
