GAB-REV-70cc3ca5-9
     RDKit          3D

 20 22  0  0  0  0  0  0  0  0999 V2000
    5.0660    0.8110   21.9380 C   0  0  0  0  0  0  0  0  0  0  0  0
    5.5040    0.6740   20.4550 C   0  0  0  0  0  0  0  0  0  0  0  0
    4.6280    1.2690   19.3750 C   0  0  0  0  0  0  0  0  0  0  0  0
    5.0740    1.1160   18.0890 C   0  0  0  0  0  0  0  0  0  0  0  0
    6.1880    0.4900   17.7120 N   0  0  0  0  0  0  0  0  0  0  0  0
    6.9780   -0.0470   18.6700 C   0  0  0  0  0  0  0  0  0  0  0  0
    6.7550   -0.0140   20.0340 C   0  0  0  0  0  0  0  0  0  0  0  0
    7.7080   -0.6050   20.9050 N   0  0  0  0  0  0  0  0  0  0  0  0
    8.4570    0.4530   21.5340 C   0  0  0  0  0  0  0  0  0  0  0  0
    8.8890    1.5200   21.0770 O   0  0  0  0  0  0  0  0  0  0  0  0
    8.6290    0.0590   22.8230 C   0  0  0  0  0  0  0  0  0  0  0  0
    9.8660   -0.6770   22.9910 C   0  0  0  0  0  0  0  0  0  0  0  0
   10.5710   -1.3100   21.8890 N   0  0  0  0  0  0  0  0  0  0  0  0
   11.6390   -1.8150   22.6600 C   0  0  0  0  0  0  0  0  0  0  0  0
   12.6940   -2.5380   22.2170 C   0  0  0  0  0  0  0  0  0  0  0  0
   13.6620   -2.9820   23.1110 C   0  0  0  0  0  0  0  0  0  0  0  0
   13.5710   -2.6730   24.4440 C   0  0  0  0  0  0  0  0  0  0  0  0
   12.5310   -1.9520   24.8550 C   0  0  0  0  0  0  0  0  0  0  0  0
   11.5880   -1.5400   23.9890 C   0  0  0  0  0  0  0  0  0  0  0  0
   10.4720   -0.8300   24.1840 N   0  0  0  0  0  0  0  0  0  0  0  0
  1  2  1  0
  2  3  2  0
  3  4  1  0
  4  5  2  0
  5  6  1  0
  2  7  1  0
  6  7  2  0
  7  8  1  0
  8  9  1  0
  9 10  2  0
  9 11  1  0
 11 12  1  0
 12 13  2  0
 13 14  1  0
 14 15  2  0
 15 16  1  0
 16 17  2  0
 17 18  1  0
 14 19  1  0
 18 19  2  0
 12 20  1  0
 19 20  1  0
M  END
