GAB-REV-4a4e2ff3-2
     RDKit          3D

 27 30  0  0  0  0  0  0  0  0999 V2000
    9.1060    6.6130   22.5600 C   0  0  0  0  0  0  0  0  0  0  0  0
   10.1860    6.2280   23.3730 C   0  0  0  0  0  0  0  0  0  0  0  0
   10.1530    6.2780   24.5980 O   0  0  0  0  0  0  0  0  0  0  0  0
   11.2770    5.7920   22.6640 N   0  0  0  0  0  0  0  0  0  0  0  0
   12.4380    5.1390   23.2910 C   0  0  0  0  0  0  0  0  0  0  0  0
   12.6840    3.8300   22.8370 C   0  0  0  0  0  0  0  0  0  0  0  0
   11.8250    2.8310   23.1080 C   0  0  0  0  0  0  0  0  0  0  0  0
   10.5040    3.0340   23.6520 C   0  0  0  0  0  0  0  0  0  0  0  0
    9.8340    1.8240   23.7760 N   0  0  0  0  0  0  0  0  0  0  0  0
   10.6520    0.8240   23.3400 C   0  0  0  0  0  0  0  0  0  0  0  0
   10.1870   -0.4680   23.3320 C   0  0  0  0  0  0  0  0  0  0  0  0
    9.0270   -0.6650   23.7110 O   0  0  0  0  0  0  0  0  0  0  0  0
    8.6370   -1.6080   24.7160 C   0  0  0  0  0  0  0  0  0  0  0  0
    8.1600   -2.8580   24.3080 C   0  0  0  0  0  0  0  0  0  0  0  0
    8.4820   -4.0220   24.9940 C   0  0  0  0  0  0  0  0  0  0  0  0
    8.0000   -5.2460   24.5720 C   0  0  0  0  0  0  0  0  0  0  0  0
    7.1770   -5.4460   23.4620 C   0  0  0  0  0  0  0  0  0  0  0  0
    6.6050   -6.5330   22.8760 N   0  0  0  0  0  0  0  0  0  0  0  0
    5.9020   -5.9730   21.7950 C   0  0  0  0  0  0  0  0  0  0  0  0
    6.0620   -4.6100   21.7540 N   0  0  0  0  0  0  0  0  0  0  0  0
    6.8720   -4.2200   22.7960 C   0  0  0  0  0  0  0  0  0  0  0  0
    7.3310   -2.9660   23.1810 C   0  0  0  0  0  0  0  0  0  0  0  0
   11.1270   -1.3900   22.8530 C   0  0  0  0  0  0  0  0  0  0  0  0
   12.4650   -0.9390   22.4530 C   0  0  0  0  0  0  0  0  0  0  0  0
   13.3570   -1.8290   22.0090 F   0  0  0  0  0  0  0  0  0  0  0  0
   12.8300    0.4160   22.5150 C   0  0  0  0  0  0  0  0  0  0  0  0
   11.8950    1.3600   22.9490 C   0  0  0  0  0  0  0  0  0  0  0  0
  1  2  1  0
  2  3  2  0
  2  4  1  0
  4  5  1  0
  5  6  1  0
  6  7  1  0
  7  8  2  0
  8  9  1  0
  9 10  1  0
 10 11  1  0
 11 12  1  0
 12 13  1  0
 13 14  1  0
 14 15  2  0
 15 16  1  0
 16 17  2  0
 17 18  1  0
 18 19  2  0
 19 20  1  0
 17 21  1  0
 20 21  1  0
 14 22  1  0
 21 22  2  0
 11 23  2  0
 23 24  1  0
 24 25  1  0
 24 26  2  0
  7 27  1  0
 10 27  2  0
 26 27  1  0
M  END
