GAB-REV-70cc3ca5-17
     RDKit          3D

 21 23  0  0  0  0  0  0  0  0999 V2000
    5.4300    0.7580   22.0610 C   0  0  0  0  0  0  0  0  0  0  0  0
    5.7630    0.5690   20.6110 C   0  0  0  0  0  0  0  0  0  0  0  0
    4.9030    1.1200   19.6500 C   0  0  0  0  0  0  0  0  0  0  0  0
    5.1960    0.9540   18.3160 C   0  0  0  0  0  0  0  0  0  0  0  0
    6.2680    0.2820   17.8860 N   0  0  0  0  0  0  0  0  0  0  0  0
    7.0910   -0.2490   18.8180 C   0  0  0  0  0  0  0  0  0  0  0  0
    6.9060   -0.1410   20.1860 C   0  0  0  0  0  0  0  0  0  0  0  0
    7.7910   -0.6940   21.1350 N   0  0  0  0  0  0  0  0  0  0  0  0
    8.9390   -0.0940   21.6310 C   0  0  0  0  0  0  0  0  0  0  0  0
    9.2100    1.1050   21.5370 O   0  0  0  0  0  0  0  0  0  0  0  0
    9.9090   -1.0420   22.3310 C   0  0  0  0  0  0  0  0  0  0  0  0
    9.2020   -1.9190   23.2510 N   0  0  0  0  0  0  0  0  0  0  0  0
    8.3760   -1.4600   24.2120 C   0  0  0  0  0  0  0  0  0  0  0  0
    8.6870   -0.5270   25.2400 C   0  0  0  0  0  0  0  0  0  0  0  0
    7.5600   -0.3340   26.0060 N   0  0  0  0  0  0  0  0  0  0  0  0
    6.5810   -1.1170   25.4700 C   0  0  0  0  0  0  0  0  0  0  0  0
    5.3200   -1.1400   26.0240 C   0  0  0  0  0  0  0  0  0  0  0  0
    4.3760   -1.9650   25.4230 C   0  0  0  0  0  0  0  0  0  0  0  0
    4.7600   -2.7210   24.2960 C   0  0  0  0  0  0  0  0  0  0  0  0
    6.0570   -2.6630   23.7700 C   0  0  0  0  0  0  0  0  0  0  0  0
    7.0090   -1.8300   24.3780 C   0  0  0  0  0  0  0  0  0  0  0  0
  1  2  1  0
  2  3  2  0
  3  4  1  0
  4  5  2  0
  5  6  1  0
  2  7  1  0
  6  7  2  0
  7  8  1  0
  8  9  1  0
  9 10  2  0
  9 11  1  0
 11 12  1  0
 12 13  1  0
 13 14  2  0
 14 15  1  0
 15 16  1  0
 16 17  1  0
 17 18  2  0
 18 19  1  0
 19 20  2  0
 13 21  1  0
 16 21  2  0
 20 21  1  0
M  END
