GAB-REV-70cc3ca5-22
     RDKit          3D

 22 24  0  0  0  0  0  0  0  0999 V2000
    5.2060    0.6310   21.9710 C   0  0  0  0  0  0  0  0  0  0  0  0
    5.6120    0.5140   20.4800 C   0  0  0  0  0  0  0  0  0  0  0  0
    4.6930    0.8920   19.5230 C   0  0  0  0  0  0  0  0  0  0  0  0
    4.9530    0.8340   18.1780 C   0  0  0  0  0  0  0  0  0  0  0  0
    6.1130    0.3940   17.6820 N   0  0  0  0  0  0  0  0  0  0  0  0
    6.9940    0.0290   18.5870 C   0  0  0  0  0  0  0  0  0  0  0  0
    6.8680    0.0510   20.0770 C   0  0  0  0  0  0  0  0  0  0  0  0
    7.9710   -0.3580   20.7220 N   0  0  0  0  0  0  0  0  0  0  0  0
    8.4710    0.6890   21.5590 C   0  0  0  0  0  0  0  0  0  0  0  0
    9.1450    1.6810   21.2950 O   0  0  0  0  0  0  0  0  0  0  0  0
    7.9590    0.3630   22.7910 C   0  0  0  0  0  0  0  0  0  0  0  0
    7.6690   -0.9840   22.7740 C   0  0  0  0  0  0  0  0  0  0  0  0
    8.9210   -1.3970   22.8990 C   0  0  0  0  0  0  0  0  0  0  0  0
    9.4480   -1.4270   24.1180 N   0  0  0  0  0  0  0  0  0  0  0  0
   10.6430   -1.8010   23.9020 C   0  0  0  0  0  0  0  0  0  0  0  0
   11.6110   -1.9870   24.8130 C   0  0  0  0  0  0  0  0  0  0  0  0
   12.9500   -2.4390   24.4570 C   0  0  0  0  0  0  0  0  0  0  0  0
   14.0560   -2.6630   25.7220 Cl  0  0  0  0  0  0  0  0  0  0  0  0
   13.2280   -2.6720   22.9870 C   0  0  0  0  0  0  0  0  0  0  0  0
   12.2440   -2.4660   22.0010 C   0  0  0  0  0  0  0  0  0  0  0  0
   10.8900   -2.0160   22.5650 C   0  0  0  0  0  0  0  0  0  0  0  0
    9.6970   -1.7490   21.8260 O   0  0  0  0  0  0  0  0  0  0  0  0
  1  2  1  0
  2  3  2  0
  3  4  1  0
  4  5  2  0
  5  6  1  0
  2  7  1  0
  6  7  2  0
  7  8  1  0
  8  9  1  0
  9 10  2  0
  9 11  1  0
 11 12  1  0
 12 13  1  0
 13 14  2  0
 14 15  1  0
 15 16  2  0
 16 17  1  0
 17 18  1  0
 17 19  2  0
 19 20  1  0
 15 21  1  0
 20 21  2  0
 13 22  1  0
 21 22  1  0
M  END
