GAB-REV-4a4e2ff3-10
     RDKit          3D

 30 33  0  0  0  0  0  0  0  0999 V2000
    8.9330    6.5840   22.5260 C   0  0  0  0  0  0  0  0  0  0  0  0
   10.2720    6.3110   23.2610 C   0  0  0  0  0  0  0  0  0  0  0  0
   10.1560    6.4890   24.6900 O   0  0  0  0  0  0  0  0  0  0  0  0
   11.3670    5.9460   22.5210 N   0  0  0  0  0  0  0  0  0  0  0  0
   12.5390    5.3480   23.1410 C   0  0  0  0  0  0  0  0  0  0  0  0
   12.7500    4.0320   22.7520 C   0  0  0  0  0  0  0  0  0  0  0  0
   11.7520    3.1450   23.1100 C   0  0  0  0  0  0  0  0  0  0  0  0
   10.4010    3.6050   23.6480 C   0  0  0  0  0  0  0  0  0  0  0  0
    9.7360    2.4470   23.8380 N   0  0  0  0  0  0  0  0  0  0  0  0
   10.5650    1.3620   23.4600 C   0  0  0  0  0  0  0  0  0  0  0  0
   10.0340    0.1390   23.5680 C   0  0  0  0  0  0  0  0  0  0  0  0
    8.3860    0.0730   24.1590 S   0  0  0  0  0  0  0  0  0  0  0  0
    7.4920    0.4960   23.0990 O   0  0  0  0  0  0  0  0  0  0  0  0
    8.3070    0.6240   25.4860 O   0  0  0  0  0  0  0  0  0  0  0  0
    8.2880   -1.5810   24.3040 N   0  0  0  0  0  0  0  0  0  0  0  0
    9.5310   -1.8660   23.7940 C   0  0  0  0  0  0  0  0  0  0  0  0
    9.6340   -2.2540   22.4680 C   0  0  0  0  0  0  0  0  0  0  0  0
   10.8670   -2.5050   21.8970 C   0  0  0  0  0  0  0  0  0  0  0  0
   12.0220   -2.3910   22.6650 C   0  0  0  0  0  0  0  0  0  0  0  0
   11.9830   -2.0110   24.0530 C   0  0  0  0  0  0  0  0  0  0  0  0
   10.6540   -1.7140   24.6370 C   0  0  0  0  0  0  0  0  0  0  0  0
   13.1260   -1.9330   24.7520 C   0  0  0  0  0  0  0  0  0  0  0  0
   13.3850   -1.4160   25.7920 O   0  0  0  0  0  0  0  0  0  0  0  0
   13.9300   -2.6310   23.8900 N   0  0  0  0  0  0  0  0  0  0  0  0
   13.4610   -2.5410   22.5010 C   0  0  0  0  0  0  0  0  0  0  0  0
   10.9120   -0.8880   23.1590 C   0  0  0  0  0  0  0  0  0  0  0  0
   12.2220   -0.5460   22.7060 C   0  0  0  0  0  0  0  0  0  0  0  0
   13.0820   -1.4970   22.2950 F   0  0  0  0  0  0  0  0  0  0  0  0
   12.6930    0.7620   22.6490 C   0  0  0  0  0  0  0  0  0  0  0  0
   11.8040    1.7460   23.0270 C   0  0  0  0  0  0  0  0  0  0  0  0
  1  2  1  0
  2  3  2  0
  2  4  1  0
  4  5  1  0
  5  6  1  0
  6  7  1  0
  7  8  2  0
  8  9  1  0
  9 10  1  0
 10 11  1  0
 11 12  1  0
 12 13  2  0
 12 14  2  0
 12 15  1  0
 15 16  1  0
 16 17  2  0
 17 18  1  0
 18 19  2  0
 19 20  1  0
 16 21  1  0
 20 21  2  0
 20 22  1  0
 22 23  2  0
 22 24  1  0
 19 25  1  0
 24 25  1  0
 11 26  2  0
 26 27  1  0
 27 28  1  0
 27 29  2  0
  7 30  1  0
 10 30  2  0
 29 30  1  0
M  END
