GAB-REV-4a4e2ff3-14
     RDKit          3D

 27 29  0  0  0  0  0  0  0  0999 V2000
    9.0920    6.6520   22.6330 C   0  0  0  0  0  0  0  0  0  0  0  0
   10.1660    6.2420   23.3380 C   0  0  0  0  0  0  0  0  0  0  0  0
   10.0730    6.3580   24.7720 O   0  0  0  0  0  0  0  0  0  0  0  0
   11.2560    5.7410   22.5470 N   0  0  0  0  0  0  0  0  0  0  0  0
   12.3330    5.1140   23.1370 C   0  0  0  0  0  0  0  0  0  0  0  0
   12.6210    3.6820   22.6190 C   0  0  0  0  0  0  0  0  0  0  0  0
   11.8330    2.6550   23.1060 C   0  0  0  0  0  0  0  0  0  0  0  0
   10.6450    2.8930   23.7890 C   0  0  0  0  0  0  0  0  0  0  0  0
   10.0400    1.7090   24.1550 N   0  0  0  0  0  0  0  0  0  0  0  0
   10.8200    0.6880   23.7170 C   0  0  0  0  0  0  0  0  0  0  0  0
   10.3960   -0.7290   23.9680 C   0  0  0  0  0  0  0  0  0  0  0  0
    9.2140   -0.8220   24.6520 N   0  0  0  0  0  0  0  0  0  0  0  0
    8.4770   -1.8720   24.3210 C   0  0  0  0  0  0  0  0  0  0  0  0
    8.8290   -2.9050   23.2790 C   0  0  0  0  0  0  0  0  0  0  0  0
    7.9670   -3.9710   23.0370 C   0  0  0  0  0  0  0  0  0  0  0  0
    6.7740   -4.1200   23.7310 C   0  0  0  0  0  0  0  0  0  0  0  0
    5.8800   -5.1650   23.5370 N   0  0  0  0  0  0  0  0  0  0  0  0
    5.1980   -5.9150   24.5210 C   0  0  0  0  0  0  0  0  0  0  0  0
    5.3380   -5.6110   25.8810 C   0  0  0  0  0  0  0  0  0  0  0  0
    4.4630   -6.8570   24.2520 O   0  0  0  0  0  0  0  0  0  0  0  0
    6.4280   -3.1680   24.6960 C   0  0  0  0  0  0  0  0  0  0  0  0
    7.2520   -2.0790   24.9820 C   0  0  0  0  0  0  0  0  0  0  0  0
   11.3020   -1.6660   23.4520 C   0  0  0  0  0  0  0  0  0  0  0  0
   12.5760   -1.1500   22.7290 C   0  0  0  0  0  0  0  0  0  0  0  0
   13.4490   -2.0230   22.2290 F   0  0  0  0  0  0  0  0  0  0  0  0
   12.8410    0.2280   22.5800 C   0  0  0  0  0  0  0  0  0  0  0  0
   11.9490    1.1910   23.0700 C   0  0  0  0  0  0  0  0  0  0  0  0
  1  2  1  0
  2  3  2  0
  2  4  1  0
  4  5  1  0
  5  6  1  0
  6  7  1  0
  7  8  2  0
  8  9  1  0
  9 10  1  0
 10 11  1  0
 11 12  1  0
 12 13  1  0
 13 14  2  0
 14 15  1  0
 15 16  2  0
 16 17  1  0
 17 18  1  0
 18 19  1  0
 18 20  2  0
 16 21  1  0
 13 22  1  0
 21 22  2  0
 11 23  2  0
 23 24  1  0
 24 25  1  0
 24 26  2  0
  7 27  1  0
 10 27  2  0
 26 27  1  0
M  END
