GAB-REV-70cc3ca5-20
     RDKit          3D

 21 22  0  0  0  0  0  0  0  0999 V2000
    5.1750    0.8360   21.9410 C   0  0  0  0  0  0  0  0  0  0  0  0
    5.5750    0.6870   20.4500 C   0  0  0  0  0  0  0  0  0  0  0  0
    4.7990    1.2620   19.4520 C   0  0  0  0  0  0  0  0  0  0  0  0
    5.1180    1.1620   18.1140 C   0  0  0  0  0  0  0  0  0  0  0  0
    6.2020    0.4900   17.6830 N   0  0  0  0  0  0  0  0  0  0  0  0
    6.9420   -0.0590   18.6320 C   0  0  0  0  0  0  0  0  0  0  0  0
    6.7200   -0.0200   20.1110 C   0  0  0  0  0  0  0  0  0  0  0  0
    7.6420   -0.6450   20.8410 N   0  0  0  0  0  0  0  0  0  0  0  0
    8.3880    0.2580   21.6430 C   0  0  0  0  0  0  0  0  0  0  0  0
    9.0330    1.2740   21.3320 O   0  0  0  0  0  0  0  0  0  0  0  0
    8.2240   -0.2300   22.9260 C   0  0  0  0  0  0  0  0  0  0  0  0
    9.3830   -0.7300   23.3630 C   0  0  0  0  0  0  0  0  0  0  0  0
    9.9930   -1.7590   22.6470 C   0  0  0  0  0  0  0  0  0  0  0  0
   11.2070   -2.2820   23.0310 C   0  0  0  0  0  0  0  0  0  0  0  0
   11.8400   -1.7790   24.1530 C   0  0  0  0  0  0  0  0  0  0  0  0
   13.3790   -2.2940   24.6880 S   0  0  0  0  0  0  0  0  0  0  0  0
   13.4960   -3.6840   25.5770 N   0  0  0  0  0  0  0  0  0  0  0  0
   13.5800   -1.3130   25.6830 O   0  0  0  0  0  0  0  0  0  0  0  0
   14.1020   -2.5290   23.4840 O   0  0  0  0  0  0  0  0  0  0  0  0
   11.2180   -0.6970   24.9590 C   0  0  0  0  0  0  0  0  0  0  0  0
    9.8980   -0.1430   24.5240 C   0  0  0  0  0  0  0  0  0  0  0  0
  1  2  1  0
  2  3  2  0
  3  4  1  0
  4  5  2  0
  5  6  1  0
  2  7  1  0
  6  7  2  0
  7  8  1  0
  8  9  1  0
  9 10  2  0
  9 11  1  0
 11 12  1  0
 12 13  2  0
 13 14  1  0
 14 15  2  0
 15 16  1  0
 16 17  1  0
 16 18  2  0
 16 19  2  0
 15 20  1  0
 12 21  1  0
 20 21  2  0
M  END
