GAB-REV-70cc3ca5-4
     RDKit          3D

 22 24  0  0  0  0  0  0  0  0999 V2000
    5.1920    0.8700   21.8900 C   0  0  0  0  0  0  0  0  0  0  0  0
    5.5620    0.7270   20.6070 C   0  0  0  0  0  0  0  0  0  0  0  0
    4.8860    1.4370   19.5120 C   0  0  0  0  0  0  0  0  0  0  0  0
    5.3790    1.2180   18.0790 C   0  0  0  0  0  0  0  0  0  0  0  0
    6.4010    0.3990   17.8310 N   0  0  0  0  0  0  0  0  0  0  0  0
    6.9870   -0.2350   18.8800 C   0  0  0  0  0  0  0  0  0  0  0  0
    6.6180   -0.1070   20.2220 C   0  0  0  0  0  0  0  0  0  0  0  0
    7.3460   -0.8510   21.1620 N   0  0  0  0  0  0  0  0  0  0  0  0
    8.6250   -0.5970   21.5640 C   0  0  0  0  0  0  0  0  0  0  0  0
    9.1680    0.4940   21.3730 O   0  0  0  0  0  0  0  0  0  0  0  0
    9.1730   -1.8630   22.2300 C   0  0  0  0  0  0  0  0  0  0  0  0
    9.3410   -1.5990   23.5540 N   0  0  0  0  0  0  0  0  0  0  0  0
   10.6110   -1.3740   23.5280 C   0  0  0  0  0  0  0  0  0  0  0  0
   11.6700   -2.3990   23.7690 C   0  0  0  0  0  0  0  0  0  0  0  0
   12.9810   -2.0030   23.6800 C   0  0  0  0  0  0  0  0  0  0  0  0
   13.3730   -0.7590   23.3930 N   0  0  0  0  0  0  0  0  0  0  0  0
   12.4370    0.1850   23.1830 C   0  0  0  0  0  0  0  0  0  0  0  0
   12.9090    1.4600   22.9000 C   0  0  0  0  0  0  0  0  0  0  0  0
   12.0540    2.5360   22.6740 C   0  0  0  0  0  0  0  0  0  0  0  0
   10.5940    2.2650   22.7390 C   0  0  0  0  0  0  0  0  0  0  0  0
   10.1270    0.9890   23.0150 C   0  0  0  0  0  0  0  0  0  0  0  0
   11.0350   -0.0570   23.2390 C   0  0  0  0  0  0  0  0  0  0  0  0
  1  2  1  0
  2  3  2  0
  3  4  1  0
  4  5  2  0
  5  6  1  0
  2  7  1  0
  6  7  2  0
  7  8  1  0
  8  9  1  0
  9 10  2  0
  9 11  1  0
 11 12  1  0
 12 13  1  0
 13 14  2  0
 14 15  1  0
 15 16  2  0
 16 17  1  0
 17 18  1  0
 18 19  2  0
 19 20  1  0
 20 21  2  0
 13 22  1  0
 17 22  2  0
 21 22  1  0
M  END
