GAB-REV-4a4e2ff3-8
     RDKit          3D

 27 29  0  0  0  0  0  0  0  0999 V2000
    9.1900   -6.1900   26.9940 C   0  0  0  0  0  0  0  0  0  0  0  0
   10.2580   -5.2760   26.8960 O   0  0  0  0  0  0  0  0  0  0  0  0
    9.9070   -4.3180   26.0320 C   0  0  0  0  0  0  0  0  0  0  0  0
    8.5440   -4.0340   25.7090 C   0  0  0  0  0  0  0  0  0  0  0  0
    8.2630   -2.9420   24.7590 C   0  0  0  0  0  0  0  0  0  0  0  0
    9.4580   -2.2600   24.2500 C   0  0  0  0  0  0  0  0  0  0  0  0
    9.3450   -1.2220   23.3860 C   0  0  0  0  0  0  0  0  0  0  0  0
   10.5260   -0.5960   23.0690 C   0  0  0  0  0  0  0  0  0  0  0  0
   11.5430   -1.3910   22.5680 C   0  0  0  0  0  0  0  0  0  0  0  0
   12.7510   -0.8330   22.2060 C   0  0  0  0  0  0  0  0  0  0  0  0
   13.6920   -1.6190   21.7270 F   0  0  0  0  0  0  0  0  0  0  0  0
   12.9760    0.6930   22.3490 C   0  0  0  0  0  0  0  0  0  0  0  0
   11.9120    1.4120   22.8440 C   0  0  0  0  0  0  0  0  0  0  0  0
   11.8010    2.7670   23.0410 C   0  0  0  0  0  0  0  0  0  0  0  0
   12.6930    3.8160   22.7720 C   0  0  0  0  0  0  0  0  0  0  0  0
   12.2370    5.0650   23.2090 C   0  0  0  0  0  0  0  0  0  0  0  0
   11.2620    5.7150   22.5260 N   0  0  0  0  0  0  0  0  0  0  0  0
   10.2020    6.2140   23.2390 C   0  0  0  0  0  0  0  0  0  0  0  0
    9.0720    6.6590   22.5490 C   0  0  0  0  0  0  0  0  0  0  0  0
   10.2330    6.2860   24.6030 O   0  0  0  0  0  0  0  0  0  0  0  0
   10.4490    3.0910   23.6290 C   0  0  0  0  0  0  0  0  0  0  0  0
    9.8300    1.8600   23.7160 N   0  0  0  0  0  0  0  0  0  0  0  0
   10.7200    0.7760   23.2110 C   0  0  0  0  0  0  0  0  0  0  0  0
   10.7860   -2.5730   24.5810 C   0  0  0  0  0  0  0  0  0  0  0  0
   11.0210   -3.5940   25.4650 C   0  0  0  0  0  0  0  0  0  0  0  0
   12.2840   -3.9700   25.8580 O   0  0  0  0  0  0  0  0  0  0  0  0
   13.3630   -3.0950   25.5290 C   0  0  0  0  0  0  0  0  0  0  0  0
  1  2  1  0
  2  3  1  0
  3  4  2  0
  4  5  1  0
  5  6  2  0
  6  7  1  0
  7  8  1  0
  8  9  2  0
  9 10  1  0
 10 11  1  0
 10 12  2  0
 12 13  1  0
 13 14  1  0
 14 15  1  0
 15 16  1  0
 16 17  1  0
 17 18  1  0
 18 19  1  0
 18 20  2  0
 14 21  2  0
 21 22  1  0
  8 23  1  0
 13 23  2  0
 22 23  1  0
  6 24  1  0
  3 25  1  0
 24 25  2  0
 25 26  1  0
 26 27  1  0
M  END
