GAB-REV-70cc3ca5-10
     RDKit          3D

 25 27  0  0  0  0  0  0  0  0999 V2000
   13.2340   -2.4710   24.5000 C   0  0  0  0  0  0  0  0  0  0  0  0
   12.5000   -3.3280   25.5270 C   0  0  0  0  0  0  0  0  0  0  0  0
   13.0450   -3.9880   26.3950 O   0  0  0  0  0  0  0  0  0  0  0  0
   11.0580   -3.2390   25.3350 N   0  0  0  0  0  0  0  0  0  0  0  0
   10.5520   -2.4290   24.3800 C   0  0  0  0  0  0  0  0  0  0  0  0
    9.1820   -2.4480   24.3170 C   0  0  0  0  0  0  0  0  0  0  0  0
    8.4170   -1.7430   23.4590 N   0  0  0  0  0  0  0  0  0  0  0  0
    7.9650   -2.6130   22.3520 C   0  0  0  0  0  0  0  0  0  0  0  0
    9.0120   -0.6030   22.9580 C   0  0  0  0  0  0  0  0  0  0  0  0
    8.6920    0.0690   21.6330 C   0  0  0  0  0  0  0  0  0  0  0  0
    9.1230    1.1960   21.3200 O   0  0  0  0  0  0  0  0  0  0  0  0
    7.8350   -0.8000   20.8560 N   0  0  0  0  0  0  0  0  0  0  0  0
    6.8290   -0.0750   20.1320 C   0  0  0  0  0  0  0  0  0  0  0  0
    7.0090   -0.0900   18.6580 C   0  0  0  0  0  0  0  0  0  0  0  0
    6.2370    0.4960   17.7530 N   0  0  0  0  0  0  0  0  0  0  0  0
    5.1920    1.1600   18.2600 C   0  0  0  0  0  0  0  0  0  0  0  0
    4.8400    1.2930   19.6010 C   0  0  0  0  0  0  0  0  0  0  0  0
    5.6070    0.7030   20.6190 C   0  0  0  0  0  0  0  0  0  0  0  0
    5.3080    0.7990   21.9690 C   0  0  0  0  0  0  0  0  0  0  0  0
    8.7640   -3.3500   25.3200 C   0  0  0  0  0  0  0  0  0  0  0  0
    7.5070   -3.7640   25.7140 C   0  0  0  0  0  0  0  0  0  0  0  0
    7.4080   -4.6870   26.7670 C   0  0  0  0  0  0  0  0  0  0  0  0
    8.5480   -5.1780   27.4030 C   0  0  0  0  0  0  0  0  0  0  0  0
    9.8010   -4.7580   26.9990 C   0  0  0  0  0  0  0  0  0  0  0  0
    9.9350   -3.8450   25.9590 C   0  0  0  0  0  0  0  0  0  0  0  0
  1  2  1  0
  2  3  2  0
  2  4  1  0
  4  5  1  0
  5  6  2  0
  6  7  1  0
  7  8  1  0
  7  9  1  0
  9 10  1  0
 10 11  2  0
 10 12  1  0
 12 13  1  0
 13 14  2  0
 14 15  1  0
 15 16  2  0
 16 17  1  0
 13 18  1  0
 17 18  2  0
 18 19  1  0
  6 20  1  0
 20 21  1  0
 21 22  2  0
 22 23  1  0
 23 24  2  0
  4 25  1  0
 20 25  2  0
 24 25  1  0
M  END
