GAB-REV-4a4e2ff3-12
     RDKit          3D

 30 33  0  0  0  0  0  0  0  0999 V2000
    8.9620    6.6470   22.5290 C   0  0  0  0  0  0  0  0  0  0  0  0
   10.1810    6.1970   23.3830 C   0  0  0  0  0  0  0  0  0  0  0  0
   10.1880    6.2650   24.6110 O   0  0  0  0  0  0  0  0  0  0  0  0
   11.2340    5.7250   22.6400 N   0  0  0  0  0  0  0  0  0  0  0  0
   12.3770    5.0970   23.3110 C   0  0  0  0  0  0  0  0  0  0  0  0
   12.6740    3.8210   22.8150 C   0  0  0  0  0  0  0  0  0  0  0  0
   11.8180    2.7390   23.0750 C   0  0  0  0  0  0  0  0  0  0  0  0
   10.5400    2.8990   23.5820 C   0  0  0  0  0  0  0  0  0  0  0  0
    9.7980    1.6730   23.7390 N   0  0  0  0  0  0  0  0  0  0  0  0
   10.7220    0.6780   23.2720 C   0  0  0  0  0  0  0  0  0  0  0  0
   10.3200   -0.6920   23.2350 C   0  0  0  0  0  0  0  0  0  0  0  0
    9.0940   -1.2030   23.6180 N   0  0  0  0  0  0  0  0  0  0  0  0
    8.1950   -0.4990   24.9060 S   0  0  0  0  0  0  0  0  0  0  0  0
    6.8010   -0.7760   24.6270 O   0  0  0  0  0  0  0  0  0  0  0  0
    8.6690    0.8520   25.0940 O   0  0  0  0  0  0  0  0  0  0  0  0
    8.6340   -1.4000   26.2870 C   0  0  0  0  0  0  0  0  0  0  0  0
    7.5950   -1.5470   27.2020 C   0  0  0  0  0  0  0  0  0  0  0  0
    7.2640   -0.5510   28.1700 C   0  0  0  0  0  0  0  0  0  0  0  0
    6.2280   -0.6040   29.1300 C   0  0  0  0  0  0  0  0  0  0  0  0
    5.4560   -1.7400   29.1280 C   0  0  0  0  0  0  0  0  0  0  0  0
    4.3760   -2.0940   29.9270 N   0  0  0  0  0  0  0  0  0  0  0  0
    3.9090   -3.3390   29.5670 N   0  0  0  0  0  0  0  0  0  0  0  0
    4.8040   -3.6070   28.5410 C   0  0  0  0  0  0  0  0  0  0  0  0
    5.7760   -2.7000   28.2010 C   0  0  0  0  0  0  0  0  0  0  0  0
    6.7770   -2.6980   27.2450 C   0  0  0  0  0  0  0  0  0  0  0  0
   11.3370   -1.4660   22.7370 C   0  0  0  0  0  0  0  0  0  0  0  0
   12.4810   -0.6930   22.4580 C   0  0  0  0  0  0  0  0  0  0  0  0
   13.3780   -1.6120   22.0040 F   0  0  0  0  0  0  0  0  0  0  0  0
   12.9480    0.3670   22.4540 C   0  0  0  0  0  0  0  0  0  0  0  0
   11.9720    1.2900   22.8910 C   0  0  0  0  0  0  0  0  0  0  0  0
  1  2  1  0
  2  3  2  0
  2  4  1  0
  4  5  1  0
  5  6  1  0
  6  7  1  0
  7  8  2  0
  8  9  1  0
  9 10  1  0
 10 11  1  0
 11 12  1  0
 13 12  1  0
 13 14  2  0
 13 15  2  0
 13 16  1  0
 16 17  1  0
 17 18  2  0
 18 19  1  0
 19 20  2  0
 20 21  1  0
 21 22  1  0
 22 23  2  0
 20 24  1  0
 23 24  1  0
 17 25  1  0
 24 25  2  0
 11 26  2  0
 26 27  1  0
 27 28  1  0
 27 29  2  0
  7 30  1  0
 10 30  2  0
 29 30  1  0
M  END
