GAB-REV-70cc3ca5-6
     RDKit          3D

 26 28  0  0  0  0  0  0  0  0999 V2000
    5.3020    0.8680   21.9050 C   0  0  0  0  0  0  0  0  0  0  0  0
    5.6180    0.6780   20.5530 C   0  0  0  0  0  0  0  0  0  0  0  0
    4.7840    1.1830   19.5520 C   0  0  0  0  0  0  0  0  0  0  0  0
    5.1140    0.9900   18.2070 C   0  0  0  0  0  0  0  0  0  0  0  0
    6.2000    0.3300   17.7910 N   0  0  0  0  0  0  0  0  0  0  0  0
    7.0080   -0.1610   18.7380 C   0  0  0  0  0  0  0  0  0  0  0  0
    6.7660   -0.0090   20.1520 C   0  0  0  0  0  0  0  0  0  0  0  0
    7.6780   -0.5340   21.0980 N   0  0  0  0  0  0  0  0  0  0  0  0
    8.7080    0.2100   21.6200 C   0  0  0  0  0  0  0  0  0  0  0  0
    9.0640    1.3440   21.2560 O   0  0  0  0  0  0  0  0  0  0  0  0
    9.3460   -0.4520   22.6510 C   0  0  0  0  0  0  0  0  0  0  0  0
    8.8690    0.0130   23.8790 C   0  0  0  0  0  0  0  0  0  0  0  0
    7.9260    1.0540   23.8620 C   0  0  0  0  0  0  0  0  0  0  0  0
    8.2510   -1.2160   24.5860 C   0  0  0  0  0  0  0  0  0  0  0  0
    9.8000    0.4530   24.6650 N   0  0  0  0  0  0  0  0  0  0  0  0
   11.1390    0.7410   24.1830 C   0  0  0  0  0  0  0  0  0  0  0  0
   11.5510    1.8460   23.8620 O   0  0  0  0  0  0  0  0  0  0  0  0
   11.9220   -0.4060   24.1380 C   0  0  0  0  0  0  0  0  0  0  0  0
   12.6390   -0.7990   25.2520 C   0  0  0  0  0  0  0  0  0  0  0  0
   13.4400   -1.9170   25.3210 C   0  0  0  0  0  0  0  0  0  0  0  0
   13.5850   -2.7140   24.2550 C   0  0  0  0  0  0  0  0  0  0  0  0
   12.9570   -2.4540   23.1010 C   0  0  0  0  0  0  0  0  0  0  0  0
   12.9750   -3.1020   21.9460 N   0  0  0  0  0  0  0  0  0  0  0  0
   12.1800   -2.5040   21.0700 C   0  0  0  0  0  0  0  0  0  0  0  0
   11.6320   -1.4020   21.7190 C   0  0  0  0  0  0  0  0  0  0  0  0
   12.0620   -1.2520   23.0120 C   0  0  0  0  0  0  0  0  0  0  0  0
  1  2  1  0
  2  3  2  0
  3  4  1  0
  4  5  2  0
  5  6  1  0
  2  7  1  0
  6  7  2  0
  7  8  1  0
  8  9  1  0
  9 10  2  0
  9 11  1  0
 11 12  1  0
 12 13  1  0
 12 14  1  0
 12 15  1  0
 15 16  1  0
 16 17  2  0
 16 18  1  0
 18 19  2  0
 19 20  1  0
 20 21  2  0
 21 22  1  0
 22 23  1  0
 23 24  1  0
 24 25  2  0
 18 26  1  0
 22 26  2  0
 25 26  1  0
M  END
