GAB-REV-70cc3ca5-5
     RDKit          3D

 23 25  0  0  0  0  0  0  0  0999 V2000
    5.4190    0.7790   21.9920 C   0  0  0  0  0  0  0  0  0  0  0  0
    5.7330    0.6140   20.6490 C   0  0  0  0  0  0  0  0  0  0  0  0
    4.9300    1.2580   19.6690 C   0  0  0  0  0  0  0  0  0  0  0  0
    5.2150    1.1210   18.2130 C   0  0  0  0  0  0  0  0  0  0  0  0
    6.3100    0.3250   17.8330 N   0  0  0  0  0  0  0  0  0  0  0  0
    7.0710   -0.2930   18.8770 C   0  0  0  0  0  0  0  0  0  0  0  0
    6.8330   -0.1780   20.2410 C   0  0  0  0  0  0  0  0  0  0  0  0
    7.6360   -0.8160   21.2230 N   0  0  0  0  0  0  0  0  0  0  0  0
    8.8090   -0.3510   21.8080 C   0  0  0  0  0  0  0  0  0  0  0  0
    9.8660   -0.1630   21.2740 O   0  0  0  0  0  0  0  0  0  0  0  0
    8.7550   -0.0680   23.1390 C   0  0  0  0  0  0  0  0  0  0  0  0
    8.6180    1.2640   23.3860 N   0  0  0  0  0  0  0  0  0  0  0  0
    8.8830    2.0440   22.2860 C   0  0  0  0  0  0  0  0  0  0  0  0
    8.6180    1.6950   21.1290 O   0  0  0  0  0  0  0  0  0  0  0  0
    9.5310    3.4020   22.6410 C   0  0  0  0  0  0  0  0  0  0  0  0
    8.7740    4.4450   23.1770 C   0  0  0  0  0  0  0  0  0  0  0  0
    9.2950    5.7050   23.5030 C   0  0  0  0  0  0  0  0  0  0  0  0
   10.6370    5.9570   23.2870 C   0  0  0  0  0  0  0  0  0  0  0  0
   11.4810    7.0270   23.4640 N   0  0  0  0  0  0  0  0  0  0  0  0
   12.7420    6.6080   23.0210 C   0  0  0  0  0  0  0  0  0  0  0  0
   12.6410    5.3210   22.6060 N   0  0  0  0  0  0  0  0  0  0  0  0
   11.3110    4.8940   22.7650 C   0  0  0  0  0  0  0  0  0  0  0  0
   10.8920    3.6230   22.4210 C   0  0  0  0  0  0  0  0  0  0  0  0
  1  2  1  0
  2  3  2  0
  3  4  1  0
  4  5  2  0
  5  6  1  0
  2  7  1  0
  6  7  2  0
  7  8  1  0
  8  9  1  0
  9 10  2  0
  9 11  1  0
 11 12  1  0
 12 13  1  0
 13 14  2  0
 13 15  1  0
 15 16  2  0
 16 17  1  0
 17 18  2  0
 18 19  1  0
 19 20  2  0
 20 21  1  0
 18 22  1  0
 21 22  1  0
 15 23  1  0
 22 23  2  0
M  END
