GAB-REV-70cc3ca5-15
     RDKit          3D

 24 26  0  0  0  0  0  0  0  0999 V2000
   11.7290    8.9960   25.8270 C   0  0  0  0  0  0  0  0  0  0  0  0
   12.1830    8.0410   24.8760 O   0  0  0  0  0  0  0  0  0  0  0  0
   11.4140    6.9260   24.7060 C   0  0  0  0  0  0  0  0  0  0  0  0
   11.1080    6.2480   23.3740 C   0  0  0  0  0  0  0  0  0  0  0  0
   10.3010    5.1230   23.3880 C   0  0  0  0  0  0  0  0  0  0  0  0
    9.7410    4.5600   24.5330 C   0  0  0  0  0  0  0  0  0  0  0  0
    8.9410    3.4250   24.4360 C   0  0  0  0  0  0  0  0  0  0  0  0
    7.6970    3.1890   24.9940 C   0  0  0  0  0  0  0  0  0  0  0  0
    7.1080    1.6380   24.6090 S   0  0  0  0  0  0  0  0  0  0  0  0
    8.5510    1.3580   23.7160 C   0  0  0  0  0  0  0  0  0  0  0  0
    9.0200    0.1510   22.9330 C   0  0  0  0  0  0  0  0  0  0  0  0
    8.6680    0.4570   21.6470 C   0  0  0  0  0  0  0  0  0  0  0  0
    9.1150    1.4650   21.1110 O   0  0  0  0  0  0  0  0  0  0  0  0
    7.7670   -0.4320   21.0990 N   0  0  0  0  0  0  0  0  0  0  0  0
    6.9040   -0.0230   20.1240 C   0  0  0  0  0  0  0  0  0  0  0  0
    7.0670   -0.1910   18.7520 C   0  0  0  0  0  0  0  0  0  0  0  0
    6.2110    0.2420   17.8110 N   0  0  0  0  0  0  0  0  0  0  0  0
    5.1170    0.8780   18.2500 C   0  0  0  0  0  0  0  0  0  0  0  0
    4.8310    1.0990   19.5800 C   0  0  0  0  0  0  0  0  0  0  0  0
    5.7400    0.6400   20.5360 C   0  0  0  0  0  0  0  0  0  0  0  0
    5.4220    0.8810   21.8730 C   0  0  0  0  0  0  0  0  0  0  0  0
    9.4660    2.3970   23.6830 N   0  0  0  0  0  0  0  0  0  0  0  0
   10.0090    5.1640   25.7730 C   0  0  0  0  0  0  0  0  0  0  0  0
   10.8590    6.3630   25.8610 C   0  0  0  0  0  0  0  0  0  0  0  0
  1  2  1  0
  2  3  1  0
  3  4  2  0
  4  5  1  0
  5  6  2  0
  6  7  1  0
  7  8  2  0
  8  9  1  0
  9 10  1  0
 10 11  1  0
 11 12  1  0
 12 13  2  0
 12 14  1  0
 14 15  1  0
 15 16  2  0
 16 17  1  0
 17 18  2  0
 18 19  1  0
 15 20  1  0
 19 20  2  0
 20 21  1  0
  7 22  1  0
 10 22  2  0
  6 23  1  0
  3 24  1  0
 23 24  2  0
M  END
