GAB-REV-4a4e2ff3-16
     RDKit          3D

 27 30  0  0  0  0  0  0  0  0999 V2000
    9.0190    6.5570   22.5460 C   0  0  0  0  0  0  0  0  0  0  0  0
   10.2480    6.2170   23.3570 C   0  0  0  0  0  0  0  0  0  0  0  0
   10.2540    6.2770   24.5880 O   0  0  0  0  0  0  0  0  0  0  0  0
   11.3230    5.8480   22.6060 N   0  0  0  0  0  0  0  0  0  0  0  0
   12.2860    5.0830   23.1820 C   0  0  0  0  0  0  0  0  0  0  0  0
   12.5920    3.6860   22.7330 C   0  0  0  0  0  0  0  0  0  0  0  0
   11.7620    2.6390   23.1480 C   0  0  0  0  0  0  0  0  0  0  0  0
   10.4280    2.8050   23.8140 C   0  0  0  0  0  0  0  0  0  0  0  0
    9.8240    1.5630   24.0850 N   0  0  0  0  0  0  0  0  0  0  0  0
   10.7120    0.6010   23.6200 C   0  0  0  0  0  0  0  0  0  0  0  0
   10.5230   -0.8920   23.6520 C   0  0  0  0  0  0  0  0  0  0  0  0
    9.4000   -1.4290   24.1570 N   0  0  0  0  0  0  0  0  0  0  0  0
    9.0610   -2.5460   23.3540 C   0  0  0  0  0  0  0  0  0  0  0  0
    7.7370   -2.9690   23.3460 C   0  0  0  0  0  0  0  0  0  0  0  0
    6.5710   -2.5790   22.7120 N   0  0  0  0  0  0  0  0  0  0  0  0
    5.7020   -3.4940   23.2410 C   0  0  0  0  0  0  0  0  0  0  0  0
    4.2400   -3.7110   23.0370 C   0  0  0  0  0  0  0  0  0  0  0  0
    3.5570   -4.7240   23.6960 C   0  0  0  0  0  0  0  0  0  0  0  0
    4.2770   -5.5400   24.5640 C   0  0  0  0  0  0  0  0  0  0  0  0
    5.7580   -5.4010   24.8420 C   0  0  0  0  0  0  0  0  0  0  0  0
    6.3810   -4.3570   24.1360 C   0  0  0  0  0  0  0  0  0  0  0  0
    7.5660   -4.0750   24.2120 O   0  0  0  0  0  0  0  0  0  0  0  0
   11.5590   -1.6530   23.1210 C   0  0  0  0  0  0  0  0  0  0  0  0
   12.6960   -1.0800   22.5990 C   0  0  0  0  0  0  0  0  0  0  0  0
   13.6360   -1.8550   22.1030 F   0  0  0  0  0  0  0  0  0  0  0  0
   12.8360    0.2980   22.5920 C   0  0  0  0  0  0  0  0  0  0  0  0
   11.8840    1.1920   23.0700 C   0  0  0  0  0  0  0  0  0  0  0  0
  1  2  1  0
  2  3  2  0
  2  4  1  0
  4  5  1  0
  5  6  1  0
  6  7  1  0
  7  8  2  0
  8  9  1  0
  9 10  1  0
 10 11  1  0
 11 12  1  0
 12 13  1  0
 13 14  1  0
 14 15  2  0
 15 16  1  0
 16 17  2  0
 17 18  1  0
 18 19  2  0
 19 20  1  0
 16 21  1  0
 20 21  2  0
 14 22  1  0
 21 22  1  0
 11 23  2  0
 23 24  1  0
 24 25  1  0
 24 26  2  0
  7 27  1  0
 10 27  2  0
 26 27  1  0
M  END
