GAB-REV-70cc3ca5-7
     RDKit          3D

 22 24  0  0  0  0  0  0  0  0999 V2000
    5.2620    0.7160   22.1070 C   0  0  0  0  0  0  0  0  0  0  0  0
    5.6900    0.5460   20.6730 C   0  0  0  0  0  0  0  0  0  0  0  0
    4.8550    1.2010   19.6120 C   0  0  0  0  0  0  0  0  0  0  0  0
    5.2030    1.0840   18.1670 C   0  0  0  0  0  0  0  0  0  0  0  0
    6.3070    0.3520   17.8500 N   0  0  0  0  0  0  0  0  0  0  0  0
    7.1600   -0.3090   18.8090 C   0  0  0  0  0  0  0  0  0  0  0  0
    6.8250   -0.1910   20.2900 C   0  0  0  0  0  0  0  0  0  0  0  0
    7.6990   -0.8490   21.2300 N   0  0  0  0  0  0  0  0  0  0  0  0
    8.8530   -0.1700   21.6230 C   0  0  0  0  0  0  0  0  0  0  0  0
    9.0350    1.0470   21.5240 O   0  0  0  0  0  0  0  0  0  0  0  0
    9.9880   -0.9900   22.2000 C   0  0  0  0  0  0  0  0  0  0  0  0
    9.6840   -1.4910   23.4200 N   0  0  0  0  0  0  0  0  0  0  0  0
   10.8820   -1.7610   24.1250 C   0  0  0  0  0  0  0  0  0  0  0  0
    8.6740   -2.4430   23.4660 C   0  0  0  0  0  0  0  0  0  0  0  0
    7.7120   -2.5050   24.4740 C   0  0  0  0  0  0  0  0  0  0  0  0
    6.8300   -3.6520   24.1850 C   0  0  0  0  0  0  0  0  0  0  0  0
    5.7300   -4.1850   24.8380 C   0  0  0  0  0  0  0  0  0  0  0  0
    5.0660   -5.3190   24.3220 C   0  0  0  0  0  0  0  0  0  0  0  0
    5.5670   -5.9720   23.0220 C   0  0  0  0  0  0  0  0  0  0  0  0
    6.6900   -5.3300   22.4650 C   0  0  0  0  0  0  0  0  0  0  0  0
    7.2850   -4.2180   23.0350 C   0  0  0  0  0  0  0  0  0  0  0  0
    8.3650   -3.5200   22.5940 N   0  0  0  0  0  0  0  0  0  0  0  0
  1  2  1  0
  2  3  2  0
  3  4  1  0
  4  5  2  0
  5  6  1  0
  2  7  1  0
  6  7  2  0
  7  8  1  0
  8  9  1  0
  9 10  2  0
  9 11  1  0
 11 12  1  0
 12 13  1  0
 12 14  1  0
 14 15  2  0
 15 16  1  0
 16 17  2  0
 17 18  1  0
 18 19  2  0
 19 20  1  0
 16 21  1  0
 20 21  2  0
 14 22  1  0
 21 22  1  0
M  END
