GAB-REV-70cc3ca5-23
     RDKit          3D

 21 23  0  0  0  0  0  0  0  0999 V2000
    5.5260    0.8430   21.9900 C   0  0  0  0  0  0  0  0  0  0  0  0
    5.7770    0.6480   20.6380 C   0  0  0  0  0  0  0  0  0  0  0  0
    4.8710    1.1690   19.6810 C   0  0  0  0  0  0  0  0  0  0  0  0
    5.1000    0.9870   18.2190 C   0  0  0  0  0  0  0  0  0  0  0  0
    6.2370    0.2730   17.8120 N   0  0  0  0  0  0  0  0  0  0  0  0
    7.0930   -0.2180   18.8310 C   0  0  0  0  0  0  0  0  0  0  0  0
    6.9170   -0.0560   20.1970 C   0  0  0  0  0  0  0  0  0  0  0  0
    7.8290   -0.5550   21.1440 N   0  0  0  0  0  0  0  0  0  0  0  0
    8.9500    0.1370   21.5880 C   0  0  0  0  0  0  0  0  0  0  0  0
    9.1830    1.3330   21.3300 O   0  0  0  0  0  0  0  0  0  0  0  0
    9.8710   -0.6010   22.3290 C   0  0  0  0  0  0  0  0  0  0  0  0
    9.2620   -1.5650   23.1120 C   0  0  0  0  0  0  0  0  0  0  0  0
    8.9530   -2.8810   22.5590 N   0  0  0  0  0  0  0  0  0  0  0  0
    8.3710   -3.4460   23.7450 C   0  0  0  0  0  0  0  0  0  0  0  0
    7.8740   -4.7160   23.8400 C   0  0  0  0  0  0  0  0  0  0  0  0
    7.3510   -5.0690   25.0880 C   0  0  0  0  0  0  0  0  0  0  0  0
    7.3710   -4.1400   26.1250 C   0  0  0  0  0  0  0  0  0  0  0  0
    7.8730   -2.8480   26.0430 C   0  0  0  0  0  0  0  0  0  0  0  0
    7.8380   -2.0070   27.1530 C   0  0  0  0  0  0  0  0  0  0  0  0
    8.3800   -2.5400   24.7790 C   0  0  0  0  0  0  0  0  0  0  0  0
    8.9560   -1.3690   24.3080 O   0  0  0  0  0  0  0  0  0  0  0  0
  1  2  1  0
  2  3  2  0
  3  4  1  0
  4  5  2  0
  5  6  1  0
  2  7  1  0
  6  7  2  0
  7  8  1  0
  8  9  1  0
  9 10  2  0
  9 11  1  0
 11 12  1  0
 12 13  2  0
 13 14  1  0
 14 15  2  0
 15 16  1  0
 16 17  2  0
 17 18  1  0
 18 19  1  0
 14 20  1  0
 18 20  2  0
 12 21  1  0
 20 21  1  0
M  END
