GAB-REV-4a4e2ff3-21
     RDKit          3D

 24 26  0  0  0  0  0  0  0  0999 V2000
    9.0400    6.6040   22.5720 C   0  0  0  0  0  0  0  0  0  0  0  0
   10.2490    6.1670   23.3580 C   0  0  0  0  0  0  0  0  0  0  0  0
   10.3180    6.2910   24.5750 O   0  0  0  0  0  0  0  0  0  0  0  0
   11.2390    5.6260   22.5740 N   0  0  0  0  0  0  0  0  0  0  0  0
   12.4040    4.9820   23.1690 C   0  0  0  0  0  0  0  0  0  0  0  0
   12.6290    3.7050   22.6820 C   0  0  0  0  0  0  0  0  0  0  0  0
   11.6850    2.6550   23.2130 C   0  0  0  0  0  0  0  0  0  0  0  0
   10.4870    2.8690   23.8680 C   0  0  0  0  0  0  0  0  0  0  0  0
    9.9420    1.6290   24.1550 N   0  0  0  0  0  0  0  0  0  0  0  0
   10.7690    0.6380   23.6950 C   0  0  0  0  0  0  0  0  0  0  0  0
   10.5260   -0.8470   23.7940 C   0  0  0  0  0  0  0  0  0  0  0  0
    9.2900   -1.2720   24.4320 N   0  0  0  0  0  0  0  0  0  0  0  0
    8.3980   -2.1050   23.8480 C   0  0  0  0  0  0  0  0  0  0  0  0
    7.3580   -1.6570   23.0180 C   0  0  0  0  0  0  0  0  0  0  0  0
    6.5430   -0.7810   23.6960 N   0  0  0  0  0  0  0  0  0  0  0  0
    5.4820   -0.2750   22.9610 C   0  0  0  0  0  0  0  0  0  0  0  0
    5.3400   -0.6890   21.6270 C   0  0  0  0  0  0  0  0  0  0  0  0
    6.2340   -1.5820   21.0670 C   0  0  0  0  0  0  0  0  0  0  0  0
    7.2620   -2.0870   21.7460 N   0  0  0  0  0  0  0  0  0  0  0  0
   11.5170   -1.6620   23.2480 C   0  0  0  0  0  0  0  0  0  0  0  0
   12.6360   -1.0860   22.6680 C   0  0  0  0  0  0  0  0  0  0  0  0
   13.5650   -1.8760   22.1440 F   0  0  0  0  0  0  0  0  0  0  0  0
   12.8030    0.3120   22.6160 C   0  0  0  0  0  0  0  0  0  0  0  0
   11.8880    1.2380   23.1060 C   0  0  0  0  0  0  0  0  0  0  0  0
  1  2  1  0
  2  3  2  0
  2  4  1  0
  4  5  1  0
  5  6  1  0
  6  7  1  0
  7  8  2  0
  8  9  1  0
  9 10  1  0
 10 11  1  0
 11 12  1  0
 12 13  1  0
 13 14  1  0
 14 15  2  0
 15 16  1  0
 16 17  2  0
 17 18  1  0
 14 19  1  0
 18 19  2  0
 11 20  2  0
 20 21  1  0
 21 22  1  0
 21 23  2  0
  7 24  1  0
 10 24  2  0
 23 24  1  0
M  END
