GAB-REV-70cc3ca5-21
     RDKit          3D

 22 23  0  0  0  0  0  0  0  0999 V2000
    7.9000   -1.0290   29.1670 C   0  0  0  0  0  0  0  0  0  0  0  0
    6.6230   -1.7740   28.6800 C   0  0  0  0  0  0  0  0  0  0  0  0
    6.1330   -2.7110   29.3000 O   0  0  0  0  0  0  0  0  0  0  0  0
    6.0940   -1.2950   27.5020 N   0  0  0  0  0  0  0  0  0  0  0  0
    6.7970   -1.5820   26.2590 C   0  0  0  0  0  0  0  0  0  0  0  0
    6.7190   -2.7740   25.5530 C   0  0  0  0  0  0  0  0  0  0  0  0
    7.4250   -2.9910   24.3820 C   0  0  0  0  0  0  0  0  0  0  0  0
    8.2570   -2.0360   23.8210 C   0  0  0  0  0  0  0  0  0  0  0  0
    8.9440   -2.4150   22.5850 N   0  0  0  0  0  0  0  0  0  0  0  0
    9.8390   -1.3900   22.0620 C   0  0  0  0  0  0  0  0  0  0  0  0
    8.9490   -0.4200   21.5660 C   0  0  0  0  0  0  0  0  0  0  0  0
    9.3470    0.9040   21.6260 O   0  0  0  0  0  0  0  0  0  0  0  0
    7.7290   -0.8790   21.0830 N   0  0  0  0  0  0  0  0  0  0  0  0
    6.8430   -0.1450   20.1730 C   0  0  0  0  0  0  0  0  0  0  0  0
    7.0910   -0.1640   18.8100 C   0  0  0  0  0  0  0  0  0  0  0  0
    6.3850    0.4470   17.8320 N   0  0  0  0  0  0  0  0  0  0  0  0
    5.3280    1.1360   18.2600 C   0  0  0  0  0  0  0  0  0  0  0  0
    5.0120    1.1970   19.6150 C   0  0  0  0  0  0  0  0  0  0  0  0
    5.7360    0.5700   20.6430 C   0  0  0  0  0  0  0  0  0  0  0  0
    5.3740    0.6600   21.9850 C   0  0  0  0  0  0  0  0  0  0  0  0
    8.3970   -0.7930   24.4520 C   0  0  0  0  0  0  0  0  0  0  0  0
    7.7130   -0.5090   25.6450 C   0  0  0  0  0  0  0  0  0  0  0  0
  1  2  1  0
  2  3  2  0
  2  4  1  0
  4  5  1  0
  5  6  2  0
  6  7  1  0
  7  8  2  0
  8  9  1  0
  9 10  1  0
 10 11  1  0
 11 12  2  0
 11 13  1  0
 13 14  1  0
 14 15  2  0
 15 16  1  0
 16 17  2  0
 17 18  1  0
 14 19  1  0
 18 19  2  0
 19 20  1  0
  8 21  1  0
  5 22  1  0
 21 22  2  0
M  END
