GER-UNI-cad0fe83-1
     RDKit          3D

 22 25  0  0  0  0  0  0  0  0999 V2000
    7.2070    0.2240   26.8390 C   0  0  0  0  0  0  0  0  0  0  0  0
    6.9240   -0.6180   25.6780 C   0  0  0  0  0  0  0  0  0  0  0  0
    5.8260   -1.3300   25.5450 N   0  0  0  0  0  0  0  0  0  0  0  0
    5.8840   -2.0010   24.3570 N   0  0  0  0  0  0  0  0  0  0  0  0
    7.0190   -1.7020   23.7580 C   0  0  0  0  0  0  0  0  0  0  0  0
    7.7330   -0.8070   24.5660 N   0  0  0  0  0  0  0  0  0  0  0  0
    9.0090   -0.2790   24.2440 C   0  0  0  0  0  0  0  0  0  0  0  0
    9.6730    0.9740   24.6360 C   0  0  0  0  0  0  0  0  0  0  0  0
   10.9750    1.2560   24.1890 C   0  0  0  0  0  0  0  0  0  0  0  0
   11.7160    0.2570   23.2910 C   0  0  0  0  0  0  0  0  0  0  0  0
   13.3210    0.7000   22.8210 Cl  0  0  0  0  0  0  0  0  0  0  0  0
   11.1350   -0.8960   22.8970 C   0  0  0  0  0  0  0  0  0  0  0  0
    9.7650   -0.9880   23.4820 C   0  0  0  0  0  0  0  0  0  0  0  0
    9.7940   -2.1740   22.8010 C   0  0  0  0  0  0  0  0  0  0  0  0
   11.0860   -2.4420   22.7930 C   0  0  0  0  0  0  0  0  0  0  0  0
   11.8340   -2.5950   21.5340 C   0  0  0  0  0  0  0  0  0  0  0  0
   13.2600   -2.8500   21.7310 C   0  0  0  0  0  0  0  0  0  0  0  0
   13.7430   -2.9210   23.1780 C   0  0  0  0  0  0  0  0  0  0  0  0
   12.9710   -2.7570   24.2990 C   0  0  0  0  0  0  0  0  0  0  0  0
   11.6490   -2.5150   24.1690 C   0  0  0  0  0  0  0  0  0  0  0  0
    8.8050   -2.8170   22.3110 N   0  0  0  0  0  0  0  0  0  0  0  0
    7.4450   -2.2530   22.4180 C   0  0  0  0  0  0  0  0  0  0  0  0
  1  2  1  0
  2  3  2  0
  3  4  1  0
  4  5  2  0
  2  6  1  0
  5  6  1  0
  6  7  1  0
  7  8  2  0
  8  9  1  0
  9 10  2  0
 10 11  1  0
 10 12  1  0
  7 13  1  0
 12 13  2  0
 13 14  1  0
 14 15  1  0
 15 16  2  0
 16 17  1  0
 17 18  2  0
 18 19  1  0
 15 20  1  0
 19 20  2  0
 14 21  2  0
  5 22  1  0
 21 22  1  0
M  END
