GER-UNI-caecb3b0-1
     RDKit          3D

 28 31  0  0  0  0  0  0  0  0999 V2000
    7.0390    0.4190   26.3410 O   0  0  0  0  0  0  0  0  0  0  0  0
    7.7280   -0.4040   25.7190 C   0  0  0  0  0  0  0  0  0  0  0  0
    7.5290   -1.7530   25.6460 O   0  0  0  0  0  0  0  0  0  0  0  0
    8.8940   -0.0060   24.9210 C   0  0  0  0  0  0  0  0  0  0  0  0
    9.4060   -1.1000   24.2330 C   0  0  0  0  0  0  0  0  0  0  0  0
   10.3860   -0.7360   23.4860 N   0  0  0  0  0  0  0  0  0  0  0  0
   11.4130   -1.5210   22.9660 C   0  0  0  0  0  0  0  0  0  0  0  0
   11.2070   -1.7390   21.5320 C   0  0  0  0  0  0  0  0  0  0  0  0
   12.1260   -2.4020   20.9600 C   0  0  0  0  0  0  0  0  0  0  0  0
   13.2700   -2.9320   21.4930 C   0  0  0  0  0  0  0  0  0  0  0  0
   14.0050   -3.5710   20.5670 F   0  0  0  0  0  0  0  0  0  0  0  0
   13.5020   -2.7420   22.9620 C   0  0  0  0  0  0  0  0  0  0  0  0
   12.4910   -1.9820   23.7220 C   0  0  0  0  0  0  0  0  0  0  0  0
   10.9900    0.4400   23.7050 C   0  0  0  0  0  0  0  0  0  0  0  0
   12.0910    0.4790   23.2110 C   0  0  0  0  0  0  0  0  0  0  0  0
   11.6720   -0.6860   22.7960 C   0  0  0  0  0  0  0  0  0  0  0  0
   10.5860   -1.6110   22.7840 N   0  0  0  0  0  0  0  0  0  0  0  0
    9.3280   -1.1070   22.1190 C   0  0  0  0  0  0  0  0  0  0  0  0
    8.7330   -2.1570   21.5950 C   0  0  0  0  0  0  0  0  0  0  0  0
    8.3040   -2.9590   22.6290 N   0  0  0  0  0  0  0  0  0  0  0  0
    9.0300   -3.1280   23.8130 C   0  0  0  0  0  0  0  0  0  0  0  0
   10.3560   -2.6100   23.8400 C   0  0  0  0  0  0  0  0  0  0  0  0
   12.7760   -0.2570   22.5400 C   0  0  0  0  0  0  0  0  0  0  0  0
   13.7780   -0.7520   21.8570 F   0  0  0  0  0  0  0  0  0  0  0  0
   12.5380    1.1010   23.2930 C   0  0  0  0  0  0  0  0  0  0  0  0
   11.1020    1.5860   24.1430 C   0  0  0  0  0  0  0  0  0  0  0  0
    9.5730    1.3210   24.6790 C   0  0  0  0  0  0  0  0  0  0  0  0
    8.9120    2.3460   24.8560 O   0  0  0  0  0  0  0  0  0  0  0  0
  1  2  2  0
  2  3  1  0
  2  4  1  0
  4  5  2  0
  5  6  1  0
  6  7  1  0
  7  8  2  0
  8  9  1  0
  9 10  2  0
 10 11  1  0
 10 12  1  0
  7 13  1  0
 12 13  2  0
  6 14  1  0
 14 15  1  0
 15 16  2  0
 16 17  1  0
 17 18  1  0
 18 19  1  0
 19 20  1  0
 20 21  1  0
 17 22  1  0
 21 22  1  0
 16 23  1  0
 23 24  1  0
 23 25  2  0
 14 26  2  0
 25 26  1  0
  4 27  1  0
 26 27  1  0
 27 28  2  0
M  END
