GER-UNI-05c7e912-1
     RDKit          3D

 26 28  0  0  0  0  0  0  0  0999 V2000
    9.4280   -3.1190   23.6780 C   0  0  0  0  0  0  0  0  0  0  0  0
    9.9280   -1.7430   23.4560 C   0  0  0  0  0  0  0  0  0  0  0  0
    9.1250   -0.6360   24.0510 C   0  0  0  0  0  0  0  0  0  0  0  0
    9.6130    0.7300   23.8120 C   0  0  0  0  0  0  0  0  0  0  0  0
   10.8300    0.9330   23.0360 C   0  0  0  0  0  0  0  0  0  0  0  0
   11.2390    2.1840   22.8600 C   0  0  0  0  0  0  0  0  0  0  0  0
   10.7550    3.5000   22.7430 C   0  0  0  0  0  0  0  0  0  0  0  0
   12.0490    4.2580   22.6010 C   0  0  0  0  0  0  0  0  0  0  0  0
   12.1550    5.7490   22.4910 C   0  0  0  0  0  0  0  0  0  0  0  0
   13.1140    6.1570   21.6330 F   0  0  0  0  0  0  0  0  0  0  0  0
   12.4520    6.3250   23.6830 F   0  0  0  0  0  0  0  0  0  0  0  0
   10.9810    6.3340   22.1520 F   0  0  0  0  0  0  0  0  0  0  0  0
   13.1400    3.3210   22.6140 N   0  0  0  0  0  0  0  0  0  0  0  0
   12.5280    2.0880   22.7900 N   0  0  0  0  0  0  0  0  0  0  0  0
   12.8980    0.7280   22.9740 C   0  0  0  0  0  0  0  0  0  0  0  0
   12.3480    0.5820   24.3000 C   0  0  0  0  0  0  0  0  0  0  0  0
   12.3900   -0.4880   25.0300 C   0  0  0  0  0  0  0  0  0  0  0  0
   13.0260   -1.5490   24.4220 C   0  0  0  0  0  0  0  0  0  0  0  0
   13.3140   -3.0700   25.0680 S   0  0  0  0  0  0  0  0  0  0  0  0
   14.4840   -2.8310   26.2100 N   0  0  0  0  0  0  0  0  0  0  0  0
   14.0960   -3.4300   23.9650 O   0  0  0  0  0  0  0  0  0  0  0  0
   12.1230   -3.7090   25.5850 O   0  0  0  0  0  0  0  0  0  0  0  0
   13.5270   -1.5070   23.1920 C   0  0  0  0  0  0  0  0  0  0  0  0
   13.4940   -0.3150   22.3490 C   0  0  0  0  0  0  0  0  0  0  0  0
   11.5230   -0.2010   22.5330 C   0  0  0  0  0  0  0  0  0  0  0  0
   11.0900   -1.4870   22.7260 C   0  0  0  0  0  0  0  0  0  0  0  0
  1  2  1  0
  2  3  2  0
  3  4  1  0
  4  5  2  0
  5  6  1  0
  6  7  2  0
  7  8  1  0
  8  9  1  0
  9 10  1  0
  9 11  1  0
  9 12  1  0
  8 13  2  0
  6 14  1  0
 13 14  1  0
 14 15  1  0
 15 16  2  0
 16 17  1  0
 17 18  2  0
 18 19  1  0
 19 20  1  0
 19 21  2  0
 19 22  2  0
 18 23  1  0
 15 24  1  0
 23 24  2  0
  5 25  1  0
  2 26  1  0
 25 26  2  0
M  END
