GIA-UNK-30c7cb75-1
     RDKit          3D

 20 22  0  0  0  0  0  0  0  0999 V2000
    4.8710   -0.0060   23.4130 O   0  0  0  0  0  0  0  0  0  0  0  0
    5.8360   -0.3490   22.7400 C   0  0  0  0  0  0  0  0  0  0  0  0
    6.2650    0.4740   21.4950 C   0  0  0  0  0  0  0  0  0  0  0  0
    6.7960   -0.3010   20.4350 C   0  0  0  0  0  0  0  0  0  0  0  0
    5.8670   -1.1570   19.8510 C   0  0  0  0  0  0  0  0  0  0  0  0
    4.6360   -0.6260   19.7340 N   0  0  0  0  0  0  0  0  0  0  0  0
    4.7100    0.3230   18.9770 C   0  0  0  0  0  0  0  0  0  0  0  0
    5.7050    0.3190   17.9320 C   0  0  0  0  0  0  0  0  0  0  0  0
    5.7220    1.5010   17.1260 C   0  0  0  0  0  0  0  0  0  0  0  0
    4.8170    2.5950   17.3440 N   0  0  0  0  0  0  0  0  0  0  0  0
    3.8560    2.5090   18.4330 C   0  0  0  0  0  0  0  0  0  0  0  0
    3.8350    1.3860   19.1950 C   0  0  0  0  0  0  0  0  0  0  0  0
    4.2280    0.0470   20.8010 C   0  0  0  0  0  0  0  0  0  0  0  0
    4.9880    1.1580   21.0720 C   0  0  0  0  0  0  0  0  0  0  0  0
    6.6060   -1.4750   23.0390 N   0  0  0  0  0  0  0  0  0  0  0  0
    7.5960   -1.4800   24.0890 C   0  0  0  0  0  0  0  0  0  0  0  0
    6.8370   -1.6560   25.3950 C   0  0  0  0  0  0  0  0  0  0  0  0
    5.9950   -2.9440   25.3650 C   0  0  0  0  0  0  0  0  0  0  0  0
    5.2840   -3.1440   24.1650 C   0  0  0  0  0  0  0  0  0  0  0  0
    6.0030   -2.6910   22.8590 C   0  0  0  0  0  0  0  0  0  0  0  0
  1  2  2  0
  2  3  1  0
  3  4  1  0
  4  5  1  0
  5  6  1  0
  6  7  1  0
  7  8  2  0
  8  9  1  0
  9 10  2  0
 10 11  1  0
  7 12  1  0
 11 12  2  0
  6 13  1  0
  3 14  1  0
 13 14  1  0
  2 15  1  0
 15 16  1  0
 16 17  1  0
 17 18  1  0
 18 19  1  0
 15 20  1  0
 19 20  1  0
M  END
