GIA-UNK-30c7cb75-2
     RDKit          3D

 20 22  0  0  0  0  0  0  0  0999 V2000
    8.1730    2.0290   21.0960 O   0  0  0  0  0  0  0  0  0  0  0  0
    7.0700    1.7240   21.5960 C   0  0  0  0  0  0  0  0  0  0  0  0
    6.5210    0.5470   21.2880 C   0  0  0  0  0  0  0  0  0  0  0  0
    7.0090   -0.1140   20.0430 C   0  0  0  0  0  0  0  0  0  0  0  0
    5.9410   -1.1180   19.5490 C   0  0  0  0  0  0  0  0  0  0  0  0
    4.7040   -0.6420   19.6210 N   0  0  0  0  0  0  0  0  0  0  0  0
    4.6350    0.4270   18.9650 C   0  0  0  0  0  0  0  0  0  0  0  0
    3.7580    1.4830   19.2430 C   0  0  0  0  0  0  0  0  0  0  0  0
    3.8040    2.6040   18.4830 C   0  0  0  0  0  0  0  0  0  0  0  0
    4.7440    2.5890   17.4610 N   0  0  0  0  0  0  0  0  0  0  0  0
    5.5940    1.5730   17.1830 C   0  0  0  0  0  0  0  0  0  0  0  0
    5.5700    0.3590   17.9850 C   0  0  0  0  0  0  0  0  0  0  0  0
    4.3720   -0.2440   20.8510 C   0  0  0  0  0  0  0  0  0  0  0  0
    5.0590    0.9090   21.1010 C   0  0  0  0  0  0  0  0  0  0  0  0
    6.4000    2.5930   22.4870 N   0  0  0  0  0  0  0  0  0  0  0  0
    6.2750    2.1870   23.7700 C   0  0  0  0  0  0  0  0  0  0  0  0
    5.1520    2.6140   24.4770 C   0  0  0  0  0  0  0  0  0  0  0  0
    5.0870    3.8370   24.5410 O   0  0  0  0  0  0  0  0  0  0  0  0
    5.2280    4.4830   23.2700 C   0  0  0  0  0  0  0  0  0  0  0  0
    6.2620    3.9370   22.3180 C   0  0  0  0  0  0  0  0  0  0  0  0
  1  2  2  0
  2  3  1  0
  3  4  1  0
  4  5  1  0
  5  6  1  0
  6  7  1  0
  7  8  2  0
  8  9  1  0
  9 10  2  0
 10 11  1  0
  7 12  1  0
 11 12  2  0
  6 13  1  0
  3 14  1  0
 13 14  1  0
  2 15  1  0
 15 16  1  0
 16 17  1  0
 17 18  1  0
 18 19  1  0
 15 20  1  0
 19 20  1  0
M  END
