GIA-UNK-995df016-13
     RDKit          3D

 18 19  0  0  0  0  0  0  0  0999 V2000
    7.5030   -1.5990   18.9010 O   0  0  0  0  0  0  0  0  0  0  0  0
    6.7850   -2.0820   19.7460 C   0  0  0  0  0  0  0  0  0  0  0  0
    5.1290   -2.4510   19.3280 S   0  0  0  0  0  0  0  0  0  0  0  0
    4.8460   -0.6930   19.0880 C   0  0  0  0  0  0  0  0  0  0  0  0
    5.9390    0.0150   19.4890 F   0  0  0  0  0  0  0  0  0  0  0  0
    7.2300   -2.3560   21.1500 C   0  0  0  0  0  0  0  0  0  0  0  0
    6.1850   -2.5560   22.0370 C   0  0  0  0  0  0  0  0  0  0  0  0
    6.4170   -1.8930   23.2280 C   0  0  0  0  0  0  0  0  0  0  0  0
    7.7950   -2.0710   23.6250 N   0  0  0  0  0  0  0  0  0  0  0  0
    8.0080   -3.2790   24.1980 C   0  0  0  0  0  0  0  0  0  0  0  0
    9.3280   -3.7410   24.3220 O   0  0  0  0  0  0  0  0  0  0  0  0
    6.8280   -3.9600   24.5860 C   0  0  0  0  0  0  0  0  0  0  0  0
    6.7920   -5.3590   24.6570 C   0  0  0  0  0  0  0  0  0  0  0  0
    6.1460   -5.7680   25.9930 C   0  0  0  0  0  0  0  0  0  0  0  0
    6.0310   -4.5800   26.7130 C   0  0  0  0  0  0  0  0  0  0  0  0
    6.3580   -3.4830   25.8530 C   0  0  0  0  0  0  0  0  0  0  0  0
    8.7490   -1.5490   22.7360 C   0  0  0  0  0  0  0  0  0  0  0  0
    8.1600   -1.2120   21.5250 C   0  0  0  0  0  0  0  0  0  0  0  0
  1  2  2  0
  2  3  1  0
  3  4  1  0
  4  5  1  0
  2  6  1  0
  6  7  1  0
  7  8  1  0
  8  9  1  0
  9 10  1  0
 10 11  2  0
 10 12  1  0
 12 13  1  0
 13 14  1  0
 14 15  1  0
 12 16  1  0
 15 16  1  0
  9 17  1  0
  6 18  1  0
 17 18  1  0
M  END
