GIA-UNK-3f36037a-7
     RDKit          3D

 19 20  0  0  0  0  0  0  0  0999 V2000
    5.5390   -5.5850   26.9030 O   0  0  0  0  0  0  0  0  0  0  0  0
    5.6620   -4.9270   27.9260 C   0  0  0  0  0  0  0  0  0  0  0  0
    5.9960   -3.4600   27.9350 C   0  0  0  0  0  0  0  0  0  0  0  0
    6.1150   -2.7530   26.6090 C   0  0  0  0  0  0  0  0  0  0  0  0
    6.7860   -1.6840   26.5760 O   0  0  0  0  0  0  0  0  0  0  0  0
    5.4420   -3.3540   25.5590 N   0  0  0  0  0  0  0  0  0  0  0  0
    6.1100   -3.8420   24.3660 C   0  0  0  0  0  0  0  0  0  0  0  0
    7.0940   -3.0270   23.8270 C   0  0  0  0  0  0  0  0  0  0  0  0
    7.8080   -3.5090   22.5770 C   0  0  0  0  0  0  0  0  0  0  0  0
    7.5020   -4.7690   21.9420 N   0  0  0  0  0  0  0  0  0  0  0  0
    6.5080   -5.5900   22.4800 C   0  0  0  0  0  0  0  0  0  0  0  0
    5.7320   -5.2070   23.7240 C   0  0  0  0  0  0  0  0  0  0  0  0
    5.5060   -5.4470   29.2040 N   0  0  0  0  0  0  0  0  0  0  0  0
    4.5160   -6.3740   29.5930 C   0  0  0  0  0  0  0  0  0  0  0  0
    4.4310   -6.9360   30.8800 C   0  0  0  0  0  0  0  0  0  0  0  0
    3.4090   -7.8470   31.1970 C   0  0  0  0  0  0  0  0  0  0  0  0
    2.4060   -8.2190   30.1480 C   0  0  0  0  0  0  0  0  0  0  0  0
    2.5430   -7.6340   28.8950 C   0  0  0  0  0  0  0  0  0  0  0  0
    3.5700   -6.7370   28.6240 C   0  0  0  0  0  0  0  0  0  0  0  0
  1  2  2  0
  2  3  1  0
  3  4  1  0
  4  5  2  0
  4  6  1  0
  6  7  1  0
  7  8  2  0
  8  9  1  0
  9 10  2  0
 10 11  1  0
  7 12  1  0
 11 12  2  0
  2 13  1  0
 13 14  1  0
 14 15  2  0
 15 16  1  0
 16 17  2  0
 17 18  1  0
 14 19  1  0
 18 19  2  0
M  END
