GIA-UNK-3f36037a-5
     RDKit          3D

 19 19  0  0  0  0  0  0  0  0999 V2000
    3.3430   -5.5920   30.3110 O   0  0  0  0  0  0  0  0  0  0  0  0
    3.5610   -6.7570   29.9930 C   0  0  0  0  0  0  0  0  0  0  0  0
    2.6620   -7.9290   30.4800 C   0  0  0  0  0  0  0  0  0  0  0  0
    1.2130   -7.3610   31.3900 Cl  0  0  0  0  0  0  0  0  0  0  0  0
    4.7360   -7.1470   29.0950 C   0  0  0  0  0  0  0  0  0  0  0  0
    5.3080   -5.9550   28.4110 N   0  0  0  0  0  0  0  0  0  0  0  0
    6.4330   -5.2710   28.8190 C   0  0  0  0  0  0  0  0  0  0  0  0
    5.4500   -5.0510   29.8300 O   0  0  0  0  0  0  0  0  0  0  0  0
    6.9430   -5.7780   27.6130 C   0  0  0  0  0  0  0  0  0  0  0  0
    6.8360   -5.0000   26.4550 C   0  0  0  0  0  0  0  0  0  0  0  0
    7.6070   -5.1330   25.5070 O   0  0  0  0  0  0  0  0  0  0  0  0
    5.7330   -4.0180   26.4770 N   0  0  0  0  0  0  0  0  0  0  0  0
    5.7230   -3.0160   25.4120 C   0  0  0  0  0  0  0  0  0  0  0  0
    6.2200   -3.6790   24.2810 C   0  0  0  0  0  0  0  0  0  0  0  0
    7.3500   -3.1200   23.5540 C   0  0  0  0  0  0  0  0  0  0  0  0
    7.6910   -3.8800   22.5120 C   0  0  0  0  0  0  0  0  0  0  0  0
    7.0370   -5.0730   22.1580 C   0  0  0  0  0  0  0  0  0  0  0  0
    5.9240   -5.7860   22.7170 C   0  0  0  0  0  0  0  0  0  0  0  0
    5.6560   -4.8830   23.8130 C   0  0  0  0  0  0  0  0  0  0  0  0
  1  2  2  0
  2  3  1  0
  3  4  1  0
  2  5  1  0
  5  6  1  0
  6  7  1  0
  7  8  2  0
  7  9  1  0
  9 10  1  0
 10 11  2  0
 10 12  1  0
 12 13  1  0
 13 14  1  0
 14 15  2  0
 15 16  1  0
 16 17  2  0
 17 18  1  0
 14 19  1  0
 18 19  2  0
M  END
