GIA-UNK-995df016-5
     RDKit          3D

 19 20  0  0  0  0  0  0  0  0999 V2000
    5.0120   -1.1140   20.5730 O   0  0  0  0  0  0  0  0  0  0  0  0
    5.6730   -0.6830   21.5040 C   0  0  0  0  0  0  0  0  0  0  0  0
    5.4880    0.9920   22.0950 S   0  0  0  0  0  0  0  0  0  0  0  0
    4.4440    1.6380   20.7700 C   0  0  0  0  0  0  0  0  0  0  0  0
    3.7220    2.6970   21.2430 F   0  0  0  0  0  0  0  0  0  0  0  0
    6.7270   -1.5160   22.2210 C   0  0  0  0  0  0  0  0  0  0  0  0
    6.3310   -2.8690   22.1540 C   0  0  0  0  0  0  0  0  0  0  0  0
    7.2420   -3.7590   22.7440 C   0  0  0  0  0  0  0  0  0  0  0  0
    8.5320   -3.1310   23.0850 N   0  0  0  0  0  0  0  0  0  0  0  0
    8.7040   -2.8090   24.5060 C   0  0  0  0  0  0  0  0  0  0  0  0
    9.0690   -1.7090   24.8760 O   0  0  0  0  0  0  0  0  0  0  0  0
    8.4340   -3.7770   25.4880 C   0  0  0  0  0  0  0  0  0  0  0  0
    9.0890   -4.9930   25.2930 C   0  0  0  0  0  0  0  0  0  0  0  0
    9.1980   -5.7790   26.4490 C   0  0  0  0  0  0  0  0  0  0  0  0
    8.1320   -5.6290   27.3460 C   0  0  0  0  0  0  0  0  0  0  0  0
    6.9540   -5.1200   26.8150 C   0  0  0  0  0  0  0  0  0  0  0  0
    7.1080   -4.0730   25.7490 C   0  0  0  0  0  0  0  0  0  0  0  0
    9.1250   -2.2090   22.1180 C   0  0  0  0  0  0  0  0  0  0  0  0
    8.0580   -1.3210   21.5090 C   0  0  0  0  0  0  0  0  0  0  0  0
  1  2  2  0
  2  3  1  0
  3  4  1  0
  4  5  1  0
  2  6  1  0
  6  7  1  0
  7  8  1  0
  8  9  1  0
  9 10  1  0
 10 11  2  0
 10 12  1  0
 12 13  1  0
 13 14  1  0
 14 15  1  0
 15 16  1  0
 12 17  1  0
 16 17  1  0
  9 18  1  0
  6 19  1  0
 18 19  1  0
M  END
