GIA-UNK-30c7cb75-6
     RDKit          3D

 22 24  0  0  0  0  0  0  0  0999 V2000
    2.5530    1.7380   24.6780 O   0  0  0  0  0  0  0  0  0  0  0  0
    2.3870    2.5250   23.7450 C   0  0  0  0  0  0  0  0  0  0  0  0
    3.4690    2.6600   22.6820 C   0  0  1  0  0  0  0  0  0  0  0  0
    4.5280    3.6860   22.9520 C   0  0  0  0  0  0  0  0  0  0  0  0
    5.7410    2.9710   23.4720 C   0  0  0  0  0  0  0  0  0  0  0  0
    6.3640    2.2650   22.4450 C   0  0  0  0  0  0  0  0  0  0  0  0
    5.3390    1.3840   21.8380 N   0  0  0  0  0  0  0  0  0  0  0  0
    5.5230    1.0440   20.4480 C   0  0  0  0  0  0  0  0  0  0  0  0
    6.4750   -0.1140   20.1170 C   0  0  0  0  0  0  0  0  0  0  0  0
    6.6600   -0.4320   18.6670 C   0  0  0  0  0  0  0  0  0  0  0  0
    5.9840    0.3120   17.7330 N   0  0  0  0  0  0  0  0  0  0  0  0
    5.1240    1.3530   18.0640 C   0  0  0  0  0  0  0  0  0  0  0  0
    4.8980    1.7080   19.3840 C   0  0  0  0  0  0  0  0  0  0  0  0
    4.1300    1.3040   22.4030 C   0  0  0  0  0  0  0  0  0  0  0  0
    1.1750    3.2620   23.5920 N   0  0  0  0  0  0  0  0  0  0  0  0
    0.1160    2.5850   24.0980 C   0  0  0  0  0  0  0  0  0  0  0  0
   -0.8670    2.4840   23.1300 C   0  0  0  0  0  0  0  0  0  0  0  0
   -1.7190    4.0210   23.2270 S   0  0  0  0  0  0  0  0  0  0  0  0
   -1.7940    4.6050   21.8390 O   0  0  0  0  0  0  0  0  0  0  0  0
   -2.9010    3.8300   24.0420 O   0  0  0  0  0  0  0  0  0  0  0  0
   -0.5730    5.0130   24.1700 C   0  0  0  0  0  0  0  0  0  0  0  0
    0.9090    4.6770   23.8600 C   0  0  0  0  0  0  0  0  0  0  0  0
  1  2  2  0
  3  2  1  1
  3  4  1  0
  4  5  1  0
  5  6  1  0
  6  7  1  0
  7  8  1  0
  8  9  2  0
  9 10  1  0
 10 11  2  0
 11 12  1  0
  8 13  1  0
 12 13  2  0
  3 14  1  0
  7 14  1  0
  2 15  1  0
 15 16  1  0
 16 17  1  0
 18 17  1  0
 18 19  2  0
 18 20  2  0
 18 21  1  0
 15 22  1  0
 21 22  1  0
M  END
