GIA-UNK-5ec6c2b8-3
     RDKit          3D

 16 17  0  0  0  0  0  0  0  0999 V2000
    5.2310   -2.3990   25.5930 O   0  0  0  0  0  0  0  0  0  0  0  0
    4.8760   -3.2830   24.5520 C   0  0  0  0  0  0  0  0  0  0  0  0
    3.2510   -3.9080   24.2950 S   0  0  0  0  0  0  0  0  0  0  0  0
    5.9770   -3.7030   23.6210 C   0  0  0  0  0  0  0  0  0  0  0  0
    7.1830   -3.9580   24.2030 C   0  0  0  0  0  0  0  0  0  0  0  0
    8.1570   -3.9550   23.2520 C   0  0  0  0  0  0  0  0  0  0  0  0
    8.6800   -2.7870   22.9050 N   0  0  0  0  0  0  0  0  0  0  0  0
    9.5600   -2.3240   23.8300 C   0  0  0  0  0  0  0  0  0  0  0  0
   10.7210   -1.6180   23.5030 C   0  0  0  0  0  0  0  0  0  0  0  0
   11.8390   -1.6570   22.6570 C   0  0  0  0  0  0  0  0  0  0  0  0
   12.9910   -0.7150   22.5180 C   0  0  0  0  0  0  0  0  0  0  0  0
   13.0070   -1.6760   21.7890 C   0  0  0  0  0  0  0  0  0  0  0  0
   11.9080   -1.5750   22.6660 C   0  0  0  0  0  0  0  0  0  0  0  0
   11.2320   -0.6250   23.8680 C   0  0  0  0  0  0  0  0  0  0  0  0
    7.5720   -1.8810   22.5900 C   0  0  0  0  0  0  0  0  0  0  0  0
    6.1920   -2.6490   22.5370 C   0  0  0  0  0  0  0  0  0  0  0  0
  1  2  2  0
  2  3  1  0
  2  4  1  0
  4  5  1  0
  5  6  1  0
  6  7  1  0
  7  8  1  0
  8  9  1  0
  9 10  2  0
 10 11  1  0
 11 12  2  0
 12 13  1  0
  9 14  1  0
 13 14  2  0
  7 15  1  0
  4 16  1  0
 15 16  1  0
M  END
