GIA-UNK-995df016-16
     RDKit          3D

 20 21  0  0  0  0  0  0  0  0999 V2000
    5.2770    0.6980   21.5010 O   0  0  0  0  0  0  0  0  0  0  0  0
    5.4750   -0.0460   20.5500 C   0  0  0  0  0  0  0  0  0  0  0  0
    4.8170    0.3030   18.9280 S   0  0  0  0  0  0  0  0  0  0  0  0
    4.4040    2.0400   19.1970 C   0  0  0  0  0  0  0  0  0  0  0  0
    3.6240    2.1610   20.3120 F   0  0  0  0  0  0  0  0  0  0  0  0
    6.3170   -1.3140   20.6610 C   0  0  0  0  0  0  0  0  0  0  0  0
    5.9710   -1.9220   21.8890 C   0  0  0  0  0  0  0  0  0  0  0  0
    6.9670   -2.6930   22.4280 C   0  0  0  0  0  0  0  0  0  0  0  0
    8.1030   -1.8270   22.7130 N   0  0  0  0  0  0  0  0  0  0  0  0
    8.8430   -2.4810   23.7420 C   0  0  0  0  0  0  0  0  0  0  0  0
   10.0160   -2.3600   24.0630 O   0  0  0  0  0  0  0  0  0  0  0  0
    7.9360   -3.3130   24.3120 C   0  0  0  0  0  0  0  0  0  0  0  0
    7.8360   -4.6040   23.8530 C   0  0  0  0  0  0  0  0  0  0  0  0
    6.9680   -5.5630   24.3090 C   0  0  0  0  0  0  0  0  0  0  0  0
    6.0660   -5.2360   25.3560 C   0  0  0  0  0  0  0  0  0  0  0  0
    5.2030   -6.1410   25.8320 F   0  0  0  0  0  0  0  0  0  0  0  0
    6.0710   -3.9470   25.8890 C   0  0  0  0  0  0  0  0  0  0  0  0
    7.0540   -2.9420   25.3330 C   0  0  0  0  0  0  0  0  0  0  0  0
    8.7740   -1.4560   21.5200 C   0  0  0  0  0  0  0  0  0  0  0  0
    7.7930   -0.8850   20.4920 C   0  0  0  0  0  0  0  0  0  0  0  0
  1  2  2  0
  2  3  1  0
  3  4  1  0
  4  5  1  0
  2  6  1  0
  6  7  1  0
  7  8  1  0
  8  9  1  0
  9 10  1  0
 10 11  2  0
 10 12  1  0
 12 13  2  0
 13 14  1  0
 14 15  2  0
 15 16  1  0
 15 17  1  0
 12 18  1  0
 17 18  2  0
  9 19  1  0
  6 20  1  0
 19 20  1  0
M  END
