GIA-UNK-eaadd1d4-2
     RDKit          3D

 23 25  0  0  0  0  0  0  0  0999 V2000
    5.9050    0.5320   22.0140 O   0  0  0  0  0  0  0  0  0  0  0  0
    7.0670    0.1600   21.2480 S   0  0  0  0  0  0  0  0  0  0  0  0
    7.9460    1.1760   20.7020 O   0  0  0  0  0  0  0  0  0  0  0  0
    6.6260   -1.0350   19.9740 C   0  0  0  0  0  0  0  0  0  0  0  0
    5.9290   -2.2780   20.5260 C   0  0  0  0  0  0  0  0  0  0  0  0
    6.6260   -2.8820   21.6640 C   0  0  0  0  0  0  0  0  0  0  0  0
    6.6460   -4.2480   21.8510 N   0  0  0  0  0  0  0  0  0  0  0  0
    5.5020   -4.9570   21.7470 C   0  0  0  0  0  0  0  0  0  0  0  0
    4.9010   -5.2610   22.9840 C   0  0  0  0  0  0  0  0  0  0  0  0
    5.4600   -4.8680   24.1730 N   0  0  0  0  0  0  0  0  0  0  0  0
    4.7180   -5.0770   25.6970 S   0  0  0  0  0  0  0  0  0  0  0  0
    3.8320   -6.2080   25.6290 O   0  0  0  0  0  0  0  0  0  0  0  0
    5.7610   -5.0420   26.7050 O   0  0  0  0  0  0  0  0  0  0  0  0
    3.7520   -3.5870   25.8560 C   0  0  0  0  0  0  0  0  0  0  0  0
    4.8320   -2.9580   26.0670 C   0  0  0  0  0  0  0  0  0  0  0  0
    3.5750   -1.9620   26.1110 C   0  0  0  0  0  0  0  0  0  0  0  0
    1.9220   -2.1590   25.9190 C   0  0  0  0  0  0  0  0  0  0  0  0
    2.7200   -1.0780   26.1780 C   0  0  0  0  0  0  0  0  0  0  0  0
    3.6160   -2.1700   26.0810 C   0  0  0  0  0  0  0  0  0  0  0  0
    6.8180   -4.7800   24.2380 C   0  0  0  0  0  0  0  0  0  0  0  0
    7.5360   -4.6840   22.8990 C   0  0  0  0  0  0  0  0  0  0  0  0
    7.8880   -2.3310   21.5090 C   0  0  0  0  0  0  0  0  0  0  0  0
    7.9840   -0.9820   22.2050 C   0  0  0  0  0  0  0  0  0  0  0  0
  1  2  2  0
  2  3  2  0
  2  4  1  0
  4  5  1  0
  5  6  1  0
  6  7  1  0
  7  8  1  0
  8  9  1  0
  9 10  1  0
 10 11  1  0
 11 12  2  0
 11 13  2  0
 11 14  1  0
 14 15  2  0
 15 16  1  0
 16 17  2  0
 17 18  1  0
 14 19  1  0
 18 19  2  0
 10 20  1  0
  7 21  1  0
 20 21  1  0
  6 22  1  0
  2 23  1  0
 22 23  1  0
M  END
