GIA-UNK-995df016-10
     RDKit          3D

 19 20  0  0  0  0  0  0  0  0999 V2000
    4.7400    0.9160   21.0050 O   0  0  0  0  0  0  0  0  0  0  0  0
    5.4380    0.0450   20.5020 C   0  0  0  0  0  0  0  0  0  0  0  0
    5.3960   -0.2210   18.7620 S   0  0  0  0  0  0  0  0  0  0  0  0
    4.7910    1.4340   18.3930 C   0  0  0  0  0  0  0  0  0  0  0  0
    5.1840    2.2810   19.3830 F   0  0  0  0  0  0  0  0  0  0  0  0
    6.3750   -0.8090   21.3380 C   0  0  0  0  0  0  0  0  0  0  0  0
    5.9390   -2.1260   21.5270 C   0  0  0  0  0  0  0  0  0  0  0  0
    6.7730   -2.8710   22.3360 C   0  0  0  0  0  0  0  0  0  0  0  0
    8.1090   -2.2970   22.5920 N   0  0  0  0  0  0  0  0  0  0  0  0
    8.8520   -3.0320   23.3840 C   0  0  0  0  0  0  0  0  0  0  0  0
   10.2880   -2.9620   23.5610 O   0  0  0  0  0  0  0  0  0  0  0  0
    7.8950   -3.9400   24.0560 C   0  0  0  0  0  0  0  0  0  0  0  0
    7.8390   -5.2820   23.8850 C   0  0  0  0  0  0  0  0  0  0  0  0
    6.9470   -6.1040   24.5520 C   0  0  0  0  0  0  0  0  0  0  0  0
    5.9270   -5.7750   25.5020 C   0  0  0  0  0  0  0  0  0  0  0  0
    6.0770   -4.3520   25.5610 C   0  0  0  0  0  0  0  0  0  0  0  0
    6.9470   -3.4340   24.9350 C   0  0  0  0  0  0  0  0  0  0  0  0
    8.6900   -1.5200   21.6180 C   0  0  0  0  0  0  0  0  0  0  0  0
    7.7690   -0.7250   20.7050 C   0  0  0  0  0  0  0  0  0  0  0  0
  1  2  2  0
  2  3  1  0
  3  4  1  0
  4  5  1  0
  2  6  1  0
  6  7  1  0
  7  8  1  0
  8  9  1  0
  9 10  1  0
 10 11  2  0
 10 12  1  0
 12 13  2  0
 13 14  1  0
 14 15  2  0
 15 16  1  0
 12 17  1  0
 16 17  2  0
  9 18  1  0
  6 19  1  0
 18 19  1  0
M  END
