GIA-UNK-595fac82-1
     RDKit          3D

 19 20  0  0  0  0  0  0  0  0999 V2000
    3.7140   -6.7070   23.3580 C   0  0  0  0  0  0  0  0  0  0  0  0
    5.0080   -6.4440   23.9120 N   0  0  0  0  0  0  0  0  0  0  0  0
    6.1490   -6.4940   23.1680 C   0  0  0  0  0  0  0  0  0  0  0  0
    6.5050   -7.4040   22.4540 O   0  0  0  0  0  0  0  0  0  0  0  0
    6.8510   -5.3650   23.3600 O   0  0  0  0  0  0  0  0  0  0  0  0
    7.1050   -4.6470   22.1470 C   0  0  0  0  0  0  0  0  0  0  0  0
    5.7600   -4.1820   21.6000 C   0  0  0  0  0  0  0  0  0  0  0  0
    5.5520   -2.8380   22.2210 C   0  0  0  0  0  0  0  0  0  0  0  0
    6.0550   -2.9040   23.6620 N   0  0  0  0  0  0  0  0  0  0  0  0
    5.2040   -2.7690   24.8240 C   0  0  0  0  0  0  0  0  0  0  0  0
    4.2440   -2.0220   24.7600 O   0  0  0  0  0  0  0  0  0  0  0  0
    5.4180   -3.4570   26.0640 N   0  0  0  0  0  0  0  0  0  0  0  0
    6.4970   -3.0960   26.9390 C   0  0  0  0  0  0  0  0  0  0  0  0
    6.6990   -4.1660   28.0470 C   0  0  0  0  0  0  0  0  0  0  0  0
    5.5180   -4.3050   28.9400 C   0  0  0  0  0  0  0  0  0  0  0  0
    4.3130   -4.5560   28.0830 C   0  0  0  0  0  0  0  0  0  0  0  0
    4.2220   -3.5600   26.9100 C   0  0  0  0  0  0  0  0  0  0  0  0
    7.4870   -2.7400   23.7160 C   0  0  0  0  0  0  0  0  0  0  0  0
    8.0480   -3.4720   22.5220 C   0  0  0  0  0  0  0  0  0  0  0  0
  1  2  1  0
  2  3  1  0
  3  4  2  0
  3  5  1  0
  5  6  1  0
  6  7  1  0
  7  8  1  0
  8  9  1  0
  9 10  1  0
 10 11  2  0
 10 12  1  0
 12 13  1  0
 13 14  1  0
 14 15  1  0
 15 16  1  0
 12 17  1  0
 16 17  1  0
  9 18  1  0
  6 19  1  0
 18 19  1  0
M  END
