GIA-UNK-995df016-15
     RDKit          3D

 20 21  0  0  0  0  0  0  0  0999 V2000
    4.7610    0.6130   20.8040 O   0  0  0  0  0  0  0  0  0  0  0  0
    5.4740   -0.3010   20.4080 C   0  0  0  0  0  0  0  0  0  0  0  0
    5.5280   -0.7020   18.7000 S   0  0  0  0  0  0  0  0  0  0  0  0
    5.3030    0.9960   18.1590 C   0  0  0  0  0  0  0  0  0  0  0  0
    5.6780    1.8310   19.1800 F   0  0  0  0  0  0  0  0  0  0  0  0
    6.3500   -1.1020   21.3580 C   0  0  0  0  0  0  0  0  0  0  0  0
    5.8630   -2.3990   21.4390 C   0  0  0  0  0  0  0  0  0  0  0  0
    6.8560   -3.2540   22.1470 C   0  0  0  0  0  0  0  0  0  0  0  0
    8.2000   -2.8420   22.2860 N   0  0  0  0  0  0  0  0  0  0  0  0
    8.6570   -3.4180   23.5050 C   0  0  0  0  0  0  0  0  0  0  0  0
    9.9040   -3.2730   24.1670 O   0  0  0  0  0  0  0  0  0  0  0  0
    7.6740   -4.2650   24.0450 C   0  0  0  0  0  0  0  0  0  0  0  0
    7.7040   -5.7320   23.7260 C   0  0  0  0  0  0  0  0  0  0  0  0
    6.7720   -5.3240   24.4790 C   0  0  0  0  0  0  0  0  0  0  0  0
    7.2470   -3.8530   24.4320 C   0  0  0  0  0  0  0  0  0  0  0  0
    6.9260   -2.6270   24.9070 C   0  0  0  0  0  0  0  0  0  0  0  0
    7.0240   -1.3090   25.1010 F   0  0  0  0  0  0  0  0  0  0  0  0
    6.4440   -3.7330   25.0300 C   0  0  0  0  0  0  0  0  0  0  0  0
    8.6000   -1.5010   21.9490 C   0  0  0  0  0  0  0  0  0  0  0  0
    7.7070   -0.9150   21.0690 C   0  0  0  0  0  0  0  0  0  0  0  0
  1  2  2  0
  2  3  1  0
  3  4  1  0
  4  5  1  0
  2  6  1  0
  6  7  1  0
  7  8  1  0
  8  9  1  0
  9 10  1  0
 10 11  2  0
 10 12  1  0
 12 13  2  0
 13 14  1  0
 14 15  2  0
 15 16  1  0
 16 17  1  0
 12 18  1  0
 16 18  2  0
  9 19  1  0
  6 20  1  0
 19 20  1  0
M  END
