GIA-UNK-d2defdc3-2
     RDKit          3D

 24 26  0  0  0  0  0  0  0  0999 V2000
    2.7650    1.9370   24.3490 O   0  0  0  0  0  0  0  0  0  0  0  0
    2.6130    2.5480   23.3010 C   0  0  0  0  0  0  0  0  0  0  0  0
    1.5860    3.4000   23.0060 N   0  0  0  0  0  0  0  0  0  0  0  0
    0.5550    3.3450   23.9090 C   0  0  1  0  0  0  0  0  0  0  0  0
    0.5290    4.6480   24.4710 C   0  0  0  0  0  0  0  0  0  0  0  0
   -0.7950    4.9810   25.0880 C   0  0  0  0  0  0  0  0  0  0  0  0
   -2.0150    4.4520   24.3690 C   0  0  0  0  0  0  0  0  0  0  0  0
   -1.7980    3.1440   23.9250 C   0  0  0  0  0  0  0  0  0  0  0  0
   -0.6080    2.9160   23.2410 C   0  0  1  0  0  0  0  0  0  0  0  0
   -0.6010    3.3940   21.9470 N   0  0  0  0  0  0  0  0  0  0  0  0
   -0.2890    2.5370   20.7930 C   0  0  0  0  0  0  0  0  0  0  0  0
   -0.3660    1.1540   20.7250 O   0  0  0  0  0  0  0  0  0  0  0  0
    0.0780    3.3440   19.7240 C   0  0  0  0  0  0  0  0  0  0  0  0
    1.4440    3.2510   19.0240 C   0  0  0  0  0  0  0  0  0  0  0  0
    1.7430    4.0880   17.9760 C   0  0  0  0  0  0  0  0  0  0  0  0
    0.8700    5.0220   17.5070 N   0  0  0  0  0  0  0  0  0  0  0  0
   -0.3330    5.0910   18.1360 C   0  0  0  0  0  0  0  0  0  0  0  0
   -0.7890    4.3160   19.2140 C   0  0  0  0  0  0  0  0  0  0  0  0
    3.6200    2.3710   22.2040 C   0  0  0  0  0  0  0  0  0  0  0  0
    3.4910    3.0110   20.9520 C   0  0  0  0  0  0  0  0  0  0  0  0
    4.4620    2.7940   19.9780 C   0  0  0  0  0  0  0  0  0  0  0  0
    5.5470    1.9720   20.2070 C   0  0  0  0  0  0  0  0  0  0  0  0
    5.6920    1.3290   21.4460 C   0  0  0  0  0  0  0  0  0  0  0  0
    4.7360    1.5230   22.4470 C   0  0  0  0  0  0  0  0  0  0  0  0
  1  2  2  0
  2  3  1  0
  4  3  1  6
  4  5  1  0
  5  6  1  0
  6  7  1  0
  7  8  1  0
  4  9  1  0
  8  9  1  0
  9 10  1  6
 10 11  1  0
 11 12  2  0
 11 13  1  0
 13 14  2  0
 14 15  1  0
 15 16  2  0
 16 17  1  0
 13 18  1  0
 17 18  2  0
  2 19  1  0
 19 20  2  0
 20 21  1  0
 21 22  2  0
 22 23  1  0
 19 24  1  0
 23 24  2  0
M  END
