GIA-UNK-995df016-8
     RDKit          3D

 17 17  0  0  0  0  0  0  0  0999 V2000
    6.1940   -1.6850   18.1220 C   0  0  0  0  0  0  0  0  0  0  0  0
    6.0820   -1.3630   19.5220 C   0  0  0  0  0  0  0  0  0  0  0  0
    7.3300   -0.7450   20.0750 C   0  0  0  0  0  0  0  0  0  0  0  0
    4.8970   -0.4250   19.8160 C   0  0  0  0  0  0  0  0  0  0  0  0
    5.8930   -2.6730   20.2820 C   0  0  0  0  0  0  0  0  0  0  0  0
    5.4190   -3.7250   19.7870 O   0  0  0  0  0  0  0  0  0  0  0  0
    6.3690   -2.5810   21.6640 N   0  0  0  0  0  0  0  0  0  0  0  0
    6.6000   -3.8090   22.3930 C   0  0  0  0  0  0  0  0  0  0  0  0
    7.6170   -3.7340   23.5560 C   0  0  0  0  0  0  0  0  0  0  0  0
    8.7010   -2.6660   23.5080 C   0  0  0  0  0  0  0  0  0  0  0  0
   10.0210   -3.0580   23.7930 C   0  0  0  0  0  0  0  0  0  0  0  0
   11.3930   -2.7240   24.1250 O   0  0  0  0  0  0  0  0  0  0  0  0
    9.9810   -1.3550   23.8480 S   0  0  0  0  0  0  0  0  0  0  0  0
   11.6780   -1.0660   23.2960 C   0  0  0  0  0  0  0  0  0  0  0  0
   11.8150    0.1940   22.8710 F   0  0  0  0  0  0  0  0  0  0  0  0
    8.6510   -2.0080   22.1240 C   0  0  0  0  0  0  0  0  0  0  0  0
    7.2760   -1.4750   21.9530 C   0  0  0  0  0  0  0  0  0  0  0  0
  1  2  1  0
  2  3  1  0
  2  4  1  0
  2  5  1  0
  5  6  2  0
  5  7  1  0
  7  8  1  0
  8  9  1  0
  9 10  1  0
 10 11  1  0
 11 12  2  0
 11 13  1  0
 13 14  1  0
 14 15  1  0
 10 16  1  0
  7 17  1  0
 16 17  1  0
M  END
