GIA-UNK-5ec6c2b8-5
     RDKit          3D

 18 19  0  0  0  0  0  0  0  0999 V2000
    4.5180   -3.4090   25.5900 O   0  0  0  0  0  0  0  0  0  0  0  0
    5.5980   -3.0090   25.1840 C   0  0  0  0  0  0  0  0  0  0  0  0
    6.6140   -1.8720   26.1520 S   0  0  0  0  0  0  0  0  0  0  0  0
    6.1610   -3.3960   23.8690 C   0  0  0  0  0  0  0  0  0  0  0  0
    7.3930   -3.0470   23.5000 C   0  0  0  0  0  0  0  0  0  0  0  0
    7.8600   -3.3450   22.1090 C   0  0  0  0  0  0  0  0  0  0  0  0
    6.9410   -4.1800   21.5380 N   0  0  0  0  0  0  0  0  0  0  0  0
    6.0830   -3.4130   20.7720 C   0  0  0  0  0  0  0  0  0  0  0  0
    5.4380   -3.9890   19.6140 O   0  0  0  0  0  0  0  0  0  0  0  0
    5.8030   -1.9540   21.1940 C   0  0  0  0  0  0  0  0  0  0  0  0
    5.7390   -0.8610   20.0910 C   0  0  0  0  0  0  0  0  0  0  0  0
    4.4260   -0.1060   19.7990 C   0  0  0  0  0  0  0  0  0  0  0  0
    4.4040    0.8680   18.8130 C   0  0  0  0  0  0  0  0  0  0  0  0
    5.5970    1.2730   17.9780 C   0  0  0  0  0  0  0  0  0  0  0  0
    6.8560    0.5290   18.3070 C   0  0  0  0  0  0  0  0  0  0  0  0
    6.9830   -0.4770   19.2730 C   0  0  0  0  0  0  0  0  0  0  0  0
    6.3980   -5.3000   22.3590 C   0  0  0  0  0  0  0  0  0  0  0  0
    5.9470   -4.8990   23.6300 C   0  0  0  0  0  0  0  0  0  0  0  0
  1  2  2  0
  2  3  1  0
  2  4  1  0
  4  5  1  0
  5  6  1  0
  6  7  1  0
  7  8  1  0
  8  9  2  0
  8 10  1  0
 10 11  1  0
 11 12  2  0
 12 13  1  0
 13 14  2  0
 14 15  1  0
 11 16  1  0
 15 16  2  0
  7 17  1  0
  4 18  1  0
 17 18  1  0
M  END
