GIA-UNK-3f36037a-1
     RDKit          3D

 18 19  0  0  0  0  0  0  0  0999 V2000
    7.8920   -1.4090   16.1050 O   0  0  0  0  0  0  0  0  0  0  0  0
    6.8920   -2.0670   16.3350 C   0  0  0  0  0  0  0  0  0  0  0  0
    6.4600   -2.0460   17.9800 C   0  0  0  0  0  0  0  0  0  0  0  0
    5.9970   -3.1240   19.1370 C   0  0  0  0  0  0  0  0  0  0  0  0
    5.0560   -3.8630   18.8700 O   0  0  0  0  0  0  0  0  0  0  0  0
    6.5390   -3.3310   20.4810 N   0  0  0  0  0  0  0  0  0  0  0  0
    7.4830   -2.4930   21.2210 C   0  0  0  0  0  0  0  0  0  0  0  0
    6.9700   -2.2890   22.5290 C   0  0  0  0  0  0  0  0  0  0  0  0
    6.7750   -3.5100   23.2710 O   0  0  0  0  0  0  0  0  0  0  0  0
    5.8790   -4.4140   22.6240 C   0  0  0  0  0  0  0  0  0  0  0  0
    6.2750   -4.6280   21.1560 C   0  0  0  0  0  0  0  0  0  0  0  0
    6.2470   -2.7350   15.0750 N   0  0  0  0  0  0  0  0  0  0  0  0
    5.8820   -2.3250   13.6820 C   0  0  0  0  0  0  0  0  0  0  0  0
    4.6320   -2.2790   12.8180 C   0  0  0  0  0  0  0  0  0  0  0  0
    3.8030   -3.2090   12.2100 C   0  0  0  0  0  0  0  0  0  0  0  0
    4.2320   -2.8900   11.0300 C   0  0  0  0  0  0  0  0  0  0  0  0
    5.5570   -2.7810   11.4510 C   0  0  0  0  0  0  0  0  0  0  0  0
    5.8780   -3.1590   12.8480 C   0  0  0  0  0  0  0  0  0  0  0  0
  1  2  2  0
  2  3  1  0
  3  4  1  0
  4  5  2  0
  4  6  1  0
  6  7  1  0
  7  8  1  0
  8  9  1  0
  9 10  1  0
  6 11  1  0
 10 11  1  0
  2 12  1  0
 12 13  1  0
 13 14  1  0
 14 15  1  0
 15 16  1  0
 16 17  1  0
 13 18  1  0
 17 18  1  0
M  END
