GIA-UNK-595fac82-5
     RDKit          3D

 18 19  0  0  0  0  0  0  0  0999 V2000
    4.6370   -0.5610   31.9420 C   0  0  0  0  0  0  0  0  0  0  0  0
    4.3230   -1.0280   30.5940 N   0  0  0  0  0  0  0  0  0  0  0  0
    4.3790   -2.5040   30.5200 C   0  0  0  0  0  0  0  0  0  0  0  0
    3.4700   -3.2460   30.9060 O   0  0  0  0  0  0  0  0  0  0  0  0
    5.5740   -2.8830   29.9800 O   0  0  0  0  0  0  0  0  0  0  0  0
    5.6880   -4.1800   29.3380 C   0  0  0  0  0  0  0  0  0  0  0  0
    6.6990   -4.1380   28.4170 C   0  0  0  0  0  0  0  0  0  0  0  0
    6.4650   -3.1930   27.4000 C   0  0  0  0  0  0  0  0  0  0  0  0
    5.4680   -3.7460   26.7010 N   0  0  0  0  0  0  0  0  0  0  0  0
    5.3800   -3.2140   25.4370 C   0  0  0  0  0  0  0  0  0  0  0  0
    6.1380   -3.8210   24.2560 C   0  0  0  0  0  0  0  0  0  0  0  0
    7.2820   -3.1040   23.7590 C   0  0  0  0  0  0  0  0  0  0  0  0
    8.0810   -3.5180   22.7090 C   0  0  0  0  0  0  0  0  0  0  0  0
    7.3950   -4.7740   22.3630 C   0  0  0  0  0  0  0  0  0  0  0  0
    6.2950   -5.6880   22.6570 C   0  0  0  0  0  0  0  0  0  0  0  0
    5.7680   -4.9760   23.6950 C   0  0  0  0  0  0  0  0  0  0  0  0
    4.2560   -3.6450   27.4780 C   0  0  0  0  0  0  0  0  0  0  0  0
    4.3880   -4.4520   28.5990 C   0  0  0  0  0  0  0  0  0  0  0  0
  1  2  1  0
  2  3  1  0
  3  4  2  0
  3  5  1  0
  5  6  1  0
  6  7  1  0
  7  8  1  0
  8  9  1  0
  9 10  1  0
 10 11  1  0
 11 12  2  0
 12 13  1  0
 13 14  2  0
 14 15  1  0
 11 16  1  0
 15 16  2  0
  9 17  1  0
  6 18  1  0
 17 18  1  0
M  END
