GIA-UNK-995df016-4
     RDKit          3D

 17 18  0  0  0  0  0  0  0  0999 V2000
    5.6600    1.0650   22.2510 O   0  0  0  0  0  0  0  0  0  0  0  0
    5.6010   -0.1560   22.3820 C   0  0  0  0  0  0  0  0  0  0  0  0
    5.1260   -0.8560   23.9270 S   0  0  0  0  0  0  0  0  0  0  0  0
    5.7500    0.4570   24.9900 C   0  0  0  0  0  0  0  0  0  0  0  0
    4.7580    0.8680   25.8490 F   0  0  0  0  0  0  0  0  0  0  0  0
    5.9300   -1.0970   21.2240 C   0  0  0  0  0  0  0  0  0  0  0  0
    5.6810   -2.4200   21.5700 C   0  0  0  0  0  0  0  0  0  0  0  0
    6.8480   -2.9330   22.3300 C   0  0  0  0  0  0  0  0  0  0  0  0
    8.1300   -2.4810   21.9940 N   0  0  0  0  0  0  0  0  0  0  0  0
    9.0580   -2.9450   22.9650 C   0  0  0  0  0  0  0  0  0  0  0  0
   10.4610   -2.6910   23.0610 O   0  0  0  0  0  0  0  0  0  0  0  0
    8.5470   -3.7250   23.9610 C   0  0  0  0  0  0  0  0  0  0  0  0
    7.8840   -5.0680   23.6780 C   0  0  0  0  0  0  0  0  0  0  0  0
    6.7830   -4.5030   24.3930 C   0  0  0  0  0  0  0  0  0  0  0  0
    7.3650   -3.2350   24.7010 C   0  0  0  0  0  0  0  0  0  0  0  0
    8.2550   -1.0930   21.6160 C   0  0  0  0  0  0  0  0  0  0  0  0
    7.2150   -0.7730   20.7520 C   0  0  0  0  0  0  0  0  0  0  0  0
  1  2  2  0
  2  3  1  0
  3  4  1  0
  4  5  1  0
  2  6  1  0
  6  7  1  0
  7  8  1  0
  8  9  1  0
  9 10  1  0
 10 11  2  0
 10 12  1  0
 12 13  1  0
 13 14  1  0
 12 15  1  0
 14 15  1  0
  9 16  1  0
  6 17  1  0
 16 17  1  0
M  END
