GIA-UNK-3f36037a-2
     RDKit          3D

 18 19  0  0  0  0  0  0  0  0999 V2000
    5.4500   -0.2370   20.7360 O   0  0  0  0  0  0  0  0  0  0  0  0
    6.2740   -1.1040   20.4860 C   0  0  0  0  0  0  0  0  0  0  0  0
    5.8820   -2.3720   19.6700 C   0  0  0  0  0  0  0  0  0  0  0  0
    5.9130   -3.7810   20.3410 C   0  0  0  0  0  0  0  0  0  0  0  0
    5.3380   -4.8340   19.7150 O   0  0  0  0  0  0  0  0  0  0  0  0
    6.6370   -3.9460   21.6250 N   0  0  0  0  0  0  0  0  0  0  0  0
    7.2470   -3.0230   22.4240 C   0  0  0  0  0  0  0  0  0  0  0  0
    7.1390   -3.0750   23.8130 C   0  0  0  0  0  0  0  0  0  0  0  0
    6.7370   -4.0970   24.3690 O   0  0  0  0  0  0  0  0  0  0  0  0
    5.8150   -4.8610   23.5680 C   0  0  0  0  0  0  0  0  0  0  0  0
    6.3540   -5.1790   22.3210 C   0  0  0  0  0  0  0  0  0  0  0  0
    7.5850   -0.9580   20.9020 N   0  0  0  0  0  0  0  0  0  0  0  0
    8.2270    0.1520   21.3900 C   0  0  0  0  0  0  0  0  0  0  0  0
    7.5570    1.4840   21.1040 C   0  0  0  0  0  0  0  0  0  0  0  0
    8.2420    2.5850   21.6190 C   0  0  0  0  0  0  0  0  0  0  0  0
    9.4310    2.4410   22.3280 C   0  0  0  0  0  0  0  0  0  0  0  0
   10.0360    1.2110   22.5820 C   0  0  0  0  0  0  0  0  0  0  0  0
    9.4310    0.0410   22.1090 C   0  0  0  0  0  0  0  0  0  0  0  0
  1  2  2  0
  2  3  1  0
  3  4  1  0
  4  5  2  0
  4  6  1  0
  6  7  1  0
  7  8  1  0
  8  9  1  0
  9 10  1  0
  6 11  1  0
 10 11  1  0
  2 12  1  0
 12 13  1  0
 13 14  2  0
 14 15  1  0
 15 16  2  0
 16 17  1  0
 13 18  1  0
 17 18  2  0
M  END
