GIA-UNK-995df016-17
     RDKit          3D

 18 19  0  0  0  0  0  0  0  0999 V2000
    5.5970   -3.9460   19.7050 O   0  0  0  0  0  0  0  0  0  0  0  0
    5.8680   -2.7900   19.9390 C   0  0  0  0  0  0  0  0  0  0  0  0
    5.8880   -1.6400   18.6180 S   0  0  0  0  0  0  0  0  0  0  0  0
    5.1410   -0.2200   19.4420 C   0  0  0  0  0  0  0  0  0  0  0  0
    6.1020    0.7040   19.7190 F   0  0  0  0  0  0  0  0  0  0  0  0
    6.2420   -2.2820   21.3210 C   0  0  0  0  0  0  0  0  0  0  0  0
    6.2540   -3.5530   22.0920 C   0  0  0  0  0  0  0  0  0  0  0  0
    7.6200   -3.8490   22.5780 C   0  0  0  0  0  0  0  0  0  0  0  0
    8.2520   -2.7960   23.0480 N   0  0  0  0  0  0  0  0  0  0  0  0
    7.7010   -2.4570   24.2110 C   0  0  0  0  0  0  0  0  0  0  0  0
    7.6690   -1.2430   24.7370 O   0  0  0  0  0  0  0  0  0  0  0  0
    7.0640   -3.4150   24.9970 C   0  0  0  0  0  0  0  0  0  0  0  0
    6.6970   -4.6830   24.5000 C   0  0  0  0  0  0  0  0  0  0  0  0
    6.1260   -5.3490   25.5610 C   0  0  0  0  0  0  0  0  0  0  0  0
    6.1630   -4.4180   26.7740 C   0  0  0  0  0  0  0  0  0  0  0  0
    6.7300   -3.2270   26.3850 N   0  0  0  0  0  0  0  0  0  0  0  0
    8.3940   -1.8570   22.0520 C   0  0  0  0  0  0  0  0  0  0  0  0
    7.3640   -1.4520   21.1470 C   0  0  0  0  0  0  0  0  0  0  0  0
  1  2  2  0
  2  3  1  0
  3  4  1  0
  4  5  1  0
  2  6  1  0
  6  7  1  0
  7  8  1  0
  8  9  1  0
  9 10  1  0
 10 11  2  0
 10 12  1  0
 12 13  2  0
 13 14  1  0
 14 15  2  0
 12 16  1  0
 15 16  1  0
  9 17  1  0
  6 18  1  0
 17 18  1  0
M  END
