GIA-UNK-995df016-2
     RDKit          3D

 18 18  0  0  0  0  0  0  0  0999 V2000
    4.4980   -0.0960   20.8830 C   0  0  0  0  0  0  0  0  0  0  0  0
    6.0060   -0.1710   20.5350 C   0  0  0  0  0  0  0  0  0  0  0  0
    6.4190   -1.3660   19.6520 C   0  0  0  0  0  0  0  0  0  0  0  0
    6.2460   -0.9610   18.3590 C   0  0  0  0  0  0  0  0  0  0  0  0
    5.3410    0.0640   18.0500 C   0  0  0  0  0  0  0  0  0  0  0  0
    5.9250   -2.5600   20.2920 C   0  0  0  0  0  0  0  0  0  0  0  0
    5.3780   -3.5390   19.7080 O   0  0  0  0  0  0  0  0  0  0  0  0
    6.1620   -2.5570   21.7280 N   0  0  0  0  0  0  0  0  0  0  0  0
    6.5020   -3.7970   22.3830 C   0  0  0  0  0  0  0  0  0  0  0  0
    7.7120   -3.8020   23.1000 C   0  0  0  0  0  0  0  0  0  0  0  0
    8.7270   -2.8400   22.5380 C   0  0  0  0  0  0  0  0  0  0  0  0
    9.9110   -2.7590   23.2680 C   0  0  0  0  0  0  0  0  0  0  0  0
   10.2390   -3.1790   24.3460 O   0  0  0  0  0  0  0  0  0  0  0  0
   10.8760   -1.8290   22.1180 S   0  0  0  0  0  0  0  0  0  0  0  0
   12.1810   -2.2470   23.2240 C   0  0  0  0  0  0  0  0  0  0  0  0
   12.6970   -1.1420   23.7820 F   0  0  0  0  0  0  0  0  0  0  0  0
    8.3220   -1.5680   22.2020 C   0  0  0  0  0  0  0  0  0  0  0  0
    6.9320   -1.4590   22.3820 C   0  0  0  0  0  0  0  0  0  0  0  0
  1  2  1  0
  2  3  1  0
  3  4  1  0
  4  5  1  0
  3  6  1  0
  6  7  2  0
  6  8  1  0
  8  9  1  0
  9 10  1  0
 10 11  1  0
 11 12  1  0
 12 13  2  0
 12 14  1  0
 14 15  1  0
 15 16  1  0
 11 17  1  0
  8 18  1  0
 17 18  1  0
M  END
