GIA-UNK-995df016-11
     RDKit          3D

 18 19  0  0  0  0  0  0  0  0999 V2000
    7.5810   -1.5300   19.5120 O   0  0  0  0  0  0  0  0  0  0  0  0
    6.5520   -1.8940   20.0260 C   0  0  0  0  0  0  0  0  0  0  0  0
    5.2700   -2.4440   19.0480 S   0  0  0  0  0  0  0  0  0  0  0  0
    5.1160   -0.7170   18.5170 C   0  0  0  0  0  0  0  0  0  0  0  0
    6.1200    0.0250   19.0620 F   0  0  0  0  0  0  0  0  0  0  0  0
    6.3360   -1.8030   21.4980 C   0  0  0  0  0  0  0  0  0  0  0  0
    6.2710   -3.0220   22.1600 C   0  0  0  0  0  0  0  0  0  0  0  0
    7.4790   -3.6790   22.2220 C   0  0  0  0  0  0  0  0  0  0  0  0
    8.6610   -2.8500   22.5260 N   0  0  0  0  0  0  0  0  0  0  0  0
    8.9710   -2.9640   23.7960 C   0  0  0  0  0  0  0  0  0  0  0  0
   10.1660   -2.4010   24.3810 O   0  0  0  0  0  0  0  0  0  0  0  0
    7.8720   -3.7730   24.4360 C   0  0  0  0  0  0  0  0  0  0  0  0
    7.4200   -5.0470   24.1220 C   0  0  0  0  0  0  0  0  0  0  0  0
    6.4040   -5.3600   24.9640 C   0  0  0  0  0  0  0  0  0  0  0  0
    6.2450   -4.2760   25.8050 C   0  0  0  0  0  0  0  0  0  0  0  0
    7.0430   -3.2960   25.5760 O   0  0  0  0  0  0  0  0  0  0  0  0
    8.7050   -1.5410   21.9260 C   0  0  0  0  0  0  0  0  0  0  0  0
    7.4070   -1.0550   22.0100 C   0  0  0  0  0  0  0  0  0  0  0  0
  1  2  2  0
  2  3  1  0
  3  4  1  0
  4  5  1  0
  2  6  1  0
  6  7  1  0
  7  8  1  0
  8  9  1  0
  9 10  1  0
 10 11  2  0
 10 12  1  0
 12 13  2  0
 13 14  1  0
 14 15  2  0
 12 16  1  0
 15 16  1  0
  9 17  1  0
  6 18  1  0
 17 18  1  0
M  END
