GIA-UNK-d2defdc3-5
     RDKit          3D

 23 25  0  0  0  0  0  0  0  0999 V2000
    2.6100    1.6830   24.2500 O   0  0  0  0  0  0  0  0  0  0  0  0
    2.6090    2.3570   23.2060 C   0  0  0  0  0  0  0  0  0  0  0  0
    2.0260    3.6960   23.0740 N   0  0  0  0  0  0  0  0  0  0  0  0
    0.5800    3.9160   23.3750 C   0  0  2  0  0  0  0  0  0  0  0  0
    0.4920    4.4140   24.6820 C   0  0  0  0  0  0  0  0  0  0  0  0
   -0.7320    5.0170   25.0430 C   0  0  0  0  0  0  0  0  0  0  0  0
   -1.7860    4.4970   24.3950 C   0  0  0  0  0  0  0  0  0  0  0  0
   -1.6640    3.1600   23.8070 C   0  0  0  0  0  0  0  0  0  0  0  0
   -0.4990    2.8530   23.0800 C   0  0  1  0  0  0  0  0  0  0  0  0
   -0.6350    2.7170   21.6810 C   0  0  0  0  0  0  0  0  0  0  0  0
    0.2100    3.1150   20.8820 O   0  0  0  0  0  0  0  0  0  0  0  0
   -1.8270    2.0990   21.2940 N   0  0  0  0  0  0  0  0  0  0  0  0
   -2.3350    0.9260   21.7780 C   0  0  0  0  0  0  0  0  0  0  0  0
   -2.8910    0.0080   20.8850 C   0  0  0  0  0  0  0  0  0  0  0  0
   -3.4510    0.6890   19.7620 O   0  0  0  0  0  0  0  0  0  0  0  0
   -3.7670    2.0680   20.0130 C   0  0  0  0  0  0  0  0  0  0  0  0
   -2.7400    2.8390   20.5760 C   0  0  0  0  0  0  0  0  0  0  0  0
    3.2500    1.8220   21.9520 C   0  0  0  0  0  0  0  0  0  0  0  0
    2.8800    2.4080   20.7160 C   0  0  0  0  0  0  0  0  0  0  0  0
    3.4560    1.9300   19.5260 C   0  0  0  0  0  0  0  0  0  0  0  0
    4.3770    0.8980   19.5190 C   0  0  0  0  0  0  0  0  0  0  0  0
    4.7490    0.3170   20.7060 C   0  0  0  0  0  0  0  0  0  0  0  0
    4.1860    0.7710   21.9810 C   0  0  0  0  0  0  0  0  0  0  0  0
  1  2  2  0
  2  3  1  0
  4  3  1  1
  4  5  1  0
  5  6  1  0
  6  7  1  0
  7  8  1  0
  4  9  1  0
  8  9  1  0
  9 10  1  6
 10 11  2  0
 10 12  1  0
 12 13  1  0
 13 14  1  0
 14 15  1  0
 15 16  1  0
 12 17  1  0
 16 17  1  0
  2 18  1  0
 18 19  2  0
 19 20  1  0
 20 21  2  0
 21 22  1  0
 18 23  1  0
 22 23  2  0
M  END
