GIA-UNK-995df016-6
     RDKit          3D

 14 14  0  0  0  0  0  0  0  0999 V2000
    6.0770   -1.9370   18.7780 C   0  0  0  0  0  0  0  0  0  0  0  0
    5.8970   -2.9410   19.9570 C   0  0  0  0  0  0  0  0  0  0  0  0
    5.3870   -4.0570   19.7840 O   0  0  0  0  0  0  0  0  0  0  0  0
    6.4020   -2.4940   21.1680 N   0  0  0  0  0  0  0  0  0  0  0  0
    6.3310   -3.3090   22.3880 C   0  0  0  0  0  0  0  0  0  0  0  0
    7.5870   -3.5870   22.9700 C   0  0  0  0  0  0  0  0  0  0  0  0
    8.6910   -2.7580   22.7240 C   0  0  0  0  0  0  0  0  0  0  0  0
    9.6580   -2.6110   23.7240 C   0  0  0  0  0  0  0  0  0  0  0  0
   10.9550   -2.2990   24.2370 O   0  0  0  0  0  0  0  0  0  0  0  0
   10.5420   -2.1610   22.3160 S   0  0  0  0  0  0  0  0  0  0  0  0
   12.0350   -1.9950   23.1400 C   0  0  0  0  0  0  0  0  0  0  0  0
   12.9550   -1.4410   22.2940 F   0  0  0  0  0  0  0  0  0  0  0  0
    8.1450   -1.3760   22.4040 C   0  0  0  0  0  0  0  0  0  0  0  0
    7.3420   -1.4340   21.1290 C   0  0  0  0  0  0  0  0  0  0  0  0
  1  2  1  0
  2  3  2  0
  2  4  1  0
  4  5  1  0
  5  6  1  0
  6  7  1  0
  7  8  1  0
  8  9  2  0
  8 10  1  0
 10 11  1  0
 11 12  1  0
  7 13  1  0
  4 14  1  0
 13 14  1  0
M  END
