GIA-UNK-3f36037a-6
     RDKit          3D

 19 20  0  0  0  0  0  0  0  0999 V2000
    7.7050   -1.2340   20.2660 O   0  0  0  0  0  0  0  0  0  0  0  0
    6.5870   -1.5610   20.6750 C   0  0  0  0  0  0  0  0  0  0  0  0
    5.8750   -2.4950   20.0120 C   0  0  0  0  0  0  0  0  0  0  0  0
    5.9390   -3.9110   20.4830 C   0  0  0  0  0  0  0  0  0  0  0  0
    5.4200   -4.7930   19.7940 O   0  0  0  0  0  0  0  0  0  0  0  0
    6.6150   -4.2160   21.6390 N   0  0  0  0  0  0  0  0  0  0  0  0
    7.4370   -3.3580   22.2790 C   0  0  0  0  0  0  0  0  0  0  0  0
    7.0610   -2.9810   23.5560 C   0  0  0  0  0  0  0  0  0  0  0  0
    6.6790   -4.1430   24.3150 O   0  0  0  0  0  0  0  0  0  0  0  0
    5.7130   -4.9550   23.6220 C   0  0  0  0  0  0  0  0  0  0  0  0
    6.2390   -5.4020   22.4050 C   0  0  0  0  0  0  0  0  0  0  0  0
    5.9770   -1.0160   21.7800 N   0  0  0  0  0  0  0  0  0  0  0  0
    5.8970    0.3530   21.9100 C   0  0  0  0  0  0  0  0  0  0  0  0
    5.4590    1.0110   20.6070 C   0  0  0  0  0  0  0  0  0  0  0  0
    4.4720    2.1360   20.7340 C   0  0  0  0  0  0  0  0  0  0  0  0
    4.0440    2.7700   19.5750 C   0  0  0  0  0  0  0  0  0  0  0  0
    4.5300    2.3540   18.3350 C   0  0  0  0  0  0  0  0  0  0  0  0
    5.4440    1.3070   18.2100 C   0  0  0  0  0  0  0  0  0  0  0  0
    5.9140    0.6330   19.3350 C   0  0  0  0  0  0  0  0  0  0  0  0
  1  2  2  0
  2  3  1  0
  3  4  1  0
  4  5  2  0
  4  6  1  0
  6  7  1  0
  7  8  1  0
  8  9  1  0
  9 10  1  0
  6 11  1  0
 10 11  1  0
  2 12  1  0
 12 13  1  0
 13 14  1  0
 14 15  2  0
 15 16  1  0
 16 17  2  0
 17 18  1  0
 14 19  1  0
 18 19  2  0
M  END
