GIA-UNK-995df016-12
     RDKit          3D

 18 19  0  0  0  0  0  0  0  0999 V2000
    6.6730   -1.9310   18.8650 O   0  0  0  0  0  0  0  0  0  0  0  0
    6.2850   -2.4280   19.9120 C   0  0  0  0  0  0  0  0  0  0  0  0
    5.4270   -3.9780   19.9160 S   0  0  0  0  0  0  0  0  0  0  0  0
    6.1120   -5.0530   21.1960 C   0  0  0  0  0  0  0  0  0  0  0  0
    5.1930   -5.1870   22.1990 F   0  0  0  0  0  0  0  0  0  0  0  0
    6.4830   -1.7260   21.2330 C   0  0  0  0  0  0  0  0  0  0  0  0
    6.4380   -2.7040   22.2340 C   0  0  0  0  0  0  0  0  0  0  0  0
    7.5800   -3.4750   22.1950 C   0  0  0  0  0  0  0  0  0  0  0  0
    8.6710   -2.5910   22.5350 N   0  0  0  0  0  0  0  0  0  0  0  0
    8.5940   -2.4300   23.9490 C   0  0  0  0  0  0  0  0  0  0  0  0
    9.2440   -1.6360   24.5890 O   0  0  0  0  0  0  0  0  0  0  0  0
    7.6910   -3.3060   24.5220 C   0  0  0  0  0  0  0  0  0  0  0  0
    7.3910   -4.5800   24.0750 C   0  0  0  0  0  0  0  0  0  0  0  0
    6.4940   -5.2970   24.8160 C   0  0  0  0  0  0  0  0  0  0  0  0
    6.0690   -4.5500   25.9250 C   0  0  0  0  0  0  0  0  0  0  0  0
    6.7550   -2.9500   25.9540 S   0  0  0  0  0  0  0  0  0  0  0  0
    8.8110   -1.5270   21.7710 C   0  0  0  0  0  0  0  0  0  0  0  0
    7.6290   -0.9120   21.0750 C   0  0  0  0  0  0  0  0  0  0  0  0
  1  2  2  0
  2  3  1  0
  3  4  1  0
  4  5  1  0
  2  6  1  0
  6  7  1  0
  7  8  1  0
  8  9  1  0
  9 10  1  0
 10 11  2  0
 10 12  1  0
 12 13  2  0
 13 14  1  0
 14 15  2  0
 12 16  1  0
 15 16  1  0
  9 17  1  0
  6 18  1  0
 17 18  1  0
M  END
