GUZ-UNI-5a173832-2
     RDKit          3D

 19 21  0  0  0  0  0  0  0  0999 V2000
    8.1150    0.0260   23.2770 O   0  0  0  0  0  0  0  0  0  0  0  0
    9.1860    0.5360   22.9720 C   0  0  0  0  0  0  0  0  0  0  0  0
   10.3760   -0.2870   22.5620 C   0  0  0  0  0  0  0  0  0  0  0  0
   10.2200   -1.3730   21.6330 C   0  0  0  0  0  0  0  0  0  0  0  0
   11.4640   -1.8740   21.4720 C   0  0  0  0  0  0  0  0  0  0  0  0
   11.9460   -2.6680   22.3370 C   0  0  0  0  0  0  0  0  0  0  0  0
   13.2090   -2.9140   22.0180 C   0  0  0  0  0  0  0  0  0  0  0  0
   13.4530   -2.2680   20.8660 C   0  0  0  0  0  0  0  0  0  0  0  0
   12.4620   -1.6950   20.5570 O   0  0  0  0  0  0  0  0  0  0  0  0
   11.7850    0.0130   23.1080 C   0  0  0  0  0  0  0  0  0  0  0  0
   12.2280    1.4860   23.0060 C   0  0  0  0  0  0  0  0  0  0  0  0
   10.9180    2.1260   22.9400 C   0  0  0  0  0  0  0  0  0  0  0  0
    9.5080    1.9800   22.9520 C   0  0  0  0  0  0  0  0  0  0  0  0
    8.5520    3.0130   22.9300 C   0  0  0  0  0  0  0  0  0  0  0  0
    8.7950    4.5280   22.8840 C   0  0  0  0  0  0  0  0  0  0  0  0
    7.8060    5.3940   22.1220 C   0  0  0  0  0  0  0  0  0  0  0  0
    8.3150    6.7900   22.2550 C   0  0  0  0  0  0  0  0  0  0  0  0
    9.5720    6.6530   23.0910 C   0  0  0  0  0  0  0  0  0  0  0  0
    9.8060    5.3410   23.4300 O   0  0  0  0  0  0  0  0  0  0  0  0
  1  2  2  0
  2  3  1  0
  3  4  2  3
  4  5  1  0
  5  6  2  0
  6  7  1  0
  7  8  2  0
  5  9  1  0
  8  9  1  0
  3 10  1  0
 10 11  1  0
 11 12  1  0
  2 13  1  0
 12 13  1  0
 13 14  2  3
 14 15  1  0
 15 16  2  0
 16 17  1  0
 17 18  2  0
 15 19  1  0
 18 19  1  0
M  END
