GUZ-UNI-5a173832-1
     RDKit          3D

 35 38  0  0  0  0  0  0  0  0999 V2000
   12.2160   12.1700   24.9950 C   0  0  0  0  0  0  0  0  0  0  0  0
   11.5130   11.4100   26.0450 C   0  0  0  0  0  0  0  0  0  0  0  0
   10.1210   11.5080   26.1520 C   0  0  0  0  0  0  0  0  0  0  0  0
    9.3140   11.1670   25.1830 N   0  0  0  0  0  0  0  0  0  0  0  0
    8.8770    9.8700   25.1350 C   0  0  0  0  0  0  0  0  0  0  0  0
    9.4220    8.6930   25.6730 C   0  0  0  0  0  0  0  0  0  0  0  0
    9.1220    8.4090   26.8320 O   0  0  0  0  0  0  0  0  0  0  0  0
   10.3090    7.8620   24.8440 N   0  0  0  0  0  0  0  0  0  0  0  0
   11.3200    7.1480   25.5180 C   0  0  0  0  0  0  0  0  0  0  0  0
   11.7850    5.9130   24.7510 C   0  0  0  0  0  0  0  0  0  0  0  0
   11.9160    6.2670   23.4400 N   0  0  0  0  0  0  0  0  0  0  0  0
   13.0180    5.6440   22.8930 C   0  0  0  0  0  0  0  0  0  0  0  0
   12.4960    4.5300   22.0870 C   0  0  0  0  0  0  0  0  0  0  0  0
   11.9140    3.5220   22.7490 C   0  0  0  0  0  0  0  0  0  0  0  0
   11.2310    2.2970   22.8180 C   0  0  0  0  0  0  0  0  0  0  0  0
   11.2820    0.9450   22.9150 C   0  0  0  0  0  0  0  0  0  0  0  0
   12.5720    0.2160   23.0010 C   0  0  0  0  0  0  0  0  0  0  0  0
   12.4400   -1.0960   23.0990 C   0  0  0  0  0  0  0  0  0  0  0  0
   11.6170   -0.0350   23.0020 C   0  0  0  0  0  0  0  0  0  0  0  0
   12.2220    1.3570   22.9100 C   0  0  0  0  0  0  0  0  0  0  0  0
   10.6790    6.3610   22.8740 C   0  0  0  0  0  0  0  0  0  0  0  0
    9.6820    7.1850   23.6870 C   0  0  0  0  0  0  0  0  0  0  0  0
    7.6660    9.7680   24.4210 C   0  0  0  0  0  0  0  0  0  0  0  0
    7.0800   11.3020   23.8140 S   0  0  0  0  0  0  0  0  0  0  0  0
    8.4160   12.1180   24.7180 C   0  0  0  0  0  0  0  0  0  0  0  0
    8.6590   13.4120   24.9880 N   0  0  0  0  0  0  0  0  0  0  0  0
    7.7450   14.2780   24.5010 N   0  0  0  0  0  0  0  0  0  0  0  0
    7.6510   15.3380   25.2380 C   0  0  0  0  0  0  0  0  0  0  0  0
    6.7810   16.3880   24.9620 C   0  0  0  0  0  0  0  0  0  0  0  0
    5.8360   16.9470   25.8220 C   0  0  0  0  0  0  0  0  0  0  0  0
    4.9720   18.0330   25.4510 C   0  0  0  0  0  0  0  0  0  0  0  0
    3.6100   17.9650   25.7340 C   0  0  0  0  0  0  0  0  0  0  0  0
    2.9580   19.0820   25.3100 C   0  0  0  0  0  0  0  0  0  0  0  0
    4.0430   19.9350   24.6970 C   0  0  0  0  0  0  0  0  0  0  0  0
    5.2410   19.2620   24.8030 O   0  0  0  0  0  0  0  0  0  0  0  0
  1  2  2  3
  2  3  1  0
  3  4  1  0
  4  5  1  0
  5  6  1  0
  6  7  2  0
  6  8  1  0
  8  9  1  0
  9 10  1  0
 10 11  1  0
 11 12  1  0
 12 13  1  0
 13 14  2  3
 14 15  1  0
 15 16  2  0
 16 17  1  0
 17 18  2  0
 18 19  1  0
 15 20  1  0
 19 20  2  0
 11 21  1  0
  8 22  1  0
 21 22  1  0
  5 23  2  0
 23 24  1  0
  4 25  1  0
 24 25  1  0
 25 26  2  3
 26 27  1  0
 27 28  2  3
 28 29  1  0
 29 30  2  3
 30 31  1  0
 31 32  2  0
 32 33  1  0
 33 34  2  0
 31 35  1  0
 34 35  1  0
M  END
