GUZ-UNI-167d4d0a-1
     RDKit          3D

 35 38  0  0  0  0  0  0  0  0999 V2000
   13.9930   12.9190   23.1550 C   0  0  0  0  0  0  0  0  0  0  0  0
   12.8990   13.3970   24.0740 C   0  0  0  0  0  0  0  0  0  0  0  0
   12.7870   13.2380   25.4660 C   0  0  0  0  0  0  0  0  0  0  0  0
   11.4640   13.0630   25.8280 N   0  0  0  0  0  0  0  0  0  0  0  0
   10.9440   11.8030   26.3040 C   0  0  0  0  0  0  0  0  0  0  0  0
   11.5820   10.5760   25.7270 C   0  0  0  0  0  0  0  0  0  0  0  0
   12.4270   10.6470   24.8440 O   0  0  0  0  0  0  0  0  0  0  0  0
   11.1420    9.2630   26.2620 N   0  0  0  0  0  0  0  0  0  0  0  0
   10.5350    8.4460   25.1980 C   0  0  0  0  0  0  0  0  0  0  0  0
   11.5460    7.8040   24.4540 C   0  0  0  0  0  0  0  0  0  0  0  0
   12.0530    6.8840   25.2780 N   0  0  0  0  0  0  0  0  0  0  0  0
   11.6440    5.6510   24.8250 C   0  0  0  0  0  0  0  0  0  0  0  0
   12.1220    4.8190   23.6210 C   0  0  0  0  0  0  0  0  0  0  0  0
   11.4450    3.6280   23.3340 C   0  0  0  0  0  0  0  0  0  0  0  0
   10.9240    2.4180   22.8640 C   0  0  0  0  0  0  0  0  0  0  0  0
   11.0120    1.0840   22.6480 C   0  0  0  0  0  0  0  0  0  0  0  0
   12.2800    0.3970   23.0530 C   0  0  0  0  0  0  0  0  0  0  0  0
   12.1670   -0.9030   22.8010 C   0  0  0  0  0  0  0  0  0  0  0  0
   11.3870    0.1780   22.6640 C   0  0  0  0  0  0  0  0  0  0  0  0
   11.8950    1.5210   23.0710 C   0  0  0  0  0  0  0  0  0  0  0  0
   11.8530    7.0450   26.7290 C   0  0  0  0  0  0  0  0  0  0  0  0
   11.9180    8.3800   27.1520 C   0  0  0  0  0  0  0  0  0  0  0  0
    9.9530   11.8760   27.2000 C   0  0  0  0  0  0  0  0  0  0  0  0
    9.5790   13.5530   27.5300 S   0  0  0  0  0  0  0  0  0  0  0  0
   10.6870   14.1360   26.2520 C   0  0  0  0  0  0  0  0  0  0  0  0
   10.7620   15.5000   25.7400 N   0  0  0  0  0  0  0  0  0  0  0  0
    9.9360   16.3970   26.2630 N   0  0  0  0  0  0  0  0  0  0  0  0
   10.0290   17.5510   25.5720 C   0  0  0  0  0  0  0  0  0  0  0  0
    9.3250   18.7350   25.8050 C   0  0  0  0  0  0  0  0  0  0  0  0
    9.6570   19.8740   25.0710 C   0  0  0  0  0  0  0  0  0  0  0  0
    9.0060   21.0910   25.2410 C   0  0  0  0  0  0  0  0  0  0  0  0
    8.3500   21.7370   24.2000 C   0  0  0  0  0  0  0  0  0  0  0  0
    7.7580   23.0020   24.6880 C   0  0  0  0  0  0  0  0  0  0  0  0
    8.1500   23.0090   26.1390 C   0  0  0  0  0  0  0  0  0  0  0  0
    8.8790   21.8720   26.4180 O   0  0  0  0  0  0  0  0  0  0  0  0
  1  2  2  3
  2  3  1  0
  3  4  1  0
  4  5  1  0
  5  6  1  0
  6  7  2  0
  6  8  1  0
  8  9  1  0
  9 10  1  0
 10 11  1  0
 11 12  1  0
 12 13  1  0
 13 14  2  3
 14 15  1  0
 15 16  2  0
 16 17  1  0
 17 18  2  0
 18 19  1  0
 15 20  1  0
 19 20  2  0
 11 21  1  0
  8 22  1  0
 21 22  1  0
  5 23  2  0
 23 24  1  0
  4 25  1  0
 24 25  1  0
 25 26  2  3
 26 27  1  0
 27 28  2  3
 28 29  1  0
 29 30  2  3
 30 31  1  0
 31 32  2  0
 32 33  1  0
 33 34  2  0
 31 35  1  0
 34 35  1  0
M  END
