GUZ-UNI-cc80d5b0-1
     RDKit          3D

 23 25  0  0  0  0  0  0  0  0999 V2000
    9.8290    1.0750   24.6320 O   0  0  0  0  0  0  0  0  0  0  0  0
   10.5890    0.4840   23.8680 C   0  0  0  0  0  0  0  0  0  0  0  0
   10.3320   -0.7800   23.5200 C   0  0  0  0  0  0  0  0  0  0  0  0
    9.0280   -1.3580   23.9070 C   0  0  0  0  0  0  0  0  0  0  0  0
    8.7390   -2.8110   23.4640 C   0  0  0  0  0  0  0  0  0  0  0  0
    7.4050   -3.1250   23.3070 C   0  0  0  0  0  0  0  0  0  0  0  0
    7.0430   -4.4050   22.8990 C   0  0  0  0  0  0  0  0  0  0  0  0
    5.9490   -4.6580   22.0250 C   0  0  0  0  0  0  0  0  0  0  0  0
    5.8240   -6.1290   21.7730 C   0  0  0  0  0  0  0  0  0  0  0  0
    6.9670   -6.5200   22.6190 C   0  0  0  0  0  0  0  0  0  0  0  0
    7.6270   -5.4800   23.2420 O   0  0  0  0  0  0  0  0  0  0  0  0
   11.3920   -1.5140   22.7360 C   0  0  0  0  0  0  0  0  0  0  0  0
   12.6840   -0.9970   22.9630 C   0  0  0  0  0  0  0  0  0  0  0  0
   12.8310    0.3920   22.8220 C   0  0  0  0  0  0  0  0  0  0  0  0
   11.7760    1.1640   23.3090 C   0  0  0  0  0  0  0  0  0  0  0  0
   11.6660    2.5780   23.3490 C   0  0  0  0  0  0  0  0  0  0  0  0
   12.7330    3.5300   22.8590 C   0  0  0  0  0  0  0  0  0  0  0  0
   12.5180    4.9050   22.6270 C   0  0  0  0  0  0  0  0  0  0  0  0
   11.3320    5.6410   22.7550 C   0  0  0  0  0  0  0  0  0  0  0  0
   10.2690    5.6240   23.8060 C   0  0  0  0  0  0  0  0  0  0  0  0
    9.1400    6.4730   23.6740 C   0  0  0  0  0  0  0  0  0  0  0  0
    9.6740    6.9880   22.4440 C   0  0  0  0  0  0  0  0  0  0  0  0
   10.8650    6.5490   21.9440 O   0  0  0  0  0  0  0  0  0  0  0  0
  1  2  2  0
  2  3  1  0
  3  4  2  3
  4  5  1  0
  5  6  2  3
  6  7  1  0
  7  8  2  0
  8  9  1  0
  9 10  2  0
  7 11  1  0
 10 11  1  0
  3 12  1  0
 12 13  1  0
 13 14  1  0
  2 15  1  0
 14 15  1  0
 15 16  2  3
 16 17  1  0
 17 18  2  3
 18 19  1  0
 19 20  2  0
 20 21  1  0
 21 22  2  0
 19 23  1  0
 22 23  1  0
M  END
