GUZ-UNI-5a173832-3
     RDKit          3D

 23 25  0  0  0  0  0  0  0  0999 V2000
   10.2260    0.6420   25.0650 O   0  0  0  0  0  0  0  0  0  0  0  0
   10.8350    0.2530   24.0780 C   0  0  0  0  0  0  0  0  0  0  0  0
   10.4790   -1.0170   23.4090 C   0  0  0  0  0  0  0  0  0  0  0  0
    9.2710   -1.5600   23.8310 C   0  0  0  0  0  0  0  0  0  0  0  0
    8.7340   -2.7160   23.3320 C   0  0  0  0  0  0  0  0  0  0  0  0
    7.7230   -3.3160   23.9580 C   0  0  0  0  0  0  0  0  0  0  0  0
    7.1490   -4.4680   23.4570 C   0  0  0  0  0  0  0  0  0  0  0  0
    6.0970   -5.1990   24.0270 C   0  0  0  0  0  0  0  0  0  0  0  0
    5.8380   -6.3390   23.0970 C   0  0  0  0  0  0  0  0  0  0  0  0
    6.8430   -6.1500   21.9920 C   0  0  0  0  0  0  0  0  0  0  0  0
    7.5740   -5.0590   22.2570 O   0  0  0  0  0  0  0  0  0  0  0  0
   11.4030   -1.5840   22.3630 C   0  0  0  0  0  0  0  0  0  0  0  0
   12.8330   -1.0140   22.3170 C   0  0  0  0  0  0  0  0  0  0  0  0
   13.0580    0.3150   23.0570 C   0  0  0  0  0  0  0  0  0  0  0  0
   11.9250    1.0340   23.4630 C   0  0  0  0  0  0  0  0  0  0  0  0
   11.6400    2.4160   23.3840 C   0  0  0  0  0  0  0  0  0  0  0  0
   12.4110    3.4810   22.8600 C   0  0  0  0  0  0  0  0  0  0  0  0
   11.7700    4.7510   22.6670 C   0  0  0  0  0  0  0  0  0  0  0  0
   10.3970    4.8810   23.0140 C   0  0  0  0  0  0  0  0  0  0  0  0
   10.8030    6.0000   23.6460 C   0  0  0  0  0  0  0  0  0  0  0  0
   12.0130    5.4950   23.0050 C   0  0  0  0  0  0  0  0  0  0  0  0
   11.8980    4.2850   22.2420 C   0  0  0  0  0  0  0  0  0  0  0  0
   10.6520    3.8400   22.2740 O   0  0  0  0  0  0  0  0  0  0  0  0
  1  2  2  0
  2  3  1  0
  3  4  2  3
  4  5  1  0
  5  6  2  3
  6  7  1  0
  7  8  2  0
  8  9  1  0
  9 10  2  0
  7 11  1  0
 10 11  1  0
  3 12  1  0
 12 13  1  0
 13 14  1  0
  2 15  1  0
 14 15  1  0
 15 16  2  3
 16 17  1  0
 17 18  2  3
 18 19  1  0
 19 20  2  0
 20 21  1  0
 21 22  2  0
 19 23  1  0
 22 23  1  0
M  END
