HAN-UNI-e165996f-1
     RDKit          3D

 20 22  0  0  0  0  0  0  0  0999 V2000
    6.8320   -2.4590   24.7640 C   0  0  0  0  0  0  0  0  0  0  0  0
    7.5120   -1.2670   24.1940 C   0  0  0  0  0  0  0  0  0  0  0  0
    6.7270   -0.0940   24.4630 O   0  0  0  0  0  0  0  0  0  0  0  0
    8.7110   -1.3550   23.5380 N   0  0  0  0  0  0  0  0  0  0  0  0
    9.7140   -1.1080   24.4150 C   0  0  0  0  0  0  0  0  0  0  0  0
   11.0120   -1.8240   24.1750 C   0  0  0  0  0  0  0  0  0  0  0  0
   11.2400   -1.6610   22.6770 C   0  0  2  0  0  0  0  0  0  0  0  0
   12.7210   -1.2820   22.4470 C   0  0  0  0  0  0  0  0  0  0  0  0
   13.1230   -0.0190   22.8930 C   0  0  0  0  0  0  0  0  0  0  0  0
   12.1310    0.9530   22.8850 C   0  0  0  0  0  0  0  0  0  0  0  0
   12.2730    2.3100   23.1310 C   0  0  0  0  0  0  0  0  0  0  0  0
   11.0950    3.0250   23.0840 C   0  0  0  0  0  0  0  0  0  0  0  0
   10.6500    4.7280   23.3200 S   0  0  0  0  0  0  0  0  0  0  0  0
   10.9230    5.1330   24.9500 N   0  0  0  0  0  0  0  0  0  0  0  0
    9.2250    4.8280   23.1070 O   0  0  0  0  0  0  0  0  0  0  0  0
   11.6230    5.5100   22.5830 O   0  0  0  0  0  0  0  0  0  0  0  0
   10.1090    2.0000   22.7560 N   0  0  0  0  0  0  0  0  0  0  0  0
   10.8130    0.7120   22.6230 C   0  0  0  0  0  0  0  0  0  0  0  0
   10.3470   -0.5330   22.2950 N   0  0  0  0  0  0  0  0  0  0  0  0
    8.9680   -0.7810   22.3010 C   0  0  0  0  0  0  0  0  0  0  0  0
  1  2  1  0
  2  3  2  0
  2  4  1  0
  4  5  1  0
  5  6  1  0
  7  6  1  1
  7  8  1  0
  8  9  1  0
  9 10  1  0
 10 11  1  0
 11 12  2  0
 12 13  1  0
 13 14  1  0
 13 15  2  0
 13 16  2  0
 12 17  1  0
 10 18  2  0
 17 18  1  0
  7 19  1  0
 18 19  1  0
  4 20  1  0
 19 20  1  0
M  END
