HAN-NEW-5f56c3bc-2
     RDKit          3D

 23 24  0  0  0  0  0  0  0  0999 V2000
    2.5580    3.7000   23.1440 C   0  0  0  0  0  0  0  0  0  0  0  0
    3.2940    2.5220   23.6470 C   0  0  0  0  0  0  0  0  0  0  0  0
    2.7700    1.7560   24.4610 O   0  0  0  0  0  0  0  0  0  0  0  0
    4.5820    2.3430   23.1640 N   0  0  0  0  0  0  0  0  0  0  0  0
    5.4260    1.2950   23.7290 C   0  0  0  0  0  0  0  0  0  0  0  0
    5.7010    0.1340   22.8150 C   0  0  0  0  0  0  0  0  0  0  0  0
    5.7350    0.4370   21.4850 C   0  0  0  0  0  0  0  0  0  0  0  0
    6.7160    0.1400   20.3850 C   0  0  0  0  0  0  0  0  0  0  0  0
    6.2950    0.6750   19.2200 N   0  0  0  0  0  0  0  0  0  0  0  0
    5.1320    1.2780   19.5050 C   0  0  0  0  0  0  0  0  0  0  0  0
    4.2290    2.0240   18.6390 C   0  0  0  0  0  0  0  0  0  0  0  0
    4.8480    2.0170   17.3670 C   0  0  0  0  0  0  0  0  0  0  0  0
    4.5230    3.0910   16.5200 C   0  0  0  0  0  0  0  0  0  0  0  0
    3.2990    3.8950   16.8810 N   0  0  0  0  0  0  0  0  0  0  0  0
    2.4790    4.8250   15.7080 S   0  0  0  0  0  0  0  0  0  0  0  0
    0.8200    4.7570   16.3330 C   0  0  0  0  0  0  0  0  0  0  0  0
    2.4670    4.1350   14.4330 O   0  0  0  0  0  0  0  0  0  0  0  0
    2.8820    6.2070   15.7920 O   0  0  0  0  0  0  0  0  0  0  0  0
    3.0630    2.5840   19.0100 C   0  0  0  0  0  0  0  0  0  0  0  0
    2.6210    2.4990   20.2960 C   0  0  0  0  0  0  0  0  0  0  0  0
    1.4030    3.0750   20.6590 C   0  0  0  0  0  0  0  0  0  0  0  0
    3.4170    1.8290   21.2170 C   0  0  0  0  0  0  0  0  0  0  0  0
    4.7480    1.1690   20.8110 C   0  0  0  0  0  0  0  0  0  0  0  0
  1  2  1  0
  2  3  2  0
  2  4  1  0
  4  5  1  0
  5  6  1  0
  6  7  1  0
  7  8  2  0
  8  9  1  0
  9 10  1  0
 10 11  1  0
 11 12  1  0
 12 13  1  0
 13 14  1  0
 15 14  1  0
 15 16  1  0
 15 17  2  0
 15 18  2  0
 11 19  2  0
 19 20  1  0
 20 21  1  0
 20 22  2  0
  7 23  1  0
 10 23  2  0
 22 23  1  0
M  END
