HAN-NEW-5f56c3bc-5
     RDKit          3D

 31 33  0  0  0  0  0  0  0  0999 V2000
    9.7800   -0.6600   22.1460 C   0  0  0  0  0  0  0  0  0  0  0  0
    8.7410    0.1860   21.4690 C   0  0  0  0  0  0  0  0  0  0  0  0
    8.9220    1.3850   21.1970 O   0  0  0  0  0  0  0  0  0  0  0  0
    7.5790   -0.4900   21.1660 N   0  0  0  0  0  0  0  0  0  0  0  0
    6.9670   -1.3290   22.1780 C   0  0  0  0  0  0  0  0  0  0  0  0
    7.5770   -2.5700   22.2870 C   0  0  0  0  0  0  0  0  0  0  0  0
    7.8330   -3.1940   23.4900 C   0  0  0  0  0  0  0  0  0  0  0  0
    7.2590   -2.6550   24.6360 C   0  0  0  0  0  0  0  0  0  0  0  0
    7.6290   -1.5340   24.9640 O   0  0  0  0  0  0  0  0  0  0  0  0
    6.2770   -3.3690   25.3940 N   0  0  0  0  0  0  0  0  0  0  0  0
    5.6980   -2.7300   26.5100 C   0  0  0  0  0  0  0  0  0  0  0  0
    4.6250   -1.8970   26.3750 C   0  0  0  0  0  0  0  0  0  0  0  0
    4.0560   -1.2430   27.5520 C   0  0  0  0  0  0  0  0  0  0  0  0
    4.5040   -1.3850   28.8080 C   0  0  0  0  0  0  0  0  0  0  0  0
    3.8650   -0.6810   29.9410 C   0  0  0  0  0  0  0  0  0  0  0  0
    5.5950   -2.2220   29.0140 C   0  0  0  0  0  0  0  0  0  0  0  0
    6.2030   -2.9160   27.7990 C   0  0  0  0  0  0  0  0  0  0  0  0
    5.7600   -4.7450   25.1500 C   0  0  2  0  0  0  0  0  0  0  0  0
    6.6600   -5.5260   24.1840 C   0  0  0  0  0  0  0  0  0  0  0  0
    5.8870   -5.8640   22.9410 C   0  0  0  0  0  0  0  0  0  0  0  0
    4.2830   -5.2780   22.9320 S   0  0  0  0  0  0  0  0  0  0  0  0
    3.3350   -6.3590   22.8110 O   0  0  0  0  0  0  0  0  0  0  0  0
    4.2660   -4.1300   22.0600 O   0  0  0  0  0  0  0  0  0  0  0  0
    4.3040   -4.7010   24.6300 C   0  0  0  0  0  0  0  0  0  0  0  0
    6.6530    0.0830   20.1920 C   0  0  0  0  0  0  0  0  0  0  0  0
    6.9350   -0.0570   18.8290 C   0  0  0  0  0  0  0  0  0  0  0  0
    6.2030    0.4240   17.7980 N   0  0  0  0  0  0  0  0  0  0  0  0
    5.0990    1.0920   18.1220 C   0  0  0  0  0  0  0  0  0  0  0  0
    4.6990    1.2880   19.5670 C   0  0  0  0  0  0  0  0  0  0  0  0
    5.4880    0.7790   20.5760 C   0  0  0  0  0  0  0  0  0  0  0  0
    5.1170    0.9690   21.9090 C   0  0  0  0  0  0  0  0  0  0  0  0
  1  2  1  0
  2  3  2  0
  2  4  1  0
  4  5  1  0
  5  6  1  0
  6  7  1  0
  7  8  1  0
  8  9  2  0
  8 10  1  0
 10 11  1  0
 11 12  2  0
 12 13  1  0
 13 14  2  0
 14 15  1  0
 14 16  1  0
 11 17  1  0
 16 17  2  0
 18 10  1  6
 18 19  1  0
 19 20  2  0
 21 20  1  0
 21 22  2  0
 21 23  2  0
 18 24  1  0
 21 24  1  0
  4 25  1  0
 25 26  2  0
 26 27  1  0
 27 28  2  0
 28 29  1  0
 25 30  1  0
 29 30  2  0
 30 31  1  0
M  END
