HAN-NEW-5f56c3bc-1
     RDKit          3D

 17 18  0  0  0  0  0  0  0  0999 V2000
    5.1150    0.7560   21.9240 C   0  0  0  0  0  0  0  0  0  0  0  0
    5.4930    0.6800   20.4990 C   0  0  0  0  0  0  0  0  0  0  0  0
    4.7310    1.4180   19.6170 N   0  0  0  0  0  0  0  0  0  0  0  0
    5.1240    1.3300   18.2230 C   0  0  0  0  0  0  0  0  0  0  0  0
    6.1360    0.6000   17.7570 N   0  0  0  0  0  0  0  0  0  0  0  0
    6.8010   -0.0710   18.7130 C   0  0  0  0  0  0  0  0  0  0  0  0
    6.5680   -0.0960   20.0650 C   0  0  0  0  0  0  0  0  0  0  0  0
    7.3690   -0.8660   20.9910 N   0  0  0  0  0  0  0  0  0  0  0  0
    8.4730   -0.1410   21.6180 C   0  0  0  0  0  0  0  0  0  0  0  0
    8.9680    1.1280   21.2560 O   0  0  0  0  0  0  0  0  0  0  0  0
    9.0850   -0.8910   22.7500 N   0  0  0  0  0  0  0  0  0  0  0  0
   10.4120   -1.1640   23.0520 C   0  0  0  0  0  0  0  0  0  0  0  0
   10.9690   -1.3090   24.4500 C   0  0  0  0  0  0  0  0  0  0  0  0
   12.4150   -1.5840   24.5570 C   0  0  0  0  0  0  0  0  0  0  0  0
   13.1670   -1.6970   23.4290 C   0  0  0  0  0  0  0  0  0  0  0  0
   12.6420   -1.5680   22.1610 C   0  0  0  0  0  0  0  0  0  0  0  0
   11.2870   -1.3100   21.9810 C   0  0  0  0  0  0  0  0  0  0  0  0
  1  2  1  0
  2  3  2  0
  3  4  1  0
  4  5  2  0
  5  6  1  0
  2  7  1  0
  6  7  2  0
  7  8  1  0
  8  9  1  0
  9 10  2  0
  9 11  1  0
 11 12  1  0
 12 13  2  0
 13 14  1  0
 14 15  2  0
 15 16  1  0
 12 17  1  0
 16 17  2  0
M  END
