HAR-NEW-e34cb1ae-6
     RDKit          3D

 24 26  0  0  0  0  0  0  0  0999 V2000
    8.6110   -1.6710   21.4220 C   0  0  0  0  0  0  0  0  0  0  0  0
    9.0200   -0.9300   22.5090 N   0  0  0  0  0  0  0  0  0  0  0  0
   10.3070   -0.7750   22.9680 C   0  0  0  0  0  0  0  0  0  0  0  0
   11.0730   -1.7150   23.5620 C   0  0  0  0  0  0  0  0  0  0  0  0
   12.3420   -1.4190   23.9660 C   0  0  0  0  0  0  0  0  0  0  0  0
   13.1710   -2.6810   24.7510 S   0  0  0  0  0  0  0  0  0  0  0  0
   14.1050   -3.1060   23.4750 N   0  0  0  0  0  0  0  0  0  0  0  0
   12.1410   -3.6450   24.9360 O   0  0  0  0  0  0  0  0  0  0  0  0
   14.0000   -2.2080   25.8240 O   0  0  0  0  0  0  0  0  0  0  0  0
   12.8960   -0.1870   23.7540 C   0  0  0  0  0  0  0  0  0  0  0  0
   12.1050    0.7510   23.1680 C   0  0  0  0  0  0  0  0  0  0  0  0
   10.8260    0.4760   22.8000 C   0  0  0  0  0  0  0  0  0  0  0  0
    9.9110    1.3890   22.2590 C   0  0  0  0  0  0  0  0  0  0  0  0
    8.5480    1.3680   22.8860 C   0  0  0  0  0  0  0  0  0  0  0  0
    8.1370   -0.1120   23.0060 C   0  0  2  0  0  0  0  0  0  0  0  0
    7.7800   -0.4780   24.2570 C   0  0  0  0  0  0  0  0  0  0  0  0
    7.2440    0.4050   24.9430 O   0  0  0  0  0  0  0  0  0  0  0  0
    7.9180   -1.7170   24.7850 N   0  0  0  0  0  0  0  0  0  0  0  0
    8.6050   -2.6820   24.0560 C   0  0  0  0  0  0  0  0  0  0  0  0
    7.9130   -3.8990   23.9070 C   0  0  0  0  0  0  0  0  0  0  0  0
    6.6490   -4.1460   24.7440 C   0  0  0  0  0  0  0  0  0  0  0  0
    6.5810   -5.4490   25.3250 O   0  0  0  0  0  0  0  0  0  0  0  0
    6.4230   -3.2900   25.7790 C   0  0  0  0  0  0  0  0  0  0  0  0
    7.0110   -2.0450   25.7810 C   0  0  0  0  0  0  0  0  0  0  0  0
  1  2  1  0
  2  3  1  0
  3  4  1  0
  4  5  2  0
  5  6  1  0
  6  7  1  0
  6  8  2  0
  6  9  2  0
  5 10  1  0
 10 11  2  0
  3 12  2  0
 11 12  1  0
 12 13  1  0
 13 14  1  0
  2 15  1  0
 14 15  1  0
 15 16  1  1
 16 17  2  0
 16 18  1  0
 18 19  1  0
 19 20  1  0
 20 21  1  0
 21 22  1  0
 21 23  1  0
 18 24  1  0
 23 24  1  0
M  END
