HAR-NEW-e34cb1ae-8
     RDKit          3D

 24 26  0  0  0  0  0  0  0  0999 V2000
   11.9400   -2.1550   22.5170 N   0  0  0  0  0  0  0  0  0  0  0  0
   11.5480   -1.6670   23.8680 C   0  0  0  0  0  0  0  0  0  0  0  0
   11.0390   -0.2320   23.8270 C   0  0  0  0  0  0  0  0  0  0  0  0
   11.9580    0.9710   23.3670 C   0  0  0  0  0  0  0  0  0  0  0  0
   11.1050    2.0540   23.4990 C   0  0  0  0  0  0  0  0  0  0  0  0
   11.3070    3.3430   23.2650 C   0  0  0  0  0  0  0  0  0  0  0  0
   10.2600    4.8190   23.4140 S   0  0  0  0  0  0  0  0  0  0  0  0
   11.1150    5.9470   22.5290 N   0  0  0  0  0  0  0  0  0  0  0  0
   10.2570    5.3470   24.7550 O   0  0  0  0  0  0  0  0  0  0  0  0
    9.0090    4.6080   22.7270 O   0  0  0  0  0  0  0  0  0  0  0  0
   12.5830    3.1990   22.8670 C   0  0  0  0  0  0  0  0  0  0  0  0
   13.0030    1.7700   22.9260 C   0  0  0  0  0  0  0  0  0  0  0  0
   12.0810    0.5230   23.3920 C   0  0  0  0  0  0  0  0  0  0  0  0
   10.6580    0.9730   23.7840 C   0  0  0  0  0  0  0  0  0  0  0  0
    9.7100    0.3320   24.1700 N   0  0  0  0  0  0  0  0  0  0  0  0
    9.0020   -0.8610   24.5570 C   0  0  0  0  0  0  0  0  0  0  0  0
    8.3630   -0.9140   25.7500 O   0  0  0  0  0  0  0  0  0  0  0  0
    9.0430   -1.8580   23.5280 N   0  0  0  0  0  0  0  0  0  0  0  0
    8.4710   -3.0630   23.8450 C   0  0  0  0  0  0  0  0  0  0  0  0
    7.5250   -3.4400   22.8850 C   0  0  0  0  0  0  0  0  0  0  0  0
    6.5440   -2.4200   22.2800 C   0  0  0  0  0  0  0  0  0  0  0  0
    5.4570   -2.1270   23.0560 O   0  0  0  0  0  0  0  0  0  0  0  0
    7.2870   -1.0890   22.1240 C   0  0  0  0  0  0  0  0  0  0  0  0
    8.7780   -1.3950   22.2780 C   0  0  0  0  0  0  0  0  0  0  0  0
  1  2  1  0
  2  3  1  0
  3  4  2  0
  4  5  1  0
  5  6  2  0
  6  7  1  0
  7  8  1  0
  7  9  2  0
  7 10  2  0
  6 11  1  0
 11 12  2  0
 12 13  1  0
  5 14  1  0
 13 14  2  0
  3 15  1  0
 14 15  1  0
 15 16  1  0
 16 17  2  0
 16 18  1  0
 18 19  1  0
 19 20  1  0
 20 21  1  0
 21 22  1  0
 21 23  1  0
 18 24  1  0
 23 24  1  0
M  END
