HAR-NEW-ca1d46ce-2
     RDKit          3D

 25 27  0  0  0  0  0  0  0  0999 V2000
    2.4870    1.3750   24.3860 O   0  0  0  0  0  0  0  0  0  0  0  0
    2.7250    2.3440   23.6710 C   0  0  0  0  0  0  0  0  0  0  0  0
    1.7940    3.1100   23.0040 N   0  0  0  0  0  0  0  0  0  0  0  0
    0.5420    3.5380   23.5010 C   0  0  0  0  0  0  0  0  0  0  0  0
    0.4300    4.6240   24.4100 C   0  0  0  0  0  0  0  0  0  0  0  0
   -0.8140    5.0750   24.9170 C   0  0  0  0  0  0  0  0  0  0  0  0
   -1.9630    4.4290   24.5080 C   0  0  0  0  0  0  0  0  0  0  0  0
   -1.9660    3.3650   23.6320 C   0  0  0  0  0  0  0  0  0  0  0  0
   -3.2440    2.8160   23.3180 O   0  0  0  0  0  0  0  0  0  0  0  0
   -0.6360    2.8930   23.0970 C   0  0  0  0  0  0  0  0  0  0  0  0
    3.9910    2.8650   23.4340 N   0  0  0  0  0  0  0  0  0  0  0  0
    5.1610    2.3480   22.6930 C   0  0  0  0  0  0  0  0  0  0  0  0
    6.3640    2.6520   23.5660 C   0  0  0  0  0  0  0  0  0  0  0  0
    7.6890    2.2850   23.0970 N   0  0  0  0  0  0  0  0  0  0  0  0
    7.6160    1.7190   21.9310 C   0  0  0  0  0  0  0  0  0  0  0  0
    6.3710    1.4400   21.1040 C   0  0  0  0  0  0  0  0  0  0  0  0
    4.9850    1.7230   21.3920 C   0  0  0  0  0  0  0  0  0  0  0  0
    5.0080    1.1010   20.1420 C   0  0  0  0  0  0  0  0  0  0  0  0
    5.1130   -0.4070   20.0080 C   0  0  1  0  0  0  0  0  0  0  0  0
    5.8060   -0.8650   18.7450 C   0  0  0  0  0  0  0  0  0  0  0  0
    7.2660   -0.6210   18.7710 C   0  0  0  0  0  0  0  0  0  0  0  0
    7.8190   -0.9600   20.0620 N   0  0  0  0  0  0  0  0  0  0  0  0
    7.0890   -1.3800   21.1280 C   0  0  0  0  0  0  0  0  0  0  0  0
    7.5750   -2.0530   22.0330 O   0  0  0  0  0  0  0  0  0  0  0  0
    5.7860   -1.0120   21.1450 N   0  0  0  0  0  0  0  0  0  0  0  0
  1  2  2  0
  2  3  1  0
  3  4  1  0
  4  5  2  0
  5  6  1  0
  6  7  2  0
  7  8  1  0
  8  9  1  0
  4 10  1  0
  8 10  2  0
  2 11  1  0
 11 12  1  0
 12 13  2  0
 13 14  1  0
 14 15  2  0
 15 16  1  0
 12 17  1  0
 16 17  2  0
 17 18  1  0
 19 18  1  1
 19 20  1  0
 20 21  1  0
 21 22  1  0
 22 23  1  0
 23 24  2  0
 19 25  1  0
 23 25  1  0
M  END
