HAR-NEW-e34cb1ae-1
     RDKit          3D

 29 31  0  0  0  0  0  0  0  0999 V2000
    5.4230   -7.3170   31.1530 C   0  0  0  0  0  0  0  0  0  0  0  0
    5.8660   -7.4170   29.7240 C   0  0  0  0  0  0  0  0  0  0  0  0
    5.4450   -6.4160   28.8390 C   0  0  0  0  0  0  0  0  0  0  0  0
    4.2630   -6.4010   28.4740 O   0  0  0  0  0  0  0  0  0  0  0  0
    6.3780   -5.4770   28.4210 C   0  0  0  0  0  0  0  0  0  0  0  0
    7.4530   -5.9040   27.7340 N   0  0  0  0  0  0  0  0  0  0  0  0
    7.9810   -5.1210   26.7460 C   0  0  0  0  0  0  0  0  0  0  0  0
    9.1790   -5.2890   26.2090 C   0  0  0  0  0  0  0  0  0  0  0  0
    9.7530   -4.4620   25.1680 C   0  0  0  0  0  0  0  0  0  0  0  0
    9.3060   -3.3520   24.4630 C   0  0  0  0  0  0  0  0  0  0  0  0
    8.6030   -2.3860   24.0220 N   0  0  0  0  0  0  0  0  0  0  0  0
    9.4030   -1.2980   23.8290 C   0  0  0  0  0  0  0  0  0  0  0  0
    9.8120   -1.2960   22.5540 C   0  0  0  0  0  0  0  0  0  0  0  0
    9.0330   -0.3130   21.7540 C   0  0  0  0  0  0  0  0  0  0  0  0
    9.4650    0.8540   21.6390 O   0  0  0  0  0  0  0  0  0  0  0  0
    7.8110   -0.7510   21.1880 N   0  0  0  0  0  0  0  0  0  0  0  0
    6.9460   -0.1050   20.1690 C   0  0  0  0  0  0  0  0  0  0  0  0
    5.8020    0.7870   20.6460 C   0  0  0  0  0  0  0  0  0  0  0  0
    5.0160    1.3670   19.6830 C   0  0  0  0  0  0  0  0  0  0  0  0
    5.2740    1.1330   18.2230 C   0  0  0  0  0  0  0  0  0  0  0  0
    6.2930    0.3390   17.8250 N   0  0  0  0  0  0  0  0  0  0  0  0
    7.0990   -0.2610   18.7960 C   0  0  0  0  0  0  0  0  0  0  0  0
    8.0010   -3.2850   25.1330 C   0  0  0  0  0  0  0  0  0  0  0  0
    7.0450   -2.3000   24.8060 N   0  0  0  0  0  0  0  0  0  0  0  0
    5.8670   -2.3690   25.5200 C   0  0  0  0  0  0  0  0  0  0  0  0
    4.7960   -1.4770   25.3280 C   0  0  0  0  0  0  0  0  0  0  0  0
    4.9740   -0.7250   24.0950 N   0  0  0  0  0  0  0  0  0  0  0  0
    5.9930   -3.4190   26.3710 C   0  0  0  0  0  0  0  0  0  0  0  0
    7.3640   -4.0360   26.1450 C   0  0  0  0  0  0  0  0  0  0  0  0
  1  2  3  0
  2  3  1  0
  3  4  2  0
  3  5  1  0
  5  6  1  0
  6  7  1  0
  7  8  2  0
  8  9  1  0
  9 10  2  0
 10 11  1  0
 11 12  1  0
 12 13  1  0
 13 14  1  0
 14 15  2  0
 14 16  1  0
 16 17  1  0
 17 18  2  0
 18 19  1  0
 19 20  2  0
 20 21  1  0
 17 22  1  0
 21 22  2  0
 10 23  1  0
 23 24  1  0
 24 25  1  0
 25 26  1  0
 26 27  1  0
 25 28  2  0
  7 29  1  0
 23 29  2  0
 28 29  1  0
M  END
