HAR-NEW-e34cb1ae-7
     RDKit          3D

 27 29  0  0  0  0  0  0  0  0999 V2000
    6.0540    0.2790   26.2650 N   0  0  0  0  0  0  0  0  0  0  0  0
    5.6780   -0.9110   25.6260 C   0  0  0  0  0  0  0  0  0  0  0  0
    6.6550   -2.0870   25.6970 C   0  0  0  0  0  0  0  0  0  0  0  0
    6.6000   -3.1040   26.6110 C   0  0  0  0  0  0  0  0  0  0  0  0
    7.5930   -3.9690   26.4340 C   0  0  0  0  0  0  0  0  0  0  0  0
    7.8080   -5.0390   27.1550 C   0  0  0  0  0  0  0  0  0  0  0  0
    6.7160   -5.4880   28.4970 S   0  0  0  0  0  0  0  0  0  0  0  0
    5.5220   -6.4220   27.7680 N   0  0  0  0  0  0  0  0  0  0  0  0
    6.1110   -4.2870   29.0190 O   0  0  0  0  0  0  0  0  0  0  0  0
    7.3510   -6.4220   29.3300 O   0  0  0  0  0  0  0  0  0  0  0  0
    8.9020   -5.6390   26.7070 C   0  0  0  0  0  0  0  0  0  0  0  0
    9.6270   -5.1460   25.6120 C   0  0  0  0  0  0  0  0  0  0  0  0
    9.5400   -4.0280   24.6680 C   0  0  0  0  0  0  0  0  0  0  0  0
    9.1400   -2.8520   23.9490 N   0  0  0  0  0  0  0  0  0  0  0  0
   10.0190   -1.9740   23.1090 C   0  0  0  0  0  0  0  0  0  0  0  0
    9.5770   -1.6920   21.8170 C   0  0  0  0  0  0  0  0  0  0  0  0
    8.7100   -0.6150   21.5860 C   0  0  0  0  0  0  0  0  0  0  0  0
    9.3560    0.6650   21.5920 O   0  0  0  0  0  0  0  0  0  0  0  0
    7.3740   -0.8930   21.3700 N   0  0  0  0  0  0  0  0  0  0  0  0
    6.7460   -0.2470   20.3450 C   0  0  0  0  0  0  0  0  0  0  0  0
    5.5380    0.6620   20.5490 C   0  0  0  0  0  0  0  0  0  0  0  0
    4.9140    1.3020   19.4850 C   0  0  0  0  0  0  0  0  0  0  0  0
    5.4260    1.0930   18.2130 C   0  0  0  0  0  0  0  0  0  0  0  0
    6.4930    0.3010   17.9800 N   0  0  0  0  0  0  0  0  0  0  0  0
    7.1190   -0.3430   19.0100 C   0  0  0  0  0  0  0  0  0  0  0  0
    8.4120   -3.5250   25.2850 C   0  0  0  0  0  0  0  0  0  0  0  0
    7.7430   -2.3450   24.8940 N   0  0  0  0  0  0  0  0  0  0  0  0
  1  2  1  0
  2  3  1  0
  3  4  2  0
  4  5  1  0
  5  6  2  0
  6  7  1  0
  7  8  1  0
  7  9  2  0
  7 10  2  0
  6 11  1  0
 11 12  2  0
 12 13  1  0
 13 14  1  0
 14 15  1  0
 15 16  1  0
 16 17  1  0
 17 18  2  0
 17 19  1  0
 19 20  1  0
 20 21  2  0
 21 22  1  0
 22 23  2  0
 23 24  1  0
 20 25  1  0
 24 25  2  0
  5 26  1  0
 13 26  2  0
  3 27  1  0
 26 27  1  0
M  END
