HEI-REL-0c990a45-5
     RDKit          3D

 25 27  0  0  0  0  0  0  0  0999 V2000
    5.9260   -2.0460   18.7650 C   0  0  0  0  0  0  0  0  0  0  0  0
    5.7100   -3.0130   19.8950 C   0  0  0  0  0  0  0  0  0  0  0  0
    5.3390   -4.1760   19.7190 O   0  0  0  0  0  0  0  0  0  0  0  0
    6.0060   -2.4920   21.1190 N   0  0  0  0  0  0  0  0  0  0  0  0
    5.8920   -3.3270   22.3180 C   0  0  0  0  0  0  0  0  0  0  0  0
    7.1090   -3.6140   22.9090 C   0  0  0  0  0  0  0  0  0  0  0  0
    7.7690   -2.3390   23.1580 N   0  0  0  0  0  0  0  0  0  0  0  0
    8.9580   -2.4730   23.9490 C   0  0  0  0  0  0  0  0  0  0  0  0
    9.8340   -1.4450   23.6920 C   0  0  0  0  0  0  0  0  0  0  0  0
   11.1220   -1.6960   23.0950 C   0  0  0  0  0  0  0  0  0  0  0  0
   11.9570   -0.6810   22.8530 C   0  0  0  0  0  0  0  0  0  0  0  0
   13.4210   -1.1370   22.1410 Cl  0  0  0  0  0  0  0  0  0  0  0  0
   11.5780    0.6890   23.1920 C   0  0  0  0  0  0  0  0  0  0  0  0
   10.3970    0.9440   23.7260 C   0  0  0  0  0  0  0  0  0  0  0  0
    9.4470   -0.1350   24.0160 C   0  0  0  0  0  0  0  0  0  0  0  0
   10.0560    2.2480   24.0100 C   0  0  0  0  0  0  0  0  0  0  0  0
   10.6740    3.2800   23.0630 C   0  0  1  0  0  0  0  0  0  0  0  0
   10.1430    4.9670   23.4930 S   0  0  0  0  0  0  0  0  0  0  0  0
   11.4880    5.9400   23.2560 N   0  0  0  0  0  0  0  0  0  0  0  0
    9.7980    5.1160   24.8750 O   0  0  0  0  0  0  0  0  0  0  0  0
    9.1430    5.3770   22.5530 O   0  0  0  0  0  0  0  0  0  0  0  0
   12.0190    3.1430   22.7270 C   0  0  0  0  0  0  0  0  0  0  0  0
   12.5200    1.6950   22.9290 C   0  0  0  0  0  0  0  0  0  0  0  0
    8.0090   -1.7320   21.9200 C   0  0  0  0  0  0  0  0  0  0  0  0
    6.9350   -1.4290   21.1220 C   0  0  0  0  0  0  0  0  0  0  0  0
  1  2  1  0
  2  3  2  0
  2  4  1  0
  4  5  1  0
  5  6  1  0
  6  7  1  0
  7  8  1  0
  8  9  1  0
  9 10  2  0
 10 11  1  0
 11 12  1  0
 11 13  2  0
 13 14  1  0
  9 15  1  0
 14 15  2  0
 14 16  1  0
 16 17  1  0
 17 18  1  1
 18 19  1  0
 18 20  2  0
 18 21  2  0
 17 22  1  0
 13 23  1  0
 22 23  1  0
  7 24  1  0
  4 25  1  0
 24 25  1  0
M  END
