HEI-REL-0c990a45-2
     RDKit          3D

 24 26  0  0  0  0  0  0  0  0999 V2000
    5.9880   -2.0290   19.0180 C   0  0  0  0  0  0  0  0  0  0  0  0
    5.9950   -2.9800   20.1920 C   0  0  0  0  0  0  0  0  0  0  0  0
    5.5120   -4.1130   20.0490 O   0  0  0  0  0  0  0  0  0  0  0  0
    6.6320   -2.4220   21.3130 N   0  0  0  0  0  0  0  0  0  0  0  0
    6.8720   -3.0640   22.5660 C   0  0  0  0  0  0  0  0  0  0  0  0
    7.8460   -2.5110   23.4460 C   0  0  0  0  0  0  0  0  0  0  0  0
    8.9500   -1.8010   23.0130 N   0  0  0  0  0  0  0  0  0  0  0  0
    9.4020   -0.6730   23.6760 C   0  0  0  0  0  0  0  0  0  0  0  0
   10.7940   -0.3290   23.7920 C   0  0  1  0  0  0  0  0  0  0  0  0
   11.5210   -1.4470   23.2150 C   0  0  0  0  0  0  0  0  0  0  0  0
   12.9220   -1.0940   23.1030 C   0  0  0  0  0  0  0  0  0  0  0  0
   12.3230    0.2500   23.2090 C   0  0  0  0  0  0  0  0  0  0  0  0
   11.0220    0.6840   23.8080 C   0  0  0  0  0  0  0  0  0  0  0  0
   10.1480    1.8550   24.0750 C   0  0  0  0  0  0  0  0  0  0  0  0
   10.7320    3.0770   23.5860 C   0  0  0  0  0  0  0  0  0  0  0  0
    9.9810    4.7100   23.7120 S   0  0  0  0  0  0  0  0  0  0  0  0
   11.2860    5.7480   23.4420 N   0  0  0  0  0  0  0  0  0  0  0  0
    9.4320    5.0170   25.0210 O   0  0  0  0  0  0  0  0  0  0  0  0
    9.0680    4.8600   22.6130 O   0  0  0  0  0  0  0  0  0  0  0  0
   12.1110    2.8650   22.9210 C   0  0  0  0  0  0  0  0  0  0  0  0
   12.6190    1.4160   22.8850 C   0  0  0  0  0  0  0  0  0  0  0  0
   11.3470    1.0270   23.5150 N   0  0  0  0  0  0  0  0  0  0  0  0
    8.8660   -1.5720   21.6590 C   0  0  0  0  0  0  0  0  0  0  0  0
    7.4580   -1.1970   21.1950 C   0  0  0  0  0  0  0  0  0  0  0  0
  1  2  1  0
  2  3  2  0
  2  4  1  0
  4  5  1  0
  5  6  1  0
  6  7  1  0
  7  8  1  0
  9  8  1  6
  9 10  1  0
 10 11  1  0
 11 12  1  0
 12 13  2  0
 13 14  1  0
 14 15  2  0
 15 16  1  0
 16 17  1  0
 16 18  2  0
 16 19  2  0
 15 20  1  0
 12 21  1  0
 20 21  2  0
  9 22  1  0
 21 22  1  0
  7 23  1  0
  4 24  1  0
 23 24  1  0
M  END
