HOL-KAN-b6135d2e-2
     RDKit          3D

 38 44  0  0  0  0  0  0  0  0999 V2000
    7.6800   -5.9650   24.3220 O   0  0  0  0  0  0  0  0  0  0  0  0
    6.7510   -5.1830   24.2560 C   0  0  0  0  0  0  0  0  0  0  0  0
    6.4090   -4.7850   22.8770 C   0  0  0  0  0  0  0  0  0  0  0  0
    6.6270   -3.4330   22.4390 C   0  0  0  0  0  0  0  0  0  0  0  0
    6.3140   -3.0050   21.1490 C   0  0  0  0  0  0  0  0  0  0  0  0
    6.6140   -1.6560   20.8880 N   0  0  0  0  0  0  0  0  0  0  0  0
    7.6750   -0.9750   20.9460 N   0  0  0  0  0  0  0  0  0  0  0  0
    6.6780   -0.3750   20.3690 C   0  0  0  0  0  0  0  0  0  0  0  0
    6.2680    1.0450   20.1090 C   0  0  0  0  0  0  0  0  0  0  0  0
    5.6120    1.6570   19.0370 C   0  0  0  0  0  0  0  0  0  0  0  0
    5.7770    0.6190   18.0630 C   0  0  0  0  0  0  0  0  0  0  0  0
    5.4890    0.4620   16.9650 O   0  0  0  0  0  0  0  0  0  0  0  0
    6.3930   -0.2440   19.0720 C   0  0  0  0  0  0  0  0  0  0  0  0
    6.5280    0.7250   20.2990 C   0  0  0  0  0  0  0  0  0  0  0  0
    5.9080   -0.3940   20.9080 N   0  0  0  0  0  0  0  0  0  0  0  0
    5.7700   -3.8660   20.2490 C   0  0  0  0  0  0  0  0  0  0  0  0
    5.4650   -3.5500   19.1220 O   0  0  0  0  0  0  0  0  0  0  0  0
    5.5590   -5.2190   20.6340 C   0  0  0  0  0  0  0  0  0  0  0  0
    5.8960   -5.7060   22.0300 C   0  0  0  0  0  0  0  0  0  0  0  0
    5.7240   -6.9850   22.4870 O   0  0  0  0  0  0  0  0  0  0  0  0
    6.0220   -4.6810   25.4330 C   0  0  0  0  0  0  0  0  0  0  0  0
    5.1910   -5.5890   26.3100 C   0  0  0  0  0  0  0  0  0  0  0  0
    4.5170   -4.9120   27.4890 C   0  0  0  0  0  0  0  0  0  0  0  0
    3.7270   -5.6370   28.3690 N   0  0  0  0  0  0  0  0  0  0  0  0
    3.4010   -5.1480   29.5590 N   0  0  0  0  0  0  0  0  0  0  0  0
    2.6620   -6.0960   30.1040 C   0  0  0  0  0  0  0  0  0  0  0  0
    2.0420   -6.0910   31.3950 C   0  0  0  0  0  0  0  0  0  0  0  0
    1.2200   -7.3220   31.8210 C   0  0  0  0  0  0  0  0  0  0  0  0
    1.0760   -8.5100   30.8820 C   0  0  0  0  0  0  0  0  0  0  0  0
    0.3500   -9.6280   31.2210 O   0  0  0  0  0  0  0  0  0  0  0  0
    1.7660   -8.4390   29.5240 C   0  0  0  0  0  0  0  0  0  0  0  0
    2.5660   -7.1660   29.1870 C   0  0  0  0  0  0  0  0  0  0  0  0
    3.2520   -6.8600   28.0770 N   0  0  0  0  0  0  0  0  0  0  0  0
    4.5780   -3.5930   27.8370 C   0  0  0  0  0  0  0  0  0  0  0  0
    5.3880   -2.9200   26.9120 C   0  0  0  0  0  0  0  0  0  0  0  0
    6.0960   -3.3480   25.7680 C   0  0  0  0  0  0  0  0  0  0  0  0
    6.8150   -2.4240   25.0610 O   0  0  0  0  0  0  0  0  0  0  0  0
    4.8910   -2.2690   27.8310 O   0  0  0  0  0  0  0  0  0  0  0  0
  1  2  2  0
  2  3  1  0
  3  4  2  0
  4  5  1  0
  5  6  1  0
  6  7  1  0
  7  8  2  0
  8  9  1  0
  9 10  2  0
 10 11  1  0
 11 12  1  0
 11 13  2  0
  8 14  1  0
 13 14  1  0
  6 15  1  0
 14 15  2  0
  5 16  2  0
 16 17  1  0
 16 18  1  0
  3 19  1  0
 18 19  2  0
 19 20  1  0
  2 21  1  0
 21 22  2  0
 22 23  1  0
 23 24  1  0
 24 25  1  0
 25 26  2  0
 26 27  1  0
 27 28  2  0
 28 29  1  0
 29 30  1  0
 29 31  2  0
 26 32  1  0
 31 32  1  0
 24 33  1  0
 32 33  2  0
 23 34  2  0
 34 35  1  0
 21 36  1  0
 35 36  2  0
 36 37  1  0
 34 38  1  0
 35 38  1  0
M  END
