HOL-KAN-545e4d08-1
     RDKit          3D

 38 43  0  0  0  0  0  0  0  0999 V2000
    7.4970   -5.4190   22.3580 O   0  0  0  0  0  0  0  0  0  0  0  0
    6.4410   -4.7710   22.3350 C   0  0  0  0  0  0  0  0  0  0  0  0
    6.2960   -3.7190   21.2760 C   0  0  0  0  0  0  0  0  0  0  0  0
    6.7510   -2.3980   21.4250 C   0  0  0  0  0  0  0  0  0  0  0  0
    6.6130   -1.4840   20.3720 C   0  0  0  0  0  0  0  0  0  0  0  0
    6.9830   -0.2590   20.3350 N   0  0  0  0  0  0  0  0  0  0  0  0
    8.1720    0.2900   21.0620 N   0  0  0  0  0  0  0  0  0  0  0  0
    7.1900    0.4290   20.3080 C   0  0  0  0  0  0  0  0  0  0  0  0
    6.2980    1.2790   19.4320 C   0  0  0  0  0  0  0  0  0  0  0  0
    5.1360    1.0210   18.6700 C   0  0  0  0  0  0  0  0  0  0  0  0
    5.2290   -0.2780   19.1010 C   0  0  0  0  0  0  0  0  0  0  0  0
    4.4790   -1.4140   18.9040 O   0  0  0  0  0  0  0  0  0  0  0  0
    6.5030   -0.0790   19.9440 C   0  0  0  0  0  0  0  0  0  0  0  0
    7.1320    1.4520   19.9860 C   0  0  0  0  0  0  0  0  0  0  0  0
    6.1360    0.8310   19.4210 N   0  0  0  0  0  0  0  0  0  0  0  0
    5.9900   -1.9040   19.1280 C   0  0  0  0  0  0  0  0  0  0  0  0
    5.8130   -1.0880   18.0260 O   0  0  0  0  0  0  0  0  0  0  0  0
    5.5250   -3.2550   19.0330 C   0  0  0  0  0  0  0  0  0  0  0  0
    5.7080   -4.1080   20.1140 C   0  0  0  0  0  0  0  0  0  0  0  0
    5.2920   -5.3730   19.9440 O   0  0  0  0  0  0  0  0  0  0  0  0
    5.3910   -5.1400   23.3430 C   0  0  0  0  0  0  0  0  0  0  0  0
    4.0160   -5.0220   23.2150 C   0  0  0  0  0  0  0  0  0  0  0  0
    3.1520   -5.4280   24.2420 C   0  0  0  0  0  0  0  0  0  0  0  0
    1.7240   -5.2890   23.9940 N   0  0  0  0  0  0  0  0  0  0  0  0
    1.2530   -5.8810   22.8780 N   0  0  0  0  0  0  0  0  0  0  0  0
   -0.1240   -5.5190   22.9750 C   0  0  0  0  0  0  0  0  0  0  0  0
   -1.0790   -5.8820   22.0350 C   0  0  0  0  0  0  0  0  0  0  0  0
   -2.4270   -5.4410   22.2650 C   0  0  0  0  0  0  0  0  0  0  0  0
   -2.7700   -4.6820   23.3810 C   0  0  0  0  0  0  0  0  0  0  0  0
   -4.0900   -4.3240   23.4850 O   0  0  0  0  0  0  0  0  0  0  0  0
   -1.7630   -4.2480   24.4540 C   0  0  0  0  0  0  0  0  0  0  0  0
   -0.3560   -4.7180   24.1940 C   0  0  0  0  0  0  0  0  0  0  0  0
    0.8350   -4.6000   24.8090 N   0  0  0  0  0  0  0  0  0  0  0  0
    3.6860   -5.9440   25.4270 C   0  0  0  0  0  0  0  0  0  0  0  0
    2.9040   -6.3470   26.4690 O   0  0  0  0  0  0  0  0  0  0  0  0
    5.0640   -6.0590   25.5560 C   0  0  0  0  0  0  0  0  0  0  0  0
    5.8800   -5.6570   24.4990 C   0  0  0  0  0  0  0  0  0  0  0  0
    7.2140   -5.7930   24.6250 O   0  0  0  0  0  0  0  0  0  0  0  0
  1  2  2  0
  2  3  1  0
  3  4  2  0
  4  5  1  0
  5  6  1  0
  6  7  1  0
  7  8  2  0
  8  9  1  0
  9 10  2  0
 10 11  1  0
 11 12  1  0
 11 13  2  0
  8 14  1  0
 13 14  1  0
  6 15  1  0
 14 15  2  0
  5 16  2  0
 16 17  1  0
 16 18  1  0
  3 19  1  0
 18 19  2  0
 19 20  1  0
  2 21  1  0
 21 22  2  0
 22 23  1  0
 23 24  1  0
 24 25  1  0
 25 26  2  0
 26 27  1  0
 27 28  2  0
 28 29  1  0
 29 30  1  0
 29 31  2  0
 26 32  1  0
 31 32  1  0
 24 33  1  0
 32 33  2  0
 23 34  2  0
 34 35  1  0
 34 36  1  0
 21 37  1  0
 36 37  2  0
 37 38  1  0
M  END
