HOL-KAN-bccba850-2
     RDKit          3D

 27 30  0  0  0  0  0  0  0  0999 V2000
    3.1930    0.9820   19.8950 C   0  0  0  0  0  0  0  0  0  0  0  0
    4.2320   -0.0590   20.1200 C   0  0  1  0  0  0  0  0  0  0  0  0
    4.4880   -0.7400   21.2970 C   0  0  0  0  0  0  0  0  0  0  0  0
    5.0410   -2.2080   21.1770 C   0  0  0  0  0  0  0  0  0  0  0  0
    5.2160   -2.8070   19.8780 C   0  0  0  0  0  0  0  0  0  0  0  0
    5.2490   -4.0380   19.7080 O   0  0  0  0  0  0  0  0  0  0  0  0
    5.3210   -1.8730   18.8660 C   0  0  0  0  0  0  0  0  0  0  0  0
    4.8470   -0.5600   18.9700 C   0  0  0  0  0  0  0  0  0  0  0  0
    5.1270    0.3880   17.8100 C   0  0  0  0  0  0  0  0  0  0  0  0
    6.3230    1.0590   18.4120 C   0  0  0  0  0  0  0  0  0  0  0  0
    6.3560    0.2570   19.4440 C   0  0  2  0  0  0  0  0  0  0  0  0
    6.3500   -1.0320   18.7460 N   0  0  0  0  0  0  0  0  0  0  0  0
    5.3500    0.8740   20.2120 C   0  0  2  0  0  0  0  0  0  0  0  0
    5.4520    0.9970   21.6110 C   0  0  1  0  0  0  0  0  0  0  0  0
    4.4460    1.3400   22.2270 O   0  0  0  0  0  0  0  0  0  0  0  0
    5.7520   -0.4070   21.8050 C   0  0  0  0  0  0  0  0  0  0  0  0
    7.0880   -0.5520   21.6880 C   0  0  1  0  0  0  0  0  0  0  0  0
    7.6840   -1.8040   21.9200 C   0  0  0  0  0  0  0  0  0  0  0  0
    7.5110    0.0920   20.3560 C   0  0  2  0  0  0  0  0  0  0  0  0
    7.9070    1.3390   20.7460 C   0  0  0  0  0  0  0  0  0  0  0  0
    7.3080    1.7340   21.9070 C   0  0  0  0  0  0  0  0  0  0  0  0
    7.4210    0.5950   22.6250 C   0  0  2  0  0  0  0  0  0  0  0  0
    8.7570    0.4850   23.1430 O   0  0  0  0  0  0  0  0  0  0  0  0
    6.4560    0.6370   23.7070 C   0  0  0  0  0  0  0  0  0  0  0  0
    6.3040   -0.4850   24.4680 O   0  0  0  0  0  0  0  0  0  0  0  0
    5.7870    1.7920   23.9070 C   0  0  0  0  0  0  0  0  0  0  0  0
    6.2680    2.3930   25.1090 O   0  0  0  0  0  0  0  0  0  0  0  0
  2  1  1  6
  2  3  1  0
  3  4  2  0
  4  5  1  0
  5  6  2  0
  5  7  1  0
  2  8  1  0
  7  8  2  0
  8  9  1  0
  9 10  1  0
 10 11  1  0
 11 12  1  6
  2 13  1  0
 11 13  1  0
 13 14  1  1
 14 15  1  1
 14 16  1  0
 16 17  1  0
 17 18  1  1
 11 19  1  0
 17 19  1  0
 19 20  1  1
 20 21  1  0
 17 22  1  0
 21 22  1  0
 22 23  1  1
 22 24  1  0
 24 25  2  0
 24 26  1  0
 26 27  1  0
M  END
