HUB-UNK-9845d277-6
     RDKit          3D

 41 44  0  0  0  0  0  0  0  0999 V2000
    3.1350   -3.7920   27.0420 C   0  0  0  0  0  0  0  0  0  0  0  0
    2.4920   -3.3380   25.7840 C   0  0  0  0  0  0  0  0  0  0  0  0
    1.1000   -3.3680   25.7150 C   0  0  0  0  0  0  0  0  0  0  0  0
    2.8950   -1.8590   25.6500 C   0  0  0  0  0  0  0  0  0  0  0  0
    2.9270   -3.8240   24.7420 O   0  0  0  0  0  0  0  0  0  0  0  0
    4.2550   -4.0200   24.5720 C   0  0  0  0  0  0  0  0  0  0  0  0
    4.8780   -5.0360   24.9100 O   0  0  0  0  0  0  0  0  0  0  0  0
    4.7600   -2.9070   23.9730 N   0  0  0  0  0  0  0  0  0  0  0  0
    6.0700   -2.5030   23.7900 C   0  0  0  0  0  0  0  0  0  0  0  0
    7.1700   -3.3410   23.5410 C   0  0  0  0  0  0  0  0  0  0  0  0
    8.4240   -2.6660   23.3750 C   0  0  0  0  0  0  0  0  0  0  0  0
    8.6270   -1.1780   23.3050 C   0  0  0  0  0  0  0  0  0  0  0  0
   10.0690   -0.6710   23.1160 C   0  0  0  0  0  0  0  0  0  0  0  0
   10.9740   -1.7040   22.9450 C   0  0  0  0  0  0  0  0  0  0  0  0
   12.4670   -1.4990   22.7420 C   0  0  0  0  0  0  0  0  0  0  0  0
   12.9370   -0.2040   22.7300 C   0  0  0  0  0  0  0  0  0  0  0  0
   11.9790    0.9550   22.9110 C   0  0  0  0  0  0  0  0  0  0  0  0
   10.5960    0.8150   23.0960 C   0  0  0  0  0  0  0  0  0  0  0  0
    9.7970    1.9690   23.2590 C   0  0  0  0  0  0  0  0  0  0  0  0
    8.9640    2.4250   22.2300 C   0  0  0  0  0  0  0  0  0  0  0  0
    8.9610    1.9660   21.0980 O   0  0  0  0  0  0  0  0  0  0  0  0
    8.0990    3.4620   22.6080 N   0  0  0  0  0  0  0  0  0  0  0  0
    8.4590    4.5450   23.5600 C   0  0  1  0  0  0  0  0  0  0  0  0
    8.4310    5.7680   22.8850 C   0  0  0  0  0  0  0  0  0  0  0  0
    9.5950    6.5700   22.8410 C   0  0  2  0  0  0  0  0  0  0  0  0
   10.8800    6.0590   23.0810 C   0  0  0  0  0  0  0  0  0  0  0  0
   11.6080    6.6740   24.1240 C   0  0  0  0  0  0  0  0  0  0  0  0
   10.6050    7.4740   24.7460 N   0  0  0  0  0  0  0  0  0  0  0  0
    9.5490    7.6790   23.8800 C   0  0  0  0  0  0  0  0  0  0  0  0
    8.7510    8.5950   23.9450 O   0  0  0  0  0  0  0  0  0  0  0  0
    7.3600    4.5280   24.6370 C   0  0  0  0  0  0  0  0  0  0  0  0
    7.5750    4.4250   25.8470 O   0  0  0  0  0  0  0  0  0  0  0  0
    5.8990    4.6620   24.1810 C   0  0  0  0  0  0  0  0  0  0  0  0
    5.4660    4.0190   23.2420 O   0  0  0  0  0  0  0  0  0  0  0  0
    5.1770    5.5660   24.9420 N   0  0  0  0  0  0  0  0  0  0  0  0
    3.7730    5.7720   24.7810 C   0  0  0  0  0  0  0  0  0  0  0  0
    3.1260    7.0460   25.2600 C   0  0  0  0  0  0  0  0  0  0  0  0
    3.2590    6.7790   23.7870 C   0  0  0  0  0  0  0  0  0  0  0  0
    7.4910   -0.4260   23.4200 N   0  0  0  0  0  0  0  0  0  0  0  0
    6.2950   -0.9820   23.8760 C   0  0  0  0  0  0  0  0  0  0  0  0
    5.4090   -0.2730   24.3530 O   0  0  0  0  0  0  0  0  0  0  0  0
  1  2  1  0
  2  3  1  0
  2  4  1  0
  2  5  1  0
  5  6  1  0
  6  7  2  0
  6  8  1  0
  8  9  1  0
  9 10  2  0
 10 11  1  0
 11 12  2  0
 12 13  1  0
 13 14  2  0
 14 15  1  0
 15 16  2  0
 16 17  1  0
 13 18  1  0
 17 18  2  0
 18 19  1  0
 19 20  1  0
 20 21  2  0
 20 22  1  0
 22 23  1  0
 23 24  1  6
 25 24  1  1
 25 26  1  0
 26 27  1  0
 27 28  1  0
 25 29  1  0
 28 29  1  0
 29 30  2  0
 23 31  1  0
 31 32  2  0
 31 33  1  0
 33 34  2  0
 33 35  1  0
 35 36  1  0
 36 37  1  0
 36 38  1  0
 37 38  1  0
 12 39  1  0
  9 40  1  0
 39 40  1  0
 40 41  2  0
M  END
