HUB-UNK-9845d277-13
     RDKit          3D

 26 28  0  0  0  0  0  0  0  0999 V2000
    7.3160   -0.1480   27.5000 O   0  0  0  0  0  0  0  0  0  0  0  0
    7.3320   -0.8360   26.4860 C   0  0  0  0  0  0  0  0  0  0  0  0
    6.2810   -1.8810   26.1380 C   0  0  0  0  0  0  0  0  0  0  0  0
    6.4370   -2.8500   25.1610 C   0  0  0  0  0  0  0  0  0  0  0  0
    7.6390   -2.8730   24.4480 C   0  0  0  0  0  0  0  0  0  0  0  0
    8.5820   -1.8440   24.6160 C   0  0  0  0  0  0  0  0  0  0  0  0
    9.7620   -1.8990   23.8750 C   0  0  0  0  0  0  0  0  0  0  0  0
   10.9320   -2.6830   23.9210 C   0  0  0  0  0  0  0  0  0  0  0  0
   11.2960   -3.6510   24.7280 F   0  0  0  0  0  0  0  0  0  0  0  0
   11.7510   -2.3150   22.9470 C   0  0  0  0  0  0  0  0  0  0  0  0
   11.8380   -1.4640   21.9460 C   0  0  0  0  0  0  0  0  0  0  0  0
   10.6610   -0.7060   21.9390 C   0  0  0  0  0  0  0  0  0  0  0  0
    9.6930   -0.9440   22.8920 C   0  0  0  0  0  0  0  0  0  0  0  0
    8.5520    0.0340   22.6890 C   0  0  0  0  0  0  0  0  0  0  0  0
    7.5200   -0.8050   21.9200 C   0  0  0  0  0  0  0  0  0  0  0  0
    6.4950    0.0760   21.3750 N   0  0  0  0  0  0  0  0  0  0  0  0
    6.8810    1.1460   20.1530 S   0  0  0  0  0  0  0  0  0  0  0  0
    8.0130    1.9020   20.6460 O   0  0  0  0  0  0  0  0  0  0  0  0
    6.9140    0.4180   18.9120 O   0  0  0  0  0  0  0  0  0  0  0  0
    5.4440    2.1840   20.1890 C   0  0  0  0  0  0  0  0  0  0  0  0
    4.3820    1.9170   19.3090 C   0  0  0  0  0  0  0  0  0  0  0  0
    3.2080    2.6770   19.2700 C   0  0  0  0  0  0  0  0  0  0  0  0
    3.0290    3.7530   20.1120 C   0  0  0  0  0  0  0  0  0  0  0  0
    4.1310    4.1100   21.0940 C   0  0  0  0  0  0  0  0  0  0  0  0
    5.3850    3.2530   21.0980 C   0  0  0  0  0  0  0  0  0  0  0  0
    8.3000   -0.7940   25.4870 N   0  0  0  0  0  0  0  0  0  0  0  0
  1  2  2  0
  2  3  1  0
  3  4  2  0
  4  5  1  0
  5  6  2  0
  6  7  1  0
  7  8  2  0
  8  9  1  0
  8 10  1  0
 10 11  2  0
 11 12  1  0
  7 13  1  0
 12 13  2  0
 13 14  1  0
 14 15  1  0
 15 16  1  0
 17 16  1  0
 17 18  2  0
 17 19  2  0
 17 20  1  0
 20 21  2  0
 21 22  1  0
 22 23  2  0
 23 24  1  0
 20 25  1  0
 24 25  2  0
  2 26  1  0
  6 26  1  0
M  END
