HUB-UNK-9845d277-5
     RDKit          3D

 42 45  0  0  0  0  0  0  0  0999 V2000
    7.6880   -3.6360   27.3880 C   0  0  0  0  0  0  0  0  0  0  0  0
    7.4780   -4.8080   26.4720 C   0  0  0  0  0  0  0  0  0  0  0  0
    8.6740   -5.4580   26.1070 C   0  0  0  0  0  0  0  0  0  0  0  0
    6.6710   -5.8300   27.2880 C   0  0  0  0  0  0  0  0  0  0  0  0
    6.9480   -4.6430   25.3510 O   0  0  0  0  0  0  0  0  0  0  0  0
    5.6400   -4.2500   25.1720 C   0  0  0  0  0  0  0  0  0  0  0  0
    4.7370   -4.4640   25.9740 O   0  0  0  0  0  0  0  0  0  0  0  0
    5.5050   -3.5870   23.9580 N   0  0  0  0  0  0  0  0  0  0  0  0
    6.6380   -2.8540   23.6900 C   0  0  0  0  0  0  0  0  0  0  0  0
    7.6830   -2.5460   24.6170 C   0  0  0  0  0  0  0  0  0  0  0  0
    8.7740   -1.8760   24.3300 C   0  0  0  0  0  0  0  0  0  0  0  0
    9.0120   -1.3590   23.0110 C   0  0  0  0  0  0  0  0  0  0  0  0
   10.2070   -0.7600   22.8420 C   0  0  0  0  0  0  0  0  0  0  0  0
   11.2890   -1.7000   22.5120 C   0  0  0  0  0  0  0  0  0  0  0  0
   12.6190   -1.3690   22.3310 C   0  0  0  0  0  0  0  0  0  0  0  0
   13.0200    0.0800   22.4910 C   0  0  0  0  0  0  0  0  0  0  0  0
   12.0450    1.0060   22.7750 C   0  0  0  0  0  0  0  0  0  0  0  0
   10.5800    0.6300   22.9530 C   0  0  0  0  0  0  0  0  0  0  0  0
    9.6970    1.8560   23.2340 C   0  0  0  0  0  0  0  0  0  0  0  0
   10.2390    3.1410   23.1440 C   0  0  0  0  0  0  0  0  0  0  0  0
    9.4310    4.1350   23.7080 C   0  0  0  0  0  0  0  0  0  0  0  0
    9.6520    5.3400   23.6190 O   0  0  0  0  0  0  0  0  0  0  0  0
    8.3440    3.6130   24.3830 N   0  0  0  0  0  0  0  0  0  0  0  0
    7.4470    4.4160   25.2220 C   0  0  1  0  0  0  0  0  0  0  0  0
    6.2600    3.6740   25.4320 C   0  0  0  0  0  0  0  0  0  0  0  0
    5.5400    3.0610   24.2160 C   0  0  2  0  0  0  0  0  0  0  0  0
    4.8970    3.8810   23.2990 C   0  0  0  0  0  0  0  0  0  0  0  0
    3.8010    3.2740   22.6610 C   0  0  0  0  0  0  0  0  0  0  0  0
    3.5790    2.1060   23.4630 N   0  0  0  0  0  0  0  0  0  0  0  0
    4.4180    2.1060   24.5530 C   0  0  0  0  0  0  0  0  0  0  0  0
    4.2750    1.4690   25.5810 O   0  0  0  0  0  0  0  0  0  0  0  0
    8.2380    4.5790   26.5260 C   0  0  0  0  0  0  0  0  0  0  0  0
    9.4380    4.8510   26.5730 O   0  0  0  0  0  0  0  0  0  0  0  0
    7.4890    4.3930   27.8230 C   0  0  0  0  0  0  0  0  0  0  0  0
    6.9340    3.3340   28.0770 O   0  0  0  0  0  0  0  0  0  0  0  0
    7.5100    5.5180   28.6240 N   0  0  0  0  0  0  0  0  0  0  0  0
    7.3190    5.4660   30.0520 C   0  0  0  0  0  0  0  0  0  0  0  0
    6.0110    5.4390   30.6070 C   0  0  0  0  0  0  0  0  0  0  0  0
    6.8300    6.6740   30.7850 C   0  0  0  0  0  0  0  0  0  0  0  0
    8.0380   -1.5700   22.0370 N   0  0  0  0  0  0  0  0  0  0  0  0
    6.8520   -2.2910   22.2860 C   0  0  0  0  0  0  0  0  0  0  0  0
    5.9800   -2.4480   21.4300 O   0  0  0  0  0  0  0  0  0  0  0  0
  1  2  1  0
  2  3  1  0
  2  4  1  0
  2  5  1  0
  5  6  1  0
  6  7  2  0
  6  8  1  0
  8  9  1  0
  9 10  2  0
 10 11  1  0
 11 12  2  0
 12 13  1  0
 13 14  2  0
 14 15  1  0
 15 16  2  0
 16 17  1  0
 13 18  1  0
 17 18  2  0
 18 19  1  0
 19 20  1  0
 20 21  1  0
 21 22  2  0
 21 23  1  0
 23 24  1  0
 24 25  1  1
 26 25  1  1
 26 27  1  0
 27 28  1  0
 28 29  1  0
 26 30  1  0
 29 30  1  0
 30 31  2  0
 24 32  1  0
 32 33  2  0
 32 34  1  0
 34 35  2  0
 34 36  1  0
 36 37  1  0
 37 38  1  0
 37 39  1  0
 38 39  1  0
 12 40  1  0
  9 41  1  0
 40 41  1  0
 41 42  2  0
M  END
