HUB-UNK-9845d277-14
     RDKit          3D

 24 26  0  0  0  0  0  0  0  0999 V2000
    8.1000   -3.2980   21.0460 O   0  0  0  0  0  0  0  0  0  0  0  0
    8.5400   -2.1970   20.9690 C   0  0  0  0  0  0  0  0  0  0  0  0
    9.5510   -1.5650   21.8300 N   0  0  0  0  0  0  0  0  0  0  0  0
   10.9010   -2.1850   21.7560 C   0  0  0  0  0  0  0  0  0  0  0  0
   11.0750   -3.0520   20.7640 C   0  0  0  0  0  0  0  0  0  0  0  0
   12.4140   -3.7210   20.5670 C   0  0  0  0  0  0  0  0  0  0  0  0
   13.4370   -3.4510   21.4820 C   0  0  0  0  0  0  0  0  0  0  0  0
   13.1880   -2.5660   22.4920 N   0  0  0  0  0  0  0  0  0  0  0  0
   11.9460   -1.9040   22.6530 C   0  0  0  0  0  0  0  0  0  0  0  0
    8.2100   -1.2860   19.8860 N   0  0  0  0  0  0  0  0  0  0  0  0
    7.0710   -0.4330   19.6650 C   0  0  0  0  0  0  0  0  0  0  0  0
    7.0280    0.3410   18.3940 C   0  0  0  0  0  0  0  0  0  0  0  0
    5.8070    1.2190   18.1280 C   0  0  0  0  0  0  0  0  0  0  0  0
    4.7770    1.3510   19.0470 C   0  0  0  0  0  0  0  0  0  0  0  0
    4.9520    0.5870   20.2390 C   0  0  0  0  0  0  0  0  0  0  0  0
    3.9780    0.7250   21.1150 F   0  0  0  0  0  0  0  0  0  0  0  0
    6.0800   -0.3100   20.5450 C   0  0  0  0  0  0  0  0  0  0  0  0
    6.1640   -1.0830   21.7830 C   0  0  0  0  0  0  0  0  0  0  0  0
    6.2490   -0.5570   23.0840 C   0  0  0  0  0  0  0  0  0  0  0  0
    6.3520   -1.4370   24.1640 C   0  0  0  0  0  0  0  0  0  0  0  0
    6.5140   -2.7890   23.8880 C   0  0  0  0  0  0  0  0  0  0  0  0
    6.5690   -3.2090   22.5760 C   0  0  0  0  0  0  0  0  0  0  0  0
    7.0230   -4.3260   22.3370 O   0  0  0  0  0  0  0  0  0  0  0  0
    6.1180   -2.4120   21.5700 N   0  0  0  0  0  0  0  0  0  0  0  0
  1  2  2  0
  2  3  1  0
  3  4  1  0
  4  5  2  0
  5  6  1  0
  6  7  2  0
  7  8  1  0
  4  9  1  0
  8  9  2  0
  2 10  1  0
 10 11  1  0
 11 12  2  0
 12 13  1  0
 13 14  2  0
 14 15  1  0
 15 16  1  0
 11 17  1  0
 15 17  2  0
 17 18  1  0
 18 19  2  0
 19 20  1  0
 20 21  2  0
 21 22  1  0
 22 23  2  0
 18 24  1  0
 22 24  1  0
M  END
