HUB-UNK-9845d277-1
     RDKit          3D

 33 35  0  0  0  0  0  0  0  0999 V2000
    4.3610   -3.0410   28.8120 C   0  0  0  0  0  0  0  0  0  0  0  0
    5.6950   -3.2950   28.1580 C   0  0  0  0  0  0  0  0  0  0  0  0
    6.3310   -4.5260   28.6300 C   0  0  0  0  0  0  0  0  0  0  0  0
    6.6510   -2.1430   28.5320 C   0  0  0  0  0  0  0  0  0  0  0  0
    5.7100   -3.4210   26.9290 O   0  0  0  0  0  0  0  0  0  0  0  0
    4.5630   -3.3960   26.1900 C   0  0  0  0  0  0  0  0  0  0  0  0
    3.5230   -3.9880   26.4940 O   0  0  0  0  0  0  0  0  0  0  0  0
    4.7610   -2.5830   25.0180 N   0  0  0  0  0  0  0  0  0  0  0  0
    6.0970   -2.2890   24.6230 C   0  0  0  0  0  0  0  0  0  0  0  0
    7.0390   -3.2850   24.3300 C   0  0  0  0  0  0  0  0  0  0  0  0
    8.4660   -2.9400   23.9590 C   0  0  0  0  0  0  0  0  0  0  0  0
    8.7810   -1.4680   23.6860 C   0  0  0  0  0  0  0  0  0  0  0  0
   10.2450   -1.2300   23.4240 C   0  0  0  0  0  0  0  0  0  0  0  0
   11.5600   -1.8370   23.3130 C   0  0  0  0  0  0  0  0  0  0  0  0
   12.7990   -1.3100   23.0500 C   0  0  0  0  0  0  0  0  0  0  0  0
   13.0610    0.1320   22.8050 C   0  0  0  0  0  0  0  0  0  0  0  0
   11.7830    0.9250   22.8810 C   0  0  0  0  0  0  0  0  0  0  0  0
   10.4380    0.2170   23.1810 C   0  0  0  0  0  0  0  0  0  0  0  0
    9.2930    1.2530   23.1830 C   0  0  0  0  0  0  0  0  0  0  0  0
    9.7930    2.6890   23.2560 C   0  0  0  0  0  0  0  0  0  0  0  0
    9.0310    3.4150   24.2840 N   0  0  0  0  0  0  0  0  0  0  0  0
    9.4220    5.0050   24.7310 S   0  0  0  0  0  0  0  0  0  0  0  0
    8.3290    5.8450   24.2890 O   0  0  0  0  0  0  0  0  0  0  0  0
    9.8430    4.9760   26.1140 O   0  0  0  0  0  0  0  0  0  0  0  0
   10.8250    5.3360   23.6910 C   0  0  0  0  0  0  0  0  0  0  0  0
   11.6630    6.5910   23.8870 C   0  0  0  0  0  0  0  0  0  0  0  0
   12.8490    6.8350   22.9900 C   0  0  0  0  0  0  0  0  0  0  0  0
   13.1270    5.7770   21.9290 C   0  0  0  0  0  0  0  0  0  0  0  0
   12.2040    4.5620   21.8320 C   0  0  0  0  0  0  0  0  0  0  0  0
   11.1310    4.4040   22.6910 C   0  0  0  0  0  0  0  0  0  0  0  0
    7.7740   -0.5770   23.7410 N   0  0  0  0  0  0  0  0  0  0  0  0
    6.5390   -0.8440   24.5140 C   0  0  0  0  0  0  0  0  0  0  0  0
    5.8970    0.0650   25.0410 O   0  0  0  0  0  0  0  0  0  0  0  0
  1  2  1  0
  2  3  1  0
  2  4  1  0
  2  5  1  0
  5  6  1  0
  6  7  2  0
  6  8  1  0
  8  9  1  0
  9 10  2  0
 10 11  1  0
 11 12  2  0
 12 13  1  0
 13 14  2  0
 14 15  1  0
 15 16  2  0
 16 17  1  0
 13 18  1  0
 17 18  2  0
 18 19  1  0
 19 20  1  0
 20 21  1  0
 22 21  1  0
 22 23  2  0
 22 24  2  0
 22 25  1  0
 25 26  2  0
 26 27  1  0
 27 28  2  0
 28 29  1  0
 25 30  1  0
 29 30  2  0
 12 31  1  0
  9 32  1  0
 31 32  1  0
 32 33  2  0
M  END
