HUB-UNK-9845d277-8
     RDKit          3D

 41 44  0  0  0  0  0  0  0  0999 V2000
    4.7310    0.4620   17.9910 C   0  0  0  0  0  0  0  0  0  0  0  0
    5.5710   -0.2680   18.9490 C   0  0  0  0  0  0  0  0  0  0  0  0
    6.8870   -0.0040   18.9380 C   0  0  0  0  0  0  0  0  0  0  0  0
    4.9850    0.2290   20.2750 C   0  0  0  0  0  0  0  0  0  0  0  0
    5.4580   -1.5090   18.8810 O   0  0  0  0  0  0  0  0  0  0  0  0
    5.4810   -2.3950   19.9290 C   0  0  0  0  0  0  0  0  0  0  0  0
    5.3060   -3.6240   19.8030 O   0  0  0  0  0  0  0  0  0  0  0  0
    5.7490   -1.6850   21.1700 N   0  0  0  0  0  0  0  0  0  0  0  0
    6.9210   -2.1990   21.6510 C   0  0  0  0  0  0  0  0  0  0  0  0
    7.1130   -3.2950   22.3530 C   0  0  0  0  0  0  0  0  0  0  0  0
    8.5780   -3.6370   22.5650 C   0  0  0  0  0  0  0  0  0  0  0  0
    9.9190   -2.7600   22.4880 C   0  0  0  0  0  0  0  0  0  0  0  0
   10.9820   -1.7880   22.3770 C   0  0  0  0  0  0  0  0  0  0  0  0
   12.1740   -2.3480   22.8030 C   0  0  0  0  0  0  0  0  0  0  0  0
   13.4320   -1.6400   22.9550 C   0  0  0  0  0  0  0  0  0  0  0  0
   13.4160   -0.2070   22.7060 C   0  0  0  0  0  0  0  0  0  0  0  0
   12.3130    0.4560   22.3000 C   0  0  0  0  0  0  0  0  0  0  0  0
   12.4010    2.0380   22.3230 C   0  0  0  0  0  0  0  0  0  0  0  0
   11.2220    2.9160   22.2070 C   0  0  0  0  0  0  0  0  0  0  0  0
   10.1090    2.3810   22.1540 O   0  0  0  0  0  0  0  0  0  0  0  0
   11.2950    4.3380   22.1500 N   0  0  0  0  0  0  0  0  0  0  0  0
   10.6470    5.1470   23.1770 C   0  0  1  0  0  0  0  0  0  0  0  0
   11.3230    5.6930   24.2980 C   0  0  0  0  0  0  0  0  0  0  0  0
   10.3240    6.2180   25.0490 C   0  0  2  0  0  0  0  0  0  0  0  0
   10.6240    7.6140   25.2510 C   0  0  0  0  0  0  0  0  0  0  0  0
   11.6800    7.6800   26.0900 C   0  0  0  0  0  0  0  0  0  0  0  0
   11.4240    6.6150   27.0160 N   0  0  0  0  0  0  0  0  0  0  0  0
   10.4130    5.8380   26.5150 C   0  0  0  0  0  0  0  0  0  0  0  0
    9.7380    5.0420   27.1420 O   0  0  0  0  0  0  0  0  0  0  0  0
    9.8150    6.2940   22.5870 C   0  0  0  0  0  0  0  0  0  0  0  0
   10.2690    7.3780   22.3020 O   0  0  0  0  0  0  0  0  0  0  0  0
    8.4920    6.0520   22.4120 C   0  0  0  0  0  0  0  0  0  0  0  0
    7.9670    5.1050   22.9920 O   0  0  0  0  0  0  0  0  0  0  0  0
    7.7660    6.8880   21.5890 N   0  0  0  0  0  0  0  0  0  0  0  0
    6.8540    7.9010   22.0100 C   0  0  0  0  0  0  0  0  0  0  0  0
    5.3400    7.6690   21.9490 C   0  0  0  0  0  0  0  0  0  0  0  0
    6.0110    8.6280   21.0010 C   0  0  0  0  0  0  0  0  0  0  0  0
   11.0210   -0.4210   22.0230 C   0  0  0  0  0  0  0  0  0  0  0  0
    9.1360   -1.6570   22.3040 N   0  0  0  0  0  0  0  0  0  0  0  0
    8.1660   -1.4800   21.3810 C   0  0  0  0  0  0  0  0  0  0  0  0
    8.2900   -0.7330   20.4430 O   0  0  0  0  0  0  0  0  0  0  0  0
  1  2  1  0
  2  3  1  0
  2  4  1  0
  2  5  1  0
  5  6  1  0
  6  7  2  0
  6  8  1  0
  8  9  1  0
  9 10  2  0
 10 11  1  0
 11 12  2  0
 12 13  1  0
 13 14  2  0
 14 15  1  0
 15 16  2  0
 16 17  1  0
 17 18  1  0
 18 19  1  0
 19 20  2  0
 19 21  1  0
 21 22  1  0
 22 23  1  1
 24 23  1  6
 24 25  1  0
 25 26  1  0
 26 27  1  0
 24 28  1  0
 27 28  1  0
 28 29  2  0
 22 30  1  0
 30 31  2  0
 30 32  1  0
 32 33  2  0
 32 34  1  0
 34 35  1  0
 35 36  1  0
 35 37  1  0
 36 37  1  0
 13 38  1  0
 17 38  2  0
 12 39  1  0
  9 40  1  0
 39 40  1  0
 40 41  2  0
M  END
