HUB-UNK-9845d277-2
     RDKit          3D

 25 27  0  0  0  0  0  0  0  0999 V2000
    7.5270   -4.7940   24.3830 O   0  0  0  0  0  0  0  0  0  0  0  0
    7.5980   -3.8150   23.6490 C   0  0  0  0  0  0  0  0  0  0  0  0
    6.3750   -3.3530   22.8510 C   0  0  0  0  0  0  0  0  0  0  0  0
    6.3800   -2.2230   22.1310 C   0  0  0  0  0  0  0  0  0  0  0  0
    7.6130   -1.3520   22.0810 C   0  0  0  0  0  0  0  0  0  0  0  0
    8.8650   -1.8310   22.8180 C   0  0  0  0  0  0  0  0  0  0  0  0
   10.1580   -1.0230   22.8160 C   0  0  0  0  0  0  0  0  0  0  0  0
   11.3400   -1.8540   22.3140 C   0  0  0  0  0  0  0  0  0  0  0  0
   12.6880   -1.1250   22.2870 C   0  0  0  0  0  0  0  0  0  0  0  0
   12.8360    0.1700   22.6730 C   0  0  0  0  0  0  0  0  0  0  0  0
   11.5840    0.9450   23.1550 C   0  0  0  0  0  0  0  0  0  0  0  0
   10.3140    0.3380   23.2150 C   0  0  0  0  0  0  0  0  0  0  0  0
    9.0440    1.0740   23.6950 C   0  0  0  0  0  0  0  0  0  0  0  0
    8.8830    2.3600   24.2260 C   0  0  0  0  0  0  0  0  0  0  0  0
    7.8880    3.0180   23.4370 N   0  0  0  0  0  0  0  0  0  0  0  0
    8.5440    3.6380   22.0690 S   0  0  0  0  0  0  0  0  0  0  0  0
    8.0650    2.7950   20.9930 O   0  0  0  0  0  0  0  0  0  0  0  0
    9.9650    3.7320   22.3380 O   0  0  0  0  0  0  0  0  0  0  0  0
    7.8570    5.2790   22.0540 C   0  0  0  0  0  0  0  0  0  0  0  0
    6.6070    5.5470   21.5180 C   0  0  0  0  0  0  0  0  0  0  0  0
    6.1310    6.8440   21.5350 C   0  0  0  0  0  0  0  0  0  0  0  0
    6.9080    7.8570   22.0880 C   0  0  0  0  0  0  0  0  0  0  0  0
    8.1600    7.6530   22.6390 C   0  0  0  0  0  0  0  0  0  0  0  0
    8.6310    6.3140   22.6110 C   0  0  0  0  0  0  0  0  0  0  0  0
    8.7750   -3.1130   23.5240 N   0  0  0  0  0  0  0  0  0  0  0  0
  1  2  2  0
  2  3  1  0
  3  4  2  0
  4  5  1  0
  5  6  2  0
  6  7  1  0
  7  8  2  0
  8  9  1  0
  9 10  2  0
 10 11  1  0
  7 12  1  0
 11 12  2  0
 12 13  1  0
 13 14  1  0
 14 15  1  0
 16 15  1  0
 16 17  2  0
 16 18  2  0
 16 19  1  0
 19 20  2  0
 20 21  1  0
 21 22  2  0
 22 23  1  0
 19 24  1  0
 23 24  2  0
  2 25  1  0
  6 25  1  0
M  END
