HUN-WAB-3eeb4ea3-1
     RDKit          3D

 18 19  0  0  0  0  0  0  0  0999 V2000
   13.4150   -2.6000   24.9510 O   0  0  0  0  0  0  0  0  0  0  0  0
   12.3230   -2.7220   24.4030 C   0  0  0  0  0  0  0  0  0  0  0  0
   11.4730   -3.7340   24.6590 O   0  0  0  0  0  0  0  0  0  0  0  0
   11.7800   -1.7710   23.3870 C   0  0  2  0  0  0  0  0  0  0  0  0
   12.6070   -0.6890   23.0540 C   0  0  1  0  0  0  0  0  0  0  0  0
   13.1120   -0.9780   21.9790 O   0  0  0  0  0  0  0  0  0  0  0  0
   12.1000    0.5990   22.9050 C   0  0  0  0  0  0  0  0  0  0  0  0
   10.7950    0.8480   22.7890 C   0  0  0  0  0  0  0  0  0  0  0  0
   10.3550    2.1710   22.6370 C   0  0  0  0  0  0  0  0  0  0  0  0
   11.0900    3.3580   22.5880 C   0  0  0  0  0  0  0  0  0  0  0  0
   12.5570    3.1390   22.7190 C   0  0  0  0  0  0  0  0  0  0  0  0
   13.4120    4.1960   22.6990 O   0  0  0  0  0  0  0  0  0  0  0  0
   12.9690    1.6740   22.8690 C   0  0  0  0  0  0  0  0  0  0  0  0
   10.4890   -1.4500   23.7280 N   0  0  0  0  0  0  0  0  0  0  0  0
   10.1260   -0.5850   24.7730 C   0  0  0  0  0  0  0  0  0  0  0  0
    8.6130   -0.5150   24.8050 C   0  0  0  0  0  0  0  0  0  0  0  0
    8.2640   -1.4230   23.6840 C   0  0  0  0  0  0  0  0  0  0  0  0
    9.3750   -1.9690   23.0550 C   0  0  0  0  0  0  0  0  0  0  0  0
  1  2  2  0
  2  3  1  0
  4  2  1  1
  4  5  1  0
  5  6  1  6
  5  7  1  0
  7  8  2  0
  8  9  1  0
  9 10  2  0
 10 11  1  0
 11 12  1  0
  7 13  1  0
 11 13  2  0
  4 14  1  0
 14 15  1  0
 15 16  2  0
 16 17  1  0
 14 18  1  0
 17 18  2  0
M  END
