HUN-WAB-7263dfed-1
     RDKit          3D

 14 14  0  0  0  0  0  0  0  0999 V2000
   10.6340   -1.0000   22.2300 N   0  0  0  0  0  0  0  0  0  0  0  0
   11.9210   -1.4750   22.7950 C   0  0  2  0  0  0  0  0  0  0  0  0
   11.6660   -2.3470   23.9880 C   0  0  0  0  0  0  0  0  0  0  0  0
   10.5520   -2.8300   24.1420 O   0  0  0  0  0  0  0  0  0  0  0  0
   12.5850   -2.5520   24.7730 O   0  0  0  0  0  0  0  0  0  0  0  0
   12.8210   -0.3020   23.2700 C   0  0  1  0  0  0  0  0  0  0  0  0
   13.8800   -0.1910   22.3540 O   0  0  0  0  0  0  0  0  0  0  0  0
   12.1930    0.9460   23.3200 C   0  0  0  0  0  0  0  0  0  0  0  0
   10.8770    1.0650   23.7780 C   0  0  0  0  0  0  0  0  0  0  0  0
   10.2210    2.2850   23.8320 C   0  0  0  0  0  0  0  0  0  0  0  0
   10.8260    3.4840   23.4300 C   0  0  0  0  0  0  0  0  0  0  0  0
   12.2390    3.4750   22.9210 C   0  0  0  0  0  0  0  0  0  0  0  0
   12.9030    4.6640   22.4960 O   0  0  0  0  0  0  0  0  0  0  0  0
   12.8880    2.0940   22.9050 C   0  0  0  0  0  0  0  0  0  0  0  0
  2  1  1  1
  2  3  1  0
  3  4  2  0
  3  5  1  0
  2  6  1  0
  6  7  1  6
  6  8  1  0
  8  9  2  0
  9 10  1  0
 10 11  2  0
 11 12  1  0
 12 13  1  0
  8 14  1  0
 12 14  2  0
M  END
