HUN-WAB-acb6a578-1
     RDKit          3D

  7  6  0  0  0  0  0  0  0  0999 V2000
    7.6130   -3.7540   24.5340 N   0  0  0  0  0  0  0  0  0  0  0  0
    8.8010   -3.0530   24.3330 C   0  0  0  0  0  0  0  0  0  0  0  0
    8.9290   -2.0720   23.1760 C   0  0  1  0  0  0  0  0  0  0  0  0
    9.9270   -2.2160   22.2800 N   0  0  0  0  0  0  0  0  0  0  0  0
    7.8270   -1.9010   22.4310 C   0  0  0  0  0  0  0  0  0  0  0  0
    6.9940   -2.8540   22.4380 O   0  0  0  0  0  0  0  0  0  0  0  0
    7.7620   -0.7980   21.8170 O   0  0  0  0  0  0  0  0  0  0  0  0
  1  2  1  0
  2  3  1  0
  3  4  1  6
  3  5  1  0
  5  6  2  0
  5  7  1  0
M  END
