IAN-BAS-0ac8c25d-1
     RDKit          3D

 30 33  0  0  0  0  0  0  0  0999 V2000
    2.1940    1.5320   20.5380 N   0  0  0  0  0  0  0  0  0  0  0  0
    3.4140    2.5950   20.1250 S   0  0  0  0  0  0  0  0  0  0  0  0
    3.8040    3.2390   21.3630 O   0  0  0  0  0  0  0  0  0  0  0  0
    2.8840    3.3570   19.0230 O   0  0  0  0  0  0  0  0  0  0  0  0
    4.7380    1.5540   19.5650 C   0  0  0  0  0  0  0  0  0  0  0  0
    5.1130    1.4990   18.0810 C   0  0  0  0  0  0  0  0  0  0  0  0
    6.1540    0.6830   17.6940 N   0  0  0  0  0  0  0  0  0  0  0  0
    6.7850   -0.0140   18.6490 C   0  0  0  0  0  0  0  0  0  0  0  0
    6.5040   -0.0110   19.9900 C   0  0  0  0  0  0  0  0  0  0  0  0
    7.2410   -0.7660   20.8180 N   0  0  0  0  0  0  0  0  0  0  0  0
    8.3220   -0.0190   21.4390 C   0  0  0  0  0  0  0  0  0  0  0  0
    8.7920    1.2340   21.0060 O   0  0  0  0  0  0  0  0  0  0  0  0
    8.8140   -0.6520   22.5320 N   0  0  0  0  0  0  0  0  0  0  0  0
   10.2390   -0.4030   22.6880 C   0  0  0  0  0  0  0  0  0  0  0  0
   10.6370    0.9090   22.8930 C   0  0  0  0  0  0  0  0  0  0  0  0
   11.9940    1.2140   23.0210 C   0  0  0  0  0  0  0  0  0  0  0  0
   12.9380    0.2150   22.9530 C   0  0  0  0  0  0  0  0  0  0  0  0
   12.5590   -1.1020   22.7510 C   0  0  0  0  0  0  0  0  0  0  0  0
   11.2070   -1.4160   22.6160 C   0  0  0  0  0  0  0  0  0  0  0  0
    7.9680   -0.6750   23.5930 C   0  0  0  0  0  0  0  0  0  0  0  0
    7.3380    0.7130   23.8240 C   0  0  0  0  0  0  0  0  0  0  0  0
    6.3390    0.8640   24.9730 C   0  0  0  0  0  0  0  0  0  0  0  0
    6.0030   -0.3350   25.8320 C   0  0  0  0  0  0  0  0  0  0  0  0
    5.0930   -0.2530   26.9000 C   0  0  0  0  0  0  0  0  0  0  0  0
    4.8080   -1.3700   27.6600 N   0  0  0  0  0  0  0  0  0  0  0  0
    5.3870   -2.6740   27.4420 C   0  0  0  0  0  0  0  0  0  0  0  0
    6.2860   -2.7990   26.4000 C   0  0  0  0  0  0  0  0  0  0  0  0
    6.6130   -1.5700   25.5570 C   0  0  0  0  0  0  0  0  0  0  0  0
    7.6320   -1.7760   24.4120 C   0  0  0  0  0  0  0  0  0  0  0  0
    5.4630    0.7770   20.4740 C   0  0  0  0  0  0  0  0  0  0  0  0
  2  1  1  0
  2  3  2  0
  2  4  2  0
  2  5  1  0
  5  6  2  0
  6  7  1  0
  7  8  2  0
  8  9  1  0
  9 10  1  0
 10 11  1  0
 11 12  2  0
 11 13  1  0
 13 14  1  0
 14 15  2  0
 15 16  1  0
 16 17  2  0
 17 18  1  0
 14 19  1  0
 18 19  2  0
 13 20  1  0
 20 21  2  0
 21 22  1  0
 22 23  2  0
 23 24  1  0
 24 25  2  0
 25 26  1  0
 26 27  2  0
 23 28  1  0
 27 28  1  0
 20 29  1  0
 28 29  2  0
  5 30  1  0
  9 30  2  0
M  END
