IAN-BAS-a5a0ad12-1
     RDKit          3D

 26 29  0  0  0  0  0  0  0  0999 V2000
    9.2110    1.4300   21.2800 O   0  0  0  0  0  0  0  0  0  0  0  0
    8.9510    0.2710   21.6430 C   0  0  0  0  0  0  0  0  0  0  0  0
    9.7900   -0.3140   22.5910 C   0  0  0  0  0  0  0  0  0  0  0  0
    9.9430   -1.0840   23.4200 C   0  0  0  0  0  0  0  0  0  0  0  0
   10.3680    0.0220   22.5240 O   0  0  0  0  0  0  0  0  0  0  0  0
   11.5640    0.4960   22.6120 C   0  0  0  0  0  0  0  0  0  0  0  0
   11.3610   -0.2920   23.2790 N   0  0  0  0  0  0  0  0  0  0  0  0
    7.8210   -0.4270   21.1500 N   0  0  0  0  0  0  0  0  0  0  0  0
    6.8970    0.1590   20.1830 C   0  0  0  0  0  0  0  0  0  0  0  0
    5.8090    0.9360   20.5590 C   0  0  0  0  0  0  0  0  0  0  0  0
    4.9610    1.4780   19.5990 C   0  0  0  0  0  0  0  0  0  0  0  0
    5.2430    1.2070   18.1270 C   0  0  0  0  0  0  0  0  0  0  0  0
    6.3200    0.4330   17.7960 N   0  0  0  0  0  0  0  0  0  0  0  0
    7.0520   -0.0290   18.8130 C   0  0  0  0  0  0  0  0  0  0  0  0
    7.1890   -1.4330   21.9130 C   0  0  0  0  0  0  0  0  0  0  0  0
    5.8890   -1.5150   22.1300 N   0  0  0  0  0  0  0  0  0  0  0  0
    5.6750   -2.6230   22.8950 C   0  0  0  0  0  0  0  0  0  0  0  0
    6.8740   -3.2700   23.1730 C   0  0  0  0  0  0  0  0  0  0  0  0
    7.1990   -4.3670   23.8560 O   0  0  0  0  0  0  0  0  0  0  0  0
    6.1630   -5.1400   24.3270 C   0  0  0  0  0  0  0  0  0  0  0  0
    5.5160   -6.0080   23.4390 C   0  0  0  0  0  0  0  0  0  0  0  0
    4.3720   -6.8620   23.9320 C   0  0  0  0  0  0  0  0  0  0  0  0
    3.9550   -6.8060   25.2590 C   0  0  0  0  0  0  0  0  0  0  0  0
    4.5920   -5.9490   26.1480 C   0  0  0  0  0  0  0  0  0  0  0  0
    5.7550   -5.0660   25.6610 C   0  0  0  0  0  0  0  0  0  0  0  0
    7.8220   -2.4950   22.5440 N   0  0  0  0  0  0  0  0  0  0  0  0
  1  2  2  0
  2  3  1  0
  3  4  2  0
  4  5  1  0
  5  6  1  0
  3  7  1  0
  6  7  2  0
  2  8  1  0
  8  9  1  0
  9 10  2  0
 10 11  1  0
 11 12  2  0
 12 13  1  0
  9 14  1  0
 13 14  2  0
  8 15  1  0
 15 16  2  0
 16 17  1  0
 17 18  2  0
 18 19  1  0
 19 20  1  0
 20 21  2  0
 21 22  1  0
 22 23  2  0
 23 24  1  0
 20 25  1  0
 24 25  2  0
 15 26  1  0
 18 26  1  0
M  END
