IAN-BAS-e945b602-1
     RDKit          3D

 25 27  0  0  0  0  0  0  0  0999 V2000
    8.9270    0.6830   21.4090 O   0  0  0  0  0  0  0  0  0  0  0  0
    8.4290   -0.4220   21.5990 C   0  0  0  0  0  0  0  0  0  0  0  0
    8.9280   -1.3690   22.4880 N   0  0  0  0  0  0  0  0  0  0  0  0
    8.3450   -1.7770   23.7210 C   0  0  0  0  0  0  0  0  0  0  0  0
    7.7050   -3.0300   23.7220 C   0  0  0  0  0  0  0  0  0  0  0  0
    7.9500   -3.9990   22.6800 N   0  0  0  0  0  0  0  0  0  0  0  0
    7.1560   -5.0010   23.0870 C   0  0  0  0  0  0  0  0  0  0  0  0
    6.4940   -4.6810   24.2480 C   0  0  0  0  0  0  0  0  0  0  0  0
    6.7870   -3.5080   24.6740 O   0  0  0  0  0  0  0  0  0  0  0  0
    7.2940   -0.9040   20.9650 N   0  0  0  0  0  0  0  0  0  0  0  0
    6.4930   -0.2150   20.1130 C   0  0  0  0  0  0  0  0  0  0  0  0
    6.9520   -0.0120   18.7090 C   0  0  0  0  0  0  0  0  0  0  0  0
    6.2340    0.6740   17.8010 N   0  0  0  0  0  0  0  0  0  0  0  0
    4.9480    1.2100   18.2670 C   0  0  0  0  0  0  0  0  0  0  0  0
    4.4550    1.0340   19.5760 C   0  0  0  0  0  0  0  0  0  0  0  0
    3.2260    1.5010   20.0950 N   0  0  0  0  0  0  0  0  0  0  0  0
    2.6900    2.7530   19.8750 C   0  0  0  0  0  0  0  0  0  0  0  0
    3.3020    3.7350   19.4840 O   0  0  0  0  0  0  0  0  0  0  0  0
    1.3280    2.9050   20.1380 C   0  0  0  0  0  0  0  0  0  0  0  0
    0.5310    3.7190   19.3260 C   0  0  0  0  0  0  0  0  0  0  0  0
   -0.9290    3.8280   19.6900 C   0  0  0  0  0  0  0  0  0  0  0  0
   -1.5030    3.2000   20.7270 N   0  0  0  0  0  0  0  0  0  0  0  0
   -0.6670    2.4310   21.4650 C   0  0  0  0  0  0  0  0  0  0  0  0
    0.7240    2.2570   21.2180 C   0  0  0  0  0  0  0  0  0  0  0  0
    5.2540    0.3140   20.4970 C   0  0  0  0  0  0  0  0  0  0  0  0
  1  2  2  0
  2  3  1  0
  3  4  1  0
  4  5  1  0
  5  6  2  0
  6  7  1  0
  7  8  2  0
  5  9  1  0
  8  9  1  0
  2 10  1  0
 10 11  1  0
 11 12  2  0
 12 13  1  0
 13 14  2  0
 14 15  1  0
 15 16  1  0
 16 17  1  0
 17 18  2  0
 17 19  1  0
 19 20  2  0
 20 21  1  0
 21 22  2  0
 22 23  1  0
 19 24  1  0
 23 24  2  0
 11 25  1  0
 15 25  2  0
M  END
