IAN-BAS-0bc4bd27-1
     RDKit          3D

 29 31  0  0  0  0  0  0  0  0999 V2000
    1.1770    2.7270   20.0070 N   0  0  0  0  0  0  0  0  0  0  0  0
    2.6140    2.6060   20.2950 C   0  0  0  0  0  0  0  0  0  0  0  0
    3.1960    3.1110   21.4910 O   0  0  0  0  0  0  0  0  0  0  0  0
    3.2190    1.9170   19.1780 N   0  0  0  0  0  0  0  0  0  0  0  0
    4.4600    1.2590   19.0820 C   0  0  0  0  0  0  0  0  0  0  0  0
    5.1580    1.2040   17.8810 C   0  0  0  0  0  0  0  0  0  0  0  0
    6.3510    0.5630   17.7450 N   0  0  0  0  0  0  0  0  0  0  0  0
    6.9830   -0.0990   18.8300 C   0  0  0  0  0  0  0  0  0  0  0  0
    6.2580   -0.0300   20.1210 C   0  0  0  0  0  0  0  0  0  0  0  0
    7.0190   -0.7100   21.1580 N   0  0  0  0  0  0  0  0  0  0  0  0
    8.1850   -0.0880   21.5190 C   0  0  0  0  0  0  0  0  0  0  0  0
    8.5760    1.1990   21.0080 O   0  0  0  0  0  0  0  0  0  0  0  0
    8.9750   -0.7820   22.4090 N   0  0  0  0  0  0  0  0  0  0  0  0
   10.2350   -0.2200   22.6250 C   0  0  0  0  0  0  0  0  0  0  0  0
   10.4440    1.2670   22.8200 C   0  0  0  0  0  0  0  0  0  0  0  0
   11.7980    1.8470   23.0010 C   0  0  0  0  0  0  0  0  0  0  0  0
   11.7590    3.3100   23.1440 N   0  0  0  0  0  0  0  0  0  0  0  0
   12.6730    4.1130   22.5060 N   0  0  0  0  0  0  0  0  0  0  0  0
   12.2840    5.3220   22.8990 C   0  0  0  0  0  0  0  0  0  0  0  0
   11.1820    5.2330   23.7360 C   0  0  0  0  0  0  0  0  0  0  0  0
   10.8270    3.9610   23.9070 N   0  0  0  0  0  0  0  0  0  0  0  0
   12.8910    1.0580   23.0060 C   0  0  0  0  0  0  0  0  0  0  0  0
   12.7000   -0.2890   22.8480 C   0  0  0  0  0  0  0  0  0  0  0  0
   11.4700   -0.9300   22.6670 C   0  0  0  0  0  0  0  0  0  0  0  0
   11.4960   -2.2140   22.5270 O   0  0  0  0  0  0  0  0  0  0  0  0
   12.8470   -2.5200   22.2110 C   0  0  0  0  0  0  0  0  0  0  0  0
   13.5560   -2.7010   23.3570 N   0  0  0  0  0  0  0  0  0  0  0  0
   13.3900   -2.6090   20.9660 O   0  0  0  0  0  0  0  0  0  0  0  0
    5.0180    0.6370   20.2170 C   0  0  0  0  0  0  0  0  0  0  0  0
  1  2  1  0
  2  3  2  0
  2  4  1  0
  4  5  1  0
  5  6  2  0
  6  7  1  0
  7  8  2  0
  8  9  1  0
  9 10  1  0
 10 11  1  0
 11 12  2  0
 11 13  1  0
 13 14  1  0
 14 15  2  0
 15 16  1  0
 16 17  1  0
 17 18  1  0
 18 19  2  0
 19 20  1  0
 17 21  1  0
 20 21  2  0
 16 22  2  0
 22 23  1  0
 14 24  1  0
 23 24  2  0
 24 25  1  0
 25 26  1  0
 26 27  1  0
 26 28  2  0
  5 29  1  0
  9 29  2  0
M  END
