IAN-BAS-df1706d7-1
     RDKit          3D

 22 23  0  0  0  0  0  0  0  0999 V2000
   13.1590   -2.7260   22.5730 C   0  0  0  0  0  0  0  0  0  0  0  0
   12.3690   -1.5600   22.0140 C   0  0  0  0  0  0  0  0  0  0  0  0
   13.4320   -0.5680   21.8070 C   0  0  0  0  0  0  0  0  0  0  0  0
   11.5180   -1.1140   22.8530 C   0  0  0  0  0  0  0  0  0  0  0  0
   12.0210   -0.8760   24.0700 C   0  0  0  0  0  0  0  0  0  0  0  0
   11.3080   -0.4340   25.0880 C   0  0  0  0  0  0  0  0  0  0  0  0
    9.9580   -0.1540   25.0190 C   0  0  0  0  0  0  0  0  0  0  0  0
    9.1410    0.3020   26.0910 C   0  0  0  0  0  0  0  0  0  0  0  0
    9.6080    0.1720   27.4630 N   0  0  0  0  0  0  0  0  0  0  0  0
    8.0250    0.7890   25.8870 O   0  0  0  0  0  0  0  0  0  0  0  0
    9.3460   -0.3550   23.7810 C   0  0  0  0  0  0  0  0  0  0  0  0
   10.0460   -0.8290   22.6730 C   0  0  0  0  0  0  0  0  0  0  0  0
    9.4630   -1.0370   21.5200 N   0  0  0  0  0  0  0  0  0  0  0  0
    8.5250   -0.0530   21.2820 C   0  0  0  0  0  0  0  0  0  0  0  0
    8.8120    1.3490   21.1600 O   0  0  0  0  0  0  0  0  0  0  0  0
    7.1550   -0.6640   21.1250 N   0  0  0  0  0  0  0  0  0  0  0  0
    6.4620   -0.0100   20.2060 C   0  0  0  0  0  0  0  0  0  0  0  0
    5.2880    0.7410   20.3330 C   0  0  0  0  0  0  0  0  0  0  0  0
    4.6810    1.3760   19.2700 C   0  0  0  0  0  0  0  0  0  0  0  0
    5.2380    1.2830   18.0200 C   0  0  0  0  0  0  0  0  0  0  0  0
    6.3640    0.5820   17.7920 N   0  0  0  0  0  0  0  0  0  0  0  0
    6.9360   -0.0410   18.8730 C   0  0  0  0  0  0  0  0  0  0  0  0
  1  2  1  0
  2  3  1  0
  2  4  1  0
  4  5  2  0
  5  6  1  0
  6  7  2  0
  7  8  1  0
  8  9  1  0
  8 10  2  0
  7 11  1  0
  4 12  1  0
 11 12  2  0
 12 13  1  0
 13 14  1  0
 14 15  2  0
 14 16  1  0
 16 17  1  0
 17 18  2  0
 18 19  1  0
 19 20  2  0
 20 21  1  0
 17 22  1  0
 21 22  2  0
M  END
