IAN-BAS-daf5a467-1
     RDKit          3D

 16 16  0  0  0  0  0  0  0  0999 V2000
    1.3340    2.2210   20.4200 C   0  0  0  0  0  0  0  0  0  0  0  0
    2.7210    2.0750   20.6990 O   0  0  0  0  0  0  0  0  0  0  0  0
    3.5810    2.2520   19.6450 C   0  0  0  0  0  0  0  0  0  0  0  0
    4.7200    1.4640   19.4030 C   0  0  0  0  0  0  0  0  0  0  0  0
    5.1690    1.2860   18.0990 C   0  0  0  0  0  0  0  0  0  0  0  0
    6.2400    0.5620   17.7260 N   0  0  0  0  0  0  0  0  0  0  0  0
    6.9150   -0.0220   18.7340 C   0  0  0  0  0  0  0  0  0  0  0  0
    6.5880    0.0760   20.0590 C   0  0  0  0  0  0  0  0  0  0  0  0
    7.3490   -0.5460   21.0670 N   0  0  0  0  0  0  0  0  0  0  0  0
    8.5290   -0.0440   21.5920 C   0  0  0  0  0  0  0  0  0  0  0  0
    9.0610    1.2100   21.2490 O   0  0  0  0  0  0  0  0  0  0  0  0
    9.2630   -0.9470   22.5960 C   0  0  0  0  0  0  0  0  0  0  0  0
    9.6020   -2.3240   22.0820 C   0  0  0  0  0  0  0  0  0  0  0  0
   10.5760   -0.2550   23.0320 C   0  0  0  0  0  0  0  0  0  0  0  0
    8.3350   -1.2310   23.7980 C   0  0  0  0  0  0  0  0  0  0  0  0
    5.4420    0.8420   20.4370 C   0  0  0  0  0  0  0  0  0  0  0  0
  1  2  1  0
  2  3  1  0
  3  4  1  0
  4  5  2  0
  5  6  1  0
  6  7  2  0
  7  8  1  0
  8  9  1  0
  9 10  1  0
 10 11  2  0
 12 10  1  0
 12 13  1  0
 12 14  1  0
 12 15  1  0
  4 16  1  0
  8 16  2  0
M  END
