IND-SYN-8f867502-2
     RDKit          3D

 15 16  0  0  0  0  0  0  0  0999 V2000
    9.8040   -0.5060   25.0230 C   0  0  0  0  0  0  0  0  0  0  0  0
   10.7050   -0.2930   23.9540 N   0  0  0  0  0  0  0  0  0  0  0  0
   11.6790   -1.3800   23.9200 C   0  0  0  0  0  0  0  0  0  0  0  0
   12.6350   -1.1070   22.9180 C   0  0  0  0  0  0  0  0  0  0  0  0
   13.3110   -0.0750   22.9490 O   0  0  0  0  0  0  0  0  0  0  0  0
   12.5060    1.0340   23.1450 C   0  0  0  0  0  0  0  0  0  0  0  0
   12.9540    2.4270   22.8470 C   0  0  0  0  0  0  0  0  0  0  0  0
   12.2660    3.6250   22.9830 C   0  0  0  0  0  0  0  0  0  0  0  0
   10.9610    3.5710   23.4770 C   0  0  0  0  0  0  0  0  0  0  0  0
   10.0160    5.0070   23.6880 S   0  0  0  0  0  0  0  0  0  0  0  0
   11.1760    6.1820   23.5230 N   0  0  0  0  0  0  0  0  0  0  0  0
    9.4420    5.1150   25.0150 O   0  0  0  0  0  0  0  0  0  0  0  0
    9.1280    5.1280   22.5660 O   0  0  0  0  0  0  0  0  0  0  0  0
   10.4150    2.1940   23.8170 C   0  0  0  0  0  0  0  0  0  0  0  0
   11.2150    0.9160   23.6410 C   0  0  0  0  0  0  0  0  0  0  0  0
  1  2  1  0
  2  3  1  0
  3  4  1  0
  4  5  1  0
  5  6  1  0
  6  7  1  0
  7  8  2  0
  8  9  1  0
  9 10  1  0
 10 11  1  0
 10 12  2  0
 10 13  2  0
  9 14  2  0
  2 15  1  0
  6 15  2  0
 14 15  1  0
M  END
