IND-SYN-8bc6954a-2
     RDKit          3D

 19 20  0  0  0  0  0  0  0  0999 V2000
    9.1770   -2.8240   22.3110 O   0  0  0  0  0  0  0  0  0  0  0  0
    8.9140   -1.4060   22.4670 S   0  0  0  0  0  0  0  0  0  0  0  0
    8.0620   -0.9020   23.5290 O   0  0  0  0  0  0  0  0  0  0  0  0
    8.3510   -0.7580   21.0210 N   0  0  0  0  0  0  0  0  0  0  0  0
    7.2020    0.1480   21.0470 C   0  0  0  0  0  0  0  0  0  0  0  0
    5.9280   -0.3480   20.7540 C   0  0  0  0  0  0  0  0  0  0  0  0
    4.9310    0.5520   20.3070 C   0  0  0  0  0  0  0  0  0  0  0  0
    4.5590    1.3500   19.1080 C   0  0  0  0  0  0  0  0  0  0  0  0
    5.2600    1.4280   17.8210 C   0  0  0  0  0  0  0  0  0  0  0  0
    6.3440    0.7380   17.6330 N   0  0  0  0  0  0  0  0  0  0  0  0
    6.8170   -0.0390   18.6130 C   0  0  0  0  0  0  0  0  0  0  0  0
    6.2070   -0.1650   19.8720 C   0  0  0  0  0  0  0  0  0  0  0  0
   10.4680   -0.5860   22.6570 C   0  0  0  0  0  0  0  0  0  0  0  0
   10.5250    0.7440   23.0150 C   0  0  0  0  0  0  0  0  0  0  0  0
   11.9230    1.3790   23.1500 C   0  0  0  0  0  0  0  0  0  0  0  0
   13.0490    0.6370   22.9220 C   0  0  0  0  0  0  0  0  0  0  0  0
   12.9230   -0.6990   22.5690 C   0  0  0  0  0  0  0  0  0  0  0  0
   11.6670   -1.2720   22.4440 C   0  0  0  0  0  0  0  0  0  0  0  0
   11.7390   -2.5800   22.0910 F   0  0  0  0  0  0  0  0  0  0  0  0
  1  2  2  0
  2  3  2  0
  2  4  1  0
  4  5  1  0
  5  6  1  0
  6  7  1  0
  7  8  2  0
  8  9  1  0
  9 10  2  0
 10 11  1  0
  7 12  1  0
 11 12  2  0
  2 13  1  0
 13 14  2  0
 14 15  1  0
 15 16  2  0
 16 17  1  0
 13 18  1  0
 17 18  2  0
 18 19  1  0
M  END
