IND-SYN-a2b2ab0e-4
     RDKit          3D

 17 18  0  0  0  0  0  0  0  0999 V2000
   13.0700   -1.5720   21.4820 C   0  0  0  0  0  0  0  0  0  0  0  0
   13.0210   -1.4290   22.9120 N   0  0  0  0  0  0  0  0  0  0  0  0
   13.5170   -2.5240   23.7170 C   0  0  0  0  0  0  0  0  0  0  0  0
   13.4020   -2.2620   25.1480 C   0  0  0  0  0  0  0  0  0  0  0  0
   12.8040   -0.9400   25.2140 N   0  0  0  0  0  0  0  0  0  0  0  0
   12.5910   -0.4430   23.9230 C   0  0  0  0  0  0  0  0  0  0  0  0
   12.0260    0.8260   23.6960 C   0  0  0  0  0  0  0  0  0  0  0  0
   10.6030    1.0450   24.1890 C   0  0  0  0  0  0  0  0  0  0  0  0
    9.9850    2.4300   23.9830 C   0  0  0  0  0  0  0  0  0  0  0  0
   10.8560    3.4510   23.3040 C   0  0  0  0  0  0  0  0  0  0  0  0
   12.1450    3.1450   22.8870 C   0  0  0  0  0  0  0  0  0  0  0  0
   12.7920    4.2960   22.2640 N   0  0  0  0  0  0  0  0  0  0  0  0
   12.3170    5.8820   22.7270 S   0  0  0  0  0  0  0  0  0  0  0  0
   12.0770    6.0210   24.5000 C   0  0  0  0  0  0  0  0  0  0  0  0
   13.3860    6.8280   22.2920 O   0  0  0  0  0  0  0  0  0  0  0  0
   10.9970    6.2260   22.1080 O   0  0  0  0  0  0  0  0  0  0  0  0
   12.7390    1.8810   23.0610 C   0  0  0  0  0  0  0  0  0  0  0  0
  1  2  1  0
  2  3  1  0
  3  4  2  0
  4  5  1  0
  2  6  1  0
  5  6  2  0
  6  7  1  0
  7  8  2  0
  8  9  1  0
  9 10  2  0
 10 11  1  0
 11 12  1  0
 13 12  1  0
 13 14  1  0
 13 15  2  0
 13 16  2  0
  7 17  1  0
 11 17  2  0
M  END
