IND-SYN-5e5c1c3e-4
     RDKit          3D

 17 18  0  0  0  0  0  0  0  0999 V2000
   13.0510   -1.8350   21.0200 C   0  0  0  0  0  0  0  0  0  0  0  0
   13.0640   -1.5740   22.4310 N   0  0  0  0  0  0  0  0  0  0  0  0
   13.6580   -2.5920   23.2740 C   0  0  0  0  0  0  0  0  0  0  0  0
   13.6190   -2.2530   24.6870 C   0  0  0  0  0  0  0  0  0  0  0  0
   12.9760   -0.9710   24.6870 N   0  0  0  0  0  0  0  0  0  0  0  0
   12.6350   -0.5490   23.4000 C   0  0  0  0  0  0  0  0  0  0  0  0
   11.9370    0.6690   23.1960 C   0  0  0  0  0  0  0  0  0  0  0  0
   10.4400    0.4130   23.3230 C   0  0  0  0  0  0  0  0  0  0  0  0
    9.4830    1.5830   23.2040 C   0  0  0  0  0  0  0  0  0  0  0  0
   10.0970    2.9080   22.9610 C   0  0  0  0  0  0  0  0  0  0  0  0
   11.4520    3.0820   22.8430 C   0  0  0  0  0  0  0  0  0  0  0  0
   11.5420    4.5200   22.6110 N   0  0  0  0  0  0  0  0  0  0  0  0
   13.0030    5.3140   22.6800 S   0  0  0  0  0  0  0  0  0  0  0  0
   13.7250    4.6680   21.2550 C   0  0  0  0  0  0  0  0  0  0  0  0
   12.8230    6.8010   22.6200 O   0  0  0  0  0  0  0  0  0  0  0  0
   13.8530    4.7920   23.7820 O   0  0  0  0  0  0  0  0  0  0  0  0
   12.4250    2.0240   22.9450 C   0  0  0  0  0  0  0  0  0  0  0  0
  1  2  1  0
  2  3  1  0
  3  4  2  0
  4  5  1  0
  2  6  1  0
  5  6  2  0
  6  7  1  0
  7  8  2  0
  8  9  1  0
  9 10  2  0
 10 11  1  0
 11 12  1  0
 13 12  1  0
 13 14  1  0
 13 15  2  0
 13 16  2  0
  7 17  1  0
 11 17  2  0
M  END
