IND-SYN-830dcead-1
     RDKit          3D

 16 17  0  0  0  0  0  0  0  0999 V2000
   13.6060   -2.6480   24.2880 C   0  0  0  0  0  0  0  0  0  0  0  0
   12.5070   -1.7830   23.9650 N   0  0  0  0  0  0  0  0  0  0  0  0
   11.2490   -2.4500   23.7280 C   0  0  0  0  0  0  0  0  0  0  0  0
   10.2880   -1.4880   23.4350 C   0  0  0  0  0  0  0  0  0  0  0  0
   11.0950   -0.3010   23.5370 N   0  0  0  0  0  0  0  0  0  0  0  0
   12.5110   -0.2800   23.8610 C   0  0  0  0  0  0  0  0  0  0  0  0
   11.9890    0.9840   23.6710 C   0  0  0  0  0  0  0  0  0  0  0  0
   10.5680    1.1650   24.1790 C   0  0  0  0  0  0  0  0  0  0  0  0
    9.9370    2.5330   24.0750 C   0  0  0  0  0  0  0  0  0  0  0  0
   10.7810    3.6180   23.4830 C   0  0  0  0  0  0  0  0  0  0  0  0
    9.9720    5.1360   23.5210 S   0  0  0  0  0  0  0  0  0  0  0  0
    8.6990    5.0200   22.4440 N   0  0  0  0  0  0  0  0  0  0  0  0
   10.8870    6.2700   23.1360 O   0  0  0  0  0  0  0  0  0  0  0  0
    9.3540    5.3190   24.9020 O   0  0  0  0  0  0  0  0  0  0  0  0
   12.0710    3.4030   22.9950 C   0  0  0  0  0  0  0  0  0  0  0  0
   12.6810    2.1440   23.0670 C   0  0  0  0  0  0  0  0  0  0  0  0
  1  2  1  0
  2  3  1  0
  3  4  2  0
  4  5  1  0
  2  6  1  0
  5  6  2  0
  6  7  1  0
  7  8  2  0
  8  9  1  0
  9 10  2  0
 10 11  1  0
 11 12  1  0
 11 13  2  0
 11 14  2  0
 10 15  1  0
  7 16  1  0
 15 16  2  0
M  END
