IND-SYN-a2b2ab0e-1
     RDKit          3D

 15 16  0  0  0  0  0  0  0  0999 V2000
    8.9260    5.1670   22.6360 N   0  0  0  0  0  0  0  0  0  0  0  0
   10.2960    5.2790   23.5870 S   0  0  0  0  0  0  0  0  0  0  0  0
   11.2210    6.1660   22.9190 O   0  0  0  0  0  0  0  0  0  0  0  0
    9.8160    5.5920   24.9170 O   0  0  0  0  0  0  0  0  0  0  0  0
   10.9080    3.6150   23.5700 C   0  0  0  0  0  0  0  0  0  0  0  0
   10.0530    2.5150   24.1800 C   0  0  0  0  0  0  0  0  0  0  0  0
   10.5630    1.2210   24.1910 C   0  0  0  0  0  0  0  0  0  0  0  0
   11.8090    0.8910   23.6710 C   0  0  0  0  0  0  0  0  0  0  0  0
   12.1630   -0.4510   23.7970 C   0  0  0  0  0  0  0  0  0  0  0  0
   13.4070   -0.9590   23.9470 N   0  0  0  0  0  0  0  0  0  0  0  0
   13.2340   -2.2730   24.0540 C   0  0  0  0  0  0  0  0  0  0  0  0
   11.8840   -2.4750   23.9580 C   0  0  0  0  0  0  0  0  0  0  0  0
   11.1800   -1.4850   23.8060 O   0  0  0  0  0  0  0  0  0  0  0  0
   12.6440    1.8620   23.0720 C   0  0  0  0  0  0  0  0  0  0  0  0
   12.2590    3.2210   22.9890 C   0  0  0  0  0  0  0  0  0  0  0  0
  2  1  1  0
  2  3  2  0
  2  4  2  0
  2  5  1  0
  5  6  2  0
  6  7  1  0
  7  8  2  0
  8  9  1  0
  9 10  2  0
 10 11  1  0
 11 12  2  0
  9 13  1  0
 12 13  1  0
  8 14  1  0
  5 15  1  0
 14 15  2  0
M  END
