IND-SYN-5e5c1c3e-1
     RDKit          3D

 16 17  0  0  0  0  0  0  0  0999 V2000
   13.4800   -2.5100   24.3060 C   0  0  0  0  0  0  0  0  0  0  0  0
   12.5290   -1.6910   23.5960 N   0  0  0  0  0  0  0  0  0  0  0  0
   11.6330   -2.2630   22.7350 C   0  0  0  0  0  0  0  0  0  0  0  0
   10.8510   -1.2730   22.2120 C   0  0  0  0  0  0  0  0  0  0  0  0
   11.2540   -0.1610   22.7330 N   0  0  0  0  0  0  0  0  0  0  0  0
   12.4180   -0.2700   23.7180 C   0  0  0  0  0  0  0  0  0  0  0  0
   12.0150    1.0240   23.5750 C   0  0  0  0  0  0  0  0  0  0  0  0
   10.7290    1.2250   24.0380 C   0  0  0  0  0  0  0  0  0  0  0  0
   10.0500    2.4400   24.0540 C   0  0  0  0  0  0  0  0  0  0  0  0
   10.7940    3.6800   23.5260 C   0  0  0  0  0  0  0  0  0  0  0  0
    9.9880    5.2530   23.6130 S   0  0  0  0  0  0  0  0  0  0  0  0
    8.7340    5.1180   22.5150 N   0  0  0  0  0  0  0  0  0  0  0  0
   10.8770    6.2900   23.1290 O   0  0  0  0  0  0  0  0  0  0  0  0
    9.3230    5.3430   24.9040 O   0  0  0  0  0  0  0  0  0  0  0  0
   12.1950    3.4600   22.9870 C   0  0  0  0  0  0  0  0  0  0  0  0
   12.7590    2.0680   23.0440 C   0  0  0  0  0  0  0  0  0  0  0  0
  1  2  1  0
  2  3  1  0
  3  4  2  0
  4  5  1  0
  2  6  1  0
  5  6  2  0
  6  7  1  0
  7  8  2  0
  8  9  1  0
  9 10  2  0
 10 11  1  0
 11 12  1  0
 11 13  2  0
 11 14  2  0
 10 15  1  0
  7 16  1  0
 15 16  2  0
M  END
