IND-SYN-8f867502-1
     RDKit          3D

 17 18  0  0  0  0  0  0  0  0999 V2000
    9.5330   -0.2000   25.1720 C   0  0  0  0  0  0  0  0  0  0  0  0
   10.2330   -0.2480   24.0170 N   0  0  0  0  0  0  0  0  0  0  0  0
   10.7630   -1.5190   23.8800 C   0  0  0  0  0  0  0  0  0  0  0  0
   11.5800   -1.6610   22.7460 C   0  0  0  0  0  0  0  0  0  0  0  0
   13.0860   -0.6910   22.9280 S   0  0  0  0  0  0  0  0  0  0  0  0
   13.6620   -1.1280   24.1730 O   0  0  0  0  0  0  0  0  0  0  0  0
   13.7110   -0.7330   21.6380 O   0  0  0  0  0  0  0  0  0  0  0  0
   12.2360    0.8920   23.1820 C   0  0  0  0  0  0  0  0  0  0  0  0
   12.9060    2.1790   22.8650 C   0  0  0  0  0  0  0  0  0  0  0  0
   12.1970    3.3600   23.0430 C   0  0  0  0  0  0  0  0  0  0  0  0
   10.8890    3.3810   23.5220 C   0  0  0  0  0  0  0  0  0  0  0  0
   10.0210    4.9390   23.7290 S   0  0  0  0  0  0  0  0  0  0  0  0
   11.2550    6.0600   23.6650 N   0  0  0  0  0  0  0  0  0  0  0  0
    9.3640    5.0300   25.0160 O   0  0  0  0  0  0  0  0  0  0  0  0
    9.2350    5.1720   22.5590 O   0  0  0  0  0  0  0  0  0  0  0  0
   10.2830    2.1490   23.8340 C   0  0  0  0  0  0  0  0  0  0  0  0
   10.9650    0.9270   23.6590 C   0  0  0  0  0  0  0  0  0  0  0  0
  1  2  1  0
  2  3  1  0
  3  4  1  0
  5  4  1  0
  5  6  2  0
  5  7  2  0
  5  8  1  0
  8  9  1  0
  9 10  2  0
 10 11  1  0
 11 12  1  0
 12 13  1  0
 12 14  2  0
 12 15  2  0
 11 16  2  0
  2 17  1  0
  8 17  2  0
 16 17  1  0
M  END
