IND-SYN-5e5c1c3e-3
     RDKit          3D

 16 17  0  0  0  0  0  0  0  0999 V2000
   13.6420   -2.6640   24.5310 C   0  0  0  0  0  0  0  0  0  0  0  0
   12.4620   -1.3190   24.4900 S   0  0  0  0  0  0  0  0  0  0  0  0
   12.7140   -0.5300   25.6560 O   0  0  0  0  0  0  0  0  0  0  0  0
   11.1630   -1.8750   24.1710 O   0  0  0  0  0  0  0  0  0  0  0  0
   12.9770   -0.2690   23.2830 N   0  0  0  0  0  0  0  0  0  0  0  0
   12.2260    0.9780   23.3570 C   0  0  0  0  0  0  0  0  0  0  0  0
   10.8110    0.7650   23.9170 C   0  0  0  0  0  0  0  0  0  0  0  0
    9.9840    1.8720   24.0430 C   0  0  0  0  0  0  0  0  0  0  0  0
   10.3940    3.1370   23.6840 C   0  0  0  0  0  0  0  0  0  0  0  0
   11.6450    3.3690   23.1890 C   0  0  0  0  0  0  0  0  0  0  0  0
   12.1390    4.5800   22.8270 C   0  0  0  0  0  0  0  0  0  0  0  0
   12.8250    4.8470   21.6890 N   0  0  0  0  0  0  0  0  0  0  0  0
   13.0220    6.1530   21.8980 C   0  0  0  0  0  0  0  0  0  0  0  0
   12.4240    6.5710   23.1860 C   0  0  0  0  0  0  0  0  0  0  0  0
   11.8980    5.6240   23.7300 O   0  0  0  0  0  0  0  0  0  0  0  0
   12.6550    2.2450   22.9960 C   0  0  0  0  0  0  0  0  0  0  0  0
  1  2  1  0
  2  3  2  0
  2  4  2  0
  2  5  1  0
  5  6  1  0
  6  7  2  0
  7  8  1  0
  8  9  2  0
  9 10  1  0
 10 11  1  0
 11 12  2  0
 12 13  1  0
 13 14  2  0
 11 15  1  0
 14 15  1  0
  6 16  1  0
 10 16  2  0
M  END
