IND-SYN-2c708b29-2
     RDKit          3D

 12 12  0  0  0  0  0  0  0  0999 V2000
    5.5620    0.7180   22.0210 C   0  0  0  0  0  0  0  0  0  0  0  0
    5.8750    0.5440   20.5340 C   0  0  0  0  0  0  0  0  0  0  0  0
    4.9270    1.0800   19.6500 C   0  0  0  0  0  0  0  0  0  0  0  0
    5.1340    0.9720   18.2850 C   0  0  0  0  0  0  0  0  0  0  0  0
    6.2000    0.3670   17.7660 N   0  0  0  0  0  0  0  0  0  0  0  0
    7.0900   -0.1400   18.6460 C   0  0  0  0  0  0  0  0  0  0  0  0
    7.0080   -0.0940   20.0100 C   0  0  0  0  0  0  0  0  0  0  0  0
    8.0410   -0.6650   20.7670 N   0  0  0  0  0  0  0  0  0  0  0  0
    8.8080    0.2830   21.9500 S   0  0  0  0  0  0  0  0  0  0  0  0
   10.2550   -0.6890   22.3060 C   0  0  0  0  0  0  0  0  0  0  0  0
    9.2200    1.5050   21.2730 O   0  0  0  0  0  0  0  0  0  0  0  0
    7.9870    0.3490   23.1330 O   0  0  0  0  0  0  0  0  0  0  0  0
  1  2  1  0
  2  3  2  0
  3  4  1  0
  4  5  2  0
  5  6  1  0
  2  7  1  0
  6  7  2  0
  7  8  1  0
  9  8  1  0
  9 10  1  0
  9 11  2  0
  9 12  2  0
M  END
