IND-SYN-5e5c1c3e-2
     RDKit          3D

 15 16  0  0  0  0  0  0  0  0999 V2000
    8.8680    5.0960   22.6620 N   0  0  0  0  0  0  0  0  0  0  0  0
   10.2310    5.2410   23.6390 S   0  0  0  0  0  0  0  0  0  0  0  0
   11.1550    6.1860   23.0470 O   0  0  0  0  0  0  0  0  0  0  0  0
    9.7150    5.5140   24.9700 O   0  0  0  0  0  0  0  0  0  0  0  0
   10.9240    3.5960   23.5800 C   0  0  0  0  0  0  0  0  0  0  0  0
   10.2020    2.5200   24.1080 C   0  0  0  0  0  0  0  0  0  0  0  0
   10.7370    1.2280   24.0920 C   0  0  0  0  0  0  0  0  0  0  0  0
   12.0030    0.9870   23.5490 C   0  0  0  0  0  0  0  0  0  0  0  0
   12.5000   -0.2600   23.5590 C   0  0  0  0  0  0  0  0  0  0  0  0
   12.8880   -1.0270   24.6240 N   0  0  0  0  0  0  0  0  0  0  0  0
   13.3220   -2.2670   24.0860 C   0  0  0  0  0  0  0  0  0  0  0  0
   13.1580   -2.1530   22.7050 C   0  0  0  0  0  0  0  0  0  0  0  0
   12.6440   -0.8720   22.4630 O   0  0  0  0  0  0  0  0  0  0  0  0
   12.7140    2.0690   23.0150 C   0  0  0  0  0  0  0  0  0  0  0  0
   12.1900    3.3770   23.0190 C   0  0  0  0  0  0  0  0  0  0  0  0
  2  1  1  0
  2  3  2  0
  2  4  2  0
  2  5  1  0
  5  6  2  0
  6  7  1  0
  7  8  2  0
  8  9  1  0
  9 10  2  0
 10 11  1  0
 11 12  2  0
  9 13  1  0
 12 13  1  0
  8 14  1  0
  5 15  1  0
 14 15  2  0
M  END
