IND-SYN-2c708b29-1
     RDKit          3D

 13 14  0  0  0  0  0  0  0  0999 V2000
    5.3770    0.3550   22.0620 C   0  0  0  0  0  0  0  0  0  0  0  0
    5.6400    0.3560   20.7430 C   0  0  0  0  0  0  0  0  0  0  0  0
    6.8930   -0.1800   20.2120 C   0  0  0  0  0  0  0  0  0  0  0  0
    7.1160   -0.1480   18.7050 C   0  0  0  0  0  0  0  0  0  0  0  0
    6.2050    0.3630   17.8750 N   0  0  0  0  0  0  0  0  0  0  0  0
    5.0560    0.8480   18.4210 C   0  0  0  0  0  0  0  0  0  0  0  0
    4.7340    0.8630   19.7950 C   0  0  0  0  0  0  0  0  0  0  0  0
    3.4820    1.3890   20.2150 N   0  0  0  0  0  0  0  0  0  0  0  0
    2.7640    0.8620   21.2640 C   0  0  0  0  0  0  0  0  0  0  0  0
    1.5160    1.7200   21.3490 C   0  0  0  0  0  0  0  0  0  0  0  0
    1.5810    2.6620   20.3800 N   0  0  0  0  0  0  0  0  0  0  0  0
    2.7270    2.4650   19.7250 C   0  0  0  0  0  0  0  0  0  0  0  0
    3.1410    3.3360   18.5780 C   0  0  0  0  0  0  0  0  0  0  0  0
  1  2  1  0
  2  3  2  0
  3  4  1  0
  4  5  2  0
  5  6  1  0
  2  7  1  0
  6  7  2  0
  7  8  1  0
  8  9  1  0
  9 10  2  0
 10 11  1  0
  8 12  1  0
 11 12  2  0
 12 13  1  0
M  END
