IND-SYN-35527f5a-1
     RDKit          3D

 18 20  0  0  0  0  0  0  0  0999 V2000
   10.7080   -3.1010   23.2900 O   0  0  0  0  0  0  0  0  0  0  0  0
   10.2680   -2.1770   22.6270 C   0  0  0  0  0  0  0  0  0  0  0  0
    9.0730   -2.2720   21.8410 N   0  0  0  0  0  0  0  0  0  0  0  0
    8.2940   -1.0380   21.8800 C   0  0  0  0  0  0  0  0  0  0  0  0
    7.0710   -1.0020   21.2170 N   0  0  0  0  0  0  0  0  0  0  0  0
    6.5000   -0.2150   20.1700 C   0  0  0  0  0  0  0  0  0  0  0  0
    5.3630    0.5450   20.4600 C   0  0  0  0  0  0  0  0  0  0  0  0
    4.7930    1.3390   19.3240 C   0  0  0  0  0  0  0  0  0  0  0  0
    5.3660    1.3170   18.0720 C   0  0  0  0  0  0  0  0  0  0  0  0
    6.4580    0.5790   17.8310 N   0  0  0  0  0  0  0  0  0  0  0  0
    6.9820   -0.1530   18.8560 C   0  0  0  0  0  0  0  0  0  0  0  0
    8.6700    0.0750   22.5670 N   0  0  0  0  0  0  0  0  0  0  0  0
   10.0320    0.2660   22.7290 C   0  0  0  0  0  0  0  0  0  0  0  0
   10.7290    1.5760   22.8940 C   0  0  0  0  0  0  0  0  0  0  0  0
   12.1360    1.5860   23.0420 C   0  0  0  0  0  0  0  0  0  0  0  0
   12.9150    0.4140   23.0380 C   0  0  0  0  0  0  0  0  0  0  0  0
   12.3650   -0.8550   22.8980 C   0  0  0  0  0  0  0  0  0  0  0  0
   10.9970   -0.9040   22.7570 C   0  0  0  0  0  0  0  0  0  0  0  0
  1  2  2  0
  2  3  1  0
  3  4  2  0
  4  5  1  0
  5  6  1  0
  6  7  2  0
  7  8  1  0
  8  9  2  0
  9 10  1  0
  6 11  1  0
 10 11  2  0
  4 12  1  0
 12 13  1  0
 13 14  1  0
 14 15  2  0
 15 16  1  0
 16 17  2  0
  2 18  1  0
 13 18  2  0
 17 18  1  0
M  END
