IND-SYN-8bc6954a-1
     RDKit          3D

 19 21  0  0  0  0  0  0  0  0999 V2000
   13.2900    0.7500   23.2310 F   0  0  0  0  0  0  0  0  0  0  0  0
   12.0350    1.1530   23.0830 C   0  0  0  0  0  0  0  0  0  0  0  0
   11.8230    2.4510   22.7820 C   0  0  0  0  0  0  0  0  0  0  0  0
   10.5310    2.8660   22.6290 C   0  0  0  0  0  0  0  0  0  0  0  0
    9.4820    1.9650   22.7740 C   0  0  0  0  0  0  0  0  0  0  0  0
    9.6860    0.7080   23.0700 C   0  0  0  0  0  0  0  0  0  0  0  0
   10.9980    0.3060   23.2390 C   0  0  0  0  0  0  0  0  0  0  0  0
   11.3700   -0.8560   23.5770 C   0  0  0  0  0  0  0  0  0  0  0  0
   12.4580   -1.1880   23.1240 N   0  0  0  0  0  0  0  0  0  0  0  0
   12.5900   -2.3210   23.6610 C   0  0  0  0  0  0  0  0  0  0  0  0
   13.6760   -2.8230   23.2950 C   0  0  0  0  0  0  0  0  0  0  0  0
   13.4480   -3.2980   22.0460 C   0  0  0  0  0  0  0  0  0  0  0  0
   14.2110   -4.2260   21.3950 C   0  0  0  0  0  0  0  0  0  0  0  0
   14.1120   -4.7130   20.3940 C   0  0  0  0  0  0  0  0  0  0  0  0
   13.1250   -4.3910   19.6110 N   0  0  0  0  0  0  0  0  0  0  0  0
   12.2880   -3.4980   20.1200 C   0  0  0  0  0  0  0  0  0  0  0  0
   12.2670   -2.8200   21.2970 C   0  0  0  0  0  0  0  0  0  0  0  0
   11.5680   -2.6450   24.4250 C   0  0  0  0  0  0  0  0  0  0  0  0
   10.7330   -1.5950   24.3340 O   0  0  0  0  0  0  0  0  0  0  0  0
  1  2  1  0
  2  3  2  0
  3  4  1  0
  4  5  2  0
  5  6  1  0
  2  7  1  0
  6  7  2  0
  7  8  1  0
  8  9  2  0
  9 10  1  0
 10 11  1  0
 11 12  1  0
 12 13  2  0
 13 14  1  0
 14 15  2  0
 15 16  1  0
 12 17  1  0
 16 17  2  0
 10 18  2  0
  8 19  1  0
 18 19  1  0
M  END
