IND-SYN-3aa4e743-1
     RDKit          3D

 20 22  0  0  0  0  0  0  0  0999 V2000
    5.4790   -4.5310   20.1420 O   0  0  0  0  0  0  0  0  0  0  0  0
    6.3210   -4.1960   20.9930 C   0  0  0  0  0  0  0  0  0  0  0  0
    7.1770   -2.9920   20.6850 C   0  0  0  0  0  0  0  0  0  0  0  0
    7.4140   -1.8500   21.4520 C   0  0  0  0  0  0  0  0  0  0  0  0
    6.5670   -0.9110   21.9470 C   0  0  0  0  0  0  0  0  0  0  0  0
    7.1550    0.0800   22.6100 N   0  0  0  0  0  0  0  0  0  0  0  0
    8.5050   -0.1730   22.5810 C   0  0  0  0  0  0  0  0  0  0  0  0
    9.5400    0.6900   23.1860 N   0  0  0  0  0  0  0  0  0  0  0  0
   10.9430    0.1940   23.0280 C   0  0  0  0  0  0  0  0  0  0  0  0
   11.2230   -1.0070   22.3530 C   0  0  0  0  0  0  0  0  0  0  0  0
   10.1140   -1.8380   21.7520 C   0  0  0  0  0  0  0  0  0  0  0  0
    8.6950   -1.3760   21.8800 C   0  0  0  0  0  0  0  0  0  0  0  0
    6.6080   -4.8730   22.1650 N   0  0  0  0  0  0  0  0  0  0  0  0
    5.7760   -5.9240   22.5170 C   0  0  0  0  0  0  0  0  0  0  0  0
    4.7560   -5.6140   23.4210 C   0  0  0  0  0  0  0  0  0  0  0  0
    5.3560   -4.8620   24.8590 S   0  0  0  0  0  0  0  0  0  0  0  0
    6.0520   -5.8220   25.6700 O   0  0  0  0  0  0  0  0  0  0  0  0
    4.3040   -4.0270   25.4010 O   0  0  0  0  0  0  0  0  0  0  0  0
    6.5170   -3.8220   24.1230 C   0  0  0  0  0  0  0  0  0  0  0  0
    7.3890   -4.4480   23.2390 C   0  0  0  0  0  0  0  0  0  0  0  0
  1  2  2  0
  2  3  1  0
  3  4  1  0
  4  5  2  0
  5  6  1  0
  6  7  1  0
  7  8  1  0
  8  9  2  0
  9 10  1  0
 10 11  2  0
  4 12  1  0
  7 12  2  0
 11 12  1  0
  2 13  1  0
 13 14  1  0
 14 15  1  0
 16 15  1  0
 16 17  2  0
 16 18  2  0
 16 19  1  0
 13 20  1  0
 19 20  1  0
M  END
