IND-SYN-a2b2ab0e-2
     RDKit          3D

 16 17  0  0  0  0  0  0  0  0999 V2000
   13.5930   -2.6250   24.4200 C   0  0  0  0  0  0  0  0  0  0  0  0
   12.5440   -1.8810   24.0510 N   0  0  0  0  0  0  0  0  0  0  0  0
   11.4840   -2.6120   23.8510 C   0  0  0  0  0  0  0  0  0  0  0  0
   10.5140   -1.8050   23.4970 C   0  0  0  0  0  0  0  0  0  0  0  0
   11.0030   -0.5950   23.4940 N   0  0  0  0  0  0  0  0  0  0  0  0
   12.4030   -0.4090   23.8570 C   0  0  0  0  0  0  0  0  0  0  0  0
   12.0340    1.0170   23.6080 C   0  0  0  0  0  0  0  0  0  0  0  0
   10.7740    1.2870   24.0660 C   0  0  0  0  0  0  0  0  0  0  0  0
   10.2070    2.5250   24.0070 C   0  0  0  0  0  0  0  0  0  0  0  0
   10.8280    3.6550   23.4910 C   0  0  0  0  0  0  0  0  0  0  0  0
    9.9780    5.2220   23.5680 S   0  0  0  0  0  0  0  0  0  0  0  0
    8.7240    5.0620   22.4770 N   0  0  0  0  0  0  0  0  0  0  0  0
   10.8880    6.2500   23.0890 O   0  0  0  0  0  0  0  0  0  0  0  0
    9.3320    5.3030   24.8810 O   0  0  0  0  0  0  0  0  0  0  0  0
   12.1210    3.4600   22.9660 C   0  0  0  0  0  0  0  0  0  0  0  0
   12.7690    2.0390   23.0270 C   0  0  0  0  0  0  0  0  0  0  0  0
  1  2  1  0
  2  3  1  0
  3  4  2  0
  4  5  1  0
  2  6  1  0
  5  6  2  0
  6  7  1  0
  7  8  2  0
  8  9  1  0
  9 10  2  0
 10 11  1  0
 11 12  1  0
 11 13  2  0
 11 14  2  0
 10 15  1  0
  7 16  1  0
 15 16  2  0
M  END
