ISA-SCH-8e98219b-4
     RDKit          3D

 16 17  0  0  0  0  0  0  0  0999 V2000
    8.2620    0.8030   21.3130 N   0  0  0  0  0  0  0  0  0  0  0  0
    7.8010   -0.5460   21.6740 C   0  0  0  0  0  0  0  0  0  0  0  0
    6.7430   -1.0170   20.9720 N   0  0  0  0  0  0  0  0  0  0  0  0
    6.1790   -0.1960   19.9890 C   0  0  0  0  0  0  0  0  0  0  0  0
    4.9600    0.6020   20.1910 C   0  0  0  0  0  0  0  0  0  0  0  0
    4.4630    1.4720   19.0130 C   0  0  0  0  0  0  0  0  0  0  0  0
    5.1710    1.4700   17.8340 C   0  0  0  0  0  0  0  0  0  0  0  0
    6.2880    0.6890   17.7530 N   0  0  0  0  0  0  0  0  0  0  0  0
    6.7800   -0.0970   18.7430 C   0  0  0  0  0  0  0  0  0  0  0  0
    8.4670   -1.2010   22.6550 N   0  0  0  0  0  0  0  0  0  0  0  0
    9.7120   -0.7130   22.9250 C   0  0  0  0  0  0  0  0  0  0  0  0
   10.1010    0.2740   23.9180 C   0  0  0  0  0  0  0  0  0  0  0  0
   11.7790    0.5560   23.7910 S   0  0  0  0  0  0  0  0  0  0  0  0
   12.2000   -0.5280   22.4830 C   0  0  0  0  0  0  0  0  0  0  0  0
   13.4530    0.3380   23.0750 Cl  0  0  0  0  0  0  0  0  0  0  0  0
   10.8110   -1.1020   22.2320 C   0  0  0  0  0  0  0  0  0  0  0  0
  1  2  2  3
  2  3  1  0
  3  4  1  0
  4  5  2  0
  5  6  1  0
  6  7  2  0
  7  8  1  0
  4  9  1  0
  8  9  2  0
  2 10  1  0
 10 11  1  0
 11 12  2  0
 12 13  1  0
 13 14  1  0
 14 15  1  0
 11 16  1  0
 14 16  2  0
M  END
