ISA-SCH-8e98219b-3
     RDKit          3D

 20 21  0  0  0  0  0  0  0  0999 V2000
    3.4380    3.0310   18.7560 C   0  0  0  0  0  0  0  0  0  0  0  0
    2.5120    2.6520   19.8740 C   0  0  0  0  0  0  0  0  0  0  0  0
    1.2870    2.7560   19.7940 O   0  0  0  0  0  0  0  0  0  0  0  0
    3.1680    2.1880   20.9700 N   0  0  0  0  0  0  0  0  0  0  0  0
    3.0860    0.8610   21.1360 C   0  0  0  0  0  0  0  0  0  0  0  0
    3.8420    0.2230   22.2400 C   0  0  0  0  0  0  0  0  0  0  0  0
    4.8150    1.0260   22.8280 N   0  0  0  0  0  0  0  0  0  0  0  0
    6.1540    0.4310   22.7520 C   0  0  0  0  0  0  0  0  0  0  0  0
    6.8190    0.4040   21.5320 N   0  0  0  0  0  0  0  0  0  0  0  0
    8.1740    0.5080   21.5300 C   0  0  0  0  0  0  0  0  0  0  0  0
    8.6940    1.6750   21.2980 N   0  0  0  0  0  0  0  0  0  0  0  0
    8.7640   -0.6740   21.7950 N   0  0  0  0  0  0  0  0  0  0  0  0
    9.9910   -0.8590   22.2820 C   0  0  0  0  0  0  0  0  0  0  0  0
   10.7270   -2.0140   21.7210 C   0  0  0  0  0  0  0  0  0  0  0  0
   12.0500   -1.6760   22.7240 S   0  0  0  0  0  0  0  0  0  0  0  0
   11.8230   -0.3270   23.7180 C   0  0  0  0  0  0  0  0  0  0  0  0
   13.3330   -1.0130   23.9950 Cl  0  0  0  0  0  0  0  0  0  0  0  0
   10.5620   -0.0470   23.2520 C   0  0  0  0  0  0  0  0  0  0  0  0
    4.8850    2.4250   22.7980 C   0  0  0  0  0  0  0  0  0  0  0  0
    4.4690    2.7760   21.3800 C   0  0  0  0  0  0  0  0  0  0  0  0
  1  2  1  0
  2  3  2  0
  2  4  1  0
  4  5  1  0
  5  6  1  0
  6  7  1  0
  7  8  1  0
  8  9  1  0
  9 10  1  0
 10 11  2  3
 10 12  1  0
 12 13  1  0
 13 14  2  0
 14 15  1  0
 15 16  1  0
 16 17  1  0
 13 18  1  0
 16 18  2  0
  7 19  1  0
  4 20  1  0
 19 20  1  0
M  END
