ISA-SCH-8e98219b-1
     RDKit          3D

 17 18  0  0  0  0  0  0  0  0999 V2000
    8.7380    1.1440   21.2990 N   0  0  0  0  0  0  0  0  0  0  0  0
    8.2020   -0.0080   21.5950 C   0  0  0  0  0  0  0  0  0  0  0  0
    8.6650   -0.9190   22.4880 N   0  0  0  0  0  0  0  0  0  0  0  0
    9.9710   -1.0720   22.9170 C   0  0  0  0  0  0  0  0  0  0  0  0
   10.3330   -1.2710   24.2120 C   0  0  0  0  0  0  0  0  0  0  0  0
   11.6580   -1.4100   24.5470 C   0  0  0  0  0  0  0  0  0  0  0  0
   12.6200   -1.3450   23.6010 C   0  0  0  0  0  0  0  0  0  0  0  0
   13.8520   -1.4910   23.9890 F   0  0  0  0  0  0  0  0  0  0  0  0
   12.3150   -1.1520   22.2920 C   0  0  0  0  0  0  0  0  0  0  0  0
   10.9640   -1.0230   21.9700 C   0  0  0  0  0  0  0  0  0  0  0  0
    7.0580   -0.4730   21.0310 N   0  0  0  0  0  0  0  0  0  0  0  0
    6.3640    0.1530   20.0150 C   0  0  0  0  0  0  0  0  0  0  0  0
    5.1690    0.8500   20.1970 C   0  0  0  0  0  0  0  0  0  0  0  0
    4.5540    1.4690   19.1080 C   0  0  0  0  0  0  0  0  0  0  0  0
    5.1620    1.3620   17.8770 C   0  0  0  0  0  0  0  0  0  0  0  0
    6.3030    0.6880   17.6750 N   0  0  0  0  0  0  0  0  0  0  0  0
    6.8670    0.1070   18.7360 C   0  0  0  0  0  0  0  0  0  0  0  0
  1  2  2  3
  2  3  1  0
  3  4  1  0
  4  5  2  0
  5  6  1  0
  6  7  2  0
  7  8  1  0
  7  9  1  0
  4 10  1  0
  9 10  2  0
  2 11  1  0
 11 12  1  0
 12 13  2  0
 13 14  1  0
 14 15  2  0
 15 16  1  0
 12 17  1  0
 16 17  2  0
M  END
