JAC-SHE-db4d8af4-1
     RDKit          3D

 32 36  0  0  0  0  0  0  0  0999 V2000
    2.4190   -5.3520   24.9460 C   0  0  0  0  0  0  0  0  0  0  0  0
    3.8750   -4.9960   24.8090 C   0  0  0  0  0  0  0  0  0  0  0  0
    4.8110   -5.8930   25.2290 N   0  0  0  0  0  0  0  0  0  0  0  0
    6.0760   -5.4890   25.0630 N   0  0  0  0  0  0  0  0  0  0  0  0
    5.9410   -4.2760   24.5110 C   0  0  0  0  0  0  0  0  0  0  0  0
    7.0820   -3.3830   24.1130 C   0  0  0  0  0  0  0  0  0  0  0  0
    7.8150   -3.5700   22.9470 C   0  0  0  0  0  0  0  0  0  0  0  0
    8.7500   -2.5800   22.9010 N   0  0  0  0  0  0  0  0  0  0  0  0
    8.6590   -1.7500   24.0010 C   0  0  0  0  0  0  0  0  0  0  0  0
    9.4000   -0.6240   24.3530 C   0  0  0  0  0  0  0  0  0  0  0  0
   10.3520   -0.2290   23.4290 C   0  0  2  0  0  0  0  0  0  0  0  0
   11.4780    0.6030   23.5490 C   0  0  0  0  0  0  0  0  0  0  0  0
   11.2820    2.1000   23.6560 C   0  0  1  0  0  0  0  0  0  0  0  0
   12.1600    3.0770   22.8250 C   0  0  0  0  0  0  0  0  0  0  0  0
   12.0550    4.4180   23.3310 O   0  0  0  0  0  0  0  0  0  0  0  0
    9.7840    2.2060   23.4570 C   0  0  0  0  0  0  0  0  0  0  0  0
    9.3090    0.7930   22.9790 C   0  0  1  0  0  0  0  0  0  0  0  0
    8.8000    0.7890   21.5620 C   0  0  0  0  0  0  0  0  0  0  0  0
    9.0830    1.7570   20.9010 O   0  0  0  0  0  0  0  0  0  0  0  0
    7.9750   -0.2430   21.1390 N   0  0  0  0  0  0  0  0  0  0  0  0
    6.9760    0.0320   20.1810 C   0  0  0  0  0  0  0  0  0  0  0  0
    5.7750    0.6130   20.6270 C   0  0  0  0  0  0  0  0  0  0  0  0
    4.7710    0.9240   19.6800 C   0  0  0  0  0  0  0  0  0  0  0  0
    5.0130    0.6390   18.3550 C   0  0  0  0  0  0  0  0  0  0  0  0
    6.1440    0.0790   17.9120 N   0  0  0  0  0  0  0  0  0  0  0  0
    7.0920   -0.2150   18.8260 C   0  0  0  0  0  0  0  0  0  0  0  0
    9.0690    0.0130   25.5620 C   0  0  0  0  0  0  0  0  0  0  0  0
    8.0310   -0.4430   26.3740 C   0  0  0  0  0  0  0  0  0  0  0  0
    7.2860   -1.5650   25.9930 C   0  0  0  0  0  0  0  0  0  0  0  0
    7.6050   -2.2400   24.7890 C   0  0  0  0  0  0  0  0  0  0  0  0
    4.5790   -3.9190   24.3340 C   0  0  0  0  0  0  0  0  0  0  0  0
    4.0440   -2.6780   23.7690 C   0  0  0  0  0  0  0  0  0  0  0  0
  1  2  1  0
  2  3  1  0
  3  4  1  0
  4  5  2  0
  5  6  1  0
  6  7  2  0
  7  8  1  0
  8  9  1  0
  9 10  1  0
 11 10  1  1
 11 12  1  0
 12 13  1  0
 13 14  1  6
 14 15  1  0
 13 16  1  0
 11 17  1  0
 16 17  1  0
 17 18  1  6
 18 19  2  0
 18 20  1  0
 20 21  1  0
 21 22  2  0
 22 23  1  0
 23 24  2  0
 24 25  1  0
 21 26  1  0
 25 26  2  0
 10 27  2  0
 27 28  1  0
 28 29  2  0
  6 30  1  0
  9 30  2  0
 29 30  1  0
  2 31  2  0
  5 31  1  0
 31 32  1  0
M  END
