JAC-SHE-fb00f511-1
     RDKit          3D

 30 33  0  0  0  0  0  0  0  0999 V2000
    7.3880    1.6680   22.7660 C   0  0  0  0  0  0  0  0  0  0  0  0
    7.1410    1.6490   24.2540 C   0  0  0  0  0  0  0  0  0  0  0  0
    8.3550    1.0530   23.9850 N   0  0  0  0  0  0  0  0  0  0  0  0
    9.2850    0.4970   24.8930 C   0  0  0  0  0  0  0  0  0  0  0  0
   10.3990   -0.0110   24.2180 C   0  0  0  0  0  0  0  0  0  0  0  0
   11.5320    0.9210   23.8540 C   0  0  0  0  0  0  0  0  0  0  0  0
   12.6570    0.4700   23.1540 C   0  0  0  0  0  0  0  0  0  0  0  0
   12.7880   -0.8680   22.7520 C   0  0  0  0  0  0  0  0  0  0  0  0
   11.6820   -1.8600   23.0880 C   0  0  0  0  0  0  0  0  0  0  0  0
   10.4800   -1.3550   23.8460 C   0  0  0  0  0  0  0  0  0  0  0  0
    8.8450    0.5940   26.1880 C   0  0  0  0  0  0  0  0  0  0  0  0
    9.3730    0.2020   27.4070 N   0  0  0  0  0  0  0  0  0  0  0  0
    8.7860    0.4370   28.7830 C   0  0  0  0  0  0  0  0  0  0  0  0
    7.4300    0.8430   28.7870 C   0  0  2  0  0  0  0  0  0  0  0  0
    7.1590    2.0060   29.5320 C   0  0  1  0  0  0  0  0  0  0  0  0
    7.7370    3.2180   29.1790 C   0  0  0  0  0  0  0  0  0  0  0  0
    6.9950    4.2930   29.5770 C   0  0  0  0  0  0  0  0  0  0  0  0
    5.6940    3.8980   29.8540 C   0  0  1  0  0  0  0  0  0  0  0  0
    4.6650    4.4620   29.1000 C   0  0  0  0  0  0  0  0  0  0  0  0
    3.6240    3.7590   28.5190 C   0  0  0  0  0  0  0  0  0  0  0  0
    2.9020    4.7390   27.9070 N   0  0  0  0  0  0  0  0  0  0  0  0
    1.6950    4.6140   27.1330 C   0  0  0  0  0  0  0  0  0  0  0  0
    3.4570    5.9490   28.0990 N   0  0  0  0  0  0  0  0  0  0  0  0
    4.5500    5.7780   28.8390 N   0  0  0  0  0  0  0  0  0  0  0  0
    5.7230    2.4140   29.6100 N   0  0  0  0  0  0  0  0  0  0  0  0
    6.5400   -0.4060   29.5960 S   0  0  0  0  0  0  0  0  0  0  0  0
    7.0550   -1.9610   28.9310 C   0  0  0  0  0  0  0  0  0  0  0  0
    6.8250   -0.3930   31.0770 O   0  0  0  0  0  0  0  0  0  0  0  0
    5.1240   -0.2470   29.3600 O   0  0  0  0  0  0  0  0  0  0  0  0
    7.3230    1.3890   25.9830 S   0  0  0  0  0  0  0  0  0  0  0  0
  1  2  1  0
  2  3  2  0
  3  4  1  0
  4  5  1  0
  5  6  2  0
  6  7  1  0
  7  8  2  0
  8  9  1  0
  5 10  1  0
  9 10  2  0
  4 11  2  0
 11 12  1  0
 12 13  1  0
 14 13  1  1
 14 15  1  0
 15 16  1  6
 16 17  1  0
 17 18  1  0
 18 19  1  6
 19 20  2  0
 20 21  1  0
 21 22  1  0
 21 23  1  0
 19 24  1  0
 23 24  2  0
 15 25  1  0
 18 25  1  0
 14 26  1  0
 26 27  1  0
 26 28  2  0
 26 29  2  0
  2 30  1  0
 11 30  1  0
M  END
