JAG-SYN-9c2cd0bd-4
     RDKit          3D

 19 20  0  0  0  0  0  0  0  0999 V2000
    5.3270    0.3900   26.9580 C   0  0  0  0  0  0  0  0  0  0  0  0
    5.6610   -0.9740   26.3680 C   0  0  0  0  0  0  0  0  0  0  0  0
    6.9210   -1.4210   26.2810 C   0  0  0  0  0  0  0  0  0  0  0  0
    6.8080   -1.4020   27.5470 O   0  0  0  0  0  0  0  0  0  0  0  0
    6.5080   -1.2550   24.8800 N   0  0  0  0  0  0  0  0  0  0  0  0
    7.5600   -1.0110   23.9040 C   0  0  0  0  0  0  0  0  0  0  0  0
    7.1330   -1.6380   22.5790 C   0  0  0  0  0  0  0  0  0  0  0  0
    6.7000   -3.0600   22.8540 C   0  0  0  0  0  0  0  0  0  0  0  0
    8.0480   -3.7610   23.0350 C   0  0  0  0  0  0  0  0  0  0  0  0
    8.0970   -4.8640   22.5050 O   0  0  0  0  0  0  0  0  0  0  0  0
    9.0700   -3.2030   23.7860 N   0  0  0  0  0  0  0  0  0  0  0  0
   10.2750   -2.8050   23.2630 C   0  0  0  0  0  0  0  0  0  0  0  0
   10.4690   -2.4620   21.9250 C   0  0  0  0  0  0  0  0  0  0  0  0
   11.9080   -2.0360   21.4440 C   0  0  0  0  0  0  0  0  0  0  0  0
   12.9120   -2.0000   22.3620 C   0  0  0  0  0  0  0  0  0  0  0  0
   12.5970   -2.3800   23.7530 C   0  0  0  0  0  0  0  0  0  0  0  0
   11.3560   -2.7590   24.1610 C   0  0  0  0  0  0  0  0  0  0  0  0
    5.7570   -3.3380   24.1430 C   0  0  0  0  0  0  0  0  0  0  0  0
    5.4140   -2.0010   24.3010 C   0  0  0  0  0  0  0  0  0  0  0  0
  1  2  3  0
  2  3  1  0
  3  4  2  0
  3  5  1  0
  5  6  1  0
  6  7  1  0
  7  8  1  0
  8  9  1  0
  9 10  2  0
  9 11  1  0
 11 12  1  0
 12 13  2  0
 13 14  1  0
 14 15  2  0
 15 16  1  0
 12 17  1  0
 16 17  2  0
  8 18  1  0
  5 19  1  0
 18 19  1  0
M  END
