JAG-SYN-9c2cd0bd-2
     RDKit          3D

 21 22  0  0  0  0  0  0  0  0999 V2000
    5.5710   -1.9930   19.5020 C   0  0  0  0  0  0  0  0  0  0  0  0
    5.7550   -2.7350   20.7960 C   0  0  0  0  0  0  0  0  0  0  0  0
    5.8270   -4.1290   20.7530 C   0  0  0  0  0  0  0  0  0  0  0  0
    5.3250   -4.6960   19.7840 O   0  0  0  0  0  0  0  0  0  0  0  0
    6.4340   -4.8620   21.7160 N   0  0  0  0  0  0  0  0  0  0  0  0
    5.8090   -5.9810   22.1110 C   0  0  0  0  0  0  0  0  0  0  0  0
    5.1120   -5.9290   23.3070 C   0  0  0  0  0  0  0  0  0  0  0  0
    5.6810   -5.2770   24.3470 N   0  0  0  0  0  0  0  0  0  0  0  0
    4.9440   -5.3880   25.8610 S   0  0  0  0  0  0  0  0  0  0  0  0
    5.9710   -5.0570   26.8230 O   0  0  0  0  0  0  0  0  0  0  0  0
    4.2520   -6.6570   25.9070 O   0  0  0  0  0  0  0  0  0  0  0  0
    3.7190   -4.1490   25.9040 C   0  0  0  0  0  0  0  0  0  0  0  0
    4.0950   -2.8080   26.3780 C   0  0  0  0  0  0  0  0  0  0  0  0
    5.3340   -2.4860   26.7770 F   0  0  0  0  0  0  0  0  0  0  0  0
    3.1740   -1.8170   26.4370 C   0  0  0  0  0  0  0  0  0  0  0  0
    1.8120   -2.1020   26.0270 C   0  0  0  0  0  0  0  0  0  0  0  0
    1.4260   -3.3050   25.5870 C   0  0  0  0  0  0  0  0  0  0  0  0
    2.3890   -4.4100   25.5060 C   0  0  0  0  0  0  0  0  0  0  0  0
    1.9700   -5.6030   25.0660 F   0  0  0  0  0  0  0  0  0  0  0  0
    6.2770   -4.0440   24.0120 C   0  0  0  0  0  0  0  0  0  0  0  0
    7.1520   -4.0740   22.7470 C   0  0  0  0  0  0  0  0  0  0  0  0
  1  2  3  0
  2  3  1  0
  3  4  2  0
  3  5  1  0
  5  6  1  0
  6  7  1  0
  7  8  1  0
  8  9  1  0
  9 10  2  0
  9 11  2  0
  9 12  1  0
 12 13  2  0
 13 14  1  0
 13 15  1  0
 15 16  2  0
 16 17  1  0
 12 18  1  0
 17 18  2  0
 18 19  1  0
  8 20  1  0
  5 21  1  0
 20 21  1  0
M  END
