JAG-SYN-9c2cd0bd-11
     RDKit          3D

 20 21  0  0  0  0  0  0  0  0999 V2000
    5.8860   -5.0850   26.9510 O   0  0  0  0  0  0  0  0  0  0  0  0
    4.9760   -5.4290   25.8860 S   0  0  0  0  0  0  0  0  0  0  0  0
    4.2640   -6.6870   25.8970 O   0  0  0  0  0  0  0  0  0  0  0  0
    3.7510   -4.1370   25.9290 C   0  0  0  0  0  0  0  0  0  0  0  0
    4.1100   -2.7900   26.4050 C   0  0  0  0  0  0  0  0  0  0  0  0
    5.3480   -2.4790   26.8130 F   0  0  0  0  0  0  0  0  0  0  0  0
    3.1450   -1.7800   26.4490 C   0  0  0  0  0  0  0  0  0  0  0  0
    1.8350   -2.0380   26.0440 C   0  0  0  0  0  0  0  0  0  0  0  0
    1.4460   -3.3070   25.5800 C   0  0  0  0  0  0  0  0  0  0  0  0
    2.4500   -4.4170   25.5170 C   0  0  0  0  0  0  0  0  0  0  0  0
    2.0650   -5.6210   25.0780 F   0  0  0  0  0  0  0  0  0  0  0  0
    5.7470   -5.2790   24.3900 N   0  0  0  0  0  0  0  0  0  0  0  0
    5.2470   -5.9440   23.3040 C   0  0  0  0  0  0  0  0  0  0  0  0
    5.9260   -5.8650   21.9620 C   0  0  0  0  0  0  0  0  0  0  0  0
    6.4810   -4.6500   21.7160 N   0  0  0  0  0  0  0  0  0  0  0  0
    5.6640   -3.7510   21.1270 C   0  0  0  0  0  0  0  0  0  0  0  0
    6.0300   -2.4760   20.8400 C   0  0  0  0  0  0  0  0  0  0  0  0
    7.3490   -1.7260   21.6540 Cl  0  0  0  0  0  0  0  0  0  0  0  0
    7.1700   -4.2010   22.8580 C   0  0  0  0  0  0  0  0  0  0  0  0
    6.4030   -4.0380   24.0290 C   0  0  0  0  0  0  0  0  0  0  0  0
  1  2  2  0
  2  3  2  0
  2  4  1  0
  4  5  2  0
  5  6  1  0
  5  7  1  0
  7  8  2  0
  8  9  1  0
  4 10  1  0
  9 10  2  0
 10 11  1  0
  2 12  1  0
 12 13  1  0
 13 14  1  0
 14 15  1  0
 15 16  1  0
 16 17  1  0
 17 18  1  0
 15 19  1  0
 12 20  1  0
 19 20  1  0
M  END
