JAG-SYN-9c2cd0bd-6
     RDKit          3D

 18 20  0  0  0  0  0  0  0  0999 V2000
    7.1040   -4.8890   24.3740 O   0  0  0  0  0  0  0  0  0  0  0  0
    6.4060   -3.8960   24.1070 C   0  0  0  0  0  0  0  0  0  0  0  0
    5.9520   -3.6510   22.8260 N   0  0  0  0  0  0  0  0  0  0  0  0
    6.7140   -2.8730   21.9000 C   0  0  0  0  0  0  0  0  0  0  0  0
    7.7580   -2.3120   21.5040 C   0  0  0  0  0  0  0  0  0  0  0  0
    8.0050   -1.4880   20.2910 C   0  0  0  0  0  0  0  0  0  0  0  0
    9.1790   -1.6100   21.0720 C   0  0  0  0  0  0  0  0  0  0  0  0
    9.1780   -2.4370   22.4240 C   0  0  0  0  0  0  0  0  0  0  0  0
    7.7850   -3.0860   22.8270 C   0  0  0  0  0  0  0  0  0  0  0  0
    5.9870   -2.9830   25.1170 N   0  0  0  0  0  0  0  0  0  0  0  0
    4.8110   -2.4280   24.7100 C   0  0  0  0  0  0  0  0  0  0  0  0
    4.4220   -3.6270   25.6270 C   0  0  0  0  0  0  0  0  0  0  0  0
    3.2750   -3.9050   25.1630 C   0  0  0  0  0  0  0  0  0  0  0  0
    1.4310   -3.6870   24.7780 S   0  0  0  0  0  0  0  0  0  0  0  0
    1.3440   -2.2380   25.6160 C   0  0  0  0  0  0  0  0  0  0  0  0
    2.5560   -2.4960   25.8430 C   0  0  0  0  0  0  0  0  0  0  0  0
    3.7660   -2.7510   26.0690 C   0  0  0  0  0  0  0  0  0  0  0  0
    5.1460   -3.3940   26.1410 C   0  0  0  0  0  0  0  0  0  0  0  0
  1  2  2  0
  2  3  1  0
  3  4  1  0
  4  5  2  0
  5  6  1  0
  6  7  2  0
  7  8  1  0
  4  9  1  0
  8  9  2  0
  2 10  1  0
 10 11  1  0
 11 12  1  0
 12 13  1  0
 13 14  1  0
 14 15  1  0
 15 16  2  0
 13 17  2  0
 16 17  1  0
 10 18  1  0
 17 18  1  0
M  END
