JAG-SYN-9c2cd0bd-12
     RDKit          3D

 22 24  0  0  0  0  0  0  0  0999 V2000
    5.2750   -4.4310   19.7850 O   0  0  0  0  0  0  0  0  0  0  0  0
    5.9470   -3.9470   20.6930 C   0  0  0  0  0  0  0  0  0  0  0  0
    6.1990   -2.4820   20.6060 C   0  0  2  0  0  0  0  0  0  0  0  0
    7.4580   -1.8850   20.8540 C   0  0  0  0  0  0  0  0  0  0  0  0
    6.5400   -1.7680   21.6760 O   0  0  0  0  0  0  0  0  0  0  0  0
    6.4650   -4.7080   21.7520 N   0  0  0  0  0  0  0  0  0  0  0  0
    5.8570   -5.8970   22.0480 C   0  0  0  0  0  0  0  0  0  0  0  0
    5.1250   -6.0810   23.2230 C   0  0  0  0  0  0  0  0  0  0  0  0
    5.6780   -5.2730   24.3140 N   0  0  0  0  0  0  0  0  0  0  0  0
    4.9410   -5.3930   25.8510 S   0  0  0  0  0  0  0  0  0  0  0  0
    5.9900   -5.1140   26.8040 O   0  0  0  0  0  0  0  0  0  0  0  0
    4.1890   -6.6230   25.8870 O   0  0  0  0  0  0  0  0  0  0  0  0
    3.7770   -4.0910   25.9230 C   0  0  0  0  0  0  0  0  0  0  0  0
    4.1650   -2.6820   26.4210 C   0  0  0  0  0  0  0  0  0  0  0  0
    5.4020   -2.3590   26.8210 F   0  0  0  0  0  0  0  0  0  0  0  0
    3.0330   -1.6950   26.4210 C   0  0  0  0  0  0  0  0  0  0  0  0
    1.7040   -2.1430   25.9670 C   0  0  0  0  0  0  0  0  0  0  0  0
    1.5010   -3.4030   25.5550 C   0  0  0  0  0  0  0  0  0  0  0  0
    2.4730   -4.4140   25.5060 C   0  0  0  0  0  0  0  0  0  0  0  0
    2.1230   -5.6340   25.0730 F   0  0  0  0  0  0  0  0  0  0  0  0
    6.2530   -3.9550   23.9690 C   0  0  0  0  0  0  0  0  0  0  0  0
    7.1470   -4.1330   22.8950 C   0  0  0  0  0  0  0  0  0  0  0  0
  1  2  2  0
  3  2  1  1
  3  4  1  0
  3  5  1  0
  4  5  1  0
  2  6  1  0
  6  7  1  0
  7  8  1  0
  8  9  1  0
  9 10  1  0
 10 11  2  0
 10 12  2  0
 10 13  1  0
 13 14  2  0
 14 15  1  0
 14 16  1  0
 16 17  2  0
 17 18  1  0
 13 19  1  0
 18 19  2  0
 19 20  1  0
  9 21  1  0
  6 22  1  0
 21 22  1  0
M  END
