JAG-SYN-9c2cd0bd-5
     RDKit          3D

 18 20  0  0  0  0  0  0  0  0999 V2000
    9.0100    2.2550   21.5880 O   0  0  0  0  0  0  0  0  0  0  0  0
    9.8010    2.3930   22.5360 C   0  0  0  0  0  0  0  0  0  0  0  0
    9.9460    3.5390   23.3000 N   0  0  0  0  0  0  0  0  0  0  0  0
    9.2550    4.7340   22.9880 C   0  0  0  0  0  0  0  0  0  0  0  0
    9.8290    6.0000   23.4300 C   0  0  0  0  0  0  0  0  0  0  0  0
    9.1680    7.1960   23.1280 C   0  0  0  0  0  0  0  0  0  0  0  0
    7.9700    7.1800   22.4070 C   0  0  0  0  0  0  0  0  0  0  0  0
    7.4190    5.9860   21.9850 C   0  0  0  0  0  0  0  0  0  0  0  0
    8.0530    4.7570   22.2720 C   0  0  0  0  0  0  0  0  0  0  0  0
   10.6700    1.2270   22.8260 C   0  0  1  0  0  0  0  0  0  0  0  0
   12.1460    1.5370   23.1780 C   0  0  0  0  0  0  0  0  0  0  0  0
   12.6180    0.1940   23.4770 C   0  0  0  0  0  0  0  0  0  0  0  0
   12.0640   -1.0400   23.7530 C   0  0  0  0  0  0  0  0  0  0  0  0
   13.0140   -2.4430   23.9340 S   0  0  0  0  0  0  0  0  0  0  0  0
   11.4900   -3.1980   24.2010 C   0  0  0  0  0  0  0  0  0  0  0  0
   10.2600   -2.3350   24.1300 C   0  0  0  0  0  0  0  0  0  0  0  0
   10.7290   -0.9790   23.8600 C   0  0  0  0  0  0  0  0  0  0  0  0
    9.8730    0.2710   23.7320 C   0  0  0  0  0  0  0  0  0  0  0  0
  1  2  2  0
  2  3  1  0
  3  4  1  0
  4  5  2  0
  5  6  1  0
  6  7  2  0
  7  8  1  0
  4  9  1  0
  8  9  2  0
 10  2  1  1
 10 11  1  0
 11 12  1  0
 12 13  1  0
 13 14  1  0
 14 15  1  0
 15 16  2  0
 13 17  2  0
 16 17  1  0
 10 18  1  0
 17 18  1  0
M  END
