JAM-UNK-fcc74568-1
     RDKit          3D

  3  2  0  0  0  0  0  0  0  0999 V2000
    9.2010   -2.9380   23.7500 C   0  0  0  0  0  0  0  0  0  0  0  0
    9.5010   -1.6600   23.1840 C   0  0  0  0  0  0  0  0  0  0  0  0
    8.2740   -0.9660   22.8250 O   0  0  0  0  0  0  0  0  0  0  0  0
  1  2  1  0
  2  3  1  0
M  END
