JAN-GHE-4287bd1a-7
     RDKit          3D

 23 25  0  0  0  0  0  0  0  0999 V2000
    9.3620   -0.3320   26.4250 C   0  0  0  0  0  0  0  0  0  0  0  0
    8.3800   -1.2210   27.0580 C   0  0  0  0  0  0  0  0  0  0  0  0
    7.9660   -1.1040   28.3240 N   0  0  0  0  0  0  0  0  0  0  0  0
    6.9900   -2.1140   28.7010 C   0  0  0  0  0  0  0  0  0  0  0  0
    6.8410   -2.8660   27.5460 C   0  0  0  0  0  0  0  0  0  0  0  0
    7.7420   -2.2780   26.5010 N   0  0  0  0  0  0  0  0  0  0  0  0
    7.7700   -2.9080   25.1590 C   0  0  0  0  0  0  0  0  0  0  0  0
    8.9730   -2.8360   24.4870 C   0  0  0  0  0  0  0  0  0  0  0  0
    9.8440   -3.6390   24.7420 O   0  0  0  0  0  0  0  0  0  0  0  0
    9.1010   -1.7600   23.4750 N   0  0  0  0  0  0  0  0  0  0  0  0
   10.4390   -1.2580   23.2040 C   0  0  0  0  0  0  0  0  0  0  0  0
   10.8390   -0.0860   23.8210 C   0  0  0  0  0  0  0  0  0  0  0  0
   12.1500    0.7370   23.7960 C   0  0  0  0  0  0  0  0  0  0  0  0
   12.9740   -0.1250   22.8540 C   0  0  0  0  0  0  0  0  0  0  0  0
   12.6320   -1.3010   22.2100 C   0  0  0  0  0  0  0  0  0  0  0  0
   11.2850   -1.9230   22.3770 C   0  0  0  0  0  0  0  0  0  0  0  0
    8.1140   -0.9110   23.0160 C   0  0  2  0  0  0  0  0  0  0  0  0
    7.6150   -1.0830   21.5940 C   0  0  0  0  0  0  0  0  0  0  0  0
    7.3140    0.0460   20.8410 C   0  0  0  0  0  0  0  0  0  0  0  0
    7.5970    1.4570   21.7910 S   0  0  0  0  0  0  0  0  0  0  0  0
    6.3390    1.9280   22.3340 O   0  0  0  0  0  0  0  0  0  0  0  0
    8.5090    2.3600   21.1180 O   0  0  0  0  0  0  0  0  0  0  0  0
    8.5110    0.5890   23.0740 C   0  0  0  0  0  0  0  0  0  0  0  0
  1  2  1  0
  2  3  2  0
  3  4  1  0
  4  5  2  0
  2  6  1  0
  5  6  1  0
  6  7  1  0
  7  8  1  0
  8  9  2  0
  8 10  1  0
 10 11  1  0
 11 12  2  0
 12 13  1  0
 13 14  2  0
 14 15  1  0
 11 16  1  0
 15 16  2  0
 17 10  1  6
 17 18  1  0
 18 19  2  0
 20 19  1  0
 20 21  2  0
 20 22  2  0
 17 23  1  0
 20 23  1  0
M  END
