JAN-LUN-8953ce76-6
     RDKit          3D

 23 24  0  0  0  0  0  0  0  0999 V2000
    4.4530    5.0690   23.2720 O   0  0  0  0  0  0  0  0  0  0  0  0
    3.5250    4.9090   22.4850 C   0  0  0  0  0  0  0  0  0  0  0  0
    2.3070    5.4540   22.6730 O   0  0  0  0  0  0  0  0  0  0  0  0
    3.6470    4.0970   21.2480 C   0  0  0  0  0  0  0  0  0  0  0  0
    3.0750    2.8830   21.1680 C   0  0  0  0  0  0  0  0  0  0  0  0
    3.0980    2.1540   19.8470 C   0  0  0  0  0  0  0  0  0  0  0  0
    4.3960    1.4130   19.4950 C   0  0  0  0  0  0  0  0  0  0  0  0
    5.0440    1.3600   18.0820 C   0  0  0  0  0  0  0  0  0  0  0  0
    6.1620    0.7460   17.6620 N   0  0  0  0  0  0  0  0  0  0  0  0
    6.7290    0.1200   18.7270 C   0  0  0  0  0  0  0  0  0  0  0  0
    6.3780   -0.0170   20.1860 C   0  0  0  0  0  0  0  0  0  0  0  0
    7.2610   -0.7730   21.0380 N   0  0  0  0  0  0  0  0  0  0  0  0
    8.2590    0.1120   21.6300 C   0  0  0  0  0  0  0  0  0  0  0  0
    8.6210    1.1890   21.1150 O   0  0  0  0  0  0  0  0  0  0  0  0
    8.7970   -0.3620   22.8840 N   0  0  0  0  0  0  0  0  0  0  0  0
   10.1400   -0.3350   23.0920 C   0  0  0  0  0  0  0  0  0  0  0  0
   10.9430    0.8720   22.8090 C   0  0  0  0  0  0  0  0  0  0  0  0
   12.2890    0.8810   23.0190 C   0  0  0  0  0  0  0  0  0  0  0  0
   12.9840   -0.2000   23.4980 C   0  0  0  0  0  0  0  0  0  0  0  0
   12.3190   -1.3830   23.8020 C   0  0  0  0  0  0  0  0  0  0  0  0
   13.2210   -2.6990   24.4140 Cl  0  0  0  0  0  0  0  0  0  0  0  0
   10.9460   -1.5290   23.6290 C   0  0  0  0  0  0  0  0  0  0  0  0
    5.1020    0.6800   20.6210 C   0  0  0  0  0  0  0  0  0  0  0  0
  1  2  2  0
  2  3  1  0
  2  4  1  0
  4  5  1  0
  5  6  1  0
  6  7  1  0
  7  8  2  0
  8  9  1  0
  9 10  2  0
 10 11  1  0
 11 12  1  0
 12 13  1  0
 13 14  2  0
 13 15  1  0
 15 16  1  0
 16 17  2  0
 17 18  1  0
 18 19  2  0
 19 20  1  0
 20 21  1  0
 16 22  1  0
 20 22  2  0
  7 23  1  0
 11 23  2  0
M  END
