JAN-GHE-1d98ec1c-1
     RDKit          3D

 24 26  0  0  0  0  0  0  0  0999 V2000
    6.0300   -1.9350   18.6560 C   0  0  0  0  0  0  0  0  0  0  0  0
    5.8890   -2.7370   19.8960 C   0  0  0  0  0  0  0  0  0  0  0  0
    5.4050   -3.8830   19.7870 O   0  0  0  0  0  0  0  0  0  0  0  0
    6.3020   -2.2550   21.0560 N   0  0  0  0  0  0  0  0  0  0  0  0
    6.3210   -3.2140   22.0760 C   0  0  0  0  0  0  0  0  0  0  0  0
    7.5810   -3.2980   22.9290 C   0  0  0  0  0  0  0  0  0  0  0  0
    8.4200   -2.0890   22.9760 N   0  0  0  0  0  0  0  0  0  0  0  0
    9.7130   -2.2980   23.6470 C   0  0  0  0  0  0  0  0  0  0  0  0
   10.5610   -1.0340   23.4830 C   0  0  0  0  0  0  0  0  0  0  0  0
   12.0110   -1.1800   22.9640 C   0  0  0  0  0  0  0  0  0  0  0  0
   12.7310    0.1710   22.8040 C   0  0  0  0  0  0  0  0  0  0  0  0
   12.0740    1.3850   23.1130 C   0  0  0  0  0  0  0  0  0  0  0  0
   12.7150    2.7750   22.9400 C   0  0  0  0  0  0  0  0  0  0  0  0
   11.9570    4.0280   23.2780 C   0  0  0  0  0  0  0  0  0  0  0  0
   10.6510    3.8980   23.7640 C   0  0  0  0  0  0  0  0  0  0  0  0
    9.7120    5.3550   24.1770 S   0  0  0  0  0  0  0  0  0  0  0  0
   10.9230    6.5050   24.3740 N   0  0  0  0  0  0  0  0  0  0  0  0
    9.0680    5.2730   25.4780 O   0  0  0  0  0  0  0  0  0  0  0  0
    8.9700    5.7640   23.0100 O   0  0  0  0  0  0  0  0  0  0  0  0
   10.1070    2.6130   23.9080 C   0  0  0  0  0  0  0  0  0  0  0  0
   10.7490    1.3950   23.6010 C   0  0  0  0  0  0  0  0  0  0  0  0
   10.0260    0.2220   23.7820 C   0  0  0  0  0  0  0  0  0  0  0  0
    8.6600   -1.6010   21.6390 C   0  0  0  0  0  0  0  0  0  0  0  0
    7.3380   -1.2120   21.0120 C   0  0  0  0  0  0  0  0  0  0  0  0
  1  2  1  0
  2  3  2  0
  2  4  1  0
  4  5  1  0
  5  6  1  0
  6  7  1  0
  7  8  1  0
  8  9  1  0
  9 10  2  0
 10 11  1  0
 11 12  2  0
 12 13  1  0
 13 14  2  0
 14 15  1  0
 15 16  1  0
 16 17  1  0
 16 18  2  0
 16 19  2  0
 15 20  2  0
 12 21  1  0
 20 21  1  0
  9 22  1  0
 21 22  2  0
  7 23  1  0
  4 24  1  0
 23 24  1  0
M  END
