JAN-GHE-4287bd1a-2
     RDKit          3D

 21 22  0  0  0  0  0  0  0  0999 V2000
    7.4450   -3.4650   23.8570 C   0  0  0  0  0  0  0  0  0  0  0  0
    8.0280   -2.1640   23.6770 C   0  0  0  0  0  0  0  0  0  0  0  0
    7.5050   -0.9410   24.0660 C   0  0  0  0  0  0  0  0  0  0  0  0
    8.2960    0.1850   23.7660 C   0  0  0  0  0  0  0  0  0  0  0  0
    9.5550    0.3060   23.1410 C   0  0  0  0  0  0  0  0  0  0  0  0
   10.2000    2.0640   23.0450 S   0  0  0  0  0  0  0  0  0  0  0  0
    9.3010    2.8380   23.8760 O   0  0  0  0  0  0  0  0  0  0  0  0
   11.6050    2.0610   23.3080 O   0  0  0  0  0  0  0  0  0  0  0  0
   10.4780    3.0470   21.7640 N   0  0  0  0  0  0  0  0  0  0  0  0
   11.6580    3.9760   21.8730 C   0  0  0  0  0  0  0  0  0  0  0  0
   11.9180    4.2800   23.0340 O   0  0  0  0  0  0  0  0  0  0  0  0
   12.5030    4.5620   20.7030 C   0  0  0  0  0  0  0  0  0  0  0  0
   13.5760    3.8030   20.3090 N   0  0  0  0  0  0  0  0  0  0  0  0
   14.8500    4.3310   20.6700 C   0  0  0  0  0  0  0  0  0  0  0  0
   16.2690    3.9840   20.2020 C   0  0  0  0  0  0  0  0  0  0  0  0
   15.8580    2.8550   19.2780 C   0  0  0  0  0  0  0  0  0  0  0  0
   14.6870    2.6170   18.7010 C   0  0  0  0  0  0  0  0  0  0  0  0
   13.5370    3.4920   18.9900 C   0  0  0  0  0  0  0  0  0  0  0  0
   12.7310    3.8130   18.1590 O   0  0  0  0  0  0  0  0  0  0  0  0
    9.9830   -1.1870   22.7450 C   0  0  0  0  0  0  0  0  0  0  0  0
    9.1980   -2.3120   23.0430 C   0  0  0  0  0  0  0  0  0  0  0  0
  1  2  1  0
  2  3  2  0
  3  4  1  0
  4  5  2  0
  5  6  1  0
  6  7  2  0
  6  8  2  0
  6  9  1  0
  9 10  1  0
 10 11  2  0
 10 12  1  0
 12 13  1  0
 13 14  1  0
 14 15  2  0
 15 16  1  0
 16 17  2  0
 13 18  1  0
 17 18  1  0
 18 19  2  0
  5 20  1  0
  2 21  1  0
 20 21  2  0
M  END
