JAN-GHE-1d98ec1c-2
     RDKit          3D

 22 23  0  0  0  0  0  0  0  0999 V2000
    6.0280   -1.8580   18.6540 C   0  0  0  0  0  0  0  0  0  0  0  0
    5.8550   -2.7700   19.8150 C   0  0  0  0  0  0  0  0  0  0  0  0
    5.3390   -3.8960   19.7210 O   0  0  0  0  0  0  0  0  0  0  0  0
    6.4210   -2.1740   21.0220 N   0  0  0  0  0  0  0  0  0  0  0  0
    6.2120   -2.9060   22.1950 C   0  0  0  0  0  0  0  0  0  0  0  0
    7.4620   -3.1970   23.0500 C   0  0  0  0  0  0  0  0  0  0  0  0
    8.3490   -2.0370   23.0550 N   0  0  0  0  0  0  0  0  0  0  0  0
    9.5360   -2.3050   23.8830 C   0  0  0  0  0  0  0  0  0  0  0  0
   10.6740   -1.5500   23.5560 C   0  0  0  0  0  0  0  0  0  0  0  0
   10.9120   -0.3250   24.2570 C   0  0  0  0  0  0  0  0  0  0  0  0
   12.1510    0.5730   23.9570 C   0  0  0  0  0  0  0  0  0  0  0  0
   13.1000    0.0770   22.8780 C   0  0  0  0  0  0  0  0  0  0  0  0
   12.6500   -1.0790   22.3770 C   0  0  0  0  0  0  0  0  0  0  0  0
   11.9610   -0.5080   23.4500 C   0  0  0  0  0  0  0  0  0  0  0  0
   12.4310   -0.9750   24.8090 C   0  0  0  0  0  0  0  0  0  0  0  0
   12.9500   -2.6750   24.8390 S   0  0  0  0  0  0  0  0  0  0  0  0
   13.8920   -2.8040   23.4740 N   0  0  0  0  0  0  0  0  0  0  0  0
   13.8650   -2.9160   25.9260 O   0  0  0  0  0  0  0  0  0  0  0  0
   11.7920   -3.4970   24.6170 O   0  0  0  0  0  0  0  0  0  0  0  0
   11.6010   -1.9550   22.5490 C   0  0  0  0  0  0  0  0  0  0  0  0
    8.6790   -1.6050   21.6880 C   0  0  0  0  0  0  0  0  0  0  0  0
    7.5200   -1.1860   21.0200 C   0  0  0  0  0  0  0  0  0  0  0  0
  1  2  1  0
  2  3  2  0
  2  4  1  0
  4  5  1  0
  5  6  1  0
  6  7  1  0
  7  8  1  0
  8  9  1  0
  9 10  2  0
 10 11  1  0
 11 12  2  0
 12 13  1  0
 13 14  1  0
 14 15  1  0
 15 16  1  0
 16 17  1  0
 16 18  2  0
 16 19  2  0
  9 20  1  0
 13 20  2  0
  7 21  1  0
  4 22  1  0
 21 22  1  0
M  END
