JAN-GHE-1d98ec1c-3
     RDKit          3D

 23 25  0  0  0  0  0  0  0  0999 V2000
    6.0390   -1.8880   18.6710 C   0  0  0  0  0  0  0  0  0  0  0  0
    5.9080   -2.8180   19.8440 C   0  0  0  0  0  0  0  0  0  0  0  0
    5.3680   -3.9310   19.7380 O   0  0  0  0  0  0  0  0  0  0  0  0
    6.4920   -2.3300   20.9960 N   0  0  0  0  0  0  0  0  0  0  0  0
    6.3780   -3.0560   22.2790 C   0  0  0  0  0  0  0  0  0  0  0  0
    7.6080   -3.2640   22.9160 C   0  0  0  0  0  0  0  0  0  0  0  0
    8.3780   -2.0240   23.0310 N   0  0  0  0  0  0  0  0  0  0  0  0
    9.5690   -2.0480   23.8930 C   0  0  0  0  0  0  0  0  0  0  0  0
   10.4950   -1.0370   23.6340 C   0  0  0  0  0  0  0  0  0  0  0  0
   11.9360   -1.3520   23.2470 C   0  0  0  0  0  0  0  0  0  0  0  0
   12.8720   -0.1560   22.9560 C   0  0  0  0  0  0  0  0  0  0  0  0
   12.2500    1.2080   23.0840 C   0  0  0  0  0  0  0  0  0  0  0  0
   12.7540    2.4640   22.8930 C   0  0  0  0  0  0  0  0  0  0  0  0
   11.9020    3.5090   23.0860 C   0  0  0  0  0  0  0  0  0  0  0  0
   11.9660    5.2710   22.9830 S   0  0  0  0  0  0  0  0  0  0  0  0
   12.2260    5.8880   24.5140 N   0  0  0  0  0  0  0  0  0  0  0  0
   10.6300    5.6910   22.6510 O   0  0  0  0  0  0  0  0  0  0  0  0
   13.1210    5.5890   22.1720 O   0  0  0  0  0  0  0  0  0  0  0  0
   10.7470    2.8310   23.4460 N   0  0  0  0  0  0  0  0  0  0  0  0
   10.9480    1.4370   23.4420 C   0  0  0  0  0  0  0  0  0  0  0  0
   10.0100    0.2780   23.7420 C   0  0  0  0  0  0  0  0  0  0  0  0
    8.6590   -1.5650   21.6660 C   0  0  0  0  0  0  0  0  0  0  0  0
    7.5210   -1.2760   20.9320 C   0  0  0  0  0  0  0  0  0  0  0  0
  1  2  1  0
  2  3  2  0
  2  4  1  0
  4  5  1  0
  5  6  1  0
  6  7  1  0
  7  8  1  0
  8  9  1  0
  9 10  2  0
 10 11  1  0
 11 12  2  0
 12 13  1  0
 13 14  2  0
 14 15  1  0
 15 16  1  0
 15 17  2  0
 15 18  2  0
 14 19  1  0
 12 20  1  0
 19 20  1  0
  9 21  1  0
 20 21  2  0
  7 22  1  0
  4 23  1  0
 22 23  1  0
M  END
