JAN-GHE-1d98ec1c-10
     RDKit          3D

 24 25  0  0  0  0  0  0  0  0999 V2000
    6.1450   -2.1300   18.5410 C   0  0  0  0  0  0  0  0  0  0  0  0
    5.8940   -2.9590   19.7260 C   0  0  0  0  0  0  0  0  0  0  0  0
    5.4260   -4.0960   19.6280 O   0  0  0  0  0  0  0  0  0  0  0  0
    6.2560   -2.3870   20.9200 N   0  0  0  0  0  0  0  0  0  0  0  0
    6.0510   -3.1410   22.1720 C   0  0  0  0  0  0  0  0  0  0  0  0
    7.2270   -3.1900   22.9140 C   0  0  0  0  0  0  0  0  0  0  0  0
    7.8010   -1.8500   22.9970 N   0  0  0  0  0  0  0  0  0  0  0  0
    8.8140   -1.7120   23.9910 C   0  0  0  0  0  0  0  0  0  0  0  0
    9.9390   -0.8300   23.5810 C   0  0  0  0  0  0  0  0  0  0  0  0
    9.8840    0.5040   22.7610 C   0  0  0  0  0  0  0  0  0  0  0  0
   11.2330    1.0860   22.5460 C   0  0  0  0  0  0  0  0  0  0  0  0
   11.5930    2.1940   22.1970 O   0  0  0  0  0  0  0  0  0  0  0  0
   12.0650    0.0010   22.9810 C   0  0  0  0  0  0  0  0  0  0  0  0
   12.6430   -1.0300   22.2980 C   0  0  0  0  0  0  0  0  0  0  0  0
   13.3430   -2.0160   22.9660 C   0  0  0  0  0  0  0  0  0  0  0  0
   13.4010   -1.8690   24.3300 C   0  0  0  0  0  0  0  0  0  0  0  0
   14.0710   -2.7780   25.6070 S   0  0  0  0  0  0  0  0  0  0  0  0
   15.6380   -2.5060   25.9210 N   0  0  0  0  0  0  0  0  0  0  0  0
   13.7810   -4.1760   25.6760 O   0  0  0  0  0  0  0  0  0  0  0  0
   13.7590   -1.8320   26.4950 O   0  0  0  0  0  0  0  0  0  0  0  0
   12.8320   -0.8120   24.9710 C   0  0  0  0  0  0  0  0  0  0  0  0
   12.1630    0.1240   24.3060 C   0  0  0  0  0  0  0  0  0  0  0  0
    8.3270   -1.5560   21.6840 C   0  0  0  0  0  0  0  0  0  0  0  0
    7.2120   -1.2690   20.9160 C   0  0  0  0  0  0  0  0  0  0  0  0
  1  2  1  0
  2  3  2  0
  2  4  1  0
  4  5  1  0
  5  6  1  0
  6  7  1  0
  7  8  1  0
  8  9  1  0
  9 10  2  3
 10 11  1  0
 11 12  2  0
 11 13  1  0
 13 14  2  0
 14 15  1  0
 15 16  2  0
 16 17  1  0
 17 18  1  0
 17 19  2  0
 17 20  2  0
 16 21  1  0
 13 22  1  0
 21 22  2  0
  7 23  1  0
  4 24  1  0
 23 24  1  0
M  END
