JAN-LUN-3e0f9c09-4
     RDKit          3D

 23 24  0  0  0  0  0  0  0  0999 V2000
    0.6320    4.0390   21.1490 O   0  0  0  0  0  0  0  0  0  0  0  0
    1.5560    3.8110   21.9170 C   0  0  0  0  0  0  0  0  0  0  0  0
    1.7510    4.5110   23.0550 O   0  0  0  0  0  0  0  0  0  0  0  0
    2.6040    2.7120   21.6920 C   0  0  0  0  0  0  0  0  0  0  0  0
    2.5030    2.0480   20.4680 C   0  0  0  0  0  0  0  0  0  0  0  0
    3.4620    2.4920   19.5470 C   0  0  0  0  0  0  0  0  0  0  0  0
    4.5820    1.6680   19.3980 C   0  0  0  0  0  0  0  0  0  0  0  0
    5.0860    1.3700   18.1220 C   0  0  0  0  0  0  0  0  0  0  0  0
    6.1150    0.6320   17.6850 N   0  0  0  0  0  0  0  0  0  0  0  0
    6.7400    0.1180   18.7770 C   0  0  0  0  0  0  0  0  0  0  0  0
    6.4720    0.2490   20.1030 C   0  0  0  0  0  0  0  0  0  0  0  0
    7.3040   -0.3810   20.9850 N   0  0  0  0  0  0  0  0  0  0  0  0
    8.4230    0.2500   21.5500 C   0  0  0  0  0  0  0  0  0  0  0  0
    8.8650    1.3650   21.2010 O   0  0  0  0  0  0  0  0  0  0  0  0
    8.9540   -0.5510   22.5330 N   0  0  0  0  0  0  0  0  0  0  0  0
   10.2980   -0.5440   22.8780 C   0  0  0  0  0  0  0  0  0  0  0  0
   10.9760    0.6770   22.8390 C   0  0  0  0  0  0  0  0  0  0  0  0
   12.4490    0.7280   23.2100 C   0  0  0  0  0  0  0  0  0  0  0  0
   13.0110   -0.6060   23.5900 C   0  0  0  0  0  0  0  0  0  0  0  0
   12.2730   -1.7380   23.5960 C   0  0  0  0  0  0  0  0  0  0  0  0
   12.9140   -2.9510   23.9730 O   0  0  0  0  0  0  0  0  0  0  0  0
   10.9390   -1.7540   23.2540 C   0  0  0  0  0  0  0  0  0  0  0  0
    5.2600    1.1070   20.4730 C   0  0  0  0  0  0  0  0  0  0  0  0
  1  2  2  0
  2  3  1  0
  2  4  1  0
  4  5  1  0
  5  6  1  0
  6  7  1  0
  7  8  2  0
  8  9  1  0
  9 10  2  0
 10 11  1  0
 11 12  1  0
 12 13  1  0
 13 14  2  0
 13 15  1  0
 15 16  1  0
 16 17  2  0
 17 18  1  0
 18 19  2  0
 19 20  1  0
 20 21  1  0
 16 22  1  0
 20 22  2  0
  7 23  1  0
 11 23  2  0
M  END
