JAN-GHE-f375bf5b-1
     RDKit          3D

 36 39  0  0  0  0  0  0  0  0999 V2000
    8.6610    3.3800   22.1130 C   0  0  0  0  0  0  0  0  0  0  0  0
    9.9830    3.2630   22.8380 C   0  0  0  0  0  0  0  0  0  0  0  0
   11.0190    2.9630   22.2630 O   0  0  0  0  0  0  0  0  0  0  0  0
    9.9500    3.5130   24.1890 N   0  0  0  0  0  0  0  0  0  0  0  0
    8.7390    3.4690   24.9870 C   0  0  1  0  0  0  0  0  0  0  0  0
    8.2390    4.7510   25.0340 C   0  0  0  0  0  0  0  0  0  0  0  0
    9.4610    5.6230   24.9150 C   0  0  0  0  0  0  0  0  0  0  0  0
   10.2400    6.1050   25.9910 C   0  0  0  0  0  0  0  0  0  0  0  0
   11.3830    6.9020   25.8230 C   0  0  0  0  0  0  0  0  0  0  0  0
   11.8630    7.3060   24.4500 C   0  0  0  0  0  0  0  0  0  0  0  0
   10.9860    6.7580   23.3620 C   0  0  0  0  0  0  0  0  0  0  0  0
    9.8570    5.9680   23.6070 C   0  0  0  0  0  0  0  0  0  0  0  0
    7.8300    2.3590   24.4190 C   0  0  0  0  0  0  0  0  0  0  0  0
    6.6040    2.3790   24.5180 O   0  0  0  0  0  0  0  0  0  0  0  0
    8.5060    1.3050   23.7850 N   0  0  0  0  0  0  0  0  0  0  0  0
    7.7930    0.1730   23.1510 C   0  0  2  0  0  0  0  0  0  0  0  0
    8.1000   -1.0440   23.8010 C   0  0  0  0  0  0  0  0  0  0  0  0
    7.4480   -2.1710   23.2790 C   0  0  1  0  0  0  0  0  0  0  0  0
    8.2530   -3.2980   23.1400 C   0  0  0  0  0  0  0  0  0  0  0  0
    7.5210   -4.4590   23.3170 C   0  0  0  0  0  0  0  0  0  0  0  0
    6.3760   -4.1860   23.9190 N   0  0  0  0  0  0  0  0  0  0  0  0
    6.4440   -2.7380   24.1200 C   0  0  0  0  0  0  0  0  0  0  0  0
    5.7130   -2.1530   24.9180 O   0  0  0  0  0  0  0  0  0  0  0  0
    8.2830    0.1520   21.8500 C   0  0  0  0  0  0  0  0  0  0  0  0
    9.2780    0.8010   21.5140 O   0  0  0  0  0  0  0  0  0  0  0  0
    7.4510   -0.7090   20.9960 N   0  0  0  0  0  0  0  0  0  0  0  0
    6.6460    0.0510   20.0350 C   0  0  0  0  0  0  0  0  0  0  0  0
    7.0420   -0.1050   18.7390 C   0  0  0  0  0  0  0  0  0  0  0  0
    6.4510    0.4960   17.7070 N   0  0  0  0  0  0  0  0  0  0  0  0
    5.4080    1.2910   17.9700 C   0  0  0  0  0  0  0  0  0  0  0  0
    4.9070    1.5310   19.2350 C   0  0  0  0  0  0  0  0  0  0  0  0
    3.8140    2.3810   19.3720 C   0  0  0  0  0  0  0  0  0  0  0  0
    3.2360    2.6890   20.5990 C   0  0  0  0  0  0  0  0  0  0  0  0
    3.7540    2.1370   21.7590 C   0  0  0  0  0  0  0  0  0  0  0  0
    4.9470    1.1960   21.7080 C   0  0  0  0  0  0  0  0  0  0  0  0
    5.5330    0.8990   20.3340 C   0  0  0  0  0  0  0  0  0  0  0  0
  1  2  1  0
  2  3  2  0
  2  4  1  0
  4  5  1  0
  5  6  1  6
  6  7  1  0
  7  8  2  0
  8  9  1  0
  9 10  2  0
 10 11  1  0
  7 12  1  0
 11 12  2  0
  5 13  1  0
 13 14  2  0
 13 15  1  0
 15 16  1  0
 16 17  1  1
 18 17  1  1
 18 19  1  0
 19 20  1  0
 20 21  1  0
 18 22  1  0
 21 22  1  0
 22 23  2  0
 16 24  1  0
 24 25  2  0
 24 26  1  0
 26 27  1  0
 27 28  2  0
 28 29  1  0
 29 30  2  0
 30 31  1  0
 31 32  1  0
 32 33  2  0
 33 34  1  0
 34 35  2  0
 27 36  1  0
 31 36  2  0
 35 36  1  0
M  END
