JAN-GHE-fd8d85a5-9
     RDKit          3D

 22 23  0  0  0  0  0  0  0  0999 V2000
   12.2070   -2.2500   21.1670 C   0  0  0  0  0  0  0  0  0  0  0  0
   13.5200   -1.6590   21.3630 C   0  0  0  0  0  0  0  0  0  0  0  0
   13.6040   -1.0890   22.5930 C   0  0  0  0  0  0  0  0  0  0  0  0
   12.3170   -0.5170   22.8610 C   0  0  0  0  0  0  0  0  0  0  0  0
   12.1020    0.8170   22.6930 C   0  0  0  0  0  0  0  0  0  0  0  0
   10.7290    1.3150   22.9240 C   0  0  0  0  0  0  0  0  0  0  0  0
    9.7540    0.4840   23.2970 C   0  0  0  0  0  0  0  0  0  0  0  0
    8.4660    0.9700   23.5090 N   0  0  0  0  0  0  0  0  0  0  0  0
    8.1210    2.3350   23.0500 C   0  0  0  0  0  0  0  0  0  0  0  0
    8.5830    3.3220   24.1260 C   0  0  0  0  0  0  0  0  0  0  0  0
   10.0400   -0.9030   23.4850 C   0  0  0  0  0  0  0  0  0  0  0  0
    9.0450   -1.9460   23.9130 C   0  0  0  0  0  0  0  0  0  0  0  0
    8.3050   -2.5080   22.7840 N   0  0  0  0  0  0  0  0  0  0  0  0
    6.9520   -2.9140   23.1900 C   0  0  0  0  0  0  0  0  0  0  0  0
    6.1520   -3.2240   22.0810 C   0  0  0  0  0  0  0  0  0  0  0  0
    6.0470   -2.3500   21.0550 N   0  0  0  0  0  0  0  0  0  0  0  0
    5.7510   -2.8820   19.8400 C   0  0  0  0  0  0  0  0  0  0  0  0
    5.9600   -2.0340   18.7480 C   0  0  0  0  0  0  0  0  0  0  0  0
    5.3390   -4.0430   19.6910 O   0  0  0  0  0  0  0  0  0  0  0  0
    6.9490   -1.1950   21.1100 C   0  0  0  0  0  0  0  0  0  0  0  0
    8.3240   -1.6110   21.6250 C   0  0  0  0  0  0  0  0  0  0  0  0
   11.3200   -1.3720   23.2580 C   0  0  0  0  0  0  0  0  0  0  0  0
  1  2  1  0
  2  3  3  0
  3  4  1  0
  4  5  2  0
  5  6  1  0
  6  7  2  0
  7  8  1  0
  8  9  1  0
  9 10  1  0
  7 11  1  0
 11 12  1  0
 12 13  1  0
 13 14  1  0
 14 15  1  0
 15 16  1  0
 16 17  1  0
 17 18  1  0
 17 19  2  0
 16 20  1  0
 13 21  1  0
 20 21  1  0
  4 22  1  0
 11 22  2  0
M  END
