JAN-LUN-3e0f9c09-1
     RDKit          3D

 23 24  0  0  0  0  0  0  0  0999 V2000
    0.9870    4.9480   22.2550 O   0  0  0  0  0  0  0  0  0  0  0  0
    0.9980    3.9480   21.5570 C   0  0  0  0  0  0  0  0  0  0  0  0
    0.0690    3.7760   20.5900 O   0  0  0  0  0  0  0  0  0  0  0  0
    1.9790    2.8020   21.6430 C   0  0  0  0  0  0  0  0  0  0  0  0
    2.2870    2.1560   20.2910 C   0  0  0  0  0  0  0  0  0  0  0  0
    3.5180    2.7170   19.5580 C   0  0  0  0  0  0  0  0  0  0  0  0
    4.6640    1.7590   19.3350 C   0  0  0  0  0  0  0  0  0  0  0  0
    5.1130    1.3800   17.9530 C   0  0  0  0  0  0  0  0  0  0  0  0
    6.1250    0.5390   17.7130 N   0  0  0  0  0  0  0  0  0  0  0  0
    6.7690    0.0240   18.7750 C   0  0  0  0  0  0  0  0  0  0  0  0
    6.4570    0.3030   20.1000 C   0  0  0  0  0  0  0  0  0  0  0  0
    7.1610   -0.2260   21.1800 N   0  0  0  0  0  0  0  0  0  0  0  0
    8.3410    0.3250   21.6320 C   0  0  0  0  0  0  0  0  0  0  0  0
    8.8200    1.3950   21.2250 O   0  0  0  0  0  0  0  0  0  0  0  0
    8.9260   -0.4790   22.5860 N   0  0  0  0  0  0  0  0  0  0  0  0
   10.2680   -0.3700   22.9230 C   0  0  0  0  0  0  0  0  0  0  0  0
   10.9410    0.8310   22.7360 C   0  0  0  0  0  0  0  0  0  0  0  0
   12.2650    0.9070   23.0630 C   0  0  0  0  0  0  0  0  0  0  0  0
   12.9170   -0.2880   23.6070 C   0  0  0  0  0  0  0  0  0  0  0  0
   12.2380   -1.4480   23.7920 C   0  0  0  0  0  0  0  0  0  0  0  0
   13.0540   -2.7900   24.4500 Cl  0  0  0  0  0  0  0  0  0  0  0  0
   10.9010   -1.5040   23.4460 C   0  0  0  0  0  0  0  0  0  0  0  0
    5.3860    1.1740   20.3760 C   0  0  0  0  0  0  0  0  0  0  0  0
  1  2  2  0
  2  3  1  0
  2  4  1  0
  4  5  1  0
  5  6  1  0
  6  7  1  0
  7  8  2  0
  8  9  1  0
  9 10  2  0
 10 11  1  0
 11 12  1  0
 12 13  1  0
 13 14  2  0
 13 15  1  0
 15 16  1  0
 16 17  2  0
 17 18  1  0
 18 19  2  0
 19 20  1  0
 20 21  1  0
 16 22  1  0
 20 22  2  0
  7 23  1  0
 11 23  2  0
M  END
