JAN-GHE-fd8d85a5-10
     RDKit          3D

 20 21  0  0  0  0  0  0  0  0999 V2000
    8.3580    2.4040   21.6510 C   0  0  0  0  0  0  0  0  0  0  0  0
    9.2950    2.0400   22.7480 C   0  0  0  0  0  0  0  0  0  0  0  0
    9.2060    0.7810   23.2890 N   0  0  0  0  0  0  0  0  0  0  0  0
   10.3990    0.1040   23.2670 C   0  0  0  0  0  0  0  0  0  0  0  0
   11.6520    0.8410   22.8950 C   0  0  0  0  0  0  0  0  0  0  0  0
   12.9310    0.0160   22.9050 C   0  0  0  0  0  0  0  0  0  0  0  0
   12.7720   -1.4500   23.2920 C   0  0  0  0  0  0  0  0  0  0  0  0
   13.8260   -2.2510   23.3290 F   0  0  0  0  0  0  0  0  0  0  0  0
   11.5510   -1.9900   23.6140 C   0  0  0  0  0  0  0  0  0  0  0  0
   10.3920   -1.2630   23.6060 C   0  0  0  0  0  0  0  0  0  0  0  0
    9.2560   -1.9850   23.9520 C   0  0  0  0  0  0  0  0  0  0  0  0
    8.3670   -2.2930   22.8300 N   0  0  0  0  0  0  0  0  0  0  0  0
    7.0700   -2.8760   23.2360 C   0  0  0  0  0  0  0  0  0  0  0  0
    6.1520   -2.9920   22.1970 C   0  0  0  0  0  0  0  0  0  0  0  0
    6.8220   -2.7300   20.9110 N   0  0  0  0  0  0  0  0  0  0  0  0
    6.0210   -3.0110   19.7310 C   0  0  0  0  0  0  0  0  0  0  0  0
    6.1140   -2.0920   18.7060 C   0  0  0  0  0  0  0  0  0  0  0  0
    5.3240   -4.0250   19.6090 O   0  0  0  0  0  0  0  0  0  0  0  0
    7.4220   -1.3900   20.9220 C   0  0  0  0  0  0  0  0  0  0  0  0
    8.1880   -1.1870   22.0330 C   0  0  0  0  0  0  0  0  0  0  0  0
  1  2  1  0
  2  3  1  0
  3  4  1  0
  4  5  2  0
  5  6  1  0
  6  7  2  0
  7  8  1  0
  7  9  1  0
  4 10  1  0
  9 10  2  0
 10 11  1  0
 11 12  1  0
 12 13  1  0
 13 14  1  0
 14 15  1  0
 15 16  1  0
 16 17  1  0
 16 18  2  0
 15 19  1  0
 12 20  1  0
 19 20  1  0
M  END
