JAN-LUN-3e0f9c09-7
     RDKit          3D

 25 27  0  0  0  0  0  0  0  0999 V2000
    1.3170    4.3580   21.6050 O   0  0  0  0  0  0  0  0  0  0  0  0
    1.8140    3.2700   21.3470 C   0  0  0  0  0  0  0  0  0  0  0  0
    1.2410    2.0990   21.7030 O   0  0  0  0  0  0  0  0  0  0  0  0
    3.1390    3.0920   20.5940 C   0  0  0  0  0  0  0  0  0  0  0  0
    3.0950    2.0690   19.6490 C   0  0  0  0  0  0  0  0  0  0  0  0
    4.3060    1.3730   19.4980 C   0  0  0  0  0  0  0  0  0  0  0  0
    5.1500    1.6010   18.4520 C   0  0  0  0  0  0  0  0  0  0  0  0
    6.3290    0.8750   18.3570 C   0  0  0  0  0  0  0  0  0  0  0  0
    6.9090   -0.0480   19.1340 N   0  0  0  0  0  0  0  0  0  0  0  0
    6.1650   -0.3210   20.2730 C   0  0  1  0  0  0  0  0  0  0  0  0
    6.9270    0.2530   21.5870 N   0  0  0  0  0  0  0  0  0  0  0  0
    6.0230    1.0360   22.4420 C   0  0  0  0  0  0  0  0  0  0  0  0
    5.8390    0.4730   21.3440 C   0  0  0  0  0  0  0  0  0  0  0  0
    7.0890   -0.1020   21.0240 N   0  0  0  0  0  0  0  0  0  0  0  0
    8.3660    0.3080   21.5100 C   0  0  0  0  0  0  0  0  0  0  0  0
    8.9240    1.3690   21.1850 O   0  0  0  0  0  0  0  0  0  0  0  0
    8.9170   -0.7210   22.4550 N   0  0  0  0  0  0  0  0  0  0  0  0
   10.2720   -0.4750   22.6820 C   0  0  0  0  0  0  0  0  0  0  0  0
   10.7370    0.9650   22.7870 C   0  0  0  0  0  0  0  0  0  0  0  0
   12.2140    1.1100   23.0190 C   0  0  0  0  0  0  0  0  0  0  0  0
   13.0480    0.0370   23.1290 C   0  0  0  0  0  0  0  0  0  0  0  0
   12.5920   -1.2650   23.0380 C   0  0  0  0  0  0  0  0  0  0  0  0
   13.4370   -2.3300   23.1560 O   0  0  0  0  0  0  0  0  0  0  0  0
   11.2320   -1.5010   22.8160 C   0  0  0  0  0  0  0  0  0  0  0  0
    4.7250    0.3270   20.4800 C   0  0  1  0  0  0  0  0  0  0  0  0
  1  2  2  0
  2  3  1  0
  2  4  1  0
  4  5  1  0
  5  6  1  0
  6  7  2  0
  7  8  1  0
  8  9  2  0
 10  9  1  6
 10 11  1  0
 11 12  1  0
 12 13  2  0
 13 14  1  0
 14 15  1  0
 15 16  2  0
 15 17  1  0
 17 18  1  0
 18 19  2  0
 19 20  1  0
 20 21  2  0
 21 22  1  0
 22 23  1  0
 18 24  1  0
 22 24  2  0
 25  6  1  6
 10 25  1  0
 13 25  1  0
M  END
