JAN-GHE-4287bd1a-5
     RDKit          3D

 22 24  0  0  0  0  0  0  0  0999 V2000
    8.2910    6.2890   23.8730 O   0  0  0  0  0  0  0  0  0  0  0  0
    9.4110    5.8060   23.7800 C   0  0  0  0  0  0  0  0  0  0  0  0
   10.5740    6.5220   23.1620 C   0  0  0  0  0  0  0  0  0  0  0  0
   11.8590    5.8080   23.5300 C   0  0  0  0  0  0  0  0  0  0  0  0
   12.2670    4.6800   22.5770 C   0  0  0  0  0  0  0  0  0  0  0  0
   11.3100    3.4850   22.5280 C   0  0  0  0  0  0  0  0  0  0  0  0
   10.1470    3.4200   23.4300 N   0  0  0  0  0  0  0  0  0  0  0  0
    9.2480    2.2460   23.3260 C   0  0  0  0  0  0  0  0  0  0  0  0
    9.1320    1.4930   21.9910 C   0  0  0  0  0  0  0  0  0  0  0  0
    8.6990    2.1230   21.0270 O   0  0  0  0  0  0  0  0  0  0  0  0
    9.4900    0.1250   21.9650 N   0  0  0  0  0  0  0  0  0  0  0  0
    8.4150   -0.8270   21.6270 C   0  0  0  0  0  0  0  0  0  0  0  0
    8.6130   -2.2720   22.0740 C   0  0  0  0  0  0  0  0  0  0  0  0
    9.0030   -2.3440   23.8200 S   0  0  0  0  0  0  0  0  0  0  0  0
   10.5120   -1.4340   23.6180 C   0  0  0  0  0  0  0  0  0  0  0  0
   11.6100   -1.8510   24.3660 C   0  0  0  0  0  0  0  0  0  0  0  0
   12.8310   -1.2080   24.2660 C   0  0  0  0  0  0  0  0  0  0  0  0
   12.9580   -0.1430   23.4190 C   0  0  0  0  0  0  0  0  0  0  0  0
   11.8780    0.2720   22.6900 C   0  0  0  0  0  0  0  0  0  0  0  0
   10.6220   -0.3510   22.7560 C   0  0  0  0  0  0  0  0  0  0  0  0
    9.7030    4.4120   24.3160 C   0  0  0  0  0  0  0  0  0  0  0  0
    9.5290    4.2230   25.5130 O   0  0  0  0  0  0  0  0  0  0  0  0
  1  2  2  0
  2  3  1  0
  3  4  1  0
  4  5  1  0
  5  6  1  0
  6  7  1  0
  7  8  1  0
  8  9  1  0
  9 10  2  0
  9 11  1  0
 11 12  1  0
 12 13  1  0
 13 14  1  0
 14 15  1  0
 15 16  2  0
 16 17  1  0
 17 18  2  0
 18 19  1  0
 11 20  1  0
 15 20  1  0
 19 20  2  0
  2 21  1  0
  7 21  1  0
 21 22  2  0
M  END
