JAN-GHE-1d98ec1c-7
     RDKit          3D

 23 24  0  0  0  0  0  0  0  0999 V2000
    5.7450   -1.8990   21.1380 C   0  0  0  0  0  0  0  0  0  0  0  0
    6.4280   -2.7110   22.1780 C   0  0  0  0  0  0  0  0  0  0  0  0
    5.8830   -4.0280   22.2250 O   0  0  0  0  0  0  0  0  0  0  0  0
    7.4060   -2.3040   22.9730 N   0  0  0  0  0  0  0  0  0  0  0  0
    8.2330   -3.3560   23.3000 C   0  0  0  0  0  0  0  0  0  0  0  0
    9.6050   -2.8440   23.6760 C   0  0  0  0  0  0  0  0  0  0  0  0
   10.2710   -2.2750   22.4940 N   0  0  0  0  0  0  0  0  0  0  0  0
   11.6730   -1.8370   22.7400 C   0  0  0  0  0  0  0  0  0  0  0  0
   11.8010   -1.3310   24.0300 C   0  0  0  0  0  0  0  0  0  0  0  0
   12.5820   -1.8060   24.8510 O   0  0  0  0  0  0  0  0  0  0  0  0
   10.9530   -0.2470   24.2420 N   0  0  0  0  0  0  0  0  0  0  0  0
   11.2030    1.0810   23.8550 C   0  0  0  0  0  0  0  0  0  0  0  0
   12.2180    1.3790   23.3860 C   0  0  0  0  0  0  0  0  0  0  0  0
   12.9750    2.3480   22.8800 C   0  0  0  0  0  0  0  0  0  0  0  0
   12.2810    3.5390   22.9100 C   0  0  0  0  0  0  0  0  0  0  0  0
   10.8810    3.4840   23.4900 C   0  0  0  0  0  0  0  0  0  0  0  0
    9.9040    4.9650   23.6030 S   0  0  0  0  0  0  0  0  0  0  0  0
   10.7980    6.0670   22.6810 N   0  0  0  0  0  0  0  0  0  0  0  0
    9.9470    5.4850   24.9510 O   0  0  0  0  0  0  0  0  0  0  0  0
    8.6560    4.7700   22.9160 O   0  0  0  0  0  0  0  0  0  0  0  0
   10.3720    2.2230   23.9500 C   0  0  0  0  0  0  0  0  0  0  0  0
    9.4160   -1.2100   21.9170 C   0  0  0  0  0  0  0  0  0  0  0  0
    8.1000   -1.0400   22.6860 C   0  0  0  0  0  0  0  0  0  0  0  0
  1  2  1  0
  2  3  2  0
  2  4  1  0
  4  5  1  0
  5  6  1  0
  6  7  1  0
  7  8  1  0
  8  9  1  0
  9 10  2  0
  9 11  1  0
 11 12  1  0
 12 13  2  0
 13 14  1  0
 14 15  2  0
 15 16  1  0
 16 17  1  0
 17 18  1  0
 17 19  2  0
 17 20  2  0
 12 21  1  0
 16 21  2  0
  7 22  1  0
  4 23  1  0
 22 23  1  0
M  END
