JAN-GHE-1d98ec1c-9
     RDKit          3D

 24 25  0  0  0  0  0  0  0  0999 V2000
    6.0240   -1.8540   18.6600 C   0  0  0  0  0  0  0  0  0  0  0  0
    5.8860   -2.7040   19.8710 C   0  0  0  0  0  0  0  0  0  0  0  0
    5.3850   -3.8360   19.7440 O   0  0  0  0  0  0  0  0  0  0  0  0
    6.3220   -2.2850   21.0460 N   0  0  0  0  0  0  0  0  0  0  0  0
    6.0740   -2.9530   22.3160 C   0  0  0  0  0  0  0  0  0  0  0  0
    7.3520   -3.3470   23.0050 C   0  0  0  0  0  0  0  0  0  0  0  0
    8.3510   -2.2900   22.8500 N   0  0  0  0  0  0  0  0  0  0  0  0
    9.5470   -2.4100   23.7320 C   0  0  0  0  0  0  0  0  0  0  0  0
   11.2170   -1.7120   23.3280 S   0  0  0  0  0  0  0  0  0  0  0  0
   11.8800   -2.6050   22.4180 O   0  0  0  0  0  0  0  0  0  0  0  0
   11.8540   -1.3160   24.5550 O   0  0  0  0  0  0  0  0  0  0  0  0
   10.9560   -0.3490   22.3760 N   0  0  0  0  0  0  0  0  0  0  0  0
   10.4030    0.8820   22.8390 C   0  0  0  0  0  0  0  0  0  0  0  0
    9.1610    1.0460   23.3240 C   0  0  0  0  0  0  0  0  0  0  0  0
    8.5580    2.3330   23.8090 C   0  0  0  0  0  0  0  0  0  0  0  0
    9.3400    3.6320   23.7900 C   0  0  0  0  0  0  0  0  0  0  0  0
   10.7600    3.5390   23.2510 C   0  0  0  0  0  0  0  0  0  0  0  0
   11.8320    4.9520   23.1510 S   0  0  0  0  0  0  0  0  0  0  0  0
   10.8250    6.1050   22.4670 N   0  0  0  0  0  0  0  0  0  0  0  0
   12.0640    5.4190   24.4980 O   0  0  0  0  0  0  0  0  0  0  0  0
   12.8920    4.6590   22.2180 O   0  0  0  0  0  0  0  0  0  0  0  0
   11.1460    2.1350   22.8240 C   0  0  0  0  0  0  0  0  0  0  0  0
    8.6200   -1.6510   21.5660 C   0  0  0  0  0  0  0  0  0  0  0  0
    7.4300   -1.2930   20.9200 C   0  0  0  0  0  0  0  0  0  0  0  0
  1  2  1  0
  2  3  2  0
  2  4  1  0
  4  5  1  0
  5  6  1  0
  6  7  1  0
  7  8  1  0
  8  9  1  0
  9 10  2  0
  9 11  2  0
  9 12  1  0
 12 13  1  0
 13 14  2  0
 14 15  1  0
 15 16  2  0
 16 17  1  0
 17 18  1  0
 18 19  1  0
 18 20  2  0
 18 21  2  0
 13 22  1  0
 17 22  2  0
  7 23  1  0
  4 24  1  0
 23 24  1  0
M  END
