JAN-LUN-8953ce76-2
     RDKit          3D

 25 27  0  0  0  0  0  0  0  0999 V2000
   14.5540   -4.6910   20.8210 O   0  0  0  0  0  0  0  0  0  0  0  0
   14.2090   -3.6440   20.2890 C   0  0  0  0  0  0  0  0  0  0  0  0
   14.9700   -3.3670   19.3020 O   0  0  0  0  0  0  0  0  0  0  0  0
   13.2110   -2.6540   20.8630 C   0  0  0  0  0  0  0  0  0  0  0  0
   13.0480   -2.7110   22.2490 C   0  0  0  0  0  0  0  0  0  0  0  0
   12.5980   -1.5940   22.6730 C   0  0  0  0  0  0  0  0  0  0  0  0
   11.5730   -1.4820   23.4430 C   0  0  0  0  0  0  0  0  0  0  0  0
   11.1990   -0.2120   23.7400 C   0  0  2  0  0  0  0  0  0  0  0  0
   10.1920    0.3460   22.9750 C   0  0  0  0  0  0  0  0  0  0  0  0
    9.0710   -0.2580   22.4930 N   0  0  0  0  0  0  0  0  0  0  0  0
    8.4030    0.2500   21.3970 C   0  0  0  0  0  0  0  0  0  0  0  0
    8.6010    1.4000   20.9870 O   0  0  0  0  0  0  0  0  0  0  0  0
    7.5410   -0.6410   20.8550 N   0  0  0  0  0  0  0  0  0  0  0  0
    6.5840   -0.0200   20.1640 C   0  0  0  0  0  0  0  0  0  0  0  0
    5.2210    0.3500   20.7910 C   0  0  0  0  0  0  0  0  0  0  0  0
    4.2140    1.0840   19.9180 C   0  0  0  0  0  0  0  0  0  0  0  0
    4.7270    1.3480   18.5270 C   0  0  0  0  0  0  0  0  0  0  0  0
    5.9730    0.9650   18.0620 C   0  0  0  0  0  0  0  0  0  0  0  0
    6.2460    1.2960   16.7910 O   0  0  0  0  0  0  0  0  0  0  0  0
    6.8780    0.2960   18.8450 C   0  0  0  0  0  0  0  0  0  0  0  0
   10.4990    1.6370   22.7360 C   0  0  0  0  0  0  0  0  0  0  0  0
   11.6770    1.9930   23.3410 N   0  0  0  0  0  0  0  0  0  0  0  0
   12.1500    0.8050   23.6670 C   0  0  2  0  0  0  0  0  0  0  0  0
   13.1400    0.6890   22.6670 N   0  0  0  0  0  0  0  0  0  0  0  0
   13.2770   -0.4410   22.2300 C   0  0  0  0  0  0  0  0  0  0  0  0
  1  2  2  0
  2  3  1  0
  2  4  1  0
  4  5  1  0
  5  6  1  0
  6  7  2  0
  8  7  1  6
  8  9  1  0
  9 10  1  0
 10 11  1  0
 11 12  2  0
 11 13  1  0
 13 14  1  0
 14 15  2  0
 15 16  1  0
 16 17  2  0
 17 18  1  0
 18 19  1  0
 14 20  1  0
 18 20  2  0
  9 21  2  0
 21 22  1  0
  8 23  1  0
 23 22  1  6
 23 24  1  0
  6 25  1  0
 24 25  2  0
M  END
