JAR-KUA-672ec752-11
     RDKit          3D

 22 24  0  0  0  0  0  0  0  0999 V2000
   10.2540   -2.7620   23.4430 C   0  0  0  0  0  0  0  0  0  0  0  0
   10.7860   -1.3970   23.2260 C   0  0  0  0  0  0  0  0  0  0  0  0
    9.7380   -0.3400   23.3770 C   0  0  0  0  0  0  0  0  0  0  0  0
   10.1650    1.0580   23.1800 C   0  0  0  0  0  0  0  0  0  0  0  0
   11.5730    1.2830   22.8640 C   0  0  0  0  0  0  0  0  0  0  0  0
   12.0640    2.4410   22.6880 C   0  0  0  0  0  0  0  0  0  0  0  0
   13.4540    2.4210   22.3920 C   0  0  0  0  0  0  0  0  0  0  0  0
   14.3590    3.6260   22.1270 C   0  0  0  0  0  0  0  0  0  0  0  0
   15.2090    3.0400   21.2590 N   0  0  0  0  0  0  0  0  0  0  0  0
   15.8950    3.7260   20.2120 C   0  0  0  0  0  0  0  0  0  0  0  0
   15.7600    3.1170   18.8520 C   0  0  0  0  0  0  0  0  0  0  0  0
   15.4980    4.0360   18.0610 O   0  0  0  0  0  0  0  0  0  0  0  0
   16.0780    1.7880   18.2880 N   0  0  0  0  0  0  0  0  0  0  0  0
   16.1940    0.5150   18.7760 C   0  0  0  0  0  0  0  0  0  0  0  0
   17.3910    0.0100   18.3840 C   0  0  0  0  0  0  0  0  0  0  0  0
   17.2670   -0.5990   17.1340 N   0  0  0  0  0  0  0  0  0  0  0  0
   16.5830   -1.8180   17.2370 C   0  0  0  0  0  0  0  0  0  0  0  0
   16.9070    0.4450   16.3310 C   0  0  0  0  0  0  0  0  0  0  0  0
   16.0370    1.4930   16.8920 C   0  0  0  0  0  0  0  0  0  0  0  0
   13.7330    1.0140   22.4140 N   0  0  0  0  0  0  0  0  0  0  0  0
   12.4620    0.2780   22.7400 C   0  0  0  0  0  0  0  0  0  0  0  0
   12.1510   -1.0720   22.9000 C   0  0  0  0  0  0  0  0  0  0  0  0
  1  2  1  0
  2  3  2  0
  3  4  1  0
  4  5  2  0
  5  6  1  0
  6  7  2  0
  7  8  1  0
  8  9  1  0
  9 10  1  0
 10 11  1  0
 11 12  2  0
 11 13  1  0
 13 14  1  0
 14 15  1  0
 15 16  1  0
 16 17  1  0
 16 18  1  0
 13 19  1  0
 18 19  1  0
  7 20  1  0
  5 21  1  0
 20 21  1  0
  2 22  1  0
 21 22  2  0
M  END
