JAR-KUA-672ec752-6
     RDKit          3D

 23 26  0  0  0  0  0  0  0  0999 V2000
    5.7300   -4.1290   23.9590 O   0  0  0  0  0  0  0  0  0  0  0  0
    7.0860   -3.9150   24.3540 S   0  0  0  0  0  0  0  0  0  0  0  0
    8.0750   -4.9600   24.2180 O   0  0  0  0  0  0  0  0  0  0  0  0
    6.8740   -3.2480   25.9120 N   0  0  0  0  0  0  0  0  0  0  0  0
    5.9560   -3.3270   26.6160 C   0  0  0  0  0  0  0  0  0  0  0  0
    4.9370   -4.1520   26.3950 N   0  0  0  0  0  0  0  0  0  0  0  0
    3.8240   -3.9920   27.6010 S   0  0  0  0  0  0  0  0  0  0  0  0
    4.6820   -2.7930   28.4750 C   0  0  0  0  0  0  0  0  0  0  0  0
    4.3590   -2.0750   29.7420 C   0  0  0  0  0  0  0  0  0  0  0  0
    5.2640   -1.1270   30.2380 C   0  0  0  0  0  0  0  0  0  0  0  0
    6.4530   -0.8720   29.5340 C   0  0  0  0  0  0  0  0  0  0  0  0
    6.7480   -1.5490   28.3430 C   0  0  0  0  0  0  0  0  0  0  0  0
    5.8760   -2.5060   27.8090 C   0  0  0  0  0  0  0  0  0  0  0  0
    7.8180   -2.4270   23.7520 C   0  0  0  0  0  0  0  0  0  0  0  0
    8.8410   -1.6010   23.4650 C   0  0  0  0  0  0  0  0  0  0  0  0
    9.0260   -0.4140   22.9880 C   0  0  0  0  0  0  0  0  0  0  0  0
   10.3880   -0.6060   23.1870 C   0  0  0  0  0  0  0  0  0  0  0  0
   11.4070    0.4580   22.8690 C   0  0  0  0  0  0  0  0  0  0  0  0
   12.7440    0.1110   23.1260 C   0  0  0  0  0  0  0  0  0  0  0  0
   12.9790   -1.2980   23.6790 C   0  0  0  0  0  0  0  0  0  0  0  0
   11.8220   -2.3100   23.9620 C   0  0  0  0  0  0  0  0  0  0  0  0
   10.5050   -1.9330   23.7140 C   0  0  0  0  0  0  0  0  0  0  0  0
    9.2550   -2.8430   23.9900 C   0  0  0  0  0  0  0  0  0  0  0  0
  1  2  2  0
  2  3  2  0
  2  4  1  0
  4  5  1  0
  5  6  2  0
  6  7  1  0
  7  8  1  0
  8  9  1  0
  9 10  2  0
 10 11  1  0
 11 12  2  0
  5 13  1  0
  8 13  2  0
 12 13  1  0
  2 14  1  0
 14 15  2  0
 15 16  1  0
 16 17  2  0
 17 18  1  0
 18 19  2  0
 19 20  1  0
 20 21  2  0
 17 22  1  0
 21 22  1  0
 14 23  1  0
 22 23  2  0
M  END
