JAR-IMP-ed466bb3-7
     RDKit          3D

 25 28  0  0  0  0  0  0  0  0999 V2000
    5.5540   -7.0830   29.2100 C   0  0  0  0  0  0  0  0  0  0  0  0
    5.7750   -6.2220   28.0390 C   0  0  2  0  0  0  0  0  0  0  0  0
    6.8380   -5.4110   27.7280 C   0  0  0  0  0  0  0  0  0  0  0  0
    6.7450   -4.7140   26.5050 N   0  0  0  0  0  0  0  0  0  0  0  0
    7.9680   -4.4920   25.7390 C   0  0  0  0  0  0  0  0  0  0  0  0
    8.9920   -5.1330   25.9660 O   0  0  0  0  0  0  0  0  0  0  0  0
    7.9170   -3.4410   24.6480 N   0  0  0  0  0  0  0  0  0  0  0  0
    6.9380   -2.3480   24.8510 C   0  0  0  0  0  0  0  0  0  0  0  0
    7.0800   -1.2710   23.9670 C   0  0  0  0  0  0  0  0  0  0  0  0
    6.0560   -0.2020   23.9810 C   0  0  0  0  0  0  0  0  0  0  0  0
    6.0620    0.9190   23.1680 C   0  0  0  0  0  0  0  0  0  0  0  0
    7.1470    1.2560   22.0950 C   0  0  0  0  0  0  0  0  0  0  0  0
    8.0810    0.0510   22.2500 C   0  0  0  0  0  0  0  0  0  0  0  0
    8.0830   -1.0830   23.0660 C   0  0  0  0  0  0  0  0  0  0  0  0
    9.1910   -2.1220   22.9650 C   0  0  1  0  0  0  0  0  0  0  0  0
   10.5620   -1.4130   22.8250 C   0  0  0  0  0  0  0  0  0  0  0  0
   10.7270    0.0120   23.2770 C   0  0  0  0  0  0  0  0  0  0  0  0
   11.9940    0.6180   23.1410 C   0  0  0  0  0  0  0  0  0  0  0  0
   13.0420   -0.1000   22.6090 C   0  0  0  0  0  0  0  0  0  0  0  0
   12.8960   -1.4110   22.1840 C   0  0  0  0  0  0  0  0  0  0  0  0
   11.6730   -2.0540   22.2910 C   0  0  0  0  0  0  0  0  0  0  0  0
    9.2110   -2.8890   24.3020 C   0  0  0  0  0  0  0  0  0  0  0  0
    5.4990   -4.9910   25.7800 C   0  0  0  0  0  0  0  0  0  0  0  0
    4.3990   -4.8290   26.6170 C   0  0  0  0  0  0  0  0  0  0  0  0
    4.5570   -5.4600   27.9030 O   0  0  0  0  0  0  0  0  0  0  0  0
  2  1  1  1
  2  3  1  0
  3  4  1  0
  4  5  1  0
  5  6  2  0
  5  7  1  0
  7  8  1  0
  8  9  1  0
  9 10  2  0
 10 11  1  0
 11 12  2  0
 12 13  1  0
  9 14  1  0
 13 14  2  0
 14 15  1  0
 15 16  1  1
 16 17  2  0
 17 18  1  0
 18 19  2  0
 19 20  1  0
 16 21  1  0
 20 21  2  0
  7 22  1  0
 15 22  1  0
  4 23  1  0
 23 24  1  0
  2 25  1  0
 24 25  1  0
M  END
