JAR-KUA-672ec752-8
     RDKit          3D

 20 23  0  0  0  0  0  0  0  0999 V2000
    5.9470   -6.4490   22.5800 C   0  0  0  0  0  0  0  0  0  0  0  0
    4.6800   -6.1230   22.4240 C   0  0  0  0  0  0  0  0  0  0  0  0
    4.3470   -4.9920   22.0640 O   0  0  0  0  0  0  0  0  0  0  0  0
    5.5360   -4.3350   21.9260 C   0  0  0  0  0  0  0  0  0  0  0  0
    5.4430   -2.9970   21.5240 C   0  0  0  0  0  0  0  0  0  0  0  0
    6.5200   -2.2330   21.9510 C   0  0  0  0  0  0  0  0  0  0  0  0
    6.9720   -1.0650   21.3210 C   0  0  0  0  0  0  0  0  0  0  0  0
    7.5100   -0.6720   22.6410 N   0  0  0  0  0  0  0  0  0  0  0  0
    8.6120   -1.6040   22.9590 C   0  0  0  0  0  0  0  0  0  0  0  0
    9.9180   -0.8600   22.9460 C   0  0  0  0  0  0  0  0  0  0  0  0
   10.4680    0.5770   23.3320 C   0  0  0  0  0  0  0  0  0  0  0  0
   11.7390    0.8120   23.1740 C   0  0  0  0  0  0  0  0  0  0  0  0
   13.0000    0.2220   22.7260 C   0  0  0  0  0  0  0  0  0  0  0  0
   13.1870   -1.1920   22.1690 C   0  0  0  0  0  0  0  0  0  0  0  0
   12.3370   -2.3090   21.9180 C   0  0  0  0  0  0  0  0  0  0  0  0
   11.1180   -1.5980   22.4190 C   0  0  0  0  0  0  0  0  0  0  0  0
   10.9250   -0.1940   22.9700 C   0  0  0  0  0  0  0  0  0  0  0  0
    9.5230    0.1990   23.3890 N   0  0  0  0  0  0  0  0  0  0  0  0
    6.2700   -1.2620   23.1310 C   0  0  0  0  0  0  0  0  0  0  0  0
    6.6070   -5.1830   22.2300 C   0  0  0  0  0  0  0  0  0  0  0  0
  1  2  2  0
  2  3  1  0
  3  4  1  0
  4  5  1  0
  5  6  1  0
  6  7  1  0
  7  8  1  0
  8  9  1  0
  9 10  1  0
 10 11  2  0
 11 12  1  0
 12 13  2  0
 13 14  1  0
 14 15  2  0
 15 16  1  0
 12 17  1  0
 16 17  2  0
 10 18  1  0
 17 18  1  0
  6 19  1  0
  8 19  1  0
  1 20  1  0
  4 20  2  0
M  END
