JAR-KUA-672ec752-9
     RDKit          3D

 21 24  0  0  0  0  0  0  0  0999 V2000
   13.3160   -1.4940   22.1500 C   0  0  0  0  0  0  0  0  0  0  0  0
   12.7310   -2.4770   21.0780 C   0  0  0  0  0  0  0  0  0  0  0  0
   12.2850   -1.6110   21.9390 C   0  0  0  0  0  0  0  0  0  0  0  0
   11.2010   -1.0600   22.4170 C   0  0  0  0  0  0  0  0  0  0  0  0
   12.1790   -0.5550   23.0120 N   0  0  0  0  0  0  0  0  0  0  0  0
   10.8810   -0.4000   23.0680 C   0  0  0  0  0  0  0  0  0  0  0  0
    9.5970   -0.6960   22.6720 C   0  0  0  0  0  0  0  0  0  0  0  0
    8.1530   -0.4870   22.7660 C   0  0  0  0  0  0  0  0  0  0  0  0
    7.8440    0.8420   23.1590 N   0  0  0  0  0  0  0  0  0  0  0  0
    6.6970    1.5150   22.6270 C   0  0  0  0  0  0  0  0  0  0  0  0
    7.3280    2.7990   22.2190 C   0  0  0  0  0  0  0  0  0  0  0  0
    7.0990    3.8880   23.2580 C   0  0  0  0  0  0  0  0  0  0  0  0
    7.4690    5.2350   22.6630 C   0  0  0  0  0  0  0  0  0  0  0  0
    6.9180    5.7900   21.5790 C   0  0  0  0  0  0  0  0  0  0  0  0
    7.5090    7.0370   21.3330 C   0  0  0  0  0  0  0  0  0  0  0  0
    8.4510    7.2910   22.2680 O   0  0  0  0  0  0  0  0  0  0  0  0
    8.4220    6.1780   23.0820 C   0  0  0  0  0  0  0  0  0  0  0  0
    8.6080    1.8800   22.3590 C   0  0  0  0  0  0  0  0  0  0  0  0
    9.8850    0.1200   23.5000 C   0  0  0  0  0  0  0  0  0  0  0  0
   11.2440   -0.0150   23.4800 C   0  0  0  0  0  0  0  0  0  0  0  0
   12.6480   -0.4970   23.1130 C   0  0  0  0  0  0  0  0  0  0  0  0
  1  2  2  0
  2  3  1  0
  3  4  2  0
  4  5  1  0
  5  6  2  0
  6  7  1  0
  7  8  1  0
  8  9  1  0
  9 10  1  0
 10 11  1  0
 11 12  1  0
 12 13  1  0
 13 14  1  0
 14 15  2  0
 15 16  1  0
 13 17  2  0
 16 17  1  0
  9 18  1  0
 11 18  1  0
  7 19  2  0
  4 20  1  0
 19 20  1  0
  1 21  1  0
 20 21  2  0
M  END
