JAR-IMP-ed466bb3-17
     RDKit          3D

 32 36  0  0  0  0  0  0  0  0999 V2000
    3.1030   -5.2780   25.0440 O   0  0  0  0  0  0  0  0  0  0  0  0
    4.1150   -4.8070   25.5640 C   0  0  0  0  0  0  0  0  0  0  0  0
    5.2060   -5.5510   25.9880 N   0  0  0  0  0  0  0  0  0  0  0  0
    6.2360   -6.0940   25.1830 C   0  0  0  0  0  0  0  0  0  0  0  0
    6.0250   -6.7290   24.0080 C   0  0  0  0  0  0  0  0  0  0  0  0
    7.1670   -7.2570   23.2570 C   0  0  0  0  0  0  0  0  0  0  0  0
    8.4520   -7.0890   23.7670 C   0  0  0  0  0  0  0  0  0  0  0  0
    8.6520   -6.3970   25.0350 C   0  0  0  0  0  0  0  0  0  0  0  0
    7.5650   -5.9370   25.6880 C   0  0  0  0  0  0  0  0  0  0  0  0
    7.6680   -5.3670   26.7530 O   0  0  0  0  0  0  0  0  0  0  0  0
    4.2620   -3.2940   25.8130 C   0  0  0  0  0  0  0  0  0  0  0  0
    5.5430   -2.9650   26.4910 C   0  0  0  0  0  0  0  0  0  0  0  0
    6.6120   -2.7030   25.6220 C   0  0  0  0  0  0  0  0  0  0  0  0
    6.4740   -2.0580   24.4420 N   0  0  0  0  0  0  0  0  0  0  0  0
    6.9300   -2.6860   23.3280 N   0  0  0  0  0  0  0  0  0  0  0  0
    6.0820   -2.3690   22.1920 C   0  0  0  0  0  0  0  0  0  0  0  0
    6.4790   -1.1750   21.5590 C   0  0  0  0  0  0  0  0  0  0  0  0
    5.6440   -0.6330   20.5290 C   0  0  0  0  0  0  0  0  0  0  0  0
    5.9900    0.5770   19.8550 C   0  0  0  0  0  0  0  0  0  0  0  0
    7.1780    1.2230   20.2340 C   0  0  0  0  0  0  0  0  0  0  0  0
    7.9930    0.7060   21.2250 C   0  0  0  0  0  0  0  0  0  0  0  0
    7.6910   -0.4550   21.8940 C   0  0  0  0  0  0  0  0  0  0  0  0
    8.5400   -0.9480   22.8980 C   0  0  2  0  0  0  0  0  0  0  0  0
    9.9860   -0.7070   22.8950 C   0  0  0  0  0  0  0  0  0  0  0  0
   10.4610    0.3750   23.8530 C   0  0  0  0  0  0  0  0  0  0  0  0
   11.8230    0.6820   23.9430 C   0  0  0  0  0  0  0  0  0  0  0  0
   12.8440   -0.0340   23.1200 C   0  0  0  0  0  0  0  0  0  0  0  0
   12.4490   -1.0050   22.2520 C   0  0  0  0  0  0  0  0  0  0  0  0
   10.9650   -1.3600   22.1180 C   0  0  0  0  0  0  0  0  0  0  0  0
    8.1700   -2.4510   22.8480 C   0  0  0  0  0  0  0  0  0  0  0  0
    5.1160   -1.5320   24.3100 C   0  0  0  0  0  0  0  0  0  0  0  0
    4.0970   -2.4850   24.5160 C   0  0  0  0  0  0  0  0  0  0  0  0
  1  2  2  0
  2  3  1  0
  3  4  1  0
  4  5  2  0
  5  6  1  0
  6  7  2  0
  7  8  1  0
  4  9  1  0
  8  9  2  0
  9 10  1  0
  2 11  1  0
 11 12  1  0
 12 13  1  0
 13 14  1  0
 14 15  1  0
 15 16  1  0
 16 17  1  0
 17 18  2  0
 18 19  1  0
 19 20  2  0
 20 21  1  0
 17 22  1  0
 21 22  2  0
 22 23  1  0
 23 24  1  6
 24 25  2  0
 25 26  1  0
 26 27  2  0
 27 28  1  0
 24 29  1  0
 28 29  2  0
 15 30  1  0
 23 30  1  0
 14 31  1  0
 11 32  1  0
 31 32  1  0
M  END
