JAR-IMP-ed466bb3-10
     RDKit          3D

 33 36  0  0  0  0  0  0  0  0999 V2000
   22.0570    0.1160   25.0450 C   0  0  0  0  0  0  0  0  0  0  0  0
   20.7430   -0.5300   25.0000 C   0  0  0  0  0  0  0  0  0  0  0  0
   20.3600   -1.1760   23.8320 N   0  0  0  0  0  0  0  0  0  0  0  0
   19.0920   -1.7550   23.8590 C   0  0  0  0  0  0  0  0  0  0  0  0
   18.7970   -2.5870   22.5840 C   0  0  0  0  0  0  0  0  0  0  0  0
   19.2010   -2.7760   21.3040 C   0  0  0  0  0  0  0  0  0  0  0  0
   18.3230   -3.8630   20.5780 C   0  0  0  0  0  0  0  0  0  0  0  0
   17.3860   -4.6690   20.8410 C   0  0  0  0  0  0  0  0  0  0  0  0
   17.0100   -4.5460   22.0320 C   0  0  0  0  0  0  0  0  0  0  0  0
   17.7790   -3.4700   22.7200 C   0  0  0  0  0  0  0  0  0  0  0  0
   18.2220   -1.5670   25.1810 C   0  0  0  0  0  0  0  0  0  0  0  0
   16.7550   -1.8570   25.9860 N   0  0  0  0  0  0  0  0  0  0  0  0
   15.1430   -2.4540   25.9090 C   0  0  0  0  0  0  0  0  0  0  0  0
   14.7440   -3.5670   26.2200 O   0  0  0  0  0  0  0  0  0  0  0  0
   13.8470   -1.8910   25.4610 C   0  0  0  0  0  0  0  0  0  0  0  0
   13.3220   -1.0160   26.0600 O   0  0  0  0  0  0  0  0  0  0  0  0
   12.9150   -2.2370   24.4490 N   0  0  0  0  0  0  0  0  0  0  0  0
   11.7300   -1.7940   25.1550 C   0  0  0  0  0  0  0  0  0  0  0  0
   10.4700   -1.5970   24.5680 C   0  0  0  0  0  0  0  0  0  0  0  0
   10.3550   -2.0270   23.2840 C   0  0  0  0  0  0  0  0  0  0  0  0
    9.1220   -1.7650   22.7170 C   0  0  0  0  0  0  0  0  0  0  0  0
    9.1280   -0.8950   21.8550 O   0  0  0  0  0  0  0  0  0  0  0  0
    8.0710   -2.5080   23.2320 N   0  0  0  0  0  0  0  0  0  0  0  0
    7.7640   -3.8740   23.0200 C   0  0  0  0  0  0  0  0  0  0  0  0
    8.6570   -4.9070   23.3310 C   0  0  0  0  0  0  0  0  0  0  0  0
    8.3620   -6.2730   23.1210 C   0  0  0  0  0  0  0  0  0  0  0  0
    7.0050   -6.6020   22.5320 C   0  0  0  0  0  0  0  0  0  0  0  0
    6.0950   -5.6100   22.2120 C   0  0  0  0  0  0  0  0  0  0  0  0
    6.4860   -4.1830   22.4660 C   0  0  0  0  0  0  0  0  0  0  0  0
    5.6470   -3.1280   22.1800 O   0  0  0  0  0  0  0  0  0  0  0  0
   11.5070   -1.3990   22.4690 C   0  0  0  0  0  0  0  0  0  0  0  0
   12.9200   -1.6940   23.0780 C   0  0  0  0  0  0  0  0  0  0  0  0
   19.4620   -0.6640   26.2600 S   0  0  0  0  0  0  0  0  0  0  0  0
  1  2  1  0
  2  3  2  0
  3  4  1  0
  4  5  1  0
  5  6  2  0
  6  7  1  0
  7  8  2  0
  8  9  1  0
  5 10  1  0
  9 10  2  0
  4 11  2  0
 11 12  1  0
 12 13  1  0
 13 14  2  0
 13 15  1  0
 15 16  2  0
 15 17  1  0
 17 18  1  0
 18 19  1  0
 19 20  1  0
 20 21  1  0
 21 22  2  0
 21 23  1  0
 23 24  1  0
 24 25  2  0
 25 26  1  0
 26 27  2  0
 27 28  1  0
 24 29  1  0
 28 29  2  0
 29 30  1  0
 20 31  1  0
 17 32  1  0
 31 32  1  0
  2 33  1  0
 11 33  1  0
M  END
