JAR-KUA-672ec752-5
     RDKit          3D

 19 21  0  0  0  0  0  0  0  0999 V2000
    7.8570    0.1280   23.7330 O   0  0  0  0  0  0  0  0  0  0  0  0
    8.5430   -0.4560   22.6030 S   0  0  0  0  0  0  0  0  0  0  0  0
    8.2080   -0.1560   21.2300 O   0  0  0  0  0  0  0  0  0  0  0  0
   10.2620   -0.3220   22.8670 C   0  0  0  0  0  0  0  0  0  0  0  0
   10.9420    0.7880   23.0950 C   0  0  0  0  0  0  0  0  0  0  0  0
   12.4090    0.6950   23.2990 C   0  0  0  0  0  0  0  0  0  0  0  0
   13.0130   -0.5580   23.2390 C   0  0  0  0  0  0  0  0  0  0  0  0
   12.2430   -1.6920   22.9910 C   0  0  0  0  0  0  0  0  0  0  0  0
   10.8660   -1.5660   22.8070 C   0  0  0  0  0  0  0  0  0  0  0  0
    9.9970   -2.6110   22.5570 C   0  0  0  0  0  0  0  0  0  0  0  0
    8.6210   -2.1240   22.8070 N   0  0  0  0  0  0  0  0  0  0  0  0
    7.8320   -2.7510   23.8680 C   0  0  0  0  0  0  0  0  0  0  0  0
    6.3480   -2.7290   23.6350 C   0  0  0  0  0  0  0  0  0  0  0  0
    5.6480   -3.9960   23.9230 N   0  0  0  0  0  0  0  0  0  0  0  0
    4.2590   -3.9810   23.4430 C   0  0  0  0  0  0  0  0  0  0  0  0
    3.4810   -5.2260   23.7300 C   0  0  0  0  0  0  0  0  0  0  0  0
    4.3800   -6.4590   23.7050 C   0  0  0  0  0  0  0  0  0  0  0  0
    5.4840   -6.2680   22.8520 C   0  0  0  0  0  0  0  0  0  0  0  0
    6.3850   -5.1480   23.3670 C   0  0  0  0  0  0  0  0  0  0  0  0
  1  2  2  0
  2  3  2  0
  2  4  1  0
  4  5  2  0
  5  6  1  0
  6  7  2  0
  7  8  1  0
  4  9  1  0
  8  9  2  0
  9 10  1  0
  2 11  1  0
 10 11  1  0
 11 12  1  0
 12 13  1  0
 13 14  1  0
 14 15  1  0
 15 16  1  0
 16 17  1  0
 17 18  1  0
 14 19  1  0
 18 19  1  0
M  END
