JAR-IMP-ed466bb3-15
     RDKit          3D

 34 38  0  0  0  0  0  0  0  0999 V2000
    8.8110   -2.4480   24.3610 C   0  0  0  0  0  0  0  0  0  0  0  0
    9.5510   -1.7000   23.4030 C   0  0  0  0  0  0  0  0  0  0  0  0
   10.5490   -1.7660   24.1280 C   0  0  0  0  0  0  0  0  0  0  0  0
   11.5750   -1.9060   25.0180 C   0  0  0  0  0  0  0  0  0  0  0  0
   12.7140   -1.3010   24.6460 C   0  0  0  0  0  0  0  0  0  0  0  0
   13.4960   -1.6660   25.8660 C   0  0  0  0  0  0  0  0  0  0  0  0
   11.9780   -0.9570   23.4980 C   0  0  0  0  0  0  0  0  0  0  0  0
   12.8830   -0.0180   22.4410 S   0  0  0  0  0  0  0  0  0  0  0  0
   14.1940    0.1350   22.9900 O   0  0  0  0  0  0  0  0  0  0  0  0
   11.9520    1.1430   22.1890 O   0  0  0  0  0  0  0  0  0  0  0  0
   12.7000   -1.3300   21.4170 N   0  0  0  0  0  0  0  0  0  0  0  0
   12.8350   -2.7850   21.3650 C   0  0  0  0  0  0  0  0  0  0  0  0
   11.8620   -2.9650   20.1830 C   0  0  0  0  0  0  0  0  0  0  0  0
   10.3900   -3.4700   20.5070 N   0  0  0  0  0  0  0  0  0  0  0  0
    9.1240   -4.9040   19.6540 C   0  0  0  0  0  0  0  0  0  0  0  0
    9.4250   -5.6730   18.5220 O   0  0  0  0  0  0  0  0  0  0  0  0
    7.8240   -5.2070   20.5040 N   0  0  0  0  0  0  0  0  0  0  0  0
    6.4320   -5.3780   19.9610 C   0  0  0  0  0  0  0  0  0  0  0  0
    5.6210   -4.2240   19.8240 C   0  0  0  0  0  0  0  0  0  0  0  0
    5.4010   -3.2460   20.9040 C   0  0  0  0  0  0  0  0  0  0  0  0
    6.1440   -3.4520   22.1080 C   0  0  1  0  0  0  0  0  0  0  0  0
    6.1860   -4.5970   22.5010 C   0  0  0  0  0  0  0  0  0  0  0  0
    5.3490   -5.4040   22.1350 N   0  0  0  0  0  0  0  0  0  0  0  0
    6.0090   -6.5040   22.2550 C   0  0  0  0  0  0  0  0  0  0  0  0
    6.6090   -7.4610   22.3710 C   0  0  0  0  0  0  0  0  0  0  0  0
    7.0020   -8.6220   22.3510 C   0  0  0  0  0  0  0  0  0  0  0  0
    8.1310   -8.5910   22.8440 C   0  0  0  0  0  0  0  0  0  0  0  0
    8.2140   -7.1800   23.2120 C   0  0  0  0  0  0  0  0  0  0  0  0
    7.2570   -6.2720   22.9090 C   0  0  0  0  0  0  0  0  0  0  0  0
    7.6510   -4.7030   23.3080 S   0  0  0  0  0  0  0  0  0  0  0  0
    7.5450   -4.4640   21.8620 C   0  0  0  0  0  0  0  0  0  0  0  0
   10.4040   -2.7710   21.8820 C   0  0  0  0  0  0  0  0  0  0  0  0
   11.1270   -1.3860   21.5740 C   0  0  0  0  0  0  0  0  0  0  0  0
   10.6250   -1.0940   22.9070 C   0  0  0  0  0  0  0  0  0  0  0  0
  1  2  1  0
  2  3  2  0
  3  4  1  0
  4  5  2  0
  5  6  1  0
  5  7  1  0
  8  7  1  0
  8  9  2  0
  8 10  2  0
  8 11  1  0
 11 12  1  0
 12 13  1  0
 13 14  1  0
 14 15  1  0
 15 16  2  0
 15 17  1  0
 17 18  1  0
 18 19  1  0
 19 20  1  0
 20 21  1  0
 21 22  1  1
 22 23  2  0
 23 24  1  0
 24 25  2  0
 25 26  1  0
 26 27  2  0
 27 28  1  0
 24 29  1  0
 28 29  2  0
 22 30  1  0
 29 30  1  0
 17 31  1  0
 21 31  1  0
 14 32  1  0
 11 33  1  0
 32 33  1  0
  2 34  1  0
  7 34  2  0
M  END
