JAR-IMP-ed466bb3-5
     RDKit          3D

 33 37  0  0  0  0  0  0  0  0999 V2000
    9.3220   -1.5680   22.1290 C   0  0  0  0  0  0  0  0  0  0  0  0
   10.5190   -1.4600   23.0130 C   0  0  0  0  0  0  0  0  0  0  0  0
   10.8030   -2.6620   23.7830 C   0  0  0  0  0  0  0  0  0  0  0  0
   11.9520   -2.6450   24.7050 C   0  0  0  0  0  0  0  0  0  0  0  0
   12.8040   -1.4900   24.8790 C   0  0  0  0  0  0  0  0  0  0  0  0
   13.7480   -1.5850   25.7930 N   0  0  0  0  0  0  0  0  0  0  0  0
   14.9210   -2.3510   25.9170 C   0  0  0  0  0  0  0  0  0  0  0  0
   14.6840   -3.5430   25.9630 O   0  0  0  0  0  0  0  0  0  0  0  0
   16.4570   -1.7460   26.1630 C   0  0  0  0  0  0  0  0  0  0  0  0
   18.1060   -1.5990   25.5990 N   0  0  0  0  0  0  0  0  0  0  0  0
   18.8070   -1.1910   24.2810 C   0  0  0  0  0  0  0  0  0  0  0  0
   20.3170   -1.4090   24.1160 C   0  0  0  0  0  0  0  0  0  0  0  0
   20.9060   -1.2420   22.7290 C   0  0  0  0  0  0  0  0  0  0  0  0
   22.3600   -1.4870   22.6180 C   0  0  0  0  0  0  0  0  0  0  0  0
   23.1290   -1.8210   23.6330 C   0  0  0  0  0  0  0  0  0  0  0  0
   22.5600   -1.9480   24.9310 C   0  0  0  0  0  0  0  0  0  0  0  0
   21.2250   -1.7350   25.1020 C   0  0  0  0  0  0  0  0  0  0  0  0
   20.7350   -1.8250   26.4530 C   0  0  1  0  0  0  0  0  0  0  0  0
   21.8150   -1.2430   27.1500 C   0  0  0  0  0  0  0  0  0  0  0  0
   21.9960    0.1020   26.8580 C   0  0  0  0  0  0  0  0  0  0  0  0
   23.0410    0.8430   27.4430 C   0  0  0  0  0  0  0  0  0  0  0  0
   23.9810    0.2090   28.3910 C   0  0  0  0  0  0  0  0  0  0  0  0
   23.7080   -1.3090   28.6630 C   0  0  0  0  0  0  0  0  0  0  0  0
   22.6660   -1.9520   28.0450 C   0  0  0  0  0  0  0  0  0  0  0  0
   19.3630   -1.0410   26.3720 C   0  0  0  0  0  0  0  0  0  0  0  0
   12.4530   -0.3990   24.0650 C   0  0  0  0  0  0  0  0  0  0  0  0
   11.3650   -0.3510   23.1770 C   0  0  0  0  0  0  0  0  0  0  0  0
   11.1300    0.7850   22.5140 N   0  0  0  0  0  0  0  0  0  0  0  0
   12.0280    1.7550   22.8450 C   0  0  0  0  0  0  0  0  0  0  0  0
   11.2730    3.0390   22.6670 C   0  0  0  0  0  0  0  0  0  0  0  0
    9.9310    2.7330   22.5670 C   0  0  0  0  0  0  0  0  0  0  0  0
    9.8170    1.3550   22.3900 C   0  0  0  0  0  0  0  0  0  0  0  0
    8.7460    0.8110   22.1630 O   0  0  0  0  0  0  0  0  0  0  0  0
  1  2  1  0
  2  3  2  0
  3  4  1  0
  4  5  2  0
  5  6  1  0
  6  7  1  0
  7  8  2  0
  7  9  1  0
  9 10  1  0
 10 11  1  0
 11 12  1  0
 12 13  2  0
 13 14  1  0
 14 15  2  0
 15 16  1  0
 12 17  1  0
 16 17  2  0
 17 18  1  0
 18 19  1  1
 19 20  2  0
 20 21  1  0
 21 22  2  0
 22 23  1  0
 19 24  1  0
 23 24  2  0
 10 25  1  0
 18 25  1  0
  5 26  1  0
  2 27  1  0
 26 27  2  0
 27 28  1  0
 28 29  1  0
 29 30  1  0
 30 31  1  0
 28 32  1  0
 31 32  1  0
 32 33  2  0
M  END
