JAR-IMP-ed466bb3-4
     RDKit          3D

 36 40  0  0  0  0  0  0  0  0999 V2000
    6.2220   -0.4890   27.2460 O   0  0  0  0  0  0  0  0  0  0  0  0
    5.9860   -0.9000   26.1060 C   0  0  0  0  0  0  0  0  0  0  0  0
    6.1060   -2.3720   25.8260 C   0  0  0  0  0  0  0  0  0  0  0  0
    5.1470   -3.0820   26.1140 O   0  0  0  0  0  0  0  0  0  0  0  0
    7.2940   -2.8510   25.2640 N   0  0  0  0  0  0  0  0  0  0  0  0
    7.2860   -3.9460   24.3310 C   0  0  0  0  0  0  0  0  0  0  0  0
    7.0230   -3.3120   22.9900 C   0  0  0  0  0  0  0  0  0  0  0  0
    5.8320   -3.5790   22.0830 C   0  0  0  0  0  0  0  0  0  0  0  0
    5.8010   -2.8590   20.9500 C   0  0  0  0  0  0  0  0  0  0  0  0
    6.7980   -1.8550   20.5030 C   0  0  0  0  0  0  0  0  0  0  0  0
    7.9660   -1.6280   21.4080 C   0  0  0  0  0  0  0  0  0  0  0  0
    8.0100   -2.4100   22.6670 C   0  0  0  0  0  0  0  0  0  0  0  0
    9.0840   -2.2490   23.6590 C   0  0  1  0  0  0  0  0  0  0  0  0
   10.3690   -1.4680   23.3700 C   0  0  0  0  0  0  0  0  0  0  0  0
   10.4290   -0.1070   23.3310 C   0  0  0  0  0  0  0  0  0  0  0  0
   11.6830    0.5970   23.0590 C   0  0  0  0  0  0  0  0  0  0  0  0
   12.7990   -0.1010   22.8460 C   0  0  0  0  0  0  0  0  0  0  0  0
   12.7400   -1.5620   22.8830 C   0  0  0  0  0  0  0  0  0  0  0  0
   11.5470   -2.2010   23.1400 C   0  0  0  0  0  0  0  0  0  0  0  0
    8.1870   -1.7570   24.8000 C   0  0  0  0  0  0  0  0  0  0  0  0
    5.5900   -0.0810   25.0490 N   0  0  0  0  0  0  0  0  0  0  0  0
    6.3400    1.1280   24.7630 C   0  0  0  0  0  0  0  0  0  0  0  0
    5.8210    2.2560   24.0030 C   0  0  0  0  0  0  0  0  0  0  0  0
    4.5450    2.1870   23.5710 N   0  0  0  0  0  0  0  0  0  0  0  0
    3.8590    3.6200   22.9890 S   0  0  0  0  0  0  0  0  0  0  0  0
    3.4400    3.3920   21.6230 O   0  0  0  0  0  0  0  0  0  0  0  0
    2.9390    4.1140   23.9920 O   0  0  0  0  0  0  0  0  0  0  0  0
    5.2680    4.7200   22.9610 C   0  0  0  0  0  0  0  0  0  0  0  0
    5.7420    5.2230   24.1680 C   0  0  0  0  0  0  0  0  0  0  0  0
    6.8480    6.0820   24.1920 C   0  0  0  0  0  0  0  0  0  0  0  0
    7.5300    6.4680   22.9260 C   0  0  0  0  0  0  0  0  0  0  0  0
    8.8830    7.5160   22.9750 Cl  0  0  0  0  0  0  0  0  0  0  0  0
    7.0560    5.9690   21.7280 C   0  0  0  0  0  0  0  0  0  0  0  0
    5.8780    5.0580   21.7450 C   0  0  0  0  0  0  0  0  0  0  0  0
    3.6700    1.2310   24.3290 C   0  0  0  0  0  0  0  0  0  0  0  0
    4.2320   -0.0670   24.4620 C   0  0  0  0  0  0  0  0  0  0  0  0
  1  2  2  0
  2  3  1  0
  3  4  2  0
  3  5  1  0
  5  6  1  0
  6  7  1  0
  7  8  2  0
  8  9  1  0
  9 10  2  0
 10 11  1  0
  7 12  1  0
 11 12  2  0
 12 13  1  0
 13 14  1  6
 14 15  2  0
 15 16  1  0
 16 17  2  0
 17 18  1  0
 14 19  1  0
 18 19  2  0
  5 20  1  0
 13 20  1  0
  2 21  1  0
 21 22  1  0
 22 23  1  0
 23 24  1  0
 24 25  1  0
 25 26  2  0
 25 27  2  0
 25 28  1  0
 28 29  2  0
 29 30  1  0
 30 31  2  0
 31 32  1  0
 31 33  1  0
 28 34  1  0
 33 34  2  0
 24 35  1  0
 21 36  1  0
 35 36  1  0
M  END
