JAR-IMP-ed466bb3-13
     RDKit          3D

 28 31  0  0  0  0  0  0  0  0999 V2000
   13.8670   -2.5440   23.5350 N   0  0  0  0  0  0  0  0  0  0  0  0
   13.5590   -1.3060   22.6500 S   0  0  0  0  0  0  0  0  0  0  0  0
   13.6600   -1.6950   21.2620 O   0  0  0  0  0  0  0  0  0  0  0  0
   13.8440    0.0770   22.9420 O   0  0  0  0  0  0  0  0  0  0  0  0
   11.9440   -1.3180   22.8840 C   0  0  0  0  0  0  0  0  0  0  0  0
   11.2170   -1.2180   24.1040 C   0  0  0  0  0  0  0  0  0  0  0  0
    9.9220   -1.2050   24.1550 C   0  0  0  0  0  0  0  0  0  0  0  0
    9.0540   -1.2710   23.0300 C   0  0  0  0  0  0  0  0  0  0  0  0
    7.6600   -1.1910   23.1750 C   0  0  0  0  0  0  0  0  0  0  0  0
    7.0760    0.0290   23.4270 O   0  0  0  0  0  0  0  0  0  0  0  0
    7.0170   -2.3600   23.0330 N   0  0  0  0  0  0  0  0  0  0  0  0
    7.5940   -3.1260   23.8780 C   0  0  0  0  0  0  0  0  0  0  0  0
    7.4490   -4.3400   23.4800 C   0  0  0  0  0  0  0  0  0  0  0  0
    8.5180   -5.2760   23.6210 C   0  0  0  0  0  0  0  0  0  0  0  0
    8.2760   -6.6130   23.1490 C   0  0  0  0  0  0  0  0  0  0  0  0
    7.0230   -6.9200   22.5900 C   0  0  0  0  0  0  0  0  0  0  0  0
    6.0190   -5.9890   22.4650 C   0  0  0  0  0  0  0  0  0  0  0  0
    6.2130   -4.6810   22.9060 C   0  0  0  0  0  0  0  0  0  0  0  0
    5.1760   -3.7080   22.7740 C   0  0  1  0  0  0  0  0  0  0  0  0
    3.9810   -4.0630   23.4810 C   0  0  0  0  0  0  0  0  0  0  0  0
    3.3150   -5.3000   23.2660 C   0  0  0  0  0  0  0  0  0  0  0  0
    2.1540   -5.6410   23.9530 C   0  0  0  0  0  0  0  0  0  0  0  0
    1.6180   -4.7740   24.8750 C   0  0  0  0  0  0  0  0  0  0  0  0
    2.2360   -3.5420   25.1270 C   0  0  0  0  0  0  0  0  0  0  0  0
    3.4200   -3.1710   24.4370 C   0  0  0  0  0  0  0  0  0  0  0  0
    5.6590   -2.4090   23.1260 C   0  0  0  0  0  0  0  0  0  0  0  0
    9.6170   -1.4110   21.8180 C   0  0  0  0  0  0  0  0  0  0  0  0
   11.0680   -1.4440   21.7530 C   0  0  0  0  0  0  0  0  0  0  0  0
  2  1  1  0
  2  3  2  0
  2  4  2  0
  2  5  1  0
  5  6  2  0
  6  7  1  0
  7  8  2  0
  8  9  1  0
  9 10  2  0
  9 11  1  0
 11 12  1  0
 12 13  1  0
 13 14  2  0
 14 15  1  0
 15 16  2  0
 16 17  1  0
 13 18  1  0
 17 18  2  0
 18 19  1  0
 19 20  1  1
 20 21  2  0
 21 22  1  0
 22 23  2  0
 23 24  1  0
 20 25  1  0
 24 25  2  0
 11 26  1  0
 19 26  1  0
  8 27  1  0
  5 28  1  0
 27 28  2  0
M  END
