JAR-KUA-672ec752-10
     RDKit          3D

 18 20  0  0  0  0  0  0  0  0999 V2000
    8.3380   -1.0570   23.3520 C   0  0  0  0  0  0  0  0  0  0  0  0
    9.7500   -0.6400   23.1580 C   0  0  0  0  0  0  0  0  0  0  0  0
   10.1930    0.7840   23.1060 C   0  0  0  0  0  0  0  0  0  0  0  0
   11.6760    1.0480   22.9150 C   0  0  0  0  0  0  0  0  0  0  0  0
   12.4870   -0.0750   22.8100 N   0  0  0  0  0  0  0  0  0  0  0  0
   12.0220   -1.3580   22.8680 C   0  0  0  0  0  0  0  0  0  0  0  0
   12.4610   -2.5620   22.8410 C   0  0  0  0  0  0  0  0  0  0  0  0
   11.3700   -3.1110   23.5640 N   0  0  0  0  0  0  0  0  0  0  0  0
   11.6320   -3.5330   24.9050 C   0  0  0  0  0  0  0  0  0  0  0  0
   13.0640   -3.1680   25.1770 C   0  0  0  0  0  0  0  0  0  0  0  0
   13.2520   -1.7410   24.8890 C   0  0  0  0  0  0  0  0  0  0  0  0
   12.3420   -1.2700   23.7860 C   0  0  1  0  0  0  0  0  0  0  0  0
   12.5300    0.1660   23.6140 C   0  0  0  0  0  0  0  0  0  0  0  0
   13.2150    0.5520   22.5560 C   0  0  0  0  0  0  0  0  0  0  0  0
   13.6020   -0.6340   21.8070 O   0  0  0  0  0  0  0  0  0  0  0  0
   12.9890   -1.7840   22.4310 C   0  0  0  0  0  0  0  0  0  0  0  0
   11.0380   -1.7770   23.9320 C   0  0  0  0  0  0  0  0  0  0  0  0
   10.6740   -1.6180   23.0320 C   0  0  0  0  0  0  0  0  0  0  0  0
  1  2  1  0
  2  3  2  0
  3  4  1  0
  4  5  2  0
  5  6  1  0
  6  7  1  0
  7  8  1  0
  8  9  1  0
  9 10  1  0
 10 11  1  0
 12 11  1  1
 12 13  1  0
 13 14  1  0
 14 15  1  0
 12 16  1  0
 15 16  1  0
  8 17  1  0
 12 17  1  0
  2 18  1  0
  6 18  2  0
M  END
