JAR-KUA-672ec752-7
     RDKit          3D

 27 30  0  0  0  0  0  0  0  0999 V2000
    8.3160   -5.6120   28.1760 C   0  0  0  0  0  0  0  0  0  0  0  0
    9.0320   -5.8130   26.9280 C   0  0  0  0  0  0  0  0  0  0  0  0
    8.9290   -4.9150   25.9810 C   0  0  0  0  0  0  0  0  0  0  0  0
    8.1120   -3.7050   26.1450 C   0  0  0  0  0  0  0  0  0  0  0  0
    8.0540   -2.8600   25.0650 N   0  0  0  0  0  0  0  0  0  0  0  0
    7.1790   -3.6650   24.2470 C   0  0  0  0  0  0  0  0  0  0  0  0
    6.5580   -4.5050   25.3000 C   0  0  0  0  0  0  0  0  0  0  0  0
    5.7810   -5.4290   25.9800 C   0  0  0  0  0  0  0  0  0  0  0  0
    4.7690   -6.3710   25.5480 C   0  0  0  0  0  0  0  0  0  0  0  0
    4.5460   -6.2920   23.9420 S   0  0  0  0  0  0  0  0  0  0  0  0
    5.7970   -5.0200   23.9500 C   0  0  0  0  0  0  0  0  0  0  0  0
    7.8520   -1.3940   24.9810 C   0  0  0  0  0  0  0  0  0  0  0  0
    8.5290   -1.2300   23.8710 C   0  0  0  0  0  0  0  0  0  0  0  0
    9.7710   -1.2780   24.0290 C   0  0  0  0  0  0  0  0  0  0  0  0
   10.6810   -1.2300   22.9820 C   0  0  0  0  0  0  0  0  0  0  0  0
   10.2140   -1.0770   21.7090 C   0  0  0  0  0  0  0  0  0  0  0  0
    8.7930   -0.9640   21.5240 C   0  0  0  0  0  0  0  0  0  0  0  0
    7.9980   -0.7620   20.3700 C   0  0  0  0  0  0  0  0  0  0  0  0
    6.5520   -0.9420   20.6260 N   0  0  0  0  0  0  0  0  0  0  0  0
    5.8490   -1.1530   19.3220 C   0  0  0  0  0  0  0  0  0  0  0  0
    5.0670   -0.0300   18.9700 C   0  0  0  0  0  0  0  0  0  0  0  0
    5.7100    1.0150   19.1300 O   0  0  0  0  0  0  0  0  0  0  0  0
    5.6860    1.4190   20.4900 C   0  0  0  0  0  0  0  0  0  0  0  0
    6.0470    0.1710   21.2490 C   0  0  0  0  0  0  0  0  0  0  0  0
    8.0100   -1.0650   22.6490 C   0  0  0  0  0  0  0  0  0  0  0  0
    7.4110   -3.5230   27.4180 C   0  0  0  0  0  0  0  0  0  0  0  0
    7.5300   -4.4820   28.3980 C   0  0  0  0  0  0  0  0  0  0  0  0
  1  2  2  0
  2  3  1  0
  3  4  2  0
  4  5  1  0
  5  6  1  0
  6  7  1  0
  7  8  1  0
  8  9  2  0
  9 10  1  0
  7 11  2  0
 10 11  1  0
  5 12  1  0
 12 13  1  0
 13 14  2  0
 14 15  1  0
 15 16  2  0
 16 17  1  0
 17 18  1  0
 18 19  1  0
 19 20  1  0
 20 21  1  0
 21 22  1  0
 22 23  1  0
 19 24  1  0
 23 24  1  0
 13 25  1  0
 17 25  2  0
  4 26  1  0
  1 27  1  0
 26 27  2  0
M  END
