JAR-KUA-672ec752-14
     RDKit          3D

 19 20  0  0  0  0  0  0  0  0999 V2000
    9.4770   -1.6870   23.5250 C   0  0  0  0  0  0  0  0  0  0  0  0
    9.1580   -2.9780   23.5920 C   0  0  0  0  0  0  0  0  0  0  0  0
    7.9700   -3.3200   24.1630 N   0  0  0  0  0  0  0  0  0  0  0  0
    6.9520   -2.4370   24.7220 C   0  0  0  0  0  0  0  0  0  0  0  0
    5.7490   -3.1380   24.9120 C   0  0  0  0  0  0  0  0  0  0  0  0
    4.6000   -3.0650   24.1850 C   0  0  0  0  0  0  0  0  0  0  0  0
    3.5070   -3.9150   24.6090 N   0  0  0  0  0  0  0  0  0  0  0  0
    2.2700   -4.5400   24.6710 C   0  0  0  0  0  0  0  0  0  0  0  0
    1.9780   -5.4450   23.6420 C   0  0  0  0  0  0  0  0  0  0  0  0
    2.7340   -5.8900   22.7870 O   0  0  0  0  0  0  0  0  0  0  0  0
    0.6290   -5.7880   23.7210 N   0  0  0  0  0  0  0  0  0  0  0  0
   -0.4270   -4.9530   24.3030 C   0  0  0  0  0  0  0  0  0  0  0  0
   -1.8460   -4.9570   23.7880 C   0  0  0  0  0  0  0  0  0  0  0  0
   -2.0030   -5.6030   22.5800 N   0  0  0  0  0  0  0  0  0  0  0  0
   -1.6140   -4.9730   21.3830 C   0  0  0  0  0  0  0  0  0  0  0  0
   -1.3510   -6.9170   22.6950 C   0  0  0  0  0  0  0  0  0  0  0  0
    0.1680   -6.8090   22.7750 C   0  0  0  0  0  0  0  0  0  0  0  0
    4.1810   -4.4780   25.6850 N   0  0  0  0  0  0  0  0  0  0  0  0
    5.4590   -4.0470   25.8770 N   0  0  0  0  0  0  0  0  0  0  0  0
  1  2  1  0
  2  3  1  0
  3  4  1  0
  4  5  1  0
  5  6  2  0
  6  7  1  0
  7  8  1  0
  8  9  1  0
  9 10  2  0
  9 11  1  0
 11 12  1  0
 12 13  1  0
 13 14  1  0
 14 15  1  0
 14 16  1  0
 11 17  1  0
 16 17  1  0
  7 18  1  0
  5 19  1  0
 18 19  2  0
M  END
