JAR-IMP-ed466bb3-12
     RDKit          3D

 38 42  0  0  0  0  0  0  0  0999 V2000
    7.7250   -0.4710   23.4580 O   0  0  0  0  0  0  0  0  0  0  0  0
    8.0750   -1.6470   23.5260 C   0  0  0  0  0  0  0  0  0  0  0  0
    9.3850   -2.0690   23.6040 N   0  0  0  0  0  0  0  0  0  0  0  0
   10.5510   -1.2840   23.3860 C   0  0  0  0  0  0  0  0  0  0  0  0
   10.5610    0.0540   23.2450 C   0  0  0  0  0  0  0  0  0  0  0  0
   11.8360    0.7600   23.0190 C   0  0  0  0  0  0  0  0  0  0  0  0
   13.0100    0.0410   22.9540 C   0  0  0  0  0  0  0  0  0  0  0  0
   12.9650   -1.4010   23.1100 C   0  0  0  0  0  0  0  0  0  0  0  0
   11.7750   -1.9910   23.3150 C   0  0  0  0  0  0  0  0  0  0  0  0
   11.7130   -3.1790   23.4530 O   0  0  0  0  0  0  0  0  0  0  0  0
    7.0210   -2.7680   23.5040 C   0  0  0  0  0  0  0  0  0  0  0  0
    7.2440   -3.6830   24.6030 C   0  0  0  0  0  0  0  0  0  0  0  0
    6.1020   -4.2980   25.1670 C   0  0  0  0  0  0  0  0  0  0  0  0
    4.8380   -4.0670   24.7450 N   0  0  0  0  0  0  0  0  0  0  0  0
    3.9060   -5.0930   25.0020 C   0  0  0  0  0  0  0  0  0  0  0  0
    2.7840   -5.1410   24.5010 O   0  0  0  0  0  0  0  0  0  0  0  0
    4.1560   -6.1730   25.8580 C   0  0  0  0  0  0  0  0  0  0  0  0
    3.1140   -6.5560   26.7570 C   0  0  0  0  0  0  0  0  0  0  0  0
    3.4800   -6.5760   28.1520 C   0  0  0  0  0  0  0  0  0  0  0  0
    4.6770   -6.4610   28.4110 O   0  0  0  0  0  0  0  0  0  0  0  0
    2.6000   -6.7060   29.2040 N   0  0  0  0  0  0  0  0  0  0  0  0
    2.5580   -5.5250   29.9280 C   0  0  0  0  0  0  0  0  0  0  0  0
    1.2800   -5.5480   30.4960 C   0  0  0  0  0  0  0  0  0  0  0  0
    0.6800   -4.3440   30.8190 C   0  0  0  0  0  0  0  0  0  0  0  0
   -0.5940   -4.2300   31.3910 C   0  0  0  0  0  0  0  0  0  0  0  0
   -1.3620   -5.3840   31.6780 C   0  0  0  0  0  0  0  0  0  0  0  0
   -0.6910   -6.6970   31.3190 C   0  0  0  0  0  0  0  0  0  0  0  0
    0.5820   -6.7360   30.7510 C   0  0  0  0  0  0  0  0  0  0  0  0
    1.1370   -8.1010   30.4440 C   0  0  2  0  0  0  0  0  0  0  0  0
    1.2650   -8.8890   31.5740 C   0  0  0  0  0  0  0  0  0  0  0  0
    0.5310  -10.2170   31.7030 C   0  0  0  0  0  0  0  0  0  0  0  0
    0.6880  -11.0390   32.9440 C   0  0  0  0  0  0  0  0  0  0  0  0
    1.5180  -10.5690   33.9770 C   0  0  0  0  0  0  0  0  0  0  0  0
    2.1890   -9.3300   33.8240 C   0  0  0  0  0  0  0  0  0  0  0  0
    2.0700   -8.5200   32.6710 C   0  0  0  0  0  0  0  0  0  0  0  0
    2.5640   -7.8430   29.9310 C   0  0  0  0  0  0  0  0  0  0  0  0
    4.6460   -3.2320   23.5620 C   0  0  0  0  0  0  0  0  0  0  0  0
    5.5940   -2.2030   23.5090 C   0  0  0  0  0  0  0  0  0  0  0  0
  1  2  2  0
  2  3  1  0
  3  4  1  0
  4  5  2  0
  5  6  1  0
  6  7  2  0
  7  8  1  0
  4  9  1  0
  8  9  2  0
  9 10  1  0
  2 11  1  0
 11 12  1  0
 12 13  1  0
 13 14  1  0
 14 15  1  0
 15 16  2  0
 15 17  1  0
 17 18  1  0
 18 19  1  0
 19 20  2  0
 19 21  1  0
 21 22  1  0
 22 23  1  0
 23 24  2  0
 24 25  1  0
 25 26  2  0
 26 27  1  0
 23 28  1  0
 27 28  2  0
 28 29  1  0
 29 30  1  1
 30 31  2  0
 31 32  1  0
 32 33  2  0
 33 34  1  0
 30 35  1  0
 34 35  2  0
 21 36  1  0
 29 36  1  0
 14 37  1  0
 11 38  1  0
 37 38  1  0
M  END
