JAR-IMP-ed466bb3-20
     RDKit          3D

 33 36  0  0  0  0  0  0  0  0999 V2000
   13.5620    5.1550   23.5900 O   0  0  0  0  0  0  0  0  0  0  0  0
   14.3310    4.5100   22.8950 C   0  0  0  0  0  0  0  0  0  0  0  0
   13.5850    3.4160   22.0930 C   0  0  0  0  0  0  0  0  0  0  0  0
   13.7910    2.0390   22.2750 C   0  0  0  0  0  0  0  0  0  0  0  0
   14.9060    1.6260   22.3130 O   0  0  0  0  0  0  0  0  0  0  0  0
   12.7700    1.0240   22.2840 N   0  0  0  0  0  0  0  0  0  0  0  0
   11.7600    1.1500   23.1710 C   0  0  0  0  0  0  0  0  0  0  0  0
   10.6070    0.3290   23.0790 C   0  0  0  0  0  0  0  0  0  0  0  0
   10.8350   -1.0690   23.4880 C   0  0  0  0  0  0  0  0  0  0  0  0
    9.8560   -1.9840   23.3680 C   0  0  0  0  0  0  0  0  0  0  0  0
   10.0830   -3.1140   23.7910 O   0  0  0  0  0  0  0  0  0  0  0  0
    8.5840   -1.6720   22.8100 N   0  0  0  0  0  0  0  0  0  0  0  0
    8.4150   -0.7270   21.7250 C   0  0  0  0  0  0  0  0  0  0  0  0
    7.0260   -0.8650   21.2310 C   0  0  0  0  0  0  0  0  0  0  0  0
    6.0030   -1.0820   22.1610 C   0  0  0  0  0  0  0  0  0  0  0  0
    6.3880   -2.0120   23.1020 C   0  0  0  0  0  0  0  0  0  0  0  0
    7.6310   -2.6190   22.9260 C   0  0  0  0  0  0  0  0  0  0  0  0
   11.9820   -1.3190   22.5750 C   0  0  0  0  0  0  0  0  0  0  0  0
   13.1330   -0.4620   22.3160 C   0  0  0  0  0  0  0  0  0  0  0  0
   15.8000    4.8390   22.8380 N   0  0  0  0  0  0  0  0  0  0  0  0
   16.8040    4.7070   23.8560 C   0  0  0  0  0  0  0  0  0  0  0  0
   17.8910    5.5620   23.9200 C   0  0  0  0  0  0  0  0  0  0  0  0
   18.7430    5.3060   23.0640 C   0  0  0  0  0  0  0  0  0  0  0  0
   19.9540    4.8650   23.6340 C   0  0  0  0  0  0  0  0  0  0  0  0
   19.8980    4.0010   24.5200 O   0  0  0  0  0  0  0  0  0  0  0  0
   21.2890    5.3720   23.2710 N   0  0  0  0  0  0  0  0  0  0  0  0
   21.6240    6.6390   22.5980 C   0  0  0  0  0  0  0  0  0  0  0  0
   22.8120    7.3180   23.2700 C   0  0  0  0  0  0  0  0  0  0  0  0
   23.9340    6.5050   23.3410 C   0  0  0  0  0  0  0  0  0  0  0  0
   23.6480    5.0670   23.6270 C   0  0  0  0  0  0  0  0  0  0  0  0
   22.3870    4.7900   24.1190 C   0  0  0  0  0  0  0  0  0  0  0  0
   17.9880    4.2760   22.2280 C   0  0  0  0  0  0  0  0  0  0  0  0
   16.4510    4.4150   21.8610 C   0  0  0  0  0  0  0  0  0  0  0  0
  1  2  2  0
  2  3  1  0
  3  4  1  0
  4  5  2  0
  4  6  1  0
  6  7  1  0
  7  8  1  0
  8  9  1  0
  9 10  1  0
 10 11  2  0
 10 12  1  0
 12 13  1  0
 13 14  1  0
 14 15  1  0
 15 16  1  0
 12 17  1  0
 16 17  1  0
  9 18  1  0
  6 19  1  0
 18 19  1  0
  2 20  1  0
 20 21  1  0
 21 22  1  0
 22 23  1  0
 23 24  1  0
 24 25  2  0
 24 26  1  0
 26 27  1  0
 27 28  1  0
 28 29  1  0
 29 30  1  0
 26 31  1  0
 30 31  1  0
 23 32  1  0
 20 33  1  0
 32 33  1  0
M  END
