JAR-IMP-ed466bb3-11
     RDKit          3D

 33 37  0  0  0  0  0  0  0  0999 V2000
    3.1440    1.4550   24.4110 N   0  0  0  0  0  0  0  0  0  0  0  0
    4.0730    0.6200   25.4960 S   0  0  0  0  0  0  0  0  0  0  0  0
    5.3910    0.6070   24.9040 O   0  0  0  0  0  0  0  0  0  0  0  0
    3.8170    1.1850   26.8010 O   0  0  0  0  0  0  0  0  0  0  0  0
    3.4120   -1.0080   25.4200 C   0  0  0  0  0  0  0  0  0  0  0  0
    2.4550   -1.5020   26.2260 C   0  0  0  0  0  0  0  0  0  0  0  0
    2.0060   -2.9130   26.0350 C   0  0  0  0  0  0  0  0  0  0  0  0
    2.5710   -3.7050   25.0330 C   0  0  0  0  0  0  0  0  0  0  0  0
    3.5560   -3.1210   24.2320 C   0  0  0  0  0  0  0  0  0  0  0  0
    3.9950   -1.7910   24.3990 C   0  0  0  0  0  0  0  0  0  0  0  0
    4.1000   -4.0030   23.1990 N   0  0  0  0  0  0  0  0  0  0  0  0
    5.0190   -3.6330   22.2550 C   0  0  0  0  0  0  0  0  0  0  0  0
    6.4010   -3.5850   22.8380 C   0  0  0  0  0  0  0  0  0  0  0  0
    7.0800   -4.6170   22.9180 O   0  0  0  0  0  0  0  0  0  0  0  0
    6.9080   -2.3810   23.2580 N   0  0  0  0  0  0  0  0  0  0  0  0
    6.8880   -2.1940   24.7180 C   0  0  0  0  0  0  0  0  0  0  0  0
    7.6130   -3.2590   25.1160 C   0  0  0  0  0  0  0  0  0  0  0  0
    7.0760   -4.2980   26.0580 C   0  0  0  0  0  0  0  0  0  0  0  0
    7.9790   -5.4760   26.3930 C   0  0  0  0  0  0  0  0  0  0  0  0
    9.2630   -5.6390   25.8620 C   0  0  0  0  0  0  0  0  0  0  0  0
    9.7430   -4.5430   24.9110 C   0  0  0  0  0  0  0  0  0  0  0  0
    8.8670   -3.3070   24.5560 C   0  0  0  0  0  0  0  0  0  0  0  0
    9.1570   -2.1610   23.7050 C   0  0  1  0  0  0  0  0  0  0  0  0
   10.3900   -1.6140   23.2250 C   0  0  0  0  0  0  0  0  0  0  0  0
   10.7370   -0.2980   23.5210 C   0  0  0  0  0  0  0  0  0  0  0  0
   11.9290    0.3180   23.1490 C   0  0  0  0  0  0  0  0  0  0  0  0
   12.8640   -0.3830   22.4300 C   0  0  0  0  0  0  0  0  0  0  0  0
   12.6120   -1.7040   22.0540 C   0  0  0  0  0  0  0  0  0  0  0  0
   11.3100   -2.3340   22.4720 C   0  0  0  0  0  0  0  0  0  0  0  0
    8.0920   -2.1050   22.6660 C   0  0  0  0  0  0  0  0  0  0  0  0
    3.8880   -5.4410   23.3980 C   0  0  0  0  0  0  0  0  0  0  0  0
    2.5310   -5.6540   23.6430 C   0  0  0  0  0  0  0  0  0  0  0  0
    2.1030   -5.1320   24.8590 C   0  0  0  0  0  0  0  0  0  0  0  0
  2  1  1  0
  2  3  2  0
  2  4  2  0
  2  5  1  0
  5  6  2  0
  6  7  1  0
  7  8  2  0
  8  9  1  0
  5 10  1  0
  9 10  2  0
  9 11  1  0
 11 12  1  0
 12 13  1  0
 13 14  2  0
 13 15  1  0
 15 16  1  0
 16 17  1  0
 17 18  2  0
 18 19  1  0
 19 20  2  0
 20 21  1  0
 17 22  1  0
 21 22  2  0
 22 23  1  0
 23 24  1  6
 24 25  2  0
 25 26  1  0
 26 27  2  0
 27 28  1  0
 24 29  1  0
 28 29  2  0
 15 30  1  0
 23 30  1  0
 11 31  1  0
 31 32  1  0
  8 33  1  0
 32 33  1  0
M  END
