JAR-KUA-672ec752-12
     RDKit          3D

 20 22  0  0  0  0  0  0  0  0999 V2000
    3.2630   -7.7250   24.1490 C   0  0  0  0  0  0  0  0  0  0  0  0
    3.0460   -6.1270   24.8680 S   0  0  0  0  0  0  0  0  0  0  0  0
    2.0780   -6.2020   25.9420 O   0  0  0  0  0  0  0  0  0  0  0  0
    2.9290   -5.1550   23.7970 O   0  0  0  0  0  0  0  0  0  0  0  0
    4.6170   -5.7790   25.6210 C   0  0  0  0  0  0  0  0  0  0  0  0
    5.1110   -6.1210   26.8980 C   0  0  0  0  0  0  0  0  0  0  0  0
    6.4080   -5.5780   26.9320 C   0  0  0  0  0  0  0  0  0  0  0  0
    6.9090   -4.8580   25.7700 C   0  0  0  0  0  0  0  0  0  0  0  0
    8.1120   -4.2220   25.4920 C   0  0  0  0  0  0  0  0  0  0  0  0
    8.1190   -3.7520   24.0660 N   0  0  0  0  0  0  0  0  0  0  0  0
    9.0970   -2.8350   23.6370 C   0  0  0  0  0  0  0  0  0  0  0  0
    8.9590   -1.4900   23.7380 N   0  0  0  0  0  0  0  0  0  0  0  0
   10.1830   -0.8780   23.2610 C   0  0  0  0  0  0  0  0  0  0  0  0
   10.3520    0.6330   23.2940 C   0  0  0  0  0  0  0  0  0  0  0  0
   11.7990    0.7360   22.7840 C   0  0  0  0  0  0  0  0  0  0  0  0
   12.7100   -0.2350   22.3590 C   0  0  0  0  0  0  0  0  0  0  0  0
   12.4140   -1.6930   22.3120 C   0  0  0  0  0  0  0  0  0  0  0  0
   11.0260   -1.9000   22.8470 C   0  0  0  0  0  0  0  0  0  0  0  0
   10.3140   -3.0820   23.0760 N   0  0  0  0  0  0  0  0  0  0  0  0
    5.6910   -4.8760   24.5970 S   0  0  0  0  0  0  0  0  0  0  0  0
  2  1  1  0
  2  3  2  0
  2  4  2  0
  2  5  1  0
  5  6  2  0
  6  7  1  0
  7  8  2  0
  8  9  1  0
  9 10  1  0
 10 11  1  0
 11 12  2  0
 12 13  1  0
 13 14  2  0
 14 15  1  0
 15 16  2  0
 16 17  1  0
 13 18  1  0
 17 18  2  0
 11 19  1  0
 18 19  1  0
  5 20  1  0
  8 20  1  0
M  END
