JAR-IMP-ed466bb3-6
     RDKit          3D

 33 37  0  0  0  0  0  0  0  0999 V2000
    2.0310    2.6800   22.1640 N   0  0  0  0  0  0  0  0  0  0  0  0
    3.3930    3.3590   22.4770 S   0  0  0  0  0  0  0  0  0  0  0  0
    3.1000    4.7720   22.3480 O   0  0  0  0  0  0  0  0  0  0  0  0
    4.6710    2.9210   21.9630 O   0  0  0  0  0  0  0  0  0  0  0  0
    3.4450    3.0340   24.2150 C   0  0  0  0  0  0  0  0  0  0  0  0
    2.7470    3.9180   25.1660 C   0  0  0  0  0  0  0  0  0  0  0  0
    2.7820    3.6790   26.4870 C   0  0  0  0  0  0  0  0  0  0  0  0
    3.5220    2.5200   27.0440 C   0  0  0  0  0  0  0  0  0  0  0  0
    4.2010    1.6590   26.1400 C   0  0  0  0  0  0  0  0  0  0  0  0
    4.1560    1.9280   24.6920 C   0  0  0  0  0  0  0  0  0  0  0  0
    4.8700    0.6090   26.7080 N   0  0  0  0  0  0  0  0  0  0  0  0
    6.1810    0.3680   26.3620 C   0  0  0  0  0  0  0  0  0  0  0  0
    6.7020   -0.9880   26.1510 C   0  0  0  0  0  0  0  0  0  0  0  0
    6.8950   -1.7310   27.1080 O   0  0  0  0  0  0  0  0  0  0  0  0
    6.9400   -1.4120   24.8310 N   0  0  0  0  0  0  0  0  0  0  0  0
    5.8330   -1.8480   24.0580 C   0  0  0  0  0  0  0  0  0  0  0  0
    6.3410   -2.8970   23.3910 C   0  0  0  0  0  0  0  0  0  0  0  0
    5.6240   -4.0990   23.4500 C   0  0  0  0  0  0  0  0  0  0  0  0
    6.1460   -5.1760   22.7840 C   0  0  0  0  0  0  0  0  0  0  0  0
    7.3290   -5.0350   22.1010 C   0  0  0  0  0  0  0  0  0  0  0  0
    8.0540   -3.8010   22.0470 C   0  0  0  0  0  0  0  0  0  0  0  0
    7.5800   -2.6860   22.6900 C   0  0  0  0  0  0  0  0  0  0  0  0
    8.2570   -1.4090   22.6570 C   0  0  2  0  0  0  0  0  0  0  0  0
    9.7020   -1.2040   22.6590 C   0  0  0  0  0  0  0  0  0  0  0  0
   10.2260    0.0520   23.0790 C   0  0  0  0  0  0  0  0  0  0  0  0
   11.6380    0.3670   23.1150 C   0  0  0  0  0  0  0  0  0  0  0  0
   12.6370   -0.6770   22.7020 C   0  0  0  0  0  0  0  0  0  0  0  0
   12.1630   -1.9060   22.2900 C   0  0  0  0  0  0  0  0  0  0  0  0
   10.6690   -2.1640   22.2680 C   0  0  0  0  0  0  0  0  0  0  0  0
    7.9530   -0.7580   23.9650 C   0  0  0  0  0  0  0  0  0  0  0  0
    4.5010    0.1720   28.0490 C   0  0  0  0  0  0  0  0  0  0  0  0
    4.4810    1.3860   28.9510 C   0  0  0  0  0  0  0  0  0  0  0  0
    3.5080    2.3230   28.5480 C   0  0  0  0  0  0  0  0  0  0  0  0
  2  1  1  0
  2  3  2  0
  2  4  2  0
  2  5  1  0
  5  6  2  0
  6  7  1  0
  7  8  2  0
  8  9  1  0
  5 10  1  0
  9 10  2  0
  9 11  1  0
 11 12  1  0
 12 13  1  0
 13 14  2  0
 13 15  1  0
 15 16  1  0
 16 17  1  0
 17 18  2  0
 18 19  1  0
 19 20  2  0
 20 21  1  0
 17 22  1  0
 21 22  2  0
 22 23  1  0
 23 24  1  1
 24 25  2  0
 25 26  1  0
 26 27  2  0
 27 28  1  0
 24 29  1  0
 28 29  2  0
 15 30  1  0
 23 30  1  0
 11 31  1  0
 31 32  1  0
  8 33  1  0
 32 33  1  0
M  END
