JAR-IMP-ed466bb3-9
     RDKit          3D

 31 35  0  0  0  0  0  0  0  0999 V2000
   10.2200   -3.7150   24.4310 O   0  0  0  0  0  0  0  0  0  0  0  0
    9.1890   -3.1030   24.2070 C   0  0  0  0  0  0  0  0  0  0  0  0
    9.2040   -1.9830   23.3690 N   0  0  0  0  0  0  0  0  0  0  0  0
   10.5010   -1.4100   23.0740 C   0  0  0  0  0  0  0  0  0  0  0  0
   10.6710   -0.0010   23.4550 C   0  0  0  0  0  0  0  0  0  0  0  0
   11.9670    0.7160   23.2450 C   0  0  0  0  0  0  0  0  0  0  0  0
   13.1340    0.0070   22.6310 C   0  0  0  0  0  0  0  0  0  0  0  0
   12.8780   -1.2680   22.3030 C   0  0  0  0  0  0  0  0  0  0  0  0
   11.6160   -2.0310   22.4850 C   0  0  0  0  0  0  0  0  0  0  0  0
    7.9720   -3.4560   24.7740 N   0  0  0  0  0  0  0  0  0  0  0  0
    7.9860   -4.2490   26.0150 C   0  0  0  0  0  0  0  0  0  0  0  0
    6.6150   -4.8450   26.2080 C   0  0  0  0  0  0  0  0  0  0  0  0
    5.5510   -3.7610   26.3100 C   0  0  0  0  0  0  0  0  0  0  0  0
    4.1590   -4.2100   26.1110 N   0  0  0  0  0  0  0  0  0  0  0  0
    4.0110   -5.2310   25.0530 C   0  0  0  0  0  0  0  0  0  0  0  0
    2.7300   -5.3920   24.6900 C   0  0  0  0  0  0  0  0  0  0  0  0
    2.4580   -5.8360   23.3620 C   0  0  0  0  0  0  0  0  0  0  0  0
    1.1570   -5.9600   23.1050 C   0  0  0  0  0  0  0  0  0  0  0  0
    0.0760   -5.6700   24.0900 C   0  0  0  0  0  0  0  0  0  0  0  0
    0.3810   -5.2370   25.3860 C   0  0  0  0  0  0  0  0  0  0  0  0
    1.7250   -5.1140   25.6410 C   0  0  0  0  0  0  0  0  0  0  0  0
    1.9520   -4.6840   26.9430 C   0  0  1  0  0  0  0  0  0  0  0  0
    1.3560   -5.5810   27.9530 C   0  0  0  0  0  0  0  0  0  0  0  0
    1.8440   -7.0530   27.7080 C   0  0  0  0  0  0  0  0  0  0  0  0
    1.3840   -8.0340   28.5660 C   0  0  0  0  0  0  0  0  0  0  0  0
    0.5040   -7.6950   29.6170 C   0  0  0  0  0  0  0  0  0  0  0  0
    0.0430   -6.2800   29.8380 C   0  0  0  0  0  0  0  0  0  0  0  0
    0.4850   -5.2680   28.9990 C   0  0  0  0  0  0  0  0  0  0  0  0
    3.4800   -4.5920   27.2230 C   0  0  0  0  0  0  0  0  0  0  0  0
    5.8470   -2.6280   25.3050 C   0  0  0  0  0  0  0  0  0  0  0  0
    6.6560   -3.0820   24.2570 C   0  0  0  0  0  0  0  0  0  0  0  0
  1  2  2  0
  2  3  1  0
  3  4  1  0
  4  5  2  0
  5  6  1  0
  6  7  2  0
  7  8  1  0
  4  9  1  0
  8  9  2  0
  2 10  1  0
 10 11  1  0
 11 12  1  0
 12 13  1  0
 13 14  1  0
 14 15  1  0
 15 16  1  0
 16 17  2  0
 17 18  1  0
 18 19  2  0
 19 20  1  0
 16 21  1  0
 20 21  2  0
 21 22  1  0
 22 23  1  1
 23 24  2  0
 24 25  1  0
 25 26  2  0
 26 27  1  0
 23 28  1  0
 27 28  2  0
 14 29  1  0
 22 29  1  0
 13 30  1  0
 10 31  1  0
 30 31  1  0
M  END
