JAR-KUA-672ec752-4
     RDKit          3D

 19 22  0  0  0  0  0  0  0  0999 V2000
   11.1450    1.1210   24.2290 C   0  0  0  0  0  0  0  0  0  0  0  0
   10.0480    0.1760   24.2370 C   0  0  0  0  0  0  0  0  0  0  0  0
   10.0080   -0.9320   23.5120 C   0  0  0  0  0  0  0  0  0  0  0  0
    8.9320   -1.8490   23.5380 C   0  0  0  0  0  0  0  0  0  0  0  0
    7.6150   -1.4600   23.5400 N   0  0  0  0  0  0  0  0  0  0  0  0
    6.7980   -2.0530   22.5960 C   0  0  0  0  0  0  0  0  0  0  0  0
    6.0810   -3.0060   23.2170 C   0  0  0  0  0  0  0  0  0  0  0  0
    6.5930   -4.4170   22.9440 C   0  0  0  0  0  0  0  0  0  0  0  0
    5.5900   -5.0450   22.2220 C   0  0  0  0  0  0  0  0  0  0  0  0
    4.4150   -4.1920   22.1000 O   0  0  0  0  0  0  0  0  0  0  0  0
    4.5820   -3.0530   22.9670 C   0  0  0  0  0  0  0  0  0  0  0  0
    6.6560   -2.1800   24.4430 C   0  0  0  0  0  0  0  0  0  0  0  0
   11.1880   -1.2030   22.6240 C   0  0  0  0  0  0  0  0  0  0  0  0
   11.2830   -2.3810   21.7300 C   0  0  0  0  0  0  0  0  0  0  0  0
   12.5420   -2.4630   20.9070 C   0  0  0  0  0  0  0  0  0  0  0  0
   13.5930   -1.4480   21.0000 C   0  0  0  0  0  0  0  0  0  0  0  0
   13.4500   -0.4050   21.8540 N   0  0  0  0  0  0  0  0  0  0  0  0
   12.2620   -0.2880   22.6370 C   0  0  0  0  0  0  0  0  0  0  0  0
   12.2380    0.8450   23.4240 C   0  0  0  0  0  0  0  0  0  0  0  0
  1  2  2  0
  2  3  1  0
  3  4  1  0
  4  5  1  0
  5  6  1  0
  7  6  1  0
  7  8  1  0
  8  9  1  0
  9 10  1  0
  7 11  1  0
 10 11  1  0
  5 12  1  0
  7 12  1  0
  3 13  2  0
 13 14  1  0
 14 15  2  0
 15 16  1  0
 16 17  2  0
 13 18  1  0
 17 18  1  0
  1 19  1  0
 18 19  2  0
M  END
