JAR-IMP-ed466bb3-1
     RDKit          3D

 32 36  0  0  0  0  0  0  0  0999 V2000
    4.5290   -7.0860   27.6790 C   0  0  0  0  0  0  0  0  0  0  0  0
    3.9330   -7.3060   26.4290 N   0  0  0  0  0  0  0  0  0  0  0  0
    2.4910   -7.6200   26.5010 C   0  0  0  0  0  0  0  0  0  0  0  0
    1.9670   -8.0320   25.2820 C   0  0  0  0  0  0  0  0  0  0  0  0
    2.1220   -6.9280   24.4000 C   0  0  0  0  0  0  0  0  0  0  0  0
    3.2980   -6.0220   24.4220 C   0  0  0  0  0  0  0  0  0  0  0  0
    3.5170   -5.0310   23.5030 C   0  0  0  0  0  0  0  0  0  0  0  0
    4.7670   -4.1810   23.6340 C   0  0  0  0  0  0  0  0  0  0  0  0
    5.6440   -4.4200   24.6710 C   0  0  0  0  0  0  0  0  0  0  0  0
    7.0650   -3.5090   24.8690 S   0  0  0  0  0  0  0  0  0  0  0  0
    8.1680   -4.3160   24.3700 O   0  0  0  0  0  0  0  0  0  0  0  0
    7.0280   -2.8930   26.1770 O   0  0  0  0  0  0  0  0  0  0  0  0
    6.7750   -2.2410   23.6370 C   0  0  0  0  0  0  0  0  0  0  0  0
    5.5040   -1.7850   23.3980 O   0  0  0  0  0  0  0  0  0  0  0  0
    7.9490   -1.7220   22.9360 N   0  0  0  0  0  0  0  0  0  0  0  0
    8.1990   -0.3250   23.1440 C   0  0  0  0  0  0  0  0  0  0  0  0
    9.5690    0.0520   23.1260 C   0  0  0  0  0  0  0  0  0  0  0  0
   10.1140    1.4610   22.7910 C   0  0  0  0  0  0  0  0  0  0  0  0
   11.6610    1.6450   22.8240 C   0  0  0  0  0  0  0  0  0  0  0  0
   12.5020    0.4740   23.1680 C   0  0  0  0  0  0  0  0  0  0  0  0
   11.9040   -0.7150   23.4550 C   0  0  0  0  0  0  0  0  0  0  0  0
   10.5160   -0.9940   23.4580 C   0  0  0  0  0  0  0  0  0  0  0  0
   10.1120   -2.2070   23.7580 C   0  0  2  0  0  0  0  0  0  0  0  0
   11.3270   -2.4930   23.6260 C   0  0  0  0  0  0  0  0  0  0  0  0
   12.0920   -2.7870   24.6990 C   0  0  0  0  0  0  0  0  0  0  0  0
   13.3700   -3.0350   24.5470 C   0  0  0  0  0  0  0  0  0  0  0  0
   13.9000   -2.9910   23.3200 C   0  0  0  0  0  0  0  0  0  0  0  0
   13.2350   -2.6870   22.1380 C   0  0  0  0  0  0  0  0  0  0  0  0
   11.8280   -2.4030   22.1930 C   0  0  0  0  0  0  0  0  0  0  0  0
    9.1090   -2.5410   22.6750 C   0  0  0  0  0  0  0  0  0  0  0  0
    5.3600   -5.4510   25.5890 C   0  0  0  0  0  0  0  0  0  0  0  0
    4.2100   -6.2340   25.4630 C   0  0  0  0  0  0  0  0  0  0  0  0
  1  2  1  0
  2  3  1  0
  3  4  1  0
  4  5  1  0
  5  6  1  0
  6  7  1  0
  7  8  2  0
  8  9  1  0
  9 10  1  0
 10 11  2  0
 10 12  2  0
 10 13  1  0
 13 14  2  0
 13 15  1  0
 15 16  1  0
 16 17  1  0
 17 18  2  0
 18 19  1  0
 19 20  2  0
 20 21  1  0
 17 22  1  0
 21 22  2  0
 22 23  1  0
 23 24  1  6
 24 25  2  0
 25 26  1  0
 26 27  2  0
 27 28  1  0
 24 29  1  0
 28 29  2  0
 15 30  1  0
 23 30  1  0
  9 31  2  0
  2 32  1  0
  6 32  2  0
 31 32  1  0
M  END
