JAR-IMP-ed466bb3-14
     RDKit          3D

 28 31  0  0  0  0  0  0  0  0999 V2000
   12.2440   -2.3540   22.5630 C   0  0  0  0  0  0  0  0  0  0  0  0
   12.4440   -0.9180   22.7270 C   0  0  0  0  0  0  0  0  0  0  0  0
   12.5050    0.4690   22.8980 C   0  0  0  0  0  0  0  0  0  0  0  0
   11.4790    1.5500   23.1330 C   0  0  0  0  0  0  0  0  0  0  0  0
   11.6800    2.9850   23.3420 N   0  0  0  0  0  0  0  0  0  0  0  0
   10.4820    3.7550   23.9400 C   0  0  0  0  0  0  0  0  0  0  0  0
   10.9350    5.0000   24.6510 C   0  0  0  0  0  0  0  0  0  0  0  0
   10.7990    5.3320   25.9340 C   0  0  0  0  0  0  0  0  0  0  0  0
   11.3610    6.6240   26.3690 C   0  0  0  0  0  0  0  0  0  0  0  0
   12.0360    7.4860   25.3760 C   0  0  0  0  0  0  0  0  0  0  0  0
   12.1190    7.0590   24.0520 C   0  0  0  0  0  0  0  0  0  0  0  0
   11.5830    5.8600   23.6940 C   0  0  0  0  0  0  0  0  0  0  0  0
   11.4790    5.2260   22.5050 C   0  0  2  0  0  0  0  0  0  0  0  0
   10.1090    4.8090   22.4920 C   0  0  0  0  0  0  0  0  0  0  0  0
    9.0700    5.7570   22.8130 C   0  0  0  0  0  0  0  0  0  0  0  0
    7.7100    5.3720   22.8000 C   0  0  0  0  0  0  0  0  0  0  0  0
    7.3400    4.0710   22.4770 C   0  0  0  0  0  0  0  0  0  0  0  0
    8.3110    3.1400   22.1650 C   0  0  0  0  0  0  0  0  0  0  0  0
    9.6770    3.4930   22.1700 C   0  0  0  0  0  0  0  0  0  0  0  0
   12.3400    3.9480   22.3600 C   0  0  0  0  0  0  0  0  0  0  0  0
   10.2140    1.1520   23.1990 C   0  0  0  0  0  0  0  0  0  0  0  0
    9.9230   -0.1220   23.0730 C   0  0  0  0  0  0  0  0  0  0  0  0
   10.9800   -1.1230   22.8530 C   0  0  0  0  0  0  0  0  0  0  0  0
   10.3960   -2.3910   22.7680 C   0  0  0  0  0  0  0  0  0  0  0  0
    8.6940   -2.3900   23.3970 S   0  0  0  0  0  0  0  0  0  0  0  0
    8.3150   -3.9330   23.9020 N   0  0  0  0  0  0  0  0  0  0  0  0
    7.8020   -2.1860   22.2730 O   0  0  0  0  0  0  0  0  0  0  0  0
    8.5570   -1.5380   24.5490 O   0  0  0  0  0  0  0  0  0  0  0  0
  1  2  1  0
  2  3  2  0
  3  4  1  0
  4  5  1  0
  5  6  1  0
  6  7  1  0
  7  8  2  0
  8  9  1  0
  9 10  2  0
 10 11  1  0
  7 12  1  0
 11 12  2  0
 12 13  1  0
 13 14  1  1
 14 15  2  0
 15 16  1  0
 16 17  2  0
 17 18  1  0
 14 19  1  0
 18 19  2  0
  5 20  1  0
 13 20  1  0
  4 21  2  0
 21 22  1  0
  2 23  1  0
 22 23  2  0
 23 24  1  0
 24 25  1  0
 25 26  1  0
 25 27  2  0
 25 28  2  0
M  END
