JAS-UNI-326cae60-2
     RDKit          3D

 26 29  0  0  0  0  0  0  0  0999 V2000
   10.1260   -3.1830   24.5550 C   0  0  0  0  0  0  0  0  0  0  0  0
    8.9910   -3.8900   25.1640 C   0  0  0  0  0  0  0  0  0  0  0  0
    8.9390   -4.8500   26.2130 C   0  0  0  0  0  0  0  0  0  0  0  0
    7.6250   -5.3020   26.5260 C   0  0  0  0  0  0  0  0  0  0  0  0
    6.3380   -4.9100   25.9080 C   0  0  0  0  0  0  0  0  0  0  0  0
    6.3630   -3.9550   24.8440 N   0  0  0  0  0  0  0  0  0  0  0  0
    7.7360   -3.5650   24.6080 C   0  0  0  0  0  0  0  0  0  0  0  0
    7.8350   -2.6940   23.5990 N   0  0  0  0  0  0  0  0  0  0  0  0
    8.2260   -1.2960   23.8030 C   0  0  0  0  0  0  0  0  0  0  0  0
    7.4110   -0.5240   24.3080 O   0  0  0  0  0  0  0  0  0  0  0  0
    9.4380   -0.7350   23.4130 C   0  0  0  0  0  0  0  0  0  0  0  0
    9.4110    0.8280   23.5120 C   0  0  0  0  0  0  0  0  0  0  0  0
   10.8280    1.2930   23.0520 C   0  0  0  0  0  0  0  0  0  0  0  0
   11.8490    0.5190   22.6410 C   0  0  0  0  0  0  0  0  0  0  0  0
   11.5970   -0.8850   22.5960 C   0  0  0  0  0  0  0  0  0  0  0  0
   12.5210   -1.6900   21.9730 C   0  0  0  0  0  0  0  0  0  0  0  0
   13.2750   -0.8460   21.2210 C   0  0  0  0  0  0  0  0  0  0  0  0
   14.0250   -1.3610   20.3430 C   0  0  0  0  0  0  0  0  0  0  0  0
   14.0540   -2.7470   20.3480 C   0  0  0  0  0  0  0  0  0  0  0  0
   13.4990   -3.4950   21.0450 C   0  0  0  0  0  0  0  0  0  0  0  0
   12.6080   -2.9450   21.9740 C   0  0  0  0  0  0  0  0  0  0  0  0
   13.8720   -4.7680   20.7530 N   0  0  0  0  0  0  0  0  0  0  0  0
   15.1070   -5.2770   20.6870 N   0  0  0  0  0  0  0  0  0  0  0  0
   15.5640   -4.8200   19.5760 N   0  0  0  0  0  0  0  0  0  0  0  0
   15.0300   -3.6050   19.4340 C   0  0  0  0  0  0  0  0  0  0  0  0
   10.4190   -1.5510   22.9950 C   0  0  0  0  0  0  0  0  0  0  0  0
  1  2  1  0
  2  3  2  0
  3  4  1  0
  4  5  2  0
  5  6  1  0
  2  7  1  0
  6  7  2  0
  7  8  1  0
  8  9  1  0
  9 10  2  0
  9 11  1  0
 11 12  2  0
 12 13  1  0
 13 14  2  0
 14 15  1  0
 15 16  1  0
 16 17  2  0
 17 18  1  0
 18 19  2  0
 19 20  1  0
 16 21  1  0
 20 21  2  0
 20 22  1  0
 22 23  1  0
 23 24  1  0
 19 25  1  0
 24 25  2  0
 11 26  1  0
 15 26  2  0
M  END
