JAS-UNI-326cae60-3
     RDKit          3D

 33 36  0  0  0  0  0  0  0  0999 V2000
   13.7760    0.0450   22.3220 N   0  0  0  0  0  0  0  0  0  0  0  0
   12.5790   -0.4320   22.5710 C   0  0  0  0  0  0  0  0  0  0  0  0
   11.7690    0.4980   23.3500 C   0  0  0  0  0  0  0  0  0  0  0  0
   10.4020   -0.0360   23.6550 C   0  0  0  0  0  0  0  0  0  0  0  0
    9.9410   -1.3830   23.1960 C   0  0  0  0  0  0  0  0  0  0  0  0
    8.5340   -1.6640   23.6760 C   0  0  0  0  0  0  0  0  0  0  0  0
    8.1720   -3.0060   23.8400 N   0  0  0  0  0  0  0  0  0  0  0  0
    6.8670   -2.9860   23.4650 N   0  0  0  0  0  0  0  0  0  0  0  0
    6.0010   -2.3010   24.3410 C   0  0  0  0  0  0  0  0  0  0  0  0
    4.4810   -2.2060   24.1580 C   0  0  0  0  0  0  0  0  0  0  0  0
    3.7790   -1.4150   25.2390 C   0  0  0  0  0  0  0  0  0  0  0  0
    4.5230   -0.7770   26.3980 C   0  0  0  0  0  0  0  0  0  0  0  0
    5.8930   -0.9470   26.4330 C   0  0  0  0  0  0  0  0  0  0  0  0
    6.6370   -0.3860   27.4810 N   0  0  0  0  0  0  0  0  0  0  0  0
    6.5910   -1.6740   25.4480 C   0  0  0  0  0  0  0  0  0  0  0  0
    8.1780   -3.9110   25.0280 C   0  0  0  0  0  0  0  0  0  0  0  0
    9.2820   -4.6800   25.3070 C   0  0  0  0  0  0  0  0  0  0  0  0
    9.3610   -5.5700   26.3720 C   0  0  0  0  0  0  0  0  0  0  0  0
    8.3510   -5.7850   27.2940 C   0  0  0  0  0  0  0  0  0  0  0  0
    7.1300   -4.9400   27.0080 C   0  0  0  0  0  0  0  0  0  0  0  0
    5.9880   -5.1510   28.0070 C   0  0  0  0  0  0  0  0  0  0  0  0
    5.7020   -4.1960   28.9280 F   0  0  0  0  0  0  0  0  0  0  0  0
    5.2610   -6.3960   27.8990 C   0  0  0  0  0  0  0  0  0  0  0  0
    4.2290   -6.6090   28.7910 C   0  0  0  0  0  0  0  0  0  0  0  0
    2.7930   -6.5220   28.3030 C   0  0  0  0  0  0  0  0  0  0  0  0
    2.4820   -6.2330   26.9870 N   0  0  0  0  0  0  0  0  0  0  0  0
    1.2360   -6.3250   26.6720 C   0  0  0  0  0  0  0  0  0  0  0  0
    0.2270   -6.6790   27.5060 N   0  0  0  0  0  0  0  0  0  0  0  0
    0.6660   -7.3870   28.6770 C   0  0  0  0  0  0  0  0  0  0  0  0
    1.7960   -6.7450   29.2500 O   0  0  0  0  0  0  0  0  0  0  0  0
    7.0760   -4.0640   25.9260 C   0  0  0  0  0  0  0  0  0  0  0  0
   10.7940   -2.1740   22.4380 C   0  0  0  0  0  0  0  0  0  0  0  0
   12.1560   -1.6780   22.1230 C   0  0  0  0  0  0  0  0  0  0  0  0
  1  2  1  0
  2  3  2  0
  3  4  1  0
  4  5  2  0
  5  6  1  0
  6  7  1  0
  7  8  1  0
  8  9  1  0
  9 10  2  0
 10 11  1  0
 11 12  2  0
 12 13  1  0
 13 14  1  0
  9 15  1  0
 13 15  2  0
  7 16  1  0
 16 17  2  0
 17 18  1  0
 18 19  2  0
 19 20  1  0
 20 21  1  0
 21 22  1  0
 21 23  2  3
 23 24  1  0
 24 25  2  3
 25 26  1  0
 26 27  2  0
 27 28  1  0
 28 29  1  0
 25 30  1  0
 29 30  1  0
 16 31  1  0
 20 31  2  0
  5 32  1  0
  2 33  1  0
 32 33  2  0
M  END
