JAS-UND-c13ee042-4
     RDKit          3D

 13 13  0  0  0  0  0  0  0  0999 V2000
    5.5250   -6.2280   22.8100 N   0  0  0  0  0  0  0  0  0  0  0  0
    4.3560   -5.6670   23.3280 C   0  0  0  0  0  0  0  0  0  0  0  0
    4.4590   -4.5660   24.2180 O   0  0  0  0  0  0  0  0  0  0  0  0
    2.9930   -6.2090   22.9180 C   0  0  0  0  0  0  0  0  0  0  0  0
    2.0140   -6.9670   22.8820 N   0  0  0  0  0  0  0  0  0  0  0  0
    0.8790   -7.1790   22.3610 C   0  0  0  0  0  0  0  0  0  0  0  0
   -0.0080   -6.6630   21.4800 F   0  0  0  0  0  0  0  0  0  0  0  0
    0.7930   -8.3740   23.1480 C   0  0  0  0  0  0  0  0  0  0  0  0
   -0.3750   -9.3730   23.1510 C   0  0  0  0  0  0  0  0  0  0  0  0
   -1.5170   -8.9080   23.1650 O   0  0  0  0  0  0  0  0  0  0  0  0
    2.0130   -8.4170   23.9330 N   0  0  0  0  0  0  0  0  0  0  0  0
    3.0810   -7.3720   23.8230 C   0  0  0  0  0  0  0  0  0  0  0  0
    4.1250   -7.6540   24.6590 O   0  0  0  0  0  0  0  0  0  0  0  0
  1  2  1  0
  2  3  2  0
  2  4  1  0
  4  5  2  0
  5  6  1  0
  6  7  1  0
  6  8  2  0
  8  9  1  0
  9 10  2  0
  8 11  1  0
  4 12  1  0
 11 12  2  0
 12 13  1  0
M  END
