JAV-UNI-4503e1e6-1
     RDKit          3D

 26 29  0  0  0  0  0  0  0  0999 V2000
    5.8530   -2.7080   20.0040 C   0  0  0  0  0  0  0  0  0  0  0  0
    5.7640   -3.9370   20.6410 C   0  0  0  0  0  0  0  0  0  0  0  0
    5.4660   -4.9290   19.9670 O   0  0  0  0  0  0  0  0  0  0  0  0
    6.0320   -3.9780   21.9990 N   0  0  0  0  0  0  0  0  0  0  0  0
    4.8340   -4.1960   22.8500 C   0  0  0  0  0  0  0  0  0  0  0  0
    4.8580   -3.3230   23.9880 C   0  0  0  0  0  0  0  0  0  0  0  0
    3.6430   -2.7490   24.4090 C   0  0  0  0  0  0  0  0  0  0  0  0
    3.6260   -1.7850   25.6270 C   0  0  0  0  0  0  0  0  0  0  0  0
    4.9830   -1.5340   26.2910 C   0  0  0  0  0  0  0  0  0  0  0  0
    6.2160   -2.1990   25.7710 C   0  0  0  0  0  0  0  0  0  0  0  0
    6.0870   -3.0450   24.6690 C   0  0  0  0  0  0  0  0  0  0  0  0
    7.0950   -3.7140   24.1100 C   0  0  1  0  0  0  0  0  0  0  0  0
    6.4780   -4.9010   23.9610 C   0  0  0  0  0  0  0  0  0  0  0  0
    5.4000   -5.0750   24.8060 C   0  0  0  0  0  0  0  0  0  0  0  0
    4.6280   -6.1990   24.7320 C   0  0  0  0  0  0  0  0  0  0  0  0
    4.9260   -7.1720   23.8130 C   0  0  0  0  0  0  0  0  0  0  0  0
    6.1230   -7.1440   22.8080 C   0  0  0  0  0  0  0  0  0  0  0  0
    6.8430   -5.8410   23.0360 C   0  0  0  0  0  0  0  0  0  0  0  0
    7.0380   -3.1190   22.6980 C   0  0  1  0  0  0  0  0  0  0  0  0
    8.2560   -2.9390   22.0490 C   0  0  0  0  0  0  0  0  0  0  0  0
    9.3590   -2.2940   22.6210 C   0  0  0  0  0  0  0  0  0  0  0  0
   10.0940   -2.9040   23.6410 C   0  0  0  0  0  0  0  0  0  0  0  0
   11.2040   -2.2760   24.1970 C   0  0  0  0  0  0  0  0  0  0  0  0
   11.5620   -0.8950   23.6380 C   0  0  0  0  0  0  0  0  0  0  0  0
   10.8390   -0.3220   22.6650 N   0  0  0  0  0  0  0  0  0  0  0  0
    9.7770   -1.0260   22.1900 C   0  0  0  0  0  0  0  0  0  0  0  0
  1  2  1  0
  2  3  2  0
  2  4  1  0
  4  5  1  0
  5  6  1  0
  6  7  1  0
  7  8  2  0
  8  9  1  0
  9 10  2  0
  6 11  2  0
 10 11  1  0
 11 12  1  0
 12 13  1  6
 13 14  2  0
 14 15  1  0
 15 16  2  0
 16 17  1  0
 13 18  1  0
 17 18  2  0
  4 19  1  0
 12 19  1  0
 19 20  1  6
 20 21  1  0
 21 22  2  0
 22 23  1  0
 23 24  2  0
 24 25  1  0
 21 26  1  0
 25 26  2  0
M  END
