JEF-THE-add32b9a-1
     RDKit          3D

 18 20  0  0  0  0  0  0  0  0999 V2000
    9.1770   -1.7960   22.5660 O   0  0  0  0  0  0  0  0  0  0  0  0
    8.9550   -2.6900   23.3870 C   0  0  0  0  0  0  0  0  0  0  0  0
    9.0200   -3.8160   24.3180 N   0  0  0  0  0  0  0  0  0  0  0  0
    8.3610   -3.7680   25.6720 C   0  0  0  0  0  0  0  0  0  0  0  0
    9.0870   -4.7820   25.6490 C   0  0  0  0  0  0  0  0  0  0  0  0
    8.4490   -4.7100   26.9550 C   0  0  0  0  0  0  0  0  0  0  0  0
    7.4960   -3.3900   27.0250 C   0  0  0  0  0  0  0  0  0  0  0  0
    6.9660   -2.1870   26.3120 C   0  0  0  0  0  0  0  0  0  0  0  0
    7.7570   -2.5970   25.1590 C   0  0  0  0  0  0  0  0  0  0  0  0
    7.7230   -1.8440   23.9910 N   0  0  0  0  0  0  0  0  0  0  0  0
    8.7410   -0.8670   23.6280 C   0  0  0  0  0  0  0  0  0  0  0  0
    8.5370    0.3350   23.5510 O   0  0  0  0  0  0  0  0  0  0  0  0
   10.0790   -1.3930   23.2560 C   0  0  0  0  0  0  0  0  0  0  0  0
   10.4800    0.0300   23.3420 C   0  0  0  0  0  0  0  0  0  0  0  0
   11.7730    0.2470   23.0570 C   0  0  0  0  0  0  0  0  0  0  0  0
   12.6700   -0.8820   22.6780 C   0  0  0  0  0  0  0  0  0  0  0  0
   11.9740   -2.2960   22.6610 C   0  0  0  0  0  0  0  0  0  0  0  0
   10.4520   -2.7180   22.9990 C   0  0  0  0  0  0  0  0  0  0  0  0
  1  2  2  0
  2  3  1  0
  3  4  1  0
  4  5  1  0
  5  6  2  0
  6  7  1  0
  7  8  2  0
  4  9  2  0
  8  9  1  0
  9 10  1  0
 10 11  1  0
 11 12  2  0
 11 13  1  0
 13 14  1  0
 14 15  2  0
 15 16  1  0
 16 17  2  0
  2 18  1  0
 13 18  2  0
 17 18  1  0
M  END
