JIA-UNI-12b1f9ae-1
     RDKit          3D

 21 22  0  0  0  0  0  0  0  0999 V2000
    8.6260    1.3410   21.0150 O   0  0  0  0  0  0  0  0  0  0  0  0
    8.3080    0.2560   21.4960 C   0  0  0  0  0  0  0  0  0  0  0  0
    7.2270   -0.5050   21.1600 N   0  0  0  0  0  0  0  0  0  0  0  0
    6.5840    0.0710   20.1110 C   0  0  0  0  0  0  0  0  0  0  0  0
    5.4410    0.8060   20.4300 C   0  0  0  0  0  0  0  0  0  0  0  0
    4.7100    1.4670   19.3410 C   0  0  0  0  0  0  0  0  0  0  0  0
    5.2020    1.3390   17.9390 C   0  0  0  0  0  0  0  0  0  0  0  0
    6.3080    0.6020   17.7280 N   0  0  0  0  0  0  0  0  0  0  0  0
    6.9620   -0.0030   18.7630 C   0  0  0  0  0  0  0  0  0  0  0  0
    9.0720   -0.3370   22.4700 N   0  0  0  0  0  0  0  0  0  0  0  0
   10.4000   -0.0370   22.6340 C   0  0  0  0  0  0  0  0  0  0  0  0
   10.6110    1.3000   22.8920 C   0  0  0  0  0  0  0  0  0  0  0  0
   11.9410    1.6680   23.0530 C   0  0  0  0  0  0  0  0  0  0  0  0
   13.0500    0.6100   22.9350 C   0  0  0  0  0  0  0  0  0  0  0  0
   12.7210   -0.6870   22.6830 C   0  0  0  0  0  0  0  0  0  0  0  0
   11.3750   -1.0130   22.5320 C   0  0  0  0  0  0  0  0  0  0  0  0
   10.9820   -2.2950   22.2920 C   0  0  0  0  0  0  0  0  0  0  0  0
   10.1610   -2.7650   23.7020 S   0  0  0  0  0  0  0  0  0  0  0  0
   11.0770   -3.5940   24.4500 O   0  0  0  0  0  0  0  0  0  0  0  0
    9.6190   -1.5650   24.3080 O   0  0  0  0  0  0  0  0  0  0  0  0
    8.8860   -3.6470   23.3380 F   0  0  0  0  0  0  0  0  0  0  0  0
  1  2  2  0
  2  3  1  0
  3  4  1  0
  4  5  2  0
  5  6  1  0
  6  7  2  0
  7  8  1  0
  4  9  1  0
  8  9  2  0
  2 10  1  0
 10 11  1  0
 11 12  2  0
 12 13  1  0
 13 14  2  0
 14 15  1  0
 11 16  1  0
 15 16  2  0
 16 17  1  0
 17 18  1  0
 18 19  2  0
 18 20  2  0
 18 21  1  0
M  END
