JIA-UNI-9972d268-1
     RDKit          3D

 27 28  0  0  0  0  0  0  0  0999 V2000
    8.7560    1.3050   21.0990 O   0  0  0  0  0  0  0  0  0  0  0  0
    8.4550    0.2090   21.6050 C   0  0  0  0  0  0  0  0  0  0  0  0
    8.9510   -0.2140   22.8300 N   0  0  0  0  0  0  0  0  0  0  0  0
   10.3740    0.0690   22.8830 C   0  0  0  0  0  0  0  0  0  0  0  0
   10.6710    1.5080   23.2680 C   0  0  0  0  0  0  0  0  0  0  0  0
   12.0340    1.7500   23.2870 C   0  0  0  0  0  0  0  0  0  0  0  0
   12.9890    0.7880   22.9930 C   0  0  0  0  0  0  0  0  0  0  0  0
   12.7010   -0.5110   22.6600 C   0  0  0  0  0  0  0  0  0  0  0  0
   11.3950   -0.9700   22.5820 C   0  0  0  0  0  0  0  0  0  0  0  0
   11.0280   -2.2520   22.2780 C   0  0  0  0  0  0  0  0  0  0  0  0
   10.2130   -2.9080   23.6400 S   0  0  0  0  0  0  0  0  0  0  0  0
   11.2500   -3.4830   24.4700 O   0  0  0  0  0  0  0  0  0  0  0  0
    9.0300   -3.6440   23.2450 O   0  0  0  0  0  0  0  0  0  0  0  0
    9.6570   -1.6670   24.4750 F   0  0  0  0  0  0  0  0  0  0  0  0
    7.5960   -0.6600   20.9490 N   0  0  0  0  0  0  0  0  0  0  0  0
    6.6300   -0.1540   20.0830 C   0  0  2  0  0  0  0  0  0  0  0  0
    5.6130    0.6540   20.5680 C   0  0  0  0  0  0  0  0  0  0  0  0
    5.4300    1.7460   19.7580 C   0  0  2  0  0  0  0  0  0  0  0  0
    4.2180    2.4000   20.0390 C   0  0  0  0  0  0  0  0  0  0  0  0
    3.5370    2.7610   18.8790 C   0  0  0  0  0  0  0  0  0  0  0  0
    4.3300    2.1490   17.9410 N   0  0  0  0  0  0  0  0  0  0  0  0
    5.3880    1.4770   18.4040 C   0  0  0  0  0  0  0  0  0  0  0  0
    6.1260    0.7980   17.7450 O   0  0  0  0  0  0  0  0  0  0  0  0
    5.9730   -1.4390   19.5700 C   0  0  0  0  0  0  0  0  0  0  0  0
    5.3950   -2.5420   19.5910 O   0  0  0  0  0  0  0  0  0  0  0  0
    5.8090   -1.6410   20.9620 C   0  0  0  0  0  0  0  0  0  0  0  0
    5.4210   -3.3300   21.3680 Cl  0  0  0  0  0  0  0  0  0  0  0  0
  1  2  2  0
  2  3  1  0
  3  4  1  0
  4  5  2  0
  5  6  1  0
  6  7  2  0
  7  8  1  0
  4  9  1  0
  8  9  2  0
  9 10  1  0
 10 11  1  0
 11 12  2  0
 11 13  2  0
 11 14  1  0
  2 15  1  0
 15 16  1  0
 16 17  1  1
 18 17  1  1
 18 19  1  0
 19 20  1  0
 20 21  1  0
 18 22  1  0
 21 22  1  0
 22 23  2  0
 16 24  1  0
 24 25  2  0
 24 26  1  0
 26 27  1  0
M  END
