JIA-UNI-9972d268-2
     RDKit          3D

 31 32  0  0  0  0  0  0  0  0999 V2000
    6.7690    0.4080   19.6630 C   0  0  0  0  0  0  0  0  0  0  0  0
    7.8760    0.6540   20.6960 C   0  0  0  0  0  0  0  0  0  0  0  0
    8.2750    1.7770   21.0030 O   0  0  0  0  0  0  0  0  0  0  0  0
    8.4130   -0.5880   21.2140 N   0  0  0  0  0  0  0  0  0  0  0  0
    8.8620   -0.8260   22.5420 C   0  0  2  0  0  0  0  0  0  0  0  0
    7.9160   -0.2990   23.4360 C   0  0  0  0  0  0  0  0  0  0  0  0
    7.5250    1.0430   23.1930 O   0  0  0  0  0  0  0  0  0  0  0  0
    7.4300   -1.0780   24.4430 N   0  0  0  0  0  0  0  0  0  0  0  0
    6.5810   -1.9670   23.9710 C   0  0  1  0  0  0  0  0  0  0  0  0
    7.1030   -3.1920   23.5590 C   0  0  0  0  0  0  0  0  0  0  0  0
    6.2440   -4.2910   23.6650 C   0  0  2  0  0  0  0  0  0  0  0  0
    6.9310   -5.5180   23.7330 C   0  0  0  0  0  0  0  0  0  0  0  0
    6.6230   -6.3130   22.6440 C   0  0  0  0  0  0  0  0  0  0  0  0
    5.7480   -5.8250   21.8460 N   0  0  0  0  0  0  0  0  0  0  0  0
    5.3930   -4.5200   22.4010 C   0  0  0  0  0  0  0  0  0  0  0  0
    4.4160   -3.6460   21.8600 O   0  0  0  0  0  0  0  0  0  0  0  0
    5.5490   -2.1710   25.0980 C   0  0  0  0  0  0  0  0  0  0  0  0
    5.8350   -2.7220   26.1680 O   0  0  0  0  0  0  0  0  0  0  0  0
    4.1480   -1.6600   24.8370 C   0  0  0  0  0  0  0  0  0  0  0  0
    3.2880   -1.4250   26.3650 Cl  0  0  0  0  0  0  0  0  0  0  0  0
   10.2540   -0.1810   22.6720 C   0  0  0  0  0  0  0  0  0  0  0  0
   10.2030    1.3230   22.7890 C   0  0  0  0  0  0  0  0  0  0  0  0
   11.5150    2.0420   22.9030 C   0  0  0  0  0  0  0  0  0  0  0  0
   12.7290    1.3870   22.9100 C   0  0  0  0  0  0  0  0  0  0  0  0
   12.7350   -0.0890   22.8000 C   0  0  0  0  0  0  0  0  0  0  0  0
   11.5370   -0.7800   22.6910 C   0  0  0  0  0  0  0  0  0  0  0  0
   11.6170   -2.2690   22.6000 C   0  0  0  0  0  0  0  0  0  0  0  0
   12.6590   -2.6980   23.9770 S   0  0  0  0  0  0  0  0  0  0  0  0
   11.9150   -3.5290   24.8840 O   0  0  0  0  0  0  0  0  0  0  0  0
   13.9650   -3.0540   23.4920 O   0  0  0  0  0  0  0  0  0  0  0  0
   12.9200   -1.3750   24.8060 F   0  0  0  0  0  0  0  0  0  0  0  0
  1  2  1  0
  2  3  2  0
  2  4  1  0
  5  4  1  6
  5  6  1  0
  6  7  2  0
  6  8  1  0
  8  9  1  0
  9 10  1  1
 11 10  1  6
 11 12  1  0
 12 13  1  0
 13 14  1  0
 11 15  1  0
 14 15  1  0
 15 16  2  0
  9 17  1  0
 17 18  2  0
 17 19  1  0
 19 20  1  0
  5 21  1  0
 21 22  2  0
 22 23  1  0
 23 24  2  0
 24 25  1  0
 21 26  1  0
 25 26  2  0
 26 27  1  0
 27 28  1  0
 28 29  2  0
 28 30  2  0
 28 31  1  0
M  END
