JIA-UNI-12b1f9ae-2
     RDKit          3D

 27 28  0  0  0  0  0  0  0  0999 V2000
    8.5200    1.3320   20.9680 O   0  0  0  0  0  0  0  0  0  0  0  0
    8.3910    0.2120   21.4990 C   0  0  0  0  0  0  0  0  0  0  0  0
    9.1700   -0.2640   22.5960 N   0  0  0  0  0  0  0  0  0  0  0  0
   10.4810    0.0350   22.6770 C   0  0  0  0  0  0  0  0  0  0  0  0
   10.7200    1.4470   22.8800 C   0  0  0  0  0  0  0  0  0  0  0  0
   12.2250    1.7720   22.9630 C   0  0  0  0  0  0  0  0  0  0  0  0
   13.1870    0.8000   22.8480 C   0  0  0  0  0  0  0  0  0  0  0  0
   12.8330   -0.5200   22.6550 C   0  0  0  0  0  0  0  0  0  0  0  0
   11.4990   -0.8590   22.5760 C   0  0  0  0  0  0  0  0  0  0  0  0
   11.1870   -2.3040   22.3800 C   0  0  0  0  0  0  0  0  0  0  0  0
   10.3410   -2.8160   23.8170 S   0  0  0  0  0  0  0  0  0  0  0  0
   11.2460   -3.6770   24.5260 O   0  0  0  0  0  0  0  0  0  0  0  0
    9.7840   -1.6440   24.4360 O   0  0  0  0  0  0  0  0  0  0  0  0
    9.0620   -3.6840   23.4280 F   0  0  0  0  0  0  0  0  0  0  0  0
    7.5110   -0.7720   21.1430 N   0  0  0  0  0  0  0  0  0  0  0  0
    6.2920   -0.4530   20.6080 C   0  0  1  0  0  0  0  0  0  0  0  0
    5.4300    0.6640   21.0890 C   0  0  0  0  0  0  0  0  0  0  0  0
    4.8990    1.4300   20.0750 C   0  0  0  0  0  0  0  0  0  0  0  0
    3.9410    2.3610   19.9300 C   0  0  0  0  0  0  0  0  0  0  0  0
    3.9180    2.7910   18.5290 C   0  0  0  0  0  0  0  0  0  0  0  0
    4.8490    2.2230   17.4830 C   0  0  0  0  0  0  0  0  0  0  0  0
    5.7500    1.2640   17.8240 N   0  0  0  0  0  0  0  0  0  0  0  0
    5.1120    1.5810   18.8160 C   0  0  0  0  0  0  0  0  0  0  0  0
    6.5760   -0.3730   19.2620 C   0  0  0  0  0  0  0  0  0  0  0  0
    7.4220    0.5790   18.8000 O   0  0  0  0  0  0  0  0  0  0  0  0
    5.9260   -1.3040   18.4970 C   0  0  0  0  0  0  0  0  0  0  0  0
    5.1830   -2.5630   19.3990 Cl  0  0  0  0  0  0  0  0  0  0  0  0
  1  2  2  0
  2  3  1  0
  3  4  1  0
  4  5  2  0
  5  6  1  0
  6  7  2  0
  7  8  1  0
  4  9  1  0
  8  9  2  0
  9 10  1  0
 10 11  1  0
 11 12  2  0
 11 13  2  0
 11 14  1  0
  2 15  1  0
 15 16  1  0
 16 17  1  1
 17 18  1  0
 18 19  2  0
 19 20  1  0
 20 21  2  0
 21 22  1  0
 18 23  1  0
 22 23  2  0
 16 24  1  0
 24 25  2  0
 24 26  1  0
 26 27  1  0
M  END
