JIG-UNK-11bede03-1
     RDKit          3D

 33 37  0  0  0  0  0  0  0  0999 V2000
    5.2450   -1.3490   25.1290 O   0  0  0  0  0  0  0  0  0  0  0  0
    5.0950   -0.2950   24.5200 C   0  0  0  0  0  0  0  0  0  0  0  0
    4.2010    0.8390   25.0490 C   0  0  0  0  0  0  0  0  0  0  0  0
    2.9940    0.3670   25.6930 N   0  0  0  0  0  0  0  0  0  0  0  0
    2.8440   -0.9360   26.2310 C   0  0  0  0  0  0  0  0  0  0  0  0
    2.0810   -1.0210   27.3980 C   0  0  0  0  0  0  0  0  0  0  0  0
    1.5450    0.1450   27.9230 C   0  0  0  0  0  0  0  0  0  0  0  0
    1.5070    1.3220   27.2300 C   0  0  0  0  0  0  0  0  0  0  0  0
    2.0360    1.3280   25.9340 C   0  0  0  0  0  0  0  0  0  0  0  0
    1.6320    2.1520   25.1070 O   0  0  0  0  0  0  0  0  0  0  0  0
    0.9290    2.3710   27.9360 N   0  0  0  0  0  0  0  0  0  0  0  0
    0.6020    1.7160   29.2340 C   0  0  0  0  0  0  0  0  0  0  0  0
    0.9850    0.2780   29.1910 O   0  0  0  0  0  0  0  0  0  0  0  0
    5.6910   -0.0000   23.3180 N   0  0  0  0  0  0  0  0  0  0  0  0
    7.0400    0.6020   23.2190 C   0  0  2  0  0  0  0  0  0  0  0  0
    7.0620    2.0080   23.0960 C   0  0  0  0  0  0  0  0  0  0  0  0
    7.7730    2.7060   24.0740 C   0  0  2  0  0  0  0  0  0  0  0  0
    6.9920    2.9200   25.3540 C   0  0  0  0  0  0  0  0  0  0  0  0
    5.9390    4.0220   25.1350 C   0  0  0  0  0  0  0  0  0  0  0  0
    6.5450    4.7980   24.0990 N   0  0  0  0  0  0  0  0  0  0  0  0
    7.8230    4.1790   23.6730 C   0  0  0  0  0  0  0  0  0  0  0  0
    8.7260    4.7740   23.1160 O   0  0  0  0  0  0  0  0  0  0  0  0
    7.6750   -0.1010   21.9820 C   0  0  0  0  0  0  0  0  0  0  0  0
    7.1420   -0.9890   21.3140 O   0  0  0  0  0  0  0  0  0  0  0  0
    8.9630    0.3520   21.6280 C   0  0  0  0  0  0  0  0  0  0  0  0
    9.1320    1.5440   21.3510 O   0  0  0  0  0  0  0  0  0  0  0  0
    9.9250   -0.6740   21.5850 N   0  0  0  0  0  0  0  0  0  0  0  0
   11.1770   -0.7030   22.3480 C   0  0  2  0  0  0  0  0  0  0  0  0
   12.1290   -1.6590   21.9970 C   0  0  0  0  0  0  0  0  0  0  0  0
   13.3120   -1.2520   22.7720 C   0  0  0  0  0  0  0  0  0  0  0  0
   12.5390   -0.3720   23.7060 C   0  0  2  0  0  0  0  0  0  0  0  0
   11.1930   -0.7840   23.8780 C   0  0  0  0  0  0  0  0  0  0  0  0
   11.9450    0.6400   22.7070 C   0  0  0  0  0  0  0  0  0  0  0  0
  1  2  2  0
  2  3  1  0
  3  4  1  0
  4  5  1  0
  5  6  2  0
  6  7  1  0
  7  8  2  0
  4  9  1  0
  8  9  1  0
  9 10  2  0
  8 11  1  0
 11 12  1  0
  7 13  1  0
 12 13  1  0
  2 14  1  0
 14 15  1  0
 15 16  1  6
 17 16  1  6
 17 18  1  0
 18 19  1  0
 19 20  1  0
 17 21  1  0
 20 21  1  0
 21 22  2  0
 15 23  1  0
 23 24  2  0
 23 25  1  0
 25 26  2  0
 25 27  1  0
 28 27  1  6
 28 29  1  0
 29 30  1  0
 31 30  1  6
 28 32  1  0
 31 32  1  0
 28 33  1  0
 31 33  1  0
M  END
