JIG-UNK-11bede03-3
     RDKit          3D

 33 37  0  0  0  0  0  0  0  0999 V2000
    8.2570    0.8540   22.9270 O   0  0  0  0  0  0  0  0  0  0  0  0
    8.7280   -0.2440   23.2210 C   0  0  0  0  0  0  0  0  0  0  0  0
    9.7560   -0.8400   22.4760 C   0  0  0  0  0  0  0  0  0  0  0  0
   10.7460    0.1410   21.8510 N   0  0  0  0  0  0  0  0  0  0  0  0
   12.1720   -0.3120   22.0560 C   0  0  0  0  0  0  0  0  0  0  0  0
   13.2910    0.7970   22.3290 C   0  0  0  0  0  0  0  0  0  0  0  0
   13.3530    2.4090   22.5060 C   0  0  0  0  0  0  0  0  0  0  0  0
   13.1020    3.8160   22.5980 C   0  0  0  0  0  0  0  0  0  0  0  0
   11.9420    4.3190   22.4070 C   0  0  0  0  0  0  0  0  0  0  0  0
   11.2600    3.2840   22.1360 N   0  0  0  0  0  0  0  0  0  0  0  0
   12.0420    2.0290   22.1560 C   0  0  0  0  0  0  0  0  0  0  0  0
   10.6000    1.6110   21.7710 C   0  0  0  0  0  0  0  0  0  0  0  0
    9.6360    2.3600   21.4780 O   0  0  0  0  0  0  0  0  0  0  0  0
    8.2620   -1.0480   24.2470 N   0  0  0  0  0  0  0  0  0  0  0  0
    7.0580   -1.0010   25.0990 C   0  0  1  0  0  0  0  0  0  0  0  0
    7.2910   -0.3350   26.2850 C   0  0  0  0  0  0  0  0  0  0  0  0
    6.5040   -0.7610   27.3300 C   0  0  1  0  0  0  0  0  0  0  0  0
    6.3050   -2.1260   27.5630 C   0  0  0  0  0  0  0  0  0  0  0  0
    6.4340   -2.5580   28.8910 C   0  0  0  0  0  0  0  0  0  0  0  0
    6.8290   -1.4010   29.5580 N   0  0  0  0  0  0  0  0  0  0  0  0
    7.1230   -0.3720   28.6920 C   0  0  0  0  0  0  0  0  0  0  0  0
    7.8840    0.8170   29.0000 O   0  0  0  0  0  0  0  0  0  0  0  0
    5.9380   -0.6970   24.3280 C   0  0  0  0  0  0  0  0  0  0  0  0
    5.0740   -1.6710   23.9170 O   0  0  0  0  0  0  0  0  0  0  0  0
    5.7190    0.6680   24.0330 C   0  0  0  0  0  0  0  0  0  0  0  0
    6.1860    1.5690   24.6910 O   0  0  0  0  0  0  0  0  0  0  0  0
    4.8450    0.8870   22.8410 N   0  0  0  0  0  0  0  0  0  0  0  0
    4.8940    2.2570   22.2710 C   0  0  1  0  0  0  0  0  0  0  0  0
    3.6860    2.9010   22.0890 C   0  0  0  0  0  0  0  0  0  0  0  0
    4.0140    4.1080   21.5550 C   0  0  0  0  0  0  0  0  0  0  0  0
    5.4190    4.0160   21.6060 C   0  0  1  0  0  0  0  0  0  0  0  0
    5.8100    3.3810   22.8190 C   0  0  0  0  0  0  0  0  0  0  0  0
    5.6840    2.5900   20.9750 C   0  0  0  0  0  0  0  0  0  0  0  0
  1  2  2  0
  2  3  1  0
  3  4  1  0
  4  5  1  0
  5  6  2  0
  6  7  1  0
  7  8  1  0
  8  9  2  0
  9 10  1  0
  7 11  2  0
 10 11  1  0
  4 12  1  0
 11 12  1  0
 12 13  2  0
  2 14  1  0
 14 15  1  0
 15 16  1  1
 17 16  1  6
 17 18  1  0
 18 19  1  0
 19 20  1  0
 17 21  1  0
 20 21  1  0
 21 22  2  0
 15 23  1  0
 23 24  2  0
 23 25  1  0
 25 26  2  0
 25 27  1  0
 28 27  1  1
 28 29  1  0
 29 30  1  0
 31 30  1  1
 28 32  1  0
 31 32  1  0
 28 33  1  0
 31 33  1  0
M  END
