JIM-PRI-216d613d-1
     RDKit          3D

 38 39  0  0  0  0  0  0  0  0999 V2000
   -0.9410   -7.6460   21.0550 C   0  0  0  0  0  0  0  0  0  0  0  0
    0.1900   -7.3810   21.9560 C   0  0  0  0  0  0  0  0  0  0  0  0
    1.4410   -7.9180   22.1020 C   0  0  0  0  0  0  0  0  0  0  0  0
    2.0240   -7.1800   23.1580 C   0  0  0  0  0  0  0  0  0  0  0  0
    3.3870   -7.2970   23.7630 C   0  0  0  0  0  0  0  0  0  0  0  0
    3.6660   -8.0090   24.7270 O   0  0  0  0  0  0  0  0  0  0  0  0
    4.3930   -6.4870   23.0580 N   0  0  0  0  0  0  0  0  0  0  0  0
    5.3040   -5.6530   23.8370 C   0  0  2  0  0  0  0  0  0  0  0  0
    4.7650   -4.2830   24.2190 C   0  0  0  0  0  0  0  0  0  0  0  0
    3.7500   -3.8040   23.7120 O   0  0  0  0  0  0  0  0  0  0  0  0
    5.5620   -3.6680   25.1940 N   0  0  0  0  0  0  0  0  0  0  0  0
    5.3270   -2.2600   25.4870 C   0  0  1  0  0  0  0  0  0  0  0  0
    4.2120   -1.7190   26.3980 C   0  0  0  0  0  0  0  0  0  0  0  0
    4.6360   -2.9790   27.1540 C   0  0  0  0  0  0  0  0  0  0  0  0
    4.1670   -4.2200   26.7020 C   0  0  0  0  0  0  0  0  0  0  0  0
    6.1330   -3.1060   27.4580 C   0  0  0  0  0  0  0  0  0  0  0  0
    6.5500   -1.5630   25.5750 C   0  0  0  0  0  0  0  0  0  0  0  0
    7.0230   -1.3170   26.6930 O   0  0  0  0  0  0  0  0  0  0  0  0
    7.2290   -1.0680   24.2820 C   0  0  0  0  0  0  0  0  0  0  0  0
    7.9390   -1.9010   23.3600 C   0  0  1  0  0  0  0  0  0  0  0  0
    7.2380   -2.1530   22.1720 C   0  0  0  0  0  0  0  0  0  0  0  0
    6.7470   -1.1060   21.3600 C   0  0  0  0  0  0  0  0  0  0  0  0
    5.8850   -1.4190   19.8680 S   0  0  0  0  0  0  0  0  0  0  0  0
    4.7540   -0.0570   19.7340 C   0  0  0  0  0  0  0  0  0  0  0  0
    6.8170   -1.2430   18.7770 O   0  0  0  0  0  0  0  0  0  0  0  0
    5.1050   -2.6390   19.9950 O   0  0  0  0  0  0  0  0  0  0  0  0
    9.2510   -1.2140   22.8550 C   0  0  0  0  0  0  0  0  0  0  0  0
   10.5210   -1.6930   23.1900 C   0  0  2  0  0  0  0  0  0  0  0  0
   11.2320   -0.8270   23.9730 C   0  0  0  0  0  0  0  0  0  0  0  0
   12.4970   -0.8320   23.6000 C   0  0  0  0  0  0  0  0  0  0  0  0
   12.5230   -1.8480   22.7730 N   0  0  0  0  0  0  0  0  0  0  0  0
   11.4440   -1.9090   21.9120 C   0  0  0  0  0  0  0  0  0  0  0  0
   12.3320   -2.0620   21.0940 O   0  0  0  0  0  0  0  0  0  0  0  0
    6.5710   -5.4340   22.9880 C   0  0  0  0  0  0  0  0  0  0  0  0
    7.6560   -4.9360   23.7190 C   0  0  0  0  0  0  0  0  0  0  0  0
    7.0280   -6.7150   22.3350 C   0  0  0  0  0  0  0  0  0  0  0  0
    1.1620   -6.2600   23.6240 N   0  0  0  0  0  0  0  0  0  0  0  0
    0.0170   -6.3900   22.8670 O   0  0  0  0  0  0  0  0  0  0  0  0
  1  2  1  0
  2  3  2  0
  3  4  1  0
  4  5  1  0
  5  6  2  0
  5  7  1  0
  8  7  1  6
  8  9  1  0
  9 10  2  0
  9 11  1  0
 11 12  1  0
 12 13  1  1
 13 14  1  0
 14 15  1  0
 14 16  1  0
 12 17  1  0
 17 18  2  0
 17 19  1  0
 20 19  1  1
 20 21  1  0
 21 22  2  3
 23 22  1  0
 23 24  1  0
 23 25  2  0
 23 26  2  0
 20 27  1  0
 28 27  1  6
 28 29  1  0
 29 30  1  0
 30 31  1  0
 28 32  1  0
 31 32  1  0
 32 33  2  0
  8 34  1  0
 34 35  1  0
 34 36  1  0
  4 37  2  0
  2 38  1  0
 37 38  1  0
M  END
