JOH-MEM-5e386bbd-8
     RDKit          3D

 19 20  0  0  0  0  0  0  0  0999 V2000
   13.7240   -2.7670   23.7130 C   0  0  0  0  0  0  0  0  0  0  0  0
   13.3770   -1.9310   22.6430 O   0  0  0  0  0  0  0  0  0  0  0  0
   12.3900   -1.1290   23.0360 C   0  0  0  0  0  0  0  0  0  0  0  0
   11.1900   -1.5340   23.5760 C   0  0  0  0  0  0  0  0  0  0  0  0
   10.8620   -2.7070   23.7620 O   0  0  0  0  0  0  0  0  0  0  0  0
   10.2460   -0.6240   23.9650 C   0  0  0  0  0  0  0  0  0  0  0  0
   10.5850    0.8280   23.7590 C   0  0  0  0  0  0  0  0  0  0  0  0
    9.6860    1.8500   24.1190 N   0  0  0  0  0  0  0  0  0  0  0  0
   10.4340    3.0320   23.7280 C   0  0  0  0  0  0  0  0  0  0  0  0
   11.6710    2.7060   23.1850 C   0  0  0  0  0  0  0  0  0  0  0  0
   12.6500    3.7650   22.6760 C   0  0  0  0  0  0  0  0  0  0  0  0
   12.4290    5.1800   23.1620 C   0  0  0  0  0  0  0  0  0  0  0  0
   11.2290    5.6220   22.6160 N   0  0  0  0  0  0  0  0  0  0  0  0
   10.1720    6.2350   23.3330 C   0  0  0  0  0  0  0  0  0  0  0  0
    9.0490    6.6880   22.6280 C   0  0  0  0  0  0  0  0  0  0  0  0
   10.2200    6.3760   24.5600 O   0  0  0  0  0  0  0  0  0  0  0  0
   11.8220    1.3100   23.1910 C   0  0  0  0  0  0  0  0  0  0  0  0
   12.7200    0.3110   22.8460 C   0  0  0  0  0  0  0  0  0  0  0  0
   13.8040    0.5330   22.3840 O   0  0  0  0  0  0  0  0  0  0  0  0
  1  2  1  0
  2  3  1  0
  3  4  2  0
  4  5  1  0
  4  6  1  0
  6  7  2  0
  7  8  1  0
  8  9  1  0
  9 10  2  0
 10 11  1  0
 11 12  1  0
 12 13  1  0
 13 14  1  0
 14 15  1  0
 14 16  2  0
  7 17  1  0
 10 17  1  0
  3 18  1  0
 17 18  2  0
 18 19  1  0
M  END
