JOH-MSK-a63bdd1d-8
     RDKit          3D

 15 17  0  0  0  0  0  0  0  0999 V2000
   13.2640   -2.1000   21.1370 C   0  0  0  0  0  0  0  0  0  0  0  0
   13.4690   -1.7440   22.2890 O   0  0  0  0  0  0  0  0  0  0  0  0
   12.5060   -0.8960   22.6150 C   0  0  0  0  0  0  0  0  0  0  0  0
   11.2320   -1.3820   22.9430 C   0  0  0  0  0  0  0  0  0  0  0  0
   10.1910   -0.5150   23.2640 C   0  0  0  0  0  0  0  0  0  0  0  0
   10.4470    0.8440   23.2410 C   0  0  0  0  0  0  0  0  0  0  0  0
    9.5800    2.0090   23.5220 N   0  0  0  0  0  0  0  0  0  0  0  0
   10.4120    3.2410   23.3350 C   0  0  0  0  0  0  0  0  0  0  0  0
   11.6450    2.7800   22.9690 C   0  0  0  0  0  0  0  0  0  0  0  0
   11.8360    1.3810   22.8840 C   0  0  0  0  0  0  0  0  0  0  0  0
   12.8430    0.4720   22.5880 C   0  0  0  0  0  0  0  0  0  0  0  0
   12.7290    3.7680   22.6640 C   0  0  0  0  0  0  0  0  0  0  0  0
   12.3540    5.0060   23.2120 C   0  0  0  0  0  0  0  0  0  0  0  0
   11.1340    5.4000   22.7990 N   0  0  0  0  0  0  0  0  0  0  0  0
   10.1310    4.6990   23.4640 C   0  0  0  0  0  0  0  0  0  0  0  0
  1  2  1  0
  2  3  1  0
  3  4  2  0
  4  5  1  0
  5  6  2  0
  6  7  1  0
  7  8  1  0
  8  9  2  0
  6 10  1  0
  9 10  1  0
  3 11  1  0
 10 11  2  0
  9 12  1  0
 12 13  1  0
 13 14  1  0
  8 15  1  0
 14 15  1  0
M  END
