JOH-MEM-5e386bbd-2
     RDKit          3D

 18 19  0  0  0  0  0  0  0  0999 V2000
   13.6890   -2.6730   23.6060 C   0  0  0  0  0  0  0  0  0  0  0  0
   13.6060   -1.6730   22.6110 O   0  0  0  0  0  0  0  0  0  0  0  0
   12.5550   -0.8900   22.8600 C   0  0  0  0  0  0  0  0  0  0  0  0
   11.3160   -1.4530   23.2320 C   0  0  0  0  0  0  0  0  0  0  0  0
   10.2340   -0.6560   23.4990 C   0  0  0  0  0  0  0  0  0  0  0  0
   10.5270    0.7870   23.3390 C   0  0  0  0  0  0  0  0  0  0  0  0
   11.7200    1.3620   22.9720 C   0  0  0  0  0  0  0  0  0  0  0  0
   12.7910    0.4990   22.7280 C   0  0  0  0  0  0  0  0  0  0  0  0
   11.4730    2.8570   22.9370 C   0  0  1  0  0  0  0  0  0  0  0  0
   11.3920    3.3470   24.2020 O   0  0  0  0  0  0  0  0  0  0  0  0
   12.3460    3.8130   22.1520 C   0  0  0  0  0  0  0  0  0  0  0  0
   12.2520    5.1890   22.4250 C   0  0  0  0  0  0  0  0  0  0  0  0
   11.4900    5.3270   23.6420 N   0  0  0  0  0  0  0  0  0  0  0  0
   10.2750    6.1390   23.7790 C   0  0  0  0  0  0  0  0  0  0  0  0
    9.6220    6.5090   22.6030 C   0  0  0  0  0  0  0  0  0  0  0  0
    9.8510    6.4750   24.8780 O   0  0  0  0  0  0  0  0  0  0  0  0
    9.9560    2.8110   22.6420 C   0  0  0  0  0  0  0  0  0  0  0  0
    9.4640    1.7660   23.5760 N   0  0  0  0  0  0  0  0  0  0  0  0
  1  2  1  0
  2  3  1  0
  3  4  2  0
  4  5  1  0
  5  6  2  0
  6  7  1  0
  3  8  1  0
  7  8  2  0
  7  9  1  0
  9 10  1  1
  9 11  1  0
 11 12  1  0
 12 13  1  0
 13 14  1  0
 14 15  1  0
 14 16  2  0
  9 17  1  0
  6 18  1  0
 17 18  1  0
M  END
