JOH-MSK-a63bdd1d-5
     RDKit          3D

 20 21  0  0  0  0  0  0  0  0999 V2000
    8.9720    6.6370   22.5540 C   0  0  0  0  0  0  0  0  0  0  0  0
   10.1900    6.2340   23.4000 C   0  0  0  0  0  0  0  0  0  0  0  0
   10.2650    6.3850   24.6150 O   0  0  0  0  0  0  0  0  0  0  0  0
   11.2210    5.6610   22.5860 N   0  0  0  0  0  0  0  0  0  0  0  0
   12.4120    5.0770   23.0950 C   0  0  0  0  0  0  0  0  0  0  0  0
   12.5550    3.7570   22.6600 C   0  0  0  0  0  0  0  0  0  0  0  0
   11.7520    2.7520   23.1920 C   0  0  0  0  0  0  0  0  0  0  0  0
   10.5260    2.9780   23.8440 C   0  0  0  0  0  0  0  0  0  0  0  0
    9.9740    1.7720   24.2520 N   0  0  0  0  0  0  0  0  0  0  0  0
   10.8210    0.8040   23.8700 C   0  0  0  0  0  0  0  0  0  0  0  0
   10.5780   -0.5590   24.1150 C   0  0  0  0  0  0  0  0  0  0  0  0
   11.5350   -1.4760   23.6600 C   0  0  0  0  0  0  0  0  0  0  0  0
   12.6750   -1.0420   23.0020 C   0  0  0  0  0  0  0  0  0  0  0  0
   13.5290   -2.0640   22.5860 O   0  0  0  0  0  0  0  0  0  0  0  0
   13.2280   -2.3500   21.0470 S   0  0  0  0  0  0  0  0  0  0  0  0
   13.9070   -3.4310   20.3570 O   0  0  0  0  0  0  0  0  0  0  0  0
   11.8080   -2.1820   20.9660 O   0  0  0  0  0  0  0  0  0  0  0  0
   13.8110   -1.1590   20.4860 O   0  0  0  0  0  0  0  0  0  0  0  0
   12.9140    0.2810   22.7760 C   0  0  0  0  0  0  0  0  0  0  0  0
   11.9410    1.3000   23.2180 C   0  0  0  0  0  0  0  0  0  0  0  0
  1  2  1  0
  2  3  2  0
  2  4  1  0
  4  5  1  0
  5  6  1  0
  6  7  1  0
  7  8  2  0
  8  9  1  0
  9 10  1  0
 10 11  1  0
 11 12  2  0
 12 13  1  0
 13 14  1  0
 15 14  1  0
 15 16  2  0
 15 17  2  0
 15 18  1  0
 13 19  2  0
  7 20  1  0
 10 20  2  0
 19 20  1  0
M  END
