JOH-UNI-27ac80fd-7
     RDKit          3D

 19 20  0  0  0  0  0  0  0  0999 V2000
    9.4410   -0.5670   22.0610 C   0  0  0  0  0  0  0  0  0  0  0  0
    8.4340   -1.6340   21.8590 C   0  0  2  0  0  0  0  0  0  0  0  0
    7.2040   -1.2500   21.4720 C   0  0  0  0  0  0  0  0  0  0  0  0
    6.2480   -2.3410   21.2320 N   0  0  0  0  0  0  0  0  0  0  0  0
    5.9340   -2.6810   19.9180 C   0  0  0  0  0  0  0  0  0  0  0  0
    5.4340   -3.7980   19.6520 O   0  0  0  0  0  0  0  0  0  0  0  0
    6.2270   -1.7350   18.9370 C   0  0  0  0  0  0  0  0  0  0  0  0
    5.4970   -0.5840   19.0400 F   0  0  0  0  0  0  0  0  0  0  0  0
    6.1280   -3.2740   22.3410 C   0  0  0  0  0  0  0  0  0  0  0  0
    7.4990   -3.6640   22.8880 C   0  0  0  0  0  0  0  0  0  0  0  0
    8.3940   -2.4900   23.0740 N   0  0  0  0  0  0  0  0  0  0  0  0
    9.7280   -3.0010   23.2720 C   0  0  0  0  0  0  0  0  0  0  0  0
   10.5090   -2.0960   23.9210 N   0  0  0  0  0  0  0  0  0  0  0  0
   11.8140   -1.7110   23.5660 C   0  0  0  0  0  0  0  0  0  0  0  0
   12.8250   -1.5870   24.5130 C   0  0  0  0  0  0  0  0  0  0  0  0
   13.3200   -2.7320   25.1590 C   0  0  0  0  0  0  0  0  0  0  0  0
   12.5040   -3.5830   25.8910 O   0  0  0  0  0  0  0  0  0  0  0  0
   11.1550   -3.6310   25.6030 C   0  0  0  0  0  0  0  0  0  0  0  0
   10.4300   -2.4870   25.3060 C   0  0  0  0  0  0  0  0  0  0  0  0
  2  1  1  1
  2  3  1  0
  3  4  1  0
  4  5  1  0
  5  6  2  0
  5  7  1  0
  7  8  1  0
  4  9  1  0
  9 10  1  0
  2 11  1  0
 10 11  1  0
 11 12  1  0
 12 13  1  0
 13 14  1  0
 14 15  1  0
 15 16  1  0
 16 17  1  0
 17 18  1  0
 13 19  1  0
 18 19  1  0
M  END
