JOH-UNI-a5c0a47e-2
     RDKit          3D

 22 24  0  0  0  0  0  0  0  0999 V2000
    8.1290   -4.3150   26.0350 C   0  0  0  0  0  0  0  0  0  0  0  0
    8.0820   -3.4800   24.8660 O   0  0  0  0  0  0  0  0  0  0  0  0
    9.2590   -3.1360   24.2250 C   0  0  0  0  0  0  0  0  0  0  0  0
   10.3400   -3.6310   24.4390 O   0  0  0  0  0  0  0  0  0  0  0  0
    9.3270   -2.0880   23.1340 C   0  0  2  0  0  0  0  0  0  0  0  0
   10.3920   -1.1210   23.2020 C   0  0  0  0  0  0  0  0  0  0  0  0
   10.2430    0.0440   23.9900 C   0  0  0  0  0  0  0  0  0  0  0  0
   11.1840    1.0680   24.1360 C   0  0  0  0  0  0  0  0  0  0  0  0
   12.3990    1.0020   23.4900 C   0  0  0  0  0  0  0  0  0  0  0  0
   12.6820   -0.1630   22.6430 C   0  0  0  0  0  0  0  0  0  0  0  0
   11.6400   -1.2080   22.5170 C   0  0  0  0  0  0  0  0  0  0  0  0
   12.2130   -2.3940   21.4730 Cl  0  0  0  0  0  0  0  0  0  0  0  0
    8.0890   -1.4040   23.0890 N   0  0  0  0  0  0  0  0  0  0  0  0
    7.0290   -1.5580   22.0620 C   0  0  0  0  0  0  0  0  0  0  0  0
    6.4970   -2.9580   22.1770 C   0  0  0  0  0  0  0  0  0  0  0  0
    5.9620   -3.1070   23.5960 C   0  0  2  0  0  0  0  0  0  0  0  0
    4.1290   -3.2860   23.5800 S   0  0  0  0  0  0  0  0  0  0  0  0
    3.7700   -2.1740   24.9020 C   0  0  0  0  0  0  0  0  0  0  0  0
    2.5430   -2.1140   25.6410 O   0  0  0  0  0  0  0  0  0  0  0  0
    4.9800   -1.2900   25.1290 C   0  0  0  0  0  0  0  0  0  0  0  0
    6.2200   -1.8150   24.3910 C   0  0  0  0  0  0  0  0  0  0  0  0
    7.4840   -1.2150   24.4150 C   0  0  0  0  0  0  0  0  0  0  0  0
  1  2  1  0
  2  3  1  0
  3  4  2  0
  5  3  1  1
  5  6  1  0
  6  7  2  0
  7  8  1  0
  8  9  2  0
  9 10  1  0
  6 11  1  0
 10 11  2  0
 11 12  1  0
  5 13  1  0
 13 14  1  0
 14 15  1  0
 16 15  1  6
 16 17  1  0
 17 18  1  0
 18 19  2  0
 18 20  1  0
 16 21  1  0
 20 21  2  0
 13 22  1  0
 21 22  1  0
M  END
