JOH-CHE-3504ac3d-2
     RDKit          3D

 25 27  0  0  0  0  0  0  0  0999 V2000
    9.0510    6.5890   22.5510 C   0  0  0  0  0  0  0  0  0  0  0  0
   10.2580    6.2390   23.3820 C   0  0  0  0  0  0  0  0  0  0  0  0
   10.2760    6.3130   24.6060 O   0  0  0  0  0  0  0  0  0  0  0  0
   11.3850    5.8090   22.5550 N   0  0  0  0  0  0  0  0  0  0  0  0
   12.4180    5.0920   23.2050 C   0  0  0  0  0  0  0  0  0  0  0  0
   12.7630    3.8310   22.7350 C   0  0  0  0  0  0  0  0  0  0  0  0
   11.7780    2.9470   23.1610 C   0  0  0  0  0  0  0  0  0  0  0  0
   10.6070    3.2370   23.8510 C   0  0  0  0  0  0  0  0  0  0  0  0
    9.8160    2.1380   24.1120 N   0  0  0  0  0  0  0  0  0  0  0  0
   10.4060    1.0490   23.6000 C   0  0  0  0  0  0  0  0  0  0  0  0
   11.7000    1.5010   22.9820 C   0  0  0  0  0  0  0  0  0  0  0  0
   12.4480    0.3530   22.4010 C   0  0  0  0  0  0  0  0  0  0  0  0
   11.9890   -0.9620   22.3700 C   0  0  0  0  0  0  0  0  0  0  0  0
   12.9650   -2.1360   21.6160 Cl  0  0  0  0  0  0  0  0  0  0  0  0
   10.7640   -1.3280   22.9440 C   0  0  0  0  0  0  0  0  0  0  0  0
   10.1210   -2.5640   23.0430 C   0  0  0  0  0  0  0  0  0  0  0  0
    8.9280   -2.5610   23.7920 C   0  0  0  0  0  0  0  0  0  0  0  0
    8.0130   -3.6770   24.2330 C   0  0  0  0  0  0  0  0  0  0  0  0
    7.7840   -3.7650   25.7770 C   0  0  0  0  0  0  0  0  0  0  0  0
    7.0860   -4.7080   24.9070 C   0  0  0  0  0  0  0  0  0  0  0  0
    7.9480   -5.6870   24.5110 C   0  0  0  0  0  0  0  0  0  0  0  0
    7.7060   -6.3230   23.4000 N   0  0  0  0  0  0  0  0  0  0  0  0
    9.0180   -5.9340   25.3380 N   0  0  0  0  0  0  0  0  0  0  0  0
    8.5680   -0.9790   24.2710 S   0  0  0  0  0  0  0  0  0  0  0  0
    9.9760   -0.3990   23.5710 C   0  0  0  0  0  0  0  0  0  0  0  0
  1  2  1  0
  2  3  2  0
  2  4  1  0
  4  5  1  0
  5  6  1  0
  6  7  1  0
  7  8  2  0
  8  9  1  0
  9 10  1  0
  7 11  1  0
 10 11  2  0
 11 12  1  0
 12 13  2  0
 13 14  1  0
 13 15  1  0
 15 16  1  0
 16 17  2  0
 17 18  1  0
 18 19  1  0
 19 20  1  0
 20 21  1  0
 21 22  2  3
 21 23  1  0
 17 24  1  0
 10 25  1  0
 15 25  2  0
 24 25  1  0
M  END
