JOH-UNI-27ac80fd-9
     RDKit          3D

 19 20  0  0  0  0  0  0  0  0999 V2000
    8.8210    0.1890   21.5810 C   0  0  0  0  0  0  0  0  0  0  0  0
    8.0850   -0.9020   22.3010 C   0  0  2  0  0  0  0  0  0  0  0  0
    8.9860   -2.0480   22.5530 C   0  0  0  0  0  0  0  0  0  0  0  0
    8.5500   -3.0000   23.4040 N   0  0  0  0  0  0  0  0  0  0  0  0
    8.4150   -2.6300   24.7020 C   0  0  0  0  0  0  0  0  0  0  0  0
    8.7960   -3.7120   25.6370 N   0  0  0  0  0  0  0  0  0  0  0  0
    9.2380   -4.9790   25.0240 C   0  0  0  0  0  0  0  0  0  0  0  0
    8.1750   -5.5190   24.0710 C   0  0  0  0  0  0  0  0  0  0  0  0
    6.8170   -5.3070   24.7730 C   0  0  0  0  0  0  0  0  0  0  0  0
    6.7010   -5.8310   25.8910 O   0  0  0  0  0  0  0  0  0  0  0  0
    7.6070   -5.3770   26.9000 C   0  0  0  0  0  0  0  0  0  0  0  0
    7.8950   -3.9150   26.6590 C   0  0  0  0  0  0  0  0  0  0  0  0
    7.2370   -3.5040   22.9330 C   0  0  0  0  0  0  0  0  0  0  0  0
    6.2990   -2.5820   22.3920 C   0  0  0  0  0  0  0  0  0  0  0  0
    6.8920   -1.5100   21.5830 N   0  0  0  0  0  0  0  0  0  0  0  0
    6.8540   -1.5670   20.1740 C   0  0  0  0  0  0  0  0  0  0  0  0
    7.7860   -1.9470   19.5280 O   0  0  0  0  0  0  0  0  0  0  0  0
    5.7340   -1.1970   19.4710 C   0  0  0  0  0  0  0  0  0  0  0  0
    5.7720   -0.0380   18.7980 F   0  0  0  0  0  0  0  0  0  0  0  0
  2  1  1  6
  2  3  1  0
  3  4  1  0
  4  5  1  0
  5  6  1  0
  6  7  1  0
  7  8  1  0
  8  9  1  0
  9 10  1  0
 10 11  1  0
  6 12  1  0
 11 12  1  0
  4 13  1  0
 13 14  1  0
  2 15  1  0
 14 15  1  0
 15 16  1  0
 16 17  2  0
 16 18  1  0
 18 19  1  0
M  END
