JOH-MSK-a63bdd1d-2
     RDKit          3D

 22 23  0  0  0  0  0  0  0  0999 V2000
   13.2380   -2.1390   20.9360 C   0  0  0  0  0  0  0  0  0  0  0  0
   13.3650   -1.7250   22.2600 O   0  0  0  0  0  0  0  0  0  0  0  0
   12.4890   -0.7480   22.5270 C   0  0  0  0  0  0  0  0  0  0  0  0
   12.7870    0.6440   22.6210 C   0  0  0  0  0  0  0  0  0  0  0  0
   11.7300    1.5380   22.8890 C   0  0  0  0  0  0  0  0  0  0  0  0
   11.6340    2.9080   23.0070 C   0  0  0  0  0  0  0  0  0  0  0  0
   12.6780    3.9190   22.8370 C   0  0  0  0  0  0  0  0  0  0  0  0
   12.3200    5.2470   23.0860 C   0  0  0  0  0  0  0  0  0  0  0  0
   11.3840    5.9230   22.4180 N   0  0  0  0  0  0  0  0  0  0  0  0
   10.3570    6.2460   23.2840 C   0  0  0  0  0  0  0  0  0  0  0  0
    9.1300    6.6040   22.7050 C   0  0  0  0  0  0  0  0  0  0  0  0
   10.4760    6.2370   24.5120 O   0  0  0  0  0  0  0  0  0  0  0  0
   10.3090    3.2250   23.3150 C   0  0  0  0  0  0  0  0  0  0  0  0
    9.6180    1.9850   23.3490 N   0  0  0  0  0  0  0  0  0  0  0  0
   10.4890    0.9980   23.0780 C   0  0  0  0  0  0  0  0  0  0  0  0
   10.1860   -0.3000   23.0020 C   0  0  0  0  0  0  0  0  0  0  0  0
   11.1610   -1.2040   22.7130 C   0  0  0  0  0  0  0  0  0  0  0  0
   10.7250   -2.5030   22.6350 O   0  0  0  0  0  0  0  0  0  0  0  0
    9.0860   -2.6300   22.6820 S   0  0  0  0  0  0  0  0  0  0  0  0
    8.6200   -2.0200   23.9120 O   0  0  0  0  0  0  0  0  0  0  0  0
    8.5900   -3.9330   22.3320 O   0  0  0  0  0  0  0  0  0  0  0  0
    8.6140   -1.6670   21.4610 O   0  0  0  0  0  0  0  0  0  0  0  0
  1  2  1  0
  2  3  1  0
  3  4  2  0
  4  5  1  0
  5  6  1  0
  6  7  1  0
  7  8  1  0
  8  9  1  0
  9 10  1  0
 10 11  1  0
 10 12  2  0
  6 13  2  0
 13 14  1  0
  5 15  2  0
 14 15  1  0
 15 16  1  0
  3 17  1  0
 16 17  2  0
 17 18  1  0
 19 18  1  0
 19 20  2  0
 19 21  2  0
 19 22  1  0
M  END
