JOH-MSK-a63bdd1d-9
     RDKit          3D

 15 16  0  0  0  0  0  0  0  0999 V2000
   10.2280    6.1120   23.7280 C   0  0  0  0  0  0  0  0  0  0  0  0
   11.1140    5.3530   22.9260 N   0  0  0  0  0  0  0  0  0  0  0  0
   11.6110    6.2230   22.0070 C   0  0  0  0  0  0  0  0  0  0  0  0
   12.1380    4.6820   23.6000 C   0  0  0  0  0  0  0  0  0  0  0  0
   12.4360    3.5160   22.9240 C   0  0  0  0  0  0  0  0  0  0  0  0
   11.5140    2.4380   23.3700 C   0  0  0  0  0  0  0  0  0  0  0  0
   10.3260    2.6110   23.9950 C   0  0  0  0  0  0  0  0  0  0  0  0
    9.7810    1.3730   24.2310 N   0  0  0  0  0  0  0  0  0  0  0  0
   10.6530    0.4180   23.7330 C   0  0  0  0  0  0  0  0  0  0  0  0
   10.4060   -1.0660   23.7860 C   0  0  0  0  0  0  0  0  0  0  0  0
   11.5470   -1.7780   23.1400 C   0  0  0  0  0  0  0  0  0  0  0  0
   12.6620   -1.1400   22.5910 C   0  0  0  0  0  0  0  0  0  0  0  0
   13.6030   -1.9240   22.0350 O   0  0  0  0  0  0  0  0  0  0  0  0
   12.7970    0.2580   22.6140 C   0  0  0  0  0  0  0  0  0  0  0  0
   11.7960    1.0580   23.1690 C   0  0  0  0  0  0  0  0  0  0  0  0
  1  2  1  0
  2  3  1  0
  2  4  1  0
  4  5  1  0
  5  6  1  0
  6  7  2  0
  7  8  1  0
  8  9  1  0
  9 10  1  0
 10 11  2  0
 11 12  1  0
 12 13  1  0
 12 14  2  0
  6 15  1  0
  9 15  2  0
 14 15  1  0
M  END
