JOH-MSK-a63bdd1d-7
     RDKit          3D

 14 15  0  0  0  0  0  0  0  0999 V2000
   13.2530   -2.1360   21.0270 C   0  0  0  0  0  0  0  0  0  0  0  0
   13.5590   -1.9430   22.4000 O   0  0  0  0  0  0  0  0  0  0  0  0
   12.6180   -1.1630   22.9010 C   0  0  0  0  0  0  0  0  0  0  0  0
   11.3930   -1.6460   23.6040 C   0  0  0  0  0  0  0  0  0  0  0  0
   10.4070   -0.6530   24.1010 C   0  0  0  0  0  0  0  0  0  0  0  0
   10.7230    0.6690   23.8500 C   0  0  0  0  0  0  0  0  0  0  0  0
    9.8040    1.7210   24.2900 N   0  0  0  0  0  0  0  0  0  0  0  0
   10.3750    2.9720   23.8890 C   0  0  0  0  0  0  0  0  0  0  0  0
   11.6860    2.6870   23.1870 C   0  0  0  0  0  0  0  0  0  0  0  0
   12.6000    3.7480   22.5980 C   0  0  0  0  0  0  0  0  0  0  0  0
   12.3940    5.0430   23.0920 C   0  0  0  0  0  0  0  0  0  0  0  0
   11.3070    5.7660   22.7090 N   0  0  0  0  0  0  0  0  0  0  0  0
   11.9040    1.2540   23.1660 C   0  0  0  0  0  0  0  0  0  0  0  0
   12.8450    0.3300   22.7100 C   0  0  0  0  0  0  0  0  0  0  0  0
  1  2  1  0
  2  3  1  0
  3  4  2  0
  4  5  1  0
  5  6  2  0
  6  7  1  0
  7  8  1  0
  8  9  2  0
  9 10  1  0
 10 11  1  0
 11 12  1  0
  6 13  1  0
  9 13  1  0
  3 14  1  0
 13 14  2  0
M  END
