JOH-MSK-ec639444-3
     RDKit          3D

 18 19  0  0  0  0  0  0  0  0999 V2000
    9.0290   -2.7080   23.7100 C   0  0  0  0  0  0  0  0  0  0  0  0
    9.4760   -1.5330   24.3830 O   0  0  0  0  0  0  0  0  0  0  0  0
   10.6380   -1.0090   23.7540 C   0  0  0  0  0  0  0  0  0  0  0  0
   11.7810   -1.7030   23.0870 C   0  0  0  0  0  0  0  0  0  0  0  0
   12.9450   -0.9250   22.4520 C   0  0  0  0  0  0  0  0  0  0  0  0
   12.8010    0.4150   22.5700 C   0  0  0  0  0  0  0  0  0  0  0  0
   11.5320    0.1340   23.3060 C   0  0  0  0  0  0  0  0  0  0  0  0
   10.3660    0.9500   24.0020 C   0  0  0  0  0  0  0  0  0  0  0  0
   10.7020    2.5160   23.8230 C   0  0  0  0  0  0  0  0  0  0  0  0
   11.9060    2.6120   23.1180 C   0  0  0  0  0  0  0  0  0  0  0  0
   12.7040    3.8150   22.6560 C   0  0  0  0  0  0  0  0  0  0  0  0
   12.3930    5.0730   23.1800 C   0  0  0  0  0  0  0  0  0  0  0  0
   11.2960    5.7830   22.5000 N   0  0  0  0  0  0  0  0  0  0  0  0
   10.1720    6.2100   23.3060 C   0  0  0  0  0  0  0  0  0  0  0  0
    8.9780    6.5610   22.6720 C   0  0  0  0  0  0  0  0  0  0  0  0
   10.2720    6.2710   24.5340 O   0  0  0  0  0  0  0  0  0  0  0  0
   11.9690    1.3270   23.0670 C   0  0  0  0  0  0  0  0  0  0  0  0
   10.8130    0.5680   23.7080 C   0  0  0  0  0  0  0  0  0  0  0  0
  1  2  1  0
  2  3  1  0
  3  4  2  0
  4  5  1  0
  5  6  2  0
  6  7  1  0
  7  8  2  0
  8  9  1  0
  9 10  2  0
 10 11  1  0
 11 12  1  0
 12 13  1  0
 13 14  1  0
 14 15  1  0
 14 16  2  0
  6 17  1  0
 10 17  1  0
  3 18  1  0
 17 18  2  0
M  END
