JOH-MEM-5e386bbd-5
     RDKit          3D

 28 31  0  0  0  0  0  0  0  0999 V2000
    9.4660    6.6210   22.5580 C   0  0  0  0  0  0  0  0  0  0  0  0
   10.4970    6.2720   23.6400 C   0  0  0  0  0  0  0  0  0  0  0  0
   10.6460    6.9380   24.6550 O   0  0  0  0  0  0  0  0  0  0  0  0
   11.2480    5.0720   23.3680 N   0  0  0  0  0  0  0  0  0  0  0  0
   12.6180    5.0920   23.0980 C   0  0  0  0  0  0  0  0  0  0  0  0
   12.7260    3.9360   22.4580 C   0  0  0  0  0  0  0  0  0  0  0  0
   11.8420    3.0880   23.0360 C   0  0  0  0  0  0  0  0  0  0  0  0
   10.6790    3.7270   23.7750 C   0  0  0  0  0  0  0  0  0  0  0  0
   10.1930    2.4650   24.1250 N   0  0  0  0  0  0  0  0  0  0  0  0
   10.7400    1.3580   23.7780 C   0  0  0  0  0  0  0  0  0  0  0  0
   10.2000    0.1470   24.1430 C   0  0  0  0  0  0  0  0  0  0  0  0
   10.8480   -0.9180   23.6530 C   0  0  0  0  0  0  0  0  0  0  0  0
   11.9390   -0.7020   22.8940 C   0  0  0  0  0  0  0  0  0  0  0  0
   12.2620   -1.9610   22.4900 O   0  0  0  0  0  0  0  0  0  0  0  0
   10.8600   -2.2140   22.0780 C   0  0  2  0  0  0  0  0  0  0  0  0
   10.1660   -0.9600   21.6880 O   0  0  0  0  0  0  0  0  0  0  0  0
    8.6950   -1.0260   21.7210 C   0  0  2  0  0  0  0  0  0  0  0  0
    8.1480    0.1900   20.9440 C   0  0  0  0  0  0  0  0  0  0  0  0
    8.5810    1.3430   20.9900 O   0  0  0  0  0  0  0  0  0  0  0  0
    7.0860   -0.0860   20.1600 O   0  0  0  0  0  0  0  0  0  0  0  0
    8.2540   -1.2970   22.9910 C   0  0  1  0  0  0  0  0  0  0  0  0
    7.0330   -2.0640   22.9040 O   0  0  0  0  0  0  0  0  0  0  0  0
    9.1200   -2.1500   23.8430 C   0  0  1  0  0  0  0  0  0  0  0  0
    8.2210   -3.2050   24.2350 O   0  0  0  0  0  0  0  0  0  0  0  0
   10.1440   -2.8000   23.1610 C   0  0  2  0  0  0  0  0  0  0  0  0
   11.0650   -3.2880   24.1650 O   0  0  0  0  0  0  0  0  0  0  0  0
   12.5230    0.5480   22.5780 C   0  0  0  0  0  0  0  0  0  0  0  0
   11.8260    1.6520   23.0530 C   0  0  0  0  0  0  0  0  0  0  0  0
  1  2  1  0
  2  3  2  0
  2  4  1  0
  4  5  1  0
  5  6  1  0
  6  7  1  0
  4  8  1  0
  7  8  2  0
  8  9  1  0
  9 10  1  0
 10 11  1  0
 11 12  2  0
 12 13  1  0
 13 14  1  0
 15 14  1  1
 15 16  1  0
 16 17  1  0
 17 18  1  1
 18 19  2  0
 18 20  1  0
 17 21  1  0
 21 22  1  6
 21 23  1  0
 23 24  1  6
 15 25  1  0
 23 25  1  0
 25 26  1  1
 13 27  2  0
  7 28  1  0
 10 28  2  0
 27 28  1  0
M  END
