JOH-UNI-a5c0a47e-1
     RDKit          3D

 21 23  0  0  0  0  0  0  0  0999 V2000
    7.9830   -4.1120   26.0280 C   0  0  0  0  0  0  0  0  0  0  0  0
    7.7130   -3.2460   25.1740 O   0  0  0  0  0  0  0  0  0  0  0  0
    8.6310   -2.7960   24.2590 C   0  0  0  0  0  0  0  0  0  0  0  0
    9.4880   -3.5050   23.7690 O   0  0  0  0  0  0  0  0  0  0  0  0
    8.6800   -1.3550   23.7010 C   0  0  2  0  0  0  0  0  0  0  0  0
   10.0980   -0.7870   23.5480 C   0  0  0  0  0  0  0  0  0  0  0  0
   10.7050    0.3220   24.3730 C   0  0  0  0  0  0  0  0  0  0  0  0
   11.9610    0.5830   24.0120 C   0  0  0  0  0  0  0  0  0  0  0  0
   12.8440    0.0120   23.0050 C   0  0  0  0  0  0  0  0  0  0  0  0
   12.2140   -1.0680   22.2170 C   0  0  0  0  0  0  0  0  0  0  0  0
   10.7950   -1.4030   22.5600 C   0  0  0  0  0  0  0  0  0  0  0  0
    9.9750   -2.5840   21.7070 Cl  0  0  0  0  0  0  0  0  0  0  0  0
    7.9330   -0.4530   24.4710 N   0  0  0  0  0  0  0  0  0  0  0  0
    7.2930    0.6520   23.7970 C   0  0  0  0  0  0  0  0  0  0  0  0
    6.8360    1.7170   24.7600 C   0  0  0  0  0  0  0  0  0  0  0  0
    6.2720    1.2110   25.8550 C   0  0  0  0  0  0  0  0  0  0  0  0
    5.3050    2.0800   26.9740 S   0  0  0  0  0  0  0  0  0  0  0  0
    5.0560    0.6950   27.9650 C   0  0  0  0  0  0  0  0  0  0  0  0
    5.6860   -0.3550   27.4490 C   0  0  0  0  0  0  0  0  0  0  0  0
    6.4280   -0.1040   26.1900 C   0  0  0  0  0  0  0  0  0  0  0  0
    7.1640   -1.0530   25.4670 C   0  0  0  0  0  0  0  0  0  0  0  0
  1  2  1  0
  2  3  1  0
  3  4  2  0
  5  3  1  1
  5  6  1  0
  6  7  2  0
  7  8  1  0
  8  9  2  0
  9 10  1  0
  6 11  1  0
 10 11  2  0
 11 12  1  0
  5 13  1  0
 13 14  1  0
 14 15  1  0
 15 16  1  0
 16 17  1  0
 17 18  1  0
 18 19  2  0
 16 20  2  0
 19 20  1  0
 13 21  1  0
 20 21  1  0
M  END
