JOH-UNI-27ac80fd-6
     RDKit          3D

 18 19  0  0  0  0  0  0  0  0999 V2000
    6.7110   -1.3660   18.9270 C   0  0  0  0  0  0  0  0  0  0  0  0
    6.3370   -2.2190   20.1470 C   0  0  0  0  0  0  0  0  0  0  0  0
    5.6050   -3.2140   19.9810 O   0  0  0  0  0  0  0  0  0  0  0  0
    6.8220   -1.8820   21.4300 N   0  0  0  0  0  0  0  0  0  0  0  0
    6.1980   -2.4940   22.6120 C   0  0  0  0  0  0  0  0  0  0  0  0
    7.0740   -3.4010   23.2200 C   0  0  0  0  0  0  0  0  0  0  0  0
    8.3140   -2.7130   23.5600 N   0  0  0  0  0  0  0  0  0  0  0  0
    9.1490   -3.5180   24.4710 C   0  0  0  0  0  0  0  0  0  0  0  0
    8.9200   -3.5620   25.8640 N   0  0  0  0  0  0  0  0  0  0  0  0
    9.6280   -4.4830   26.5340 C   0  0  0  0  0  0  0  0  0  0  0  0
    9.0450   -5.7310   26.7020 C   0  0  0  0  0  0  0  0  0  0  0  0
    7.9890   -5.6840   27.5930 C   0  0  0  0  0  0  0  0  0  0  0  0
    6.8920   -5.5580   27.0480 O   0  0  0  0  0  0  0  0  0  0  0  0
    6.8850   -4.7710   25.9510 C   0  0  0  0  0  0  0  0  0  0  0  0
    7.5350   -3.5530   26.1770 C   0  0  0  0  0  0  0  0  0  0  0  0
    9.0640   -1.9570   22.6910 C   0  0  0  0  0  0  0  0  0  0  0  0
    8.2820   -1.3950   21.5110 C   0  0  2  0  0  0  0  0  0  0  0  0
    8.4690    0.1290   21.6060 C   0  0  0  0  0  0  0  0  0  0  0  0
  1  2  1  0
  2  3  2  0
  2  4  1  0
  4  5  1  0
  5  6  1  0
  6  7  1  0
  7  8  1  0
  8  9  1  0
  9 10  1  0
 10 11  1  0
 11 12  1  0
 12 13  1  0
 13 14  1  0
  9 15  1  0
 14 15  1  0
  7 16  1  0
  4 17  1  0
 16 17  1  0
 17 18  1  1
M  END
