JOH-MEM-5e386bbd-1
     RDKit          3D

 18 19  0  0  0  0  0  0  0  0999 V2000
   13.2460   -2.0540   21.0220 C   0  0  0  0  0  0  0  0  0  0  0  0
   13.5510   -1.7490   22.3620 O   0  0  0  0  0  0  0  0  0  0  0  0
   12.5750   -1.0320   22.9600 C   0  0  0  0  0  0  0  0  0  0  0  0
   11.6110   -1.5680   23.8250 C   0  0  0  0  0  0  0  0  0  0  0  0
   10.6410   -0.7460   24.3750 C   0  0  0  0  0  0  0  0  0  0  0  0
   10.7370    0.6770   23.9510 C   0  0  0  0  0  0  0  0  0  0  0  0
   11.6650    1.2080   23.1030 C   0  0  0  0  0  0  0  0  0  0  0  0
   12.6210    0.3160   22.6100 C   0  0  0  0  0  0  0  0  0  0  0  0
   11.3800    2.6850   22.9010 C   0  0  2  0  0  0  0  0  0  0  0  0
   12.5150    3.6840   22.7600 C   0  0  0  0  0  0  0  0  0  0  0  0
   12.4000    4.9900   23.2700 C   0  0  0  0  0  0  0  0  0  0  0  0
   11.2860    5.6470   22.6040 N   0  0  0  0  0  0  0  0  0  0  0  0
   10.2020    6.2490   23.3740 C   0  0  0  0  0  0  0  0  0  0  0  0
    9.1110    6.6410   22.5900 C   0  0  0  0  0  0  0  0  0  0  0  0
   10.2200    6.4050   24.5970 O   0  0  0  0  0  0  0  0  0  0  0  0
   10.3020    2.9470   23.9950 C   0  0  0  0  0  0  0  0  0  0  0  0
    9.9230    4.0350   24.3890 O   0  0  0  0  0  0  0  0  0  0  0  0
    9.7610    1.6420   24.4640 N   0  0  0  0  0  0  0  0  0  0  0  0
  1  2  1  0
  2  3  1  0
  3  4  2  0
  4  5  1  0
  5  6  2  0
  6  7  1  0
  3  8  1  0
  7  8  2  0
  7  9  1  0
  9 10  1  1
 10 11  1  0
 11 12  1  0
 12 13  1  0
 13 14  1  0
 13 15  2  0
  9 16  1  0
 16 17  2  0
  6 18  1  0
 16 18  1  0
M  END
