JOH-UNI-a5c0a47e-4
     RDKit          3D

 26 27  0  0  0  0  0  0  0  0999 V2000
    7.9660   -4.0490   26.0430 C   0  0  0  0  0  0  0  0  0  0  0  0
    7.7130   -3.1040   25.2610 O   0  0  0  0  0  0  0  0  0  0  0  0
    8.6840   -2.7370   24.3570 C   0  0  0  0  0  0  0  0  0  0  0  0
    9.4570   -3.5520   23.8820 O   0  0  0  0  0  0  0  0  0  0  0  0
    8.7020   -1.4070   24.0140 C   0  0  2  0  0  0  0  0  0  0  0  0
   10.0640   -0.8810   23.6990 C   0  0  0  0  0  0  0  0  0  0  0  0
   10.7420    0.1230   24.4080 C   0  0  0  0  0  0  0  0  0  0  0  0
   12.1120    0.5360   24.0030 C   0  0  0  0  0  0  0  0  0  0  0  0
   12.7720   -0.0020   22.9860 C   0  0  0  0  0  0  0  0  0  0  0  0
   12.0920   -1.0380   22.2300 C   0  0  0  0  0  0  0  0  0  0  0  0
   10.7300   -1.4190   22.6350 C   0  0  0  0  0  0  0  0  0  0  0  0
    9.8980   -2.6110   21.7180 Cl  0  0  0  0  0  0  0  0  0  0  0  0
    8.2040   -0.6220   25.0730 N   0  0  0  0  0  0  0  0  0  0  0  0
    6.7390   -0.3900   25.1800 C   0  0  0  0  0  0  0  0  0  0  0  0
    6.3970    0.7180   25.9390 C   0  0  0  0  0  0  0  0  0  0  0  0
    7.4660    1.2820   26.6400 C   0  0  1  0  0  0  0  0  0  0  0  0
    6.9320    2.5600   27.8400 S   0  0  0  0  0  0  0  0  0  0  0  0
    6.1700    3.7220   26.7570 C   0  0  0  0  0  0  0  0  0  0  0  0
    5.5600    4.8250   27.4370 C   0  0  0  0  0  0  0  0  0  0  0  0
    6.1580    3.6040   25.5370 O   0  0  0  0  0  0  0  0  0  0  0  0
    8.2300    0.1840   27.3680 C   0  0  0  0  0  0  0  0  0  0  0  0
    8.4460    0.0330   28.7490 C   0  0  0  0  0  0  0  0  0  0  0  0
    8.0070    0.8550   29.7710 C   0  0  0  0  0  0  0  0  0  0  0  0
    6.9320    0.4540   30.5190 O   0  0  0  0  0  0  0  0  0  0  0  0
    8.6670    2.0020   29.9780 O   0  0  0  0  0  0  0  0  0  0  0  0
    8.7810   -0.8320   26.3930 C   0  0  0  0  0  0  0  0  0  0  0  0
  1  2  1  0
  2  3  1  0
  3  4  2  0
  5  3  1  1
  5  6  1  0
  6  7  2  0
  7  8  1  0
  8  9  2  0
  9 10  1  0
  6 11  1  0
 10 11  2  0
 11 12  1  0
  5 13  1  0
 13 14  1  0
 14 15  1  0
 15 16  1  0
 16 17  1  1
 17 18  1  0
 18 19  1  0
 18 20  2  0
 16 21  1  0
 21 22  2  3
 22 23  1  0
 23 24  2  0
 23 25  1  0
 13 26  1  0
 21 26  1  0
M  END
