JOH-UNI-27ac80fd-5
     RDKit          3D

 18 19  0  0  0  0  0  0  0  0999 V2000
    6.0080   -1.9010   18.7800 C   0  0  0  0  0  0  0  0  0  0  0  0
    5.8740   -2.9000   19.9060 C   0  0  0  0  0  0  0  0  0  0  0  0
    5.3350   -3.9930   19.7200 O   0  0  0  0  0  0  0  0  0  0  0  0
    6.4650   -2.4440   21.0700 N   0  0  0  0  0  0  0  0  0  0  0  0
    7.5050   -1.4690   21.1090 C   0  0  0  0  0  0  0  0  0  0  0  0
    8.5990   -1.7720   21.8960 C   0  0  0  0  0  0  0  0  0  0  0  0
    8.3950   -2.5920   22.9260 N   0  0  0  0  0  0  0  0  0  0  0  0
    8.7920   -2.1070   24.0990 C   0  0  0  0  0  0  0  0  0  0  0  0
   10.1380   -1.9520   24.3740 N   0  0  0  0  0  0  0  0  0  0  0  0
   11.0930   -3.0070   24.0940 C   0  0  0  0  0  0  0  0  0  0  0  0
   12.3410   -2.6680   24.6120 C   0  0  0  0  0  0  0  0  0  0  0  0
   13.2350   -1.9490   23.6250 C   0  0  0  0  0  0  0  0  0  0  0  0
   12.9790   -0.7700   23.3700 O   0  0  0  0  0  0  0  0  0  0  0  0
   11.6670   -0.3740   23.2890 C   0  0  0  0  0  0  0  0  0  0  0  0
   10.6920   -0.6130   24.4110 C   0  0  0  0  0  0  0  0  0  0  0  0
    7.2880   -3.5230   23.1510 C   0  0  2  0  0  0  0  0  0  0  0  0
    7.7470   -4.8490   23.1260 C   0  0  0  0  0  0  0  0  0  0  0  0
    6.1790   -3.1880   22.3210 C   0  0  0  0  0  0  0  0  0  0  0  0
  1  2  1  0
  2  3  2  0
  2  4  1  0
  4  5  1  0
  5  6  1  0
  6  7  1  0
  7  8  1  0
  8  9  1  0
  9 10  1  0
 10 11  1  0
 11 12  1  0
 12 13  1  0
 13 14  1  0
  9 15  1  0
 14 15  1  0
  7 16  1  0
 16 17  1  6
  4 18  1  0
 16 18  1  0
M  END
