JOH-MSK-ec639444-2
     RDKit          3D

 19 21  0  0  0  0  0  0  0  0999 V2000
    8.4950    7.1570   22.0770 C   0  0  0  0  0  0  0  0  0  0  0  0
    8.8320    5.9920   22.9510 C   0  0  0  0  0  0  0  0  0  0  0  0
   10.0880    6.0180   23.5800 C   0  0  0  0  0  0  0  0  0  0  0  0
   10.2400    6.2630   24.7700 O   0  0  0  0  0  0  0  0  0  0  0  0
   11.1220    5.7430   22.7110 N   0  0  0  0  0  0  0  0  0  0  0  0
   12.3770    5.1820   23.1890 C   0  0  0  0  0  0  0  0  0  0  0  0
   12.5390    3.7570   22.7630 C   0  0  0  0  0  0  0  0  0  0  0  0
   11.4900    2.8450   22.6860 C   0  0  2  0  0  0  0  0  0  0  0  0
   10.8540    2.0840   23.6690 C   0  0  0  0  0  0  0  0  0  0  0  0
   11.3250    0.5180   23.4220 C   0  0  0  0  0  0  0  0  0  0  0  0
   12.6090    0.6190   22.5670 C   0  0  0  0  0  0  0  0  0  0  0  0
   12.9360   -0.7260   22.6930 C   0  0  0  0  0  0  0  0  0  0  0  0
   12.0190   -1.4620   23.4120 C   0  0  0  0  0  0  0  0  0  0  0  0
   10.9180   -0.7410   23.8970 C   0  0  0  0  0  0  0  0  0  0  0  0
   10.7430    0.6360   23.6790 C   0  0  0  0  0  0  0  0  0  0  0  0
   11.6750    1.4410   22.9280 C   0  0  0  0  0  0  0  0  0  0  0  0
    9.4530    0.8810   24.3900 C   0  0  0  0  0  0  0  0  0  0  0  0
    9.4080   -0.2810   25.1920 C   0  0  0  0  0  0  0  0  0  0  0  0
    9.8870   -1.2580   24.6220 O   0  0  0  0  0  0  0  0  0  0  0  0
  1  2  1  0
  2  3  1  0
  3  4  2  0
  3  5  1  0
  5  6  1  0
  6  7  1  0
  8  7  1  1
  8  9  1  0
  9 10  1  0
 10 11  1  0
 11 12  2  0
 12 13  1  0
 13 14  2  0
 14 15  1  0
  8 16  1  0
 11 16  1  0
 15 16  2  0
 15 17  1  0
 17 18  1  0
 14 19  1  0
 18 19  1  0
M  END
