JOH-MEM-5e386bbd-6
     RDKit          3D

 18 20  0  0  0  0  0  0  0  0999 V2000
   13.6590   -2.7430   23.6330 C   0  0  0  0  0  0  0  0  0  0  0  0
   13.4220   -1.9290   22.5120 O   0  0  0  0  0  0  0  0  0  0  0  0
   12.6160   -0.9260   22.8490 C   0  0  0  0  0  0  0  0  0  0  0  0
   12.8630    0.4430   22.7070 C   0  0  0  0  0  0  0  0  0  0  0  0
   11.9100    1.3350   23.1100 C   0  0  0  0  0  0  0  0  0  0  0  0
   11.9500    2.8100   23.0320 C   0  0  0  0  0  0  0  0  0  0  0  0
   10.8420    3.4530   23.5170 C   0  0  0  0  0  0  0  0  0  0  0  0
    9.9940    2.2950   23.9570 N   0  0  0  0  0  0  0  0  0  0  0  0
   10.7020    1.0330   23.6740 C   0  0  0  0  0  0  0  0  0  0  0  0
   10.2040   -0.3570   23.9450 C   0  0  0  0  0  0  0  0  0  0  0  0
   11.2420   -1.3420   23.4910 C   0  0  0  0  0  0  0  0  0  0  0  0
   10.9390   -2.5210   23.6620 O   0  0  0  0  0  0  0  0  0  0  0  0
   10.9140    4.8520   23.4270 N   0  0  0  0  0  0  0  0  0  0  0  0
    9.9880    5.9040   23.6890 C   0  0  0  0  0  0  0  0  0  0  0  0
    9.2130    6.4580   22.6600 C   0  0  0  0  0  0  0  0  0  0  0  0
    9.8680    6.3490   24.8320 O   0  0  0  0  0  0  0  0  0  0  0  0
   12.3490    5.0750   23.2000 C   0  0  0  0  0  0  0  0  0  0  0  0
   12.8510    3.9120   22.5650 C   0  0  0  0  0  0  0  0  0  0  0  0
  1  2  1  0
  2  3  1  0
  3  4  2  0
  4  5  1  0
  5  6  1  0
  6  7  2  0
  7  8  1  0
  5  9  2  0
  8  9  1  0
  9 10  1  0
  3 11  1  0
 10 11  2  0
 11 12  1  0
  7 13  1  0
 13 14  1  0
 14 15  1  0
 14 16  2  0
 13 17  1  0
  6 18  1  0
 17 18  1  0
M  END
