JOH-MEM-5e386bbd-7
     RDKit          3D

 13 14  0  0  0  0  0  0  0  0999 V2000
   11.3080    5.3880   24.0560 O   0  0  0  0  0  0  0  0  0  0  0  0
   12.3510    5.1330   23.4760 C   0  0  0  0  0  0  0  0  0  0  0  0
   12.6230    3.9480   22.8010 C   0  0  0  0  0  0  0  0  0  0  0  0
   11.6860    2.8950   22.9650 C   0  0  0  0  0  0  0  0  0  0  0  0
   10.2660    3.1030   23.3120 C   0  0  0  0  0  0  0  0  0  0  0  0
    9.6190    1.8590   23.3660 N   0  0  0  0  0  0  0  0  0  0  0  0
   10.5540    0.8120   23.0650 C   0  0  0  0  0  0  0  0  0  0  0  0
   10.3510   -0.5540   22.9850 C   0  0  0  0  0  0  0  0  0  0  0  0
   11.3700   -1.4300   22.6700 C   0  0  0  0  0  0  0  0  0  0  0  0
   12.6820   -1.0420   22.4290 C   0  0  0  0  0  0  0  0  0  0  0  0
   13.6580   -1.9090   22.1310 O   0  0  0  0  0  0  0  0  0  0  0  0
   12.9360    0.3250   22.5090 C   0  0  0  0  0  0  0  0  0  0  0  0
   11.8360    1.3560   22.8280 C   0  0  0  0  0  0  0  0  0  0  0  0
  1  2  2  0
  2  3  1  0
  3  4  1  0
  4  5  2  0
  5  6  1  0
  6  7  1  0
  7  8  1  0
  8  9  2  0
  9 10  1  0
 10 11  1  0
 10 12  2  0
  4 13  1  0
  7 13  2  0
 12 13  1  0
M  END
