JOH-MSK-a63bdd1d-6
     RDKit          3D

 28 30  0  0  0  0  0  0  0  0999 V2000
    8.9040    6.6860   22.5470 C   0  0  0  0  0  0  0  0  0  0  0  0
   10.1250    6.2940   23.3370 C   0  0  0  0  0  0  0  0  0  0  0  0
   10.1770    6.4210   24.5640 O   0  0  0  0  0  0  0  0  0  0  0  0
   11.1420    5.7880   22.5910 N   0  0  0  0  0  0  0  0  0  0  0  0
   11.9660    4.9310   23.2390 C   0  0  0  0  0  0  0  0  0  0  0  0
   12.3690    3.5880   22.6840 C   0  0  0  0  0  0  0  0  0  0  0  0
   11.6530    2.4180   23.0110 C   0  0  0  0  0  0  0  0  0  0  0  0
   10.3880    2.4520   23.8080 C   0  0  0  0  0  0  0  0  0  0  0  0
    9.8290    1.1740   23.9260 N   0  0  0  0  0  0  0  0  0  0  0  0
   10.6770    0.3080   23.2340 C   0  0  0  0  0  0  0  0  0  0  0  0
   10.4260   -1.1520   23.0480 C   0  0  0  0  0  0  0  0  0  0  0  0
   11.3610   -1.8930   22.3050 C   0  0  0  0  0  0  0  0  0  0  0  0
   12.4930   -1.2910   21.8060 C   0  0  0  0  0  0  0  0  0  0  0  0
   13.4320   -2.1450   20.9990 O   0  0  0  0  0  0  0  0  0  0  0  0
   13.3260   -3.6330   20.7900 C   0  0  2  0  0  0  0  0  0  0  0  0
   14.1490   -4.1060   21.5320 O   0  0  0  0  0  0  0  0  0  0  0  0
   15.2820   -4.8310   20.9720 C   0  0  1  0  0  0  0  0  0  0  0  0
   15.8880   -5.0440   22.0690 C   0  0  0  0  0  0  0  0  0  0  0  0
   16.7170   -5.6920   22.4680 O   0  0  0  0  0  0  0  0  0  0  0  0
   15.3780   -4.1320   23.0450 O   0  0  0  0  0  0  0  0  0  0  0  0
   14.9290   -5.9430   20.2220 C   0  0  1  0  0  0  0  0  0  0  0  0
   13.7110   -6.4120   20.6400 O   0  0  0  0  0  0  0  0  0  0  0  0
   14.8760   -5.0410   19.1990 C   0  0  2  0  0  0  0  0  0  0  0  0
   16.1130   -4.3100   19.1810 O   0  0  0  0  0  0  0  0  0  0  0  0
   13.7980   -4.2090   19.5790 C   0  0  2  0  0  0  0  0  0  0  0  0
   14.7220   -3.2640   19.2770 O   0  0  0  0  0  0  0  0  0  0  0  0
   12.7280    0.1030   22.0270 C   0  0  0  0  0  0  0  0  0  0  0  0
   11.8060    0.9660   22.7060 C   0  0  0  0  0  0  0  0  0  0  0  0
  1  2  1  0
  2  3  2  0
  2  4  1  0
  4  5  1  0
  5  6  1  0
  6  7  1  0
  7  8  2  0
  8  9  1  0
  9 10  1  0
 10 11  1  0
 11 12  2  0
 12 13  1  0
 13 14  1  0
 15 14  1  6
 15 16  1  0
 16 17  1  0
 17 18  1  1
 18 19  2  0
 18 20  1  0
 17 21  1  0
 21 22  1  1
 21 23  1  0
 23 24  1  1
 15 25  1  0
 23 25  1  0
 25 26  1  6
 13 27  2  0
  7 28  1  0
 10 28  2  0
 27 28  1  0
M  END
