JOH-UNI-a5c0a47e-3
     RDKit          3D

 23 24  0  0  0  0  0  0  0  0999 V2000
    6.8780   -3.4640   25.1070 C   0  0  0  0  0  0  0  0  0  0  0  0
    7.0690   -2.5220   24.3600 O   0  0  0  0  0  0  0  0  0  0  0  0
    8.2760   -2.5270   23.6860 C   0  0  0  0  0  0  0  0  0  0  0  0
    8.8510   -3.5580   23.3560 O   0  0  0  0  0  0  0  0  0  0  0  0
    8.6900   -1.2620   23.4220 C   0  0  1  0  0  0  0  0  0  0  0  0
   10.1600   -0.9520   23.3160 C   0  0  0  0  0  0  0  0  0  0  0  0
   10.5920    0.3760   23.0800 C   0  0  0  0  0  0  0  0  0  0  0  0
   12.0280    0.7360   22.9630 C   0  0  0  0  0  0  0  0  0  0  0  0
   12.9810   -0.1650   23.0720 C   0  0  0  0  0  0  0  0  0  0  0  0
   12.5990   -1.5440   23.3160 C   0  0  0  0  0  0  0  0  0  0  0  0
   11.1690   -1.8970   23.4370 C   0  0  0  0  0  0  0  0  0  0  0  0
   10.8540   -3.5840   23.7560 Cl  0  0  0  0  0  0  0  0  0  0  0  0
    8.1280   -0.8860   22.1750 N   0  0  0  0  0  0  0  0  0  0  0  0
    6.9250   -1.6150   21.7030 C   0  0  0  0  0  0  0  0  0  0  0  0
    6.4810   -1.2120   20.4580 C   0  0  0  0  0  0  0  0  0  0  0  0
    6.0420    0.1110   20.4180 C   0  0  2  0  0  0  0  0  0  0  0  0
    6.4270    0.7330   18.7270 S   0  0  0  0  0  0  0  0  0  0  0  0
    6.5780    0.9540   21.4360 C   0  0  0  0  0  0  0  0  0  0  0  0
    6.0070    2.1170   22.0710 C   0  0  0  0  0  0  0  0  0  0  0  0
    4.7150    2.6300   21.7460 C   0  0  0  0  0  0  0  0  0  0  0  0
    3.8100    1.8890   21.3810 O   0  0  0  0  0  0  0  0  0  0  0  0
    4.4750    3.9760   21.8510 O   0  0  0  0  0  0  0  0  0  0  0  0
    7.9780    0.5770   21.9570 C   0  0  0  0  0  0  0  0  0  0  0  0
  1  2  1  0
  2  3  1  0
  3  4  2  0
  5  3  1  6
  5  6  1  0
  6  7  2  0
  7  8  1  0
  8  9  2  0
  9 10  1  0
  6 11  1  0
 10 11  2  0
 11 12  1  0
  5 13  1  0
 13 14  1  0
 14 15  1  0
 15 16  1  0
 16 17  1  6
 16 18  1  0
 18 19  2  3
 19 20  1  0
 20 21  2  0
 20 22  1  0
 13 23  1  0
 18 23  1  0
M  END
