JOH-UNI-42710746-1
     RDKit          3D

 13 12  0  0  0  0  0  0  0  0999 V2000
    7.1300   -1.9700   23.7770 O   0  0  0  0  0  0  0  0  0  0  0  0
    6.1870   -1.9620   24.5620 C   0  0  0  0  0  0  0  0  0  0  0  0
    5.4580   -3.2120   24.8350 C   0  0  0  0  0  0  0  0  0  0  0  0
    5.5390   -3.6300   26.1090 C   0  0  2  0  0  0  0  0  0  0  0  0
    6.3240   -4.8480   26.4350 C   0  0  0  0  0  0  0  0  0  0  0  0
    7.6860   -5.1930   25.3350 S   0  0  0  0  0  0  0  0  0  0  0  0
    9.1000   -6.1380   26.1390 Au  0  0  0  0  0  1  0  0  0  0  0  0
    4.1510   -4.0270   26.4450 C   0  0  0  0  0  0  0  0  0  0  0  0
    3.6970   -5.0780   25.9800 O   0  0  0  0  0  0  0  0  0  0  0  0
    3.3940   -3.2230   27.2720 O   0  0  0  0  0  0  0  0  0  0  0  0
    1.5690   -3.8810   27.9200 Na  0  0  0  0  0  1  0  0  0  0  0  0
    5.8310   -0.7610   25.1550 O   0  0  0  0  0  0  0  0  0  0  0  0
    6.8240    0.9820   24.7120 Na  0  0  0  0  0  1  0  0  0  0  0  0
  1  2  2  0
  2  3  1  0
  4  3  1  6
  4  5  1  0
  5  6  1  0
  6  7  1  0
  4  8  1  0
  8  9  2  0
  8 10  1  0
 10 11  1  0
  2 12  1  0
 12 13  1  0
M  END
