JOH-MSK-a63bdd1d-10
     RDKit          3D

 14 15  0  0  0  0  0  0  0  0999 V2000
   10.1840    6.1720   23.7740 C   0  0  0  0  0  0  0  0  0  0  0  0
   10.9910    5.4540   22.9760 N   0  0  0  0  0  0  0  0  0  0  0  0
   11.4700    6.2550   22.0800 C   0  0  0  0  0  0  0  0  0  0  0  0
   12.1160    4.8600   23.6300 C   0  0  0  0  0  0  0  0  0  0  0  0
   12.5190    3.6100   22.9160 C   0  0  0  0  0  0  0  0  0  0  0  0
   11.7760    2.3530   23.2840 C   0  0  0  0  0  0  0  0  0  0  0  0
   10.5840    2.5500   23.8970 C   0  0  0  0  0  0  0  0  0  0  0  0
   10.0370    1.3180   24.1540 N   0  0  0  0  0  0  0  0  0  0  0  0
   10.8940    0.3180   23.6940 C   0  0  0  0  0  0  0  0  0  0  0  0
   10.6090   -1.0470   23.8000 C   0  0  0  0  0  0  0  0  0  0  0  0
   11.6300   -1.8140   23.2530 C   0  0  0  0  0  0  0  0  0  0  0  0
   12.8930   -1.2000   22.6320 C   0  0  0  0  0  0  0  0  0  0  0  0
   13.0740    0.1570   22.5920 C   0  0  0  0  0  0  0  0  0  0  0  0
   12.0580    0.9640   23.1200 C   0  0  0  0  0  0  0  0  0  0  0  0
  1  2  1  0
  2  3  1  0
  2  4  1  0
  4  5  1  0
  5  6  1  0
  6  7  2  0
  7  8  1  0
  8  9  1  0
  9 10  1  0
 10 11  2  0
 11 12  1  0
 12 13  2  0
  6 14  1  0
  9 14  2  0
 13 14  1  0
M  END
