JOH-UNI-27ac80fd-24
     RDKit          3D

 17 18  0  0  0  0  0  0  0  0999 V2000
    5.4180   -3.7630   19.5530 O   0  0  0  0  0  0  0  0  0  0  0  0
    5.9980   -2.6980   19.8560 C   0  0  0  0  0  0  0  0  0  0  0  0
    6.2790   -1.6100   18.8550 C   0  0  0  0  0  0  0  0  0  0  0  0
    5.7070   -0.4160   19.1980 F   0  0  0  0  0  0  0  0  0  0  0  0
    6.4490   -2.4880   21.1430 N   0  0  0  0  0  0  0  0  0  0  0  0
    7.5610   -1.5240   21.3260 C   0  0  0  0  0  0  0  0  0  0  0  0
    8.6360   -2.0540   22.0310 C   0  0  0  0  0  0  0  0  0  0  0  0
    8.1640   -2.7130   23.2490 N   0  0  0  0  0  0  0  0  0  0  0  0
    9.2110   -3.0310   24.1800 C   0  0  0  0  0  0  0  0  0  0  0  0
    8.9410   -3.9780   25.1660 C   0  0  0  0  0  0  0  0  0  0  0  0
    9.7200   -5.2330   25.3700 C   0  0  0  0  0  0  0  0  0  0  0  0
    9.1510   -6.0160   26.5180 C   0  0  0  0  0  0  0  0  0  0  0  0
    7.9800   -5.2680   27.0830 C   0  0  0  0  0  0  0  0  0  0  0  0
    6.9390   -5.8810   28.5510 Br  0  0  0  0  0  0  0  0  0  0  0  0
    7.6560   -3.8050   26.2930 S   0  0  0  0  0  0  0  0  0  0  0  0
    7.3480   -3.8040   22.8930 C   0  0  0  0  0  0  0  0  0  0  0  0
    6.2060   -3.4700   22.2100 C   0  0  0  0  0  0  0  0  0  0  0  0
  1  2  2  0
  2  3  1  0
  3  4  1  0
  2  5  1  0
  5  6  1  0
  6  7  1  0
  7  8  1  0
  8  9  1  0
  9 10  1  0
 10 11  2  0
 11 12  1  0
 12 13  2  0
 13 14  1  0
 10 15  1  0
 13 15  1  0
  8 16  1  0
  5 17  1  0
 16 17  1  0
M  END
