JOH-MSK-a63bdd1d-4
     RDKit          3D

 16 17  0  0  0  0  0  0  0  0999 V2000
    9.0360    6.5700   22.6320 C   0  0  0  0  0  0  0  0  0  0  0  0
   10.1790    6.2590   23.3650 C   0  0  0  0  0  0  0  0  0  0  0  0
   10.2380    6.3520   24.5900 O   0  0  0  0  0  0  0  0  0  0  0  0
   11.2930    5.8100   22.5090 N   0  0  0  0  0  0  0  0  0  0  0  0
   12.3370    5.0640   23.2260 C   0  0  0  0  0  0  0  0  0  0  0  0
   12.5840    3.6880   22.6830 C   0  0  0  0  0  0  0  0  0  0  0  0
   11.7660    2.5170   23.1890 C   0  0  0  0  0  0  0  0  0  0  0  0
   10.6120    2.8290   23.8370 C   0  0  0  0  0  0  0  0  0  0  0  0
   10.0120    1.6340   24.2020 N   0  0  0  0  0  0  0  0  0  0  0  0
   10.8100    0.5740   23.7690 C   0  0  0  0  0  0  0  0  0  0  0  0
   10.5150   -0.7630   23.9510 C   0  0  0  0  0  0  0  0  0  0  0  0
   11.4200   -1.6700   23.4410 C   0  0  0  0  0  0  0  0  0  0  0  0
   12.6800   -1.1430   22.7270 C   0  0  0  0  0  0  0  0  0  0  0  0
   13.5050   -2.1920   22.2510 O   0  0  0  0  0  0  0  0  0  0  0  0
   12.9110    0.2080   22.6010 C   0  0  0  0  0  0  0  0  0  0  0  0
   11.9670    1.1100   23.1110 C   0  0  0  0  0  0  0  0  0  0  0  0
  1  2  1  0
  2  3  2  0
  2  4  1  0
  4  5  1  0
  5  6  1  0
  6  7  1  0
  7  8  2  0
  8  9  1  0
  9 10  1  0
 10 11  1  0
 11 12  2  0
 12 13  1  0
 13 14  1  0
 13 15  2  0
  7 16  1  0
 10 16  2  0
 15 16  1  0
M  END
