JON-UIO-066ce08b-15
     RDKit          3D

 34 36  0  0  0  0  0  0  0  0999 V2000
   15.1680   -6.0600   20.3720 C   0  0  0  0  0  0  0  0  0  0  0  0
   15.1500   -4.6950   20.5820 C   0  0  0  0  0  0  0  0  0  0  0  0
   14.0590   -3.7370   20.5410 C   0  0  0  0  0  0  0  0  0  0  0  0
   13.5440   -3.8440   19.6070 O   0  0  0  0  0  0  0  0  0  0  0  0
   13.3080   -3.1110   21.5360 N   0  0  0  0  0  0  0  0  0  0  0  0
   13.3680   -1.7970   21.9730 C   0  0  0  0  0  0  0  0  0  0  0  0
   12.3910   -0.8560   22.3580 C   0  0  0  0  0  0  0  0  0  0  0  0
   12.9900    0.5130   22.4950 C   0  0  0  0  0  0  0  0  0  0  0  0
   12.2220    1.5480   22.7950 C   0  0  0  0  0  0  0  0  0  0  0  0
   10.7540    1.4270   23.0210 C   0  0  0  0  0  0  0  0  0  0  0  0
   10.1200    0.0700   22.9400 C   0  0  0  0  0  0  0  0  0  0  0  0
   11.0260   -1.1140   22.5820 C   0  0  0  0  0  0  0  0  0  0  0  0
   10.2050   -2.3500   22.5370 C   0  0  0  0  0  0  0  0  0  0  0  0
    8.8130   -2.0330   22.9110 N   0  0  0  0  0  0  0  0  0  0  0  0
    8.0350   -1.6070   21.7370 C   0  0  0  0  0  0  0  0  0  0  0  0
    6.7720   -2.2000   21.7050 C   0  0  0  0  0  0  0  0  0  0  0  0
    6.6170   -3.5290   21.9930 N   0  0  0  0  0  0  0  0  0  0  0  0
    5.3810   -4.0620   21.8440 C   0  0  0  0  0  0  0  0  0  0  0  0
    5.0150   -4.6010   20.8170 O   0  0  0  0  0  0  0  0  0  0  0  0
    4.5120   -3.9390   22.9280 C   0  0  0  0  0  0  0  0  0  0  0  0
    4.3690   -5.2270   23.6020 N   0  0  0  0  0  0  0  0  0  0  0  0
    2.9860   -5.7080   23.7610 C   0  0  0  0  0  0  0  0  0  0  0  0
    3.0150   -7.1590   24.2600 C   0  0  0  0  0  0  0  0  0  0  0  0
    4.2930   -7.4630   24.9200 N   0  0  0  0  0  0  0  0  0  0  0  0
    4.5210   -7.0370   26.2290 C   0  0  0  0  0  0  0  0  0  0  0  0
    3.8050   -7.3780   27.1670 O   0  0  0  0  0  0  0  0  0  0  0  0
    5.7200   -6.1080   26.4050 C   0  0  2  0  0  0  0  0  0  0  0  0
    5.2670   -5.0200   27.1080 F   0  0  0  0  0  0  0  0  0  0  0  0
    6.2010   -5.5060   25.1080 C   0  0  0  0  0  0  0  0  0  0  0  0
    7.2420   -6.4410   24.4290 C   0  0  0  0  0  0  0  0  0  0  0  0
    5.4410   -7.3450   24.0390 C   0  0  0  0  0  0  0  0  0  0  0  0
    5.1950   -6.2870   23.0080 C   0  0  0  0  0  0  0  0  0  0  0  0
    7.4320   -4.0370   23.0750 C   0  0  0  0  0  0  0  0  0  0  0  0
    8.1730   -3.0690   23.7360 C   0  0  0  0  0  0  0  0  0  0  0  0
  1  2  1  0
  2  3  1  0
  3  4  2  0
  3  5  1  0
  5  6  1  0
  6  7  1  0
  7  8  2  0
  8  9  1  0
  9 10  2  0
 10 11  1  0
  7 12  1  0
 11 12  2  0
 12 13  1  0
 13 14  1  0
 14 15  1  0
 15 16  1  0
 16 17  1  0
 17 18  1  0
 18 19  2  0
 18 20  1  0
 20 21  1  0
 21 22  1  0
 22 23  1  0
 23 24  1  0
 24 25  1  0
 25 26  2  0
 25 27  1  0
 27 28  1  1
 27 29  1  0
 29 30  1  0
 24 31  1  0
 21 32  1  0
 31 32  1  0
 17 33  1  0
 14 34  1  0
 33 34  1  0
M  END
