JON-UIO-066ce08b-9
     RDKit          3D

 21 22  0  0  0  0  0  0  0  0999 V2000
   12.6550   -1.7040   22.4160 C   0  0  0  0  0  0  0  0  0  0  0  0
   11.9420   -0.5370   23.0160 C   0  0  0  0  0  0  0  0  0  0  0  0
   12.5340    0.7680   22.9320 C   0  0  0  0  0  0  0  0  0  0  0  0
   11.8540    1.8380   23.4910 C   0  0  0  0  0  0  0  0  0  0  0  0
   10.6220    1.6320   24.1290 C   0  0  0  0  0  0  0  0  0  0  0  0
   10.0540    0.3740   24.2180 C   0  0  0  0  0  0  0  0  0  0  0  0
   10.7120   -0.7300   23.6540 C   0  0  0  0  0  0  0  0  0  0  0  0
   10.0620   -2.1060   23.7710 C   0  0  0  0  0  0  0  0  0  0  0  0
    9.1230   -2.3320   22.7910 N   0  0  0  0  0  0  0  0  0  0  0  0
    8.6140   -1.2040   22.1150 C   0  0  0  0  0  0  0  0  0  0  0  0
    7.1970   -1.2070   21.6370 C   0  0  0  0  0  0  0  0  0  0  0  0
    6.5760   -2.4030   21.4040 N   0  0  0  0  0  0  0  0  0  0  0  0
    6.0740   -2.6610   20.0550 C   0  0  0  0  0  0  0  0  0  0  0  0
    5.4330   -3.6810   19.7370 O   0  0  0  0  0  0  0  0  0  0  0  0
    6.4590   -1.6140   19.2000 C   0  0  1  0  0  0  0  0  0  0  0  0
    7.2130   -2.0260   18.1990 F   0  0  0  0  0  0  0  0  0  0  0  0
    5.4240   -0.5310   18.8380 C   0  0  0  0  0  0  0  0  0  0  0  0
    4.7230   -0.1220   20.1300 C   0  0  0  0  0  0  0  0  0  0  0  0
    6.0940    0.6010   18.3500 C   0  0  0  0  0  0  0  0  0  0  0  0
    7.1050   -3.5370   22.1810 C   0  0  0  0  0  0  0  0  0  0  0  0
    8.1050   -3.1660   23.2770 C   0  0  0  0  0  0  0  0  0  0  0  0
  1  2  1  0
  2  3  2  0
  3  4  1  0
  4  5  2  0
  5  6  1  0
  2  7  1  0
  6  7  2  0
  7  8  1  0
  8  9  1  0
  9 10  1  0
 10 11  1  0
 11 12  1  0
 12 13  1  0
 13 14  2  0
 13 15  1  0
 15 16  1  6
 15 17  1  0
 17 18  1  0
 17 19  1  0
 12 20  1  0
  9 21  1  0
 20 21  1  0
M  END
