JON-UIO-cc955e79-4
     RDKit          3D

 14 14  0  0  0  0  0  0  0  0999 V2000
    7.6270   -0.1770   20.7630 C   0  0  0  0  0  0  0  0  0  0  0  0
    8.2090   -1.4650   20.6730 N   0  0  0  0  0  0  0  0  0  0  0  0
    8.1200   -2.1600   21.9410 C   0  0  0  0  0  0  0  0  0  0  0  0
    7.3970   -3.1410   22.1070 O   0  0  0  0  0  0  0  0  0  0  0  0
    8.8670   -1.6520   22.9650 N   0  0  0  0  0  0  0  0  0  0  0  0
   10.1060   -0.9640   22.8480 C   0  0  1  0  0  0  0  0  0  0  0  0
   10.5030   -0.2240   23.9500 C   0  0  0  0  0  0  0  0  0  0  0  0
   11.8340    0.4500   23.7930 C   0  0  0  0  0  0  0  0  0  0  0  0
   12.5760   -0.0890   22.7200 O   0  0  0  0  0  0  0  0  0  0  0  0
   12.4370   -1.4980   22.6050 C   0  0  1  0  0  0  0  0  0  0  0  0
   13.0810   -1.8930   21.4870 N   0  0  0  0  0  0  0  0  0  0  0  0
   13.1080   -2.0960   23.6890 C   0  0  0  0  0  0  0  0  0  0  0  0
   12.2470   -2.5920   24.7190 O   0  0  0  0  0  0  0  0  0  0  0  0
   11.0850   -1.9670   22.5630 O   0  0  0  0  0  0  0  0  0  0  0  0
  1  2  1  0
  2  3  1  0
  3  4  2  0
  3  5  1  0
  6  5  1  1
  6  7  1  0
  7  8  1  0
  8  9  1  0
  9 10  1  0
 10 11  1  6
 10 12  1  0
 12 13  1  0
  6 14  1  0
 10 14  1  0
M  END
