JON-UIO-f971c856-1
     RDKit          3D

 24 25  0  0  0  0  0  0  0  0999 V2000
    9.1530   -3.2370   23.5580 C   0  0  0  0  0  0  0  0  0  0  0  0
   10.5660   -3.0450   23.5560 O   0  0  0  0  0  0  0  0  0  0  0  0
   10.9300   -1.9510   22.7260 C   0  0  2  0  0  0  0  0  0  0  0  0
   12.1500   -1.1460   22.8110 C   0  0  0  0  0  0  0  0  0  0  0  0
   11.7310    0.3070   22.8940 C   0  0  0  0  0  0  0  0  0  0  0  0
   12.4950    1.2580   22.9850 O   0  0  0  0  0  0  0  0  0  0  0  0
   10.3630    0.3740   22.8410 C   0  0  0  0  0  0  0  0  0  0  0  0
    9.9020   -0.9660   22.8910 C   0  0  1  0  0  0  0  0  0  0  0  0
    8.8040   -1.1130   21.9450 N   0  0  0  0  0  0  0  0  0  0  0  0
    7.4570   -0.7070   22.3740 C   0  0  0  0  0  0  0  0  0  0  0  0
    6.7780    0.4990   21.7070 C   0  0  0  0  0  0  0  0  0  0  0  0
    5.6780    0.9510   22.4220 N   0  0  0  0  0  0  0  0  0  0  0  0
    5.6940    0.8030   23.8110 C   0  0  0  0  0  0  0  0  0  0  0  0
    4.8680    0.4470   25.0280 C   0  0  0  0  0  0  0  0  0  0  0  0
    4.2790    0.3950   24.1320 C   0  0  0  0  0  0  0  0  0  0  0  0
    3.2690    0.2380   23.1870 C   0  0  0  0  0  0  0  0  0  0  0  0
    3.1800    1.1530   22.1460 C   0  0  0  0  0  0  0  0  0  0  0  0
    1.9350    1.5590   21.6560 C   0  0  0  0  0  0  0  0  0  0  0  0
    4.5060    1.5230   21.7550 C   0  0  0  0  0  0  0  0  0  0  0  0
    4.8560    2.4150   20.7460 C   0  0  1  0  0  0  0  0  0  0  0  0
    5.5100    3.6110   21.0770 O   0  0  0  0  0  0  0  0  0  0  0  0
    5.5230    1.8720   19.6640 C   0  0  0  0  0  0  0  0  0  0  0  0
    4.8380    1.1760   18.4820 C   0  0  0  0  0  0  0  0  0  0  0  0
    5.5790    0.6840   17.4920 F   0  0  0  0  0  0  0  0  0  0  0  0
  1  2  1  0
  3  2  1  1
  3  4  1  0
  4  5  2  0
  5  6  1  0
  5  7  1  0
  3  8  1  0
  7  8  1  0
  8  9  1  6
  9 10  1  0
 10 11  1  0
 11 12  1  0
 12 13  1  0
 13 14  1  0
 13 15  2  0
 15 16  1  0
 16 17  1  0
 17 18  1  0
 12 19  1  0
 17 19  2  0
 19 20  1  0
 20 21  1  1
 20 22  1  0
 22 23  2  3
 23 24  1  0
M  END
