JON-UIO-066ce08b-4
     RDKit          3D

 20 21  0  0  0  0  0  0  0  0999 V2000
    5.5910   -5.6310   26.7370 C   0  0  0  0  0  0  0  0  0  0  0  0
    4.8910   -6.0990   25.5140 C   0  0  0  0  0  0  0  0  0  0  0  0
    4.0300   -6.9750   25.6000 O   0  0  0  0  0  0  0  0  0  0  0  0
    5.2440   -5.5260   24.2980 N   0  0  0  0  0  0  0  0  0  0  0  0
    6.1860   -4.4170   24.1140 C   0  0  0  0  0  0  0  0  0  0  0  0
    7.0990   -4.6620   23.0830 C   0  0  0  0  0  0  0  0  0  0  0  0
    6.3840   -4.9970   21.8520 N   0  0  0  0  0  0  0  0  0  0  0  0
    6.0150   -3.9760   20.9520 C   0  0  0  0  0  0  0  0  0  0  0  0
    5.3990   -4.2860   19.9110 O   0  0  0  0  0  0  0  0  0  0  0  0
    6.3490   -2.6330   21.2350 C   0  0  1  0  0  0  0  0  0  0  0  0
    5.2280   -1.8990   21.5090 F   0  0  0  0  0  0  0  0  0  0  0  0
    7.3550   -2.3560   22.1710 C   0  0  0  0  0  0  0  0  0  0  0  0
    8.6270   -2.5670   21.7140 N   0  0  0  0  0  0  0  0  0  0  0  0
    9.6780   -2.3490   22.5210 C   0  0  0  0  0  0  0  0  0  0  0  0
    9.5360   -1.8660   23.9490 C   0  0  0  0  0  0  0  0  0  0  0  0
    8.0740   -1.6560   24.3620 C   0  0  0  0  0  0  0  0  0  0  0  0
    7.0610   -1.9000   23.4720 C   0  0  0  0  0  0  0  0  0  0  0  0
    5.4520   -1.6180   24.0380 Cl  0  0  0  0  0  0  0  0  0  0  0  0
    5.5980   -6.2130   22.0380 C   0  0  0  0  0  0  0  0  0  0  0  0
    4.6490   -6.0720   23.0700 C   0  0  0  0  0  0  0  0  0  0  0  0
  1  2  1  0
  2  3  2  0
  2  4  1  0
  4  5  1  0
  5  6  1  0
  6  7  1  0
  7  8  1  0
  8  9  2  0
  8 10  1  0
 10 11  1  1
 10 12  1  0
 12 13  2  0
 13 14  1  0
 14 15  2  0
 15 16  1  0
 12 17  1  0
 16 17  2  0
 17 18  1  0
  7 19  1  0
  4 20  1  0
 19 20  1  0
M  END
