JON-UIO-f971c856-8
     RDKit          3D

 20 20  0  0  0  0  0  0  0  0999 V2000
    9.8970   -1.5310   21.8600 C   0  0  0  0  0  0  0  0  0  0  0  0
   10.9710   -0.7370   22.6240 C   0  0  2  0  0  0  0  0  0  0  0  0
   10.3750    0.2630   23.3490 C   0  0  0  0  0  0  0  0  0  0  0  0
   11.3000    1.0870   23.9060 C   0  0  0  0  0  0  0  0  0  0  0  0
   12.2370    1.5300   23.0280 C   0  0  0  0  0  0  0  0  0  0  0  0
   13.0410    0.6280   22.3860 C   0  0  2  0  0  0  0  0  0  0  0  0
   14.0570    0.9300   21.4060 N   0  0  0  0  0  0  0  0  0  0  0  0
   14.7940    2.2120   21.3150 C   0  0  0  0  0  0  0  0  0  0  0  0
   15.6920    2.9540   19.5920 S   0  0  0  0  0  0  0  0  0  0  0  0
   16.6670    1.7930   18.9810 N   0  0  0  0  0  0  0  0  0  0  0  0
   15.1650    2.7680   18.2710 O   0  0  0  0  0  0  0  0  0  0  0  0
   15.9520    4.3290   19.5540 O   0  0  0  0  0  0  0  0  0  0  0  0
   12.2340   -0.5100   22.0510 N   0  0  0  0  0  0  0  0  0  0  0  0
   12.9550   -1.5330   22.5510 C   0  0  0  0  0  0  0  0  0  0  0  0
   13.2170   -1.2570   23.8630 C   0  0  0  0  0  0  0  0  0  0  0  0
   13.4400   -2.2040   24.7770 C   0  0  0  0  0  0  0  0  0  0  0  0
   14.4750   -2.2840   25.5960 F   0  0  0  0  0  0  0  0  0  0  0  0
   12.6080   -3.1600   24.9580 C   0  0  0  0  0  0  0  0  0  0  0  0
   13.0270   -4.0540   26.0040 C   0  0  0  0  0  0  0  0  0  0  0  0
   14.2640   -4.6020   25.7040 O   0  0  0  0  0  0  0  0  0  0  0  0
  2  1  1  6
  2  3  1  0
  3  4  1  0
  4  5  1  0
  5  6  1  0
  6  7  1  6
  7  8  1  0
  8  9  1  0
  9 10  1  0
  9 11  2  0
  9 12  2  0
  2 13  1  0
  6 13  1  0
 13 14  1  0
 14 15  1  0
 15 16  1  0
 16 17  1  0
 16 18  2  3
 18 19  1  0
 19 20  1  0
M  END
