JON-UIO-066ce08b-5
     RDKit          3D

 19 20  0  0  0  0  0  0  0  0999 V2000
   11.3190   -2.0670   24.4680 C   0  0  0  0  0  0  0  0  0  0  0  0
   10.8880   -2.0600   23.0330 C   0  0  0  0  0  0  0  0  0  0  0  0
   11.7230   -2.2260   22.1610 O   0  0  0  0  0  0  0  0  0  0  0  0
    9.5330   -1.8460   22.8180 N   0  0  0  0  0  0  0  0  0  0  0  0
    9.0870   -1.3920   21.5610 C   0  0  0  0  0  0  0  0  0  0  0  0
    7.7620   -1.0400   21.3870 C   0  0  0  0  0  0  0  0  0  0  0  0
    6.8680   -1.8570   22.0510 C   0  0  0  0  0  0  0  0  0  0  0  0
    5.5020   -2.2010   20.9620 S   0  0  0  0  0  0  0  0  0  0  0  0
    4.6070   -3.0160   21.7150 O   0  0  0  0  0  0  0  0  0  0  0  0
    5.9500   -2.7490   19.7310 O   0  0  0  0  0  0  0  0  0  0  0  0
    4.8990   -0.6080   20.4570 C   0  0  0  0  0  0  0  0  0  0  0  0
    5.1910   -0.2440   19.0790 C   0  0  0  0  0  0  0  0  0  0  0  0
    4.7990    1.0750   18.3500 C   0  0  0  0  0  0  0  0  0  0  0  0
    4.0270    2.0720   19.1910 C   0  0  0  0  0  0  0  0  0  0  0  0
    3.8960    1.4340   20.4930 C   0  0  0  0  0  0  0  0  0  0  0  0
    4.1850    0.2850   21.2900 C   0  0  0  0  0  0  0  0  0  0  0  0
    3.7790   -0.0150   22.9220 Cl  0  0  0  0  0  0  0  0  0  0  0  0
    7.3450   -2.9920   22.6170 C   0  0  0  0  0  0  0  0  0  0  0  0
    8.5460   -2.6770   23.5280 C   0  0  0  0  0  0  0  0  0  0  0  0
  1  2  1  0
  2  3  2  0
  2  4  1  0
  4  5  1  0
  5  6  1  0
  6  7  1  0
  7  8  1  0
  8  9  2  0
  8 10  2  0
  8 11  1  0
 11 12  2  0
 12 13  1  0
 13 14  2  0
 14 15  1  0
 11 16  1  0
 15 16  2  0
 16 17  1  0
  7 18  1  0
  4 19  1  0
 18 19  1  0
M  END
