JON-UIO-cc955e79-5
     RDKit          3D

 20 21  0  0  0  0  0  0  0  0999 V2000
    7.9010   -1.1310   24.5350 C   0  0  0  0  0  0  0  0  0  0  0  0
    8.6250   -1.2400   23.1740 C   0  0  1  0  0  0  0  0  0  0  0  0
    9.0150   -2.7180   23.0870 C   0  0  0  0  0  0  0  0  0  0  0  0
    8.7290   -3.4570   24.2470 C   0  0  0  0  0  0  0  0  0  0  0  0
    7.4740   -3.9200   24.5350 O   0  0  0  0  0  0  0  0  0  0  0  0
    7.9070   -0.8380   22.0370 C   0  0  0  0  0  0  0  0  0  0  0  0
    7.2010    0.3750   21.8330 C   0  0  0  0  0  0  0  0  0  0  0  0
    7.2880    1.2420   22.9710 O   0  0  0  0  0  0  0  0  0  0  0  0
    6.4890    0.7170   20.6810 C   0  0  0  0  0  0  0  0  0  0  0  0
    6.9870    0.2820   19.4980 O   0  0  0  0  0  0  0  0  0  0  0  0
    7.2760   -1.0370   19.5300 C   0  0  0  0  0  0  0  0  0  0  0  0
    7.0960   -1.7390   18.3660 O   0  0  0  0  0  0  0  0  0  0  0  0
    7.7670   -1.7410   20.7820 C   0  0  0  0  0  0  0  0  0  0  0  0
    9.7300   -0.3780   23.0820 C   0  0  1  0  0  0  0  0  0  0  0  0
   10.2390    0.1400   24.2780 C   0  0  0  0  0  0  0  0  0  0  0  0
   11.5790    0.5270   24.0770 C   0  0  0  0  0  0  0  0  0  0  0  0
   11.8820    0.0750   22.8100 C   0  0  1  0  0  0  0  0  0  0  0  0
   13.1500   -0.4050   22.5410 C   0  0  0  0  0  0  0  0  0  0  0  0
   14.0180    0.4040   22.7710 O   0  0  0  0  0  0  0  0  0  0  0  0
   10.9290   -0.9820   22.5760 O   0  0  0  0  0  0  0  0  0  0  0  0
  2  1  1  1
  2  3  1  0
  3  4  1  0
  4  5  1  0
  2  6  1  0
  6  7  2  0
  7  8  1  0
  7  9  1  0
  9 10  1  0
 10 11  1  0
 11 12  1  0
  6 13  1  0
 11 13  2  0
  2 14  1  0
 14 15  1  1
 15 16  1  0
 16 17  1  0
 17 18  1  1
 18 19  1  0
 14 20  1  0
 17 20  1  0
M  END
