JON-UIO-066ce08b-3
     RDKit          3D

 18 19  0  0  0  0  0  0  0  0999 V2000
    5.6200   -5.4630   26.7060 C   0  0  0  0  0  0  0  0  0  0  0  0
    4.6880   -5.5380   25.5190 C   0  0  0  0  0  0  0  0  0  0  0  0
    3.4930   -5.7440   25.6850 O   0  0  0  0  0  0  0  0  0  0  0  0
    5.3350   -5.3530   24.3050 N   0  0  0  0  0  0  0  0  0  0  0  0
    6.5930   -4.7200   24.1030 C   0  0  0  0  0  0  0  0  0  0  0  0
    6.9540   -4.3280   22.8160 C   0  0  0  0  0  0  0  0  0  0  0  0
    6.3370   -4.8500   21.7310 N   0  0  0  0  0  0  0  0  0  0  0  0
    5.8160   -4.0120   20.8130 C   0  0  0  0  0  0  0  0  0  0  0  0
    5.2570   -4.5120   19.8380 O   0  0  0  0  0  0  0  0  0  0  0  0
    5.9250   -2.6280   20.9140 C   0  0  0  0  0  0  0  0  0  0  0  0
    5.5070   -2.1050   22.1540 C   0  0  0  0  0  0  0  0  0  0  0  0
    4.5320   -2.9710   23.0470 C   0  0  0  0  0  0  0  0  0  0  0  0
    4.0940   -2.3930   24.3940 C   0  0  0  0  0  0  0  0  0  0  0  0
    4.7660   -1.1170   24.4380 C   0  0  0  0  0  0  0  0  0  0  0  0
    5.6310   -0.3030   23.6860 C   0  0  0  0  0  0  0  0  0  0  0  0
    6.0320   -0.8070   22.4780 N   0  0  0  0  0  0  0  0  0  0  0  0
    5.7300   -6.0680   21.9470 C   0  0  0  0  0  0  0  0  0  0  0  0
    4.7620   -6.0360   23.1360 C   0  0  0  0  0  0  0  0  0  0  0  0
  1  2  1  0
  2  3  2  0
  2  4  1  0
  4  5  1  0
  5  6  1  0
  6  7  1  0
  7  8  1  0
  8  9  2  0
  8 10  1  0
 10 11  1  0
 11 12  2  0
 12 13  1  0
 13 14  2  0
 14 15  1  0
 11 16  1  0
 15 16  2  0
  7 17  1  0
  4 18  1  0
 17 18  1  0
M  END
