JON-UIO-cc955e79-7
     RDKit          3D

 17 17  0  0  0  0  0  0  0  0999 V2000
   12.1070    4.4110   21.8740 C   0  0  0  0  0  0  0  0  0  0  0  0
   11.1320    3.6700   22.4660 N   0  0  0  0  0  0  0  0  0  0  0  0
   11.6560    2.4800   22.8640 C   0  0  0  0  0  0  0  0  0  0  0  0
   12.8310    2.2950   23.1090 O   0  0  0  0  0  0  0  0  0  0  0  0
   10.6810    1.4120   22.9680 N   0  0  0  0  0  0  0  0  0  0  0  0
   11.1290    0.1550   22.8570 C   0  0  0  0  0  0  0  0  0  0  0  0
   10.2620   -1.0730   22.7680 C   0  0  0  0  0  0  0  0  0  0  0  0
    8.7430   -1.1390   22.8100 C   0  0  2  0  0  0  0  0  0  0  0  0
    8.2940   -1.6990   24.0000 C   0  0  0  0  0  0  0  0  0  0  0  0
    8.0810   -1.9230   21.6850 C   0  0  0  0  0  0  0  0  0  0  0  0
    7.6270   -3.2480   22.0690 O   0  0  0  0  0  0  0  0  0  0  0  0
    7.9160   -1.3730   20.4100 N   0  0  0  0  0  0  0  0  0  0  0  0
    6.6370   -1.0250   19.7940 C   0  0  0  0  0  0  0  0  0  0  0  0
   11.0860   -2.1640   22.6090 C   0  0  0  0  0  0  0  0  0  0  0  0
   12.4720   -1.5590   22.2670 C   0  0  2  0  0  0  0  0  0  0  0  0
   13.4690   -2.1830   22.5980 O   0  0  0  0  0  0  0  0  0  0  0  0
   12.6200   -0.2740   22.7760 C   0  0  0  0  0  0  0  0  0  0  0  0
  1  2  1  0
  2  3  1  0
  3  4  2  0
  3  5  1  0
  5  6  1  0
  6  7  2  0
  7  8  1  0
  8  9  1  1
  8 10  1  0
 10 11  2  0
 10 12  1  0
 12 13  1  0
  7 14  1  0
 14 15  1  0
 15 16  1  1
  6 17  1  0
 15 17  1  0
M  END
