JON-UIO-066ce08b-14
     RDKit          3D

 15 15  0  0  0  0  0  0  0  0999 V2000
   13.2620   -2.1120   20.8830 C   0  0  0  0  0  0  0  0  0  0  0  0
   13.1110   -1.5180   22.1720 C   0  0  2  0  0  0  0  0  0  0  0  0
   13.5960   -2.2430   23.1940 N   0  0  0  0  0  0  0  0  0  0  0  0
   13.0780   -1.7080   24.3790 C   0  0  0  0  0  0  0  0  0  0  0  0
   13.2670   -0.5780   24.7140 O   0  0  0  0  0  0  0  0  0  0  0  0
   12.3440   -2.6510   24.9850 C   0  0  0  0  0  0  0  0  0  0  0  0
   13.1710   -3.5060   25.6450 F   0  0  0  0  0  0  0  0  0  0  0  0
   11.5790   -3.3470   24.1340 F   0  0  0  0  0  0  0  0  0  0  0  0
   11.6630   -1.2370   22.5110 C   0  0  0  0  0  0  0  0  0  0  0  0
   12.5000    0.0660   22.5500 C   0  0  0  0  0  0  0  0  0  0  0  0
   12.0770    1.4910   22.8390 C   0  0  0  0  0  0  0  0  0  0  0  0
   10.6790    1.6800   23.1200 C   0  0  0  0  0  0  0  0  0  0  0  0
    9.8240    0.5170   23.1300 C   0  0  0  0  0  0  0  0  0  0  0  0
    8.5160    0.6500   23.4030 F   0  0  0  0  0  0  0  0  0  0  0  0
   10.3540   -0.7130   22.8550 C   0  0  0  0  0  0  0  0  0  0  0  0
  2  1  1  6
  2  3  1  0
  3  4  1  0
  4  5  2  0
  4  6  1  0
  6  7  1  0
  6  8  1  0
  2  9  1  0
  9 10  2  0
 10 11  1  0
 11 12  2  0
 12 13  1  0
 13 14  1  0
  9 15  1  0
 13 15  2  0
M  END
