JON-UIO-066ce08b-2
     RDKit          3D

 20 21  0  0  0  0  0  0  0  0999 V2000
    4.4500   -6.2370   26.2370 N   0  0  0  0  0  0  0  0  0  0  0  0
    5.2130   -5.1570   25.8000 C   0  0  0  0  0  0  0  0  0  0  0  0
    5.6250   -4.1470   26.7110 O   0  0  0  0  0  0  0  0  0  0  0  0
    5.5470   -5.0960   24.4750 N   0  0  0  0  0  0  0  0  0  0  0  0
    6.1960   -4.0380   24.1150 C   0  0  0  0  0  0  0  0  0  0  0  0
    7.1580   -4.3770   23.2530 C   0  0  0  0  0  0  0  0  0  0  0  0
    6.4940   -4.7160   21.9960 N   0  0  0  0  0  0  0  0  0  0  0  0
    6.0770   -3.7500   21.0520 C   0  0  0  0  0  0  0  0  0  0  0  0
    5.3930   -4.2020   19.8610 O   0  0  0  0  0  0  0  0  0  0  0  0
    6.3440   -2.2310   21.3190 C   0  0  1  0  0  0  0  0  0  0  0  0
    6.0410   -1.5720   20.3250 O   0  0  0  0  0  0  0  0  0  0  0  0
    5.4580   -1.7930   22.2630 F   0  0  0  0  0  0  0  0  0  0  0  0
    7.7570   -1.7970   21.7350 C   0  0  0  0  0  0  0  0  0  0  0  0
    8.7860   -2.8210   22.2210 C   0  0  0  0  0  0  0  0  0  0  0  0
   10.1500   -2.1940   22.6040 C   0  0  0  0  0  0  0  0  0  0  0  0
   10.4960   -0.8670   22.5470 C   0  0  0  0  0  0  0  0  0  0  0  0
    9.3950    0.1150   22.0410 C   0  0  0  0  0  0  0  0  0  0  0  0
    8.0570   -0.3540   21.6470 N   0  0  0  0  0  0  0  0  0  0  0  0
    5.6210   -5.8870   22.1820 C   0  0  0  0  0  0  0  0  0  0  0  0
    4.8090   -5.7600   23.4650 C   0  0  0  0  0  0  0  0  0  0  0  0
  1  2  1  0
  2  3  2  0
  2  4  1  0
  4  5  1  0
  5  6  1  0
  6  7  1  0
  7  8  1  0
  8  9  2  0
  8 10  1  0
 10 11  1  6
 10 12  1  0
 10 13  1  0
 13 14  2  0
 14 15  1  0
 15 16  2  0
 16 17  1  0
 13 18  1  0
 17 18  2  0
  7 19  1  0
  4 20  1  0
 19 20  1  0
M  END
