JON-UIO-cc955e79-1
     RDKit          3D

 25 26  0  0  0  0  0  0  0  0999 V2000
    6.0280   -0.4440   18.5380 C   0  0  0  0  0  0  0  0  0  0  0  0
    6.9310   -1.3150   19.4270 C   0  0  0  0  0  0  0  0  0  0  0  0
    7.4000   -0.6670   20.5760 C   0  0  1  0  0  0  0  0  0  0  0  0
    6.7190    0.4950   20.9990 C   0  0  1  0  0  0  0  0  0  0  0  0
    6.5700    1.5450   20.1180 N   0  0  0  0  0  0  0  0  0  0  0  0
    5.2900    1.9680   20.0760 C   0  0  0  0  0  0  0  0  0  0  0  0
    4.4840    1.2810   20.9020 C   0  0  0  0  0  0  0  0  0  0  0  0
    5.2800    0.3440   21.5300 C   0  0  0  0  0  0  0  0  0  0  0  0
    4.8350   -0.5720   22.4840 C   0  0  0  0  0  0  0  0  0  0  0  0
    3.5470   -0.1430   22.9840 O   0  0  0  0  0  0  0  0  0  0  0  0
    7.5810   -1.6320   21.7810 C   0  0  1  0  0  0  0  0  0  0  0  0
    7.3360   -2.9850   21.4290 O   0  0  0  0  0  0  0  0  0  0  0  0
    8.7090   -1.5410   22.6000 C   0  0  0  0  0  0  0  0  0  0  0  0
   10.0290   -1.1220   22.4250 C   0  0  0  0  0  0  0  0  0  0  0  0
   10.3160    0.3340   22.7200 C   0  0  0  0  0  0  0  0  0  0  0  0
    9.1770    1.3000   23.0800 C   0  0  0  0  0  0  0  0  0  0  0  0
    8.7330    2.2380   22.1910 O   0  0  0  0  0  0  0  0  0  0  0  0
   11.5710    0.8100   22.6870 N   0  0  0  0  0  0  0  0  0  0  0  0
   12.6550   -0.0670   22.6060 C   0  0  0  0  0  0  0  0  0  0  0  0
   13.7660    0.3590   22.7460 O   0  0  0  0  0  0  0  0  0  0  0  0
   12.4180   -1.5380   22.3360 C   0  0  0  0  0  0  0  0  0  0  0  0
   11.0970   -2.0060   22.0910 C   0  0  0  0  0  0  0  0  0  0  0  0
    8.7740   -1.8290   23.9430 C   0  0  0  0  0  0  0  0  0  0  0  0
    7.7510   -2.2550   24.7640 C   0  0  0  0  0  0  0  0  0  0  0  0
   10.3920   -1.5820   24.5510 Cl  0  0  0  0  0  0  0  0  0  0  0  0
  1  2  1  0
  3  2  1  6
  3  4  1  0
  4  5  1  6
  5  6  2  0
  6  7  1  0
  4  8  1  0
  7  8  2  0
  8  9  1  0
  9 10  1  0
  3 11  1  0
 11 12  1  6
 11 13  1  0
 13 14  1  0
 14 15  2  0
 15 16  1  0
 16 17  1  0
 15 18  1  0
 18 19  1  0
 19 20  2  0
 19 21  1  0
 14 22  1  0
 21 22  1  0
 13 23  2  3
 23 24  1  0
 23 25  1  0
M  END
