JON-UIO-066ce08b-1
     RDKit          3D

 19 20  0  0  0  0  0  0  0  0999 V2000
    4.1760   -6.9050   25.6130 C   0  0  0  0  0  0  0  0  0  0  0  0
    5.0000   -5.6840   25.5000 C   0  0  0  0  0  0  0  0  0  0  0  0
    5.2610   -5.0310   26.5080 O   0  0  0  0  0  0  0  0  0  0  0  0
    5.4560   -5.3240   24.2260 N   0  0  0  0  0  0  0  0  0  0  0  0
    6.3460   -4.1640   24.0650 C   0  0  0  0  0  0  0  0  0  0  0  0
    7.2810   -4.4630   23.0720 C   0  0  0  0  0  0  0  0  0  0  0  0
    6.5810   -4.9400   21.8700 N   0  0  0  0  0  0  0  0  0  0  0  0
    6.1900   -3.8200   21.0110 C   0  0  0  0  0  0  0  0  0  0  0  0
    5.3970   -4.1440   19.8660 O   0  0  0  0  0  0  0  0  0  0  0  0
    6.6400   -2.3820   21.2450 C   0  0  2  0  0  0  0  0  0  0  0  0
    6.7260   -2.0490   22.5390 F   0  0  0  0  0  0  0  0  0  0  0  0
    5.9240   -1.3210   20.3760 C   0  0  0  0  0  0  0  0  0  0  0  0
    6.0640   -1.2040   18.8940 C   0  0  0  0  0  0  0  0  0  0  0  0
    5.3540   -0.1440   18.1570 C   0  0  0  0  0  0  0  0  0  0  0  0
    4.5860    0.6920   18.8880 C   0  0  0  0  0  0  0  0  0  0  0  0
    4.4770    0.5470   20.2950 C   0  0  0  0  0  0  0  0  0  0  0  0
    5.1460   -0.4630   21.0780 N   0  0  0  0  0  0  0  0  0  0  0  0
    5.6240   -6.0290   22.0300 C   0  0  0  0  0  0  0  0  0  0  0  0
    4.7070   -5.7520   23.0570 C   0  0  0  0  0  0  0  0  0  0  0  0
  1  2  1  0
  2  3  2  0
  2  4  1  0
  4  5  1  0
  5  6  1  0
  6  7  1  0
  7  8  1  0
  8  9  2  0
  8 10  1  0
 10 11  1  1
 10 12  1  0
 12 13  2  0
 13 14  1  0
 14 15  2  0
 15 16  1  0
 12 17  1  0
 16 17  2  0
  7 18  1  0
  4 19  1  0
 18 19  1  0
M  END
