JON-UIO-f971c856-2
     RDKit          3D

 24 25  0  0  0  0  0  0  0  0999 V2000
    6.0880    0.9300   18.3020 C   0  0  0  0  0  0  0  0  0  0  0  0
    4.8640    0.8250   19.1570 C   0  0  0  0  0  0  0  0  0  0  0  0
    5.0130    0.8820   20.6470 C   0  0  0  0  0  0  0  0  0  0  0  0
    5.8880   -0.0440   21.4040 C   0  0  0  0  0  0  0  0  0  0  0  0
    6.6300   -1.0280   20.7740 N   0  0  0  0  0  0  0  0  0  0  0  0
    8.0490   -1.2670   20.8970 C   0  0  0  0  0  0  0  0  0  0  0  0
    8.2890   -2.2420   22.0650 C   0  0  0  0  0  0  0  0  0  0  0  0
    7.9320   -3.4150   22.0330 O   0  0  0  0  0  0  0  0  0  0  0  0
    8.9280   -1.7330   23.2500 N   0  0  0  0  0  0  0  0  0  0  0  0
   10.2880   -1.3650   23.2890 C   0  0  2  0  0  0  0  0  0  0  0  0
   10.4640    0.1360   23.2910 C   0  0  0  0  0  0  0  0  0  0  0  0
   11.6560    0.7390   23.0000 N   0  0  0  0  0  0  0  0  0  0  0  0
   12.6860   -0.1520   22.6680 C   0  0  0  0  0  0  0  0  0  0  0  0
   12.4260   -1.4520   22.2960 C   0  0  0  0  0  0  0  0  0  0  0  0
   11.1620   -2.0390   22.2260 C   0  0  0  0  0  0  0  0  0  0  0  0
    5.8550    0.1890   22.7560 C   0  0  1  0  0  0  0  0  0  0  0  0
    7.0660    0.4990   23.3780 C   0  0  0  0  0  0  0  0  0  0  0  0
    4.8210    1.3930   22.7700 C   0  0  0  0  0  0  0  0  0  0  0  0
    4.4000    2.0250   24.0820 C   0  0  0  0  0  0  0  0  0  0  0  0
    5.5560    2.3390   24.8180 C   0  0  0  0  0  0  0  0  0  0  0  0
    4.0000    1.0460   25.2230 C   0  0  0  0  0  0  0  0  0  0  0  0
    3.4550    3.0370   23.9930 C   0  0  0  0  0  0  0  0  0  0  0  0
    4.3760    1.7560   21.4860 C   0  0  0  0  0  0  0  0  0  0  0  0
    3.5080    2.7330   21.0870 O   0  0  0  0  0  0  0  0  0  0  0  0
  1  2  2  3
  2  3  1  0
  3  4  2  0
  4  5  1  0
  5  6  1  0
  6  7  1  0
  7  8  2  0
  7  9  1  0
 10  9  1  6
 10 11  1  0
 11 12  2  0
 12 13  1  0
 13 14  2  0
 10 15  1  0
 14 15  1  0
  4 16  1  0
 16 17  1  6
 16 18  1  0
 18 19  1  0
 19 20  1  0
 19 21  1  0
 19 22  1  0
  3 23  1  0
 18 23  2  0
 23 24  1  0
M  END
