JOO-IND-9269dfbd-2
     RDKit          3D

 29 31  0  0  0  0  0  0  0  0999 V2000
    9.1630   -0.4440   21.4580 N   0  0  0  0  0  0  0  0  0  0  0  0
    7.6900   -0.3410   21.4880 C   0  0  1  0  0  0  0  0  0  0  0  0
    7.1860    0.9510   20.8850 C   0  0  0  0  0  0  0  0  0  0  0  0
    5.9030    0.8420   20.3440 C   0  0  2  0  0  0  0  0  0  0  0  0
    5.7230    0.7630   18.8300 C   0  0  0  0  0  0  0  0  0  0  0  0
    4.7340    1.6090   18.3490 C   0  0  0  0  0  0  0  0  0  0  0  0
    4.5870    2.5660   19.4100 N   0  0  0  0  0  0  0  0  0  0  0  0
    5.0840    2.0930   20.6150 C   0  0  0  0  0  0  0  0  0  0  0  0
    4.8840    2.6180   21.7040 O   0  0  0  0  0  0  0  0  0  0  0  0
    7.0390   -1.5610   20.8430 C   0  0  0  0  0  0  0  0  0  0  0  0
    6.2580   -1.5060   19.8950 O   0  0  0  0  0  0  0  0  0  0  0  0
    7.3640   -2.8040   21.3800 C   0  0  0  0  0  0  0  0  0  0  0  0
    8.4100   -2.9630   21.9930 O   0  0  0  0  0  0  0  0  0  0  0  0
    6.4360   -3.7820   21.1790 N   0  0  0  0  0  0  0  0  0  0  0  0
    6.6230   -4.9770   21.8980 C   0  0  0  0  0  0  0  0  0  0  0  0
    5.7870   -4.9160   23.0730 C   0  0  0  0  0  0  0  0  0  0  0  0
    5.8490   -3.8690   24.0050 C   0  0  0  0  0  0  0  0  0  0  0  0
    5.0280   -3.8290   25.1270 C   0  0  0  0  0  0  0  0  0  0  0  0
    4.1190   -4.8720   25.3170 C   0  0  0  0  0  0  0  0  0  0  0  0
    4.0650   -5.9170   24.3800 C   0  0  0  0  0  0  0  0  0  0  0  0
    3.1830   -6.9860   24.5080 C   0  0  0  0  0  0  0  0  0  0  0  0
    3.6380   -8.0410   24.9420 O   0  0  0  0  0  0  0  0  0  0  0  0
    1.8690   -6.7770   24.1180 N   0  0  0  0  0  0  0  0  0  0  0  0
    1.3690   -5.4940   23.6380 C   0  0  0  0  0  0  0  0  0  0  0  0
    0.3170   -4.9890   24.4020 C   0  0  0  0  0  0  0  0  0  0  0  0
   -1.1130   -6.1040   24.3800 S   0  0  0  0  0  0  0  0  0  0  0  0
   -0.2400   -7.6180   24.9070 C   0  0  0  0  0  0  0  0  0  0  0  0
    0.9250   -7.8970   24.1730 C   0  0  0  0  0  0  0  0  0  0  0  0
    4.8880   -5.9370   23.2740 C   0  0  0  0  0  0  0  0  0  0  0  0
  2  1  1  6
  2  3  1  0
  4  3  1  6
  4  5  1  0
  5  6  1  0
  6  7  1  0
  4  8  1  0
  7  8  1  0
  8  9  2  0
  2 10  1  0
 10 11  2  0
 10 12  1  0
 12 13  2  0
 12 14  1  0
 14 15  1  0
 15 16  1  0
 16 17  2  0
 17 18  1  0
 18 19  2  0
 19 20  1  0
 20 21  1  0
 21 22  2  0
 21 23  1  0
 23 24  1  0
 24 25  1  0
 25 26  1  0
 26 27  1  0
 23 28  1  0
 27 28  1  0
 16 29  1  0
 20 29  2  0
M  END
