JOO-IND-6372a4f3-2
     RDKit          3D

 20 21  0  0  0  0  0  0  0  0999 V2000
    7.8160   -5.0240   21.9280 O   0  0  0  0  0  0  0  0  0  0  0  0
    7.5280   -3.8410   22.0550 C   0  0  0  0  0  0  0  0  0  0  0  0
    6.1710   -3.4380   22.1740 N   0  0  0  0  0  0  0  0  0  0  0  0
    5.5370   -3.8490   23.2660 C   0  0  0  0  0  0  0  0  0  0  0  0
    5.6100   -3.1740   24.4210 C   0  0  0  0  0  0  0  0  0  0  0  0
    4.9070   -3.6130   25.6760 C   0  0  0  0  0  0  0  0  0  0  0  0
    4.0660   -4.8820   25.6490 C   0  0  0  0  0  0  0  0  0  0  0  0
    4.0170   -5.6040   24.3240 C   0  0  0  0  0  0  0  0  0  0  0  0
    3.1630   -6.8850   24.2720 C   0  0  0  0  0  0  0  0  0  0  0  0
    3.7170   -7.9260   24.6450 O   0  0  0  0  0  0  0  0  0  0  0  0
    1.8730   -6.8590   23.8460 N   0  0  0  0  0  0  0  0  0  0  0  0
    1.3750   -5.6480   23.5270 C   0  0  0  0  0  0  0  0  0  0  0  0
    0.4070   -5.0450   24.3150 C   0  0  0  0  0  0  0  0  0  0  0  0
   -0.9920   -6.1960   24.4150 S   0  0  0  0  0  0  0  0  0  0  0  0
   -0.0550   -7.6410   25.0120 C   0  0  0  0  0  0  0  0  0  0  0  0
    0.9010   -7.9470   24.0610 C   0  0  0  0  0  0  0  0  0  0  0  0
    4.7860   -5.0390   23.1410 C   0  0  0  0  0  0  0  0  0  0  0  0
    8.5230   -2.6670   22.0970 C   0  0  1  0  0  0  0  0  0  0  0  0
    7.8980   -1.4940   21.8860 F   0  0  0  0  0  0  0  0  0  0  0  0
    9.2690   -2.6130   23.6430 Cl  0  0  0  0  0  0  0  0  0  0  0  0
  1  2  2  0
  2  3  1  0
  3  4  1  0
  4  5  2  0
  5  6  1  0
  6  7  2  0
  7  8  1  0
  8  9  1  0
  9 10  2  0
  9 11  1  0
 11 12  1  0
 12 13  1  0
 13 14  1  0
 14 15  1  0
 11 16  1  0
 15 16  1  0
  4 17  1  0
  8 17  2  0
  2 18  1  0
 18 19  1  1
 18 20  1  0
M  END
