JOO-IND-b13e14cc-3
     RDKit          3D

 20 22  0  0  0  0  0  0  0  0999 V2000
    5.3770   -0.4350   18.4780 C   0  0  0  0  0  0  0  0  0  0  0  0
    5.5430   -1.9040   18.7650 C   0  0  0  0  0  0  0  0  0  0  0  0
    6.0860   -2.3140   20.0950 C   0  0  0  0  0  0  0  0  0  0  0  0
    5.7590   -3.7380   20.4490 C   0  0  0  0  0  0  0  0  0  0  0  0
    5.2500   -4.5190   19.6510 O   0  0  0  0  0  0  0  0  0  0  0  0
    6.1080   -4.0940   21.7110 N   0  0  0  0  0  0  0  0  0  0  0  0
    5.6570   -5.3480   22.3050 C   0  0  0  0  0  0  0  0  0  0  0  0
    6.8900   -6.1780   22.6560 C   0  0  0  0  0  0  0  0  0  0  0  0
    7.6410   -5.3530   23.7010 C   0  0  0  0  0  0  0  0  0  0  0  0
    8.2050   -4.2250   22.8910 C   0  0  2  0  0  0  0  0  0  0  0  0
    9.3190   -3.5310   23.3020 C   0  0  0  0  0  0  0  0  0  0  0  0
    9.7180   -2.2620   23.0390 N   0  0  0  0  0  0  0  0  0  0  0  0
   10.9070   -2.0760   23.6020 C   0  0  0  0  0  0  0  0  0  0  0  0
   11.6460   -0.9140   23.5350 C   0  0  0  0  0  0  0  0  0  0  0  0
   12.9800   -0.8790   24.2120 C   0  0  0  0  0  0  0  0  0  0  0  0
   13.4790   -1.9950   24.9090 C   0  0  0  0  0  0  0  0  0  0  0  0
   12.7940   -3.1480   25.0040 C   0  0  0  0  0  0  0  0  0  0  0  0
   11.4610   -3.2350   24.3470 C   0  0  0  0  0  0  0  0  0  0  0  0
   10.3040   -4.4990   24.2520 S   0  0  0  0  0  0  0  0  0  0  0  0
    7.1160   -3.3230   22.4390 C   0  0  0  0  0  0  0  0  0  0  0  0
  1  2  1  0
  2  3  3  0
  3  4  1  0
  4  5  2  0
  4  6  1  0
  6  7  1  0
  7  8  1  0
  8  9  1  0
  9 10  1  0
 10 11  1  1
 11 12  2  0
 12 13  1  0
 13 14  2  0
 14 15  1  0
 15 16  2  0
 16 17  1  0
 13 18  1  0
 17 18  2  0
 11 19  1  0
 18 19  1  0
  6 20  1  0
 10 20  1  0
M  END
