JOO-IND-6372a4f3-5
     RDKit          3D

 22 24  0  0  0  0  0  0  0  0999 V2000
    6.3990   -6.4650   22.5140 C   0  0  0  0  0  0  0  0  0  0  0  0
    6.8390   -5.3400   21.6700 C   0  0  0  0  0  0  0  0  0  0  0  0
    5.9370   -4.7390   20.7930 C   0  0  0  0  0  0  0  0  0  0  0  0
    6.0440   -3.3890   20.4670 C   0  0  0  0  0  0  0  0  0  0  0  0
    5.5540   -3.0810   19.3860 O   0  0  0  0  0  0  0  0  0  0  0  0
    6.6310   -2.4960   21.2800 N   0  0  0  0  0  0  0  0  0  0  0  0
    7.7150   -1.8200   20.8160 C   0  0  0  0  0  0  0  0  0  0  0  0
    8.7470   -1.3100   21.7910 C   0  0  0  0  0  0  0  0  0  0  0  0
    8.8970   -2.2900   22.9000 N   0  0  0  0  0  0  0  0  0  0  0  0
    9.9090   -2.2800   23.8330 C   0  0  0  0  0  0  0  0  0  0  0  0
   10.9800   -1.2770   23.5310 C   0  0  0  0  0  0  0  0  0  0  0  0
   12.3030   -1.6250   22.9820 C   0  0  0  0  0  0  0  0  0  0  0  0
   13.1730   -0.6610   22.7220 C   0  0  0  0  0  0  0  0  0  0  0  0
   12.8780    0.6730   22.9550 C   0  0  0  0  0  0  0  0  0  0  0  0
   11.6410    1.0260   23.4730 C   0  0  0  0  0  0  0  0  0  0  0  0
   11.3200    2.3500   23.6950 C   0  0  0  0  0  0  0  0  0  0  0  0
   10.0720    2.6960   24.2140 C   0  0  0  0  0  0  0  0  0  0  0  0
    9.1430    1.7320   24.5290 C   0  0  0  0  0  0  0  0  0  0  0  0
    9.4680    0.4140   24.2980 C   0  0  0  0  0  0  0  0  0  0  0  0
   10.6960    0.0490   23.7690 C   0  0  0  0  0  0  0  0  0  0  0  0
    7.8140   -3.2600   23.0990 C   0  0  0  0  0  0  0  0  0  0  0  0
    6.5820   -2.7470   22.6530 C   0  0  0  0  0  0  0  0  0  0  0  0
  1  2  1  0
  2  3  3  0
  3  4  1  0
  4  5  2  0
  4  6  1  0
  6  7  1  0
  7  8  1  0
  8  9  1  0
  9 10  1  0
 10 11  1  0
 11 12  2  0
 12 13  1  0
 13 14  2  0
 14 15  1  0
 15 16  1  0
 16 17  2  0
 17 18  1  0
 18 19  2  0
 11 20  1  0
 15 20  2  0
 19 20  1  0
  9 21  1  0
  6 22  1  0
 21 22  1  0
M  END
