JOO-IND-9269dfbd-1
     RDKit          3D

 28 30  0  0  0  0  0  0  0  0999 V2000
    5.4440   -2.6970   19.1240 O   0  0  0  0  0  0  0  0  0  0  0  0
    6.4230   -2.2270   19.6800 C   0  0  0  0  0  0  0  0  0  0  0  0
    7.0370   -0.8350   19.3970 C   0  0  0  0  0  0  0  0  0  0  0  0
    6.1320    0.2330   19.4740 C   0  0  0  0  0  0  0  0  0  0  0  0
    6.4660    1.3050   20.3070 C   0  0  2  0  0  0  0  0  0  0  0  0
    7.1100    0.9620   21.4770 C   0  0  0  0  0  0  0  0  0  0  0  0
    6.6190    1.7890   22.6600 C   0  0  0  0  0  0  0  0  0  0  0  0
    5.5480    2.3880   22.0630 N   0  0  0  0  0  0  0  0  0  0  0  0
    5.2620    1.7610   20.8660 C   0  0  0  0  0  0  0  0  0  0  0  0
    4.1440    1.6320   20.3960 O   0  0  0  0  0  0  0  0  0  0  0  0
    7.1290   -3.0650   20.7340 C   0  0  0  0  0  0  0  0  0  0  0  0
    8.1330   -2.6590   21.2880 O   0  0  0  0  0  0  0  0  0  0  0  0
    6.4920   -4.2380   20.9740 N   0  0  0  0  0  0  0  0  0  0  0  0
    6.8510   -4.9560   22.1520 C   0  0  0  0  0  0  0  0  0  0  0  0
    5.9220   -4.8190   23.1510 C   0  0  0  0  0  0  0  0  0  0  0  0
    5.9060   -3.6470   23.9400 C   0  0  0  0  0  0  0  0  0  0  0  0
    4.9690   -3.4760   24.9790 C   0  0  0  0  0  0  0  0  0  0  0  0
    3.9470   -4.5450   25.2870 C   0  0  0  0  0  0  0  0  0  0  0  0
    4.0380   -5.7700   24.3850 C   0  0  0  0  0  0  0  0  0  0  0  0
    3.2180   -6.9170   24.4520 C   0  0  0  0  0  0  0  0  0  0  0  0
    3.7030   -8.0130   24.6580 O   0  0  0  0  0  0  0  0  0  0  0  0
    1.8710   -6.6700   24.2830 N   0  0  0  0  0  0  0  0  0  0  0  0
    1.5590   -5.5010   23.6570 C   0  0  0  0  0  0  0  0  0  0  0  0
    0.2690   -4.9760   24.3420 C   0  0  0  0  0  0  0  0  0  0  0  0
   -1.0880   -6.1070   24.3580 S   0  0  0  0  0  0  0  0  0  0  0  0
   -0.1780   -7.6080   24.8580 C   0  0  0  0  0  0  0  0  0  0  0  0
    1.0260   -7.7260   24.1560 C   0  0  0  0  0  0  0  0  0  0  0  0
    5.0120   -5.8690   23.3550 C   0  0  0  0  0  0  0  0  0  0  0  0
  1  2  2  0
  2  3  1  0
  3  4  1  0
  5  4  1  6
  5  6  1  0
  6  7  1  0
  7  8  1  0
  5  9  1  0
  8  9  1  0
  9 10  2  0
  2 11  1  0
 11 12  2  0
 11 13  1  0
 13 14  1  0
 14 15  1  0
 15 16  2  0
 16 17  1  0
 17 18  2  0
 18 19  1  0
 19 20  1  0
 20 21  2  0
 20 22  1  0
 22 23  1  0
 23 24  1  0
 24 25  1  0
 25 26  1  0
 22 27  1  0
 26 27  1  0
 15 28  1  0
 19 28  2  0
M  END
