JOO-IND-6372a4f3-6
     RDKit          3D

 22 24  0  0  0  0  0  0  0  0999 V2000
    5.4370   -3.5770   19.4420 O   0  0  0  0  0  0  0  0  0  0  0  0
    6.0190   -3.5730   20.5230 C   0  0  0  0  0  0  0  0  0  0  0  0
    6.2670   -4.9380   21.1270 C   0  0  2  0  0  0  0  0  0  0  0  0
    5.6870   -5.9020   20.3640 F   0  0  0  0  0  0  0  0  0  0  0  0
    5.5850   -5.1570   22.7590 Cl  0  0  0  0  0  0  0  0  0  0  0  0
    6.4780   -2.4710   21.2320 N   0  0  0  0  0  0  0  0  0  0  0  0
    7.6150   -1.7380   20.7620 C   0  0  0  0  0  0  0  0  0  0  0  0
    8.6620   -1.4440   21.6590 C   0  0  0  0  0  0  0  0  0  0  0  0
    8.9470   -2.3350   22.6520 N   0  0  0  0  0  0  0  0  0  0  0  0
    9.7220   -1.9530   23.6690 C   0  0  0  0  0  0  0  0  0  0  0  0
   10.8080   -1.1350   23.3900 C   0  0  0  0  0  0  0  0  0  0  0  0
   11.9660   -1.7850   23.1270 C   0  0  0  0  0  0  0  0  0  0  0  0
   13.2130   -1.1000   22.7970 C   0  0  0  0  0  0  0  0  0  0  0  0
   13.1370    0.3870   22.7910 C   0  0  0  0  0  0  0  0  0  0  0  0
   11.9270    1.2060   23.0860 C   0  0  0  0  0  0  0  0  0  0  0  0
   11.4450    2.6010   23.2010 C   0  0  0  0  0  0  0  0  0  0  0  0
   10.1900    3.1110   23.5250 C   0  0  0  0  0  0  0  0  0  0  0  0
    9.0390    2.2060   23.8150 C   0  0  0  0  0  0  0  0  0  0  0  0
    9.3510    0.7550   23.7250 C   0  0  0  0  0  0  0  0  0  0  0  0
   10.7660    0.2780   23.3770 C   0  0  0  0  0  0  0  0  0  0  0  0
    7.7780   -3.0880   23.1150 C   0  0  0  0  0  0  0  0  0  0  0  0
    6.4430   -2.5610   22.6120 C   0  0  0  0  0  0  0  0  0  0  0  0
  1  2  2  0
  2  3  1  0
  3  4  1  6
  3  5  1  0
  2  6  1  0
  6  7  1  0
  7  8  1  0
  8  9  1  0
  9 10  1  0
 10 11  1  0
 11 12  2  0
 12 13  1  0
 13 14  2  0
 14 15  1  0
 15 16  1  0
 16 17  2  0
 17 18  1  0
 18 19  2  0
 11 20  1  0
 15 20  2  0
 19 20  1  0
  9 21  1  0
  6 22  1  0
 21 22  1  0
M  END
