JOR-UNI-2fc98d0b-3
     RDKit          3D

 25 27  0  0  0  0  0  0  0  0999 V2000
    8.7650    1.1150   21.2780 O   0  0  0  0  0  0  0  0  0  0  0  0
    8.1850    0.0770   21.6560 C   0  0  0  0  0  0  0  0  0  0  0  0
    7.0700   -0.4710   21.0780 N   0  0  0  0  0  0  0  0  0  0  0  0
    6.4170    0.1310   20.0060 C   0  0  0  0  0  0  0  0  0  0  0  0
    5.2150    0.8900   20.2950 C   0  0  0  0  0  0  0  0  0  0  0  0
    4.5770    1.5070   19.2300 C   0  0  0  0  0  0  0  0  0  0  0  0
    5.1380    1.3480   17.9770 C   0  0  0  0  0  0  0  0  0  0  0  0
    6.2560    0.6380   17.6450 N   0  0  0  0  0  0  0  0  0  0  0  0
    6.8800    0.0340   18.6960 C   0  0  0  0  0  0  0  0  0  0  0  0
    8.5780   -0.7140   22.7230 N   0  0  0  0  0  0  0  0  0  0  0  0
    8.0510   -1.9890   23.0220 C   0  0  0  0  0  0  0  0  0  0  0  0
    7.1230   -1.9510   24.0260 N   0  0  0  0  0  0  0  0  0  0  0  0
    6.6300   -3.1760   24.4100 C   0  0  0  0  0  0  0  0  0  0  0  0
    5.8060   -3.2600   25.7010 C   0  0  0  0  0  0  0  0  0  0  0  0
    5.2210   -1.9270   25.6580 C   0  0  0  0  0  0  0  0  0  0  0  0
    5.4020   -1.5410   26.8100 O   0  0  0  0  0  0  0  0  0  0  0  0
    5.2480   -0.7250   24.8940 C   0  0  0  0  0  0  0  0  0  0  0  0
    6.0660   -0.9200   23.7540 C   0  0  0  0  0  0  0  0  0  0  0  0
    9.9980   -0.5520   22.8830 C   0  0  0  0  0  0  0  0  0  0  0  0
   10.3900    0.5310   23.8820 C   0  0  0  0  0  0  0  0  0  0  0  0
   11.8940    0.6640   23.9670 C   0  0  0  0  0  0  0  0  0  0  0  0
   12.8240   -0.1890   23.1510 C   0  0  0  0  0  0  0  0  0  0  0  0
   12.2670   -1.2240   22.2090 C   0  0  0  0  0  0  0  0  0  0  0  0
   13.1890   -2.2380   21.2290 Cl  0  0  0  0  0  0  0  0  0  0  0  0
   10.8780   -1.3220   22.1520 C   0  0  0  0  0  0  0  0  0  0  0  0
  1  2  2  0
  2  3  1  0
  3  4  1  0
  4  5  2  0
  5  6  1  0
  6  7  2  0
  7  8  1  0
  4  9  1  0
  8  9  2  0
  2 10  1  0
 10 11  1  0
 11 12  1  0
 12 13  1  0
 13 14  1  0
 14 15  1  0
 15 16  1  0
 15 17  1  0
 12 18  1  0
 17 18  1  0
 10 19  1  0
 19 20  2  0
 20 21  1  0
 21 22  2  0
 22 23  1  0
 23 24  1  0
 19 25  1  0
 23 25  2  0
M  END
