JOR-UNI-2fc98d0b-1
     RDKit          3D

 24 26  0  0  0  0  0  0  0  0999 V2000
    8.6880    1.2270   21.1820 O   0  0  0  0  0  0  0  0  0  0  0  0
    8.0700    0.0400   21.7150 C   0  0  0  0  0  0  0  0  0  0  0  0
    6.9650   -0.5600   21.1730 N   0  0  0  0  0  0  0  0  0  0  0  0
    6.3770    0.0750   20.0340 C   0  0  0  0  0  0  0  0  0  0  0  0
    5.2040    0.8110   20.2780 C   0  0  0  0  0  0  0  0  0  0  0  0
    4.6420    1.4370   19.1870 C   0  0  0  0  0  0  0  0  0  0  0  0
    5.1980    1.3430   17.9440 C   0  0  0  0  0  0  0  0  0  0  0  0
    6.3090    0.6430   17.6820 N   0  0  0  0  0  0  0  0  0  0  0  0
    6.8830    0.0160   18.7350 C   0  0  0  0  0  0  0  0  0  0  0  0
    8.5840   -0.6240   22.8560 N   0  0  0  0  0  0  0  0  0  0  0  0
    7.8520   -0.6450   24.1310 C   0  0  0  0  0  0  0  0  0  0  0  0
    7.4330   -2.0290   24.4500 N   0  0  0  0  0  0  0  0  0  0  0  0
    6.4880   -2.0300   25.6010 C   0  0  0  0  0  0  0  0  0  0  0  0
    7.1060   -2.5360   26.8110 C   0  0  0  0  0  0  0  0  0  0  0  0
    7.4980   -3.9070   26.6500 O   0  0  0  0  0  0  0  0  0  0  0  0
    8.2750   -4.1300   25.4680 C   0  0  0  0  0  0  0  0  0  0  0  0
    8.6070   -2.8790   24.7560 C   0  0  0  0  0  0  0  0  0  0  0  0
   10.0430   -0.5730   22.8750 C   0  0  0  0  0  0  0  0  0  0  0  0
   10.6530    0.5170   23.7200 C   0  0  0  0  0  0  0  0  0  0  0  0
   12.0020    0.7180   23.8220 C   0  0  0  0  0  0  0  0  0  0  0  0
   12.9550   -0.1820   23.0630 C   0  0  0  0  0  0  0  0  0  0  0  0
   12.2330   -1.2640   22.2380 C   0  0  0  0  0  0  0  0  0  0  0  0
   13.1000   -2.3870   21.3050 Cl  0  0  0  0  0  0  0  0  0  0  0  0
   10.8630   -1.4110   22.1800 C   0  0  0  0  0  0  0  0  0  0  0  0
  1  2  2  0
  2  3  1  0
  3  4  1  0
  4  5  2  0
  5  6  1  0
  6  7  2  0
  7  8  1  0
  4  9  1  0
  8  9  2  0
  2 10  1  0
 10 11  1  0
 11 12  1  0
 12 13  1  0
 13 14  1  0
 14 15  1  0
 15 16  1  0
 12 17  1  0
 16 17  1  0
 10 18  1  0
 18 19  2  0
 19 20  1  0
 20 21  2  0
 21 22  1  0
 22 23  1  0
 18 24  1  0
 22 24  2  0
M  END
