JOR-UNI-2fc98d0b-17
     RDKit          3D

 25 27  0  0  0  0  0  0  0  0999 V2000
    8.5190    0.8620   21.2230 O   0  0  0  0  0  0  0  0  0  0  0  0
    8.0720   -0.1750   21.7180 C   0  0  0  0  0  0  0  0  0  0  0  0
    6.9810   -0.8570   21.1810 N   0  0  0  0  0  0  0  0  0  0  0  0
    6.3720   -0.0950   20.0720 C   0  0  0  0  0  0  0  0  0  0  0  0
    5.2000    0.6370   20.3140 C   0  0  0  0  0  0  0  0  0  0  0  0
    4.6080    1.3750   19.2760 C   0  0  0  0  0  0  0  0  0  0  0  0
    5.1860    1.3810   18.0020 C   0  0  0  0  0  0  0  0  0  0  0  0
    6.4010    0.6180   17.7560 N   0  0  0  0  0  0  0  0  0  0  0  0
    6.9630   -0.1090   18.8100 C   0  0  0  0  0  0  0  0  0  0  0  0
    8.6590   -0.7440   22.8850 N   0  0  0  0  0  0  0  0  0  0  0  0
    8.0850   -1.7610   23.6410 C   0  0  0  0  0  0  0  0  0  0  0  0
    7.2630   -1.3250   24.8410 C   0  0  0  0  0  0  0  0  0  0  0  0
    6.7680   -2.2170   25.7230 N   0  0  0  0  0  0  0  0  0  0  0  0
    5.7420   -2.9750   25.2260 C   0  0  0  0  0  0  0  0  0  0  0  0
    5.4120   -3.9970   26.0350 C   0  0  0  0  0  0  0  0  0  0  0  0
    5.6560   -3.8660   27.4080 C   0  0  0  0  0  0  0  0  0  0  0  0
    6.0560   -2.6220   27.9220 C   0  0  0  0  0  0  0  0  0  0  0  0
    6.4110   -1.6190   27.0160 C   0  0  0  0  0  0  0  0  0  0  0  0
   10.0030   -0.5240   23.0290 C   0  0  0  0  0  0  0  0  0  0  0  0
   10.5420    0.4380   23.8760 C   0  0  0  0  0  0  0  0  0  0  0  0
   11.9240    0.6250   23.9540 C   0  0  0  0  0  0  0  0  0  0  0  0
   12.7440   -0.1640   23.1790 C   0  0  0  0  0  0  0  0  0  0  0  0
   12.1910   -1.2000   22.2720 C   0  0  0  0  0  0  0  0  0  0  0  0
   13.1450   -2.1920   21.2880 Cl  0  0  0  0  0  0  0  0  0  0  0  0
   10.8160   -1.3440   22.2310 C   0  0  0  0  0  0  0  0  0  0  0  0
  1  2  2  0
  2  3  1  0
  3  4  1  0
  4  5  2  0
  5  6  1  0
  6  7  2  0
  7  8  1  0
  4  9  1  0
  8  9  2  0
  2 10  1  0
 10 11  1  0
 11 12  1  0
 12 13  1  0
 13 14  1  0
 14 15  1  0
 15 16  1  0
 16 17  1  0
 13 18  1  0
 17 18  1  0
 10 19  1  0
 19 20  2  0
 20 21  1  0
 21 22  2  0
 22 23  1  0
 23 24  1  0
 19 25  1  0
 23 25  2  0
M  END
