JOR-UNI-2fc98d0b-11
     RDKit          3D

 26 28  0  0  0  0  0  0  0  0999 V2000
    3.0240   -1.1940   25.7190 C   0  0  0  0  0  0  0  0  0  0  0  0
    4.3390   -1.5820   25.7360 N   0  0  0  0  0  0  0  0  0  0  0  0
    5.2890   -1.0620   26.6970 C   0  0  0  0  0  0  0  0  0  0  0  0
    6.6190   -1.2950   26.3170 C   0  0  0  0  0  0  0  0  0  0  0  0
    6.7110   -1.9800   25.0230 N   0  0  0  0  0  0  0  0  0  0  0  0
    7.8840   -2.1540   24.2840 C   0  0  0  0  0  0  0  0  0  0  0  0
    7.9230   -1.8210   22.9420 C   0  0  0  0  0  0  0  0  0  0  0  0
    8.5670   -0.6160   22.7730 N   0  0  0  0  0  0  0  0  0  0  0  0
    8.1000    0.0570   21.6740 C   0  0  0  0  0  0  0  0  0  0  0  0
    8.7780    1.2590   21.2040 O   0  0  0  0  0  0  0  0  0  0  0  0
    6.9920   -0.4680   21.0700 N   0  0  0  0  0  0  0  0  0  0  0  0
    6.3780    0.1370   19.9890 C   0  0  0  0  0  0  0  0  0  0  0  0
    5.2400    0.8360   20.1820 C   0  0  0  0  0  0  0  0  0  0  0  0
    4.6050    1.4920   19.0670 C   0  0  0  0  0  0  0  0  0  0  0  0
    5.1540    1.3950   17.8640 C   0  0  0  0  0  0  0  0  0  0  0  0
    6.2850    0.6910   17.6610 N   0  0  0  0  0  0  0  0  0  0  0  0
    6.8660    0.0820   18.7120 C   0  0  0  0  0  0  0  0  0  0  0  0
   10.0210   -0.5890   22.8680 C   0  0  0  0  0  0  0  0  0  0  0  0
   10.6120    0.4340   23.8030 C   0  0  0  0  0  0  0  0  0  0  0  0
   11.9610    0.5970   23.9650 C   0  0  0  0  0  0  0  0  0  0  0  0
   12.9220   -0.2740   23.1870 C   0  0  0  0  0  0  0  0  0  0  0  0
   12.2320   -1.2830   22.2710 C   0  0  0  0  0  0  0  0  0  0  0  0
   13.1300   -2.3490   21.3050 Cl  0  0  0  0  0  0  0  0  0  0  0  0
   10.8650   -1.3930   22.1590 C   0  0  0  0  0  0  0  0  0  0  0  0
    5.9030   -3.2190   25.1090 C   0  0  0  0  0  0  0  0  0  0  0  0
    4.5370   -2.9110   25.1580 C   0  0  0  0  0  0  0  0  0  0  0  0
  1  2  1  0
  2  3  1  0
  3  4  1  0
  4  5  1  0
  5  6  1  0
  6  7  1  0
  7  8  1  0
  8  9  1  0
  9 10  2  0
  9 11  1  0
 11 12  1  0
 12 13  2  0
 13 14  1  0
 14 15  2  0
 15 16  1  0
 12 17  1  0
 16 17  2  0
  8 18  1  0
 18 19  2  0
 19 20  1  0
 20 21  2  0
 21 22  1  0
 22 23  1  0
 18 24  1  0
 22 24  2  0
  5 25  1  0
  2 26  1  0
 25 26  1  0
M  END
