JOR-UNI-2fc98d0b-16
     RDKit          3D

 24 26  0  0  0  0  0  0  0  0999 V2000
    8.6480    0.7860   21.6680 O   0  0  0  0  0  0  0  0  0  0  0  0
    8.1710   -0.2970   22.0250 C   0  0  0  0  0  0  0  0  0  0  0  0
    7.0140   -0.7860   21.3900 N   0  0  0  0  0  0  0  0  0  0  0  0
    6.3860   -0.1460   20.3110 C   0  0  0  0  0  0  0  0  0  0  0  0
    5.2410    0.5250   20.5400 C   0  0  0  0  0  0  0  0  0  0  0  0
    4.5690    1.2290   19.4140 C   0  0  0  0  0  0  0  0  0  0  0  0
    5.2440    1.1360   18.0590 C   0  0  0  0  0  0  0  0  0  0  0  0
    6.4140    0.4250   17.8970 N   0  0  0  0  0  0  0  0  0  0  0  0
    6.9440   -0.1890   19.0010 C   0  0  0  0  0  0  0  0  0  0  0  0
    8.8790   -1.0260   23.0540 N   0  0  0  0  0  0  0  0  0  0  0  0
    8.3670   -1.8540   24.1660 C   0  0  0  0  0  0  0  0  0  0  0  0
    8.9740   -3.1950   24.1540 N   0  0  0  0  0  0  0  0  0  0  0  0
    9.7760   -3.5920   25.3610 C   0  0  0  0  0  0  0  0  0  0  0  0
    9.1200   -4.5150   26.1810 C   0  0  0  0  0  0  0  0  0  0  0  0
    7.8390   -4.9050   25.8580 C   0  0  0  0  0  0  0  0  0  0  0  0
    7.5830   -5.1880   24.5240 C   0  0  0  0  0  0  0  0  0  0  0  0
    8.0050   -4.0550   23.6210 C   0  0  0  0  0  0  0  0  0  0  0  0
   10.2850   -0.7720   23.0950 C   0  0  0  0  0  0  0  0  0  0  0  0
   10.7030    0.1990   24.0170 C   0  0  0  0  0  0  0  0  0  0  0  0
   12.0340    0.4170   23.9790 C   0  0  0  0  0  0  0  0  0  0  0  0
   12.9620   -0.3200   23.0430 C   0  0  0  0  0  0  0  0  0  0  0  0
   12.4540   -1.2850   22.1610 C   0  0  0  0  0  0  0  0  0  0  0  0
   13.2950   -2.2060   21.0490 Cl  0  0  0  0  0  0  0  0  0  0  0  0
   11.1160   -1.4550   22.2420 C   0  0  0  0  0  0  0  0  0  0  0  0
  1  2  2  0
  2  3  1  0
  3  4  1  0
  4  5  2  0
  5  6  1  0
  6  7  2  0
  7  8  1  0
  4  9  1  0
  8  9  2  0
  2 10  1  0
 10 11  1  0
 11 12  1  0
 12 13  1  0
 13 14  1  0
 14 15  1  0
 15 16  1  0
 12 17  1  0
 16 17  1  0
 10 18  1  0
 18 19  2  0
 19 20  1  0
 20 21  2  0
 21 22  1  0
 22 23  1  0
 18 24  1  0
 22 24  2  0
M  END
