JOR-UNI-2fc98d0b-10
     RDKit          3D

 25 27  0  0  0  0  0  0  0  0999 V2000
    8.7870    1.2390   21.1780 O   0  0  0  0  0  0  0  0  0  0  0  0
    8.2850    0.1690   21.5570 C   0  0  0  0  0  0  0  0  0  0  0  0
    7.1700   -0.4290   21.0150 N   0  0  0  0  0  0  0  0  0  0  0  0
    6.4060    0.1930   20.0370 C   0  0  0  0  0  0  0  0  0  0  0  0
    5.2440    0.9010   20.2760 C   0  0  0  0  0  0  0  0  0  0  0  0
    4.5980    1.4930   19.2060 C   0  0  0  0  0  0  0  0  0  0  0  0
    5.1190    1.3690   17.9240 C   0  0  0  0  0  0  0  0  0  0  0  0
    6.2630    0.6640   17.6370 N   0  0  0  0  0  0  0  0  0  0  0  0
    6.8750    0.0900   18.7350 C   0  0  0  0  0  0  0  0  0  0  0  0
    8.7880   -0.5900   22.5750 N   0  0  0  0  0  0  0  0  0  0  0  0
    7.9360   -1.3890   23.3240 C   0  0  0  0  0  0  0  0  0  0  0  0
    7.7640   -2.5930   22.6620 C   0  0  0  0  0  0  0  0  0  0  0  0
    6.8410   -3.3660   23.2490 N   0  0  0  0  0  0  0  0  0  0  0  0
    7.0980   -4.6850   23.2790 C   0  0  0  0  0  0  0  0  0  0  0  0
    6.2070   -5.5040   23.9740 C   0  0  0  0  0  0  0  0  0  0  0  0
    5.0450   -4.9090   24.3070 N   0  0  0  0  0  0  0  0  0  0  0  0
    4.5650   -4.0650   23.1970 C   0  0  0  0  0  0  0  0  0  0  0  0
    5.5880   -2.9630   22.9540 C   0  0  0  0  0  0  0  0  0  0  0  0
   10.0570   -0.4450   22.9500 C   0  0  0  0  0  0  0  0  0  0  0  0
   10.5510    0.7820   23.3660 C   0  0  0  0  0  0  0  0  0  0  0  0
   11.8740    0.9270   23.7360 C   0  0  0  0  0  0  0  0  0  0  0  0
   12.7400   -0.1530   23.7100 C   0  0  0  0  0  0  0  0  0  0  0  0
   12.3910   -1.4200   23.3320 C   0  0  0  0  0  0  0  0  0  0  0  0
   13.5110   -2.6840   23.3490 Cl  0  0  0  0  0  0  0  0  0  0  0  0
   10.9700   -1.6530   22.9050 C   0  0  0  0  0  0  0  0  0  0  0  0
  1  2  2  0
  2  3  1  0
  3  4  1  0
  4  5  2  0
  5  6  1  0
  6  7  2  0
  7  8  1  0
  4  9  1  0
  8  9  2  0
  2 10  1  0
 10 11  1  0
 11 12  1  0
 12 13  1  0
 13 14  1  0
 14 15  1  0
 15 16  1  0
 16 17  1  0
 13 18  1  0
 17 18  1  0
 10 19  1  0
 19 20  2  0
 20 21  1  0
 21 22  2  0
 22 23  1  0
 23 24  1  0
 19 25  1  0
 23 25  2  0
M  END
