JOR-UNI-2fc98d0b-6
     RDKit          3D

 25 27  0  0  0  0  0  0  0  0999 V2000
    8.6520    1.3180   21.1170 O   0  0  0  0  0  0  0  0  0  0  0  0
    8.0770    0.1340   21.6870 C   0  0  0  0  0  0  0  0  0  0  0  0
    6.9890   -0.5170   21.1720 N   0  0  0  0  0  0  0  0  0  0  0  0
    6.3850    0.1000   20.0300 C   0  0  0  0  0  0  0  0  0  0  0  0
    5.2120    0.8320   20.2800 C   0  0  0  0  0  0  0  0  0  0  0  0
    4.6390    1.4420   19.1870 C   0  0  0  0  0  0  0  0  0  0  0  0
    5.1850    1.3350   17.9400 C   0  0  0  0  0  0  0  0  0  0  0  0
    6.2960    0.6390   17.6720 N   0  0  0  0  0  0  0  0  0  0  0  0
    6.8830    0.0270   18.7280 C   0  0  0  0  0  0  0  0  0  0  0  0
    8.6320   -0.4600   22.8380 N   0  0  0  0  0  0  0  0  0  0  0  0
    7.8630   -1.3060   23.7550 C   0  0  0  0  0  0  0  0  0  0  0  0
    8.1460   -2.6240   23.6110 C   0  0  0  0  0  0  0  0  0  0  0  0
    7.4770   -3.4620   24.4380 N   0  0  0  0  0  0  0  0  0  0  0  0
    6.8940   -4.5050   23.8140 C   0  0  0  0  0  0  0  0  0  0  0  0
    6.0580   -5.2260   24.5540 C   0  0  0  0  0  0  0  0  0  0  0  0
    6.4400   -5.4800   25.6930 O   0  0  0  0  0  0  0  0  0  0  0  0
    7.8270   -5.1660   25.9160 C   0  0  0  0  0  0  0  0  0  0  0  0
    8.2250   -3.8760   25.5380 C   0  0  0  0  0  0  0  0  0  0  0  0
   10.0560   -0.4440   22.9150 C   0  0  0  0  0  0  0  0  0  0  0  0
   10.6450    0.5020   23.7230 C   0  0  0  0  0  0  0  0  0  0  0  0
   12.1390    0.6190   23.8420 C   0  0  0  0  0  0  0  0  0  0  0  0
   12.9250   -0.3760   23.0130 C   0  0  0  0  0  0  0  0  0  0  0  0
   12.2690   -1.3090   22.2220 C   0  0  0  0  0  0  0  0  0  0  0  0
   13.1160   -2.4340   21.2800 Cl  0  0  0  0  0  0  0  0  0  0  0  0
   10.9080   -1.4100   22.1210 C   0  0  0  0  0  0  0  0  0  0  0  0
  1  2  2  0
  2  3  1  0
  3  4  1  0
  4  5  2  0
  5  6  1  0
  6  7  2  0
  7  8  1  0
  4  9  1  0
  8  9  2  0
  2 10  1  0
 10 11  1  0
 11 12  1  0
 12 13  1  0
 13 14  1  0
 14 15  1  0
 15 16  1  0
 16 17  1  0
 13 18  1  0
 17 18  1  0
 10 19  1  0
 19 20  2  0
 20 21  1  0
 21 22  2  0
 22 23  1  0
 23 24  1  0
 19 25  1  0
 23 25  2  0
M  END
