JOR-WAB-5f511e4e-2
     RDKit          3D

 20 21  0  0  0  0  0  0  0  0999 V2000
    8.5390   -0.7810   27.3890 C   0  0  0  0  0  0  0  0  0  0  0  0
    9.1660    0.3970   27.2870 C   0  0  0  0  0  0  0  0  0  0  0  0
    9.1130    0.8910   25.8920 N   0  0  0  0  0  0  0  0  0  0  0  0
    9.1280   -0.1860   24.9260 C   0  0  1  0  0  0  0  0  0  0  0  0
    8.0290    0.0380   24.1520 N   0  0  0  0  0  0  0  0  0  0  0  0
    7.4780    1.2640   23.8690 C   0  0  0  0  0  0  0  0  0  0  0  0
    8.1040    2.3220   23.8470 O   0  0  0  0  0  0  0  0  0  0  0  0
    6.1250    1.1570   23.5700 N   0  0  0  0  0  0  0  0  0  0  0  0
    5.3770    0.4470   24.5090 C   0  0  0  0  0  0  0  0  0  0  0  0
    4.9310   -0.9630   24.2200 C   0  0  0  0  0  0  0  0  0  0  0  0
    5.2460   -1.5680   23.0190 O   0  0  0  0  0  0  0  0  0  0  0  0
    5.2990   -0.6380   22.0010 C   0  0  0  0  0  0  0  0  0  0  0  0
    5.7460    0.7880   22.2800 C   0  0  0  0  0  0  0  0  0  0  0  0
   10.3220   -0.4120   24.0020 C   0  0  0  0  0  0  0  0  0  0  0  0
   11.5220    0.3490   23.9800 C   0  0  0  0  0  0  0  0  0  0  0  0
   12.6590   -0.0070   23.0170 C   0  0  0  0  0  0  0  0  0  0  0  0
   12.5150   -1.0710   22.1640 C   0  0  0  0  0  0  0  0  0  0  0  0
   13.4870   -1.4620   21.2740 N   0  0  0  0  0  0  0  0  0  0  0  0
   11.2020   -1.8400   22.2190 C   0  0  0  0  0  0  0  0  0  0  0  0
   10.1880   -1.4920   23.1050 C   0  0  0  0  0  0  0  0  0  0  0  0
  1  2  1  0
  2  3  1  0
  4  3  1  1
  4  5  1  0
  5  6  1  0
  6  7  2  0
  6  8  1  0
  8  9  1  0
  9 10  2  0
 10 11  1  0
 11 12  1  0
  8 13  1  0
 12 13  2  0
  4 14  1  0
 14 15  2  0
 15 16  1  0
 16 17  2  0
 17 18  1  0
 17 19  1  0
 14 20  1  0
 19 20  2  0
M  END
