JUA-UNI-b93289a4-2
     RDKit          3D

 20 20  0  0  0  0  0  0  0  0999 V2000
    7.5170    2.7990   21.6590 C   0  0  0  0  0  0  0  0  0  0  0  0
    8.5860    3.5840   22.3620 C   0  0  0  0  0  0  0  0  0  0  0  0
    8.7990    3.2750   23.8190 C   0  0  0  0  0  0  0  0  0  0  0  0
    8.1340    3.7620   24.7270 O   0  0  0  0  0  0  0  0  0  0  0  0
    9.8310    2.3870   24.0130 N   0  0  0  0  0  0  0  0  0  0  0  0
    9.5700    0.9910   24.2770 C   0  0  0  0  0  0  0  0  0  0  0  0
   10.5100    0.2380   23.5780 C   0  0  0  0  0  0  0  0  0  0  0  0
   11.9500    0.6820   23.5610 C   0  0  0  0  0  0  0  0  0  0  0  0
   13.0060   -0.0970   22.8140 C   0  0  0  0  0  0  0  0  0  0  0  0
   12.5310   -1.3300   22.1020 C   0  0  0  0  0  0  0  0  0  0  0  0
   11.1740   -1.7170   22.1380 C   0  0  0  0  0  0  0  0  0  0  0  0
   10.1660   -1.0010   22.8300 C   0  0  0  0  0  0  0  0  0  0  0  0
    8.4920   -1.6150   22.7730 S   0  0  0  0  0  0  0  0  0  0  0  0
    8.4370   -2.9080   23.5100 O   0  0  0  0  0  0  0  0  0  0  0  0
    7.5670   -0.5600   23.1220 O   0  0  0  0  0  0  0  0  0  0  0  0
    8.2430   -1.9320   21.1460 N   0  0  0  0  0  0  0  0  0  0  0  0
    7.3100   -1.1920   20.3840 C   0  0  0  0  0  0  0  0  0  0  0  0
    7.6000    0.2060   20.8110 C   0  0  0  0  0  0  0  0  0  0  0  0
    7.3610   -1.4250   18.9990 C   0  0  0  0  0  0  0  0  0  0  0  0
    5.8770   -1.4960   20.8440 C   0  0  0  0  0  0  0  0  0  0  0  0
  1  2  1  0
  2  3  1  0
  3  4  2  0
  3  5  1  0
  5  6  1  0
  6  7  1  0
  7  8  2  0
  8  9  1  0
  9 10  2  0
 10 11  1  0
  7 12  1  0
 11 12  2  0
 12 13  1  0
 13 14  2  0
 13 15  2  0
 13 16  1  0
 17 16  1  0
 17 18  1  0
 17 19  1  0
 17 20  1  0
M  END
