JUA-UNI-b93289a4-7
     RDKit          3D

 28 30  0  0  0  0  0  0  0  0999 V2000
   12.4620    5.8080   22.2590 C   0  0  0  0  0  0  0  0  0  0  0  0
   12.4060    4.3280   22.0010 C   0  0  0  0  0  0  0  0  0  0  0  0
   11.6090    3.5290   22.8400 C   0  0  0  0  0  0  0  0  0  0  0  0
   10.4540    3.7760   23.1620 O   0  0  0  0  0  0  0  0  0  0  0  0
   12.3070    2.4310   23.2750 N   0  0  0  0  0  0  0  0  0  0  0  0
   11.8550    1.0730   23.1040 C   0  0  0  0  0  0  0  0  0  0  0  0
   12.9600    0.1430   22.7690 C   0  0  0  0  0  0  0  0  0  0  0  0
   12.7810   -1.1950   22.5450 C   0  0  0  0  0  0  0  0  0  0  0  0
   11.5160   -1.7460   22.6260 C   0  0  0  0  0  0  0  0  0  0  0  0
   11.2690   -3.0600   22.4130 O   0  0  0  0  0  0  0  0  0  0  0  0
   10.3550   -0.8360   22.9710 C   0  0  0  0  0  0  0  0  0  0  0  0
    8.9870   -1.4560   23.0450 C   0  0  0  0  0  0  0  0  0  0  0  0
    8.2920   -1.4220   24.0550 O   0  0  0  0  0  0  0  0  0  0  0  0
    8.6380   -2.0130   21.8350 N   0  0  0  0  0  0  0  0  0  0  0  0
    7.6330   -1.5080   20.9740 C   0  0  0  0  0  0  0  0  0  0  0  0
    6.3850   -2.1240   21.0780 C   0  0  2  0  0  0  0  0  0  0  0  0
    5.4160   -1.3980   20.8970 O   0  0  0  0  0  0  0  0  0  0  0  0
    6.1050   -2.8210   22.2740 C   0  0  0  0  0  0  0  0  0  0  0  0
    4.8150   -2.8300   22.7990 C   0  0  0  0  0  0  0  0  0  0  0  0
    4.5400   -3.5150   23.9820 C   0  0  0  0  0  0  0  0  0  0  0  0
    5.4920   -4.2060   24.6960 C   0  0  0  0  0  0  0  0  0  0  0  0
    5.2040   -4.8790   25.8770 C   0  0  0  0  0  0  0  0  0  0  0  0
    6.2260   -5.5450   26.5290 C   0  0  0  0  0  0  0  0  0  0  0  0
    7.5390   -5.5860   26.0750 C   0  0  0  0  0  0  0  0  0  0  0  0
    7.8060   -4.9050   24.8850 C   0  0  0  0  0  0  0  0  0  0  0  0
    6.8070   -4.2250   24.2030 C   0  0  0  0  0  0  0  0  0  0  0  0
    7.0880   -3.5340   23.0000 C   0  0  0  0  0  0  0  0  0  0  0  0
   10.5590    0.5450   23.2030 C   0  0  0  0  0  0  0  0  0  0  0  0
  1  2  1  0
  2  3  1  0
  3  4  2  0
  3  5  1  0
  5  6  1  0
  6  7  2  0
  7  8  1  0
  8  9  2  0
  9 10  1  0
  9 11  1  0
 11 12  1  0
 12 13  2  0
 12 14  1  0
 14 15  1  0
 15 16  1  0
 16 17  1  1
 16 18  1  0
 18 19  2  0
 19 20  1  0
 20 21  2  0
 21 22  1  0
 22 23  2  0
 23 24  1  0
 24 25  2  0
 21 26  1  0
 25 26  1  0
 18 27  1  0
 26 27  2  0
  6 28  1  0
 11 28  2  0
M  END
