JUA-UNI-b93289a4-5
     RDKit          3D

 29 31  0  0  0  0  0  0  0  0999 V2000
    5.1810   -2.0100   19.3890 C   0  0  0  0  0  0  0  0  0  0  0  0
    4.8320   -0.5380   19.6150 C   0  0  0  0  0  0  0  0  0  0  0  0
    5.1980    0.3570   18.6020 C   0  0  0  0  0  0  0  0  0  0  0  0
    4.5390    1.3240   18.2600 O   0  0  0  0  0  0  0  0  0  0  0  0
    6.4020   -0.0040   18.0720 N   0  0  0  0  0  0  0  0  0  0  0  0
    7.0620   -1.1670   18.5960 C   0  0  0  0  0  0  0  0  0  0  0  0
    6.7830   -1.3740   20.0410 C   0  0  0  0  0  0  0  0  0  0  0  0
    7.6080   -0.9910   21.0620 C   0  0  0  0  0  0  0  0  0  0  0  0
    8.0580    0.3400   20.8840 O   0  0  0  0  0  0  0  0  0  0  0  0
    7.9430   -1.7940   22.1500 N   0  0  0  0  0  0  0  0  0  0  0  0
    8.5340   -1.3330   23.2880 C   0  0  0  0  0  0  0  0  0  0  0  0
    9.9950   -0.8760   23.0190 C   0  0  0  0  0  0  0  0  0  0  0  0
   10.5120    0.5080   23.2430 C   0  0  0  0  0  0  0  0  0  0  0  0
   11.8790    0.8650   22.9930 C   0  0  0  0  0  0  0  0  0  0  0  0
   12.8830   -0.0160   22.5070 C   0  0  0  0  0  0  0  0  0  0  0  0
   12.5240   -1.3540   22.2320 C   0  0  0  0  0  0  0  0  0  0  0  0
   11.1910   -1.7630   22.4660 C   0  0  0  0  0  0  0  0  0  0  0  0
    8.7770   -2.6040   21.6300 C   0  0  0  0  0  0  0  0  0  0  0  0
    9.9230   -2.4090   22.2630 C   0  0  0  0  0  0  0  0  0  0  0  0
   10.1600   -3.1410   23.4820 N   0  0  0  0  0  0  0  0  0  0  0  0
   11.4580   -2.6690   23.8900 C   0  0  0  0  0  0  0  0  0  0  0  0
   11.9990   -3.4640   24.7830 C   0  0  0  0  0  0  0  0  0  0  0  0
   13.2150   -3.2720   25.3330 C   0  0  0  0  0  0  0  0  0  0  0  0
   13.8890   -2.2320   24.9690 C   0  0  0  0  0  0  0  0  0  0  0  0
   13.3690   -1.3570   24.0300 C   0  0  0  0  0  0  0  0  0  0  0  0
   12.1320   -1.5660   23.4570 C   0  0  0  0  0  0  0  0  0  0  0  0
   11.5640   -0.7420   22.4800 C   0  0  0  0  0  0  0  0  0  0  0  0
   11.7850    0.4610   22.3510 O   0  0  0  0  0  0  0  0  0  0  0  0
   10.7110   -1.4650   21.6760 N   0  0  0  0  0  0  0  0  0  0  0  0
  1  2  1  0
  2  3  1  0
  3  4  2  0
  3  5  1  0
  5  6  1  0
  6  7  1  0
  7  8  1  0
  8  9  2  0
  8 10  1  0
 10 11  1  0
 11 12  1  0
 12 13  2  0
 13 14  1  0
 14 15  2  0
 15 16  1  0
 12 17  1  0
 16 17  2  0
 10 18  1  0
 18 19  1  0
 19 20  2  0
 20 21  1  0
 21 22  2  0
 22 23  1  0
 23 24  2  0
 24 25  1  0
 21 26  1  0
 25 26  2  0
 26 27  1  0
 27 28  2  0
 19 29  1  0
 27 29  1  0
M  END
