JUA-UNI-b93289a4-1
     RDKit          3D

 23 24  0  0  0  0  0  0  0  0999 V2000
    5.3700    1.0930   17.9960 C   0  0  0  0  0  0  0  0  0  0  0  0
    5.2130    1.5820   19.4690 C   0  0  0  0  0  0  0  0  0  0  0  0
    6.3270    1.3560   20.2890 C   0  0  0  0  0  0  0  0  0  0  0  0
    7.3960    1.9600   20.2330 O   0  0  0  0  0  0  0  0  0  0  0  0
    6.0520    0.3050   21.2490 N   0  0  0  0  0  0  0  0  0  0  0  0
    6.3490   -1.0490   21.0420 C   0  0  0  0  0  0  0  0  0  0  0  0
    7.6460   -1.4880   20.9420 C   0  0  0  0  0  0  0  0  0  0  0  0
    8.0400   -1.6050   19.7950 O   0  0  0  0  0  0  0  0  0  0  0  0
    8.3840   -1.7190   22.0570 N   0  0  0  0  0  0  0  0  0  0  0  0
    8.7300   -0.6350   22.7110 C   0  0  0  0  0  0  0  0  0  0  0  0
   10.2470   -0.4540   22.5980 C   0  0  0  0  0  0  0  0  0  0  0  0
   10.7650    0.7260   23.0680 C   0  0  0  0  0  0  0  0  0  0  0  0
   12.1300    0.9690   23.0310 C   0  0  0  0  0  0  0  0  0  0  0  0
   13.0190    0.0730   22.5340 C   0  0  0  0  0  0  0  0  0  0  0  0
   12.5830   -1.1370   22.0190 C   0  0  0  0  0  0  0  0  0  0  0  0
   11.1730   -1.4200   22.0360 C   0  0  0  0  0  0  0  0  0  0  0  0
   10.7930   -2.6140   21.5030 O   0  0  0  0  0  0  0  0  0  0  0  0
    9.2950   -2.7830   22.2780 C   0  0  0  0  0  0  0  0  0  0  0  0
   10.4920   -2.4220   23.2400 C   0  0  2  0  0  0  0  0  0  0  0  0
   11.7550   -2.1380   22.6770 C   0  0  0  0  0  0  0  0  0  0  0  0
   12.9900   -2.3810   23.6030 C   0  0  0  0  0  0  0  0  0  0  0  0
   12.0310   -2.9110   24.6940 C   0  0  0  0  0  0  0  0  0  0  0  0
   10.8800   -3.4200   24.1570 O   0  0  0  0  0  0  0  0  0  0  0  0
  1  2  1  0
  2  3  1  0
  3  4  2  0
  3  5  1  0
  5  6  1  0
  6  7  1  0
  7  8  2  0
  7  9  1  0
  9 10  1  0
 10 11  1  0
 11 12  2  0
 12 13  1  0
 13 14  2  0
 14 15  1  0
 11 16  1  0
 15 16  2  0
 16 17  1  0
  9 18  1  0
 19 18  1  6
 19 20  1  0
 20 21  1  0
 21 22  1  0
 19 23  1  0
 22 23  1  0
M  END
