JUA-UNI-b93289a4-4
     RDKit          3D

 26 28  0  0  0  0  0  0  0  0999 V2000
    5.3280    1.3540   17.6220 C   0  0  0  0  0  0  0  0  0  0  0  0
    5.7090    1.4840   19.0890 C   0  0  0  0  0  0  0  0  0  0  0  0
    5.0390    0.5880   19.9140 C   0  0  0  0  0  0  0  0  0  0  0  0
    3.6090    0.7770   19.8170 O   0  0  0  0  0  0  0  0  0  0  0  0
    5.7210   -0.3270   20.7060 N   0  0  0  0  0  0  0  0  0  0  0  0
    6.8100   -1.2270   20.2950 C   0  0  0  0  0  0  0  0  0  0  0  0
    7.8710   -1.1510   21.1890 C   0  0  0  0  0  0  0  0  0  0  0  0
    8.7170   -0.2940   21.0180 O   0  0  0  0  0  0  0  0  0  0  0  0
    7.9660   -1.9480   22.2840 N   0  0  0  0  0  0  0  0  0  0  0  0
    9.1940   -2.4460   22.5910 C   0  0  0  0  0  0  0  0  0  0  0  0
   10.2910   -1.5590   22.6590 C   0  0  0  0  0  0  0  0  0  0  0  0
   10.1680   -0.1770   22.9290 C   0  0  0  0  0  0  0  0  0  0  0  0
   11.3150    0.6460   22.9770 C   0  0  0  0  0  0  0  0  0  0  0  0
   12.6100    0.1760   22.7800 C   0  0  0  0  0  0  0  0  0  0  0  0
   12.7460   -1.1490   22.5210 C   0  0  0  0  0  0  0  0  0  0  0  0
   11.5760   -2.0680   22.4500 C   0  0  0  0  0  0  0  0  0  0  0  0
    7.0700   -1.8200   23.4360 C   0  0  0  0  0  0  0  0  0  0  0  0
    6.0420   -2.9650   23.5880 C   0  0  1  0  0  0  0  0  0  0  0  0
    5.1040   -2.7470   24.3470 O   0  0  0  0  0  0  0  0  0  0  0  0
    5.3730   -3.3860   22.2970 C   0  0  0  0  0  0  0  0  0  0  0  0
    5.0430   -4.8400   22.3700 N   0  0  0  0  0  0  0  0  0  0  0  0
    6.3120   -5.5610   22.3440 C   0  0  0  0  0  0  0  0  0  0  0  0
    7.2860   -4.7850   23.1920 C   0  0  0  0  0  0  0  0  0  0  0  0
    6.6580   -4.0580   24.1950 C   0  0  0  0  0  0  0  0  0  0  0  0
    5.4840   -4.8160   24.8040 C   0  0  0  0  0  0  0  0  0  0  0  0
    4.4450   -5.1030   23.7040 C   0  0  0  0  0  0  0  0  0  0  0  0
  1  2  1  0
  2  3  1  0
  3  4  2  0
  3  5  1  0
  5  6  1  0
  6  7  1  0
  7  8  2  0
  7  9  1  0
  9 10  1  0
 10 11  1  0
 11 12  2  0
 12 13  1  0
 13 14  2  0
 14 15  1  0
 11 16  1  0
 15 16  2  0
  9 17  1  0
 17 18  1  0
 18 19  1  1
 18 20  1  0
 20 21  1  0
 21 22  1  0
 22 23  1  0
 18 24  1  0
 23 24  1  0
 24 25  1  0
 21 26  1  0
 25 26  1  0
M  END
