JUA-UNI-b93289a4-6
     RDKit          3D

 21 21  0  0  0  0  0  0  0  0999 V2000
    5.9490    0.1140   18.4370 C   0  0  0  0  0  0  0  0  0  0  0  0
    6.9790   -0.6680   19.2810 C   0  0  0  0  0  0  0  0  0  0  0  0
    7.5510    0.0240   20.3750 C   0  0  0  0  0  0  0  0  0  0  0  0
    6.8960    1.0250   19.5630 O   0  0  0  0  0  0  0  0  0  0  0  0
    8.0030   -1.2160   20.8040 N   0  0  0  0  0  0  0  0  0  0  0  0
    7.8570   -1.6070   22.2100 C   0  0  2  0  0  0  0  0  0  0  0  0
    9.0020   -1.9810   22.9100 C   0  0  0  0  0  0  0  0  0  0  0  0
   10.2450   -1.3330   22.7920 C   0  0  0  0  0  0  0  0  0  0  0  0
   10.3820    0.0220   23.1250 C   0  0  0  0  0  0  0  0  0  0  0  0
   11.6440    0.6470   23.0070 C   0  0  0  0  0  0  0  0  0  0  0  0
   12.7340   -0.0840   22.5710 C   0  0  0  0  0  0  0  0  0  0  0  0
   12.6130   -1.4170   22.2340 C   0  0  0  0  0  0  0  0  0  0  0  0
   11.3740   -2.0280   22.3470 C   0  0  0  0  0  0  0  0  0  0  0  0
    6.7760   -2.7010   22.3120 C   0  0  0  0  0  0  0  0  0  0  0  0
    5.6750   -2.7780   21.4010 O   0  0  0  0  0  0  0  0  0  0  0  0
    6.8420   -3.6220   23.3190 N   0  0  0  0  0  0  0  0  0  0  0  0
    5.8350   -3.8740   24.3350 C   0  0  0  0  0  0  0  0  0  0  0  0
    5.6580   -5.3750   24.5440 C   0  0  0  0  0  0  0  0  0  0  0  0
    5.8420   -6.0870   23.3670 N   0  0  0  0  0  0  0  0  0  0  0  0
    5.0510   -6.0480   22.2000 C   0  0  0  0  0  0  0  0  0  0  0  0
    7.2490   -6.1170   22.9840 C   0  0  0  0  0  0  0  0  0  0  0  0
  1  2  1  0
  2  3  1  0
  3  4  2  0
  3  5  1  0
  5  6  1  0
  6  7  1  6
  7  8  1  0
  8  9  2  0
  9 10  1  0
 10 11  2  0
 11 12  1  0
  8 13  1  0
 12 13  2  0
  6 14  1  0
 14 15  2  0
 14 16  1  0
 16 17  1  0
 17 18  1  0
 18 19  1  0
 19 20  1  0
 19 21  1  0
M  END
