KAL-WAB-eb347ebe-1
     RDKit          3D

 19 21  0  0  0  0  0  0  0  0999 V2000
    9.2480    1.4090   21.4090 O   0  0  0  0  0  0  0  0  0  0  0  0
    9.1630    0.2540   21.8470 C   0  0  0  0  0  0  0  0  0  0  0  0
    8.0700   -0.7320   21.3890 C   0  0  0  0  0  0  0  0  0  0  0  0
    7.2240   -0.2810   20.1870 C   0  0  0  0  0  0  0  0  0  0  0  0
    7.3890   -0.5520   18.7360 C   0  0  0  0  0  0  0  0  0  0  0  0
    6.4030    0.0720   18.0890 N   0  0  0  0  0  0  0  0  0  0  0  0
    5.5440    0.7460   18.9130 C   0  0  0  0  0  0  0  0  0  0  0  0
    4.4820    1.4370   18.4770 N   0  0  0  0  0  0  0  0  0  0  0  0
    3.7670    2.0170   19.4670 C   0  0  0  0  0  0  0  0  0  0  0  0
    4.0590    1.9430   20.8310 C   0  0  0  0  0  0  0  0  0  0  0  0
    5.1740    1.2200   21.2440 C   0  0  0  0  0  0  0  0  0  0  0  0
    5.9550    0.5940   20.2720 C   0  0  0  0  0  0  0  0  0  0  0  0
   10.0750   -0.3110   22.8230 N   0  0  0  0  0  0  0  0  0  0  0  0
    9.9240   -1.6510   23.2780 C   0  0  0  0  0  0  0  0  0  0  0  0
   11.3850   -1.7070   23.3650 C   0  0  0  0  0  0  0  0  0  0  0  0
   12.0570   -0.5000   23.0500 C   0  0  0  0  0  0  0  0  0  0  0  0
   10.9460    0.3980   22.7420 C   0  0  0  0  0  0  0  0  0  0  0  0
    9.9070   -0.3970   22.9140 N   0  0  0  0  0  0  0  0  0  0  0  0
    8.6610   -0.8890   22.9880 C   0  0  0  0  0  0  0  0  0  0  0  0
  1  2  2  0
  2  3  1  0
  3  4  1  0
  4  5  2  0
  5  6  1  0
  6  7  1  0
  7  8  1  0
  8  9  2  0
  9 10  1  0
 10 11  2  0
  4 12  1  0
  7 12  2  0
 11 12  1  0
  2 13  1  0
 13 14  1  0
 14 15  2  0
 15 16  1  0
 16 17  2  0
 17 18  1  0
 14 19  1  0
 18 19  2  0
M  END
