KAY-MCD-59dc2eb3-1
     RDKit          3D

 35 38  0  0  0  0  0  0  0  0999 V2000
    5.4450   -4.2950   19.9010 O   0  0  0  0  0  0  0  0  0  0  0  0
    6.1070   -3.9820   20.9050 C   0  0  0  0  0  0  0  0  0  0  0  0
    6.4850   -2.6700   21.0840 C   0  0  0  0  0  0  0  0  0  0  0  0
    7.3250   -2.3750   22.2790 N   0  0  0  0  0  0  0  0  0  0  0  0
    8.4640   -1.5270   21.9090 C   0  0  0  0  0  0  0  0  0  0  0  0
    8.6360   -1.0050   20.8170 O   0  0  0  0  0  0  0  0  0  0  0  0
    9.2600   -1.3810   23.0350 N   0  0  0  0  0  0  0  0  0  0  0  0
   10.5880   -1.7160   23.1000 C   0  0  0  0  0  0  0  0  0  0  0  0
   11.3800   -2.0290   22.0060 C   0  0  0  0  0  0  0  0  0  0  0  0
   12.8000   -2.3740   22.2500 C   0  0  0  0  0  0  0  0  0  0  0  0
   13.2750   -2.3660   23.6200 C   0  0  0  0  0  0  0  0  0  0  0  0
   12.5180   -2.0610   24.6730 N   0  0  0  0  0  0  0  0  0  0  0  0
   11.1870   -1.7420   24.3690 C   0  0  0  0  0  0  0  0  0  0  0  0
    6.6880   -1.9700   23.3930 C   0  0  0  0  0  0  0  0  0  0  0  0
    5.3870   -1.4250   23.3230 C   0  0  0  0  0  0  0  0  0  0  0  0
    4.7160   -0.9570   24.6060 C   0  0  0  0  0  0  0  0  0  0  0  0
    5.3660   -1.0680   25.7910 C   0  0  0  0  0  0  0  0  0  0  0  0
    6.7690   -1.6630   25.8470 C   0  0  0  0  0  0  0  0  0  0  0  0
    7.3750   -2.0910   24.6410 C   0  0  0  0  0  0  0  0  0  0  0  0
    6.4620   -4.9930   21.8200 N   0  0  0  0  0  0  0  0  0  0  0  0
    7.1740   -4.8230   22.9140 C   0  0  0  0  0  0  0  0  0  0  0  0
    6.6490   -4.9900   24.1700 C   0  0  0  0  0  0  0  0  0  0  0  0
    5.3230   -5.4900   24.2470 N   0  0  0  0  0  0  0  0  0  0  0  0
    4.6000   -5.6580   25.7480 S   0  0  0  0  0  0  0  0  0  0  0  0
    3.8920   -6.9200   25.7730 O   0  0  0  0  0  0  0  0  0  0  0  0
    5.5930   -5.3460   26.7530 O   0  0  0  0  0  0  0  0  0  0  0  0
    3.3730   -4.3730   25.8250 C   0  0  0  0  0  0  0  0  0  0  0  0
    2.0300   -4.7160   25.6700 C   0  0  0  0  0  0  0  0  0  0  0  0
    1.0060   -3.7410   25.7350 C   0  0  0  0  0  0  0  0  0  0  0  0
    1.3740   -2.2860   25.9780 C   0  0  0  0  0  0  0  0  0  0  0  0
    2.7130   -1.9380   26.1240 C   0  0  0  0  0  0  0  0  0  0  0  0
    3.0490   -0.6580   26.3310 F   0  0  0  0  0  0  0  0  0  0  0  0
    3.7770   -3.0490   26.0440 C   0  0  0  0  0  0  0  0  0  0  0  0
    4.6620   -5.6480   23.0550 C   0  0  0  0  0  0  0  0  0  0  0  0
    5.5530   -5.9970   22.0220 C   0  0  0  0  0  0  0  0  0  0  0  0
  1  2  2  0
  2  3  1  0
  3  4  1  0
  4  5  1  0
  5  6  2  0
  5  7  1  0
  7  8  1  0
  8  9  2  0
  9 10  1  0
 10 11  2  0
 11 12  1  0
  8 13  1  0
 12 13  2  0
  4 14  1  0
 14 15  2  0
 15 16  1  0
 16 17  2  0
 17 18  1  0
 14 19  1  0
 18 19  2  0
  2 20  1  0
 20 21  1  0
 21 22  1  0
 22 23  1  0
 23 24  1  0
 24 25  2  0
 24 26  2  0
 24 27  1  0
 27 28  2  0
 28 29  1  0
 29 30  2  0
 30 31  1  0
 31 32  1  0
 27 33  1  0
 31 33  2  0
 23 34  1  0
 20 35  1  0
 34 35  1  0
M  END
