KEI-UNI-85a52787-4
     RDKit          3D

 31 34  0  0  0  0  0  0  0  0999 V2000
   11.9410    8.8840   26.0620 C   0  0  0  0  0  0  0  0  0  0  0  0
   11.8360    8.2440   24.6990 C   0  0  0  0  0  0  0  0  0  0  0  0
   12.7500    8.2930   23.8570 O   0  0  0  0  0  0  0  0  0  0  0  0
   10.5840    7.6670   24.5350 N   0  0  0  0  0  0  0  0  0  0  0  0
   10.0500    7.1380   23.3320 C   0  0  0  0  0  0  0  0  0  0  0  0
   10.6760    6.0210   22.8240 C   0  0  0  0  0  0  0  0  0  0  0  0
   11.5250    5.2670   23.5570 N   0  0  0  0  0  0  0  0  0  0  0  0
   12.1380    4.2960   22.8440 C   0  0  0  0  0  0  0  0  0  0  0  0
   11.4430    3.1280   22.7090 C   0  0  0  0  0  0  0  0  0  0  0  0
   10.3170    2.8100   22.3110 C   0  0  0  0  0  0  0  0  0  0  0  0
   11.6410    2.0930   22.9200 C   0  0  0  0  0  0  0  0  0  0  0  0
   11.6590    0.6440   23.1520 C   0  0  0  0  0  0  0  0  0  0  0  0
   12.4650   -0.3770   23.6660 C   0  0  0  0  0  0  0  0  0  0  0  0
   12.4230   -1.7000   23.8850 C   0  0  0  0  0  0  0  0  0  0  0  0
   13.4190   -2.4220   24.4890 C   0  0  0  0  0  0  0  0  0  0  0  0
   14.2920   -3.2220   23.9030 N   0  0  0  0  0  0  0  0  0  0  0  0
   13.4960   -2.2650   25.6870 O   0  0  0  0  0  0  0  0  0  0  0  0
   11.1850   -2.1180   23.4090 C   0  0  0  0  0  0  0  0  0  0  0  0
   10.2110   -1.0250   22.8070 C   0  0  0  0  0  0  0  0  0  0  0  0
   10.5150    0.5330   22.6890 C   0  0  0  0  0  0  0  0  0  0  0  0
   11.6490    1.7350   22.9710 C   0  0  0  0  0  0  0  0  0  0  0  0
   12.8130    1.3440   23.4790 F   0  0  0  0  0  0  0  0  0  0  0  0
   10.9250    4.8470   24.8490 C   0  0  0  0  0  0  0  0  0  0  0  0
    9.7150    5.5090   25.2310 C   0  0  1  0  0  0  0  0  0  0  0  0
    8.9600    4.8270   26.3680 C   0  0  0  0  0  0  0  0  0  0  0  0
    9.4760    5.1460   27.7630 C   0  0  0  0  0  0  0  0  0  0  0  0
    8.7020    4.4690   28.8920 C   0  0  0  0  0  0  0  0  0  0  0  0
    7.5060    3.5530   28.5340 C   0  0  0  0  0  0  0  0  0  0  0  0
    7.1010    3.3110   27.2700 N   0  0  0  0  0  0  0  0  0  0  0  0
    7.8730    3.9820   26.1770 C   0  0  0  0  0  0  0  0  0  0  0  0
    9.9520    6.9720   25.6110 C   0  0  0  0  0  0  0  0  0  0  0  0
  1  2  1  0
  2  3  2  0
  2  4  1  0
  4  5  1  0
  5  6  1  0
  6  7  1  0
  7  8  1  0
  8  9  1  0
  9 10  2  0
 10 11  1  0
 11 12  2  0
 12 13  1  0
 13 14  2  0
 14 15  1  0
 15 16  1  0
 15 17  2  0
 14 18  1  0
 18 19  2  0
 12 20  1  0
 19 20  1  0
  9 21  1  0
 20 21  2  0
 21 22  1  0
  7 23  1  0
 23 24  1  0
 24 25  1  1
 25 26  2  0
 26 27  1  0
 27 28  2  0
 28 29  1  0
 25 30  1  0
 29 30  2  0
  4 31  1  0
 24 31  1  0
M  END
