KEI-UNI-85a52787-5
     RDKit          3D

 32 35  0  0  0  0  0  0  0  0999 V2000
    5.8450   -2.2260   19.0470 C   0  0  0  0  0  0  0  0  0  0  0  0
    5.7190   -3.2680   20.1560 C   0  0  0  0  0  0  0  0  0  0  0  0
    5.3680   -4.4160   19.8550 O   0  0  0  0  0  0  0  0  0  0  0  0
    6.0570   -2.8990   21.4610 N   0  0  0  0  0  0  0  0  0  0  0  0
    6.9750   -3.6720   22.2890 C   0  0  0  0  0  0  0  0  0  0  0  0
    7.4550   -2.9010   23.3650 C   0  0  0  0  0  0  0  0  0  0  0  0
    8.3670   -1.7910   22.9770 N   0  0  0  0  0  0  0  0  0  0  0  0
    9.7960   -2.0300   23.3400 C   0  0  0  0  0  0  0  0  0  0  0  0
   10.5640   -0.8800   23.2520 C   0  0  0  0  0  0  0  0  0  0  0  0
   11.9400   -1.0130   22.7860 C   0  0  0  0  0  0  0  0  0  0  0  0
   12.0560    0.3580   22.8980 C   0  0  0  0  0  0  0  0  0  0  0  0
   11.5510    1.5890   23.1980 C   0  0  0  0  0  0  0  0  0  0  0  0
   12.2470    2.7360   23.0720 N   0  0  0  0  0  0  0  0  0  0  0  0
   11.6410    3.9530   23.4020 C   0  0  0  0  0  0  0  0  0  0  0  0
   12.7000    5.3530   23.1740 S   0  0  0  0  0  0  0  0  0  0  0  0
   12.5240    5.6140   21.5270 N   0  0  0  0  0  0  0  0  0  0  0  0
   12.1220    6.4800   23.8780 O   0  0  0  0  0  0  0  0  0  0  0  0
   14.0370    4.8570   23.3850 O   0  0  0  0  0  0  0  0  0  0  0  0
   10.3410    4.0970   23.8710 C   0  0  0  0  0  0  0  0  0  0  0  0
    9.5230    2.8020   24.0240 C   0  0  0  0  0  0  0  0  0  0  0  0
   10.3070    1.5450   23.6200 C   0  0  0  0  0  0  0  0  0  0  0  0
    9.8190    0.2750   23.6430 C   0  0  0  0  0  0  0  0  0  0  0  0
    8.5550    0.1080   24.0510 F   0  0  0  0  0  0  0  0  0  0  0  0
    8.1110   -1.1620   21.6510 C   0  0  0  0  0  0  0  0  0  0  0  0
    6.8500   -0.5370   21.5650 C   0  0  1  0  0  0  0  0  0  0  0  0
    6.3960    0.0710   20.3980 C   0  0  0  0  0  0  0  0  0  0  0  0
    5.1470    0.9470   20.5920 C   0  0  0  0  0  0  0  0  0  0  0  0
    4.7010    1.5670   19.2750 C   0  0  0  0  0  0  0  0  0  0  0  0
    5.4070    1.3060   18.1110 C   0  0  0  0  0  0  0  0  0  0  0  0
    6.4970    0.5290   18.0000 N   0  0  0  0  0  0  0  0  0  0  0  0
    6.9640   -0.0670   19.1290 C   0  0  0  0  0  0  0  0  0  0  0  0
    5.7420   -1.5410   21.9050 C   0  0  0  0  0  0  0  0  0  0  0  0
  1  2  1  0
  2  3  2  0
  2  4  1  0
  4  5  1  0
  5  6  1  0
  6  7  1  0
  7  8  1  0
  8  9  1  0
  9 10  2  0
 10 11  1  0
 11 12  2  0
 12 13  1  0
 13 14  2  0
 14 15  1  0
 15 16  1  0
 15 17  2  0
 15 18  2  0
 14 19  1  0
 19 20  2  0
 12 21  1  0
 20 21  1  0
  9 22  1  0
 21 22  2  0
 22 23  1  0
  7 24  1  0
 24 25  1  0
 25 26  1  6
 26 27  2  0
 27 28  1  0
 28 29  2  0
 29 30  1  0
 26 31  1  0
 30 31  2  0
  4 32  1  0
 25 32  1  0
M  END
