KEI-UNI-85a52787-2
     RDKit          3D

 32 35  0  0  0  0  0  0  0  0999 V2000
   13.2460    6.6680   22.1700 C   0  0  0  0  0  0  0  0  0  0  0  0
   13.6230    5.3170   22.2170 C   0  0  0  0  0  0  0  0  0  0  0  0
   14.2980    4.8320   21.3280 O   0  0  0  0  0  0  0  0  0  0  0  0
   13.1210    4.6540   23.2700 N   0  0  0  0  0  0  0  0  0  0  0  0
   12.2830    3.6340   22.7810 C   0  0  0  0  0  0  0  0  0  0  0  0
   11.3460    4.3210   22.0460 C   0  0  0  0  0  0  0  0  0  0  0  0
   10.4320    5.0860   22.9250 N   0  0  0  0  0  0  0  0  0  0  0  0
   10.5000    4.4020   24.1610 C   0  0  0  0  0  0  0  0  0  0  0  0
   10.1630    2.9330   24.1760 C   0  0  0  0  0  0  0  0  0  0  0  0
    9.0590    2.3270   24.6270 C   0  0  0  0  0  0  0  0  0  0  0  0
   10.4950    1.9410   23.9300 C   0  0  0  0  0  0  0  0  0  0  0  0
   10.8550    0.5680   23.6220 C   0  0  0  0  0  0  0  0  0  0  0  0
   11.8790   -0.0380   23.0790 C   0  0  0  0  0  0  0  0  0  0  0  0
   11.8370   -1.3530   22.9430 C   0  0  0  0  0  0  0  0  0  0  0  0
   13.1720   -1.9870   22.2290 S   0  0  0  0  0  0  0  0  0  0  0  0
   12.6430   -2.7040   20.8300 N   0  0  0  0  0  0  0  0  0  0  0  0
   13.7590   -2.9800   23.0910 O   0  0  0  0  0  0  0  0  0  0  0  0
   13.8310   -0.8290   21.7460 O   0  0  0  0  0  0  0  0  0  0  0  0
   10.7050   -1.9190   23.4110 C   0  0  0  0  0  0  0  0  0  0  0  0
    9.6960   -1.1310   23.9770 C   0  0  0  0  0  0  0  0  0  0  0  0
    9.7600    0.3030   24.1020 C   0  0  0  0  0  0  0  0  0  0  0  0
   10.5810    1.5880   23.8600 C   0  0  0  0  0  0  0  0  0  0  0  0
   12.3010    1.2750   23.0680 Br  0  0  0  0  0  0  0  0  0  0  0  0
   10.6160    6.4650   23.1340 C   0  0  0  0  0  0  0  0  0  0  0  0
   11.7610    6.7720   23.9320 C   0  0  1  0  0  0  0  0  0  0  0  0
   11.7520    7.5270   25.2800 C   0  0  0  0  0  0  0  0  0  0  0  0
   11.8960    6.7800   26.4390 C   0  0  0  0  0  0  0  0  0  0  0  0
   11.9170    7.3580   27.7020 C   0  0  0  0  0  0  0  0  0  0  0  0
   11.8000    8.7180   27.9490 C   0  0  0  0  0  0  0  0  0  0  0  0
   11.6430    9.6070   26.7860 N   0  0  0  0  0  0  0  0  0  0  0  0
   11.6320    8.9060   25.4850 C   0  0  0  0  0  0  0  0  0  0  0  0
   12.4220    5.4410   24.2920 C   0  0  0  0  0  0  0  0  0  0  0  0
  1  2  1  0
  2  3  2  0
  2  4  1  0
  4  5  1  0
  5  6  1  0
  6  7  1  0
  7  8  1  0
  8  9  1  0
  9 10  2  0
 10 11  1  0
 11 12  2  0
 12 13  1  0
 13 14  2  0
 14 15  1  0
 15 16  1  0
 15 17  2  0
 15 18  2  0
 14 19  1  0
 19 20  2  0
 12 21  1  0
 20 21  1  0
  9 22  1  0
 21 22  2  0
 22 23  1  0
  7 24  1  0
 24 25  1  0
 25 26  1  1
 26 27  2  0
 27 28  1  0
 28 29  2  0
 29 30  1  0
 26 31  1  0
 30 31  2  0
  4 32  1  0
 25 32  1  0
M  END
