KEI-UNI-85a52787-7
     RDKit          3D

 31 34  0  0  0  0  0  0  0  0999 V2000
    5.8550   -2.2450   19.0900 C   0  0  0  0  0  0  0  0  0  0  0  0
    5.7240   -3.3060   20.1840 C   0  0  0  0  0  0  0  0  0  0  0  0
    5.3760   -4.4530   19.8690 O   0  0  0  0  0  0  0  0  0  0  0  0
    6.0510   -2.9420   21.4960 N   0  0  0  0  0  0  0  0  0  0  0  0
    6.8680   -3.7910   22.3600 C   0  0  0  0  0  0  0  0  0  0  0  0
    7.6150   -2.9980   23.2570 C   0  0  0  0  0  0  0  0  0  0  0  0
    8.7120   -2.2260   22.6080 N   0  0  0  0  0  0  0  0  0  0  0  0
    9.8590   -1.9650   23.5410 C   0  0  0  0  0  0  0  0  0  0  0  0
   10.2150   -0.6220   23.5610 C   0  0  0  0  0  0  0  0  0  0  0  0
    9.0000    0.0960   24.0080 C   0  0  0  0  0  0  0  0  0  0  0  0
    9.6200    1.2390   23.8790 C   0  0  0  0  0  0  0  0  0  0  0  0
   10.6530    1.9230   23.5820 C   0  0  0  0  0  0  0  0  0  0  0  0
   10.6210    3.2940   23.6590 N   0  0  0  0  0  0  0  0  0  0  0  0
   11.7290    4.0570   23.3220 C   0  0  0  0  0  0  0  0  0  0  0  0
   11.7210    5.4450   23.3930 C   0  0  0  0  0  0  0  0  0  0  0  0
   11.0590    6.1590   22.4200 N   0  0  0  0  0  0  0  0  0  0  0  0
   12.2530    6.0520   24.3090 O   0  0  0  0  0  0  0  0  0  0  0  0
   12.8610    3.3560   22.9230 C   0  0  0  0  0  0  0  0  0  0  0  0
   12.8550    1.7990   22.8670 C   0  0  0  0  0  0  0  0  0  0  0  0
   11.7430    1.0270   23.1820 C   0  0  0  0  0  0  0  0  0  0  0  0
   11.6550   -0.4020   23.1230 C   0  0  0  0  0  0  0  0  0  0  0  0
   12.9440   -0.0370   22.7450 C   0  0  0  0  0  0  0  0  0  0  0  0
    8.3020   -1.1670   21.6260 C   0  0  0  0  0  0  0  0  0  0  0  0
    6.8770   -0.5860   21.7420 C   0  0  1  0  0  0  0  0  0  0  0  0
    6.3360    0.1680   20.5260 C   0  0  0  0  0  0  0  0  0  0  0  0
    5.1760    0.9130   20.7760 C   0  0  0  0  0  0  0  0  0  0  0  0
    4.5750    1.6720   19.6040 C   0  0  0  0  0  0  0  0  0  0  0  0
    5.2090    1.5800   18.3780 C   0  0  0  0  0  0  0  0  0  0  0  0
    6.3270    0.8510   18.1910 N   0  0  0  0  0  0  0  0  0  0  0  0
    6.8580    0.1730   19.2360 C   0  0  0  0  0  0  0  0  0  0  0  0
    5.7800   -1.6160   22.0300 C   0  0  0  0  0  0  0  0  0  0  0  0
  1  2  1  0
  2  3  2  0
  2  4  1  0
  4  5  1  0
  5  6  1  0
  6  7  1  0
  7  8  1  0
  8  9  1  0
  9 10  2  0
 10 11  1  0
 11 12  2  0
 12 13  1  0
 13 14  2  0
 14 15  1  0
 15 16  1  0
 15 17  2  0
 14 18  1  0
 18 19  2  0
 12 20  1  0
 19 20  1  0
  9 21  1  0
 20 21  2  0
 21 22  1  0
  7 23  1  0
 23 24  1  0
 24 25  1  6
 25 26  2  0
 26 27  1  0
 27 28  2  0
 28 29  1  0
 25 30  1  0
 29 30  2  0
  4 31  1  0
 24 31  1  0
M  END
