KEI-UNI-85a52787-3
     RDKit          3D

 32 35  0  0  0  0  0  0  0  0999 V2000
    7.6400    9.9470   23.9500 C   0  0  0  0  0  0  0  0  0  0  0  0
    6.9700    8.6000   23.8170 C   0  0  0  0  0  0  0  0  0  0  0  0
    5.7500    8.5120   23.7510 O   0  0  0  0  0  0  0  0  0  0  0  0
    7.8880    7.5640   23.7850 N   0  0  0  0  0  0  0  0  0  0  0  0
    9.1470    7.6390   23.1960 C   0  0  0  0  0  0  0  0  0  0  0  0
    9.6820    6.4930   22.6360 C   0  0  0  0  0  0  0  0  0  0  0  0
   10.4890    5.6080   23.2720 N   0  0  0  0  0  0  0  0  0  0  0  0
   10.7560    4.4910   22.5480 C   0  0  0  0  0  0  0  0  0  0  0  0
   11.4550    3.2950   22.8030 C   0  0  0  0  0  0  0  0  0  0  0  0
   10.6670    2.1010   22.9320 C   0  0  0  0  0  0  0  0  0  0  0  0
   11.2730    0.6670   23.1560 C   0  0  0  0  0  0  0  0  0  0  0  0
   12.7860    0.5500   23.2360 C   0  0  0  0  0  0  0  0  0  0  0  0
   12.1130   -0.7040   23.3480 C   0  0  0  0  0  0  0  0  0  0  0  0
   10.7450   -1.0470   23.3150 C   0  0  0  0  0  0  0  0  0  0  0  0
   10.2020   -2.6290   23.4510 S   0  0  0  0  0  0  0  0  0  0  0  0
    8.6960   -2.4050   24.1790 N   0  0  0  0  0  0  0  0  0  0  0  0
    9.9390   -3.0790   22.1110 O   0  0  0  0  0  0  0  0  0  0  0  0
   11.1050   -3.3440   24.3220 O   0  0  0  0  0  0  0  0  0  0  0  0
   10.0320    0.1630   23.1480 C   0  0  0  0  0  0  0  0  0  0  0  0
   10.7020    1.6010   23.0150 C   0  0  0  0  0  0  0  0  0  0  0  0
   12.2610    1.7760   23.0610 C   0  0  0  0  0  0  0  0  0  0  0  0
   12.8630    3.1380   22.9090 C   0  0  0  0  0  0  0  0  0  0  0  0
   12.8560    4.6370   22.7080 C   0  0  0  0  0  0  0  0  0  0  0  0
   10.1400    5.3580   24.6350 C   0  0  0  0  0  0  0  0  0  0  0  0
    9.1310    6.0760   25.3640 C   0  0  1  0  0  0  0  0  0  0  0  0
    9.7670    7.3540   25.9310 C   0  0  0  0  0  0  0  0  0  0  0  0
   10.8860    7.9930   25.1290 C   0  0  0  0  0  0  0  0  0  0  0  0
   11.5000    9.2660   25.7040 C   0  0  0  0  0  0  0  0  0  0  0  0
   10.9500    9.7960   27.0460 C   0  0  0  0  0  0  0  0  0  0  0  0
    9.9560    9.1930   27.7300 N   0  0  0  0  0  0  0  0  0  0  0  0
    9.3660    7.9420   27.1320 C   0  0  0  0  0  0  0  0  0  0  0  0
    7.8240    6.3790   24.5970 C   0  0  0  0  0  0  0  0  0  0  0  0
  1  2  1  0
  2  3  2  0
  2  4  1  0
  4  5  1  0
  5  6  1  0
  6  7  1  0
  7  8  1  0
  8  9  1  0
  9 10  2  0
 10 11  1  0
 11 12  2  0
 12 13  1  0
 13 14  2  0
 14 15  1  0
 15 16  1  0
 15 17  2  0
 15 18  2  0
 14 19  1  0
 19 20  2  0
 12 21  1  0
 20 21  1  0
  9 22  1  0
 21 22  2  0
 22 23  1  0
  7 24  1  0
 24 25  1  0
 25 26  1  6
 26 27  2  0
 27 28  1  0
 28 29  2  0
 29 30  1  0
 26 31  1  0
 30 31  2  0
  4 32  1  0
 25 32  1  0
M  END
