KEI-UNI-85a52787-6
     RDKit          3D

 31 34  0  0  0  0  0  0  0  0999 V2000
    6.0320   -2.3730   18.8500 C   0  0  0  0  0  0  0  0  0  0  0  0
    5.8400   -3.3640   19.9570 C   0  0  0  0  0  0  0  0  0  0  0  0
    5.4630   -4.5340   19.6980 O   0  0  0  0  0  0  0  0  0  0  0  0
    6.0500   -2.9260   21.2950 N   0  0  0  0  0  0  0  0  0  0  0  0
    6.7130   -3.7480   22.3060 C   0  0  0  0  0  0  0  0  0  0  0  0
    7.4810   -2.8690   23.3160 C   0  0  0  0  0  0  0  0  0  0  0  0
    8.6430   -2.2110   22.6480 N   0  0  0  0  0  0  0  0  0  0  0  0
    9.7930   -2.0170   23.5700 C   0  0  0  0  0  0  0  0  0  0  0  0
   10.3740   -0.6230   23.6430 C   0  0  0  0  0  0  0  0  0  0  0  0
   11.6200   -0.1080   23.3100 C   0  0  0  0  0  0  0  0  0  0  0  0
   12.7590    0.3620   23.0050 C   0  0  0  0  0  0  0  0  0  0  0  0
   11.7960    1.2500   23.5320 C   0  0  0  0  0  0  0  0  0  0  0  0
   11.3200    0.0930   23.4520 N   0  0  0  0  0  0  0  0  0  0  0  0
   12.5930    0.1000   22.9980 C   0  0  0  0  0  0  0  0  0  0  0  0
   13.2530   -1.0790   22.5190 C   0  0  0  0  0  0  0  0  0  0  0  0
   13.4500   -2.1140   23.4050 N   0  0  0  0  0  0  0  0  0  0  0  0
   13.6140   -1.2160   21.3120 O   0  0  0  0  0  0  0  0  0  0  0  0
   13.2300    1.5050   23.0540 C   0  0  0  0  0  0  0  0  0  0  0  0
   11.9180    2.3230   23.6970 C   0  0  0  0  0  0  0  0  0  0  0  0
   10.6720    1.7650   24.0370 C   0  0  0  0  0  0  0  0  0  0  0  0
    9.8220    0.5710   24.1080 C   0  0  0  0  0  0  0  0  0  0  0  0
    8.5840    0.6830   24.6080 F   0  0  0  0  0  0  0  0  0  0  0  0
    8.3550   -1.1120   21.6410 C   0  0  0  0  0  0  0  0  0  0  0  0
    7.0260   -0.5640   21.5640 C   0  0  1  0  0  0  0  0  0  0  0  0
    6.5430    0.2260   20.2920 C   0  0  0  0  0  0  0  0  0  0  0  0
    5.3060    1.0670   20.5270 C   0  0  0  0  0  0  0  0  0  0  0  0
    4.8340    1.8150   19.2860 C   0  0  0  0  0  0  0  0  0  0  0  0
    5.6390    1.6190   18.0390 C   0  0  0  0  0  0  0  0  0  0  0  0
    6.7300    0.8170   17.9480 N   0  0  0  0  0  0  0  0  0  0  0  0
    7.1540    0.1670   19.0290 C   0  0  0  0  0  0  0  0  0  0  0  0
    5.8560   -1.5370   21.7340 C   0  0  0  0  0  0  0  0  0  0  0  0
  1  2  1  0
  2  3  2  0
  2  4  1  0
  4  5  1  0
  5  6  1  0
  6  7  1  0
  7  8  1  0
  8  9  1  0
  9 10  2  0
 10 11  1  0
 11 12  2  0
 12 13  1  0
 13 14  2  0
 14 15  1  0
 15 16  1  0
 15 17  2  0
 14 18  1  0
 18 19  2  0
 12 20  1  0
 19 20  1  0
  9 21  1  0
 20 21  2  0
 21 22  1  0
  7 23  1  0
 23 24  1  0
 24 25  1  6
 25 26  2  0
 26 27  1  0
 27 28  2  0
 28 29  1  0
 25 30  1  0
 29 30  2  0
  4 31  1  0
 24 31  1  0
M  END
