KEN-MCD-6084b33e-1
     RDKit          3D

 22 23  0  0  0  0  0  0  0  0999 V2000
   -1.2370   -3.4320   26.5250 C   0  0  0  0  0  0  0  0  0  0  0  0
   -0.3430   -3.9460   25.5980 C   0  0  0  0  0  0  0  0  0  0  0  0
   -0.7620   -4.6880   24.7120 O   0  0  0  0  0  0  0  0  0  0  0  0
    1.0160   -3.5850   25.7170 C   0  0  0  0  0  0  0  0  0  0  0  0
    1.4560   -2.1800   25.8550 C   0  0  0  0  0  0  0  0  0  0  0  0
    2.8900   -1.8110   25.9690 C   0  0  0  0  0  0  0  0  0  0  0  0
    3.7780   -2.8810   25.9500 C   0  0  0  0  0  0  0  0  0  0  0  0
    3.3900   -4.2260   25.8290 C   0  0  0  0  0  0  0  0  0  0  0  0
    4.6650   -5.5240   25.8380 S   0  0  0  0  0  0  0  0  0  0  0  0
    3.9740   -6.7960   25.9170 O   0  0  0  0  0  0  0  0  0  0  0  0
    5.6640   -5.1730   26.8290 O   0  0  0  0  0  0  0  0  0  0  0  0
    5.4160   -5.4250   24.3120 N   0  0  0  0  0  0  0  0  0  0  0  0
    6.3460   -4.3820   24.0360 C   0  0  0  0  0  0  0  0  0  0  0  0
    7.1000   -4.6710   22.9230 C   0  0  0  0  0  0  0  0  0  0  0  0
    6.4610   -5.1500   21.8250 N   0  0  0  0  0  0  0  0  0  0  0  0
    6.0830   -4.1870   20.9590 C   0  0  0  0  0  0  0  0  0  0  0  0
    5.4210   -4.4490   19.9390 O   0  0  0  0  0  0  0  0  0  0  0  0
    6.4480   -2.8640   21.1930 C   0  0  0  0  0  0  0  0  0  0  0  0
    6.0370   -1.9770   20.2730 F   0  0  0  0  0  0  0  0  0  0  0  0
    5.5570   -6.2470   22.1060 C   0  0  0  0  0  0  0  0  0  0  0  0
    4.6390   -5.8680   23.1030 C   0  0  0  0  0  0  0  0  0  0  0  0
    2.0180   -4.5760   25.7100 C   0  0  0  0  0  0  0  0  0  0  0  0
  1  2  1  0
  2  3  2  0
  2  4  1  0
  4  5  2  0
  5  6  1  0
  6  7  2  0
  7  8  1  0
  9  8  1  0
  9 10  2  0
  9 11  2  0
  9 12  1  0
 12 13  1  0
 13 14  1  0
 14 15  1  0
 15 16  1  0
 16 17  2  0
 16 18  1  0
 18 19  1  0
 15 20  1  0
 12 21  1  0
 20 21  1  0
  4 22  1  0
  8 22  2  0
M  END
