KEN-UNI-c79d77dd-1
     RDKit          3D

 23 25  0  0  0  0  0  0  0  0999 V2000
   14.6110   -2.4030   26.0000 C   0  0  0  0  0  0  0  0  0  0  0  0
   13.8870   -2.4830   24.6550 C   0  0  0  0  0  0  0  0  0  0  0  0
   14.0000   -1.8790   23.6120 O   0  0  0  0  0  0  0  0  0  0  0  0
   13.0460   -3.3860   24.8780 N   0  0  0  0  0  0  0  0  0  0  0  0
   13.6300   -4.1540   25.9630 C   0  0  0  0  0  0  0  0  0  0  0  0
   11.7720   -3.0240   24.6680 C   0  0  0  0  0  0  0  0  0  0  0  0
   11.4370   -1.6910   24.8100 C   0  0  0  0  0  0  0  0  0  0  0  0
   12.5300   -0.8160   24.6620 C   0  0  0  0  0  0  0  0  0  0  0  0
   12.4290   -0.1470   23.3620 N   0  0  0  0  0  0  0  0  0  0  0  0
   11.2110    0.5960   23.6440 C   0  0  0  0  0  0  0  0  0  0  0  0
   11.3920    1.9340   23.7380 C   0  0  0  0  0  0  0  0  0  0  0  0
   10.2570    2.8260   24.0490 C   0  0  0  0  0  0  0  0  0  0  0  0
    9.0350    2.1760   24.2450 C   0  0  0  0  0  0  0  0  0  0  0  0
    8.8660    0.7840   24.1340 C   0  0  0  0  0  0  0  0  0  0  0  0
    9.9260   -0.0610   23.8200 C   0  0  0  0  0  0  0  0  0  0  0  0
    9.5740   -1.4590   23.7120 C   0  0  0  0  0  0  0  0  0  0  0  0
   10.5480   -2.1010   23.0200 C   0  0  0  0  0  0  0  0  0  0  0  0
   11.4540   -1.1510   23.2180 C   0  0  0  0  0  0  0  0  0  0  0  0
   12.5620   -0.6650   22.6370 C   0  0  0  0  0  0  0  0  0  0  0  0
   12.3760   -1.9000   21.4260 C   0  0  0  0  0  0  0  0  0  0  0  0
   13.4220   -1.1310   21.2070 C   0  0  0  0  0  0  0  0  0  0  0  0
   13.5050   -0.4540   21.8780 C   0  0  0  0  0  0  0  0  0  0  0  0
   12.3250   -1.1380   22.3260 C   0  0  0  0  0  0  0  0  0  0  0  0
  1  2  1  0
  2  3  2  0
  2  4  1  0
  4  5  1  0
  4  6  1  0
  6  7  1  0
  7  8  1  0
  8  9  1  0
  9 10  1  0
 10 11  2  0
 11 12  1  0
 12 13  2  0
 13 14  1  0
 10 15  1  0
 14 15  2  0
 15 16  1  0
 16 17  1  0
 17 18  1  0
 18 19  2  0
 19 20  1  0
 20 21  2  0
 21 22  1  0
  9 23  1  0
 18 23  1  0
 22 23  2  0
M  END
