KIM-UNI-60f168f5-1
     RDKit          3D

 14 15  0  0  0  0  0  0  0  0999 V2000
    9.9340   -0.4990   22.3160 C   0  0  0  0  0  0  0  0  0  0  0  0
    8.7870    0.0420   21.5320 C   0  0  0  0  0  0  0  0  0  0  0  0
    8.8680    1.2270   21.1390 O   0  0  0  0  0  0  0  0  0  0  0  0
    7.7270   -0.7050   21.2680 N   0  0  0  0  0  0  0  0  0  0  0  0
    6.8700   -0.1030   20.3540 C   0  0  0  0  0  0  0  0  0  0  0  0
    7.1410   -0.2540   18.8940 C   0  0  0  0  0  0  0  0  0  0  0  0
    6.3290    0.3400   17.8170 N   0  0  0  0  0  0  0  0  0  0  0  0
    5.1520    1.1390   18.2040 C   0  0  0  0  0  0  0  0  0  0  0  0
    4.8260    1.3090   19.6990 C   0  0  0  0  0  0  0  0  0  0  0  0
    5.7540    0.6420   20.7500 C   0  0  0  0  0  0  0  0  0  0  0  0
    5.3070    0.8950   22.2010 C   0  0  0  0  0  0  0  0  0  0  0  0
    3.9010    0.9100   22.2850 C   0  0  0  0  0  0  0  0  0  0  0  0
    3.3030    1.9620   21.4550 N   0  0  0  0  0  0  0  0  0  0  0  0
    3.6230    2.1170   20.1080 C   0  0  0  0  0  0  0  0  0  0  0  0
  1  2  1  0
  2  3  2  0
  2  4  1  0
  4  5  1  0
  5  6  2  0
  6  7  1  0
  7  8  2  0
  8  9  1  0
  5 10  1  0
  9 10  2  0
 10 11  1  0
 11 12  1  0
 12 13  1  0
  9 14  1  0
 13 14  1  0
M  END
