KIM-UNI-7d12df64-4
     RDKit          3D

 20 22  0  0  0  0  0  0  0  0999 V2000
    6.0030   -2.0650   18.7850 C   0  0  0  0  0  0  0  0  0  0  0  0
    5.7540   -2.9950   19.9160 C   0  0  0  0  0  0  0  0  0  0  0  0
    5.3740   -4.1480   19.6890 O   0  0  0  0  0  0  0  0  0  0  0  0
    5.9530   -2.6410   21.1590 N   0  0  0  0  0  0  0  0  0  0  0  0
    5.7610   -3.5920   22.2250 C   0  0  0  0  0  0  0  0  0  0  0  0
    6.7680   -3.3730   23.3000 C   0  0  0  0  0  0  0  0  0  0  0  0
    8.1000   -3.2220   22.7320 N   0  0  0  0  0  0  0  0  0  0  0  0
    9.1820   -3.2290   23.7330 C   0  0  2  0  0  0  0  0  0  0  0  0
    8.5830   -3.0920   25.1120 C   0  0  0  0  0  0  0  0  0  0  0  0
    8.4450   -1.8750   25.5110 C   0  0  0  0  0  0  0  0  0  0  0  0
    8.3830   -1.0200   24.4010 N   0  0  0  0  0  0  0  0  0  0  0  0
    9.5830   -0.9660   23.7500 C   0  0  0  0  0  0  0  0  0  0  0  0
   10.3360    0.3190   23.4430 C   0  0  0  0  0  0  0  0  0  0  0  0
   11.6500    0.2200   22.7120 C   0  0  0  0  0  0  0  0  0  0  0  0
   12.0470   -1.1640   22.3460 C   0  0  0  0  0  0  0  0  0  0  0  0
   13.4400   -1.4860   21.4960 Cl  0  0  0  0  0  0  0  0  0  0  0  0
   11.2540   -2.2310   22.6910 C   0  0  0  0  0  0  0  0  0  0  0  0
   10.0770   -2.1050   23.3670 C   0  0  0  0  0  0  0  0  0  0  0  0
    8.1580   -2.1290   21.8580 C   0  0  0  0  0  0  0  0  0  0  0  0
    6.9360   -1.5890   21.4470 C   0  0  0  0  0  0  0  0  0  0  0  0
  1  2  1  0
  2  3  2  0
  2  4  1  0
  4  5  1  0
  5  6  1  0
  6  7  1  0
  8  7  1  6
  8  9  1  0
  9 10  1  0
 10 11  1  0
 11 12  1  0
 12 13  2  0
 13 14  1  0
 14 15  2  0
 15 16  1  0
 15 17  1  0
  8 18  1  0
 12 18  1  0
 17 18  2  0
  7 19  1  0
  4 20  1  0
 19 20  1  0
M  END
