KIM-UNI-60f168f5-10
     RDKit          3D

 23 25  0  0  0  0  0  0  0  0999 V2000
    5.5910    0.7180   22.1870 C   0  0  0  0  0  0  0  0  0  0  0  0
    5.8310    0.6220   20.7240 C   0  0  0  0  0  0  0  0  0  0  0  0
    6.7030   -0.2650   20.2250 C   0  0  0  0  0  0  0  0  0  0  0  0
    6.9370   -0.3580   18.7620 C   0  0  0  0  0  0  0  0  0  0  0  0
    6.3130    0.4100   17.8510 N   0  0  0  0  0  0  0  0  0  0  0  0
    5.4340    1.3100   18.3380 C   0  0  0  0  0  0  0  0  0  0  0  0
    5.1400    1.4720   19.8320 C   0  0  0  0  0  0  0  0  0  0  0  0
    4.2060    2.4570   20.3000 N   0  0  0  0  0  0  0  0  0  0  0  0
    4.6330    3.5560   21.1910 C   0  0  0  0  0  0  0  0  0  0  0  0
    3.6650    4.5370   21.3900 C   0  0  0  0  0  0  0  0  0  0  0  0
    2.4210    4.4520   20.7710 C   0  0  0  0  0  0  0  0  0  0  0  0
    2.0000    3.2620   20.1820 C   0  0  0  0  0  0  0  0  0  0  0  0
    2.8450    2.1520   20.2220 C   0  0  0  0  0  0  0  0  0  0  0  0
    2.3430    1.0400   20.2190 O   0  0  0  0  0  0  0  0  0  0  0  0
    4.0590    5.6500   22.2870 N   0  0  0  0  0  0  0  0  0  0  0  0
    3.4450    5.9640   23.5920 C   0  0  0  0  0  0  0  0  0  0  0  0
    3.1300    4.8770   24.3970 C   0  0  0  0  0  0  0  0  0  0  0  0
    2.9360    5.4140   25.6990 C   0  0  0  0  0  0  0  0  0  0  0  0
    3.3320    4.7240   26.7890 N   0  0  0  0  0  0  0  0  0  0  0  0
    2.4080    6.5070   25.8570 O   0  0  0  0  0  0  0  0  0  0  0  0
    5.4440    6.1340   22.2140 C   0  0  0  0  0  0  0  0  0  0  0  0
    6.4180    4.9350   22.1090 C   0  0  0  0  0  0  0  0  0  0  0  0
    6.0060    3.6100   21.8390 C   0  0  0  0  0  0  0  0  0  0  0  0
  1  2  1  0
  2  3  2  0
  3  4  1  0
  4  5  2  0
  5  6  1  0
  2  7  1  0
  6  7  2  0
  7  8  1  0
  8  9  1  0
  9 10  2  0
 10 11  1  0
 11 12  2  0
  8 13  1  0
 12 13  1  0
 13 14  2  0
 10 15  1  0
 15 16  1  0
 16 17  1  0
 17 18  1  0
 18 19  1  0
 18 20  2  0
 15 21  1  0
 21 22  1  0
  9 23  1  0
 22 23  1  0
M  END
