KIM-UNI-60f168f5-5
     RDKit          3D

 20 21  0  0  0  0  0  0  0  0999 V2000
    5.3130    0.4680   22.0880 C   0  0  0  0  0  0  0  0  0  0  0  0
    5.6350    0.4610   20.6150 C   0  0  0  0  0  0  0  0  0  0  0  0
    6.7980   -0.3210   20.1710 C   0  0  0  0  0  0  0  0  0  0  0  0
    7.1180   -0.3530   18.8110 C   0  0  0  0  0  0  0  0  0  0  0  0
    6.3080    0.3700   17.9440 N   0  0  0  0  0  0  0  0  0  0  0  0
    5.2170    1.1110   18.3320 C   0  0  0  0  0  0  0  0  0  0  0  0
    4.8680    1.1630   19.6630 C   0  0  0  0  0  0  0  0  0  0  0  0
    3.7640    1.9170   19.9470 N   0  0  0  0  0  0  0  0  0  0  0  0
    3.9800    3.2420   20.1400 C   0  0  0  0  0  0  0  0  0  0  0  0
    5.0550    3.7450   20.4210 O   0  0  0  0  0  0  0  0  0  0  0  0
    2.8130    4.2120   20.0660 C   0  0  0  0  0  0  0  0  0  0  0  0
    1.5940    3.3000   19.7640 C   0  0  0  0  0  0  0  0  0  0  0  0
    1.4470    2.1580   20.4900 N   0  0  0  0  0  0  0  0  0  0  0  0
    0.4600    2.1180   21.5500 C   0  0  0  0  0  0  0  0  0  0  0  0
   -0.7390    1.4220   21.1050 C   0  0  0  0  0  0  0  0  0  0  0  0
   -1.9590    1.8270   21.6660 C   0  0  0  0  0  0  0  0  0  0  0  0
   -3.1660    1.2040   21.3800 N   0  0  0  0  0  0  0  0  0  0  0  0
   -1.7300    2.9450   22.5470 N   0  0  0  0  0  0  0  0  0  0  0  0
    2.6730    1.3750   20.6850 C   0  0  0  0  0  0  0  0  0  0  0  0
    2.7030    0.4110   21.4350 O   0  0  0  0  0  0  0  0  0  0  0  0
  1  2  1  0
  2  3  2  0
  3  4  1  0
  4  5  2  0
  5  6  1  0
  2  7  1  0
  6  7  2  0
  7  8  1  0
  8  9  1  0
  9 10  2  0
  9 11  1  0
 11 12  1  0
 12 13  1  0
 13 14  1  0
 14 15  1  0
 15 16  1  0
 16 17  2  3
 16 18  1  0
  8 19  1  0
 13 19  1  0
 19 20  2  0
M  END
