KIM-UNI-60f168f5-3
     RDKit          3D

 19 20  0  0  0  0  0  0  0  0999 V2000
    5.6500    0.7830   22.0630 C   0  0  0  0  0  0  0  0  0  0  0  0
    5.8320    0.6910   20.7370 C   0  0  0  0  0  0  0  0  0  0  0  0
    6.7570   -0.2910   20.1290 C   0  0  0  0  0  0  0  0  0  0  0  0
    6.9720   -0.4170   18.7530 C   0  0  0  0  0  0  0  0  0  0  0  0
    6.2930    0.4090   17.8730 N   0  0  0  0  0  0  0  0  0  0  0  0
    5.4330    1.3280   18.4240 C   0  0  0  0  0  0  0  0  0  0  0  0
    5.1470    1.5360   19.8650 C   0  0  0  0  0  0  0  0  0  0  0  0
    4.2590    2.5240   20.2620 N   0  0  0  0  0  0  0  0  0  0  0  0
    4.8140    3.5640   21.0980 C   0  0  0  0  0  0  0  0  0  0  0  0
    6.1080    3.6600   21.5590 O   0  0  0  0  0  0  0  0  0  0  0  0
    3.7950    4.6210   21.4870 C   0  0  0  0  0  0  0  0  0  0  0  0
    2.4670    3.9860   21.8980 C   0  0  0  0  0  0  0  0  0  0  0  0
    1.9300    3.1920   20.8100 N   0  0  0  0  0  0  0  0  0  0  0  0
    0.7280    3.4100   20.1940 C   0  0  0  0  0  0  0  0  0  0  0  0
   -0.3660    2.3880   20.5640 C   0  0  0  0  0  0  0  0  0  0  0  0
   -0.1260    1.1220   20.5250 N   0  0  0  0  0  0  0  0  0  0  0  0
   -1.6160    2.7960   20.9210 N   0  0  0  0  0  0  0  0  0  0  0  0
    2.8870    2.1850   20.3020 C   0  0  0  0  0  0  0  0  0  0  0  0
    2.4510    1.1070   19.9510 O   0  0  0  0  0  0  0  0  0  0  0  0
  1  2  1  0
  2  3  2  0
  3  4  1  0
  4  5  2  0
  5  6  1  0
  2  7  1  0
  6  7  2  0
  7  8  1  0
  8  9  1  0
  9 10  2  0
  9 11  1  0
 11 12  1  0
 12 13  1  0
 13 14  1  0
 14 15  1  0
 15 16  2  3
 15 17  1  0
  8 18  1  0
 13 18  1  0
 18 19  2  0
M  END
