KIM-UNI-7d12df64-1
     RDKit          3D

 20 21  0  0  0  0  0  0  0  0999 V2000
    8.7280   -0.3810   27.5900 C   0  0  0  0  0  0  0  0  0  0  0  0
    8.5840   -0.3940   26.0960 C   0  0  0  0  0  0  0  0  0  0  0  0
    9.5810    0.3620   25.5060 N   0  0  0  0  0  0  0  0  0  0  0  0
   10.4910   -0.0440   24.4980 C   0  0  0  0  0  0  0  0  0  0  0  0
   11.6060    0.6540   24.0240 C   0  0  0  0  0  0  0  0  0  0  0  0
   12.4650    0.1700   23.0310 C   0  0  0  0  0  0  0  0  0  0  0  0
   12.3330   -1.0520   22.3770 C   0  0  0  0  0  0  0  0  0  0  0  0
   13.2630   -1.7830   21.1860 Cl  0  0  0  0  0  0  0  0  0  0  0  0
   11.2400   -1.8370   22.7610 C   0  0  0  0  0  0  0  0  0  0  0  0
   10.2670   -1.3980   23.8340 C   0  0  0  0  0  0  0  0  0  0  0  0
    9.1760   -2.4290   24.1130 C   0  0  0  0  0  0  0  0  0  0  0  0
    8.1300   -2.3200   23.1170 N   0  0  0  0  0  0  0  0  0  0  0  0
    7.3390   -3.4080   22.9200 C   0  0  0  0  0  0  0  0  0  0  0  0
    6.0430   -3.1240   22.3410 C   0  0  0  0  0  0  0  0  0  0  0  0
    6.0170   -2.4590   21.1430 N   0  0  0  0  0  0  0  0  0  0  0  0
    5.7050   -3.0350   19.9290 C   0  0  0  0  0  0  0  0  0  0  0  0
    5.9430   -2.0100   18.8100 C   0  0  0  0  0  0  0  0  0  0  0  0
    5.3150   -4.1730   19.7110 O   0  0  0  0  0  0  0  0  0  0  0  0
    7.0140   -1.3560   21.1820 C   0  0  0  0  0  0  0  0  0  0  0  0
    8.3100   -1.7480   21.8820 C   0  0  0  0  0  0  0  0  0  0  0  0
  1  2  1  0
  2  3  1  0
  3  4  1  0
  4  5  2  0
  5  6  1  0
  6  7  2  0
  7  8  1  0
  7  9  1  0
  4 10  1  0
  9 10  2  0
 10 11  1  0
 11 12  1  0
 12 13  1  0
 13 14  1  0
 14 15  1  0
 15 16  1  0
 16 17  1  0
 16 18  2  0
 15 19  1  0
 12 20  1  0
 19 20  1  0
M  END
