KIM-UNI-60f168f5-7
     RDKit          3D

 22 24  0  0  0  0  0  0  0  0999 V2000
    5.8440    0.6570   22.1860 C   0  0  0  0  0  0  0  0  0  0  0  0
    5.9400    0.6220   20.6920 C   0  0  0  0  0  0  0  0  0  0  0  0
    6.6150   -0.4490   20.0950 C   0  0  0  0  0  0  0  0  0  0  0  0
    6.7100   -0.4990   18.7230 C   0  0  0  0  0  0  0  0  0  0  0  0
    6.1800    0.4240   17.9040 N   0  0  0  0  0  0  0  0  0  0  0  0
    5.5270    1.4610   18.4900 C   0  0  0  0  0  0  0  0  0  0  0  0
    5.3880    1.6150   19.8780 C   0  0  0  0  0  0  0  0  0  0  0  0
    4.7200    2.7490   20.4730 N   0  0  0  0  0  0  0  0  0  0  0  0
    3.3310    2.9700   20.5300 C   0  0  0  0  0  0  0  0  0  0  0  0
    2.7980    4.1080   21.0560 C   0  0  0  0  0  0  0  0  0  0  0  0
    3.7220    5.1020   21.5690 C   0  0  0  0  0  0  0  0  0  0  0  0
    5.0320    4.8620   21.6580 C   0  0  0  0  0  0  0  0  0  0  0  0
    5.5780    3.5590   21.2360 C   0  0  0  0  0  0  0  0  0  0  0  0
    6.7250    3.2730   21.5820 O   0  0  0  0  0  0  0  0  0  0  0  0
    1.4010    4.3440   21.1130 N   0  0  0  0  0  0  0  0  0  0  0  0
    0.7900    5.6730   21.3810 C   0  0  0  0  0  0  0  0  0  0  0  0
    0.2690    5.7960   22.8260 C   0  0  0  0  0  0  0  0  0  0  0  0
   -0.3090    4.7870   23.3910 N   0  0  0  0  0  0  0  0  0  0  0  0
    0.4200    6.9810   23.4980 N   0  0  0  0  0  0  0  0  0  0  0  0
    0.4870    3.4400   20.4070 C   0  0  0  0  0  0  0  0  0  0  0  0
    0.9930    2.0210   20.5300 C   0  0  0  0  0  0  0  0  0  0  0  0
    2.4190    1.9240   19.9810 C   0  0  0  0  0  0  0  0  0  0  0  0
  1  2  1  0
  2  3  2  0
  3  4  1  0
  4  5  2  0
  5  6  1  0
  2  7  1  0
  6  7  2  0
  7  8  1  0
  8  9  1  0
  9 10  2  0
 10 11  1  0
 11 12  2  0
  8 13  1  0
 12 13  1  0
 13 14  2  0
 10 15  1  0
 15 16  1  0
 16 17  1  0
 17 18  2  3
 17 19  1  0
 15 20  1  0
 20 21  1  0
  9 22  1  0
 21 22  1  0
M  END
