KTA-UNK-dac325de-2
     RDKit          3D

  9 10  0  0  0  0  0  0  0  0999 V2000
    9.8950   -1.3700   24.0440 C   0  0  0  0  0  0  0  0  0  0  0  0
   10.5500   -0.2320   24.6800 C   0  0  0  0  0  0  0  0  0  0  0  0
   11.8610    0.1740   24.0650 C   0  0  0  0  0  0  0  0  0  0  0  0
   12.3350   -0.5910   22.9210 C   0  0  0  0  0  0  0  0  0  0  0  0
   13.5460   -0.3710   22.1770 N   0  0  0  0  0  0  0  0  0  0  0  0
   13.5820   -1.2690   21.2320 C   0  0  0  0  0  0  0  0  0  0  0  0
   12.4650   -2.0600   21.3310 C   0  0  0  0  0  0  0  0  0  0  0  0
   11.6970   -1.6410   22.3630 C   0  0  0  0  0  0  0  0  0  0  0  0
   10.5140   -2.0700   22.8570 C   0  0  0  0  0  0  0  0  0  0  0  0
  1  2  2  0
  2  3  1  0
  3  4  2  0
  4  5  1  0
  5  6  1  0
  6  7  2  0
  4  8  1  0
  7  8  1  0
  1  9  1  0
  8  9  2  0
M  END
