KTA-UNK-96ef4e68-3
     RDKit          3D

 50 53  0  0  0  0  0  0  0  0999 V2000
   -4.2260  -17.7650   33.3220 C   0  0  0  0  0  0  0  0  0  0  0  0
   -3.0570  -16.7910   33.4560 C   0  0  0  0  0  0  0  0  0  0  0  0
   -2.5460  -16.1290   32.1430 C   0  0  0  0  0  0  0  0  0  0  0  0
   -1.2800  -15.2360   32.3870 C   0  0  0  0  0  0  0  0  0  0  0  0
   -1.0050  -14.1730   31.3460 C   0  0  0  0  0  0  0  0  0  0  0  0
    0.3000  -13.6710   31.2320 C   0  0  0  0  0  0  0  0  0  0  0  0
    0.5630  -12.5440   30.4550 C   0  0  0  0  0  0  0  0  0  0  0  0
   -0.4350  -12.0050   29.6530 C   0  0  0  0  0  0  0  0  0  0  0  0
   -0.0460  -11.1730   28.6070 C   0  0  0  0  0  0  0  0  0  0  0  0
    0.4050  -11.7510   27.4190 C   0  0  0  0  0  0  0  0  0  0  0  0
    0.2330  -10.8290   26.2040 C   0  0  0  0  0  0  0  0  0  0  0  0
    0.7140   -9.3890   26.3890 C   0  0  0  0  0  0  0  0  0  0  0  0
    1.7420   -8.9930   25.3350 C   0  0  0  0  0  0  0  0  0  0  0  0
    2.0600   -7.5020   25.3360 C   0  0  0  0  0  0  0  0  0  0  0  0
    3.4870   -7.2080   25.8020 C   0  0  0  0  0  0  0  0  0  0  0  0
    3.6750   -5.7230   26.0430 C   0  0  0  0  0  0  0  0  0  0  0  0
    3.8510   -5.2280   27.1500 O   0  0  0  0  0  0  0  0  0  0  0  0
    3.6130   -5.0560   24.8180 O   0  0  0  0  0  0  0  0  0  0  0  0
    3.6940   -3.6510   24.9030 C   0  0  0  0  0  0  0  0  0  0  0  0
    2.5880   -2.8980   25.3060 C   0  0  0  0  0  0  0  0  0  0  0  0
    1.4150   -3.5110   25.6220 O   0  0  0  0  0  0  0  0  0  0  0  0
    2.7000   -1.5200   25.3790 C   0  0  0  0  0  0  0  0  0  0  0  0
    3.9080   -0.8910   25.0490 C   0  0  0  0  0  0  0  0  0  0  0  0
    5.0430   -1.6110   24.6400 C   0  0  0  0  0  0  0  0  0  0  0  0
    6.3610   -0.9050   24.2850 C   0  0  2  0  0  0  0  0  0  0  0  0
    6.1950    0.5040   24.5950 O   0  0  0  0  0  0  0  0  0  0  0  0
    6.6510    1.4580   23.7330 C   0  0  0  0  0  0  0  0  0  0  0  0
    6.7960    2.7310   24.2800 C   0  0  0  0  0  0  0  0  0  0  0  0
    7.2550    3.7770   23.4820 C   0  0  0  0  0  0  0  0  0  0  0  0
    7.3820    5.0110   24.0520 O   0  0  0  0  0  0  0  0  0  0  0  0
    7.5700    3.5620   22.1450 C   0  0  0  0  0  0  0  0  0  0  0  0
    7.4160    2.2760   21.6190 C   0  0  0  0  0  0  0  0  0  0  0  0
    7.7290    2.0890   20.3050 O   0  0  0  0  0  0  0  0  0  0  0  0
    6.9570    1.2170   22.4050 C   0  0  0  0  0  0  0  0  0  0  0  0
    6.7930   -0.1560   21.8570 C   0  0  0  0  0  0  0  0  0  0  0  0
    7.0680   -1.2090   22.9250 C   0  0  1  0  0  0  0  0  0  0  0  0
    8.5310   -1.2070   23.0760 O   0  0  0  0  0  0  0  0  0  0  0  0
    9.0230   -2.2070   23.8380 C   0  0  0  0  0  0  0  0  0  0  0  0
    7.8790   -2.5820   23.9810 O   0  0  0  0  0  0  0  0  0  0  0  0
   10.2600   -1.4790   23.4520 C   0  0  0  0  0  0  0  0  0  0  0  0
   10.4480   -0.0850   23.4360 C   0  0  0  0  0  0  0  0  0  0  0  0
   11.6980    0.4090   23.0600 C   0  0  0  0  0  0  0  0  0  0  0  0
   11.9410    1.7560   23.0270 O   0  0  0  0  0  0  0  0  0  0  0  0
   12.7150   -0.4500   22.7140 C   0  0  0  0  0  0  0  0  0  0  0  0
   13.8930    0.0880   22.3670 O   0  0  0  0  0  0  0  0  0  0  0  0
   12.5150   -1.8110   22.7230 C   0  0  0  0  0  0  0  0  0  0  0  0
   13.5220   -2.6500   22.3690 O   0  0  0  0  0  0  0  0  0  0  0  0
   11.3050   -2.3160   23.0900 C   0  0  0  0  0  0  0  0  0  0  0  0
    4.9090   -3.0210   24.5740 C   0  0  0  0  0  0  0  0  0  0  0  0
    5.9720   -3.7980   24.1830 O   0  0  0  0  0  0  0  0  0  0  0  0
  1  2  1  0
  2  3  1  0
  3  4  1  0
  4  5  1  0
  5  6  1  0
  6  7  1  0
  7  8  1  0
  8  9  1  0
  9 10  1  0
 10 11  1  0
 11 12  1  0
 12 13  1  0
 13 14  1  0
 14 15  1  0
 15 16  1  0
 16 17  2  0
 16 18  1  0
 18 19  1  0
 19 20  2  0
 20 21  1  0
 20 22  1  0
 22 23  2  0
 23 24  1  0
 25 24  1  6
 25 26  1  0
 26 27  1  0
 27 28  2  0
 28 29  1  0
 29 30  1  0
 29 31  2  0
 31 32  1  0
 32 33  1  0
 27 34  1  0
 32 34  2  0
 34 35  1  0
 25 36  1  0
 35 36  1  0
 36 37  1  1
 37 38  1  0
 38 39  2  0
 38 40  1  0
 40 41  2  0
 41 42  1  0
 42 43  1  0
 42 44  2  0
 44 45  1  0
 44 46  1  0
 46 47  1  0
 40 48  1  0
 46 48  2  0
 19 49  1  0
 24 49  2  0
 49 50  1  0
M  END
