KTA-UNK-96ef4e68-1
     RDKit          3D

 21 23  0  0  0  0  0  0  0  0999 V2000
    3.7010    0.3730   24.7390 O   0  0  0  0  0  0  0  0  0  0  0  0
    4.5150   -0.5310   24.6910 C   0  0  0  0  0  0  0  0  0  0  0  0
    4.2150   -1.8270   25.2180 C   0  0  0  0  0  0  0  0  0  0  0  0
    5.2860   -2.8800   25.1010 C   0  0  0  0  0  0  0  0  0  0  0  0
    5.0150   -3.9870   25.5550 O   0  0  0  0  0  0  0  0  0  0  0  0
    6.5830   -2.5180   24.4550 C   0  0  0  0  0  0  0  0  0  0  0  0
    6.7380   -1.2120   23.9840 C   0  0  0  0  0  0  0  0  0  0  0  0
    5.7360   -0.2490   24.0990 C   0  0  0  0  0  0  0  0  0  0  0  0
    7.8780   -0.7770   23.3760 O   0  0  0  0  0  0  0  0  0  0  0  0
    8.9110   -1.7420   23.1410 C   0  0  1  0  0  0  0  0  0  0  0  0
   10.1870   -1.2130   23.0090 C   0  0  0  0  0  0  0  0  0  0  0  0
   10.5620    0.0230   23.4880 C   0  0  0  0  0  0  0  0  0  0  0  0
   11.8440    0.5000   23.3230 C   0  0  0  0  0  0  0  0  0  0  0  0
   12.7900   -0.3340   22.6350 C   0  0  0  0  0  0  0  0  0  0  0  0
   14.0200    0.1470   22.4870 O   0  0  0  0  0  0  0  0  0  0  0  0
   12.4080   -1.5900   22.1440 C   0  0  0  0  0  0  0  0  0  0  0  0
   13.2880   -2.3860   21.4810 O   0  0  0  0  0  0  0  0  0  0  0  0
   11.0990   -2.0570   22.3200 C   0  0  0  0  0  0  0  0  0  0  0  0
    8.9090   -2.7460   24.3210 C   0  0  2  0  0  0  0  0  0  0  0  0
    9.9230   -3.7290   24.1900 O   0  0  0  0  0  0  0  0  0  0  0  0
    7.7190   -3.4670   24.2810 C   0  0  0  0  0  0  0  0  0  0  0  0
  1  2  1  0
  2  3  2  0
  3  4  1  0
  4  5  1  0
  4  6  2  0
  6  7  1  0
  2  8  1  0
  7  8  2  0
  7  9  1  0
  9 10  1  0
 10 11  1  1
 11 12  2  0
 12 13  1  0
 13 14  2  0
 14 15  1  0
 14 16  1  0
 16 17  1  0
 11 18  1  0
 16 18  2  0
 10 19  1  0
 19 20  1  6
  6 21  1  0
 19 21  1  0
M  END
