KTA-UNK-dac325de-1
     RDKit          3D

 12 13  0  0  0  0  0  0  0  0999 V2000
    6.8410   -1.4000   24.8390 C   0  0  0  0  0  0  0  0  0  0  0  0
    7.9960   -2.1630   24.8610 N   0  0  0  0  0  0  0  0  0  0  0  0
    8.1350   -3.4520   25.4760 C   0  0  0  0  0  0  0  0  0  0  0  0
    8.7170   -4.2320   24.6470 C   0  0  0  0  0  0  0  0  0  0  0  0
    8.9330   -3.4780   23.4100 C   0  0  0  0  0  0  0  0  0  0  0  0
    8.7150   -2.1050   23.4760 C   0  0  2  0  0  0  0  0  0  0  0  0
   10.0070   -1.3000   23.1940 C   0  0  0  0  0  0  0  0  0  0  0  0
   10.2590   -0.0210   23.4620 C   0  0  0  0  0  0  0  0  0  0  0  0
   11.5340    0.6540   23.1940 C   0  0  0  0  0  0  0  0  0  0  0  0
   12.6290   -0.0750   22.5910 C   0  0  0  0  0  0  0  0  0  0  0  0
   12.3660   -1.4670   22.2600 N   0  0  0  0  0  0  0  0  0  0  0  0
   11.0940   -2.0090   22.5630 C   0  0  0  0  0  0  0  0  0  0  0  0
  1  2  1  0
  2  3  1  0
  3  4  1  0
  4  5  1  0
  2  6  1  0
  5  6  1  0
  6  7  1  1
  7  8  2  0
  8  9  1  0
  9 10  2  0
 10 11  1  0
  7 12  1  0
 11 12  2  0
M  END
