KTA-UNK-96ef4e68-2
     RDKit          3D

 33 36  0  0  0  0  0  0  0  0999 V2000
    7.9960   -2.0400   22.5990 O   0  0  0  0  0  0  0  0  0  0  0  0
    8.8680   -1.8670   23.4540 C   0  0  0  0  0  0  0  0  0  0  0  0
    8.8350   -2.2440   24.7760 O   0  0  0  0  0  0  0  0  0  0  0  0
    7.5840   -2.7880   25.2280 C   0  0  1  0  0  0  0  0  0  0  0  0
    7.6690   -4.2150   25.6040 C   0  0  0  0  0  0  0  0  0  0  0  0
    6.2630   -4.7480   25.6430 C   0  0  0  0  0  0  0  0  0  0  0  0
    5.6090   -5.7840   24.7390 C   0  0  0  0  0  0  0  0  0  0  0  0
    6.1830   -6.4310   23.6770 O   0  0  0  0  0  0  0  0  0  0  0  0
    4.3390   -6.0630   25.0330 C   0  0  0  0  0  0  0  0  0  0  0  0
    3.5160   -5.4770   26.1120 C   0  0  0  0  0  0  0  0  0  0  0  0
    2.3530   -5.7960   26.3120 O   0  0  0  0  0  0  0  0  0  0  0  0
    4.1950   -4.4400   26.9600 C   0  0  0  0  0  0  0  0  0  0  0  0
    5.6180   -4.1160   26.6450 C   0  0  0  0  0  0  0  0  0  0  0  0
    6.2940   -3.1570   27.3470 O   0  0  0  0  0  0  0  0  0  0  0  0
    6.7840   -2.1170   26.4180 C   0  0  1  0  0  0  0  0  0  0  0  0
    7.1980   -0.9120   27.2300 C   0  0  0  0  0  0  0  0  0  0  0  0
    6.5120    0.2450   27.0020 C   0  0  0  0  0  0  0  0  0  0  0  0
    6.8000    1.4560   27.7290 C   0  0  0  0  0  0  0  0  0  0  0  0
    6.1170    2.6340   27.5170 O   0  0  0  0  0  0  0  0  0  0  0  0
    7.7660    1.4310   28.6460 C   0  0  0  0  0  0  0  0  0  0  0  0
    8.0370    2.5780   29.3460 O   0  0  0  0  0  0  0  0  0  0  0  0
    8.5340    0.1920   28.9130 C   0  0  0  0  0  0  0  0  0  0  0  0
    9.5260    0.1490   29.8460 O   0  0  0  0  0  0  0  0  0  0  0  0
    8.2270   -0.9590   28.1910 C   0  0  0  0  0  0  0  0  0  0  0  0
   10.1570   -1.2040   23.2130 C   0  0  0  0  0  0  0  0  0  0  0  0
   10.4080    0.0610   23.7270 C   0  0  0  0  0  0  0  0  0  0  0  0
   11.6990    0.7300   23.5150 C   0  0  0  0  0  0  0  0  0  0  0  0
   11.9910    1.9520   23.9640 O   0  0  0  0  0  0  0  0  0  0  0  0
   12.7310   -0.1100   22.6980 C   0  0  0  0  0  0  0  0  0  0  0  0
   13.9500    0.4220   22.4800 O   0  0  0  0  0  0  0  0  0  0  0  0
   12.4370   -1.3460   22.2010 C   0  0  0  0  0  0  0  0  0  0  0  0
   13.3670   -2.0250   21.4870 O   0  0  0  0  0  0  0  0  0  0  0  0
   11.1910   -1.9070   22.4270 C   0  0  0  0  0  0  0  0  0  0  0  0
  1  2  2  0
  2  3  1  0
  4  3  1  1
  4  5  1  0
  5  6  1  0
  6  7  2  0
  7  8  1  0
  7  9  1  0
  9 10  2  0
 10 11  1  0
 10 12  1  0
  6 13  1  0
 12 13  2  0
 13 14  1  0
  4 15  1  0
 14 15  1  0
 15 16  1  1
 16 17  2  0
 17 18  1  0
 18 19  1  0
 18 20  2  0
 20 21  1  0
 20 22  1  0
 22 23  1  0
 16 24  1  0
 22 24  2  0
  2 25  1  0
 25 26  2  0
 26 27  1  0
 27 28  1  0
 27 29  2  0
 29 30  1  0
 29 31  1  0
 31 32  1  0
 25 33  1  0
 31 33  2  0
M  END
