KUS-THE-322b9b63-9
     RDKit          3D

 25 27  0  0  0  0  0  0  0  0999 V2000
    4.2170   -1.0710   25.2570 C   0  0  0  0  0  0  0  0  0  0  0  0
    5.5390   -0.4570   25.6510 C   0  0  0  0  0  0  0  0  0  0  0  0
    6.6870   -0.4100   24.8130 C   0  0  0  0  0  0  0  0  0  0  0  0
    7.6500    0.2170   25.5410 C   0  0  0  0  0  0  0  0  0  0  0  0
    8.9650    0.4960   25.1320 C   0  0  0  0  0  0  0  0  0  0  0  0
    9.6190   -0.5310   24.5130 C   0  0  2  0  0  0  0  0  0  0  0  0
   10.8420   -0.2160   23.9180 C   0  0  0  0  0  0  0  0  0  0  0  0
   11.0890   -1.2320   22.9400 N   0  0  0  0  0  0  0  0  0  0  0  0
   11.0560   -2.5540   23.5630 C   0  0  0  0  0  0  0  0  0  0  0  0
   12.2730   -2.6240   24.4310 C   0  0  0  0  0  0  0  0  0  0  0  0
   12.7080   -3.4710   25.4620 C   0  0  0  0  0  0  0  0  0  0  0  0
   13.8640   -3.4760   26.2070 C   0  0  0  0  0  0  0  0  0  0  0  0
   14.6250   -2.3940   25.7690 C   0  0  0  0  0  0  0  0  0  0  0  0
   16.0940   -1.9170   26.3420 C   0  0  0  0  0  0  0  0  0  0  0  0
   17.7000   -2.1480   25.8070 C   0  0  0  0  0  0  0  0  0  0  0  0
   19.2840   -1.5370   25.8210 C   0  0  0  0  0  0  0  0  0  0  0  0
   20.4500   -2.5110   25.7950 C   0  0  0  0  0  0  0  0  0  0  0  0
   19.8490   -0.8180   27.0300 C   0  0  0  0  0  0  0  0  0  0  0  0
   19.5910   -0.8210   24.8650 O   0  0  0  0  0  0  0  0  0  0  0  0
   13.6000   -1.5960   24.4100 S   0  0  0  0  0  0  0  0  0  0  0  0
    9.9960   -1.0820   22.1430 C   0  0  0  0  0  0  0  0  0  0  0  0
    8.8950   -0.8900   23.1940 C   0  0  1  0  0  0  0  0  0  0  0  0
    8.0870   -2.0550   23.3180 O   0  0  0  0  0  0  0  0  0  0  0  0
    7.2240    0.5410   26.6750 O   0  0  0  0  0  0  0  0  0  0  0  0
    5.8610    0.1260   26.8020 N   0  0  0  0  0  0  0  0  0  0  0  0
  1  2  1  0
  2  3  1  0
  3  4  2  0
  4  5  1  0
  6  5  1  6
  6  7  1  0
  7  8  1  0
  8  9  1  0
  9 10  1  0
 10 11  2  0
 11 12  1  0
 12 13  2  0
 13 14  1  0
 14 15  3  0
 16 15  1  0
 16 17  1  0
 16 18  1  0
 16 19  1  0
 10 20  1  0
 13 20  1  0
  8 21  1  0
  6 22  1  0
 21 22  1  0
 22 23  1  1
  4 24  1  0
  2 25  2  0
 24 25  1  0
M  END
