KUS-THE-322b9b63-18
     RDKit          3D

 24 27  0  0  0  0  0  0  0  0999 V2000
    7.1290   -1.3340   19.1620 C   0  0  0  0  0  0  0  0  0  0  0  0
    6.7760   -1.7030   20.5540 C   0  0  1  0  0  0  0  0  0  0  0  0
    7.7250   -2.3180   21.3430 C   0  0  0  0  0  0  0  0  0  0  0  0
    7.6680   -2.0650   22.6030 N   0  0  0  0  0  0  0  0  0  0  0  0
    8.8090   -2.1030   23.3150 C   0  0  0  0  0  0  0  0  0  0  0  0
    8.7380   -2.6510   24.4010 O   0  0  0  0  0  0  0  0  0  0  0  0
   10.0600   -1.6080   23.0200 C   0  0  0  0  0  0  0  0  0  0  0  0
   11.0280   -2.0100   22.2000 N   0  0  0  0  0  0  0  0  0  0  0  0
   12.0290   -1.0450   22.4230 N   0  0  0  0  0  0  0  0  0  0  0  0
   11.8780    0.1060   23.3800 C   0  0  0  0  0  0  0  0  0  0  0  0
   10.7670   -0.4830   23.5000 C   0  0  0  0  0  0  0  0  0  0  0  0
   11.5900   -1.3370   22.4540 C   0  0  0  0  0  0  0  0  0  0  0  0
   13.1050   -0.9940   22.2520 C   0  0  0  0  0  0  0  0  0  0  0  0
   13.1010    0.3120   22.9240 C   0  0  0  0  0  0  0  0  0  0  0  0
    6.7100   -1.1420   22.7350 C   0  0  0  0  0  0  0  0  0  0  0  0
    6.4710   -0.5130   21.5160 C   0  0  2  0  0  0  0  0  0  0  0  0
    5.2740    0.0690   21.3200 N   0  0  0  0  0  0  0  0  0  0  0  0
    4.5130   -0.3110   20.1700 C   0  0  0  0  0  0  0  0  0  0  0  0
    4.7070    0.6030   19.2220 C   0  0  0  0  0  0  0  0  0  0  0  0
    5.6030    0.4260   18.1790 N   0  0  0  0  0  0  0  0  0  0  0  0
    5.6190    1.4690   17.3730 N   0  0  0  0  0  0  0  0  0  0  0  0
    4.5700    2.6950   17.8360 S   0  0  0  0  0  0  0  0  0  0  0  0
    4.0180    1.7710   19.2420 C   0  0  0  0  0  0  0  0  0  0  0  0
    2.8400    2.2250   20.4350 Cl  0  0  0  0  0  0  0  0  0  0  0  0
  2  1  1  6
  2  3  1  0
  3  4  1  0
  4  5  1  0
  5  6  2  0
  5  7  1  0
  7  8  2  0
  8  9  1  0
  9 10  1  0
  7 11  1  0
 10 11  2  0
 11 12  1  0
 12 13  1  0
 10 14  1  0
 13 14  1  0
  4 15  1  0
  2 16  1  0
 15 16  1  0
 16 17  1  1
 17 18  1  0
 18 19  1  0
 19 20  1  0
 20 21  2  0
 21 22  1  0
 19 23  2  0
 22 23  1  0
 23 24  1  0
M  END
