KUS-THE-322b9b63-25
     RDKit          3D

 30 33  0  0  0  0  0  0  0  0999 V2000
    2.8860   -6.1560   23.2110 C   0  0  0  0  0  0  0  0  0  0  0  0
    4.2030   -5.4810   23.1480 C   0  0  2  0  0  0  0  0  0  0  0  0
    5.2460   -6.1500   23.7750 C   0  0  0  0  0  0  0  0  0  0  0  0
    6.6490   -5.7690   23.4060 C   0  0  0  0  0  0  0  0  0  0  0  0
    6.8870   -4.7740   22.4630 C   0  0  0  0  0  0  0  0  0  0  0  0
    6.3350   -3.4400   22.7560 N   0  0  0  0  0  0  0  0  0  0  0  0
    6.0300   -2.6750   21.6630 C   0  0  0  0  0  0  0  0  0  0  0  0
    5.2450   -2.9920   20.5850 N   0  0  0  0  0  0  0  0  0  0  0  0
    5.2170   -1.9430   19.7360 N   0  0  0  0  0  0  0  0  0  0  0  0
    6.0120   -0.9340   20.3050 C   0  0  0  0  0  0  0  0  0  0  0  0
    6.2760    0.4280   19.7210 C   0  0  1  0  0  0  0  0  0  0  0  0
    5.6910    0.6340   18.3240 C   0  0  0  0  0  0  0  0  0  0  0  0
    4.5130    1.5570   18.5040 C   0  0  0  0  0  0  0  0  0  0  0  0
    4.6130    2.0130   19.9190 C   0  0  0  0  0  0  0  0  0  0  0  0
    3.7890    2.6420   20.5630 O   0  0  0  0  0  0  0  0  0  0  0  0
    5.8420    1.5630   20.3730 N   0  0  0  0  0  0  0  0  0  0  0  0
    6.5140   -1.3910   21.4900 N   0  0  0  0  0  0  0  0  0  0  0  0
    7.3860   -0.6530   22.3760 C   0  0  0  0  0  0  0  0  0  0  0  0
    8.5110   -0.2300   21.6560 C   0  0  0  0  0  0  0  0  0  0  0  0
    8.6120    0.9250   21.2390 O   0  0  0  0  0  0  0  0  0  0  0  0
    9.4500   -1.2230   21.4990 N   0  0  0  0  0  0  0  0  0  0  0  0
   10.5070   -1.4030   22.3810 C   0  0  0  0  0  0  0  0  0  0  0  0
   10.2910   -1.2920   23.7280 C   0  0  0  0  0  0  0  0  0  0  0  0
   11.2730   -1.4590   24.6720 C   0  0  0  0  0  0  0  0  0  0  0  0
   12.6900   -1.7730   24.2280 C   0  0  0  0  0  0  0  0  0  0  0  0
   13.6420   -1.9440   25.1380 F   0  0  0  0  0  0  0  0  0  0  0  0
   12.9670   -1.8940   22.7420 C   0  0  0  0  0  0  0  0  0  0  0  0
   11.7670   -1.6940   21.8590 C   0  0  0  0  0  0  0  0  0  0  0  0
    5.3850   -3.3390   23.8730 C   0  0  0  0  0  0  0  0  0  0  0  0
    4.0470   -4.0340   23.6410 C   0  0  0  0  0  0  0  0  0  0  0  0
  2  1  1  1
  2  3  1  0
  3  4  1  0
  4  5  1  0
  5  6  1  0
  6  7  1  0
  7  8  2  0
  8  9  1  0
  9 10  2  0
 11 10  1  1
 11 12  1  0
 12 13  1  0
 13 14  1  0
 14 15  2  0
 11 16  1  0
 14 16  1  0
  7 17  1  0
 10 17  1  0
 17 18  1  0
 18 19  1  0
 19 20  2  0
 19 21  1  0
 21 22  1  0
 22 23  2  0
 23 24  1  0
 24 25  2  0
 25 26  1  0
 25 27  1  0
 22 28  1  0
 27 28  2  0
  6 29  1  0
  2 30  1  0
 29 30  1  0
M  END
