KUS-THE-322b9b63-10
     RDKit          3D

 26 29  0  0  0  0  0  0  0  0999 V2000
    4.4730   -0.0460   17.6150 O   0  0  0  0  0  0  0  0  0  0  0  0
    4.5610    0.8490   18.4270 C   0  0  0  0  0  0  0  0  0  0  0  0
    3.4420    1.6550   19.0300 C   0  0  0  0  0  0  0  0  0  0  0  0
    3.0610    2.8940   18.6930 C   0  0  0  0  0  0  0  0  0  0  0  0
    1.9340    3.3140   19.5270 C   0  0  0  0  0  0  0  0  0  0  0  0
    1.6850    2.2920   20.3500 N   0  0  0  0  0  0  0  0  0  0  0  0
    2.6010    1.2560   20.0710 N   0  0  0  0  0  0  0  0  0  0  0  0
    5.7510    1.2230   18.9270 N   0  0  0  0  0  0  0  0  0  0  0  0
    6.7130    0.3670   19.4460 C   0  0  0  0  0  0  0  0  0  0  0  0
    6.4590    0.3120   20.9670 C   0  0  1  0  0  0  0  0  0  0  0  0
    7.5570    0.1190   21.9380 N   0  0  0  0  0  0  0  0  0  0  0  0
    8.6170   -0.8470   21.6760 C   0  0  0  0  0  0  0  0  0  0  0  0
    8.2210   -2.2210   22.2640 C   0  0  0  0  0  0  0  0  0  0  0  0
    9.0750   -2.9700   23.0830 N   0  0  0  0  0  0  0  0  0  0  0  0
    8.3150   -4.1120   23.3690 O   0  0  0  0  0  0  0  0  0  0  0  0
    7.1220   -3.9560   22.7260 C   0  0  0  0  0  0  0  0  0  0  0  0
    5.9630   -4.9730   22.7400 C   0  0  0  0  0  0  0  0  0  0  0  0
    5.9680   -5.8720   21.7330 C   0  0  0  0  0  0  0  0  0  0  0  0
    6.3180   -6.5230   22.9820 C   0  0  0  0  0  0  0  0  0  0  0  0
    6.9990   -2.8070   22.0320 N   0  0  0  0  0  0  0  0  0  0  0  0
    6.1440    1.7880   21.1640 C   0  0  2  0  0  0  0  0  0  0  0  0
    5.4900    2.0880   22.3660 C   0  0  0  0  0  0  0  0  0  0  0  0
    5.4320    0.9880   23.1410 F   0  0  0  0  0  0  0  0  0  0  0  0
    4.2350    2.5190   22.1420 F   0  0  0  0  0  0  0  0  0  0  0  0
    6.1340    3.0480   23.0620 F   0  0  0  0  0  0  0  0  0  0  0  0
    5.3730    2.1600   19.9410 C   0  0  0  0  0  0  0  0  0  0  0  0
  1  2  2  0
  2  3  1  0
  3  4  1  0
  4  5  2  0
  5  6  1  0
  3  7  2  0
  6  7  1  0
  2  8  1  0
  8  9  1  0
  9 10  1  0
 10 11  1  1
 11 12  1  0
 12 13  1  0
 13 14  2  0
 14 15  1  0
 15 16  1  0
 16 17  1  0
 17 18  1  0
 17 19  1  0
 18 19  1  0
 13 20  1  0
 16 20  2  0
 10 21  1  0
 21 22  1  1
 22 23  1  0
 22 24  1  0
 22 25  1  0
  8 26  1  0
 21 26  1  0
M  END
