KUS-THE-322b9b63-13
     RDKit          3D

 30 33  0  0  0  0  0  0  0  0999 V2000
    6.9150   -1.7950   20.1200 C   0  0  0  0  0  0  0  0  0  0  0  0
    6.0530   -2.9460   20.5480 C   0  0  0  0  0  0  0  0  0  0  0  0
    5.3470   -3.4640   19.4890 C   0  0  0  0  0  0  0  0  0  0  0  0
    6.7550   -3.9210   21.2370 N   0  0  0  0  0  0  0  0  0  0  0  0
    5.9830   -4.7380   21.9780 C   0  0  0  0  0  0  0  0  0  0  0  0
    5.4880   -4.2630   23.1840 C   0  0  0  0  0  0  0  0  0  0  0  0
    6.2800   -3.4900   24.0660 C   0  0  0  0  0  0  0  0  0  0  0  0
    7.3310   -4.3900   24.5010 O   0  0  0  0  0  0  0  0  0  0  0  0
    5.6780   -2.7330   25.2530 C   0  0  0  0  0  0  0  0  0  0  0  0
    6.5220   -2.7420   26.3200 N   0  0  0  0  0  0  0  0  0  0  0  0
    6.9380   -3.8690   26.0630 C   0  0  0  0  0  0  0  0  0  0  0  0
    7.8840   -4.7110   26.6050 C   0  0  0  0  0  0  0  0  0  0  0  0
    8.2870   -4.7620   27.8520 C   0  0  0  0  0  0  0  0  0  0  0  0
    9.2600   -5.7590   27.9190 C   0  0  0  0  0  0  0  0  0  0  0  0
    9.4760   -6.3510   26.7370 C   0  0  0  0  0  0  0  0  0  0  0  0
    8.5740   -5.6790   25.8090 N   0  0  0  0  0  0  0  0  0  0  0  0
    6.1070   -3.9200   25.0600 N   0  0  0  0  0  0  0  0  0  0  0  0
    5.4730   -2.6660   25.1160 N   0  0  0  0  0  0  0  0  0  0  0  0
    5.8240   -1.7270   26.1610 C   0  0  0  0  0  0  0  0  0  0  0  0
    6.3980   -1.1360   27.2500 N   0  0  0  0  0  0  0  0  0  0  0  0
    6.1920    0.3110   27.2960 C   0  0  0  0  0  0  0  0  0  0  0  0
    6.1910   -1.7810   28.5610 C   0  0  0  0  0  0  0  0  0  0  0  0
    6.4800   -0.9890   29.8310 C   0  0  0  0  0  0  0  0  0  0  0  0
    5.4940   -0.3450   30.5720 C   0  0  0  0  0  0  0  0  0  0  0  0
    5.9840    0.2820   31.6460 N   0  0  0  0  0  0  0  0  0  0  0  0
    7.3070    0.0270   31.5820 N   0  0  0  0  0  0  0  0  0  0  0  0
    8.1940    0.5460   32.6000 C   0  0  0  0  0  0  0  0  0  0  0  0
    7.6530   -0.7320   30.5060 C   0  0  0  0  0  0  0  0  0  0  0  0
    7.1030   -2.5190   23.2080 C   0  0  0  0  0  0  0  0  0  0  0  0
    7.7750   -3.3120   22.0950 C   0  0  0  0  0  0  0  0  0  0  0  0
  1  2  1  0
  2  3  1  0
  2  4  1  0
  4  5  1  0
  5  6  1  0
  6  7  1  0
  7  8  1  0
  7  9  1  0
  9 10  1  0
 10 11  1  0
 11 12  1  0
 12 13  2  0
 13 14  1  0
 14 15  2  0
 12 16  1  0
 15 16  1  0
 11 17  2  0
 17 18  1  0
 10 19  1  0
 18 19  2  0
 19 20  1  0
 20 21  1  0
 20 22  1  0
 22 23  1  0
 23 24  1  0
 24 25  2  0
 25 26  1  0
 26 27  1  0
 23 28  2  0
 26 28  1  0
  7 29  1  0
  4 30  1  0
 29 30  1  0
M  END
