KUS-THE-322b9b63-22
     RDKit          3D

 25 28  0  0  0  0  0  0  0  0999 V2000
    8.2410   -4.5460   26.1740 C   0  0  0  0  0  0  0  0  0  0  0  0
    8.2220   -3.9240   24.7980 C   0  0  0  0  0  0  0  0  0  0  0  0
    7.5040   -4.5380   23.8130 N   0  0  0  0  0  0  0  0  0  0  0  0
    7.6270   -3.8400   22.6400 N   0  0  0  0  0  0  0  0  0  0  0  0
    8.3980   -2.7550   22.7330 C   0  0  0  0  0  0  0  0  0  0  0  0
    8.7010   -1.9060   21.6660 C   0  0  0  0  0  0  0  0  0  0  0  0
    8.7320   -0.4690   21.9140 N   0  0  0  0  0  0  0  0  0  0  0  0
    9.7000    0.3010   22.5520 C   0  0  0  0  0  0  0  0  0  0  0  0
   10.9210   -0.0960   23.1050 C   0  0  2  0  0  0  0  0  0  0  0  0
   12.0300    0.7270   22.9450 C   0  0  0  0  0  0  0  0  0  0  0  0
   13.0370   -0.2680   22.5310 C   0  0  0  0  0  0  0  0  0  0  0  0
   12.5790   -1.7140   22.4620 C   0  0  0  0  0  0  0  0  0  0  0  0
   13.7280   -1.9120   22.7240 O   0  0  0  0  0  0  0  0  0  0  0  0
   11.3880   -1.0820   22.1760 N   0  0  0  0  0  0  0  0  0  0  0  0
    9.2920    1.5560   22.5370 N   0  0  0  0  0  0  0  0  0  0  0  0
    8.0910    1.6210   21.8830 N   0  0  0  0  0  0  0  0  0  0  0  0
    7.7600    0.4120   21.4930 C   0  0  0  0  0  0  0  0  0  0  0  0
    6.6450    0.0180   20.7580 N   0  0  0  0  0  0  0  0  0  0  0  0
    7.1350   -0.3950   19.4410 C   0  0  0  0  0  0  0  0  0  0  0  0
    5.9750   -0.8010   18.6190 C   0  0  0  0  0  0  0  0  0  0  0  0
    5.3980    0.4280   18.1900 N   0  0  0  0  0  0  0  0  0  0  0  0
    5.2400    1.3840   19.1510 C   0  0  0  0  0  0  0  0  0  0  0  0
    4.7870    2.4740   18.8330 O   0  0  0  0  0  0  0  0  0  0  0  0
    5.5760    1.1000   20.5160 C   0  0  0  0  0  0  0  0  0  0  0  0
    9.0300   -2.4920   24.3270 S   0  0  0  0  0  0  0  0  0  0  0  0
  1  2  1  0
  2  3  2  0
  3  4  1  0
  4  5  2  0
  5  6  1  0
  6  7  1  0
  7  8  1  0
  9  8  1  6
  9 10  1  0
 10 11  1  0
 11 12  1  0
 12 13  2  0
  9 14  1  0
 12 14  1  0
  8 15  2  0
 15 16  1  0
  7 17  1  0
 16 17  2  0
 17 18  1  0
 18 19  1  0
 19 20  1  0
 20 21  1  0
 21 22  1  0
 22 23  2  0
 18 24  1  0
 22 24  1  0
  2 25  1  0
  5 25  1  0
M  END
