KUS-THE-322b9b63-17
     RDKit          3D

 25 28  0  0  0  0  0  0  0  0999 V2000
   -0.4300    4.8640   12.7450 O   0  0  0  0  0  0  0  0  0  0  0  0
   -0.6720    5.1870   13.9010 C   0  0  0  0  0  0  0  0  0  0  0  0
   -0.8650    5.9760   15.1740 C   0  0  0  0  0  0  0  0  0  0  0  0
    0.2870    6.3530   15.8470 N   0  0  0  0  0  0  0  0  0  0  0  0
    1.1120    5.3980   16.6220 C   0  0  0  0  0  0  0  0  0  0  0  0
    0.5970    4.6000   17.7250 N   0  0  0  0  0  0  0  0  0  0  0  0
    1.5620    3.8150   18.2200 N   0  0  0  0  0  0  0  0  0  0  0  0
    2.7100    3.9780   17.5810 C   0  0  0  0  0  0  0  0  0  0  0  0
    4.0510    3.0050   18.1160 C   0  0  1  0  0  0  0  0  0  0  0  0
    4.5250    3.0240   19.6070 C   0  0  0  0  0  0  0  0  0  0  0  0
    5.1540    1.8230   19.9410 C   0  0  0  0  0  0  0  0  0  0  0  0
    4.7900    0.9750   18.9580 C   0  0  0  0  0  0  0  0  0  0  0  0
    5.2120   -0.1610   18.8320 O   0  0  0  0  0  0  0  0  0  0  0  0
    3.9080    1.5510   18.1280 N   0  0  0  0  0  0  0  0  0  0  0  0
    2.4690    5.1080   16.4360 N   0  0  0  0  0  0  0  0  0  0  0  0
    3.3650    5.9280   15.2160 C   0  0  0  0  0  0  0  0  0  0  0  0
    5.0110    6.6810   15.2260 C   0  0  0  0  0  0  0  0  0  0  0  0
    7.0530    6.4520   15.6370 C   0  0  0  0  0  0  0  0  0  0  0  0
    8.0290    7.6560   16.5660 C   0  0  0  0  0  0  0  0  0  0  0  0
    9.4300    7.6310   16.5520 C   0  0  0  0  0  0  0  0  0  0  0  0
   11.0360    5.2190   16.0680 S   0  0  0  0  0  0  0  0  0  0  0  0
    8.5110    5.2540   15.6510 C   0  0  0  0  0  0  0  0  0  0  0  0
    1.0130    7.3730   15.0680 C   0  0  0  0  0  0  0  0  0  0  0  0
    0.9570    7.0380   13.7020 C   0  0  0  0  0  0  0  0  0  0  0  0
   -0.3360    6.4370   13.4260 N   0  0  0  0  0  0  0  0  0  0  0  0
  1  2  2  0
  2  3  1  0
  3  4  1  0
  4  5  1  0
  5  6  2  0
  6  7  1  0
  7  8  2  0
  9  8  1  1
  9 10  1  0
 10 11  1  0
 11 12  1  0
 12 13  2  0
  9 14  1  0
 12 14  1  0
  5 15  1  0
  8 15  1  0
 15 16  1  0
 16 17  1  0
 17 18  1  0
 18 19  1  0
 19 20  2  0
 20 21  1  0
 18 22  2  0
 21 22  1  0
  4 23  1  0
 23 24  1  0
  2 25  1  0
 24 25  1  0
M  END
