KUS-THE-322b9b63-12
     RDKit          3D

 30 33  0  0  0  0  0  0  0  0999 V2000
    3.5500   -3.5270   12.1760 C   0  0  0  0  0  0  0  0  0  0  0  0
    4.8660   -3.0990   12.6910 C   0  0  0  0  0  0  0  0  0  0  0  0
    6.0910   -3.2890   14.2020 S   0  0  0  0  0  0  0  0  0  0  0  0
    6.4000   -2.7640   17.0300 C   0  0  0  0  0  0  0  0  0  0  0  0
    7.0610   -3.0010   18.2820 C   0  0  0  0  0  0  0  0  0  0  0  0
    6.8760   -2.3380   19.5360 C   0  0  0  0  0  0  0  0  0  0  0  0
    7.5180   -2.6040   20.6870 C   0  0  0  0  0  0  0  0  0  0  0  0
    6.5390   -2.0840   21.6370 N   0  0  0  0  0  0  0  0  0  0  0  0
    6.3580   -0.7880   22.0890 C   0  0  0  0  0  0  0  0  0  0  0  0
    7.2600    0.3640   21.6120 C   0  0  2  0  0  0  0  0  0  0  0  0
    8.6650    0.1310   22.2250 C   0  0  0  0  0  0  0  0  0  0  0  0
    8.5490    1.4680   22.7600 C   0  0  0  0  0  0  0  0  0  0  0  0
    7.5440    2.4610   22.7470 C   0  0  0  0  0  0  0  0  0  0  0  0
    7.4580    3.5910   23.2180 O   0  0  0  0  0  0  0  0  0  0  0  0
    6.6330    1.7010   21.9890 N   0  0  0  0  0  0  0  0  0  0  0  0
    5.2770   -0.7790   22.9730 N   0  0  0  0  0  0  0  0  0  0  0  0
    4.7750   -2.0530   23.0860 N   0  0  0  0  0  0  0  0  0  0  0  0
    5.5700   -2.9520   22.2340 C   0  0  0  0  0  0  0  0  0  0  0  0
    5.5730   -4.3620   21.9430 N   0  0  0  0  0  0  0  0  0  0  0  0
    4.8270   -5.1800   22.6280 C   0  0  0  0  0  0  0  0  0  0  0  0
    5.1360   -5.2230   24.1100 C   0  0  0  0  0  0  0  0  0  0  0  0
    5.8710   -3.9090   24.2730 C   0  0  0  0  0  0  0  0  0  0  0  0
    5.9310   -3.4590   25.7190 C   0  0  0  0  0  0  0  0  0  0  0  0
    6.8990   -2.5680   26.0480 N   0  0  0  0  0  0  0  0  0  0  0  0
    5.1400   -3.8330   26.5630 O   0  0  0  0  0  0  0  0  0  0  0  0
    7.1910   -4.0040   23.5150 C   0  0  0  0  0  0  0  0  0  0  0  0
    6.9200   -4.6930   22.2740 C   0  0  0  0  0  0  0  0  0  0  0  0
    5.9860   -1.3160   19.6380 C   0  0  0  0  0  0  0  0  0  0  0  0
    5.3170   -0.9870   18.4310 C   0  0  0  0  0  0  0  0  0  0  0  0
    5.5480   -1.6550   17.3160 N   0  0  0  0  0  0  0  0  0  0  0  0
  1  2  1  0
  2  3  1  0
  3  4  1  0
  4  5  2  0
  5  6  1  0
  6  7  1  0
  7  8  1  0
  8  9  1  0
 10  9  1  1
 10 11  1  0
 11 12  1  0
 12 13  1  0
 13 14  2  0
 10 15  1  0
 13 15  1  0
  9 16  2  0
 16 17  1  0
  8 18  1  0
 17 18  2  0
 18 19  1  0
 19 20  1  0
 20 21  1  0
 21 22  1  0
 22 23  1  0
 23 24  1  0
 23 25  2  0
 22 26  1  0
 19 27  1  0
 26 27  1  0
  6 28  2  0
 28 29  1  0
  4 30  1  0
 29 30  2  0
M  END
