KUS-THE-322b9b63-4
     RDKit          3D

 25 28  0  0  0  0  0  0  0  0999 V2000
    9.2960   -2.4190   22.0170 C   0  0  0  0  0  0  0  0  0  0  0  0
    9.9370   -2.0550   23.3270 C   0  0  2  0  0  0  0  0  0  0  0  0
    9.5320   -0.9520   23.8670 C   0  0  0  0  0  0  0  0  0  0  0  0
    9.9250    0.2650   23.0740 C   0  0  0  0  0  0  0  0  0  0  0  0
   11.1400    0.3030   22.5630 N   0  0  0  0  0  0  0  0  0  0  0  0
   11.9590    1.3970   22.8380 C   0  0  0  0  0  0  0  0  0  0  0  0
   13.1250    1.2160   23.1050 O   0  0  0  0  0  0  0  0  0  0  0  0
   11.3810    2.8120   22.7830 C   0  0  0  0  0  0  0  0  0  0  0  0
   12.3460    3.9710   22.6530 C   0  0  0  0  0  0  0  0  0  0  0  0
   11.3490    5.1230   22.6370 C   0  0  0  0  0  0  0  0  0  0  0  0
    9.9890    4.5340   22.7560 N   0  0  0  0  0  0  0  0  0  0  0  0
   10.0080    3.1460   22.8440 N   0  0  0  0  0  0  0  0  0  0  0  0
   11.7210   -0.9510   22.2260 C   0  0  1  0  0  0  0  0  0  0  0  0
   13.2240   -0.9660   22.1460 C   0  0  0  0  0  0  0  0  0  0  0  0
   13.6740   -0.1880   20.9800 N   0  0  0  0  0  0  0  0  0  0  0  0
   14.1950   -0.4320   19.5520 C   0  0  0  0  0  0  0  0  0  0  0  0
   14.9730   -1.4340   19.1730 N   0  0  0  0  0  0  0  0  0  0  0  0
   15.7050   -2.4130   17.5200 C   0  0  0  0  0  0  0  0  0  0  0  0
   16.4890   -3.5040   17.1690 C   0  0  0  0  0  0  0  0  0  0  0  0
   16.8850   -4.2050   17.7380 C   0  0  0  0  0  0  0  0  0  0  0  0
   16.7180   -5.4830   16.8840 C   0  0  0  0  0  0  0  0  0  0  0  0
   16.0920   -5.0570   16.1010 C   0  0  0  0  0  0  0  0  0  0  0  0
   15.2200   -1.7460   16.4770 N   0  0  0  0  0  0  0  0  0  0  0  0
   14.1710    0.1460   17.8830 S   0  0  0  0  0  0  0  0  0  0  0  0
   11.3030   -2.0770   23.1830 C   0  0  0  0  0  0  0  0  0  0  0  0
  2  1  1  6
  2  3  1  0
  3  4  1  0
  4  5  1  0
  5  6  1  0
  6  7  2  0
  6  8  1  0
  8  9  1  0
  9 10  2  0
 10 11  1  0
  8 12  2  0
 11 12  1  0
  5 13  1  0
 13 14  1  1
 14 15  1  0
 15 16  1  0
 16 17  2  0
 17 18  1  0
 18 19  1  0
 19 20  1  0
 20 21  1  0
 19 22  1  0
 21 22  1  0
 18 23  2  0
 16 24  1  0
 23 24  1  0
  2 25  1  0
 13 25  1  0
M  END
