KUS-THE-322b9b63-19
     RDKit          3D

 27 30  0  0  0  0  0  0  0  0999 V2000
   13.4410   -2.4800   20.9470 C   0  0  0  0  0  0  0  0  0  0  0  0
   12.8630   -1.3680   21.6250 C   0  0  0  0  0  0  0  0  0  0  0  0
   11.5420   -1.6840   21.7200 C   0  0  0  0  0  0  0  0  0  0  0  0
   10.7440   -0.7880   22.2160 C   0  0  0  0  0  0  0  0  0  0  0  0
    9.5660   -1.3290   22.3530 N   0  0  0  0  0  0  0  0  0  0  0  0
    9.6040   -1.9290   23.5440 C   0  0  1  0  0  0  0  0  0  0  0  0
   10.8200   -2.5210   23.8800 C   0  0  0  0  0  0  0  0  0  0  0  0
   11.8440   -1.6270   24.3040 C   0  0  0  0  0  0  0  0  0  0  0  0
   11.4070   -0.3430   25.0140 C   0  0  0  0  0  0  0  0  0  0  0  0
    9.8740   -0.2480   25.2160 C   0  0  0  0  0  0  0  0  0  0  0  0
    9.2130   -0.7260   23.9800 C   0  0  2  0  0  0  0  0  0  0  0  0
    7.9100   -0.7820   23.6970 N   0  0  0  0  0  0  0  0  0  0  0  0
    7.5380   -0.1440   22.3890 C   0  0  0  0  0  0  0  0  0  0  0  0
    8.3440    0.3290   21.5750 O   0  0  0  0  0  0  0  0  0  0  0  0
    6.1470   -0.1250   22.1680 C   0  0  1  0  0  0  0  0  0  0  0  0
    5.5410    1.2180   21.7220 C   0  0  0  0  0  0  0  0  0  0  0  0
    5.9180    1.5840   20.2820 C   0  0  0  0  0  0  0  0  0  0  0  0
    5.4700    0.4990   19.3150 C   0  0  0  0  0  0  0  0  0  0  0  0
    5.5250    0.6150   18.0920 O   0  0  0  0  0  0  0  0  0  0  0  0
    4.9760   -0.6900   19.9970 N   0  0  0  0  0  0  0  0  0  0  0  0
    5.8420   -1.1700   21.0780 C   0  0  0  0  0  0  0  0  0  0  0  0
   11.2580    0.4690   22.6270 N   0  0  0  0  0  0  0  0  0  0  0  0
   10.6450    1.5720   23.1130 N   0  0  0  0  0  0  0  0  0  0  0  0
   11.6560    2.3650   23.2940 C   0  0  0  0  0  0  0  0  0  0  0  0
   12.8830    1.9040   22.9800 N   0  0  0  0  0  0  0  0  0  0  0  0
   12.5990    0.6570   22.5410 C   0  0  0  0  0  0  0  0  0  0  0  0
   13.4500   -0.2890   22.0470 N   0  0  0  0  0  0  0  0  0  0  0  0
  1  2  1  0
  2  3  1  0
  3  4  2  0
  4  5  1  0
  6  5  1  6
  6  7  1  0
  7  8  1  0
  8  9  1  0
  9 10  1  0
  6 11  1  0
 10 11  1  0
 11 12  1  1
 12 13  1  0
 13 14  2  0
 15 13  1  6
 15 16  1  0
 16 17  1  0
 17 18  1  0
 18 19  2  0
 18 20  1  0
 15 21  1  0
 20 21  1  0
  4 22  1  0
 22 23  1  0
 23 24  2  0
 24 25  1  0
 22 26  1  0
 25 26  2  0
  2 27  2  0
 26 27  1  0
M  END
