KUS-THE-322b9b63-16
     RDKit          3D

 30 33  0  0  0  0  0  0  0  0999 V2000
    5.8620   -0.2360   17.5970 N   0  0  0  0  0  0  0  0  0  0  0  0
    5.3280    0.9420   18.0990 C   0  0  0  0  0  0  0  0  0  0  0  0
    5.0600    2.0140   17.2260 O   0  0  0  0  0  0  0  0  0  0  0  0
    5.0830    1.0440   19.5910 C   0  0  0  0  0  0  0  0  0  0  0  0
    6.2610    1.4990   20.1430 C   0  0  0  0  0  0  0  0  0  0  0  0
    7.1530    0.4750   20.3900 C   0  0  0  0  0  0  0  0  0  0  0  0
    6.6960   -0.2050   21.5810 N   0  0  0  0  0  0  0  0  0  0  0  0
    7.6260   -1.2370   22.0830 C   0  0  0  0  0  0  0  0  0  0  0  0
    7.3620   -2.5710   21.9510 N   0  0  0  0  0  0  0  0  0  0  0  0
    8.2850   -3.2580   22.4240 N   0  0  0  0  0  0  0  0  0  0  0  0
    9.1890   -2.2960   22.8880 C   0  0  0  0  0  0  0  0  0  0  0  0
   10.4010   -2.7440   23.4620 C   0  0  1  0  0  0  0  0  0  0  0  0
   11.5140   -2.3680   22.8290 C   0  0  0  0  0  0  0  0  0  0  0  0
   12.7370   -2.1340   23.2630 C   0  0  0  0  0  0  0  0  0  0  0  0
   12.3470   -2.3140   24.5990 C   0  0  0  0  0  0  0  0  0  0  0  0
   13.2640   -2.3150   25.4180 O   0  0  0  0  0  0  0  0  0  0  0  0
   10.9370   -2.4780   24.7340 N   0  0  0  0  0  0  0  0  0  0  0  0
    8.8350   -0.8980   22.7320 N   0  0  0  0  0  0  0  0  0  0  0  0
   10.0750   -0.7500   23.3970 C   0  0  0  0  0  0  0  0  0  0  0  0
    9.8770    0.2360   24.5380 C   0  0  0  0  0  0  0  0  0  0  0  0
   10.7450    1.3210   23.9910 C   0  0  0  0  0  0  0  0  0  0  0  0
   11.9700    0.9510   23.5460 C   0  0  0  0  0  0  0  0  0  0  0  0
   12.8500    1.8180   23.0130 C   0  0  0  0  0  0  0  0  0  0  0  0
   13.9660    1.2130   22.6580 F   0  0  0  0  0  0  0  0  0  0  0  0
   12.6100    3.1960   22.8560 C   0  0  0  0  0  0  0  0  0  0  0  0
   11.4040    3.7420   23.2660 C   0  0  0  0  0  0  0  0  0  0  0  0
   11.1420    5.0480   23.1370 F   0  0  0  0  0  0  0  0  0  0  0  0
   10.3750    2.7950   23.8740 C   0  0  0  0  0  0  0  0  0  0  0  0
    5.2650   -0.5150   21.4750 C   0  0  0  0  0  0  0  0  0  0  0  0
    4.6840   -0.1550   20.2280 C   0  0  0  0  0  0  0  0  0  0  0  0
  1  2  1  0
  2  3  2  0
  2  4  1  0
  4  5  1  0
  5  6  1  0
  6  7  1  0
  7  8  1  0
  8  9  2  0
  9 10  1  0
 10 11  2  0
 12 11  1  6
 12 13  1  0
 13 14  1  0
 14 15  1  0
 15 16  2  0
 12 17  1  0
 15 17  1  0
  8 18  1  0
 11 18  1  0
 18 19  1  0
 19 20  1  0
 20 21  1  0
 21 22  2  0
 22 23  1  0
 23 24  1  0
 23 25  2  0
 25 26  1  0
 26 27  1  0
 21 28  1  0
 26 28  2  0
  7 29  1  0
  4 30  1  0
 29 30  1  0
M  END
