LEO-EVO-0d2ed6fc-4
     RDKit          3D

 30 33  0  0  0  0  0  0  0  0999 V2000
    8.5490   -0.7820   26.8530 C   0  0  0  0  0  0  0  0  0  0  0  0
    9.3510    0.1190   25.9330 C   0  0  0  0  0  0  0  0  0  0  0  0
   10.4750   -0.2530   25.6440 O   0  0  0  0  0  0  0  0  0  0  0  0
    8.8200    1.2790   25.4960 C   0  0  0  0  0  0  0  0  0  0  0  0
    7.6010    1.8410   26.2000 C   0  0  0  0  0  0  0  0  0  0  0  0
    7.0090    3.1570   25.7050 C   0  0  0  0  0  0  0  0  0  0  0  0
    7.4800    3.8720   24.6810 N   0  0  0  0  0  0  0  0  0  0  0  0
    8.5760    3.3410   24.0660 C   0  0  0  0  0  0  0  0  0  0  0  0
    9.3500    2.0230   24.3910 C   0  0  0  0  0  0  0  0  0  0  0  0
   10.4480    1.6500   23.6490 N   0  0  0  0  0  0  0  0  0  0  0  0
   11.3220    2.6680   23.3910 C   0  0  0  0  0  0  0  0  0  0  0  0
   11.0460    3.8330   23.6780 O   0  0  0  0  0  0  0  0  0  0  0  0
   12.5730    2.4560   22.8070 C   0  0  0  0  0  0  0  0  0  0  0  0
   13.2020    3.8340   22.4660 C   0  0  0  0  0  0  0  0  0  0  0  0
   13.6290    3.6530   21.1650 C   0  0  2  0  0  0  0  0  0  0  0  0
   14.7700    2.6350   20.9790 C   0  0  0  0  0  0  0  0  0  0  0  0
   15.6160    3.0120   19.7960 C   0  0  1  0  0  0  0  0  0  0  0  0
   15.6720    2.3720   18.6110 F   0  0  0  0  0  0  0  0  0  0  0  0
   15.4140    4.2180   19.6880 C   0  0  0  0  0  0  0  0  0  0  0  0
   16.1790    4.8700   19.0290 O   0  0  0  0  0  0  0  0  0  0  0  0
   14.3480    4.5950   20.5510 N   0  0  0  0  0  0  0  0  0  0  0  0
   10.8990    0.2290   23.6990 C   0  0  0  0  0  0  0  0  0  0  0  0
   11.8920    0.2010   23.6290 C   0  0  0  0  0  0  0  0  0  0  0  0
   10.8140   -0.6000   22.7280 N   0  0  0  0  0  0  0  0  0  0  0  0
    9.3800   -1.2670   23.1330 C   0  0  0  0  0  0  0  0  0  0  0  0
    8.3520   -1.5270   22.3010 N   0  0  0  0  0  0  0  0  0  0  0  0
    8.3010   -0.6100   21.4430 C   0  0  0  0  0  0  0  0  0  0  0  0
    9.0420    0.4110   21.6850 N   0  0  0  0  0  0  0  0  0  0  0  0
    9.9200    0.3160   22.7190 C   0  0  0  0  0  0  0  0  0  0  0  0
   10.2620   -0.9090   23.6620 C   0  0  0  0  0  0  0  0  0  0  0  0
  1  2  1  0
  2  3  2  0
  2  4  1  0
  4  5  2  0
  5  6  1  0
  6  7  2  0
  7  8  1  0
  4  9  1  0
  8  9  2  0
  9 10  1  0
 10 11  1  0
 11 12  2  0
 11 13  1  0
 13 14  1  0
 15 14  1  1
 15 16  1  0
 16 17  1  0
 17 18  1  6
 17 19  1  0
 19 20  2  0
 15 21  1  0
 19 21  1  0
 10 22  1  0
 22 23  2  0
 23 24  1  0
 24 25  1  0
 25 26  1  0
 26 27  2  0
 27 28  1  0
 28 29  2  0
 22 30  1  0
 25 30  2  0
 29 30  1  0
M  END
