LEO-EVO-0d2ed6fc-5
     RDKit          3D

 29 32  0  0  0  0  0  0  0  0999 V2000
   10.1230   -1.9020   23.9500 C   0  0  0  0  0  0  0  0  0  0  0  0
    8.6200   -1.8830   24.1330 C   0  0  0  0  0  0  0  0  0  0  0  0
    8.0740   -1.7860   25.2190 O   0  0  0  0  0  0  0  0  0  0  0  0
    7.9540   -1.9960   22.9480 C   0  0  0  0  0  0  0  0  0  0  0  0
    7.4650   -3.3010   22.7930 C   0  0  0  0  0  0  0  0  0  0  0  0
    6.8440   -3.2350   21.5460 C   0  0  0  0  0  0  0  0  0  0  0  0
    6.7490   -2.2050   20.6510 N   0  0  0  0  0  0  0  0  0  0  0  0
    7.2780   -1.0010   20.8910 C   0  0  0  0  0  0  0  0  0  0  0  0
    7.1560    0.0150   19.8290 C   0  0  0  0  0  0  0  0  0  0  0  0
    6.4980    1.0440   19.1300 C   0  0  0  0  0  0  0  0  0  0  0  0
    5.0700    1.5690   19.5870 C   0  0  0  0  0  0  0  0  0  0  0  0
    4.3610    1.0750   20.6970 C   0  0  0  0  0  0  0  0  0  0  0  0
    5.2090    0.0760   21.2220 C   0  0  0  0  0  0  0  0  0  0  0  0
    5.2690   -1.0680   22.5060 Cl  0  0  0  0  0  0  0  0  0  0  0  0
    6.0190    0.3760   20.2640 C   0  0  0  0  0  0  0  0  0  0  0  0
    7.8920   -0.8530   22.1300 C   0  0  0  0  0  0  0  0  0  0  0  0
    8.4670    0.3720   22.6570 N   0  0  0  0  0  0  0  0  0  0  0  0
    9.0350    1.4340   21.8300 C   0  0  0  0  0  0  0  0  0  0  0  0
   10.2010    2.1510   22.4900 C   0  0  0  0  0  0  0  0  0  0  0  0
    8.6100    1.7730   20.7360 O   0  0  0  0  0  0  0  0  0  0  0  0
    7.6910    0.9450   23.7260 C   0  0  0  0  0  0  0  0  0  0  0  0
    7.8180    2.2970   24.0760 C   0  0  0  0  0  0  0  0  0  0  0  0
    6.9990    2.6370   25.1030 N   0  0  0  0  0  0  0  0  0  0  0  0
    6.2640    1.4440   25.4830 C   0  0  0  0  0  0  0  0  0  0  0  0
    5.2670    1.4030   26.5670 N   0  0  0  0  0  0  0  0  0  0  0  0
    4.7190    0.1850   26.7320 C   0  0  0  0  0  0  0  0  0  0  0  0
    4.9700   -0.9490   26.0480 N   0  0  0  0  0  0  0  0  0  0  0  0
    5.9640   -0.9090   24.9670 C   0  0  0  0  0  0  0  0  0  0  0  0
    6.6810    0.4060   24.6480 C   0  0  0  0  0  0  0  0  0  0  0  0
  1  2  1  0
  2  3  2  0
  2  4  1  0
  4  5  2  0
  5  6  1  0
  6  7  2  0
  7  8  1  0
  8  9  1  0
  9 10  2  0
 10 11  1  0
 11 12  2  0
 12 13  1  0
 13 14  1  0
  9 15  1  0
 13 15  2  0
  4 16  1  0
  8 16  2  0
 16 17  1  0
 17 18  1  0
 18 19  1  0
 18 20  2  0
 17 21  1  0
 21 22  2  0
 22 23  1  0
 23 24  1  0
 24 25  1  0
 25 26  2  0
 26 27  1  0
 27 28  2  0
 21 29  1  0
 24 29  2  0
 28 29  1  0
M  END
