LEO-EVO-0d2ed6fc-6
     RDKit          3D

 28 31  0  0  0  0  0  0  0  0999 V2000
   12.1930   -2.2250   21.3170 C   0  0  0  0  0  0  0  0  0  0  0  0
   10.9230   -2.0910   21.8950 C   0  0  0  0  0  0  0  0  0  0  0  0
    9.9180   -2.4870   21.3320 O   0  0  0  0  0  0  0  0  0  0  0  0
   10.9830   -1.5000   23.0870 C   0  0  0  0  0  0  0  0  0  0  0  0
   12.2310   -1.4250   23.6500 C   0  0  0  0  0  0  0  0  0  0  0  0
   12.7600   -0.9260   24.8300 C   0  0  0  0  0  0  0  0  0  0  0  0
   11.5780   -0.4790   25.3700 N   0  0  0  0  0  0  0  0  0  0  0  0
   10.3000   -0.4840   24.9300 C   0  0  0  0  0  0  0  0  0  0  0  0
    9.2310    0.1300   25.8680 C   0  0  0  0  0  0  0  0  0  0  0  0
    9.2610    0.2880   27.3480 C   0  0  0  0  0  0  0  0  0  0  0  0
    8.0740    0.8950   27.7220 C   0  0  0  0  0  0  0  0  0  0  0  0
    7.8890    1.1450   29.0580 F   0  0  0  0  0  0  0  0  0  0  0  0
    7.1140    1.2390   26.7710 C   0  0  0  0  0  0  0  0  0  0  0  0
    7.6820    0.7840   25.1900 S   0  0  0  0  0  0  0  0  0  0  0  0
    9.9420   -0.9910   23.7500 C   0  0  0  0  0  0  0  0  0  0  0  0
    8.7360   -0.9980   23.2940 N   0  0  0  0  0  0  0  0  0  0  0  0
    8.5290   -0.2980   22.0850 C   0  0  0  0  0  0  0  0  0  0  0  0
    7.8730   -0.9490   21.0400 C   0  0  0  0  0  0  0  0  0  0  0  0
    8.8990    0.8720   21.9060 O   0  0  0  0  0  0  0  0  0  0  0  0
    7.8550   -1.9030   23.8660 C   0  0  0  0  0  0  0  0  0  0  0  0
    6.9480   -1.7150   25.0960 C   0  0  0  0  0  0  0  0  0  0  0  0
    6.2590   -2.8830   25.2720 N   0  0  0  0  0  0  0  0  0  0  0  0
    6.6120   -3.8370   24.2870 C   0  0  0  0  0  0  0  0  0  0  0  0
    6.1090   -5.1870   24.1280 N   0  0  0  0  0  0  0  0  0  0  0  0
    6.6410   -5.8840   23.0750 C   0  0  0  0  0  0  0  0  0  0  0  0
    7.5690   -5.3870   22.2260 N   0  0  0  0  0  0  0  0  0  0  0  0
    8.0050   -4.0930   22.4260 C   0  0  0  0  0  0  0  0  0  0  0  0
    7.5640   -3.2620   23.4450 C   0  0  0  0  0  0  0  0  0  0  0  0
  1  2  1  0
  2  3  2  0
  2  4  1  0
  4  5  2  0
  5  6  1  0
  6  7  2  0
  7  8  1  0
  8  9  1  0
  9 10  2  0
 10 11  1  0
 11 12  1  0
 11 13  2  0
  9 14  1  0
 13 14  1  0
  4 15  1  0
  8 15  2  0
 15 16  1  0
 16 17  1  0
 17 18  1  0
 17 19  2  0
 16 20  1  0
 20 21  2  0
 21 22  1  0
 22 23  1  0
 23 24  1  0
 24 25  2  0
 25 26  1  0
 26 27  2  0
 20 28  1  0
 23 28  2  0
 27 28  1  0
M  END
