LEO-EVO-0d2ed6fc-7
     RDKit          3D

 22 25  0  0  0  0  0  0  0  0999 V2000
   10.2850    8.0780   25.3390 O   0  0  0  0  0  0  0  0  0  0  0  0
   10.1850    6.9910   24.7730 C   0  0  0  0  0  0  0  0  0  0  0  0
   11.1200    5.9730   24.8130 N   0  0  0  0  0  0  0  0  0  0  0  0
   10.8770    5.0260   23.7110 C   0  0  2  0  0  0  0  0  0  0  0  0
   12.0240    4.7890   22.9560 C   0  0  2  0  0  0  0  0  0  0  0  0
   12.0410    3.9860   21.9340 C   0  0  0  0  0  0  0  0  0  0  0  0
   12.9060    3.3790   22.7070 C   0  0  2  0  0  0  0  0  0  0  0  0
   12.7130    1.9110   23.1170 C   0  0  0  0  0  0  0  0  0  0  0  0
   13.7470    1.0430   22.6560 O   0  0  0  0  0  0  0  0  0  0  0  0
   11.5880    1.4820   23.9330 N   0  0  0  0  0  0  0  0  0  0  0  0
   11.4440    0.1430   24.2660 C   0  0  0  0  0  0  0  0  0  0  0  0
   10.4320    0.1760   23.1880 C   0  0  0  0  0  0  0  0  0  0  0  0
    9.6700   -0.8670   22.7810 N   0  0  0  0  0  0  0  0  0  0  0  0
    9.8780   -2.0450   23.4400 C   0  0  0  0  0  0  0  0  0  0  0  0
    8.9120   -2.4930   22.6070 N   0  0  0  0  0  0  0  0  0  0  0  0
    8.6300   -1.3150   21.8820 C   0  0  0  0  0  0  0  0  0  0  0  0
    9.2960   -0.1910   22.1740 N   0  0  0  0  0  0  0  0  0  0  0  0
   10.3290   -0.1580   23.2270 C   0  0  0  0  0  0  0  0  0  0  0  0
   10.8110   -1.2290   24.1070 C   0  0  0  0  0  0  0  0  0  0  0  0
    9.8070    5.8100   22.9260 C   0  0  0  0  0  0  0  0  0  0  0  0
    9.0550    6.4880   23.9020 C   0  0  1  0  0  0  0  0  0  0  0  0
    8.2280    5.7340   24.6450 F   0  0  0  0  0  0  0  0  0  0  0  0
  1  2  2  0
  2  3  1  0
  3  4  1  0
  4  5  1  0
  5  6  1  6
  5  7  1  0
  6  7  1  0
  7  8  1  1
  8  9  2  0
  8 10  1  0
 10 11  1  0
 11 12  2  0
 12 13  1  0
 13 14  1  0
 14 15  1  0
 15 16  2  0
 16 17  1  0
 17 18  2  0
 11 19  1  0
 14 19  2  0
 18 19  1  0
  4 20  1  6
  2 21  1  0
 20 21  1  0
 21 22  1  1
M  END
