LEO-EVO-0d2ed6fc-1
     RDKit          3D

 21 23  0  0  0  0  0  0  0  0999 V2000
    9.0220    1.4250   21.2870 O   0  0  0  0  0  0  0  0  0  0  0  0
    8.9790    0.2720   21.7470 C   0  0  0  0  0  0  0  0  0  0  0  0
    9.9050   -0.1890   22.8390 C   0  0  0  0  0  0  0  0  0  0  0  0
   10.6900    0.7540   23.4950 C   0  0  0  0  0  0  0  0  0  0  0  0
   12.0090    0.3390   23.7170 C   0  0  1  0  0  0  0  0  0  0  0  0
   12.1130   -0.7250   24.6120 C   0  0  0  0  0  0  0  0  0  0  0  0
   12.5880   -1.9030   24.1200 C   0  0  1  0  0  0  0  0  0  0  0  0
   11.6450   -2.8640   24.2790 F   0  0  0  0  0  0  0  0  0  0  0  0
   12.9240   -1.5830   22.6960 C   0  0  0  0  0  0  0  0  0  0  0  0
   13.3130   -2.2970   21.7960 O   0  0  0  0  0  0  0  0  0  0  0  0
   12.6790   -0.2020   22.6380 N   0  0  0  0  0  0  0  0  0  0  0  0
    7.9890   -0.7690   21.2490 C   0  0  0  0  0  0  0  0  0  0  0  0
    7.1130   -0.2510   20.1530 C   0  0  0  0  0  0  0  0  0  0  0  0
    7.3340   -0.5420   18.7110 C   0  0  0  0  0  0  0  0  0  0  0  0
    6.3640    0.1000   18.0160 N   0  0  0  0  0  0  0  0  0  0  0  0
    5.5350    0.7650   18.8820 C   0  0  0  0  0  0  0  0  0  0  0  0
    4.5010    1.4800   18.5610 N   0  0  0  0  0  0  0  0  0  0  0  0
    3.6890    2.1250   19.4290 C   0  0  0  0  0  0  0  0  0  0  0  0
    4.2310    1.8380   20.6800 N   0  0  0  0  0  0  0  0  0  0  0  0
    5.2270    1.1880   21.4050 C   0  0  0  0  0  0  0  0  0  0  0  0
    5.9610    0.5730   20.2370 C   0  0  0  0  0  0  0  0  0  0  0  0
  1  2  2  0
  2  3  1  0
  3  4  1  0
  5  4  1  6
  5  6  1  0
  6  7  1  0
  7  8  1  6
  7  9  1  0
  9 10  2  0
  5 11  1  0
  9 11  1  0
  2 12  1  0
 12 13  1  0
 13 14  2  0
 14 15  1  0
 15 16  1  0
 16 17  1  0
 17 18  2  0
 18 19  1  0
 19 20  2  0
 13 21  1  0
 16 21  2  0
 20 21  1  0
M  END
