LIZ-THE-d3ff4653-1
     RDKit          3D

 15 15  0  0  0  0  0  0  0  0999 V2000
   13.0050   -2.5750   24.5860 C   0  0  0  0  0  0  0  0  0  0  0  0
   12.5420   -1.2430   24.7780 O   0  0  0  0  0  0  0  0  0  0  0  0
   11.4980   -0.7960   24.0170 C   0  0  0  0  0  0  0  0  0  0  0  0
   10.7460   -1.5860   23.4720 O   0  0  0  0  0  0  0  0  0  0  0  0
   11.2850    0.5750   23.8650 C   0  0  0  0  0  0  0  0  0  0  0  0
   10.1160    1.1400   24.3320 C   0  0  0  0  0  0  0  0  0  0  0  0
    9.9130    2.4840   24.1980 C   0  0  0  0  0  0  0  0  0  0  0  0
   10.8060    3.3700   23.6160 C   0  0  0  0  0  0  0  0  0  0  0  0
   10.3690    5.1050   23.5700 S   0  0  0  0  0  0  0  0  0  0  0  0
    8.9830    5.1020   22.6290 N   0  0  0  0  0  0  0  0  0  0  0  0
   11.3650    5.8840   22.8660 O   0  0  0  0  0  0  0  0  0  0  0  0
    9.9030    5.5130   24.8790 O   0  0  0  0  0  0  0  0  0  0  0  0
   12.0990    2.7380   23.0790 C   0  0  0  0  0  0  0  0  0  0  0  0
   12.2480    1.3790   23.2430 C   0  0  0  0  0  0  0  0  0  0  0  0
   13.4640    0.6840   22.7680 C   0  0  0  0  0  0  0  0  0  0  0  0
  1  2  1  0
  2  3  1  0
  3  4  2  0
  3  5  1  0
  5  6  2  0
  6  7  1  0
  7  8  2  0
  8  9  1  0
  9 10  1  0
  9 11  2  0
  9 12  2  0
  8 13  1  0
  5 14  1  0
 13 14  2  0
 14 15  1  0
M  END
