LIZ-THE-d3ff4653-2
     RDKit          3D

 16 16  0  0  0  0  0  0  0  0999 V2000
   10.2940   -2.1380   22.5160 C   0  0  0  0  0  0  0  0  0  0  0  0
    9.7830   -1.3490   23.3090 O   0  0  0  0  0  0  0  0  0  0  0  0
   10.6800   -0.7730   24.1560 C   0  0  0  0  0  0  0  0  0  0  0  0
   11.4070   -1.3680   24.9450 O   0  0  0  0  0  0  0  0  0  0  0  0
   10.6680    0.6150   23.9990 C   0  0  0  0  0  0  0  0  0  0  0  0
    9.6280    1.3540   24.4690 C   0  0  0  0  0  0  0  0  0  0  0  0
    9.5800    2.7080   24.3380 C   0  0  0  0  0  0  0  0  0  0  0  0
   10.5550    3.4680   23.7360 C   0  0  0  0  0  0  0  0  0  0  0  0
   10.3160    5.2400   23.6870 S   0  0  0  0  0  0  0  0  0  0  0  0
    8.9600    5.3720   22.7000 N   0  0  0  0  0  0  0  0  0  0  0  0
   11.3910    5.8950   22.9810 O   0  0  0  0  0  0  0  0  0  0  0  0
    9.9060    5.6680   25.0070 O   0  0  0  0  0  0  0  0  0  0  0  0
   11.6660    2.7660   23.2160 C   0  0  0  0  0  0  0  0  0  0  0  0
   11.7160    1.2770   23.3600 C   0  0  0  0  0  0  0  0  0  0  0  0
   12.7310    0.2760   22.9340 C   0  0  0  0  0  0  0  0  0  0  0  0
   13.9380    1.0250   22.7460 N   0  0  0  0  0  0  0  0  0  0  0  0
  1  2  1  0
  2  3  1  0
  3  4  2  0
  3  5  1  0
  5  6  2  0
  6  7  1  0
  7  8  2  0
  8  9  1  0
  9 10  1  0
  9 11  2  0
  9 12  2  0
  8 13  1  0
  5 14  1  0
 13 14  2  0
 14 15  1  0
 15 16  1  0
M  END
