LIZ-THE-f118233e-1
     RDKit          3D

 23 25  0  0  0  0  0  0  0  0999 V2000
    3.3430    2.7190   18.7910 N   0  0  0  0  0  0  0  0  0  0  0  0
    4.1410    1.5860   18.9150 C   0  0  0  0  0  0  0  0  0  0  0  0
    4.1000    0.6240   20.0810 C   0  0  0  0  0  0  0  0  0  0  0  0
    4.8820   -0.4720   20.1580 N   0  0  0  0  0  0  0  0  0  0  0  0
    5.7100   -0.6530   19.1090 C   0  0  0  0  0  0  0  0  0  0  0  0
    6.4640   -1.6700   19.1180 O   0  0  0  0  0  0  0  0  0  0  0  0
    6.0760   -2.6830   19.9870 C   0  0  0  0  0  0  0  0  0  0  0  0
    5.3350   -3.8770   19.6760 O   0  0  0  0  0  0  0  0  0  0  0  0
    6.5540   -2.5040   21.2640 N   0  0  0  0  0  0  0  0  0  0  0  0
    6.3190   -3.5740   22.2480 C   0  0  0  0  0  0  0  0  0  0  0  0
    7.5630   -3.9480   23.0170 C   0  0  0  0  0  0  0  0  0  0  0  0
    8.1840   -2.7300   23.4960 N   0  0  0  0  0  0  0  0  0  0  0  0
    7.4720   -2.1170   24.5290 C   0  0  0  0  0  0  0  0  0  0  0  0
    7.2630   -0.9110   24.5750 O   0  0  0  0  0  0  0  0  0  0  0  0
    6.9180   -3.0710   25.6280 C   0  0  0  0  0  0  0  0  0  0  0  0
    6.2050   -3.9600   26.1080 C   0  0  0  0  0  0  0  0  0  0  0  0
    6.3260   -4.3680   27.4910 C   0  0  0  0  0  0  0  0  0  0  0  0
    5.3600   -4.8270   26.1520 S   0  0  0  0  0  0  0  0  0  0  0  0
    5.9580   -3.7090   24.7950 C   0  0  0  0  0  0  0  0  0  0  0  0
    8.6630   -1.9410   22.3590 C   0  0  0  0  0  0  0  0  0  0  0  0
    7.6400   -1.5250   21.4940 C   0  0  0  0  0  0  0  0  0  0  0  0
    5.8450    0.1330   18.0160 N   0  0  0  0  0  0  0  0  0  0  0  0
    5.0580    1.2270   17.9560 C   0  0  0  0  0  0  0  0  0  0  0  0
  1  2  1  0
  2  3  2  0
  3  4  1  0
  4  5  2  0
  5  6  1  0
  6  7  1  0
  7  8  2  0
  7  9  1  0
  9 10  1  0
 10 11  1  0
 11 12  1  0
 12 13  1  0
 13 14  2  0
 13 15  1  0
 15 16  1  0
 16 17  2  0
 17 18  1  0
 15 19  2  0
 18 19  1  0
 12 20  1  0
  9 21  1  0
 20 21  1  0
  5 22  1  0
  2 23  1  0
 22 23  2  0
M  END
