LIZ-THE-57c545eb-1
     RDKit          3D

 15 15  0  0  0  0  0  0  0  0999 V2000
   13.3900   -2.4150   24.6220 C   0  0  0  0  0  0  0  0  0  0  0  0
   12.6450   -1.2960   24.7530 C   0  0  0  0  0  0  0  0  0  0  0  0
   12.6120   -0.4600   23.5690 N   0  0  0  0  0  0  0  0  0  0  0  0
   13.0280   -0.9910   22.3780 C   0  0  0  0  0  0  0  0  0  0  0  0
   12.0280   -1.9490   21.6770 C   0  0  0  0  0  0  0  0  0  0  0  0
   12.0810    0.7930   23.5450 C   0  0  0  0  0  0  0  0  0  0  0  0
   10.8250    1.0840   24.0350 C   0  0  0  0  0  0  0  0  0  0  0  0
   10.2330    2.3380   24.0690 C   0  0  0  0  0  0  0  0  0  0  0  0
   10.9450    3.5930   23.5480 C   0  0  0  0  0  0  0  0  0  0  0  0
   10.2190    5.2160   23.6230 S   0  0  0  0  0  0  0  0  0  0  0  0
    8.8720    5.0720   22.6420 N   0  0  0  0  0  0  0  0  0  0  0  0
   11.0860    6.1750   22.9810 O   0  0  0  0  0  0  0  0  0  0  0  0
    9.7060    5.4600   24.9520 O   0  0  0  0  0  0  0  0  0  0  0  0
   12.3310    3.3090   22.9750 C   0  0  0  0  0  0  0  0  0  0  0  0
   12.8130    1.8660   23.0240 C   0  0  0  0  0  0  0  0  0  0  0  0
  1  2  1  0
  2  3  1  0
  3  4  1  0
  4  5  1  0
  3  6  1  0
  6  7  2  0
  7  8  1  0
  8  9  2  0
  9 10  1  0
 10 11  1  0
 10 12  2  0
 10 13  2  0
  9 14  1  0
  6 15  1  0
 14 15  2  0
M  END
