LIZ-THE-60d741c6-1
     RDKit          3D

 16 17  0  0  0  0  0  0  0  0999 V2000
   10.1230    2.5380   22.8250 C   0  0  0  0  0  0  0  0  0  0  0  0
    9.1700    1.4860   22.4180 C   0  0  0  0  0  0  0  0  0  0  0  0
    8.6460    1.4970   21.2960 O   0  0  0  0  0  0  0  0  0  0  0  0
    8.8270    0.3990   23.2770 C   0  0  1  0  0  0  0  0  0  0  0  0
    7.5370    0.1230   23.6760 C   0  0  0  0  0  0  0  0  0  0  0  0
    7.4040   -1.1660   24.1320 N   0  0  0  0  0  0  0  0  0  0  0  0
    7.8190   -2.2100   23.3520 C   0  0  1  0  0  0  0  0  0  0  0  0
    6.7900   -3.0350   22.6070 C   0  0  0  0  0  0  0  0  0  0  0  0
    7.0470   -2.6740   21.1780 N   0  0  0  0  0  0  0  0  0  0  0  0
    6.1610   -2.4910   20.1310 C   0  0  0  0  0  0  0  0  0  0  0  0
    6.7640   -1.9030   18.8660 C   0  0  0  0  0  0  0  0  0  0  0  0
    6.3430   -0.7470   18.3390 N   0  0  0  0  0  0  0  0  0  0  0  0
    7.6610   -2.4630   18.2810 O   0  0  0  0  0  0  0  0  0  0  0  0
    8.0400   -1.7520   21.2370 C   0  0  0  0  0  0  0  0  0  0  0  0
    8.7400   -1.7750   22.3950 C   0  0  1  0  0  0  0  0  0  0  0  0
    9.5750   -0.6690   22.7790 C   0  0  0  0  0  0  0  0  0  0  0  0
  1  2  1  0
  2  3  2  0
  4  2  1  6
  4  5  1  0
  5  6  1  0
  6  7  1  0
  7  8  1  6
  8  9  1  0
  9 10  1  0
 10 11  1  0
 11 12  1  0
 11 13  2  0
  9 14  1  0
  7 15  1  0
 15 14  1  6
  4 16  1  0
 15 16  1  0
M  END
