LIZ-THE-60ec5b32-1
     RDKit          3D

 18 19  0  0  0  0  0  0  0  0999 V2000
    6.4650   -4.9210   22.5770 N   0  0  0  0  0  0  0  0  0  0  0  0
    6.6840   -3.5740   22.6780 C   0  0  0  0  0  0  0  0  0  0  0  0
    5.9410   -2.7530   21.8320 N   0  0  0  0  0  0  0  0  0  0  0  0
    7.6880   -3.0760   23.6790 C   0  0  0  0  0  0  0  0  0  0  0  0
    8.7590   -2.2870   23.2180 C   0  0  0  0  0  0  0  0  0  0  0  0
    8.5400   -0.9380   22.9580 C   0  0  1  0  0  0  0  0  0  0  0  0
    7.3820   -0.2900   23.2870 C   0  0  0  0  0  0  0  0  0  0  0  0
    7.5910    1.0060   23.6820 C   0  0  0  0  0  0  0  0  0  0  0  0
    9.0050    1.3050   23.4180 C   0  0  2  0  0  0  0  0  0  0  0  0
    9.3150    1.9920   22.2720 C   0  0  0  0  0  0  0  0  0  0  0  0
   10.1350    3.1370   22.2940 N   0  0  0  0  0  0  0  0  0  0  0  0
    8.8680    1.6490   21.1780 O   0  0  0  0  0  0  0  0  0  0  0  0
    9.5760   -0.1630   23.5530 C   0  0  2  0  0  0  0  0  0  0  0  0
   10.8180   -0.3990   23.0990 C   0  0  0  0  0  0  0  0  0  0  0  0
   11.9260    0.5230   23.2950 C   0  0  0  0  0  0  0  0  0  0  0  0
   13.1380    0.1570   22.7850 C   0  0  0  0  0  0  0  0  0  0  0  0
   13.0420   -1.3630   22.0180 S   0  0  0  0  0  0  0  0  0  0  0  0
   11.3430   -1.4930   22.3860 C   0  0  0  0  0  0  0  0  0  0  0  0
  1  2  2  3
  2  3  1  0
  2  4  1  0
  4  5  1  0
  6  5  1  1
  6  7  1  0
  7  8  1  0
  8  9  1  0
  9 10  1  6
 10 11  1  0
 10 12  2  0
  6 13  1  0
  9 13  1  0
 13 14  1  6
 14 15  1  0
 15 16  2  0
 16 17  1  0
 14 18  2  0
 17 18  1  0
M  END
