LON-WEI-b8d98729-5
     RDKit          3D

 39 41  0  0  0  0  0  0  0  0999 V2000
    3.5070   -2.6060   29.6920 C   0  0  0  0  0  0  0  0  0  0  0  0
    2.8210   -3.8400   30.1060 C   0  0  0  0  0  0  0  0  0  0  0  0
    3.2990   -5.1110   30.2870 C   0  0  0  0  0  0  0  0  0  0  0  0
    2.6000   -5.9550   30.8580 O   0  0  0  0  0  0  0  0  0  0  0  0
    4.5580   -5.2540   29.7760 O   0  0  0  0  0  0  0  0  0  0  0  0
    4.7330   -4.9690   28.3770 C   0  0  1  0  0  0  0  0  0  0  0  0
    5.9510   -4.8290   27.7690 O   0  0  0  0  0  0  0  0  0  0  0  0
    5.9380   -4.3980   26.2080 P   0  0  2  0  0  0  0  0  0  0  0  0
    5.2880   -5.4440   25.3450 O   0  0  0  0  0  0  0  0  0  0  0  0
    7.6120   -4.0430   25.6620 C   0  0  0  0  0  0  0  0  0  0  0  0
    7.6540   -3.4650   24.3740 C   0  0  0  0  0  0  0  0  0  0  0  0
    8.9300   -2.6950   24.1180 C   0  0  0  0  0  0  0  0  0  0  0  0
    8.9710   -1.6360   23.1950 C   0  0  0  0  0  0  0  0  0  0  0  0
   10.4500   -1.4440   22.7940 C   0  0  0  0  0  0  0  0  0  0  0  0
   10.4220   -0.0270   23.2240 C   0  0  0  0  0  0  0  0  0  0  0  0
   11.6290    0.7090   23.0860 C   0  0  0  0  0  0  0  0  0  0  0  0
   12.9040    0.0450   22.5350 C   0  0  0  0  0  0  0  0  0  0  0  0
   12.8240   -1.4240   22.1090 C   0  0  0  0  0  0  0  0  0  0  0  0
   11.5160   -2.1530   22.2580 C   0  0  0  0  0  0  0  0  0  0  0  0
    5.0030   -2.8760   26.2020 C   0  0  0  0  0  0  0  0  0  0  0  0
    5.6630   -1.8550   26.9020 C   0  0  0  0  0  0  0  0  0  0  0  0
    6.6660   -2.1380   27.5640 O   0  0  0  0  0  0  0  0  0  0  0  0
    5.1730   -0.5580   26.8390 N   0  0  0  0  0  0  0  0  0  0  0  0
    5.3120    0.3020   28.0000 C   0  0  0  0  0  0  0  0  0  0  0  0
    4.1880    1.1280   27.9380 C   0  0  2  0  0  0  0  0  0  0  0  0
    3.7240    1.6190   29.1670 C   0  0  0  0  0  0  0  0  0  0  0  0
    4.6510    1.8040   30.1900 C   0  0  0  0  0  0  0  0  0  0  0  0
    4.2040    2.3840   31.3700 C   0  0  0  0  0  0  0  0  0  0  0  0
    3.0290    1.9050   31.9610 C   0  0  0  0  0  0  0  0  0  0  0  0
    2.2550    0.8940   31.1610 C   0  0  0  0  0  0  0  0  0  0  0  0
    2.5890    0.7070   29.6960 C   0  0  0  0  0  0  0  0  0  0  0  0
    3.2050    0.6510   27.0290 C   0  0  0  0  0  0  0  0  0  0  0  0
    3.9920   -0.0480   26.1090 C   0  0  1  0  0  0  0  0  0  0  0  0
    4.4620    0.8080   25.1180 C   0  0  0  0  0  0  0  0  0  0  0  0
    5.1530    0.4700   24.1680 O   0  0  0  0  0  0  0  0  0  0  0  0
    4.0890    2.1020   25.2680 O   0  0  0  0  0  0  0  0  0  0  0  0
    3.9780   -6.0810   27.6120 C   0  0  0  0  0  0  0  0  0  0  0  0
    4.8850   -7.0070   27.1320 C   0  0  0  0  0  0  0  0  0  0  0  0
    3.0270   -6.8680   28.5230 C   0  0  0  0  0  0  0  0  0  0  0  0
  1  2  1  0
  2  3  1  0
  3  4  2  0
  3  5  1  0
  6  5  1  1
  6  7  1  0
  7  8  1  0
  8  9  2  0
  8 10  1  6
 10 11  1  0
 11 12  1  0
 12 13  1  0
 13 14  1  0
 14 15  2  0
 15 16  1  0
 16 17  2  0
 17 18  1  0
 14 19  1  0
 18 19  2  0
  8 20  1  0
 20 21  1  0
 21 22  2  0
 21 23  1  0
 23 24  1  0
 24 25  1  0
 25 26  1  1
 26 27  1  0
 27 28  1  0
 28 29  1  0
 29 30  1  0
 26 31  1  0
 30 31  1  0
 25 32  1  0
 23 33  1  0
 32 33  1  0
 33 34  1  6
 34 35  2  0
 34 36  1  0
  6 37  1  0
 37 38  1  0
 37 39  1  0
M  END
