LON-WEI-b8d98729-34
     RDKit          3D

 20 21  0  0  0  0  0  0  0  0999 V2000
   13.2620   -0.7830   23.0980 C   0  0  0  0  0  0  0  0  0  0  0  0
   13.2690    0.4300   22.2800 N   0  0  0  0  0  0  0  0  0  0  0  0
   12.8890    1.9130   22.9710 S   0  0  0  0  0  0  0  0  0  0  0  0
   12.9050    1.2130   24.1600 O   0  0  0  0  0  0  0  0  0  0  0  0
   13.7070    3.0310   22.5830 O   0  0  0  0  0  0  0  0  0  0  0  0
   11.2330    2.2820   22.7610 C   0  0  0  0  0  0  0  0  0  0  0  0
   10.9410    0.8490   22.8600 C   0  0  0  0  0  0  0  0  0  0  0  0
   11.9040   -0.1970   22.4700 C   0  0  0  0  0  0  0  0  0  0  0  0
   11.4160   -1.4460   22.6570 C   0  0  0  0  0  0  0  0  0  0  0  0
   10.1710   -1.7380   23.1600 C   0  0  0  0  0  0  0  0  0  0  0  0
    9.7820   -3.2260   23.3120 N   0  0  0  0  0  0  0  0  0  0  0  0
   10.5730   -2.4700   22.9960 C   0  0  0  0  0  0  0  0  0  0  0  0
    9.3050   -1.9270   23.5100 C   0  0  0  0  0  0  0  0  0  0  0  0
    8.2120   -2.6360   23.9370 C   0  0  0  0  0  0  0  0  0  0  0  0
    8.3450   -3.9950   23.7490 C   0  0  0  0  0  0  0  0  0  0  0  0
    7.1260   -4.7150   24.0960 N   0  0  0  0  0  0  0  0  0  0  0  0
    7.1270   -5.1930   25.4730 C   0  0  0  0  0  0  0  0  0  0  0  0
    6.9370   -5.8270   23.1480 C   0  0  0  0  0  0  0  0  0  0  0  0
    9.2640   -0.7050   23.5320 C   0  0  0  0  0  0  0  0  0  0  0  0
    9.7410    0.5500   23.3450 C   0  0  0  0  0  0  0  0  0  0  0  0
  1  2  1  0
  3  2  1  0
  3  4  2  0
  3  5  2  0
  3  6  1  0
  6  7  1  0
  7  8  2  0
  8  9  1  0
  9 10  2  0
 10 11  1  0
 11 12  1  0
 12 13  2  0
 13 14  1  0
 14 15  1  0
 15 16  1  0
 16 17  1  0
 16 18  1  0
 10 19  1  0
 13 19  1  0
  7 20  1  0
 19 20  2  0
M  END
