LON-WEI-b8d98729-4
     RDKit          3D

 23 24  0  0  0  0  0  0  0  0999 V2000
    2.5200   -6.3100   23.2550 C   0  0  0  0  0  0  0  0  0  0  0  0
    3.6230   -7.0800   23.9140 C   0  0  0  0  0  0  0  0  0  0  0  0
    3.4420   -8.1960   24.3770 O   0  0  0  0  0  0  0  0  0  0  0  0
    4.8320   -6.3850   23.9580 N   0  0  0  0  0  0  0  0  0  0  0  0
    5.0640   -5.5000   25.1000 C   0  0  0  0  0  0  0  0  0  0  0  0
    5.9170   -4.3300   24.6820 C   0  0  0  0  0  0  0  0  0  0  0  0
    7.1270   -4.7560   23.9600 N   0  0  0  0  0  0  0  0  0  0  0  0
    8.0890   -3.6810   23.6200 C   0  0  0  0  0  0  0  0  0  0  0  0
    7.9020   -2.5380   24.2650 C   0  0  0  0  0  0  0  0  0  0  0  0
    7.3150   -2.4060   25.3320 O   0  0  0  0  0  0  0  0  0  0  0  0
    8.4830   -1.4660   23.4400 N   0  0  0  0  0  0  0  0  0  0  0  0
    9.7850   -0.9540   23.3790 C   0  0  0  0  0  0  0  0  0  0  0  0
   10.0930    0.3260   24.1070 C   0  0  0  0  0  0  0  0  0  0  0  0
   11.4660    0.9260   24.0470 C   0  0  0  0  0  0  0  0  0  0  0  0
   12.4700    0.1720   23.2440 C   0  0  0  0  0  0  0  0  0  0  0  0
   12.0090   -1.0770   22.5880 C   0  0  0  0  0  0  0  0  0  0  0  0
   13.0630   -1.9410   21.6820 S   0  0  0  0  0  0  0  0  0  0  0  0
   13.7070   -2.8280   22.9790 N   0  0  0  0  0  0  0  0  0  0  0  0
   12.3620   -2.8090   20.8280 O   0  0  0  0  0  0  0  0  0  0  0  0
   13.9090   -0.9870   21.1000 O   0  0  0  0  0  0  0  0  0  0  0  0
   10.7900   -1.5710   22.6620 C   0  0  0  0  0  0  0  0  0  0  0  0
    6.8750   -5.7330   22.8750 C   0  0  0  0  0  0  0  0  0  0  0  0
    5.5600   -5.9680   22.7190 C   0  0  0  0  0  0  0  0  0  0  0  0
  1  2  1  0
  2  3  2  0
  2  4  1  0
  4  5  1  0
  5  6  1  0
  6  7  1  0
  7  8  1  0
  8  9  1  0
  9 10  2  0
  9 11  1  0
 11 12  1  0
 12 13  2  0
 13 14  1  0
 14 15  2  0
 15 16  1  0
 16 17  1  0
 17 18  1  0
 17 19  2  0
 17 20  2  0
 12 21  1  0
 16 21  2  0
  7 22  1  0
  4 23  1  0
 22 23  1  0
M  END
