LUI-IND-a1be81af-3
     RDKit          3D

 31 34  0  0  0  0  0  0  0  0999 V2000
    7.7030   -2.5630   24.3840 C   0  0  0  0  0  0  0  0  0  0  0  0
    8.8920   -2.2990   23.7190 N   0  0  0  0  0  0  0  0  0  0  0  0
    9.9440   -3.1060   23.8490 C   0  0  0  0  0  0  0  0  0  0  0  0
    8.7760   -1.4100   22.5840 C   0  0  0  0  0  0  0  0  0  0  0  0
    7.7840   -1.3620   21.8560 O   0  0  0  0  0  0  0  0  0  0  0  0
    9.8560   -0.5430   22.2930 C   0  0  0  0  0  0  0  0  0  0  0  0
    9.6300    0.7710   22.7330 C   0  0  0  0  0  0  0  0  0  0  0  0
   10.3440    1.2680   23.7800 C   0  0  0  0  0  0  0  0  0  0  0  0
   11.3260    0.4640   24.2110 N   0  0  0  0  0  0  0  0  0  0  0  0
   11.1070   -0.3640   25.2540 C   0  0  0  0  0  0  0  0  0  0  0  0
   10.2650   -0.3390   26.1500 O   0  0  0  0  0  0  0  0  0  0  0  0
   12.1490   -1.2870   24.9670 C   0  0  0  0  0  0  0  0  0  0  0  0
   11.8590   -2.0820   23.8410 C   0  0  0  0  0  0  0  0  0  0  0  0
   12.7560   -2.8800   23.4150 C   0  0  0  0  0  0  0  0  0  0  0  0
   14.0220   -2.9250   24.1380 C   0  0  0  0  0  0  0  0  0  0  0  0
   14.4050   -2.0720   25.4370 C   0  0  0  0  0  0  0  0  0  0  0  0
   15.8740   -2.0090   26.2540 C   0  0  0  0  0  0  0  0  0  0  0  0
   17.7370   -1.5660   25.8300 C   0  0  0  0  0  0  0  0  0  0  0  0
   19.0740   -0.7910   26.6100 C   0  0  0  0  0  0  0  0  0  0  0  0
   20.3620   -0.5470   26.2750 C   0  0  0  0  0  0  0  0  0  0  0  0
   20.8280   -0.9280   25.1280 C   0  0  0  0  0  0  0  0  0  0  0  0
   19.8830   -1.4840   24.3710 C   0  0  0  0  0  0  0  0  0  0  0  0
   18.5330   -1.7050   24.6620 N   0  0  0  0  0  0  0  0  0  0  0  0
   20.2880   -1.9570   23.1640 C   0  0  0  0  0  0  0  0  0  0  0  0
   21.5750   -2.5020   23.1810 O   0  0  0  0  0  0  0  0  0  0  0  0
   22.4310   -2.1260   24.2710 C   0  0  0  0  0  0  0  0  0  0  0  0
   22.1360   -0.8150   24.6630 C   0  0  2  0  0  0  0  0  0  0  0  0
   22.8600   -0.2300   25.6360 N   0  0  0  0  0  0  0  0  0  0  0  0
   13.2930   -1.2860   25.6970 C   0  0  0  0  0  0  0  0  0  0  0  0
   12.0130   -0.0980   23.0280 C   0  0  0  0  0  0  0  0  0  0  0  0
   11.1710   -1.0830   22.4260 C   0  0  0  0  0  0  0  0  0  0  0  0
  1  2  1  0
  2  3  1  0
  2  4  1  0
  4  5  2  0
  4  6  1  0
  6  7  1  0
  7  8  1  0
  8  9  1  0
  9 10  1  0
 10 11  2  0
 10 12  1  0
 12 13  2  0
 13 14  1  0
 14 15  2  0
 15 16  1  0
 16 17  1  0
 17 18  1  0
 18 19  2  0
 19 20  1  0
 20 21  2  0
 21 22  1  0
 18 23  1  0
 22 23  2  0
 22 24  1  0
 24 25  1  0
 25 26  1  0
 21 27  1  0
 26 27  1  0
 27 28  1  1
 12 29  1  0
 16 29  2  0
  9 30  1  0
  6 31  1  0
 30 31  1  0
M  END
