LUI-IND-a1be81af-2
     RDKit          3D

 28 30  0  0  0  0  0  0  0  0999 V2000
    2.0550   -5.9120   28.8110 O   0  0  0  0  0  0  0  0  0  0  0  0
    2.2370   -7.0160   28.2860 C   0  0  0  0  0  0  0  0  0  0  0  0
    3.5220   -7.3040   27.5660 C   0  0  0  0  0  0  0  0  0  0  0  0
    4.1470   -6.1970   26.9800 N   0  0  0  0  0  0  0  0  0  0  0  0
    4.7190   -6.2740   25.6310 C   0  0  0  0  0  0  0  0  0  0  0  0
    4.3070   -7.0690   24.7870 O   0  0  0  0  0  0  0  0  0  0  0  0
    5.7290   -5.4190   25.3770 N   0  0  0  0  0  0  0  0  0  0  0  0
    6.5710   -5.0190   26.4160 C   0  0  0  0  0  0  0  0  0  0  0  0
    7.8000   -4.2670   25.9280 C   0  0  0  0  0  0  0  0  0  0  0  0
    7.6720   -3.5390   24.7750 N   0  0  0  0  0  0  0  0  0  0  0  0
    8.9020   -3.1540   24.1970 C   0  0  0  0  0  0  0  0  0  0  0  0
    9.8710   -3.8520   24.3990 O   0  0  0  0  0  0  0  0  0  0  0  0
    8.9230   -1.9880   23.4280 N   0  0  0  0  0  0  0  0  0  0  0  0
   10.1100   -1.2910   23.1110 C   0  0  0  0  0  0  0  0  0  0  0  0
   10.4270    0.1160   23.4680 C   0  0  0  0  0  0  0  0  0  0  0  0
   11.7540    0.7060   23.1080 C   0  0  0  0  0  0  0  0  0  0  0  0
   12.7340   -0.1030   22.3900 C   0  0  0  0  0  0  0  0  0  0  0  0
   12.2470   -1.4700   22.0660 C   0  0  0  0  0  0  0  0  0  0  0  0
   13.2460   -2.4510   21.1830 Cl  0  0  0  0  0  0  0  0  0  0  0  0
   11.0680   -1.9930   22.4040 C   0  0  0  0  0  0  0  0  0  0  0  0
    6.6110   -3.9510   23.8460 C   0  0  0  0  0  0  0  0  0  0  0  0
    6.3490   -5.2460   24.0600 C   0  0  0  0  0  0  0  0  0  0  0  0
    1.2810   -8.0190   28.3420 N   0  0  0  0  0  0  0  0  0  0  0  0
    1.0790   -8.7030   29.6250 C   0  0  0  0  0  0  0  0  0  0  0  0
    0.5500   -9.9870   29.4170 C   0  0  0  0  0  0  0  0  0  0  0  0
   -0.6000  -10.0080   28.5610 O   0  0  0  0  0  0  0  0  0  0  0  0
   -0.3460   -9.3970   27.2950 C   0  0  0  0  0  0  0  0  0  0  0  0
    0.1500   -8.1000   27.4040 C   0  0  0  0  0  0  0  0  0  0  0  0
  1  2  2  0
  2  3  1  0
  3  4  1  0
  4  5  1  0
  5  6  2  0
  5  7  1  0
  7  8  1  0
  8  9  1  0
  9 10  1  0
 10 11  1  0
 11 12  2  0
 11 13  1  0
 13 14  1  0
 14 15  2  0
 15 16  1  0
 16 17  2  0
 17 18  1  0
 18 19  1  0
 14 20  1  0
 18 20  2  0
 10 21  1  0
  7 22  1  0
 21 22  1  0
  2 23  1  0
 23 24  1  0
 24 25  1  0
 25 26  1  0
 26 27  1  0
 23 28  1  0
 27 28  1  0
M  END
