LUI-IND-2c46affe-1
     RDKit          3D

 25 27  0  0  0  0  0  0  0  0999 V2000
   10.0060  -10.5050   19.3050 C   0  0  0  0  0  0  0  0  0  0  0  0
   10.3210   -9.1050   19.5790 C   0  0  0  0  0  0  0  0  0  0  0  0
   10.9350   -8.9990   20.6330 O   0  0  0  0  0  0  0  0  0  0  0  0
   10.0170   -7.8010   18.8300 N   0  0  0  0  0  0  0  0  0  0  0  0
   10.6430   -6.0680   19.4540 C   0  0  0  0  0  0  0  0  0  0  0  0
   11.8130   -5.8530   20.3930 C   0  0  0  0  0  0  0  0  0  0  0  0
   12.5370   -4.6830   20.9410 N   0  0  0  0  0  0  0  0  0  0  0  0
   11.9420   -3.5680   20.5840 C   0  0  0  0  0  0  0  0  0  0  0  0
   12.2350   -2.2500   20.9660 N   0  0  0  0  0  0  0  0  0  0  0  0
   13.1130   -1.8120   21.8550 N   0  0  0  0  0  0  0  0  0  0  0  0
   13.1930   -0.4760   21.9030 C   0  0  0  0  0  0  0  0  0  0  0  0
   12.3540    0.3340   22.5620 C   0  0  0  0  0  0  0  0  0  0  0  0
   11.4960   -0.2930   23.3910 C   0  0  0  0  0  0  0  0  0  0  0  0
   10.2250   -0.6930   23.6480 C   0  0  0  0  0  0  0  0  0  0  0  0
    9.7420   -1.6870   24.3420 C   0  0  0  0  0  0  0  0  0  0  0  0
    8.3330   -1.7590   24.3790 C   0  0  0  0  0  0  0  0  0  0  0  0
    7.4570   -0.6820   23.6020 C   0  0  0  0  0  0  0  0  0  0  0  0
    8.0670    0.5090   22.7710 C   0  0  0  0  0  0  0  0  0  0  0  0
    6.7660    0.8520   22.5020 C   0  0  0  0  0  0  0  0  0  0  0  0
    9.0780   -0.1660   23.2600 C   0  0  0  0  0  0  0  0  0  0  0  0
    9.9650    1.1080   22.4430 Cl  0  0  0  0  0  0  0  0  0  0  0  0
   12.1050   -1.6050   23.9890 C   0  0  0  0  0  0  0  0  0  0  0  0
   13.1020   -2.2100   23.2500 C   0  0  0  0  0  0  0  0  0  0  0  0
   11.0190   -3.7560   19.8230 N   0  0  0  0  0  0  0  0  0  0  0  0
   10.4470   -4.7580   19.2880 C   0  0  0  0  0  0  0  0  0  0  0  0
  1  2  1  0
  2  3  2  0
  2  4  1  0
  4  5  1  0
  5  6  2  0
  6  7  1  0
  7  8  2  0
  8  9  1  0
  9 10  1  0
 10 11  1  0
 11 12  1  0
 12 13  1  0
 13 14  1  0
 14 15  2  0
 15 16  1  0
 16 17  2  0
 17 18  1  0
 18 19  1  0
 14 20  1  0
 18 20  2  0
 20 21  1  0
 13 22  1  0
 10 23  1  0
 22 23  1  0
  8 24  1  0
  5 25  1  0
 24 25  2  0
M  END
