MAK-UNK-0d6072ac-38
     RDKit          3D

 19 21  0  0  0  0  0  0  0  0999 V2000
   13.8430   -2.7950   23.2370 C   0  0  0  0  0  0  0  0  0  0  0  0
   13.5730   -2.3060   24.6090 C   0  0  2  0  0  0  0  0  0  0  0  0
   14.0960   -2.9760   25.6870 C   0  0  0  0  0  0  0  0  0  0  0  0
   13.5510   -4.2490   25.9610 O   0  0  0  0  0  0  0  0  0  0  0  0
   15.1330   -2.4170   26.3070 O   0  0  0  0  0  0  0  0  0  0  0  0
   12.2190   -2.0970   24.3580 C   0  0  0  0  0  0  0  0  0  0  0  0
   12.3300   -0.9850   24.1560 C   0  0  0  0  0  0  0  0  0  0  0  0
   11.3640   -2.2490   24.2060 N   0  0  0  0  0  0  0  0  0  0  0  0
   10.0730   -2.0540   23.8830 C   0  0  0  0  0  0  0  0  0  0  0  0
   10.0530   -0.9270   23.6890 C   0  0  0  0  0  0  0  0  0  0  0  0
   11.3830   -0.8620   23.9570 C   0  0  0  0  0  0  0  0  0  0  0  0
    8.7550   -0.4330   23.3290 N   0  0  0  0  0  0  0  0  0  0  0  0
    8.0380   -1.6860   23.3690 C   0  0  0  0  0  0  0  0  0  0  0  0
    6.7990   -2.2660   23.1820 N   0  0  0  0  0  0  0  0  0  0  0  0
    6.5650   -3.8600   23.3690 C   0  0  0  0  0  0  0  0  0  0  0  0
    7.6050   -4.8590   23.7510 C   0  0  0  0  0  0  0  0  0  0  0  0
    6.2960   -5.9530   23.6070 Cl  0  0  0  0  0  0  0  0  0  0  0  0
    8.0260   -3.5850   23.6580 C   0  0  0  0  0  0  0  0  0  0  0  0
    8.9320   -2.5650   23.7080 C   0  0  0  0  0  0  0  0  0  0  0  0
  2  1  1  6
  2  3  1  0
  3  4  2  0
  3  5  1  0
  2  6  1  0
  6  7  2  0
  7  8  1  0
  8  9  2  0
  9 10  1  0
  6 11  1  0
 10 11  2  0
 10 12  1  0
 12 13  1  0
 13 14  1  0
 14 15  2  0
 15 16  1  0
 16 17  1  0
 16 18  2  0
  9 19  1  0
 13 19  2  0
 18 19  1  0
M  END
