MAK-UNK-0cb6a3ad-12
     RDKit          3D

 17 18  0  0  0  0  0  0  0  0999 V2000
    7.8920   -5.7340   24.1520 O   0  0  0  0  0  0  0  0  0  0  0  0
    8.1770   -4.7000   23.5640 C   0  0  0  0  0  0  0  0  0  0  0  0
    7.7050   -4.0980   22.4590 C   0  0  0  0  0  0  0  0  0  0  0  0
    6.8200   -4.1850   21.4860 C   0  0  0  0  0  0  0  0  0  0  0  0
    6.1980   -5.6720   22.0900 Cl  0  0  0  0  0  0  0  0  0  0  0  0
    7.7770   -3.0920   21.6400 C   0  0  0  0  0  0  0  0  0  0  0  0
    7.9330   -4.0170   22.6570 C   0  0  0  0  0  0  0  0  0  0  0  0
    9.0340   -3.6550   23.6570 C   0  0  0  0  0  0  0  0  0  0  0  0
    9.5090   -2.4580   23.1510 O   0  0  0  0  0  0  0  0  0  0  0  0
   10.7190   -2.2840   23.7500 C   0  0  0  0  0  0  0  0  0  0  0  0
   11.5690   -1.1730   23.6420 C   0  0  0  0  0  0  0  0  0  0  0  0
   12.7800   -1.1980   24.3470 C   0  0  0  0  0  0  0  0  0  0  0  0
   13.0660   -2.3270   25.1250 C   0  0  0  0  0  0  0  0  0  0  0  0
   14.4330   -2.5650   26.0510 Cl  0  0  0  0  0  0  0  0  0  0  0  0
   12.2310   -3.3750   25.2130 C   0  0  0  0  0  0  0  0  0  0  0  0
   11.0670   -3.3700   24.5290 C   0  0  0  0  0  0  0  0  0  0  0  0
   10.0360   -4.7570   24.6550 Cl  0  0  0  0  0  0  0  0  0  0  0  0
  1  2  1  0
  2  3  2  0
  3  4  1  0
  4  5  1  0
  4  6  2  0
  6  7  1  0
  2  8  1  0
  7  8  2  0
  8  9  1  0
  9 10  1  0
 10 11  2  0
 11 12  1  0
 12 13  2  0
 13 14  1  0
 13 15  1  0
 10 16  1  0
 15 16  2  0
 16 17  1  0
M  END
