MAK-UNK-10572812-15
     RDKit          3D

 34 38  0  0  0  0  0  0  0  0999 V2000
   13.1060   -1.7530   24.2930 C   0  0  0  0  0  0  0  0  0  0  0  0
   12.5600   -1.2880   23.0300 N   0  0  0  0  0  0  0  0  0  0  0  0
   11.4850   -2.1650   22.5160 C   0  0  0  0  0  0  0  0  0  0  0  0
   10.2310   -1.6650   22.5580 C   0  0  0  0  0  0  0  0  0  0  0  0
   10.1480   -0.2690   22.1470 N   0  0  0  0  0  0  0  0  0  0  0  0
    8.9480    0.1910   21.4700 C   0  0  0  0  0  0  0  0  0  0  0  0
    8.7770    1.5700   21.1490 O   0  0  0  0  0  0  0  0  0  0  0  0
    7.9560   -0.7930   21.0890 C   0  0  0  0  0  0  0  0  0  0  0  0
    7.1030   -0.2970   20.1140 C   0  0  0  0  0  0  0  0  0  0  0  0
    7.2810   -0.5360   18.7850 C   0  0  0  0  0  0  0  0  0  0  0  0
    6.3490    0.0620   18.0310 N   0  0  0  0  0  0  0  0  0  0  0  0
    5.5000    0.7250   18.8740 C   0  0  0  0  0  0  0  0  0  0  0  0
    4.4490    1.4360   18.4590 N   0  0  0  0  0  0  0  0  0  0  0  0
    3.7610    1.9870   19.4710 C   0  0  0  0  0  0  0  0  0  0  0  0
    4.0340    1.8920   20.8150 C   0  0  0  0  0  0  0  0  0  0  0  0
    5.1640    1.1330   21.2160 C   0  0  0  0  0  0  0  0  0  0  0  0
    5.4820    1.0190   22.6770 C   0  0  0  0  0  0  0  0  0  0  0  0
    6.3180    1.7400   23.1980 O   0  0  0  0  0  0  0  0  0  0  0  0
    4.6960    0.0030   23.3590 N   0  0  0  0  0  0  0  0  0  0  0  0
    4.9660   -0.3060   24.6730 C   0  0  0  0  0  0  0  0  0  0  0  0
    6.0570   -1.1870   24.7720 C   0  0  0  0  0  0  0  0  0  0  0  0
    6.1450   -1.8800   25.9840 C   0  0  0  0  0  0  0  0  0  0  0  0
    6.5580   -1.3120   27.1610 C   0  0  0  0  0  0  0  0  0  0  0  0
    6.5500   -2.2150   28.1710 N   0  0  0  0  0  0  0  0  0  0  0  0
    6.1220   -3.4310   27.6620 C   0  0  0  0  0  0  0  0  0  0  0  0
    5.9610   -4.6440   28.3170 C   0  0  0  0  0  0  0  0  0  0  0  0
    5.5200   -5.6780   27.5690 C   0  0  0  0  0  0  0  0  0  0  0  0
    5.2400   -5.4830   26.1520 C   0  0  0  0  0  0  0  0  0  0  0  0
    4.7970   -6.5010   25.4110 F   0  0  0  0  0  0  0  0  0  0  0  0
    5.4230   -4.2800   25.5790 C   0  0  0  0  0  0  0  0  0  0  0  0
    5.8580   -3.2490   26.3010 C   0  0  0  0  0  0  0  0  0  0  0  0
    5.9360    0.5200   20.2050 C   0  0  0  0  0  0  0  0  0  0  0  0
   10.8930    0.5560   23.0210 C   0  0  0  0  0  0  0  0  0  0  0  0
   12.3390    0.1720   23.0210 C   0  0  0  0  0  0  0  0  0  0  0  0
  1  2  1  0
  2  3  1  0
  3  4  1  0
  4  5  1  0
  5  6  1  0
  6  7  2  0
  6  8  1  0
  8  9  1  0
  9 10  2  0
 10 11  1  0
 11 12  1  0
 12 13  1  0
 13 14  2  0
 14 15  1  0
 15 16  2  0
 16 17  1  0
 17 18  2  0
 17 19  1  0
 19 20  1  0
 20 21  1  0
 21 22  1  0
 22 23  2  0
 23 24  1  0
 24 25  1  0
 25 26  1  0
 26 27  2  0
 27 28  1  0
 28 29  1  0
 28 30  2  0
 22 31  1  0
 25 31  2  0
 30 31  1  0
  9 32  1  0
 12 32  2  0
 16 32  1  0
  5 33  1  0
  2 34  1  0
 33 34  1  0
M  END
