MAK-UNK-c7aa8293-10
     RDKit          3D

 23 25  0  0  0  0  0  0  0  0999 V2000
   13.9680   -2.9710   23.9980 N   0  0  0  0  0  0  0  0  0  0  0  0
   12.9770   -2.3990   24.9320 C   0  0  0  0  0  0  0  0  0  0  0  0
   11.6520   -2.2790   24.2230 C   0  0  1  0  0  0  0  0  0  0  0  0
   10.4650   -2.9180   24.5610 O   0  0  0  0  0  0  0  0  0  0  0  0
    9.3830   -3.1180   23.4860 C   0  0  1  0  0  0  0  0  0  0  0  0
    7.9120   -3.5700   23.5390 C   0  0  1  0  0  0  0  0  0  0  0  0
    7.3900   -3.3540   22.2570 C   0  0  0  0  0  0  0  0  0  0  0  0
    6.6250   -4.4510   21.5190 C   0  0  2  0  0  0  0  0  0  0  0  0
    5.9550   -3.7970   20.4290 O   0  0  0  0  0  0  0  0  0  0  0  0
    5.8570   -5.2980   22.4770 C   0  0  2  0  0  0  0  0  0  0  0  0
    4.5690   -4.6460   22.5570 O   0  0  0  0  0  0  0  0  0  0  0  0
    6.7490   -5.6300   23.6520 C   0  0  0  0  0  0  0  0  0  0  0  0
    7.5810   -4.6580   24.2760 C   0  0  1  0  0  0  0  0  0  0  0  0
    8.7580   -5.2910   24.6940 O   0  0  0  0  0  0  0  0  0  0  0  0
    9.3520   -1.7160   23.2060 C   0  0  0  0  0  0  0  0  0  0  0  0
   10.5920   -1.7740   23.6870 C   0  0  0  0  0  0  0  0  0  0  0  0
   11.5540   -0.8370   23.6170 C   0  0  0  0  0  0  0  0  0  0  0  0
   12.8300   -0.6100   23.9690 C   0  0  0  0  0  0  0  0  0  0  0  0
   13.3370   -1.6770   24.6330 C   0  0  0  0  0  0  0  0  0  0  0  0
   12.5710   -2.9130   24.9250 C   0  0  0  0  0  0  0  0  0  0  0  0
   13.2630   -3.8650   25.6150 O   0  0  0  0  0  0  0  0  0  0  0  0
   11.1870   -2.9210   24.4250 C   0  0  0  0  0  0  0  0  0  0  0  0
   10.5230   -4.1010   24.7230 O   0  0  0  0  0  0  0  0  0  0  0  0
  1  2  1  0
  3  2  1  1
  3  4  1  0
  4  5  1  0
  5  6  1  0
  6  7  1  6
  7  8  1  0
  8  9  1  6
  8 10  1  0
 10 11  1  1
 10 12  1  0
  6 13  1  0
 12 13  1  0
 13 14  1  6
  5 15  1  1
 15 16  1  0
  3 17  1  0
 16 17  2  0
 17 18  1  0
 18 19  2  0
 19 20  1  0
 20 21  1  0
 16 22  1  0
 20 22  2  0
 22 23  1  0
M  END
