MAK-UNK-9e4a73aa-18
     RDKit          3D

 26 29  0  0  0  0  0  0  0  0999 V2000
    6.2250   -4.9470   28.5780 O   0  0  0  0  0  0  0  0  0  0  0  0
    5.9630   -4.3160   27.5570 C   0  0  0  0  0  0  0  0  0  0  0  0
    5.2470   -4.9740   26.4100 C   0  0  0  0  0  0  0  0  0  0  0  0
    4.3330   -6.0020   26.6880 C   0  0  0  0  0  0  0  0  0  0  0  0
    3.6350   -6.6180   25.6730 C   0  0  0  0  0  0  0  0  0  0  0  0
    2.7540   -7.5960   25.9240 F   0  0  0  0  0  0  0  0  0  0  0  0
    3.9240   -6.1210   24.2970 C   0  0  0  0  0  0  0  0  0  0  0  0
    3.0290   -6.8840   23.0540 Cl  0  0  0  0  0  0  0  0  0  0  0  0
    4.8460   -5.1030   24.0340 C   0  0  0  0  0  0  0  0  0  0  0  0
    5.5310   -4.5050   25.1030 C   0  0  0  0  0  0  0  0  0  0  0  0
    6.4950   -3.4330   24.9790 N   0  0  0  0  0  0  0  0  0  0  0  0
    6.8880   -2.8880   23.7240 C   0  0  0  0  0  0  0  0  0  0  0  0
    8.3050   -2.3470   23.6400 C   0  0  0  0  0  0  0  0  0  0  0  0
    8.4850   -1.8400   22.3840 C   0  0  0  0  0  0  0  0  0  0  0  0
    7.8890   -1.6370   21.1890 C   0  0  0  0  0  0  0  0  0  0  0  0
    6.5940   -2.1340   21.2250 N   0  0  0  0  0  0  0  0  0  0  0  0
    6.1120   -2.7600   22.5160 C   0  0  0  0  0  0  0  0  0  0  0  0
    6.4700   -2.4700   26.0780 C   0  0  0  0  0  0  0  0  0  0  0  0
    6.6400   -1.0620   25.8460 O   0  0  0  0  0  0  0  0  0  0  0  0
    6.2540   -2.9950   27.2990 N   0  0  0  0  0  0  0  0  0  0  0  0
    6.2460   -2.1370   28.3590 C   0  0  0  0  0  0  0  0  0  0  0  0
    5.3130   -2.2450   29.3600 C   0  0  0  0  0  0  0  0  0  0  0  0
    5.3690   -1.3270   30.4130 C   0  0  0  0  0  0  0  0  0  0  0  0
    6.3650   -0.3460   30.4020 C   0  0  0  0  0  0  0  0  0  0  0  0
    7.3060   -0.1980   29.4400 N   0  0  0  0  0  0  0  0  0  0  0  0
    7.2400   -1.0900   28.4290 C   0  0  0  0  0  0  0  0  0  0  0  0
  1  2  2  0
  2  3  1  0
  3  4  2  0
  4  5  1  0
  5  6  1  0
  5  7  2  0
  7  8  1  0
  7  9  1  0
  3 10  1  0
  9 10  2  0
 10 11  1  0
 11 12  1  0
 12 13  2  0
 13 14  1  0
 14 15  2  0
 15 16  1  0
 12 17  1  0
 16 17  2  0
 11 18  1  0
 18 19  2  0
  2 20  1  0
 18 20  1  0
 20 21  1  0
 21 22  2  0
 22 23  1  0
 23 24  2  0
 24 25  1  0
 21 26  1  0
 25 26  2  0
M  END
