MAK-UNK-198e6d85-14
     RDKit          3D

 23 25  0  0  0  0  0  0  0  0999 V2000
   12.6810   -2.4380   22.0160 N   0  0  0  0  0  0  0  0  0  0  0  0
   12.7670   -2.5170   23.4840 C   0  0  0  0  0  0  0  0  0  0  0  0
   11.6290   -2.1310   24.2500 C   0  0  2  0  0  0  0  0  0  0  0  0
   10.5050   -2.9790   24.2580 O   0  0  0  0  0  0  0  0  0  0  0  0
    9.2960   -2.8410   23.3070 C   0  0  1  0  0  0  0  0  0  0  0  0
    7.9750   -3.4050   23.4660 C   0  0  2  0  0  0  0  0  0  0  0  0
    7.6620   -4.4810   24.2320 C   0  0  1  0  0  0  0  0  0  0  0  0
    6.8580   -3.9010   25.2880 O   0  0  0  0  0  0  0  0  0  0  0  0
    7.0000   -5.6520   23.6250 C   0  0  0  0  0  0  0  0  0  0  0  0
    6.2040   -5.4380   22.5120 C   0  0  0  0  0  0  0  0  0  0  0  0
    6.6560   -4.4760   21.6480 C   0  0  1  0  0  0  0  0  0  0  0  0
    5.9890   -4.0370   20.7220 O   0  0  0  0  0  0  0  0  0  0  0  0
    7.2910   -3.3700   22.2380 C   0  0  1  0  0  0  0  0  0  0  0  0
    6.2990   -2.3440   22.3370 O   0  0  0  0  0  0  0  0  0  0  0  0
    9.2880   -1.4310   23.5330 C   0  0  0  0  0  0  0  0  0  0  0  0
   10.5550   -1.4980   23.8590 C   0  0  0  0  0  0  0  0  0  0  0  0
   11.4690   -0.6910   23.6900 C   0  0  0  0  0  0  0  0  0  0  0  0
   12.8110   -0.5210   23.8920 C   0  0  0  0  0  0  0  0  0  0  0  0
   13.3690   -1.6270   24.5180 C   0  0  0  0  0  0  0  0  0  0  0  0
   12.5450   -2.6610   24.8430 C   0  0  0  0  0  0  0  0  0  0  0  0
   13.2030   -3.6710   25.4690 O   0  0  0  0  0  0  0  0  0  0  0  0
   11.1480   -2.6280   24.5290 C   0  0  0  0  0  0  0  0  0  0  0  0
   10.4630   -3.7250   24.9160 O   0  0  0  0  0  0  0  0  0  0  0  0
  1  2  1  0
  3  2  1  6
  3  4  1  0
  4  5  1  0
  6  5  1  6
  6  7  1  0
  7  8  1  1
  7  9  1  0
  9 10  1  0
 10 11  1  0
 11 12  1  1
  6 13  1  0
 11 13  1  0
 13 14  1  1
  5 15  1  1
 15 16  1  0
  3 17  1  0
 16 17  2  0
 17 18  1  0
 18 19  2  0
 19 20  1  0
 20 21  1  0
 16 22  1  0
 20 22  2  0
 22 23  1  0
M  END
