MAK-UNK-f2409524-32
     RDKit          3D

 29 31  0  0  0  0  0  0  0  0999 V2000
   13.1340    1.2850   22.8750 C   0  0  0  0  0  0  0  0  0  0  0  0
   12.7190   -0.1570   22.9850 C   0  0  0  0  0  0  0  0  0  0  0  0
   13.4330   -0.9820   23.5530 O   0  0  0  0  0  0  0  0  0  0  0  0
   11.4950   -0.3940   22.3900 N   0  0  0  0  0  0  0  0  0  0  0  0
   10.4110   -1.1400   22.9520 C   0  0  0  0  0  0  0  0  0  0  0  0
   10.5310   -2.5920   23.1330 C   0  0  0  0  0  0  0  0  0  0  0  0
    9.5390   -3.3730   23.6740 N   0  0  0  0  0  0  0  0  0  0  0  0
    8.8810   -2.3250   23.7800 C   0  0  0  0  0  0  0  0  0  0  0  0
    8.1960   -1.2350   23.8910 C   0  0  0  0  0  0  0  0  0  0  0  0
    9.1690   -0.3900   23.3450 C   0  0  0  0  0  0  0  0  0  0  0  0
    8.9220    1.0990   23.2140 C   0  0  0  0  0  0  0  0  0  0  0  0
    7.9520    1.4830   22.5280 O   0  0  0  0  0  0  0  0  0  0  0  0
    7.0690    0.6070   21.9360 C   0  0  2  0  0  0  0  0  0  0  0  0
    7.4990   -0.2270   20.8010 C   0  0  0  0  0  0  0  0  0  0  0  0
    7.0660   -0.6040   19.5050 C   0  0  0  0  0  0  0  0  0  0  0  0
    5.7400   -0.1490   19.3680 C   0  0  0  0  0  0  0  0  0  0  0  0
    5.3330    1.1120   20.1630 C   0  0  0  0  0  0  0  0  0  0  0  0
    5.8520    1.2470   21.6230 C   0  0  1  0  0  0  0  0  0  0  0  0
    4.6880    1.0820   22.6170 C   0  0  0  0  0  0  0  0  0  0  0  0
    4.0940    2.3290   23.0800 N   0  0  0  0  0  0  0  0  0  0  0  0
    2.6320    2.2170   23.2390 C   0  0  0  0  0  0  0  0  0  0  0  0
    1.9440    1.4490   22.3770 O   0  0  0  0  0  0  0  0  0  0  0  0
    2.0820    2.9210   24.3110 N   0  0  0  0  0  0  0  0  0  0  0  0
    0.6810    3.3700   24.3470 C   0  0  0  0  0  0  0  0  0  0  0  0
    0.6080    4.7750   24.1600 C   0  0  0  0  0  0  0  0  0  0  0  0
   -0.7220    5.3390   24.6950 C   0  0  0  0  0  0  0  0  0  0  0  0
   -1.9310    4.5070   24.2540 C   0  0  0  0  0  0  0  0  0  0  0  0
   -1.6140    3.2350   23.4320 C   0  0  0  0  0  0  0  0  0  0  0  0
   -0.2080    2.5990   23.5860 C   0  0  0  0  0  0  0  0  0  0  0  0
  1  2  1  0
  2  3  2  0
  2  4  1  0
  4  5  1  0
  5  6  2  0
  6  7  1  0
  7  8  2  0
  8  9  1  0
  5 10  1  0
  9 10  2  0
 10 11  1  0
 11 12  1  0
 13 12  1  6
 13 14  1  0
 14 15  1  0
 15 16  1  0
 16 17  1  0
 13 18  1  0
 17 18  1  0
 18 19  1  1
 19 20  1  0
 20 21  1  0
 21 22  2  0
 21 23  1  0
 23 24  1  0
 24 25  1  0
 25 26  1  0
 26 27  1  0
 27 28  1  0
 24 29  1  0
 28 29  1  0
M  END
