MAK-UNK-0cb6a3ad-11
     RDKit          3D

 19 20  0  0  0  0  0  0  0  0999 V2000
    9.2430   -4.2230   24.6050 O   0  0  0  0  0  0  0  0  0  0  0  0
    8.7310   -3.3760   23.8870 C   0  0  0  0  0  0  0  0  0  0  0  0
    7.4230   -3.3570   23.5980 N   0  0  0  0  0  0  0  0  0  0  0  0
    6.9390   -4.2640   22.6780 C   0  0  0  0  0  0  0  0  0  0  0  0
    6.3760   -3.4880   21.4580 C   0  0  0  0  0  0  0  0  0  0  0  0
    5.7090   -4.1620   20.2880 C   0  0  0  0  0  0  0  0  0  0  0  0
    6.2890   -4.6870   21.4610 C   0  0  0  0  0  0  0  0  0  0  0  0
    6.9500   -3.4830   22.4580 Cl  0  0  0  0  0  0  0  0  0  0  0  0
    6.4080   -5.8870   21.8880 C   0  0  0  0  0  0  0  0  0  0  0  0
    7.0400   -5.7150   23.0710 C   0  0  0  0  0  0  0  0  0  0  0  0
    9.4290   -2.3010   23.3230 N   0  0  0  0  0  0  0  0  0  0  0  0
   10.7330   -2.1130   23.8620 C   0  0  0  0  0  0  0  0  0  0  0  0
   11.5820   -1.0590   23.5340 C   0  0  0  0  0  0  0  0  0  0  0  0
   12.9600   -1.0650   24.2390 C   0  0  0  0  0  0  0  0  0  0  0  0
   13.1640   -2.1250   25.1060 C   0  0  0  0  0  0  0  0  0  0  0  0
   14.4870   -2.5210   26.0560 Cl  0  0  0  0  0  0  0  0  0  0  0  0
   12.2580   -3.0500   25.3250 C   0  0  0  0  0  0  0  0  0  0  0  0
   12.6740   -4.2270   26.4220 Cl  0  0  0  0  0  0  0  0  0  0  0  0
   11.0780   -3.0870   24.7510 C   0  0  0  0  0  0  0  0  0  0  0  0
  1  2  2  0
  2  3  1  0
  3  4  1  0
  4  5  2  0
  5  6  1  0
  6  7  2  0
  7  8  1  0
  7  9  1  0
  4 10  1  0
  9 10  2  0
  2 11  1  0
 11 12  1  0
 12 13  2  0
 13 14  1  0
 14 15  2  0
 15 16  1  0
 15 17  1  0
 17 18  1  0
 12 19  1  0
 17 19  2  0
M  END
