MAK-UNK-0d6072ac-23
     RDKit          3D

 20 22  0  0  0  0  0  0  0  0999 V2000
    5.0360   -4.9080   22.1760 C   0  0  0  0  0  0  0  0  0  0  0  0
    5.8730   -5.6410   23.2040 C   0  0  0  0  0  0  0  0  0  0  0  0
    6.4640   -6.7330   22.5710 C   0  0  0  0  0  0  0  0  0  0  0  0
    5.0210   -6.1180   24.3910 C   0  0  0  0  0  0  0  0  0  0  0  0
    4.9820   -5.5980   25.5160 O   0  0  0  0  0  0  0  0  0  0  0  0
    4.1790   -7.2700   24.1440 O   0  0  0  0  0  0  0  0  0  0  0  0
    7.1210   -4.8050   23.5600 C   0  0  0  0  0  0  0  0  0  0  0  0
    7.9740   -5.2580   24.4960 C   0  0  0  0  0  0  0  0  0  0  0  0
    9.1190   -4.5840   24.7480 C   0  0  0  0  0  0  0  0  0  0  0  0
    9.5200   -3.4720   24.1580 C   0  0  0  0  0  0  0  0  0  0  0  0
    8.7130   -2.9070   23.2520 C   0  0  0  0  0  0  0  0  0  0  0  0
    7.4960   -3.5650   22.9400 C   0  0  0  0  0  0  0  0  0  0  0  0
    9.3730   -1.6870   22.7940 N   0  0  0  0  0  0  0  0  0  0  0  0
   10.5790   -1.6140   23.4180 C   0  0  0  0  0  0  0  0  0  0  0  0
   11.7030   -0.6280   23.3350 C   0  0  0  0  0  0  0  0  0  0  0  0
   12.9550   -0.8790   24.1510 C   0  0  0  0  0  0  0  0  0  0  0  0
   13.0320   -2.1080   25.0350 C   0  0  0  0  0  0  0  0  0  0  0  0
   14.3060   -2.6140   26.0120 Cl  0  0  0  0  0  0  0  0  0  0  0  0
   11.8230   -2.9480   25.0090 C   0  0  0  0  0  0  0  0  0  0  0  0
   10.6950   -2.7250   24.2650 C   0  0  0  0  0  0  0  0  0  0  0  0
  1  2  1  0
  2  3  1  0
  2  4  1  0
  4  5  2  0
  4  6  1  0
  2  7  1  0
  7  8  2  0
  8  9  1  0
  9 10  2  0
 10 11  1  0
  7 12  1  0
 11 12  2  0
 11 13  1  0
 13 14  1  0
 14 15  1  0
 15 16  2  0
 16 17  1  0
 17 18  1  0
 17 19  2  0
 10 20  1  0
 14 20  2  0
 19 20  1  0
M  END
