MAK-UNK-9159f8ed-5
     RDKit          3D

 29 31  0  0  0  0  0  0  0  0999 V2000
   12.6100   -0.0460   23.0210 C   0  0  0  0  0  0  0  0  0  0  0  0
   12.7940   -1.6280   22.2210 S   0  0  0  0  0  0  0  0  0  0  0  0
   13.0690   -2.6030   23.2530 O   0  0  0  0  0  0  0  0  0  0  0  0
   13.6690   -1.4570   21.0900 O   0  0  0  0  0  0  0  0  0  0  0  0
   11.2720   -2.0060   21.6140 N   0  0  0  0  0  0  0  0  0  0  0  0
   10.0510   -2.0930   22.3040 C   0  0  0  0  0  0  0  0  0  0  0  0
    9.8060   -2.5620   23.5890 C   0  0  0  0  0  0  0  0  0  0  0  0
    8.5010   -2.5780   24.0910 C   0  0  0  0  0  0  0  0  0  0  0  0
    7.4380   -2.1410   23.3460 C   0  0  0  0  0  0  0  0  0  0  0  0
    7.6660   -1.6770   22.0720 C   0  0  0  0  0  0  0  0  0  0  0  0
    6.6250   -1.2430   21.2730 C   0  0  0  0  0  0  0  0  0  0  0  0
    5.9700   -0.2450   21.5220 O   0  0  0  0  0  0  0  0  0  0  0  0
    6.5430   -2.1220   20.2470 O   0  0  0  0  0  0  0  0  0  0  0  0
    6.0100   -3.3500   20.4920 C   0  0  0  0  0  0  0  0  0  0  0  0
    5.3910   -4.0620   19.7090 O   0  0  0  0  0  0  0  0  0  0  0  0
    6.3070   -3.6860   21.7700 N   0  0  0  0  0  0  0  0  0  0  0  0
    5.5170   -4.4200   22.6500 C   0  0  0  0  0  0  0  0  0  0  0  0
    5.3470   -5.8130   22.5470 C   0  0  0  0  0  0  0  0  0  0  0  0
    4.5410   -6.4770   23.4590 C   0  0  0  0  0  0  0  0  0  0  0  0
    3.8690   -5.6940   24.5340 C   0  0  0  0  0  0  0  0  0  0  0  0
    4.0690   -4.1980   24.6230 C   0  0  0  0  0  0  0  0  0  0  0  0
    3.4570   -3.4150   25.6260 N   0  0  0  0  0  0  0  0  0  0  0  0
    2.0430   -3.5070   25.9270 C   0  0  0  0  0  0  0  0  0  0  0  0
    1.8620   -2.4030   26.9380 C   0  0  0  0  0  0  0  0  0  0  0  0
    3.0600   -1.7760   27.2640 C   0  0  0  0  0  0  0  0  0  0  0  0
    4.0770   -2.3550   26.3290 C   0  0  0  0  0  0  0  0  0  0  0  0
    5.2210   -1.9350   26.2500 O   0  0  0  0  0  0  0  0  0  0  0  0
    4.8970   -3.6470   23.6520 C   0  0  0  0  0  0  0  0  0  0  0  0
    8.9560   -1.6520   21.5710 C   0  0  0  0  0  0  0  0  0  0  0  0
  1  2  1  0
  2  3  2  0
  2  4  2  0
  2  5  1  0
  5  6  1  0
  6  7  2  0
  7  8  1  0
  8  9  2  0
  9 10  1  0
 10 11  1  0
 11 12  2  0
 11 13  1  0
 13 14  1  0
 14 15  2  0
 14 16  1  0
 16 17  1  0
 17 18  2  0
 18 19  1  0
 19 20  2  0
 20 21  1  0
 21 22  1  0
 22 23  1  0
 23 24  1  0
 24 25  1  0
 22 26  1  0
 25 26  1  0
 26 27  2  0
 17 28  1  0
 21 28  2  0
  6 29  1  0
 10 29  2  0
M  END
