MAK-UNK-9e4a73aa-8
     RDKit          3D

 26 29  0  0  0  0  0  0  0  0999 V2000
    6.7200    0.2430   25.0630 O   0  0  0  0  0  0  0  0  0  0  0  0
    7.5450    0.0450   24.1630 C   0  0  0  0  0  0  0  0  0  0  0  0
    8.0940   -1.2810   23.8490 N   0  0  0  0  0  0  0  0  0  0  0  0
    7.2700   -2.2150   23.2960 C   0  0  0  0  0  0  0  0  0  0  0  0
    7.8590   -1.1050   22.4770 C   0  0  0  0  0  0  0  0  0  0  0  0
    7.6710   -0.7870   20.9890 C   0  0  0  0  0  0  0  0  0  0  0  0
    6.8740   -1.5660   20.2580 C   0  0  0  0  0  0  0  0  0  0  0  0
    6.2860   -2.6480   20.9810 N   0  0  0  0  0  0  0  0  0  0  0  0
    6.4980   -2.8930   22.3070 C   0  0  0  0  0  0  0  0  0  0  0  0
    9.4010   -1.2210   23.2090 C   0  0  0  0  0  0  0  0  0  0  0  0
   10.0540   -2.6160   22.4970 S   0  0  0  0  0  0  0  0  0  0  0  0
   10.1150    0.1090   23.1240 C   0  0  0  0  0  0  0  0  0  0  0  0
   11.5960    0.0440   22.9760 C   0  0  0  0  0  0  0  0  0  0  0  0
   12.2190    1.3960   22.8860 C   0  0  0  0  0  0  0  0  0  0  0  0
   13.5250    1.4280   22.7670 F   0  0  0  0  0  0  0  0  0  0  0  0
   11.4300    2.5680   22.9250 C   0  0  0  0  0  0  0  0  0  0  0  0
   12.1610    4.1210   22.7950 Cl  0  0  0  0  0  0  0  0  0  0  0  0
   10.0360    2.5030   23.0720 C   0  0  0  0  0  0  0  0  0  0  0  0
    9.3710    1.2750   23.1830 C   0  0  0  0  0  0  0  0  0  0  0  0
    8.0420    1.1170   23.3480 N   0  0  0  0  0  0  0  0  0  0  0  0
    7.2480    2.0810   22.8330 C   0  0  0  0  0  0  0  0  0  0  0  0
    6.4830    1.8920   21.5450 C   0  0  0  0  0  0  0  0  0  0  0  0
    5.6720    2.8970   21.0200 C   0  0  0  0  0  0  0  0  0  0  0  0
    5.5570    4.1070   21.6890 C   0  0  0  0  0  0  0  0  0  0  0  0
    6.3230    4.3290   23.0040 C   0  0  0  0  0  0  0  0  0  0  0  0
    7.1290    3.3030   23.5080 C   0  0  0  0  0  0  0  0  0  0  0  0
  1  2  2  0
  2  3  1  0
  3  4  1  0
  4  5  2  0
  5  6  1  0
  6  7  2  0
  7  8  1  0
  4  9  1  0
  8  9  2  0
  3 10  1  0
 10 11  2  0
 10 12  1  0
 12 13  1  0
 13 14  2  0
 14 15  1  0
 14 16  1  0
 16 17  1  0
 16 18  2  0
 12 19  2  0
 18 19  1  0
  2 20  1  0
 19 20  1  0
 20 21  1  0
 21 22  2  0
 22 23  1  0
 23 24  2  0
 24 25  1  0
 21 26  1  0
 25 26  2  0
M  END
