MAK-UNK-9e4a73aa-2
     RDKit          3D

 26 29  0  0  0  0  0  0  0  0999 V2000
    6.5290   -0.8040   25.0930 O   0  0  0  0  0  0  0  0  0  0  0  0
    6.7190   -1.5200   24.1030 C   0  0  0  0  0  0  0  0  0  0  0  0
    6.7030   -0.9630   22.8850 C   0  0  0  0  0  0  0  0  0  0  0  0
    5.6940    0.0200   22.4960 C   0  0  0  0  0  0  0  0  0  0  0  0
    5.7980    0.5460   21.0550 C   0  0  0  0  0  0  0  0  0  0  0  0
    4.9100    1.4450   20.6130 F   0  0  0  0  0  0  0  0  0  0  0  0
    6.8110    0.0680   20.2500 C   0  0  0  0  0  0  0  0  0  0  0  0
    6.8730    0.6640   18.6530 Cl  0  0  0  0  0  0  0  0  0  0  0  0
    7.7510   -0.8740   20.7110 C   0  0  0  0  0  0  0  0  0  0  0  0
    7.6730   -1.3610   22.0090 C   0  0  0  0  0  0  0  0  0  0  0  0
    8.6130   -2.3480   22.4930 N   0  0  0  0  0  0  0  0  0  0  0  0
    9.9670   -2.1440   22.7380 C   0  0  0  0  0  0  0  0  0  0  0  0
   11.0950   -1.3630   22.9620 C   0  0  0  0  0  0  0  0  0  0  0  0
   12.4610   -1.6090   23.1870 C   0  0  0  0  0  0  0  0  0  0  0  0
   12.5450   -0.2870   23.2450 C   0  0  0  0  0  0  0  0  0  0  0  0
   11.1580    0.1960   23.0220 C   0  0  0  0  0  0  0  0  0  0  0  0
    9.9010   -0.6710   22.7760 C   0  0  0  0  0  0  0  0  0  0  0  0
    7.9780   -3.4040   23.1460 C   0  0  0  0  0  0  0  0  0  0  0  0
    8.2000   -4.7970   22.9290 O   0  0  0  0  0  0  0  0  0  0  0  0
    6.9450   -3.0080   24.1420 C   0  0  2  0  0  0  0  0  0  0  0  0
    5.7270   -3.6250   23.9160 C   0  0  0  0  0  0  0  0  0  0  0  0
    4.8760   -3.9530   24.9760 C   0  0  0  0  0  0  0  0  0  0  0  0
    3.5320   -4.6480   24.6800 C   0  0  0  0  0  0  0  0  0  0  0  0
    3.2330   -4.9170   23.3510 C   0  0  0  0  0  0  0  0  0  0  0  0
    4.0950   -4.5760   22.3310 N   0  0  0  0  0  0  0  0  0  0  0  0
    5.3200   -3.9410   22.6210 C   0  0  0  0  0  0  0  0  0  0  0  0
  1  2  2  0
  2  3  1  0
  3  4  1  0
  4  5  2  0
  5  6  1  0
  5  7  1  0
  7  8  1  0
  7  9  2  0
  3 10  2  0
  9 10  1  0
 10 11  1  0
 11 12  1  0
 12 13  2  0
 13 14  1  0
 14 15  2  0
 15 16  1  0
 12 17  1  0
 16 17  2  0
 11 18  1  0
 18 19  2  0
  2 20  1  0
 18 20  1  0
 20 21  1  6
 21 22  2  0
 22 23  1  0
 23 24  2  0
 24 25  1  0
 21 26  1  0
 25 26  2  0
M  END
