MAK-UNK-194150d3-15
     RDKit          3D

 21 22  0  0  0  0  0  0  0  0999 V2000
    5.4190    1.4580   17.9420 C   0  0  0  0  0  0  0  0  0  0  0  0
    4.3810    0.9900   18.6270 C   0  0  0  0  0  0  0  0  0  0  0  0
    3.5330    1.8080   19.5300 C   0  0  0  0  0  0  0  0  0  0  0  0
    2.5660    2.6560   19.0580 N   0  0  0  0  0  0  0  0  0  0  0  0
    1.8370    3.3400   19.9600 C   0  0  0  0  0  0  0  0  0  0  0  0
    2.0900    3.1520   21.3420 N   0  0  0  0  0  0  0  0  0  0  0  0
    3.1070    2.2620   21.7870 C   0  0  0  0  0  0  0  0  0  0  0  0
    3.2950    2.1100   23.1260 N   0  0  0  0  0  0  0  0  0  0  0  0
    3.8790    1.5570   20.8730 C   0  0  0  0  0  0  0  0  0  0  0  0
    4.8640    0.7160   21.3640 C   0  0  0  0  0  0  0  0  0  0  0  0
    6.1650    0.9300   20.5860 C   0  0  0  0  0  0  0  0  0  0  0  0
    6.9140   -0.3670   20.3590 C   0  0  0  0  0  0  0  0  0  0  0  0
    7.5000   -0.7700   21.6300 N   0  0  0  0  0  0  0  0  0  0  0  0
    8.8960   -0.3470   21.7570 C   0  0  0  0  0  0  0  0  0  0  0  0
    9.2910   -0.5800   23.0730 C   0  0  0  0  0  0  0  0  0  0  0  0
   10.6060   -1.0450   23.1560 C   0  0  0  0  0  0  0  0  0  0  0  0
   11.3780   -1.3180   22.0520 C   0  0  0  0  0  0  0  0  0  0  0  0
   12.6790   -1.7670   22.1160 C   0  0  0  0  0  0  0  0  0  0  0  0
   13.2710   -1.9670   23.4610 C   0  0  0  0  0  0  0  0  0  0  0  0
   12.5000   -1.7030   24.5730 C   0  0  0  0  0  0  0  0  0  0  0  0
   11.1790   -1.2530   24.4270 C   0  0  0  0  0  0  0  0  0  0  0  0
  1  2  1  0
  2  3  1  0
  3  4  2  0
  4  5  1  0
  5  6  2  0
  6  7  1  0
  7  8  1  0
  3  9  1  0
  7  9  2  0
  9 10  1  0
 10 11  3  0
 11 12  1  0
 12 13  1  0
 13 14  1  0
 14 15  1  0
 15 16  1  0
 16 17  2  0
 17 18  1  0
 18 19  2  0
 19 20  1  0
 16 21  1  0
 20 21  2  0
M  END
