MAK-UNK-6435e6c2-4
     RDKit          3D

 16 17  0  0  0  0  0  0  0  0999 V2000
   11.8660   -2.1860   24.3370 C   0  0  0  0  0  0  0  0  0  0  0  0
   11.6020   -1.7580   22.8850 C   0  0  0  0  0  0  0  0  0  0  0  0
   12.3470   -2.0270   21.9550 O   0  0  0  0  0  0  0  0  0  0  0  0
   10.3800   -0.9900   22.7500 N   0  0  0  0  0  0  0  0  0  0  0  0
    9.1190   -1.4980   22.3300 C   0  0  0  0  0  0  0  0  0  0  0  0
    8.3430   -0.5760   21.6170 C   0  0  0  0  0  0  0  0  0  0  0  0
    7.0810   -0.9420   21.1520 C   0  0  0  0  0  0  0  0  0  0  0  0
    6.5710   -2.2160   21.3820 C   0  0  0  0  0  0  0  0  0  0  0  0
    7.3430   -3.1450   22.0920 C   0  0  0  0  0  0  0  0  0  0  0  0
    6.8480   -4.4610   22.3410 N   0  0  0  0  0  0  0  0  0  0  0  0
    7.0540   -4.9780   23.6910 C   0  0  0  0  0  0  0  0  0  0  0  0
    5.7360   -5.1040   24.1100 C   0  0  0  0  0  0  0  0  0  0  0  0
    4.9400   -5.3520   23.0010 C   0  0  0  0  0  0  0  0  0  0  0  0
    5.6570   -5.0540   21.8560 C   0  0  0  0  0  0  0  0  0  0  0  0
    5.2990   -5.2800   20.7110 O   0  0  0  0  0  0  0  0  0  0  0  0
    8.6120   -2.7800   22.5630 C   0  0  0  0  0  0  0  0  0  0  0  0
  1  2  1  0
  2  3  2  0
  2  4  1  0
  4  5  1  0
  5  6  2  0
  6  7  1  0
  7  8  2  0
  8  9  1  0
  9 10  1  0
 10 11  1  0
 11 12  1  0
 12 13  1  0
 10 14  1  0
 13 14  1  0
 14 15  2  0
  5 16  1  0
  9 16  2  0
M  END
