MAK-UNK-a7992eb3-10
     RDKit          3D

 27 30  0  0  0  0  0  0  0  0999 V2000
    6.6260   -0.2320   19.5890 C   0  0  0  0  0  0  0  0  0  0  0  0
    7.5390   -0.7260   20.7240 C   0  0  0  0  0  0  0  0  0  0  0  0
    7.4170   -2.1810   21.1550 C   0  0  0  0  0  0  0  0  0  0  0  0
    6.4890   -3.0070   20.5080 C   0  0  0  0  0  0  0  0  0  0  0  0
    6.3630   -4.3560   20.8720 C   0  0  0  0  0  0  0  0  0  0  0  0
    5.8290   -4.4780   22.1910 N   0  0  0  0  0  0  0  0  0  0  0  0
    6.6450   -4.2280   23.2800 C   0  0  0  0  0  0  0  0  0  0  0  0
    6.1330   -4.6830   24.5010 C   0  0  0  0  0  0  0  0  0  0  0  0
    4.8990   -4.8330   24.6060 O   0  0  0  0  0  0  0  0  0  0  0  0
    4.2760   -5.6460   23.5720 C   0  0  2  0  0  0  0  0  0  0  0  0
    3.8580   -6.9890   24.1190 C   0  0  0  0  0  0  0  0  0  0  0  0
    3.4230   -6.8410   25.2600 O   0  0  0  0  0  0  0  0  0  0  0  0
    2.0310   -7.1600   25.4350 C   0  0  0  0  0  0  0  0  0  0  0  0
    1.3390   -5.9510   25.5760 C   0  0  0  0  0  0  0  0  0  0  0  0
    0.0500   -6.0900   26.1060 C   0  0  0  0  0  0  0  0  0  0  0  0
   -0.0620   -6.9560   27.1320 N   0  0  0  0  0  0  0  0  0  0  0  0
    0.3660   -6.5200   28.3480 C   0  0  0  0  0  0  0  0  0  0  0  0
   -0.3160   -5.5490   29.0880 C   0  0  0  0  0  0  0  0  0  0  0  0
   -1.3490   -5.7640   29.9970 C   0  0  0  0  0  0  0  0  0  0  0  0
   -1.8570   -4.6320   30.6010 C   0  0  0  0  0  0  0  0  0  0  0  0
   -1.0980   -3.1960   30.0870 S   0  0  0  0  0  0  0  0  0  0  0  0
   -0.0550   -4.1640   29.0200 C   0  0  0  0  0  0  0  0  0  0  0  0
    0.6090   -8.2110   26.7830 C   0  0  0  0  0  0  0  0  0  0  0  0
    1.7970   -8.0630   26.6540 C   0  0  0  0  0  0  0  0  0  0  0  0
    5.2380   -5.7960   22.4050 C   0  0  0  0  0  0  0  0  0  0  0  0
    5.6740   -2.4800   19.4650 C   0  0  0  0  0  0  0  0  0  0  0  0
    5.7350   -1.1380   19.0150 C   0  0  0  0  0  0  0  0  0  0  0  0
  1  2  2  0
  2  3  1  0
  3  4  2  0
  4  5  1  0
  5  6  1  0
  6  7  1  0
  7  8  1  0
  8  9  1  0
  9 10  1  0
 10 11  1  1
 11 12  1  0
 12 13  1  0
 13 14  1  0
 14 15  1  0
 15 16  1  0
 16 17  1  0
 17 18  1  0
 18 19  1  0
 19 20  2  0
 20 21  1  0
 18 22  2  0
 21 22  1  0
 16 23  1  0
 13 24  1  0
 23 24  1  0
  6 25  1  0
 10 25  1  0
  4 26  1  0
  1 27  1  0
 26 27  2  0
M  END
