MAK-UNK-9a6be56d-30
     RDKit          3D

 38 42  0  0  0  0  0  0  0  0999 V2000
    8.8280   -0.6310   23.5190 C   0  0  0  0  0  0  0  0  0  0  0  0
   10.0500   -0.3040   22.8810 N   0  0  0  0  0  0  0  0  0  0  0  0
   10.6800   -1.4740   22.3860 C   0  0  0  0  0  0  0  0  0  0  0  0
   11.8330   -1.5570   23.1100 C   0  0  1  0  0  0  0  0  0  0  0  0
   12.3980   -2.8440   23.0550 N   0  0  0  0  0  0  0  0  0  0  0  0
   13.7350   -2.7380   23.4660 C   0  0  0  0  0  0  0  0  0  0  0  0
   13.7840   -2.6690   24.9360 C   0  0  0  0  0  0  0  0  0  0  0  0
   14.1570   -3.6060   25.9750 C   0  0  0  0  0  0  0  0  0  0  0  0
   14.2160   -3.3380   27.2480 C   0  0  0  0  0  0  0  0  0  0  0  0
   15.0530   -4.7620   29.3360 C   0  0  0  0  0  0  0  0  0  0  0  0
   15.3790   -6.2520   30.2530 C   0  0  0  0  0  0  0  0  0  0  0  0
   16.3760   -6.4560   31.9120 C   0  0  0  0  0  0  0  0  0  0  0  0
   17.0570   -6.1980   32.9770 C   0  0  0  0  0  0  0  0  0  0  0  0
   17.0830   -5.1310   32.9990 C   0  0  0  0  0  0  0  0  0  0  0  0
   16.4450   -4.7270   31.8240 C   0  0  0  0  0  0  0  0  0  0  0  0
   16.8600   -3.5100   32.5000 F   0  0  0  0  0  0  0  0  0  0  0  0
   13.3310   -1.4000   26.8290 N   0  0  0  0  0  0  0  0  0  0  0  0
   11.8650    0.4320   29.6560 S   0  0  0  0  0  0  0  0  0  0  0  0
   11.9280   -0.2610   31.0480 O   0  0  0  0  0  0  0  0  0  0  0  0
   10.6100   -0.1030   30.3410 O   0  0  0  0  0  0  0  0  0  0  0  0
   11.2650    2.0650   30.3210 C   0  0  0  0  0  0  0  0  0  0  0  0
   11.8370    3.2540   30.3290 C   0  0  0  0  0  0  0  0  0  0  0  0
   11.1840    4.3480   30.8850 C   0  0  0  0  0  0  0  0  0  0  0  0
    9.9340    4.2150   31.4480 C   0  0  0  0  0  0  0  0  0  0  0  0
    9.2820    3.0480   31.4960 N   0  0  0  0  0  0  0  0  0  0  0  0
    9.9290    1.9910   30.9470 C   0  0  0  0  0  0  0  0  0  0  0  0
   13.3090   -1.3320   25.3980 C   0  0  0  0  0  0  0  0  0  0  0  0
   12.8050   -0.4560   22.6130 C   0  0  0  0  0  0  0  0  0  0  0  0
   12.1760    0.7980   22.8090 C   0  0  0  0  0  0  0  0  0  0  0  0
   12.9370    1.9500   22.8540 C   0  0  0  0  0  0  0  0  0  0  0  0
   12.3790    3.2160   23.0670 C   0  0  0  0  0  0  0  0  0  0  0  0
   11.0060    3.3530   23.2540 C   0  0  0  0  0  0  0  0  0  0  0  0
   10.2920    4.9370   23.5940 S   0  0  0  0  0  0  0  0  0  0  0  0
   11.0180    5.9750   22.4940 N   0  0  0  0  0  0  0  0  0  0  0  0
    8.8900    4.8970   23.3340 O   0  0  0  0  0  0  0  0  0  0  0  0
   10.7160    5.3360   24.8820 O   0  0  0  0  0  0  0  0  0  0  0  0
   10.1880    2.2380   23.1940 C   0  0  0  0  0  0  0  0  0  0  0  0
   10.7870    0.8690   22.9570 C   0  0  0  0  0  0  0  0  0  0  0  0
  1  2  1  0
  2  3  1  0
  3  4  1  0
  4  5  1  6
  5  6  1  0
  6  7  1  0
  7  8  1  0
  8  9  2  0
  9 10  1  0
 10 11  2  0
 11 12  1  0
 12 13  2  0
 13 14  1  0
 10 15  1  0
 14 15  2  0
 15 16  1  0
  9 17  1  0
 17 18  1  0
 18 19  2  0
 18 20  2  0
 18 21  1  0
 21 22  2  0
 22 23  1  0
 23 24  2  0
 24 25  1  0
 21 26  1  0
 25 26  2  0
  7 27  2  0
 17 27  1  0
  4 28  1  0
 28 29  1  0
 29 30  1  0
 30 31  2  0
 31 32  1  0
 32 33  1  0
 33 34  1  0
 33 35  2  0
 33 36  2  0
 32 37  2  0
  2 38  1  0
 29 38  2  0
 37 38  1  0
M  END
