MAK-UNK-f2409524-2
     RDKit          3D

 23 24  0  0  0  0  0  0  0  0999 V2000
    9.7330   -0.4930   22.3510 C   0  0  0  0  0  0  0  0  0  0  0  0
    8.9010    0.1390   21.5040 C   0  0  0  0  0  0  0  0  0  0  0  0
    9.0870    1.3250   21.1870 O   0  0  0  0  0  0  0  0  0  0  0  0
    7.8140   -0.7640   21.0730 N   0  0  0  0  0  0  0  0  0  0  0  0
    6.8600   -0.1380   20.1530 C   0  0  0  0  0  0  0  0  0  0  0  0
    7.0600   -0.2010   18.7870 C   0  0  0  0  0  0  0  0  0  0  0  0
    6.2120    0.3800   17.7450 N   0  0  0  0  0  0  0  0  0  0  0  0
    5.0380    1.1020   18.2290 C   0  0  0  0  0  0  0  0  0  0  0  0
    4.8200    1.1580   19.7030 C   0  0  0  0  0  0  0  0  0  0  0  0
    5.7510    0.5310   20.6470 C   0  0  0  0  0  0  0  0  0  0  0  0
    5.4530    0.6500   22.1320 C   0  0  0  0  0  0  0  0  0  0  0  0
    5.7350    2.0330   22.7260 C   0  0  0  0  0  0  0  0  0  0  0  0
    4.6500    2.8700   23.0470 C   0  0  0  0  0  0  0  0  0  0  0  0
    4.5550    4.1460   22.3610 N   0  0  0  0  0  0  0  0  0  0  0  0
    5.3110    5.2110   22.8500 C   0  0  0  0  0  0  0  0  0  0  0  0
    6.1070    5.1990   23.8740 N   0  0  0  0  0  0  0  0  0  0  0  0
    5.1890    6.3970   22.1700 N   0  0  0  0  0  0  0  0  0  0  0  0
    6.1940    7.4750   22.1260 C   0  0  0  0  0  0  0  0  0  0  0  0
    7.6180    6.9000   21.9040 C   0  0  0  0  0  0  0  0  0  0  0  0
    8.6440    7.3380   22.7600 C   0  0  0  0  0  0  0  0  0  0  0  0
    8.3140    8.4570   23.7690 C   0  0  0  0  0  0  0  0  0  0  0  0
    7.0500    9.0460   23.7510 C   0  0  0  0  0  0  0  0  0  0  0  0
    5.9950    8.2920   23.2520 C   0  0  0  0  0  0  0  0  0  0  0  0
  1  2  1  0
  2  3  2  0
  2  4  1  0
  4  5  1  0
  5  6  2  0
  6  7  1  0
  7  8  2  0
  8  9  1  0
  5 10  1  0
  9 10  2  0
 10 11  1  0
 11 12  1  0
 12 13  1  0
 13 14  1  0
 14 15  2  3
 15 16  1  0
 15 17  1  0
 17 18  1  0
 18 19  1  0
 19 20  1  0
 20 21  1  0
 21 22  1  0
 18 23  1  0
 22 23  1  0
M  END
