MAK-UNK-b1d4dcd7-11
     RDKit          3D

 28 32  0  0  0  0  0  0  0  0999 V2000
    6.5050   -1.8440   19.6690 O   0  0  0  0  0  0  0  0  0  0  0  0
    6.5170   -1.8490   20.9040 C   0  0  0  0  0  0  0  0  0  0  0  0
    5.3880   -2.3760   21.7760 C   0  0  1  0  0  0  0  0  0  0  0  0
    5.5880   -3.7100   22.1450 C   0  0  0  0  0  0  0  0  0  0  0  0
    5.4810   -4.6330   21.1140 C   0  0  0  0  0  0  0  0  0  0  0  0
    5.6460   -5.9900   21.2880 C   0  0  0  0  0  0  0  0  0  0  0  0
    5.9700   -6.5120   22.6800 C   0  0  0  0  0  0  0  0  0  0  0  0
    6.0730   -5.4610   23.7650 C   0  0  0  0  0  0  0  0  0  0  0  0
    5.8790   -4.1150   23.4600 C   0  0  0  0  0  0  0  0  0  0  0  0
    5.1940   -1.4620   22.8350 N   0  0  0  0  0  0  0  0  0  0  0  0
    3.8960   -1.0250   23.3590 C   0  0  0  0  0  0  0  0  0  0  0  0
    3.9830    0.2160   23.9540 C   0  0  0  0  0  0  0  0  0  0  0  0
    5.2460    0.7690   23.8230 C   0  0  0  0  0  0  0  0  0  0  0  0
    6.2370   -0.0650   24.3510 C   0  0  1  0  0  0  0  0  0  0  0  0
    6.2590   -0.0350   25.5860 O   0  0  0  0  0  0  0  0  0  0  0  0
    6.2510   -1.4590   23.7140 C   0  0  2  0  0  0  0  0  0  0  0  0
    7.5830   -1.6600   23.0510 C   0  0  1  0  0  0  0  0  0  0  0  0
    8.1360   -2.9110   23.1090 C   0  0  0  0  0  0  0  0  0  0  0  0
    9.4250   -3.0330   22.7920 N   0  0  0  0  0  0  0  0  0  0  0  0
   10.2470   -2.5710   23.8910 C   0  0  0  0  0  0  0  0  0  0  0  0
   11.1100   -1.3680   23.5050 C   0  0  0  0  0  0  0  0  0  0  0  0
   12.4610   -1.3450   23.3410 C   0  0  0  0  0  0  0  0  0  0  0  0
   12.9950   -0.1280   22.9990 C   0  0  0  0  0  0  0  0  0  0  0  0
   12.0360    0.8640   22.8840 C   0  0  0  0  0  0  0  0  0  0  0  0
   10.4590    0.2390   23.1980 S   0  0  0  0  0  0  0  0  0  0  0  0
    9.6950   -2.2240   21.6030 C   0  0  0  0  0  0  0  0  0  0  0  0
    8.6880   -1.3250   21.1700 C   0  0  0  0  0  0  0  0  0  0  0  0
    7.5170   -1.3560   21.7170 N   0  0  0  0  0  0  0  0  0  0  0  0
  1  2  2  0
  2  3  1  0
  3  4  1  1
  4  5  2  0
  5  6  1  0
  6  7  2  0
  7  8  1  0
  4  9  1  0
  8  9  2  0
  3 10  1  0
 10 11  1  0
 11 12  1  0
 12 13  1  0
 13 14  1  0
 14 15  1  1
 16 10  1  6
 14 16  1  0
 16 17  1  0
 17 18  1  6
 18 19  1  0
 19 20  1  0
 20 21  1  0
 21 22  2  0
 22 23  1  0
 23 24  2  0
 21 25  1  0
 24 25  1  0
 19 26  1  0
 26 27  1  0
  2 28  1  0
 17 28  1  0
 27 28  1  0
M  END
