MAK-UNK-60abb798-5
     RDKit          3D

 22 24  0  0  0  0  0  0  0  0999 V2000
    6.3200   -2.2660   19.9690 C   0  0  0  0  0  0  0  0  0  0  0  0
    5.8930   -3.6760   20.4130 C   0  0  0  0  0  0  0  0  0  0  0  0
    6.5980   -4.2530   21.5330 N   0  0  0  0  0  0  0  0  0  0  0  0
    6.1170   -5.3950   22.2240 C   0  0  0  0  0  0  0  0  0  0  0  0
    6.8990   -5.8570   23.2860 C   0  0  0  0  0  0  0  0  0  0  0  0
    7.5000   -4.8940   24.0890 C   0  0  0  0  0  0  0  0  0  0  0  0
    8.2050   -3.8900   23.4550 C   0  0  2  0  0  0  0  0  0  0  0  0
    9.0710   -3.0280   24.1790 C   0  0  2  0  0  0  0  0  0  0  0  0
    9.2110   -1.7720   23.7880 C   0  0  0  0  0  0  0  0  0  0  0  0
   10.4560   -1.8500   24.1630 C   0  0  0  0  0  0  0  0  0  0  0  0
   11.4420   -1.0630   23.9250 C   0  0  0  0  0  0  0  0  0  0  0  0
   12.7680   -0.9830   24.2150 C   0  0  0  0  0  0  0  0  0  0  0  0
   13.3180   -2.0880   25.0530 C   0  0  0  0  0  0  0  0  0  0  0  0
   12.3150   -3.1820   25.5010 C   0  0  0  0  0  0  0  0  0  0  0  0
   12.5540   -4.2800   26.2920 O   0  0  0  0  0  0  0  0  0  0  0  0
   10.8490   -3.0000   25.0080 C   0  0  0  0  0  0  0  0  0  0  0  0
    9.9080   -3.9370   25.3900 O   0  0  0  0  0  0  0  0  0  0  0  0
   11.4860   -2.2810   24.6240 C   0  0  2  0  0  0  0  0  0  0  0  0
   12.8100   -2.7330   24.3430 C   0  0  0  0  0  0  0  0  0  0  0  0
   13.4740   -3.2480   25.5430 N   0  0  0  0  0  0  0  0  0  0  0  0
   10.3940   -3.2750   24.2620 O   0  0  0  0  0  0  0  0  0  0  0  0
    7.2740   -3.2470   22.4050 C   0  0  0  0  0  0  0  0  0  0  0  0
  1  2  1  0
  2  3  1  0
  3  4  1  0
  4  5  1  0
  5  6  1  0
  7  6  1  1
  7  8  1  0
  8  9  1  6
  9 10  1  0
 10 11  2  0
 11 12  1  0
 12 13  2  0
 13 14  1  0
 14 15  1  0
 10 16  1  0
 14 16  2  0
 16 17  1  0
 11 18  1  0
 18 19  1  6
 19 20  1  0
  8 21  1  0
 18 21  1  0
  3 22  1  0
  7 22  1  0
M  END
