MAK-UNK-10572812-17
     RDKit          3D

 34 38  0  0  0  0  0  0  0  0999 V2000
   13.0980   -1.5790   24.2440 C   0  0  0  0  0  0  0  0  0  0  0  0
   12.6230   -1.1890   23.0000 N   0  0  0  0  0  0  0  0  0  0  0  0
   11.6200   -2.1420   22.4930 C   0  0  0  0  0  0  0  0  0  0  0  0
   10.2790   -1.7700   22.5330 C   0  0  0  0  0  0  0  0  0  0  0  0
   10.1160   -0.3690   22.1840 N   0  0  0  0  0  0  0  0  0  0  0  0
    9.0290    0.1640   21.5280 C   0  0  0  0  0  0  0  0  0  0  0  0
    8.9340    1.3910   21.2930 O   0  0  0  0  0  0  0  0  0  0  0  0
    8.0610   -0.7560   21.1220 C   0  0  0  0  0  0  0  0  0  0  0  0
    7.0830   -0.2300   20.1360 C   0  0  0  0  0  0  0  0  0  0  0  0
    7.2710   -0.4290   18.6690 C   0  0  0  0  0  0  0  0  0  0  0  0
    6.2340    0.1890   18.0490 N   0  0  0  0  0  0  0  0  0  0  0  0
    5.3870    0.7590   19.0050 C   0  0  0  0  0  0  0  0  0  0  0  0
    4.2530    1.4530   18.7530 N   0  0  0  0  0  0  0  0  0  0  0  0
    3.6230    1.8850   19.9100 C   0  0  0  0  0  0  0  0  0  0  0  0
    2.4790    2.5850   19.8230 C   0  0  0  0  0  0  0  0  0  0  0  0
    2.1790    3.1610   18.7780 O   0  0  0  0  0  0  0  0  0  0  0  0
    1.6540    2.6550   20.9350 N   0  0  0  0  0  0  0  0  0  0  0  0
    0.6040    3.6420   21.0250 C   0  0  0  0  0  0  0  0  0  0  0  0
   -0.3490    3.3860   20.0370 C   0  0  0  0  0  0  0  0  0  0  0  0
   -1.6950    3.7240   20.1940 C   0  0  0  0  0  0  0  0  0  0  0  0
   -2.1570    5.0360   20.2460 C   0  0  0  0  0  0  0  0  0  0  0  0
   -3.5170    4.9930   20.3940 N   0  0  0  0  0  0  0  0  0  0  0  0
   -3.9580    3.6840   20.4400 C   0  0  0  0  0  0  0  0  0  0  0  0
   -5.2620    3.1850   20.5750 C   0  0  0  0  0  0  0  0  0  0  0  0
   -5.4610    1.8010   20.5940 C   0  0  0  0  0  0  0  0  0  0  0  0
   -4.2610    0.8960   20.4680 C   0  0  0  0  0  0  0  0  0  0  0  0
   -4.4120   -0.4390   20.4830 F   0  0  0  0  0  0  0  0  0  0  0  0
   -2.9860    1.4630   20.3360 C   0  0  0  0  0  0  0  0  0  0  0  0
   -2.8300    2.8580   20.3190 C   0  0  0  0  0  0  0  0  0  0  0  0
    4.0650    1.6660   21.2060 C   0  0  0  0  0  0  0  0  0  0  0  0
    5.2240    0.9640   21.3930 C   0  0  0  0  0  0  0  0  0  0  0  0
    5.9060    0.4960   20.2920 C   0  0  0  0  0  0  0  0  0  0  0  0
   10.8580    0.4740   23.0630 C   0  0  0  0  0  0  0  0  0  0  0  0
   12.2340    0.2410   22.9930 C   0  0  0  0  0  0  0  0  0  0  0  0
  1  2  1  0
  2  3  1  0
  3  4  1  0
  4  5  1  0
  5  6  1  0
  6  7  2  0
  6  8  1  0
  8  9  1  0
  9 10  2  0
 10 11  1  0
 11 12  1  0
 12 13  1  0
 13 14  2  0
 14 15  1  0
 15 16  2  0
 15 17  1  0
 17 18  1  0
 18 19  1  0
 19 20  1  0
 20 21  2  0
 21 22  1  0
 22 23  1  0
 23 24  1  0
 24 25  2  0
 25 26  1  0
 26 27  1  0
 26 28  2  0
 20 29  1  0
 23 29  2  0
 28 29  1  0
 14 30  1  0
 30 31  2  0
  9 32  1  0
 12 32  2  0
 31 32  1  0
  5 33  1  0
  2 34  1  0
 33 34  1  0
M  END
