MAK-UNK-f2409524-37
     RDKit          3D

 30 32  0  0  0  0  0  0  0  0999 V2000
    9.8070   -0.4670   22.2170 C   0  0  0  0  0  0  0  0  0  0  0  0
    8.6880    0.1890   21.4420 C   0  0  0  0  0  0  0  0  0  0  0  0
    8.7560    1.3720   21.0730 O   0  0  0  0  0  0  0  0  0  0  0  0
    7.6240   -0.6730   21.2020 N   0  0  0  0  0  0  0  0  0  0  0  0
    6.4960   -0.4590   20.2710 C   0  0  2  0  0  0  0  0  0  0  0  0
    6.8630    0.1880   19.0960 C   0  0  0  0  0  0  0  0  0  0  0  0
    5.9390    0.7440   18.2920 C   0  0  0  0  0  0  0  0  0  0  0  0
    5.1390    1.7190   18.8670 C   0  0  1  0  0  0  0  0  0  0  0  0
    4.2050    2.4860   18.1790 O   0  0  0  0  0  0  0  0  0  0  0  0
    2.9630    2.8910   18.6770 C   0  0  0  0  0  0  0  0  0  0  0  0
    2.1960    4.1270   18.2160 C   0  0  0  0  0  0  0  0  0  0  0  0
    0.9920    4.4920   18.6930 N   0  0  0  0  0  0  0  0  0  0  0  0
    0.4740    3.6860   19.6280 C   0  0  0  0  0  0  0  0  0  0  0  0
    1.0370    2.5690   20.1240 N   0  0  0  0  0  0  0  0  0  0  0  0
    2.2570    2.1960   19.6470 C   0  0  0  0  0  0  0  0  0  0  0  0
    4.3730    1.0830   20.0090 C   0  0  2  0  0  0  0  0  0  0  0  0
    3.6630    2.2510   20.6250 C   0  0  0  0  0  0  0  0  0  0  0  0
    5.2410    0.1850   20.9480 C   0  0  2  0  0  0  0  0  0  0  0  0
    5.4330    0.5760   22.2990 C   0  0  0  0  0  0  0  0  0  0  0  0
    5.2910    1.8990   22.7720 C   0  0  0  0  0  0  0  0  0  0  0  0
    3.9590    2.4980   22.6750 N   0  0  0  0  0  0  0  0  0  0  0  0
    2.9600    2.4180   23.6330 C   0  0  0  0  0  0  0  0  0  0  0  0
    2.9330    1.6130   24.5560 O   0  0  0  0  0  0  0  0  0  0  0  0
    1.9900    3.3850   23.3910 N   0  0  0  0  0  0  0  0  0  0  0  0
    0.6850    3.4570   24.0630 C   0  0  0  0  0  0  0  0  0  0  0  0
    0.4280    4.7550   24.5240 C   0  0  0  0  0  0  0  0  0  0  0  0
   -0.7950    4.7930   25.2500 C   0  0  0  0  0  0  0  0  0  0  0  0
   -1.8260    4.6970   24.3490 C   0  0  0  0  0  0  0  0  0  0  0  0
   -1.8340    3.3390   23.6610 C   0  0  0  0  0  0  0  0  0  0  0  0
   -0.4450    2.9990   23.1250 C   0  0  0  0  0  0  0  0  0  0  0  0
  1  2  1  0
  2  3  2  0
  2  4  1  0
  5  4  1  1
  5  6  1  0
  6  7  1  0
  7  8  1  0
  8  9  1  6
  9 10  1  0
 10 11  2  0
 11 12  1  0
 12 13  2  0
 13 14  1  0
 10 15  1  0
 14 15  2  0
  8 16  1  0
 16 17  1  1
  5 18  1  0
 16 18  1  0
 18 19  1  1
 19 20  1  0
 20 21  1  0
 21 22  1  0
 22 23  2  0
 22 24  1  0
 24 25  1  0
 25 26  1  0
 26 27  1  0
 27 28  1  0
 28 29  1  0
 25 30  1  0
 29 30  1  0
M  END
