MAK-UNK-129dcd6f-7
     RDKit          3D

 26 28  0  0  0  0  0  0  0  0999 V2000
   -0.5480    1.5870   20.5990 C   0  0  0  0  0  0  0  0  0  0  0  0
    0.4770    1.2860   21.6020 C   0  0  0  0  0  0  0  0  0  0  0  0
    0.1560    1.1140   22.7750 O   0  0  0  0  0  0  0  0  0  0  0  0
    1.7940    1.2170   21.1470 N   0  0  0  0  0  0  0  0  0  0  0  0
    2.4910    2.4770   21.0040 C   0  0  0  0  0  0  0  0  0  0  0  0
    1.6940    3.5280   21.5260 C   0  0  0  0  0  0  0  0  0  0  0  0
    2.1390    4.9500   21.5350 N   0  0  0  0  0  0  0  0  0  0  0  0
    3.4560    5.1850   20.9730 C   0  0  0  0  0  0  0  0  0  0  0  0
    4.2890    4.0800   20.4290 C   0  0  0  0  0  0  0  0  0  0  0  0
    3.7890    2.6500   20.4350 C   0  0  0  0  0  0  0  0  0  0  0  0
    4.7760    1.6360   19.8390 C   0  0  0  0  0  0  0  0  0  0  0  0
    5.0370    1.4350   18.3890 C   0  0  0  0  0  0  0  0  0  0  0  0
    5.9600    0.5180   17.9180 N   0  0  0  0  0  0  0  0  0  0  0  0
    6.6870   -0.2570   18.7510 C   0  0  0  0  0  0  0  0  0  0  0  0
    6.4890   -0.1200   20.1350 C   0  0  0  0  0  0  0  0  0  0  0  0
    7.2550   -0.9000   20.8920 N   0  0  0  0  0  0  0  0  0  0  0  0
    8.3400   -0.2950   21.4860 C   0  0  0  0  0  0  0  0  0  0  0  0
    8.5700    0.9090   21.3430 O   0  0  0  0  0  0  0  0  0  0  0  0
    9.2050   -1.0050   22.2420 N   0  0  0  0  0  0  0  0  0  0  0  0
   10.4980   -0.5750   22.4910 C   0  0  0  0  0  0  0  0  0  0  0  0
   10.7520    0.7100   22.9470 C   0  0  0  0  0  0  0  0  0  0  0  0
   12.0230    1.1750   23.1760 C   0  0  0  0  0  0  0  0  0  0  0  0
   13.1050    0.3500   22.9550 C   0  0  0  0  0  0  0  0  0  0  0  0
   12.9420   -0.9600   22.5050 C   0  0  0  0  0  0  0  0  0  0  0  0
   11.5430   -1.4620   22.2530 C   0  0  0  0  0  0  0  0  0  0  0  0
    5.5560    0.7990   20.6590 C   0  0  0  0  0  0  0  0  0  0  0  0
  1  2  1  0
  2  3  2  0
  2  4  1  0
  4  5  1  0
  5  6  2  0
  6  7  1  0
  7  8  2  0
  8  9  1  0
  5 10  1  0
  9 10  2  0
 10 11  1  0
 11 12  2  0
 12 13  1  0
 13 14  2  0
 14 15  1  0
 15 16  1  0
 16 17  1  0
 17 18  2  0
 17 19  1  0
 19 20  1  0
 20 21  2  0
 21 22  1  0
 22 23  2  0
 23 24  1  0
 20 25  1  0
 24 25  2  0
 11 26  1  0
 15 26  2  0
M  END
