MAK-UNK-a7992eb3-30
     RDKit          3D

 32 34  0  0  0  0  0  0  0  0999 V2000
    1.4530  -11.5160   26.3240 C   0  0  0  0  0  0  0  0  0  0  0  0
    1.9770  -12.6650   26.7940 C   0  0  0  0  0  0  0  0  0  0  0  0
    1.4710  -13.1140   28.0690 O   0  0  0  0  0  0  0  0  0  0  0  0
    2.9650  -13.2660   25.9270 N   0  0  0  0  0  0  0  0  0  0  0  0
    4.0520  -13.9630   26.3750 C   0  0  2  0  0  0  0  0  0  0  0  0
    5.6820  -14.0340   25.8380 C   0  0  0  0  0  0  0  0  0  0  0  0
    7.3300  -12.8200   24.2850 C   0  0  0  0  0  0  0  0  0  0  0  0
    8.2490  -12.3140   25.0710 C   0  0  0  0  0  0  0  0  0  0  0  0
    8.3080  -10.8170   24.2490 C   0  0  0  0  0  0  0  0  0  0  0  0
    7.9770   -9.7720   23.0110 C   0  0  0  0  0  0  0  0  0  0  0  0
    8.2650   -8.3550   22.9200 O   0  0  0  0  0  0  0  0  0  0  0  0
    7.2320   -7.5580   23.5840 C   0  0  0  0  0  0  0  0  0  0  0  0
    6.4320   -6.5070   22.8410 C   0  0  0  0  0  0  0  0  0  0  0  0
    6.6490   -5.2680   23.2430 C   0  0  0  0  0  0  0  0  0  0  0  0
    6.0450   -4.8030   24.3510 C   0  0  0  0  0  0  0  0  0  0  0  0
    6.2410   -3.5180   24.8070 C   0  0  0  0  0  0  0  0  0  0  0  0
    7.0490   -2.4840   24.2620 C   0  0  0  0  0  0  0  0  0  0  0  0
    7.5850   -3.2740   23.0550 C   0  0  0  0  0  0  0  0  0  0  0  0
    7.4250   -4.4970   22.5800 N   0  0  0  0  0  0  0  0  0  0  0  0
    6.2400   -6.4720   21.4590 C   0  0  0  0  0  0  0  0  0  0  0  0
    5.4560   -5.3400   21.4400 C   0  0  0  0  0  0  0  0  0  0  0  0
    4.4610   -5.5230   22.5960 C   0  0  0  0  0  0  0  0  0  0  0  0
    4.9600   -6.5760   23.3520 C   0  0  0  0  0  0  0  0  0  0  0  0
    7.5780  -10.5790   22.2930 C   0  0  0  0  0  0  0  0  0  0  0  0
    7.1910  -12.0320   22.6390 C   0  0  0  0  0  0  0  0  0  0  0  0
    3.3070  -15.3230   26.7430 C   0  0  0  0  0  0  0  0  0  0  0  0
    2.0870  -15.4160   26.6220 O   0  0  0  0  0  0  0  0  0  0  0  0
    4.0600  -16.4000   27.1900 N   0  0  0  0  0  0  0  0  0  0  0  0
    3.8550  -17.7450   26.7080 C   0  0  0  0  0  0  0  0  0  0  0  0
    3.5450  -18.7040   27.8490 C   0  0  0  0  0  0  0  0  0  0  0  0
    3.9820  -20.0250   27.7610 C   0  0  0  0  0  0  0  0  0  0  0  0
    4.5890  -21.8310   27.6210 Br  0  0  0  0  0  0  0  0  0  0  0  0
  1  2  1  0
  2  3  2  0
  2  4  1  0
  4  5  1  0
  5  6  1  6
  6  7  1  0
  7  8  2  0
  8  9  1  0
  9 10  2  0
 10 11  1  0
 11 12  1  0
 13 12  1  0
 13 14  1  0
 14 15  2  0
 15 16  1  0
 16 17  2  0
 17 18  1  0
 14 19  1  0
 18 19  2  0
 13 20  1  0
 20 21  1  0
 21 22  1  0
 13 23  1  0
 22 23  1  0
 10 24  1  0
  7 25  1  0
 24 25  2  0
  5 26  1  0
 26 27  2  0
 26 28  1  0
 28 29  1  0
 29 30  1  0
 30 31  3  0
 31 32  1  0
M  END
