MAK-UNK-0d6072ac-9
     RDKit          3D

 19 21  0  0  0  0  0  0  0  0999 V2000
   13.6640   -2.9910   25.0680 C   0  0  0  0  0  0  0  0  0  0  0  0
   12.2310   -2.6790   24.8760 C   0  0  2  0  0  0  0  0  0  0  0  0
   11.4170   -3.4710   24.2890 C   0  0  0  0  0  0  0  0  0  0  0  0
   11.1940   -4.4620   24.8010 O   0  0  0  0  0  0  0  0  0  0  0  0
   10.9490   -3.1740   23.1970 O   0  0  0  0  0  0  0  0  0  0  0  0
   11.9640   -1.5490   24.1670 C   0  0  0  0  0  0  0  0  0  0  0  0
   13.0880   -0.7400   24.0820 C   0  0  0  0  0  0  0  0  0  0  0  0
   12.9100    0.3620   23.4590 C   0  0  0  0  0  0  0  0  0  0  0  0
   11.6520    0.5540   22.9760 C   0  0  0  0  0  0  0  0  0  0  0  0
   10.5080    0.1330   22.8300 C   0  0  0  0  0  0  0  0  0  0  0  0
   10.6740   -1.2100   23.5800 C   0  0  0  0  0  0  0  0  0  0  0  0
    9.6350    0.8010   22.2180 N   0  0  0  0  0  0  0  0  0  0  0  0
    9.1360   -0.2130   22.5450 C   0  0  0  0  0  0  0  0  0  0  0  0
    7.8950   -0.7350   22.3880 C   0  0  0  0  0  0  0  0  0  0  0  0
    7.7540   -1.9440   22.8870 C   0  0  0  0  0  0  0  0  0  0  0  0
    8.8570   -2.4830   23.4900 C   0  0  0  0  0  0  0  0  0  0  0  0
    8.4490   -4.0320   23.9980 Cl  0  0  0  0  0  0  0  0  0  0  0  0
   10.2880   -1.9040   23.7180 N   0  0  0  0  0  0  0  0  0  0  0  0
   10.4720   -0.6450   23.1840 C   0  0  0  0  0  0  0  0  0  0  0  0
  2  1  1  6
  2  3  1  0
  3  4  2  0
  3  5  1  0
  2  6  1  0
  6  7  2  0
  7  8  1  0
  8  9  2  0
  9 10  1  0
  6 11  1  0
 10 11  2  0
 10 12  1  0
 12 13  1  0
 13 14  1  0
 14 15  2  0
 15 16  1  0
 16 17  1  0
 16 18  2  0
  9 19  1  0
 13 19  2  0
 18 19  1  0
M  END
