MAK-UNK-27459e11-3
     RDKit          3D

 16 16  0  0  0  0  0  0  0  0999 V2000
    5.1750   -5.6870   24.7940 N   0  0  0  0  0  0  0  0  0  0  0  0
    5.6180   -5.6870   26.0070 C   0  0  0  0  0  0  0  0  0  0  0  0
    5.3310   -6.7380   26.8950 N   0  0  0  0  0  0  0  0  0  0  0  0
    6.4300   -4.6300   26.6210 C   0  0  0  0  0  0  0  0  0  0  0  0
    7.9740   -4.1250   25.8710 S   0  0  0  0  0  0  0  0  0  0  0  0
    8.8260   -5.2890   25.7770 O   0  0  0  0  0  0  0  0  0  0  0  0
    8.3560   -2.9640   26.6270 O   0  0  0  0  0  0  0  0  0  0  0  0
    7.7090   -3.6210   24.2720 N   0  0  0  0  0  0  0  0  0  0  0  0
    8.7090   -3.1410   23.5070 C   0  0  0  0  0  0  0  0  0  0  0  0
    8.9650   -1.8040   23.1030 C   0  0  0  0  0  0  0  0  0  0  0  0
   10.2910   -1.3180   22.9060 C   0  0  0  0  0  0  0  0  0  0  0  0
   10.6330    0.0820   23.3450 C   0  0  0  0  0  0  0  0  0  0  0  0
   12.0640    0.6170   23.1520 C   0  0  0  0  0  0  0  0  0  0  0  0
   12.9950   -0.3280   22.5320 C   0  0  0  0  0  0  0  0  0  0  0  0
   12.5740   -1.6710   22.1250 C   0  0  0  0  0  0  0  0  0  0  0  0
   11.2960   -2.1080   22.3120 C   0  0  0  0  0  0  0  0  0  0  0  0
  1  2  2  3
  2  3  1  0
  2  4  1  0
  4  5  1  0
  5  6  2  0
  5  7  2  0
  5  8  1  0
  8  9  1  0
  9 10  1  0
 10 11  1  0
 11 12  2  0
 12 13  1  0
 13 14  2  0
 14 15  1  0
 11 16  1  0
 15 16  2  0
M  END
