MAK-UNK-0d6072ac-32
     RDKit          3D

 19 21  0  0  0  0  0  0  0  0999 V2000
    5.9950   -5.8220   21.6960 C   0  0  0  0  0  0  0  0  0  0  0  0
    5.7570   -4.3590   21.8330 C   0  0  2  0  0  0  0  0  0  0  0  0
    5.6540   -3.7310   20.5950 C   0  0  0  0  0  0  0  0  0  0  0  0
    5.2550   -4.3820   19.6470 O   0  0  0  0  0  0  0  0  0  0  0  0
    5.9790   -2.5570   20.4320 O   0  0  0  0  0  0  0  0  0  0  0  0
    6.9590   -3.9420   22.5440 C   0  0  0  0  0  0  0  0  0  0  0  0
    7.3300   -4.8300   23.4170 N   0  0  0  0  0  0  0  0  0  0  0  0
    8.4820   -4.5250   23.9850 C   0  0  0  0  0  0  0  0  0  0  0  0
    9.3000   -3.3880   23.7230 C   0  0  0  0  0  0  0  0  0  0  0  0
    8.7390   -2.5140   22.8280 C   0  0  0  0  0  0  0  0  0  0  0  0
    7.6010   -2.7350   22.2340 N   0  0  0  0  0  0  0  0  0  0  0  0
    9.4770   -1.4100   22.6060 N   0  0  0  0  0  0  0  0  0  0  0  0
   10.6020   -1.5010   23.3010 C   0  0  0  0  0  0  0  0  0  0  0  0
   11.8150   -0.6800   23.4860 C   0  0  0  0  0  0  0  0  0  0  0  0
   12.8620   -1.0760   24.2810 C   0  0  0  0  0  0  0  0  0  0  0  0
   12.7960   -2.2990   24.9520 C   0  0  0  0  0  0  0  0  0  0  0  0
   14.1060   -2.7610   25.9070 Cl  0  0  0  0  0  0  0  0  0  0  0  0
   11.6860   -3.1620   24.8610 C   0  0  0  0  0  0  0  0  0  0  0  0
   10.6130   -2.7970   24.0800 C   0  0  0  0  0  0  0  0  0  0  0  0
  2  1  1  6
  2  3  1  0
  3  4  2  0
  3  5  1  0
  2  6  1  0
  6  7  2  0
  7  8  1  0
  8  9  2  0
  9 10  1  0
  6 11  1  0
 10 11  2  0
 10 12  1  0
 12 13  1  0
 13 14  1  0
 14 15  2  0
 15 16  1  0
 16 17  1  0
 16 18  2  0
  9 19  1  0
 13 19  2  0
 18 19  1  0
M  END
