MAK-UNK-194150d3-9
     RDKit          3D

 33 37  0  0  0  0  0  0  0  0999 V2000
    6.6840    4.9290   12.0710 O   0  0  0  0  0  0  0  0  0  0  0  0
    6.1170    4.0830   12.7320 C   0  0  0  0  0  0  0  0  0  0  0  0
    5.6580    2.8280   12.3380 N   0  0  0  0  0  0  0  0  0  0  0  0
    6.4720    1.7930   12.7260 C   0  0  0  0  0  0  0  0  0  0  0  0
    6.6370    0.7330   11.6260 C   0  0  0  0  0  0  0  0  0  0  0  0
    7.1340   -0.7120   11.5900 C   0  0  0  0  0  0  0  0  0  0  0  0
    6.9660   -1.5690   10.4460 C   0  0  0  0  0  0  0  0  0  0  0  0
    5.8840   -2.2330   10.9180 C   0  0  0  0  0  0  0  0  0  0  0  0
    4.9480   -1.3130   11.2160 C   0  0  0  0  0  0  0  0  0  0  0  0
    5.4380    0.0660   11.0690 C   0  0  0  0  0  0  0  0  0  0  0  0
    6.9690    1.9480   14.1720 N   0  0  0  0  0  0  0  0  0  0  0  0
    6.2550    2.9510   14.8390 C   0  0  0  0  0  0  0  0  0  0  0  0
    5.7500    4.1420   14.0870 C   0  0  0  0  0  0  0  0  0  0  0  0
    5.0140    4.9360   14.9480 N   0  0  0  0  0  0  0  0  0  0  0  0
    4.9520    4.3000   16.2250 C   0  0  0  0  0  0  0  0  0  0  0  0
    5.7090    3.0390   16.2510 N   0  0  0  0  0  0  0  0  0  0  0  0
    5.7500    2.1190   17.5240 C   0  0  1  0  0  0  0  0  0  0  0  0
    6.8530    1.7260   18.2910 O   0  0  0  0  0  0  0  0  0  0  0  0
    6.5380    1.3940   19.6900 C   0  0  2  0  0  0  0  0  0  0  0  0
    6.9110    0.0660   20.0330 C   0  0  0  0  0  0  0  0  0  0  0  0
    7.5440    0.0470   21.2970 N   0  0  0  0  0  0  0  0  0  0  0  0
    8.9600   -0.2730   21.5690 C   0  0  0  0  0  0  0  0  0  0  0  0
    9.1810   -0.7420   22.8850 C   0  0  0  0  0  0  0  0  0  0  0  0
   10.5320   -1.1420   23.0980 C   0  0  0  0  0  0  0  0  0  0  0  0
   11.3920   -1.3000   22.0170 C   0  0  0  0  0  0  0  0  0  0  0  0
   12.7270   -1.6750   22.1720 C   0  0  0  0  0  0  0  0  0  0  0  0
   13.2200   -1.9010   23.4380 C   0  0  0  0  0  0  0  0  0  0  0  0
   12.3990   -1.7710   24.5540 C   0  0  0  0  0  0  0  0  0  0  0  0
   11.0620   -1.3980   24.3620 C   0  0  0  0  0  0  0  0  0  0  0  0
    5.0520    1.7220   19.7270 C   0  0  1  0  0  0  0  0  0  0  0  0
    4.7220    2.6780   20.7300 O   0  0  0  0  0  0  0  0  0  0  0  0
    4.6770    2.2320   18.4670 C   0  0  1  0  0  0  0  0  0  0  0  0
    4.1880    3.4600   18.6200 F   0  0  0  0  0  0  0  0  0  0  0  0
  1  2  2  0
  2  3  1  0
  3  4  1  0
  4  5  1  0
  5  6  1  0
  6  7  1  0
  7  8  1  0
  8  9  1  0
  5 10  1  0
  9 10  1  0
  4 11  2  0
 11 12  1  0
  2 13  1  0
 12 13  2  0
 13 14  1  0
 14 15  2  0
 12 16  1  0
 15 16  1  0
 17 16  1  1
 17 18  1  0
 18 19  1  0
 19 20  1  6
 20 21  1  0
 21 22  1  0
 22 23  1  0
 23 24  1  0
 24 25  2  0
 25 26  1  0
 26 27  2  0
 27 28  1  0
 24 29  1  0
 28 29  2  0
 19 30  1  0
 30 31  1  1
 17 32  1  0
 30 32  1  0
 32 33  1  1
M  END
