MAK-UNK-0cb6a3ad-9
     RDKit          3D

 11 11  0  0  0  0  0  0  0  0999 V2000
    8.5150   -2.3100   22.8320 C   0  0  0  0  0  0  0  0  0  0  0  0
    9.6190   -1.2120   22.8060 C   0  0  0  0  0  0  0  0  0  0  0  0
    9.1930    0.0780   22.0900 C   0  0  0  0  0  0  0  0  0  0  0  0
   10.8300   -1.4110   23.3630 C   0  0  0  0  0  0  0  0  0  0  0  0
   11.9070   -0.5410   23.4020 C   0  0  0  0  0  0  0  0  0  0  0  0
   13.1060   -0.8910   24.0230 C   0  0  0  0  0  0  0  0  0  0  0  0
   13.3540   -2.1680   24.5090 C   0  0  1  0  0  0  0  0  0  0  0  0
   13.9650   -2.3730   25.7390 C   0  0  0  0  0  0  0  0  0  0  0  0
   12.3540   -3.0440   24.2990 C   0  0  0  0  0  0  0  0  0  0  0  0
   11.0670   -2.7070   23.9980 C   0  0  0  0  0  0  0  0  0  0  0  0
   10.1180   -3.4460   24.1840 O   0  0  0  0  0  0  0  0  0  0  0  0
  1  2  1  0
  2  3  1  0
  2  4  2  3
  4  5  1  0
  5  6  1  0
  6  7  1  0
  7  8  1  1
  7  9  1  0
  4 10  1  0
  9 10  1  0
 10 11  2  0
M  END
