MAK-UNK-a7992eb3-29
     RDKit          3D

 26 27  0  0  0  0  0  0  0  0999 V2000
    1.4650   -8.8800   26.3860 C   0  0  0  0  0  0  0  0  0  0  0  0
   -0.0820   -8.9730   26.5810 C   0  0  0  0  0  0  0  0  0  0  0  0
   -0.7330   -9.9480   26.2060 O   0  0  0  0  0  0  0  0  0  0  0  0
   -0.6680   -7.8840   27.2070 N   0  0  0  0  0  0  0  0  0  0  0  0
   -0.6510   -6.5650   26.5730 C   0  0  1  0  0  0  0  0  0  0  0  0
   -0.7560   -6.6350   25.1790 C   0  0  0  0  0  0  0  0  0  0  0  0
    0.4240   -6.5490   24.4360 C   0  0  0  0  0  0  0  0  0  0  0  0
    1.2190   -5.4190   24.5190 C   0  0  0  0  0  0  0  0  0  0  0  0
    2.4030   -5.2460   23.8270 C   0  0  0  0  0  0  0  0  0  0  0  0
    2.8340   -6.2800   22.9830 C   0  0  0  0  0  0  0  0  0  0  0  0
    4.0030   -6.1910   22.2530 O   0  0  0  0  0  0  0  0  0  0  0  0
    5.0320   -5.4920   22.8290 C   0  0  0  0  0  0  0  0  0  0  0  0
    4.7200   -5.2200   24.1340 C   0  0  0  0  0  0  0  0  0  0  0  0
    5.9080   -4.4880   24.4970 C   0  0  0  0  0  0  0  0  0  0  0  0
    7.1650   -4.0260   23.9480 C   0  0  0  0  0  0  0  0  0  0  0  0
    7.0270   -4.5300   22.6690 C   0  0  0  0  0  0  0  0  0  0  0  0
    6.0750   -5.2020   22.1080 N   0  0  0  0  0  0  0  0  0  0  0  0
    2.0610   -7.4420   22.8650 C   0  0  0  0  0  0  0  0  0  0  0  0
    0.8630   -7.5790   23.5870 C   0  0  0  0  0  0  0  0  0  0  0  0
   -1.8360   -5.7500   27.1470 C   0  0  0  0  0  0  0  0  0  0  0  0
   -2.2140   -5.8770   28.3070 O   0  0  0  0  0  0  0  0  0  0  0  0
   -2.4310   -4.8690   26.2710 N   0  0  0  0  0  0  0  0  0  0  0  0
   -1.6880   -3.7520   25.7320 C   0  0  0  0  0  0  0  0  0  0  0  0
   -2.1910   -3.4340   24.3980 C   0  0  0  0  0  0  0  0  0  0  0  0
   -2.6230   -3.1740   23.3080 C   0  0  0  0  0  0  0  0  0  0  0  0
   -3.3470   -2.7700   21.5880 Br  0  0  0  0  0  0  0  0  0  0  0  0
  1  2  1  0
  2  3  2  0
  2  4  1  0
  4  5  1  0
  5  6  1  6
  6  7  1  0
  7  8  2  0
  8  9  1  0
  9 10  2  0
 10 11  1  0
 11 12  1  0
 12 13  2  0
 13 14  1  0
 14 15  2  0
 15 16  1  0
 12 17  1  0
 16 17  2  0
 10 18  1  0
  7 19  1  0
 18 19  2  0
  5 20  1  0
 20 21  2  0
 20 22  1  0
 22 23  1  0
 23 24  1  0
 24 25  3  0
 25 26  1  0
M  END
