MAK-UNK-bdda130a-3
     RDKit          3D

 25 28  0  0  0  0  0  0  0  0999 V2000
    5.7200   -5.7620   26.6130 C   0  0  0  0  0  0  0  0  0  0  0  0
    4.4850   -4.7480   25.8320 S   0  0  0  0  0  0  0  0  0  0  0  0
    4.4060   -5.1980   27.5010 C   0  0  0  0  0  0  0  0  0  0  0  0
    2.9710   -3.9130   26.2510 C   0  0  0  0  0  0  0  0  0  0  0  0
    1.8990   -3.7790   25.4730 C   0  0  0  0  0  0  0  0  0  0  0  0
    0.7240   -3.2180   25.5720 C   0  0  0  0  0  0  0  0  0  0  0  0
    0.8050   -2.5440   27.2080 S   0  0  0  0  0  0  0  0  0  0  0  0
    2.5280   -3.2170   27.4060 C   0  0  0  0  0  0  0  0  0  0  0  0
    5.2650   -4.7910   24.3230 N   0  0  0  0  0  0  0  0  0  0  0  0
    6.6430   -4.9790   24.3320 C   0  0  0  0  0  0  0  0  0  0  0  0
    7.2070   -5.3370   22.9390 C   0  0  0  0  0  0  0  0  0  0  0  0
    6.1360   -5.4680   21.9490 N   0  0  0  0  0  0  0  0  0  0  0  0
    4.9110   -5.5700   22.4990 C   0  0  0  0  0  0  0  0  0  0  0  0
    4.6490   -4.3100   23.2310 C   0  0  2  0  0  0  0  0  0  0  0  0
    4.7200   -2.8680   23.5920 C   0  0  0  0  0  0  0  0  0  0  0  0
    3.8530   -2.5450   24.6440 C   0  0  0  0  0  0  0  0  0  0  0  0
    3.6340   -1.2410   25.3180 C   0  0  0  0  0  0  0  0  0  0  0  0
    4.4710   -0.2730   24.7290 N   0  0  0  0  0  0  0  0  0  0  0  0
    5.3570   -0.6750   23.6200 C   0  0  0  0  0  0  0  0  0  0  0  0
    5.6510   -2.0160   22.8490 C   0  0  0  0  0  0  0  0  0  0  0  0
    5.8300   -3.2080   22.2540 N   0  0  0  0  0  0  0  0  0  0  0  0
    6.5630   -3.0990   21.1160 C   0  0  0  0  0  0  0  0  0  0  0  0
    6.7790   -2.0100   21.6470 O   0  0  0  0  0  0  0  0  0  0  0  0
    6.0130   -4.4950   20.8900 C   0  0  0  0  0  0  0  0  0  0  0  0
    5.3950   -4.6280   19.6250 O   0  0  0  0  0  0  0  0  0  0  0  0
  1  2  2  0
  2  3  2  0
  2  4  1  0
  4  5  1  0
  5  6  2  0
  6  7  1  0
  4  8  2  0
  7  8  1  0
  2  9  1  0
  9 10  1  0
 10 11  1  0
 11 12  1  0
 12 13  1  0
 14  9  1  1
 13 14  1  0
 14 15  1  0
 15 16  2  0
 16 17  1  0
 17 18  2  0
 18 19  1  0
 15 20  1  0
 19 20  2  0
 20 21  1  0
 21 22  1  0
 22 23  2  0
 12 24  1  0
 22 24  1  0
 24 25  2  0
M  END
