MAK-UNK-e4a48a85-6
     RDKit          3D

 21 23  0  0  0  0  0  0  0  0999 V2000
   10.7520    2.6380   23.1220 C   0  0  0  0  0  0  0  0  0  0  0  0
   11.0290    1.1760   22.9940 C   0  0  0  0  0  0  0  0  0  0  0  0
   12.2120    0.7230   22.5610 C   0  0  0  0  0  0  0  0  0  0  0  0
   12.5470   -0.7060   22.3660 C   0  0  0  0  0  0  0  0  0  0  0  0
   11.4960   -1.7150   22.6970 C   0  0  0  0  0  0  0  0  0  0  0  0
   10.1700   -1.1410   23.2490 C   0  0  0  0  0  0  0  0  0  0  0  0
    9.1500   -2.2460   23.6820 C   0  0  0  0  0  0  0  0  0  0  0  0
    9.1750   -2.6190   25.0900 C   0  0  0  0  0  0  0  0  0  0  0  0
    8.3750   -3.6440   25.4480 C   0  0  0  0  0  0  0  0  0  0  0  0
    7.3730   -4.8230   25.5520 C   0  0  0  0  0  0  0  0  0  0  0  0
    6.2820   -4.9410   24.7480 N   0  0  0  0  0  0  0  0  0  0  0  0
    5.0700   -4.8260   25.3260 C   0  0  0  0  0  0  0  0  0  0  0  0
    4.4370   -6.0660   25.2370 C   0  0  0  0  0  0  0  0  0  0  0  0
    4.1590   -6.4230   23.9370 C   0  0  0  0  0  0  0  0  0  0  0  0
    3.6120   -7.7520   24.0350 O   0  0  0  0  0  0  0  0  0  0  0  0
    5.2990   -6.5290   23.1520 C   0  0  0  0  0  0  0  0  0  0  0  0
    6.4410   -5.7960   23.5380 C   0  0  0  0  0  0  0  0  0  0  0  0
    7.9890   -3.5880   24.0390 N   0  0  0  0  0  0  0  0  0  0  0  0
    8.3380   -2.8080   22.8160 N   0  0  0  0  0  0  0  0  0  0  0  0
    7.3770   -3.6440   22.4070 C   0  0  0  0  0  0  0  0  0  0  0  0
    9.9970    0.2440   23.3510 C   0  0  0  0  0  0  0  0  0  0  0  0
  1  2  1  0
  2  3  2  0
  3  4  1  0
  4  5  2  0
  5  6  1  0
  6  7  1  0
  7  8  2  0
  8  9  1  0
  9 10  1  0
 10 11  1  0
 11 12  1  0
 12 13  1  0
 13 14  1  0
 14 15  1  0
 14 16  1  0
 11 17  1  0
 16 17  1  0
  9 18  2  0
  7 19  1  0
 18 19  1  0
 19 20  1  0
  2 21  1  0
  6 21  2  0
M  END
