MAK-UNK-0d6072ac-36
     RDKit          3D

 19 21  0  0  0  0  0  0  0  0999 V2000
   12.3760   -2.1980   22.4760 C   0  0  0  0  0  0  0  0  0  0  0  0
   11.3170   -1.4070   23.3300 C   0  0  2  0  0  0  0  0  0  0  0  0
   10.9360   -1.6600   24.6210 C   0  0  0  0  0  0  0  0  0  0  0  0
   11.9970   -1.9630   25.5280 O   0  0  0  0  0  0  0  0  0  0  0  0
    9.5880   -1.5750   24.8300 O   0  0  0  0  0  0  0  0  0  0  0  0
   10.0270   -1.4640   22.7110 C   0  0  0  0  0  0  0  0  0  0  0  0
   10.0120   -0.3230   22.1850 C   0  0  0  0  0  0  0  0  0  0  0  0
   11.2490   -0.0970   22.7530 C   0  0  0  0  0  0  0  0  0  0  0  0
   11.6270   -1.3130   23.5180 C   0  0  0  0  0  0  0  0  0  0  0  0
   10.7900   -2.5660   23.6390 C   0  0  0  0  0  0  0  0  0  0  0  0
    9.5710   -2.6100   22.9980 N   0  0  0  0  0  0  0  0  0  0  0  0
   11.5040   -3.4890   24.4590 N   0  0  0  0  0  0  0  0  0  0  0  0
   12.8090   -3.0900   24.9880 C   0  0  0  0  0  0  0  0  0  0  0  0
   13.7350   -3.7360   25.7990 N   0  0  0  0  0  0  0  0  0  0  0  0
   14.3650   -2.6250   25.6830 C   0  0  0  0  0  0  0  0  0  0  0  0
   13.3580   -2.1970   24.8950 C   0  0  0  0  0  0  0  0  0  0  0  0
   13.2880   -0.6680   24.1130 Cl  0  0  0  0  0  0  0  0  0  0  0  0
   12.0600   -3.0240   24.5490 C   0  0  0  0  0  0  0  0  0  0  0  0
   12.6580   -1.7860   24.3020 C   0  0  0  0  0  0  0  0  0  0  0  0
  2  1  1  6
  2  3  1  0
  3  4  2  0
  3  5  1  0
  2  6  1  0
  6  7  2  0
  7  8  1  0
  8  9  2  0
  9 10  1  0
  6 11  1  0
 10 11  2  0
 10 12  1  0
 12 13  1  0
 13 14  1  0
 14 15  2  0
 15 16  1  0
 16 17  1  0
 16 18  2  0
  9 19  1  0
 13 19  2  0
 18 19  1  0
M  END
