MAK-UNK-37f1d6fa-7
     RDKit          3D

 31 34  0  0  0  0  0  0  0  0999 V2000
    8.8090    1.3340   21.2480 O   0  0  0  0  0  0  0  0  0  0  0  0
    8.5660    0.2500   21.8050 C   0  0  0  0  0  0  0  0  0  0  0  0
    9.4100   -0.1740   22.8530 N   0  0  0  0  0  0  0  0  0  0  0  0
   10.7390    0.2780   22.6760 C   0  0  0  0  0  0  0  0  0  0  0  0
   11.7750    1.3780   22.7820 C   0  0  0  0  0  0  0  0  0  0  0  0
   10.7330    2.3360   23.4540 C   0  0  0  0  0  0  0  0  0  0  0  0
   11.7730    3.3230   23.3250 C   0  0  0  0  0  0  0  0  0  0  0  0
   13.0500    3.5360   22.8190 C   0  0  0  0  0  0  0  0  0  0  0  0
   14.2800    4.1550   22.6400 O   0  0  0  0  0  0  0  0  0  0  0  0
   13.1870    4.6280   23.7180 N   0  0  0  0  0  0  0  0  0  0  0  0
   14.6030    4.8480   23.5580 C   0  0  0  0  0  0  0  0  0  0  0  0
   16.6050    4.7570   24.3600 C   0  0  0  0  0  0  0  0  0  0  0  0
   18.6890    5.5510   24.0370 C   0  0  0  0  0  0  0  0  0  0  0  0
   18.8370    6.9480   24.7340 C   0  0  0  0  0  0  0  0  0  0  0  0
   19.8120    7.6730   24.7750 N   0  0  0  0  0  0  0  0  0  0  0  0
   20.7280    7.0950   24.1260 C   0  0  0  0  0  0  0  0  0  0  0  0
   21.9250    7.7780   24.0580 C   0  0  0  0  0  0  0  0  0  0  0  0
   23.1360    7.3300   23.3600 C   0  0  0  0  0  0  0  0  0  0  0  0
   23.0060    6.0240   22.6750 C   0  0  0  0  0  0  0  0  0  0  0  0
   24.0310    5.4960   21.9940 F   0  0  0  0  0  0  0  0  0  0  0  0
   21.6500    5.2960   22.7730 C   0  0  0  0  0  0  0  0  0  0  0  0
   20.3110    5.8120   23.5740 C   0  0  0  0  0  0  0  0  0  0  0  0
   11.7840    2.0930   22.9350 C   0  0  0  0  0  0  0  0  0  0  0  0
   10.5340    1.3870   23.1370 C   0  0  0  0  0  0  0  0  0  0  0  0
    7.5010   -0.4760   21.3610 N   0  0  0  0  0  0  0  0  0  0  0  0
    6.6890    0.0540   20.2550 C   0  0  0  0  0  0  0  0  0  0  0  0
    5.4320    0.8340   20.6100 C   0  0  0  0  0  0  0  0  0  0  0  0
    4.6410    1.3950   19.4160 C   0  0  0  0  0  0  0  0  0  0  0  0
    5.1490    1.1460   17.9810 C   0  0  0  0  0  0  0  0  0  0  0  0
    6.2910    0.4170   17.8330 N   0  0  0  0  0  0  0  0  0  0  0  0
    7.0340   -0.1160   18.9300 C   0  0  0  0  0  0  0  0  0  0  0  0
  1  2  2  0
  2  3  1  0
  3  4  1  0
  4  5  2  0
  5  6  1  0
  6  7  2  0
  7  8  1  0
  8  9  2  0
  8 10  1  0
 10 11  1  0
 11 12  1  0
 12 13  1  0
 13 14  2  0
 14 15  1  0
 15 16  1  0
 16 17  1  0
 17 18  2  0
 18 19  1  0
 19 20  1  0
 19 21  2  0
 13 22  1  0
 16 22  2  0
 21 22  1  0
  7 23  1  0
  4 24  1  0
 23 24  2  0
  2 25  1  0
 25 26  1  0
 26 27  2  0
 27 28  1  0
 28 29  2  0
 29 30  1  0
 26 31  1  0
 30 31  2  0
M  END
