MAK-UNK-5e88aa6a-3
     RDKit          3D

 25 27  0  0  0  0  0  0  0  0999 V2000
    5.7990    2.1360   20.3610 C   0  0  0  0  0  0  0  0  0  0  0  0
    7.0460    1.2910   20.4080 C   0  0  1  0  0  0  0  0  0  0  0  0
    8.0630    1.7580   20.9550 O   0  0  0  0  0  0  0  0  0  0  0  0
    8.4150    1.1400   22.1340 C   0  0  2  0  0  0  0  0  0  0  0  0
    9.6910    1.2970   22.5440 N   0  0  0  0  0  0  0  0  0  0  0  0
   10.3780    2.4490   22.5390 C   0  0  0  0  0  0  0  0  0  0  0  0
   11.7670    2.3650   22.7570 C   0  0  0  0  0  0  0  0  0  0  0  0
   12.6430    3.4230   22.7850 N   0  0  0  0  0  0  0  0  0  0  0  0
   12.2450    1.0610   22.9480 C   0  0  0  0  0  0  0  0  0  0  0  0
   13.5690    0.7920   22.8470 N   0  0  0  0  0  0  0  0  0  0  0  0
   11.5100    0.0410   23.2170 N   0  0  0  0  0  0  0  0  0  0  0  0
   10.1820    0.2740   23.3210 C   0  0  0  0  0  0  0  0  0  0  0  0
    9.4660   -0.3640   24.0810 O   0  0  0  0  0  0  0  0  0  0  0  0
    8.0440   -0.3190   21.8430 C   0  0  1  0  0  0  0  0  0  0  0  0
    7.8700   -1.1750   22.9870 O   0  0  0  0  0  0  0  0  0  0  0  0
    8.8210   -2.2590   22.9920 C   0  0  0  0  0  0  0  0  0  0  0  0
    8.4790   -3.3270   23.9460 N   0  0  0  0  0  0  0  0  0  0  0  0
    9.6520   -3.6860   24.7470 C   0  0  0  0  0  0  0  0  0  0  0  0
    9.3020   -4.8360   25.5790 C   0  0  0  0  0  0  0  0  0  0  0  0
    8.3250   -4.4340   26.4880 C   0  0  0  0  0  0  0  0  0  0  0  0
    8.4210   -5.0970   27.5120 O   0  0  0  0  0  0  0  0  0  0  0  0
    7.0090   -4.1460   25.8110 C   0  0  0  0  0  0  0  0  0  0  0  0
    7.2830   -3.0520   24.7790 C   0  0  0  0  0  0  0  0  0  0  0  0
    6.7420   -0.0490   21.1070 C   0  0  2  0  0  0  0  0  0  0  0  0
    6.4100   -1.0780   20.1760 O   0  0  0  0  0  0  0  0  0  0  0  0
  2  1  1  1
  2  3  1  0
  3  4  1  0
  4  5  1  6
  5  6  1  0
  6  7  2  0
  7  8  1  0
  7  9  1  0
  9 10  1  0
  9 11  2  0
  5 12  1  0
 11 12  1  0
 12 13  2  0
  4 14  1  0
 14 15  1  1
 15 16  1  0
 16 17  1  0
 17 18  1  0
 18 19  1  0
 19 20  1  0
 20 21  1  0
 20 22  1  0
 17 23  1  0
 22 23  1  0
  2 24  1  0
 14 24  1  0
 24 25  1  6
M  END
