MAK-UNK-ae34c249-1
     RDKit          3D

 29 32  0  0  0  0  0  0  0  0999 V2000
    8.5360    1.3030   21.0830 O   0  0  0  0  0  0  0  0  0  0  0  0
    8.1930    0.2070   21.5440 C   0  0  0  0  0  0  0  0  0  0  0  0
    7.1560   -0.5470   21.0420 N   0  0  0  0  0  0  0  0  0  0  0  0
    6.3700    0.0750   20.0770 C   0  0  0  0  0  0  0  0  0  0  0  0
    5.2340    0.8090   20.3500 C   0  0  0  0  0  0  0  0  0  0  0  0
    4.5620    1.4110   19.3000 C   0  0  0  0  0  0  0  0  0  0  0  0
    5.0340    1.2690   18.0080 C   0  0  0  0  0  0  0  0  0  0  0  0
    6.1480    0.5400   17.6770 N   0  0  0  0  0  0  0  0  0  0  0  0
    6.7880   -0.0460   18.7560 C   0  0  0  0  0  0  0  0  0  0  0  0
    8.8250   -0.3570   22.6030 N   0  0  0  0  0  0  0  0  0  0  0  0
    9.9470    0.4070   22.7370 C   0  0  0  0  0  0  0  0  0  0  0  0
    9.8530    1.6790   23.0610 C   0  0  0  0  0  0  0  0  0  0  0  0
   10.6640    2.7570   23.2420 C   0  0  0  0  0  0  0  0  0  0  0  0
   12.0220    2.4230   23.0590 C   0  0  0  0  0  0  0  0  0  0  0  0
   12.3960    1.1160   22.7010 C   0  0  0  0  0  0  0  0  0  0  0  0
   11.2420    0.1110   22.5140 C   0  0  0  0  0  0  0  0  0  0  0  0
   11.8500   -1.0950   21.9490 C   0  0  0  0  0  0  0  0  0  0  0  0
   13.1100   -1.0580   21.6140 N   0  0  0  0  0  0  0  0  0  0  0  0
   13.4810   -2.1560   20.9700 N   0  0  0  0  0  0  0  0  0  0  0  0
   12.5450   -3.1180   20.8030 C   0  0  0  0  0  0  0  0  0  0  0  0
   12.8370   -4.3480   20.1710 C   0  0  0  0  0  0  0  0  0  0  0  0
   13.9910   -4.6110   19.3450 N   0  0  0  0  0  0  0  0  0  0  0  0
   14.9600   -3.7900   19.6010 C   0  0  0  0  0  0  0  0  0  0  0  0
   16.1080   -3.7880   18.8040 C   0  0  0  0  0  0  0  0  0  0  0  0
   16.1540   -4.8350   18.1090 C   0  0  0  0  0  0  0  0  0  0  0  0
   15.4480   -5.7920   18.6360 C   0  0  0  0  0  0  0  0  0  0  0  0
   15.5150   -6.6390   17.7590 F   0  0  0  0  0  0  0  0  0  0  0  0
   14.7980   -5.5670   19.8230 C   0  0  0  0  0  0  0  0  0  0  0  0
   11.0390   -2.5360   21.5060 S   0  0  0  0  0  0  0  0  0  0  0  0
  1  2  2  0
  2  3  1  0
  3  4  1  0
  4  5  2  0
  5  6  1  0
  6  7  2  0
  7  8  1  0
  4  9  1  0
  8  9  2  0
  2 10  1  0
 10 11  1  0
 11 12  2  0
 12 13  1  0
 13 14  2  0
 14 15  1  0
 11 16  1  0
 15 16  2  0
 16 17  1  0
 17 18  2  0
 18 19  1  0
 19 20  2  0
 20 21  1  0
 21 22  1  0
 22 23  1  0
 23 24  1  0
 24 25  1  0
 25 26  2  0
 26 27  1  0
 22 28  1  0
 26 28  1  0
 17 29  1  0
 20 29  1  0
M  END
