MAK-UNK-9159f8ed-7
     RDKit          3D

 26 28  0  0  0  0  0  0  0  0999 V2000
    7.2150    0.6890   20.2940 C   0  0  0  0  0  0  0  0  0  0  0  0
    8.1200    1.4880   21.6060 S   0  0  0  0  0  0  0  0  0  0  0  0
    7.3190    1.4330   22.8070 O   0  0  0  0  0  0  0  0  0  0  0  0
    8.6960    2.6970   21.1160 O   0  0  0  0  0  0  0  0  0  0  0  0
    9.4020    0.4140   21.8480 N   0  0  0  0  0  0  0  0  0  0  0  0
    9.0940   -0.8670   22.1540 C   0  0  0  0  0  0  0  0  0  0  0  0
    9.8590   -1.4030   23.2600 C   0  0  0  0  0  0  0  0  0  0  0  0
    9.5820   -2.8340   23.6880 C   0  0  0  0  0  0  0  0  0  0  0  0
    8.6300   -3.6010   23.0530 C   0  0  0  0  0  0  0  0  0  0  0  0
    7.8790   -3.1120   21.9690 C   0  0  0  0  0  0  0  0  0  0  0  0
    6.9650   -4.0000   21.4270 C   0  0  0  0  0  0  0  0  0  0  0  0
    7.2550   -5.1040   21.0310 O   0  0  0  0  0  0  0  0  0  0  0  0
    5.7300   -3.4950   21.4820 O   0  0  0  0  0  0  0  0  0  0  0  0
    5.0990   -4.1560   22.5050 C   0  0  0  0  0  0  0  0  0  0  0  0
    5.0050   -5.6600   22.4240 C   0  0  0  0  0  0  0  0  0  0  0  0
    4.3170   -6.3370   23.5550 C   0  0  0  0  0  0  0  0  0  0  0  0
    3.7970   -5.6150   24.6230 C   0  0  0  0  0  0  0  0  0  0  0  0
    3.9250   -4.2090   24.6350 C   0  0  0  0  0  0  0  0  0  0  0  0
    3.3790   -3.5200   25.7560 N   0  0  0  0  0  0  0  0  0  0  0  0
    2.0370   -3.4600   26.1040 C   0  0  0  0  0  0  0  0  0  0  0  0
    1.7450   -2.4260   26.9740 C   0  0  0  0  0  0  0  0  0  0  0  0
    3.0880   -1.8100   27.2020 C   0  0  0  0  0  0  0  0  0  0  0  0
    4.0060   -2.4660   26.3710 C   0  0  0  0  0  0  0  0  0  0  0  0
    5.2840   -1.9840   26.3030 O   0  0  0  0  0  0  0  0  0  0  0  0
    4.5640   -3.4880   23.5950 C   0  0  0  0  0  0  0  0  0  0  0  0
    8.0440   -1.7950   21.4730 C   0  0  0  0  0  0  0  0  0  0  0  0
  1  2  1  0
  2  3  2  0
  2  4  2  0
  2  5  1  0
  5  6  1  0
  6  7  2  0
  7  8  1  0
  8  9  2  0
  9 10  1  0
 10 11  1  0
 11 12  2  0
 11 13  1  0
 13 14  1  0
 14 15  2  0
 15 16  1  0
 16 17  2  0
 17 18  1  0
 18 19  1  0
 19 20  1  0
 20 21  1  0
 21 22  1  0
 19 23  1  0
 22 23  1  0
 23 24  2  0
 14 25  1  0
 18 25  2  0
  6 26  1  0
 10 26  2  0
M  END
