MAK-UNK-702fb7d3-17
     RDKit          3D

 43 48  0  0  0  0  0  0  0  0999 V2000
    7.8780   -1.4880   21.3160 C   0  0  0  0  0  0  0  0  0  0  0  0
    8.0630   -0.4390   22.2920 N   0  0  0  0  0  0  0  0  0  0  0  0
    9.4720   -0.3650   22.7010 C   0  0  0  0  0  0  0  0  0  0  0  0
    9.8330   -1.2210   23.7570 C   0  0  0  0  0  0  0  0  0  0  0  0
   11.2190   -1.2440   24.1070 O   0  0  0  0  0  0  0  0  0  0  0  0
    8.7880   -2.0220   24.4180 N   0  0  0  0  0  0  0  0  0  0  0  0
    7.5260   -1.5490   24.8260 C   0  0  0  0  0  0  0  0  0  0  0  0
    6.9030   -2.1940   25.8400 C   0  0  0  0  0  0  0  0  0  0  0  0
    6.5670   -1.7550   27.2120 C   0  0  0  0  0  0  0  0  0  0  0  0
    5.8950   -2.7160   27.9850 C   0  0  0  0  0  0  0  0  0  0  0  0
    5.5830   -3.9670   27.4620 C   0  0  0  0  0  0  0  0  0  0  0  0
    5.9340   -4.3000   26.1520 C   0  0  0  0  0  0  0  0  0  0  0  0
    6.6200   -3.3820   25.3290 C   0  0  0  0  0  0  0  0  0  0  0  0
    7.0300   -3.5540   24.0380 C   0  0  2  0  0  0  0  0  0  0  0  0
    6.7220   -4.7040   23.5020 C   0  0  0  0  0  0  0  0  0  0  0  0
    5.4960   -5.0380   22.9690 C   0  0  0  0  0  0  0  0  0  0  0  0
    5.3370   -6.3020   22.4490 C   0  0  0  0  0  0  0  0  0  0  0  0
    6.4380   -7.1590   22.4940 C   0  0  0  0  0  0  0  0  0  0  0  0
    7.6220   -6.7690   23.0230 C   0  0  0  0  0  0  0  0  0  0  0  0
    7.7390   -5.5450   23.5250 C   0  0  0  0  0  0  0  0  0  0  0  0
    8.5610   -3.3360   23.8870 C   0  0  0  0  0  0  0  0  0  0  0  0
    7.4930    0.8460   21.8500 C   0  0  0  0  0  0  0  0  0  0  0  0
    7.9890    1.8690   22.6560 C   0  0  0  0  0  0  0  0  0  0  0  0
    9.0990    2.6030   22.3260 C   0  0  0  0  0  0  0  0  0  0  0  0
    9.4040    3.5500   23.2710 C   0  0  0  0  0  0  0  0  0  0  0  0
   10.5090    4.3830   23.1000 C   0  0  0  0  0  0  0  0  0  0  0  0
   11.7880    3.6040   22.7870 C   0  0  0  0  0  0  0  0  0  0  0  0
   12.9780    4.3280   22.5920 C   0  0  0  0  0  0  0  0  0  0  0  0
   12.9530    5.8610   22.7000 C   0  0  0  0  0  0  0  0  0  0  0  0
   11.6170    6.5220   23.0190 C   0  0  0  0  0  0  0  0  0  0  0  0
   10.4670    5.7770   23.2000 C   0  0  0  0  0  0  0  0  0  0  0  0
    9.3150    6.4150   23.4730 F   0  0  0  0  0  0  0  0  0  0  0  0
    8.4180    3.4020   24.2590 N   0  0  0  0  0  0  0  0  0  0  0  0
    8.1700    4.2550   25.7390 S   0  0  0  0  0  0  0  0  0  0  0  0
    8.1940    3.2650   26.7970 O   0  0  0  0  0  0  0  0  0  0  0  0
    6.9740    5.0390   25.5090 O   0  0  0  0  0  0  0  0  0  0  0  0
    9.5140    5.3420   26.0290 C   0  0  0  0  0  0  0  0  0  0  0  0
   10.7470    5.1650   25.4220 C   0  0  0  0  0  0  0  0  0  0  0  0
   11.7620    6.0670   25.6950 C   0  0  0  0  0  0  0  0  0  0  0  0
   11.5140    7.1130   26.5680 C   0  0  0  0  0  0  0  0  0  0  0  0
   10.3200    7.3070   27.1770 N   0  0  0  0  0  0  0  0  0  0  0  0
    9.3410    6.4130   26.8920 C   0  0  0  0  0  0  0  0  0  0  0  0
    7.5590    2.3770   23.8790 C   0  0  0  0  0  0  0  0  0  0  0  0
  1  2  1  0
  2  3  1  0
  3  4  1  0
  4  5  2  0
  4  6  1  0
  6  7  1  0
  7  8  1  0
  8  9  2  0
  9 10  1  0
 10 11  2  0
 11 12  1  0
  8 13  1  0
 12 13  2  0
 13 14  1  0
 14 15  1  1
 15 16  2  0
 16 17  1  0
 17 18  2  0
 18 19  1  0
 15 20  1  0
 19 20  2  0
  6 21  1  0
 14 21  1  0
  2 22  1  0
 22 23  1  0
 23 24  1  0
 24 25  2  0
 25 26  1  0
 26 27  2  0
 27 28  1  0
 28 29  2  0
 29 30  1  0
 26 31  1  0
 30 31  2  0
 31 32  1  0
 25 33  1  0
 33 34  1  0
 34 35  2  0
 34 36  2  0
 34 37  1  0
 37 38  2  0
 38 39  1  0
 39 40  2  0
 40 41  1  0
 37 42  1  0
 41 42  2  0
 23 43  2  0
 33 43  1  0
M  END
