MAK-UNK-2084232d-5
     RDKit          3D

 21 23  0  0  0  0  0  0  0  0999 V2000
   13.2070   -0.5760   22.1720 N   0  0  0  0  0  0  0  0  0  0  0  0
   12.3450   -1.7840   22.2150 C   0  0  0  0  0  0  0  0  0  0  0  0
   11.0980   -1.7110   22.8670 C   0  0  1  0  0  0  0  0  0  0  0  0
   10.4490   -2.7800   23.4920 O   0  0  0  0  0  0  0  0  0  0  0  0
    9.0220   -2.6520   24.0480 C   0  0  2  0  0  0  0  0  0  0  0  0
    7.8190   -3.4650   23.5380 C   0  0  1  0  0  0  0  0  0  0  0  0
    7.5100   -3.3750   22.0840 C   0  0  0  0  0  0  0  0  0  0  0  0
    6.4800   -4.2470   21.7400 C   0  0  0  0  0  0  0  0  0  0  0  0
    6.5790   -5.5670   22.1370 C   0  0  0  0  0  0  0  0  0  0  0  0
    7.0860   -5.8250   23.4070 C   0  0  0  0  0  0  0  0  0  0  0  0
    7.5160   -4.6960   24.1520 C   0  0  1  0  0  0  0  0  0  0  0  0
    8.3730   -4.9180   25.0080 O   0  0  0  0  0  0  0  0  0  0  0  0
    8.8090   -1.2590   23.5910 C   0  0  0  0  0  0  0  0  0  0  0  0
   10.0970   -1.2020   23.3610 C   0  0  0  0  0  0  0  0  0  0  0  0
   11.0260   -0.4020   23.7060 C   0  0  0  0  0  0  0  0  0  0  0  0
   12.3830   -0.1730   23.6020 C   0  0  0  0  0  0  0  0  0  0  0  0
   12.9460   -1.1700   22.8690 C   0  0  0  0  0  0  0  0  0  0  0  0
   12.1470   -2.1930   22.3460 C   0  0  0  0  0  0  0  0  0  0  0  0
   12.8450   -3.1910   21.5600 O   0  0  0  0  0  0  0  0  0  0  0  0
   10.7070   -2.2020   22.5840 C   0  0  0  0  0  0  0  0  0  0  0  0
    9.9490   -3.1860   22.0350 O   0  0  0  0  0  0  0  0  0  0  0  0
  1  2  1  0
  3  2  1  1
  3  4  1  0
  4  5  1  0
  5  6  1  0
  6  7  1  6
  7  8  1  0
  8  9  1  0
  9 10  1  0
  6 11  1  0
 10 11  1  0
 11 12  1  6
  5 13  1  6
 13 14  1  0
  3 15  1  0
 14 15  2  0
 15 16  1  0
 16 17  2  0
 17 18  1  0
 18 19  1  0
 14 20  1  0
 18 20  2  0
 20 21  1  0
M  END
