MAK-UNK-2084232d-19
     RDKit          3D

 24 26  0  0  0  0  0  0  0  0999 V2000
   13.2180   -1.6670   22.4610 N   0  0  0  0  0  0  0  0  0  0  0  0
   12.6750   -2.6750   23.3910 C   0  0  0  0  0  0  0  0  0  0  0  0
   11.7300   -2.2770   24.3630 C   0  0  2  0  0  0  0  0  0  0  0  0
   10.5940   -3.0490   24.5290 O   0  0  0  0  0  0  0  0  0  0  0  0
    9.4770   -3.0820   23.4980 C   0  0  1  0  0  0  0  0  0  0  0  0
    8.1690   -3.6440   23.6570 C   0  0  2  0  0  0  0  0  0  0  0  0
    7.8430   -4.8640   24.1450 C   0  0  0  0  0  0  0  0  0  0  0  0
    7.1850   -5.8790   23.2980 C   0  0  0  0  0  0  0  0  0  0  0  0
    6.6440   -5.4960   22.0710 C   0  0  0  0  0  0  0  0  0  0  0  0
    6.4670   -4.1410   21.8090 C   0  0  2  0  0  0  0  0  0  0  0  0
    5.9550   -3.7940   20.5410 C   0  0  0  0  0  0  0  0  0  0  0  0
    6.1010   -2.5210   19.9220 C   0  0  0  0  0  0  0  0  0  0  0  0
    7.0570   -1.5710   20.3110 C   0  0  0  0  0  0  0  0  0  0  0  0
    6.7930   -0.3740   20.4410 O   0  0  0  0  0  0  0  0  0  0  0  0
    7.6170   -3.4630   22.2050 C   0  0  0  0  0  0  0  0  0  0  0  0
    9.3260   -1.6590   23.5590 C   0  0  0  0  0  0  0  0  0  0  0  0
   10.6000   -1.7410   23.9510 C   0  0  0  0  0  0  0  0  0  0  0  0
   11.5150   -0.8490   23.8330 C   0  0  0  0  0  0  0  0  0  0  0  0
   12.8430   -0.6410   24.0920 C   0  0  0  0  0  0  0  0  0  0  0  0
   13.3580   -1.7340   24.6920 C   0  0  0  0  0  0  0  0  0  0  0  0
   12.6240   -2.8740   24.9960 C   0  0  0  0  0  0  0  0  0  0  0  0
   13.2540   -3.9000   25.6360 O   0  0  0  0  0  0  0  0  0  0  0  0
   11.2210   -2.9130   24.6210 C   0  0  0  0  0  0  0  0  0  0  0  0
   10.6140   -4.1630   24.9860 O   0  0  0  0  0  0  0  0  0  0  0  0
  1  2  1  0
  3  2  1  6
  3  4  1  0
  4  5  1  0
  5  6  1  0
  6  7  1  6
  7  8  1  0
  8  9  1  0
  9 10  1  0
 10 11  1  6
 11 12  1  0
 12 13  1  0
 13 14  2  0
  6 15  1  0
 10 15  1  0
  5 16  1  1
 16 17  1  0
  3 18  1  0
 17 18  2  0
 18 19  1  0
 19 20  2  0
 20 21  1  0
 21 22  1  0
 17 23  1  0
 21 23  2  0
 23 24  1  0
M  END
