MAK-UNK-1bb0b7ee-2
     RDKit          3D

 19 21  0  0  0  0  0  0  0  0999 V2000
   -2.6910   -7.5500   22.0800 O   0  0  0  0  0  0  0  0  0  0  0  0
   -2.3320   -6.2650   22.6490 S   0  0  0  0  0  0  0  0  0  0  0  0
   -3.1850   -5.0920   22.6250 O   0  0  0  0  0  0  0  0  0  0  0  0
   -0.7260   -5.8950   22.2800 C   0  0  0  0  0  0  0  0  0  0  0  0
   -0.1380   -5.9320   23.5090 C   0  0  0  0  0  0  0  0  0  0  0  0
    0.9560   -6.7480   23.6610 O   0  0  0  0  0  0  0  0  0  0  0  0
    2.1320   -6.3660   22.9320 C   0  0  0  0  0  0  0  0  0  0  0  0
    3.2960   -6.2460   23.8600 C   0  0  0  0  0  0  0  0  0  0  0  0
    4.6500   -5.6330   23.4830 C   0  0  0  0  0  0  0  0  0  0  0  0
    4.9480   -4.9000   24.6880 C   0  0  0  0  0  0  0  0  0  0  0  0
    6.2190   -4.3470   24.3460 C   0  0  0  0  0  0  0  0  0  0  0  0
    7.0030   -4.4360   23.2340 C   0  0  0  0  0  0  0  0  0  0  0  0
    6.5000   -5.1770   22.2510 C   0  0  0  0  0  0  0  0  0  0  0  0
    5.3270   -5.7930   22.3120 N   0  0  0  0  0  0  0  0  0  0  0  0
    3.4450   -7.5850   24.5390 C   0  0  0  0  0  0  0  0  0  0  0  0
    2.9860   -7.5740   25.8270 C   0  0  0  0  0  0  0  0  0  0  0  0
    2.4770   -6.2940   26.0840 C   0  0  0  0  0  0  0  0  0  0  0  0
    2.7580   -5.3810   25.0470 C   0  0  0  0  0  0  0  0  0  0  0  0
   -1.3810   -6.3920   24.1040 C   0  0  0  0  0  0  0  0  0  0  0  0
  1  2  2  0
  2  3  2  0
  2  4  1  0
  4  5  1  0
  5  6  1  0
  6  7  1  0
  8  7  1  0
  8  9  1  0
  9 10  2  0
 10 11  1  0
 11 12  2  0
 12 13  1  0
  9 14  1  0
 13 14  2  0
  8 15  1  0
 15 16  1  0
 16 17  1  0
  8 18  1  0
 17 18  1  0
  2 19  1  0
  5 19  1  0
M  END
