MAK-UNK-194150d3-5
     RDKit          3D

 19 20  0  0  0  0  0  0  0  0999 V2000
    4.8920    2.3980   23.2920 C   0  0  0  0  0  0  0  0  0  0  0  0
    6.0610    2.7550   22.0250 S   0  0  0  0  0  0  0  0  0  0  0  0
    5.5600    1.4090   20.9450 C   0  0  1  0  0  0  0  0  0  0  0  0
    5.1880    1.9440   19.6770 C   0  0  0  0  0  0  0  0  0  0  0  0
    5.7210    1.0910   18.7810 N   0  0  0  0  0  0  0  0  0  0  0  0
    6.4520    0.1680   19.5670 C   0  0  0  0  0  0  0  0  0  0  0  0
    7.0930   -1.0010   19.0210 C   0  0  0  0  0  0  0  0  0  0  0  0
    6.2120   -1.9890   18.6330 C   0  0  0  0  0  0  0  0  0  0  0  0
    5.3870   -2.3750   19.7410 O   0  0  0  0  0  0  0  0  0  0  0  0
    6.4980    0.3270   20.9520 C   0  0  1  0  0  0  0  0  0  0  0  0
    7.7450    0.5170   21.4830 N   0  0  0  0  0  0  0  0  0  0  0  0
    8.5390   -0.5850   21.7170 C   0  0  0  0  0  0  0  0  0  0  0  0
    9.2890   -0.5020   23.0450 C   0  0  0  0  0  0  0  0  0  0  0  0
   10.6220   -0.9940   23.1150 C   0  0  0  0  0  0  0  0  0  0  0  0
   11.3610   -1.3080   21.9760 C   0  0  0  0  0  0  0  0  0  0  0  0
   12.6860   -1.7810   22.0500 C   0  0  0  0  0  0  0  0  0  0  0  0
   13.2370   -1.9290   23.3030 C   0  0  0  0  0  0  0  0  0  0  0  0
   12.5320   -1.6380   24.4260 C   0  0  0  0  0  0  0  0  0  0  0  0
   11.2520   -1.1880   24.3350 C   0  0  0  0  0  0  0  0  0  0  0  0
  1  2  1  0
  3  2  1  1
  3  4  1  0
  4  5  1  0
  5  6  2  0
  6  7  1  0
  7  8  1  0
  8  9  2  0
  3 10  1  0
  6 10  1  0
 10 11  1  6
 11 12  1  0
 12 13  1  0
 13 14  1  0
 14 15  2  0
 15 16  1  0
 16 17  2  0
 17 18  1  0
 14 19  1  0
 18 19  2  0
M  END
