MAK-UNK-4c6b313a-1
     RDKit          3D

 17 18  0  0  0  0  0  0  0  0999 V2000
    6.3170   -2.8870   20.9870 C   0  0  0  0  0  0  0  0  0  0  0  0
    5.9430   -4.2080   20.7640 C   0  0  0  0  0  0  0  0  0  0  0  0
    5.2900   -4.5350   19.7780 O   0  0  0  0  0  0  0  0  0  0  0  0
    6.4160   -5.1530   21.8050 N   0  0  0  0  0  0  0  0  0  0  0  0
    7.1590   -4.5080   22.8940 C   0  0  0  0  0  0  0  0  0  0  0  0
    6.2250   -4.1320   23.9950 C   0  0  0  0  0  0  0  0  0  0  0  0
    5.2630   -5.1370   24.2910 N   0  0  0  0  0  0  0  0  0  0  0  0
    4.5720   -5.1410   25.8460 S   0  0  0  0  0  0  0  0  0  0  0  0
    3.9910   -6.4540   26.0110 O   0  0  0  0  0  0  0  0  0  0  0  0
    5.5710   -4.6530   26.7760 O   0  0  0  0  0  0  0  0  0  0  0  0
    3.2960   -3.9520   25.8090 C   0  0  0  0  0  0  0  0  0  0  0  0
    2.1290   -3.7200   25.5740 C   0  0  0  0  0  0  0  0  0  0  0  0
    1.2700   -2.8020   25.5860 C   0  0  0  0  0  0  0  0  0  0  0  0
    0.4800   -4.1940   25.0480 S   0  0  0  0  0  0  0  0  0  0  0  0
    2.2150   -4.8830   25.3120 C   0  0  0  0  0  0  0  0  0  0  0  0
    4.5980   -5.7040   23.2520 C   0  0  0  0  0  0  0  0  0  0  0  0
    5.5710   -6.2400   22.1630 C   0  0  0  0  0  0  0  0  0  0  0  0
  1  2  1  0
  2  3  2  0
  2  4  1  0
  4  5  1  0
  5  6  1  0
  6  7  1  0
  7  8  1  0
  8  9  2  0
  8 10  2  0
  8 11  1  0
 11 12  1  0
 12 13  2  0
 13 14  1  0
 11 15  2  0
 14 15  1  0
  7 16  1  0
  4 17  1  0
 16 17  1  0
M  END
