MAK-UNK-1cb0e944-10
     RDKit          3D

 23 24  0  0  0  0  0  0  0  0999 V2000
   12.8100   -1.9420   22.9000 C   0  0  0  0  0  0  0  0  0  0  0  0
   11.6490   -1.1870   22.9590 N   0  0  0  0  0  0  0  0  0  0  0  0
   10.6450   -1.1980   21.9580 C   0  0  0  0  0  0  0  0  0  0  0  0
    9.4220   -1.8690   22.0720 C   0  0  0  0  0  0  0  0  0  0  0  0
    9.2810   -3.0990   22.6380 C   0  0  0  0  0  0  0  0  0  0  0  0
    7.6680   -3.7600   22.6830 S   0  0  0  0  0  0  0  0  0  0  0  0
    7.2300   -2.2960   21.9000 C   0  0  0  0  0  0  0  0  0  0  0  0
    5.5130   -2.0940   21.5070 S   0  0  0  0  0  0  0  0  0  0  0  0
    5.3510   -0.5340   20.8590 N   0  0  0  0  0  0  0  0  0  0  0  0
    5.2240   -3.0180   20.4300 O   0  0  0  0  0  0  0  0  0  0  0  0
    4.8200   -2.1420   22.7690 O   0  0  0  0  0  0  0  0  0  0  0  0
    8.1850   -1.3840   21.6240 N   0  0  0  0  0  0  0  0  0  0  0  0
   11.5970   -0.0640   23.7730 C   0  0  0  0  0  0  0  0  0  0  0  0
   12.1450    0.4880   22.8210 O   0  0  0  0  0  0  0  0  0  0  0  0
   11.0250   -1.0380   24.5400 N   0  0  0  0  0  0  0  0  0  0  0  0
    9.6000   -1.2000   24.5530 C   0  0  0  0  0  0  0  0  0  0  0  0
    9.3510   -2.6420   24.7280 N   0  0  0  0  0  0  0  0  0  0  0  0
   10.5440   -3.3800   25.2070 C   0  0  0  0  0  0  0  0  0  0  0  0
   10.3520   -4.6690   26.0190 C   0  0  0  0  0  0  0  0  0  0  0  0
    8.9520   -4.8860   26.5930 C   0  0  0  0  0  0  0  0  0  0  0  0
    8.8180   -4.2260   27.8480 O   0  0  0  0  0  0  0  0  0  0  0  0
    7.9780   -4.4440   25.7400 C   0  0  0  0  0  0  0  0  0  0  0  0
    8.0780   -2.9530   25.3950 C   0  0  0  0  0  0  0  0  0  0  0  0
  1  2  1  0
  2  3  1  0
  3  4  1  0
  4  5  2  0
  5  6  1  0
  6  7  1  0
  7  8  1  0
  8  9  1  0
  8 10  2  0
  8 11  2  0
  4 12  1  0
  7 12  2  0
  2 13  1  0
 13 14  2  0
 13 15  1  0
 15 16  1  0
 16 17  1  0
 17 18  1  0
 18 19  1  0
 19 20  1  0
 20 21  1  0
 20 22  1  0
 17 23  1  0
 22 23  1  0
M  END
