MAK-UNK-10572812-10
     RDKit          3D

 34 38  0  0  0  0  0  0  0  0999 V2000
    8.1350   -2.4150   24.0610 C   0  0  0  0  0  0  0  0  0  0  0  0
    8.9500   -3.3060   23.2060 C   0  0  0  0  0  0  0  0  0  0  0  0
    8.3770   -4.3130   22.7900 O   0  0  0  0  0  0  0  0  0  0  0  0
   10.2260   -3.0550   22.9370 N   0  0  0  0  0  0  0  0  0  0  0  0
   10.4630   -2.4560   21.6980 C   0  0  0  0  0  0  0  0  0  0  0  0
   11.9390   -2.1040   21.3940 C   0  0  0  0  0  0  0  0  0  0  0  0
   12.3130   -1.3810   22.5770 C   0  0  0  0  0  0  0  0  0  0  0  0
   11.9430   -0.0770   22.9060 C   0  0  0  0  0  0  0  0  0  0  0  0
   11.2040    0.6110   22.1640 N   0  0  0  0  0  0  0  0  0  0  0  0
   10.2460   -0.4250   21.9590 C   0  0  0  0  0  0  0  0  0  0  0  0
    9.4320   -0.4240   23.1950 C   0  0  0  0  0  0  0  0  0  0  0  0
    8.6890    0.6940   23.0550 N   0  0  0  0  0  0  0  0  0  0  0  0
    8.3000    0.7290   21.6650 C   0  0  0  0  0  0  0  0  0  0  0  0
    8.4250    1.7740   21.0180 O   0  0  0  0  0  0  0  0  0  0  0  0
    7.7830   -0.6210   21.1210 C   0  0  0  0  0  0  0  0  0  0  0  0
    6.9840   -0.2190   19.9710 C   0  0  0  0  0  0  0  0  0  0  0  0
    7.2150   -0.5060   18.6690 C   0  0  0  0  0  0  0  0  0  0  0  0
    6.2140    0.1120   17.8510 N   0  0  0  0  0  0  0  0  0  0  0  0
    5.3800    0.7580   18.6810 C   0  0  0  0  0  0  0  0  0  0  0  0
    4.3130    1.4640   18.3240 N   0  0  0  0  0  0  0  0  0  0  0  0
    3.5420    2.0770   19.4030 C   0  0  0  0  0  0  0  0  0  0  0  0
    3.9030    1.9400   20.7370 C   0  0  0  0  0  0  0  0  0  0  0  0
    5.0220    1.2100   21.1180 C   0  0  0  0  0  0  0  0  0  0  0  0
    5.8180    0.5720   19.9960 C   0  0  0  0  0  0  0  0  0  0  0  0
    9.3560    1.8780   23.3470 C   0  0  0  0  0  0  0  0  0  0  0  0
   10.7920    1.8880   22.7590 C   0  0  0  0  0  0  0  0  0  0  0  0
   12.3420    0.2620   23.9550 N   0  0  0  0  0  0  0  0  0  0  0  0
   12.9330   -0.8350   24.4140 C   0  0  0  0  0  0  0  0  0  0  0  0
   13.5010   -1.0600   25.6680 C   0  0  0  0  0  0  0  0  0  0  0  0
   14.0850   -2.1290   26.0330 C   0  0  0  0  0  0  0  0  0  0  0  0
   14.1110   -2.9800   25.2750 C   0  0  0  0  0  0  0  0  0  0  0  0
   14.6430   -3.7550   26.1920 F   0  0  0  0  0  0  0  0  0  0  0  0
   13.6430   -3.0120   23.9750 C   0  0  0  0  0  0  0  0  0  0  0  0
   12.9710   -1.8390   23.5580 C   0  0  0  0  0  0  0  0  0  0  0  0
  1  2  1  0
  2  3  2  0
  2  4  1  0
  4  5  1  0
  5  6  1  0
  6  7  1  0
  7  8  2  0
  8  9  1  0
  9 10  1  0
 10 11  1  0
 11 12  1  0
 12 13  1  0
 13 14  2  0
 13 15  1  0
 15 16  1  0
 16 17  2  0
 17 18  1  0
 18 19  1  0
 19 20  1  0
 20 21  2  0
 21 22  1  0
 22 23  2  0
 16 24  1  0
 19 24  2  0
 23 24  1  0
 12 25  1  0
  9 26  1  0
 25 26  1  0
  8 27  1  0
 27 28  1  0
 28 29  1  0
 29 30  2  0
 30 31  1  0
 31 32  1  0
 31 33  2  0
  7 34  1  0
 28 34  2  0
 33 34  1  0
M  END
