MAK-UNK-2c1752f0-4
     RDKit          3D

 10 10  0  0  0  0  0  0  0  0999 V2000
    4.7050    1.0870   23.7740 C   0  0  0  0  0  0  0  0  0  0  0  0
    3.5400    0.4000   23.1260 C   0  0  0  0  0  0  0  0  0  0  0  0
    2.4100    0.2400   23.9380 C   0  0  0  0  0  0  0  0  0  0  0  0
    3.1310    1.0560   21.9850 N   0  0  0  0  0  0  0  0  0  0  0  0
    3.9810    1.1060   20.8090 C   0  0  0  0  0  0  0  0  0  0  0  0
    5.2670    0.3740   20.8820 C   0  0  0  0  0  0  0  0  0  0  0  0
    6.2020    0.3000   19.8700 C   0  0  0  0  0  0  0  0  0  0  0  0
    5.8670    0.9910   18.6940 C   0  0  0  0  0  0  0  0  0  0  0  0
    4.7070    1.6920   18.5470 N   0  0  0  0  0  0  0  0  0  0  0  0
    3.8030    1.7390   19.5780 C   0  0  0  0  0  0  0  0  0  0  0  0
  1  2  1  0
  2  3  1  0
  2  4  1  0
  4  5  1  0
  5  6  2  0
  6  7  1  0
  7  8  2  0
  8  9  1  0
  5 10  1  0
  9 10  2  0
M  END
