MAK-UNK-acefcb18-9
     RDKit          3D

 14 15  0  0  0  0  0  0  0  0999 V2000
    9.3470   -6.3920   26.6270 C   0  0  0  0  0  0  0  0  0  0  0  0
    9.0360   -5.8760   25.3470 O   0  0  0  0  0  0  0  0  0  0  0  0
    8.9780   -4.5600   25.5340 C   0  0  2  0  0  0  0  0  0  0  0  0
    8.0670   -4.0930   26.4490 C   0  0  1  0  0  0  0  0  0  0  0  0
    8.0480   -2.6690   26.8380 C   0  0  0  0  0  0  0  0  0  0  0  0
    6.9030   -4.2440   25.8140 O   0  0  0  0  0  0  0  0  0  0  0  0
    7.1910   -3.7140   24.4780 C   0  0  2  0  0  0  0  0  0  0  0  0
    6.5950   -4.2320   23.3300 C   0  0  0  0  0  0  0  0  0  0  0  0
    5.9570   -3.3970   22.4100 C   0  0  0  0  0  0  0  0  0  0  0  0
    5.4240   -4.0110   21.3280 C   0  0  0  0  0  0  0  0  0  0  0  0
    5.6840   -5.7450   21.3750 S   0  0  0  0  0  0  0  0  0  0  0  0
    6.5320   -5.5810   22.8960 C   0  0  0  0  0  0  0  0  0  0  0  0
    8.5900   -3.6960   24.3590 C   0  0  1  0  0  0  0  0  0  0  0  0
    8.9970   -2.5350   24.4110 O   0  0  0  0  0  0  0  0  0  0  0  0
  1  2  1  0
  3  2  1  6
  3  4  1  0
  4  5  1  6
  4  6  1  0
  6  7  1  0
  7  8  1  6
  8  9  1  0
  9 10  2  0
 10 11  1  0
  8 12  2  0
 11 12  1  0
  3 13  1  0
  7 13  1  0
 13 14  1  1
M  END
