MAK-UNK-2084232d-2
     RDKit          3D

 24 26  0  0  0  0  0  0  0  0999 V2000
   12.2140    0.0470   22.8690 N   0  0  0  0  0  0  0  0  0  0  0  0
   11.8590   -0.7470   23.8160 C   0  0  0  0  0  0  0  0  0  0  0  0
   11.5950   -2.2410   23.4440 C   0  0  1  0  0  0  0  0  0  0  0  0
   10.4800   -2.9870   23.8720 O   0  0  0  0  0  0  0  0  0  0  0  0
    9.0780   -2.6830   23.5180 C   0  0  2  0  0  0  0  0  0  0  0  0
    8.0950   -3.6530   23.0930 C   0  0  1  0  0  0  0  0  0  0  0  0
    7.6000   -4.6960   23.8810 C   0  0  0  0  0  0  0  0  0  0  0  0
    6.7620   -5.6190   23.2470 C   0  0  0  0  0  0  0  0  0  0  0  0
    6.0340   -5.1480   22.1580 C   0  0  0  0  0  0  0  0  0  0  0  0
    6.6070   -4.0960   21.4280 C   0  0  1  0  0  0  0  0  0  0  0  0
    5.8680   -3.5640   20.2220 C   0  0  0  0  0  0  0  0  0  0  0  0
    6.3040   -2.3260   19.7180 C   0  0  0  0  0  0  0  0  0  0  0  0
    5.5110   -1.1910   19.9260 C   0  0  0  0  0  0  0  0  0  0  0  0
    6.0000   -0.1590   20.7850 O   0  0  0  0  0  0  0  0  0  0  0  0
    7.0870   -3.1170   22.3100 C   0  0  0  0  0  0  0  0  0  0  0  0
    9.4090   -1.7970   22.3770 C   0  0  0  0  0  0  0  0  0  0  0  0
   10.6620   -2.0320   22.7140 C   0  0  0  0  0  0  0  0  0  0  0  0
   11.7590   -2.3040   22.0740 C   0  0  0  0  0  0  0  0  0  0  0  0
   13.1030   -2.5680   22.3570 C   0  0  0  0  0  0  0  0  0  0  0  0
   13.4310   -2.5560   23.7840 C   0  0  0  0  0  0  0  0  0  0  0  0
   12.1780   -2.2490   24.2990 C   0  0  0  0  0  0  0  0  0  0  0  0
   12.5300   -2.2390   25.5840 O   0  0  0  0  0  0  0  0  0  0  0  0
   11.0170   -2.0110   24.0630 C   0  0  0  0  0  0  0  0  0  0  0  0
   10.1370   -1.7370   24.9730 O   0  0  0  0  0  0  0  0  0  0  0  0
  1  2  1  0
  3  2  1  6
  3  4  1  0
  4  5  1  0
  5  6  1  0
  6  7  1  1
  7  8  1  0
  8  9  1  0
  9 10  1  0
 10 11  1  6
 11 12  1  0
 12 13  1  0
 13 14  2  0
  6 15  1  0
 10 15  1  0
  5 16  1  6
 16 17  1  0
  3 18  1  0
 17 18  2  0
 18 19  1  0
 19 20  2  0
 20 21  1  0
 21 22  1  0
 17 23  1  0
 21 23  2  0
 23 24  1  0
M  END
