MAK-UNK-9955b1f3-16
     RDKit          3D

 17 18  0  0  0  0  0  0  0  0999 V2000
    8.8990    0.4430   23.1820 N   0  0  0  0  0  0  0  0  0  0  0  0
   10.2180    0.1730   22.8460 C   0  0  0  0  0  0  0  0  0  0  0  0
   11.1740    1.1460   22.8750 N   0  0  0  0  0  0  0  0  0  0  0  0
   12.3920    0.7390   22.8690 C   0  0  0  0  0  0  0  0  0  0  0  0
   12.7700   -0.5540   22.8250 N   0  0  0  0  0  0  0  0  0  0  0  0
   11.9710   -1.4300   22.1690 C   0  0  0  0  0  0  0  0  0  0  0  0
   12.4810   -2.2750   21.3790 O   0  0  0  0  0  0  0  0  0  0  0  0
   10.4860   -1.2490   22.4790 C   0  0  0  0  0  0  0  0  0  0  0  0
    9.4340   -2.4020   22.4180 C   0  0  0  0  0  0  0  0  0  0  0  0
    8.0270   -2.1110   23.0120 C   0  0  0  0  0  0  0  0  0  0  0  0
    7.5300   -3.3630   23.6610 N   0  0  0  0  0  0  0  0  0  0  0  0
    8.2730   -4.4820   23.4420 C   0  0  0  0  0  0  0  0  0  0  0  0
    7.5500   -5.7940   23.6910 C   0  0  0  0  0  0  0  0  0  0  0  0
    6.2260   -5.7460   24.0350 C   0  0  0  0  0  0  0  0  0  0  0  0
    6.1920   -5.5700   25.2500 O   0  0  0  0  0  0  0  0  0  0  0  0
    6.9850   -4.4670   25.6900 C   0  0  0  0  0  0  0  0  0  0  0  0
    6.9020   -3.3220   24.9070 C   0  0  0  0  0  0  0  0  0  0  0  0
  1  2  1  0
  2  3  1  0
  3  4  2  0
  4  5  1  0
  5  6  1  0
  6  7  2  0
  2  8  2  0
  6  8  1  0
  8  9  1  0
  9 10  1  0
 10 11  1  0
 11 12  1  0
 12 13  1  0
 13 14  1  0
 14 15  1  0
 15 16  1  0
 11 17  1  0
 16 17  1  0
M  END
