MAK-UNK-2084232d-4
     RDKit          3D

 22 24  0  0  0  0  0  0  0  0999 V2000
    5.8820   -2.9180   19.7010 C   0  0  0  0  0  0  0  0  0  0  0  0
    5.8840   -4.2090   20.5770 C   0  0  0  0  0  0  0  0  0  0  0  0
    6.2510   -3.9910   21.8890 C   0  0  2  0  0  0  0  0  0  0  0  0
    7.4800   -3.3770   22.0480 C   0  0  0  0  0  0  0  0  0  0  0  0
    8.1510   -3.7230   23.1620 C   0  0  1  0  0  0  0  0  0  0  0  0
    9.4280   -2.8650   23.1900 C   0  0  1  0  0  0  0  0  0  0  0  0
    9.2940   -1.4510   23.3780 C   0  0  0  0  0  0  0  0  0  0  0  0
   10.5760   -1.4950   23.7650 C   0  0  0  0  0  0  0  0  0  0  0  0
   11.5280   -0.6600   23.7440 C   0  0  0  0  0  0  0  0  0  0  0  0
   12.8370   -0.5160   24.0590 C   0  0  0  0  0  0  0  0  0  0  0  0
   13.3860   -1.6420   24.6310 C   0  0  0  0  0  0  0  0  0  0  0  0
   12.5920   -2.7090   24.8040 C   0  0  0  0  0  0  0  0  0  0  0  0
   13.2240   -3.7250   25.3950 O   0  0  0  0  0  0  0  0  0  0  0  0
   11.1180   -2.6770   24.3390 C   0  0  0  0  0  0  0  0  0  0  0  0
   10.4060   -3.8090   24.5160 O   0  0  0  0  0  0  0  0  0  0  0  0
   11.7400   -2.0120   24.1860 C   0  0  2  0  0  0  0  0  0  0  0  0
   12.5890   -2.5350   23.1710 C   0  0  0  0  0  0  0  0  0  0  0  0
   13.0710   -1.5130   22.2150 N   0  0  0  0  0  0  0  0  0  0  0  0
   10.5500   -3.0250   24.1560 O   0  0  0  0  0  0  0  0  0  0  0  0
    7.0810   -3.7620   24.2110 C   0  0  0  0  0  0  0  0  0  0  0  0
    6.4200   -5.1490   23.9420 C   0  0  0  0  0  0  0  0  0  0  0  0
    6.2710   -5.2600   22.5680 O   0  0  0  0  0  0  0  0  0  0  0  0
  1  2  1  0
  3  2  1  6
  3  4  1  0
  5  4  1  6
  5  6  1  0
  6  7  1  1
  7  8  1  0
  8  9  2  0
  9 10  1  0
 10 11  2  0
 11 12  1  0
 12 13  1  0
  8 14  1  0
 12 14  2  0
 14 15  1  0
  9 16  1  0
 16 17  1  6
 17 18  1  0
  6 19  1  0
 16 19  1  0
  5 20  1  0
 20 21  1  0
  3 22  1  0
 21 22  1  0
M  END
