MAK-UNK-27459e11-8
     RDKit          3D

 16 16  0  0  0  0  0  0  0  0999 V2000
    4.9920   -4.0190   24.6400 C   0  0  0  0  0  0  0  0  0  0  0  0
    6.7820   -3.9140   24.5950 S   0  0  0  0  0  0  0  0  0  0  0  0
    7.2670   -5.2560   24.3240 O   0  0  0  0  0  0  0  0  0  0  0  0
    7.1190   -3.1420   25.7800 O   0  0  0  0  0  0  0  0  0  0  0  0
    7.2840   -2.9830   23.2880 N   0  0  0  0  0  0  0  0  0  0  0  0
    8.7680   -2.7830   23.1170 C   0  0  0  0  0  0  0  0  0  0  0  0
    9.1600   -1.6020   23.6420 C   0  0  0  0  0  0  0  0  0  0  0  0
   10.4380   -0.8020   23.3830 C   0  0  0  0  0  0  0  0  0  0  0  0
   10.2510    0.6750   23.0850 C   0  0  0  0  0  0  0  0  0  0  0  0
   11.4430    1.5920   22.8320 C   0  0  0  0  0  0  0  0  0  0  0  0
   12.8260    0.9630   22.8850 C   0  0  0  0  0  0  0  0  0  0  0  0
   12.9190   -0.5050   23.1770 C   0  0  0  0  0  0  0  0  0  0  0  0
   11.7760   -1.2760   23.4050 C   0  0  0  0  0  0  0  0  0  0  0  0
   12.1150   -2.6810   23.6940 C   0  0  0  0  0  0  0  0  0  0  0  0
   11.2580   -3.4790   24.2980 N   0  0  0  0  0  0  0  0  0  0  0  0
   13.3270   -3.0920   23.3170 N   0  0  0  0  0  0  0  0  0  0  0  0
  1  2  1  0
  2  3  2  0
  2  4  2  0
  2  5  1  0
  5  6  1  0
  6  7  1  0
  7  8  1  0
  8  9  2  0
  9 10  1  0
 10 11  2  0
 11 12  1  0
  8 13  1  0
 12 13  2  0
 13 14  1  0
 14 15  2  3
 14 16  1  0
M  END
