MAK-UNK-2084232d-12
     RDKit          3D

 23 25  0  0  0  0  0  0  0  0999 V2000
   13.9700   -2.9770   23.8680 N   0  0  0  0  0  0  0  0  0  0  0  0
   12.9170   -2.7070   24.8750 C   0  0  0  0  0  0  0  0  0  0  0  0
   11.6320   -2.2220   24.1720 C   0  0  1  0  0  0  0  0  0  0  0  0
   10.3780   -3.1080   24.4640 O   0  0  0  0  0  0  0  0  0  0  0  0
    9.2740   -3.1010   23.4310 C   0  0  1  0  0  0  0  0  0  0  0  0
    7.9540   -3.6280   23.4830 C   0  0  1  0  0  0  0  0  0  0  0  0
    7.3820   -3.4160   22.2120 C   0  0  0  0  0  0  0  0  0  0  0  0
    6.6800   -4.5690   21.4660 C   0  0  2  0  0  0  0  0  0  0  0  0
    5.9170   -4.0300   20.3390 O   0  0  0  0  0  0  0  0  0  0  0  0
    5.9780   -5.4440   22.4410 C   0  0  0  0  0  0  0  0  0  0  0  0
    6.7060   -5.7630   23.5710 C   0  0  2  0  0  0  0  0  0  0  0  0
    5.8630   -6.0240   24.4140 O   0  0  0  0  0  0  0  0  0  0  0  0
    7.5300   -4.7990   24.1680 C   0  0  2  0  0  0  0  0  0  0  0  0
    6.7590   -4.3210   25.2840 O   0  0  0  0  0  0  0  0  0  0  0  0
    9.2720   -1.6700   23.3670 C   0  0  0  0  0  0  0  0  0  0  0  0
   10.5470   -1.7510   23.7710 C   0  0  0  0  0  0  0  0  0  0  0  0
   11.4720   -0.8870   23.6670 C   0  0  0  0  0  0  0  0  0  0  0  0
   12.8860   -0.6280   23.9560 C   0  0  0  0  0  0  0  0  0  0  0  0
   13.4990   -1.8090   24.6610 C   0  0  0  0  0  0  0  0  0  0  0  0
   12.6990   -2.8820   24.9200 C   0  0  0  0  0  0  0  0  0  0  0  0
   13.3770   -3.8780   25.5940 O   0  0  0  0  0  0  0  0  0  0  0  0
   11.1530   -2.9060   24.4670 C   0  0  0  0  0  0  0  0  0  0  0  0
   10.5120   -4.0740   24.8100 O   0  0  0  0  0  0  0  0  0  0  0  0
  1  2  1  0
  3  2  1  1
  3  4  1  0
  4  5  1  0
  5  6  1  0
  6  7  1  6
  7  8  1  0
  8  9  1  6
  8 10  1  0
 10 11  1  0
 11 12  1  1
  6 13  1  0
 11 13  1  0
 13 14  1  1
  5 15  1  1
 15 16  1  0
  3 17  1  0
 16 17  2  0
 17 18  1  0
 18 19  2  0
 19 20  1  0
 20 21  1  0
 16 22  1  0
 20 22  2  0
 22 23  1  0
M  END
