MAK-UNK-ae34c249-4
     RDKit          3D

 29 32  0  0  0  0  0  0  0  0999 V2000
    8.5510    0.9750   21.3260 O   0  0  0  0  0  0  0  0  0  0  0  0
    8.2470   -0.1890   21.5660 C   0  0  0  0  0  0  0  0  0  0  0  0
    9.0040   -1.0350   22.3450 N   0  0  0  0  0  0  0  0  0  0  0  0
   10.3470   -0.6950   22.5080 C   0  0  0  0  0  0  0  0  0  0  0  0
   10.6810    0.6500   22.8520 C   0  0  0  0  0  0  0  0  0  0  0  0
   12.1670    1.1200   23.0190 C   0  0  0  0  0  0  0  0  0  0  0  0
   13.1160    0.1550   22.8200 C   0  0  0  0  0  0  0  0  0  0  0  0
   12.4230   -1.0360   22.5080 C   0  0  0  0  0  0  0  0  0  0  0  0
   11.4170   -1.5890   22.3370 C   0  0  0  0  0  0  0  0  0  0  0  0
    7.0160   -0.7980   21.0070 N   0  0  0  0  0  0  0  0  0  0  0  0
    6.3150   -0.1160   19.9960 C   0  0  0  0  0  0  0  0  0  0  0  0
    6.8650    0.0220   18.7610 C   0  0  0  0  0  0  0  0  0  0  0  0
    6.3160    0.6650   17.7320 N   0  0  0  0  0  0  0  0  0  0  0  0
    5.1280    1.2050   17.9640 C   0  0  0  0  0  0  0  0  0  0  0  0
    4.4210    1.1070   19.2750 C   0  0  0  0  0  0  0  0  0  0  0  0
    5.0450    0.4370   20.2630 C   0  0  0  0  0  0  0  0  0  0  0  0
    4.5020    0.2350   21.6250 C   0  0  0  0  0  0  0  0  0  0  0  0
    5.0170   -0.6100   22.5190 N   0  0  0  0  0  0  0  0  0  0  0  0
    4.3430   -0.6240   23.7190 N   0  0  0  0  0  0  0  0  0  0  0  0
    3.2450    0.3120   23.6400 C   0  0  0  0  0  0  0  0  0  0  0  0
    2.4610    0.4290   24.7850 C   0  0  0  0  0  0  0  0  0  0  0  0
    1.1060    0.2930   24.6070 N   0  0  0  0  0  0  0  0  0  0  0  0
    0.2180    1.2810   24.1250 C   0  0  0  0  0  0  0  0  0  0  0  0
   -1.0660    0.8400   23.7930 C   0  0  0  0  0  0  0  0  0  0  0  0
   -1.6200   -0.1960   24.5390 C   0  0  0  0  0  0  0  0  0  0  0  0
   -0.8400   -0.8540   25.4840 C   0  0  0  0  0  0  0  0  0  0  0  0
   -1.3890   -1.8570   26.2090 F   0  0  0  0  0  0  0  0  0  0  0  0
    0.4910   -0.4990   25.6990 C   0  0  0  0  0  0  0  0  0  0  0  0
    3.1020    1.1300   22.1410 S   0  0  0  0  0  0  0  0  0  0  0  0
  1  2  2  0
  2  3  1  0
  3  4  1  0
  4  5  2  0
  5  6  1  0
  6  7  2  0
  7  8  1  0
  4  9  1  0
  8  9  2  0
  2 10  1  0
 10 11  1  0
 11 12  2  0
 12 13  1  0
 13 14  2  0
 14 15  1  0
 11 16  1  0
 15 16  2  0
 16 17  1  0
 17 18  2  0
 18 19  1  0
 19 20  2  0
 20 21  1  0
 21 22  1  0
 22 23  1  0
 23 24  1  0
 24 25  1  0
 25 26  2  0
 26 27  1  0
 22 28  1  0
 26 28  1  0
 17 29  1  0
 20 29  1  0
M  END
