MAK-UNK-10572812-8
     RDKit          3D

 34 38  0  0  0  0  0  0  0  0999 V2000
   11.6450   -3.1410   24.3560 O   0  0  0  0  0  0  0  0  0  0  0  0
   13.0110   -2.7640   24.3500 C   0  0  0  0  0  0  0  0  0  0  0  0
   13.2860   -1.5180   23.5690 C   0  0  0  0  0  0  0  0  0  0  0  0
   12.2070   -0.9330   22.9720 N   0  0  0  0  0  0  0  0  0  0  0  0
   11.0550   -1.6670   22.4660 C   0  0  0  0  0  0  0  0  0  0  0  0
    9.8990   -1.3610   23.1580 C   0  0  0  0  0  0  0  0  0  0  0  0
    9.6270    0.0660   22.9140 N   0  0  0  0  0  0  0  0  0  0  0  0
    8.8180    0.3100   21.7070 C   0  0  0  0  0  0  0  0  0  0  0  0
    8.7720    1.3930   21.1160 O   0  0  0  0  0  0  0  0  0  0  0  0
    8.0400   -0.7480   21.1850 C   0  0  0  0  0  0  0  0  0  0  0  0
    7.1880   -0.2960   20.0780 C   0  0  0  0  0  0  0  0  0  0  0  0
    7.3700   -0.5600   18.7940 C   0  0  0  0  0  0  0  0  0  0  0  0
    6.4160    0.0320   18.0290 N   0  0  0  0  0  0  0  0  0  0  0  0
    5.5460    0.7150   18.8160 C   0  0  0  0  0  0  0  0  0  0  0  0
    4.3780    1.5010   18.4470 N   0  0  0  0  0  0  0  0  0  0  0  0
    3.6770    2.0830   19.6030 C   0  0  0  0  0  0  0  0  0  0  0  0
    4.1420    1.8820   21.0070 C   0  0  0  0  0  0  0  0  0  0  0  0
    5.2860    1.1200   21.2840 C   0  0  0  0  0  0  0  0  0  0  0  0
    6.0280    0.5010   20.1140 C   0  0  0  0  0  0  0  0  0  0  0  0
   10.6490    0.9710   23.4720 C   0  0  0  0  0  0  0  0  0  0  0  0
   12.0540    0.4390   23.2750 C   0  0  0  0  0  0  0  0  0  0  0  0
   14.0630   -3.4200   24.9650 N   0  0  0  0  0  0  0  0  0  0  0  0
   13.8070   -4.3780   25.9160 C   0  0  0  0  0  0  0  0  0  0  0  0
   14.4250   -5.7200   25.7410 C   0  0  0  0  0  0  0  0  0  0  0  0
   15.2110   -7.9870   27.1310 C   0  0  0  0  0  0  0  0  0  0  0  0
   16.1140   -8.4780   26.8820 C   0  0  0  0  0  0  0  0  0  0  0  0
   16.5270   -9.1290   27.3410 N   0  0  0  0  0  0  0  0  0  0  0  0
   15.4090  -10.0630   28.9400 C   0  0  0  0  0  0  0  0  0  0  0  0
   15.2230  -11.5470   30.0630 C   0  0  0  0  0  0  0  0  0  0  0  0
   14.4450  -11.7010   31.2330 C   0  0  0  0  0  0  0  0  0  0  0  0
   13.8070  -10.6000   31.6150 C   0  0  0  0  0  0  0  0  0  0  0  0
   13.0850  -10.5630   32.7490 F   0  0  0  0  0  0  0  0  0  0  0  0
   13.9340   -9.4320   30.7110 C   0  0  0  0  0  0  0  0  0  0  0  0
   14.7240   -9.0720   29.0600 C   0  0  0  0  0  0  0  0  0  0  0  0
  1  2  2  0
  2  3  1  0
  3  4  1  0
  4  5  1  0
  5  6  1  0
  6  7  1  0
  7  8  1  0
  8  9  2  0
  8 10  1  0
 10 11  1  0
 11 12  2  0
 12 13  1  0
 13 14  1  0
 14 15  1  0
 15 16  2  0
 16 17  1  0
 17 18  2  0
 11 19  1  0
 14 19  2  0
 18 19  1  0
  7 20  1  0
  4 21  1  0
 20 21  1  0
  2 22  1  0
 22 23  1  0
 23 24  1  0
 24 25  1  0
 25 26  2  0
 26 27  1  0
 27 28  1  0
 28 29  1  0
 29 30  2  0
 30 31  1  0
 31 32  1  0
 31 33  2  0
 25 34  1  0
 28 34  2  0
 33 34  1  0
M  END
