MAK-UNK-2084232d-20
     RDKit          3D

 21 23  0  0  0  0  0  0  0  0999 V2000
   13.8620   -2.8970   23.7050 N   0  0  0  0  0  0  0  0  0  0  0  0
   12.8300   -2.6180   24.7340 C   0  0  0  0  0  0  0  0  0  0  0  0
   11.5460   -2.2730   24.0450 C   0  0  1  0  0  0  0  0  0  0  0  0
   10.3730   -2.8790   24.3400 O   0  0  0  0  0  0  0  0  0  0  0  0
    9.3250   -2.9540   23.2680 C   0  0  1  0  0  0  0  0  0  0  0  0
    7.8980   -3.5230   23.3690 C   0  0  1  0  0  0  0  0  0  0  0  0
    7.1720   -3.2740   22.1910 N   0  0  0  0  0  0  0  0  0  0  0  0
    5.8680   -3.9110   22.0350 C   0  0  0  0  0  0  0  0  0  0  0  0
    5.9710   -5.4130   21.8740 C   0  0  0  0  0  0  0  0  0  0  0  0
    7.0840   -5.9460   22.7560 C   0  0  0  0  0  0  0  0  0  0  0  0
    7.5890   -5.0010   23.8380 C   0  0  2  0  0  0  0  0  0  0  0  0
    6.5460   -5.0530   24.8130 O   0  0  0  0  0  0  0  0  0  0  0  0
    9.3290   -1.5360   22.9400 C   0  0  0  0  0  0  0  0  0  0  0  0
   10.5690   -1.6130   23.4770 C   0  0  0  0  0  0  0  0  0  0  0  0
   11.5030   -0.7870   23.5360 C   0  0  0  0  0  0  0  0  0  0  0  0
   12.8720   -0.5860   24.0070 C   0  0  0  0  0  0  0  0  0  0  0  0
   13.3670   -1.6980   24.6580 C   0  0  0  0  0  0  0  0  0  0  0  0
   12.6000   -2.8030   24.8040 C   0  0  0  0  0  0  0  0  0  0  0  0
   13.2390   -3.8020   25.4890 O   0  0  0  0  0  0  0  0  0  0  0  0
   11.1540   -2.8450   24.2250 C   0  0  0  0  0  0  0  0  0  0  0  0
   10.4820   -3.9880   24.4310 O   0  0  0  0  0  0  0  0  0  0  0  0
  1  2  1  0
  3  2  1  1
  3  4  1  0
  4  5  1  0
  5  6  1  0
  6  7  1  6
  7  8  1  0
  8  9  1  0
  9 10  1  0
  6 11  1  0
 10 11  1  0
 11 12  1  1
  5 13  1  1
 13 14  1  0
  3 15  1  0
 14 15  2  0
 15 16  1  0
 16 17  2  0
 17 18  1  0
 18 19  1  0
 14 20  1  0
 18 20  2  0
 20 21  1  0
M  END
