MAK-UNK-c7aa8293-14
     RDKit          3D

 24 26  0  0  0  0  0  0  0  0999 V2000
   13.5870   -3.2080   25.1410 N   0  0  0  0  0  0  0  0  0  0  0  0
   13.2070   -2.5370   23.8690 C   0  0  0  0  0  0  0  0  0  0  0  0
   11.7080   -2.0290   23.8190 C   0  0  1  0  0  0  0  0  0  0  0  0
   10.6490   -3.1490   23.5050 O   0  0  0  0  0  0  0  0  0  0  0  0
    9.1690   -3.1350   23.9520 C   0  0  2  0  0  0  0  0  0  0  0  0
    8.1430   -3.8480   23.2740 C   0  0  1  0  0  0  0  0  0  0  0  0
    7.0390   -4.3450   23.9340 C   0  0  0  0  0  0  0  0  0  0  0  0
    6.5840   -5.6310   23.2410 C   0  0  0  0  0  0  0  0  0  0  0  0
    6.2770   -5.2480   21.8080 C   0  0  0  0  0  0  0  0  0  0  0  0
    6.2720   -3.8630   21.5650 C   0  0  2  0  0  0  0  0  0  0  0  0
    5.8540   -3.3710   20.3280 C   0  0  0  0  0  0  0  0  0  0  0  0
    6.5990   -2.3780   19.6810 C   0  0  0  0  0  0  0  0  0  0  0  0
    6.4230   -1.0580   20.1060 C   0  0  0  0  0  0  0  0  0  0  0  0
    5.8810   -0.1920   19.4380 O   0  0  0  0  0  0  0  0  0  0  0  0
    7.6380   -3.2510   21.9490 C   0  0  0  0  0  0  0  0  0  0  0  0
    8.9830   -1.7220   24.3800 C   0  0  0  0  0  0  0  0  0  0  0  0
   10.4460   -1.7600   24.3150 C   0  0  0  0  0  0  0  0  0  0  0  0
   11.4200   -1.6550   25.1820 C   0  0  0  0  0  0  0  0  0  0  0  0
   12.9700   -1.6940   25.3720 C   0  0  0  0  0  0  0  0  0  0  0  0
   13.3330   -1.9360   23.9310 C   0  0  0  0  0  0  0  0  0  0  0  0
   12.4020   -2.0350   22.9350 C   0  0  0  0  0  0  0  0  0  0  0  0
   12.8830   -2.2410   21.6680 O   0  0  0  0  0  0  0  0  0  0  0  0
   11.0180   -1.9500   23.1200 C   0  0  0  0  0  0  0  0  0  0  0  0
   10.3540   -2.0770   21.9490 O   0  0  0  0  0  0  0  0  0  0  0  0
  1  2  1  0
  3  2  1  1
  3  4  1  0
  4  5  1  0
  5  6  1  0
  6  7  1  1
  7  8  1  0
  8  9  1  0
  9 10  1  0
 10 11  1  6
 11 12  1  0
 12 13  1  0
 13 14  2  0
  6 15  1  0
 10 15  1  0
  5 16  1  6
 16 17  1  0
  3 18  1  0
 17 18  2  0
 18 19  1  0
 19 20  2  0
 20 21  1  0
 21 22  1  0
 17 23  1  0
 21 23  2  0
 23 24  1  0
M  END
