MAK-UNK-9a6be56d-24
     RDKit          3D

 38 42  0  0  0  0  0  0  0  0999 V2000
    8.5660    4.0680   27.0360 C   0  0  0  0  0  0  0  0  0  0  0  0
    7.2160    4.3840   26.9190 N   0  0  0  0  0  0  0  0  0  0  0  0
    6.2860    3.7800   26.0460 C   0  0  0  0  0  0  0  0  0  0  0  0
    6.4410    2.4550   25.6270 C   0  0  0  0  0  0  0  0  0  0  0  0
    6.9340    2.0310   24.4180 C   0  0  0  0  0  0  0  0  0  0  0  0
    7.0150    0.6910   24.1890 C   0  0  0  0  0  0  0  0  0  0  0  0
    7.4750    0.0920   23.0220 C   0  0  0  0  0  0  0  0  0  0  0  0
    6.4510   -0.0930   22.0900 C   0  0  0  0  0  0  0  0  0  0  0  0
    5.1670    0.3050   22.3920 F   0  0  0  0  0  0  0  0  0  0  0  0
    6.7420   -0.6650   20.8810 C   0  0  0  0  0  0  0  0  0  0  0  0
    7.9890   -1.0750   20.5110 C   0  0  0  0  0  0  0  0  0  0  0  0
    9.0100   -0.8900   21.4420 C   0  0  0  0  0  0  0  0  0  0  0  0
    8.8240   -0.3200   22.6930 C   0  0  0  0  0  0  0  0  0  0  0  0
    9.9580   -0.2420   23.3580 N   0  0  0  0  0  0  0  0  0  0  0  0
   10.6790   -1.4250   23.2730 C   0  0  0  0  0  0  0  0  0  0  0  0
   12.0200   -1.5900   22.5500 C   0  0  0  0  0  0  0  0  0  0  0  0
   12.9950   -0.4450   22.7800 C   0  0  0  0  0  0  0  0  0  0  0  0
   12.2400    0.8640   22.9390 C   0  0  0  0  0  0  0  0  0  0  0  0
   12.9620    2.0510   22.8380 C   0  0  0  0  0  0  0  0  0  0  0  0
   12.3850    3.4300   22.9890 C   0  0  0  0  0  0  0  0  0  0  0  0
   11.0490    3.5600   23.2500 C   0  0  0  0  0  0  0  0  0  0  0  0
   10.2690    5.1190   23.5230 S   0  0  0  0  0  0  0  0  0  0  0  0
   11.4430    6.2220   23.0510 N   0  0  0  0  0  0  0  0  0  0  0  0
   10.0930    5.2420   24.9570 O   0  0  0  0  0  0  0  0  0  0  0  0
    9.1400    5.2740   22.6480 O   0  0  0  0  0  0  0  0  0  0  0  0
   10.2120    2.3090   23.3390 C   0  0  0  0  0  0  0  0  0  0  0  0
   10.8510    0.9200   23.1900 C   0  0  0  0  0  0  0  0  0  0  0  0
    6.5170    0.1870   25.3940 N   0  0  0  0  0  0  0  0  0  0  0  0
    6.3160   -1.4480   25.8710 S   0  0  0  0  0  0  0  0  0  0  0  0
    6.8420   -1.4570   27.2140 O   0  0  0  0  0  0  0  0  0  0  0  0
    6.9040   -2.2490   24.8230 O   0  0  0  0  0  0  0  0  0  0  0  0
    4.5920   -1.7840   25.8880 C   0  0  0  0  0  0  0  0  0  0  0  0
    3.5560   -0.7730   26.3120 C   0  0  0  0  0  0  0  0  0  0  0  0
    2.2210   -1.1770   26.2790 C   0  0  0  0  0  0  0  0  0  0  0  0
    1.9090   -2.4730   25.8630 C   0  0  0  0  0  0  0  0  0  0  0  0
    2.8310   -3.3930   25.4760 N   0  0  0  0  0  0  0  0  0  0  0  0
    4.1460   -3.0360   25.4970 C   0  0  0  0  0  0  0  0  0  0  0  0
    6.1670    1.2450   26.2610 C   0  0  0  0  0  0  0  0  0  0  0  0
  1  2  1  0
  2  3  1  0
  3  4  1  0
  4  5  1  0
  5  6  2  0
  6  7  1  0
  7  8  2  0
  8  9  1  0
  8 10  1  0
 10 11  2  0
 11 12  1  0
  7 13  1  0
 12 13  2  0
 13 14  1  0
 14 15  1  0
 15 16  1  0
 16 17  1  0
 17 18  1  0
 18 19  2  0
 19 20  1  0
 20 21  2  0
 21 22  1  0
 22 23  1  0
 22 24  2  0
 22 25  2  0
 21 26  1  0
 14 27  1  0
 18 27  1  0
 26 27  2  0
  6 28  1  0
 28 29  1  0
 29 30  2  0
 29 31  2  0
 29 32  1  0
 32 33  2  0
 33 34  1  0
 34 35  2  0
 35 36  1  0
 32 37  1  0
 36 37  2  0
  4 38  2  0
 28 38  1  0
M  END
