MAK-UNK-f2409524-24
     RDKit          3D

 24 26  0  0  0  0  0  0  0  0999 V2000
    9.8550   -0.6210   22.3260 C   0  0  0  0  0  0  0  0  0  0  0  0
    8.7780    0.0070   21.5120 C   0  0  0  0  0  0  0  0  0  0  0  0
    8.8980    1.2080   21.1970 O   0  0  0  0  0  0  0  0  0  0  0  0
    7.7070   -0.6840   21.1250 N   0  0  0  0  0  0  0  0  0  0  0  0
    6.7270   -0.0980   20.2240 C   0  0  0  0  0  0  0  0  0  0  0  0
    7.0480   -0.1790   18.7700 C   0  0  0  0  0  0  0  0  0  0  0  0
    6.1600    0.3980   17.7750 N   0  0  0  0  0  0  0  0  0  0  0  0
    4.9450    1.0480   18.3030 C   0  0  0  0  0  0  0  0  0  0  0  0
    4.6960    1.0660   19.7790 C   0  0  0  0  0  0  0  0  0  0  0  0
    5.5380    0.5240   20.6750 C   0  0  0  0  0  0  0  0  0  0  0  0
    5.1770    0.6020   22.1320 C   0  0  0  0  0  0  0  0  0  0  0  0
    4.7910    1.9840   22.6510 C   0  0  0  0  0  0  0  0  0  0  0  0
    3.6040    1.9520   23.6210 C   0  0  0  0  0  0  0  0  0  0  0  0
    2.3390    1.8710   22.8740 N   0  0  0  0  0  0  0  0  0  0  0  0
    1.1220    1.3320   23.2080 C   0  0  0  0  0  0  0  0  0  0  0  0
    0.2280    1.4760   22.2100 C   0  0  0  0  0  0  0  0  0  0  0  0
   -1.0960    1.0260   22.2420 C   0  0  0  0  0  0  0  0  0  0  0  0
   -1.5830    0.7980   20.9410 C   0  0  0  0  0  0  0  0  0  0  0  0
   -2.8400    1.3760   20.7310 C   0  0  0  0  0  0  0  0  0  0  0  0
   -3.8380    0.8330   21.5440 C   0  0  0  0  0  0  0  0  0  0  0  0
   -3.5020    1.4480   22.9030 C   0  0  0  0  0  0  0  0  0  0  0  0
   -2.0670    1.9990   22.9420 C   0  0  0  0  0  0  0  0  0  0  0  0
    0.8340    2.1240   21.1710 N   0  0  0  0  0  0  0  0  0  0  0  0
    2.1520    2.3650   21.6010 N   0  0  0  0  0  0  0  0  0  0  0  0
  1  2  1  0
  2  3  2  0
  2  4  1  0
  4  5  1  0
  5  6  2  0
  6  7  1  0
  7  8  2  0
  8  9  1  0
  5 10  1  0
  9 10  2  0
 10 11  1  0
 11 12  1  0
 12 13  1  0
 13 14  1  0
 14 15  1  0
 15 16  2  0
 16 17  1  0
 17 18  1  0
 18 19  1  0
 19 20  1  0
 20 21  1  0
 17 22  1  0
 21 22  1  0
 16 23  1  0
 14 24  1  0
 23 24  2  0
M  END
