MAK-UNK-af83ef51-12
     RDKit          3D

 20 21  0  0  0  0  0  0  0  0999 V2000
   13.4130   -0.0420   22.7990 C   0  0  0  0  0  0  0  0  0  0  0  0
   12.2210    0.8650   22.8450 C   0  0  0  0  0  0  0  0  0  0  0  0
   12.1890    2.0640   22.8430 C   0  0  0  0  0  0  0  0  0  0  0  0
   10.8950    1.2100   22.8840 C   0  0  0  0  0  0  0  0  0  0  0  0
   12.0670   -0.0090   22.8460 C   0  0  0  0  0  0  0  0  0  0  0  0
   10.8110   -0.9320   22.9110 C   0  0  0  0  0  0  0  0  0  0  0  0
    9.2740   -0.9060   22.9890 C   0  0  0  0  0  0  0  0  0  0  0  0
    8.8730   -2.3480   23.4490 C   0  0  0  0  0  0  0  0  0  0  0  0
    7.5070   -3.0290   22.6620 S   0  0  0  0  0  0  0  0  0  0  0  0
    6.9030   -4.1920   23.8350 C   0  0  2  0  0  0  0  0  0  0  0  0
    5.6750   -4.1340   23.8300 O   0  0  0  0  0  0  0  0  0  0  0  0
    5.0930   -5.1660   24.5950 C   0  0  2  0  0  0  0  0  0  0  0  0
    3.3670   -4.9710   24.4220 Cl  0  0  0  0  0  0  0  0  0  0  0  0
    5.4250   -5.2360   25.9240 C   0  0  2  0  0  0  0  0  0  0  0  0
    4.4790   -4.9930   26.6670 O   0  0  0  0  0  0  0  0  0  0  0  0
    6.6220   -4.3180   26.1520 C   0  0  1  0  0  0  0  0  0  0  0  0
    7.4230   -4.8770   27.1890 O   0  0  0  0  0  0  0  0  0  0  0  0
    7.4760   -3.9570   25.0940 C   0  0  1  0  0  0  0  0  0  0  0  0
    8.6780   -4.7200   25.2140 O   0  0  0  0  0  0  0  0  0  0  0  0
   10.8500    0.5090   22.9040 C   0  0  0  0  0  0  0  0  0  0  0  0
  1  2  1  0
  2  3  2  0
  3  4  1  0
  4  5  2  0
  5  6  1  0
  6  7  1  0
  7  8  1  0
  8  9  1  0
 10  9  1  6
 10 11  1  0
 11 12  1  0
 12 13  1  1
 12 14  1  0
 14 15  1  1
 14 16  1  0
 16 17  1  1
 10 18  1  0
 16 18  1  0
 18 19  1  6
  2 20  1  0
  6 20  2  0
M  END
