MAK-UNK-01147c51-5
     RDKit          3D

 24 26  0  0  0  0  0  0  0  0999 V2000
   13.2280   -1.7260   22.4880 N   0  0  0  0  0  0  0  0  0  0  0  0
   12.7350   -2.6530   23.2480 C   0  0  0  0  0  0  0  0  0  0  0  0
   11.7270   -2.1630   24.3210 C   0  0  2  0  0  0  0  0  0  0  0  0
   10.5490   -2.8740   24.5180 O   0  0  0  0  0  0  0  0  0  0  0  0
    9.3800   -2.8920   23.5270 C   0  0  1  0  0  0  0  0  0  0  0  0
    8.0820   -3.4830   23.6970 C   0  0  2  0  0  0  0  0  0  0  0  0
    7.7100   -4.7640   24.1770 C   0  0  0  0  0  0  0  0  0  0  0  0
    7.1800   -5.7530   23.3220 C   0  0  0  0  0  0  0  0  0  0  0  0
    6.6020   -5.3630   22.1140 C   0  0  0  0  0  0  0  0  0  0  0  0
    6.3600   -4.0010   21.9680 C   0  0  2  0  0  0  0  0  0  0  0  0
    5.7810   -3.4940   20.8020 C   0  0  0  0  0  0  0  0  0  0  0  0
    6.2650   -2.2700   20.3010 C   0  0  0  0  0  0  0  0  0  0  0  0
    5.9420   -1.9630   19.0030 C   0  0  0  0  0  0  0  0  0  0  0  0
    5.1630   -2.6160   18.3440 O   0  0  0  0  0  0  0  0  0  0  0  0
    7.5210   -3.3100   22.2750 C   0  0  0  0  0  0  0  0  0  0  0  0
    9.2180   -1.4520   23.5530 C   0  0  0  0  0  0  0  0  0  0  0  0
   10.5950   -1.6190   23.9520 C   0  0  0  0  0  0  0  0  0  0  0  0
   11.6010   -0.7260   23.7710 C   0  0  0  0  0  0  0  0  0  0  0  0
   12.9400   -0.6060   24.0050 C   0  0  0  0  0  0  0  0  0  0  0  0
   13.5120   -1.8010   24.6780 C   0  0  0  0  0  0  0  0  0  0  0  0
   12.7030   -2.8130   24.9900 C   0  0  0  0  0  0  0  0  0  0  0  0
   13.3410   -3.8350   25.6310 O   0  0  0  0  0  0  0  0  0  0  0  0
   11.1700   -2.7630   24.6290 C   0  0  0  0  0  0  0  0  0  0  0  0
   10.4610   -3.8550   25.0120 O   0  0  0  0  0  0  0  0  0  0  0  0
  1  2  1  0
  3  2  1  6
  3  4  1  0
  4  5  1  0
  5  6  1  0
  6  7  1  6
  7  8  1  0
  8  9  1  0
  9 10  1  0
 10 11  1  6
 11 12  1  0
 12 13  1  0
 13 14  2  0
  6 15  1  0
 10 15  1  0
  5 16  1  1
 16 17  1  0
  3 18  1  0
 17 18  2  0
 18 19  1  0
 19 20  2  0
 20 21  1  0
 21 22  1  0
 17 23  1  0
 21 23  2  0
 23 24  1  0
M  END
