MAK-UNK-f2409524-12
     RDKit          3D

 28 31  0  0  0  0  0  0  0  0999 V2000
    4.8640    0.1500   19.0010 C   0  0  0  0  0  0  0  0  0  0  0  0
    5.2200    0.9770   20.2170 C   0  0  1  0  0  0  0  0  0  0  0  0
    4.3580    1.5590   20.9010 O   0  0  0  0  0  0  0  0  0  0  0  0
    4.9030    1.8940   22.1290 C   0  0  1  0  0  0  0  0  0  0  0  0
    4.1950    2.6670   23.0680 N   0  0  0  0  0  0  0  0  0  0  0  0
    2.8800    2.5120   23.4870 C   0  0  0  0  0  0  0  0  0  0  0  0
    1.8160    2.8870   22.6860 N   0  0  0  0  0  0  0  0  0  0  0  0
    0.7390    3.6120   23.1830 C   0  0  0  0  0  0  0  0  0  0  0  0
    0.9140    4.4380   24.2830 C   0  0  0  0  0  0  0  0  0  0  0  0
   -0.3140    4.7170   24.9530 C   0  0  0  0  0  0  0  0  0  0  0  0
   -1.5560    4.7000   24.0440 C   0  0  0  0  0  0  0  0  0  0  0  0
   -1.6920    3.2660   23.5030 C   0  0  0  0  0  0  0  0  0  0  0  0
   -0.3310    2.7280   23.1640 C   0  0  0  0  0  0  0  0  0  0  0  0
    2.7110    2.0190   24.7250 C   0  0  0  0  0  0  0  0  0  0  0  0
    3.8560    1.7190   25.4860 C   0  0  0  0  0  0  0  0  0  0  0  0
    5.1390    2.1850   25.3200 N   0  0  0  0  0  0  0  0  0  0  0  0
    5.0990    3.0650   24.1520 C   0  0  0  0  0  0  0  0  0  0  0  0
    5.7960    4.0820   24.1120 O   0  0  0  0  0  0  0  0  0  0  0  0
    5.6470    0.7740   22.5060 C   0  0  1  0  0  0  0  0  0  0  0  0
    5.0500   -0.2060   23.2310 N   0  0  0  0  0  0  0  0  0  0  0  0
    5.6780   -1.4190   23.3170 C   0  0  0  0  0  0  0  0  0  0  0  0
    4.9170   -2.7200   23.2140 C   0  0  0  0  0  0  0  0  0  0  0  0
    5.4720   -3.9440   23.2900 N   0  0  0  0  0  0  0  0  0  0  0  0
    6.7850   -3.9540   23.4690 C   0  0  0  0  0  0  0  0  0  0  0  0
    7.6420   -2.8670   23.5850 N   0  0  0  0  0  0  0  0  0  0  0  0
    7.0350   -1.6330   23.5040 C   0  0  0  0  0  0  0  0  0  0  0  0
    6.0060    0.2010   21.0690 C   0  0  2  0  0  0  0  0  0  0  0  0
    7.4010    0.2970   20.7640 O   0  0  0  0  0  0  0  0  0  0  0  0
  2  1  1  6
  2  3  1  0
  3  4  1  0
  4  5  1  1
  5  6  1  0
  6  7  1  0
  7  8  1  0
  8  9  1  0
  9 10  1  0
 10 11  1  0
 11 12  1  0
  8 13  1  0
 12 13  1  0
  6 14  2  0
 14 15  1  0
 15 16  2  0
  5 17  1  0
 16 17  1  0
 17 18  2  0
  4 19  1  0
 19 20  1  1
 20 21  1  0
 21 22  2  0
 22 23  1  0
 23 24  2  0
 24 25  1  0
 21 26  1  0
 25 26  2  0
  2 27  1  0
 19 27  1  0
 27 28  1  6
M  END
