MAK-UNK-2c1752f0-3
     RDKit          3D

  7  7  0  0  0  0  0  0  0  0999 V2000
    3.3250    2.7940   22.2170 Br  0  0  0  0  0  0  0  0  0  0  0  0
    4.2790    1.9080   20.8490 C   0  0  0  0  0  0  0  0  0  0  0  0
    5.4210    0.9830   21.1350 C   0  0  0  0  0  0  0  0  0  0  0  0
    6.2080    0.2660   20.0790 C   0  0  0  0  0  0  0  0  0  0  0  0
    5.7540    0.5510   18.6720 C   0  0  0  0  0  0  0  0  0  0  0  0
    4.6960    1.4100   18.4640 N   0  0  0  0  0  0  0  0  0  0  0  0
    3.9640    2.0810   19.5180 C   0  0  0  0  0  0  0  0  0  0  0  0
  1  2  1  0
  2  3  2  0
  3  4  1  0
  4  5  2  0
  5  6  1  0
  2  7  1  0
  6  7  2  0
M  END
