MAK-UNK-27459e11-4
     RDKit          3D

 15 15  0  0  0  0  0  0  0  0999 V2000
    6.0550   -5.6140   27.1160 N   0  0  0  0  0  0  0  0  0  0  0  0
    6.4710   -5.1850   25.9690 C   0  0  0  0  0  0  0  0  0  0  0  0
    5.8420   -5.3580   24.7590 N   0  0  0  0  0  0  0  0  0  0  0  0
    8.0470   -4.2400   25.8260 S   0  0  0  0  0  0  0  0  0  0  0  0
    9.0580   -5.2340   25.5360 O   0  0  0  0  0  0  0  0  0  0  0  0
    8.0940   -3.4250   27.0170 O   0  0  0  0  0  0  0  0  0  0  0  0
    7.8160   -3.2000   24.4860 N   0  0  0  0  0  0  0  0  0  0  0  0
    8.8560   -3.1970   23.4230 C   0  0  0  0  0  0  0  0  0  0  0  0
    9.1710   -1.7980   22.9680 C   0  0  0  0  0  0  0  0  0  0  0  0
   10.6010   -1.3100   22.7850 C   0  0  0  0  0  0  0  0  0  0  0  0
   10.8250    0.1690   23.3700 C   0  0  0  0  0  0  0  0  0  0  0  0
   12.1340    0.7540   23.2870 C   0  0  0  0  0  0  0  0  0  0  0  0
   12.9070   -0.1530   22.6920 C   0  0  0  0  0  0  0  0  0  0  0  0
   12.7410   -1.1840   22.2770 C   0  0  0  0  0  0  0  0  0  0  0  0
   11.6920   -2.0010   22.1870 C   0  0  0  0  0  0  0  0  0  0  0  0
  1  2  2  3
  2  3  1  0
  4  2  1  0
  4  5  2  0
  4  6  2  0
  4  7  1  0
  7  8  1  0
  8  9  1  0
  9 10  1  0
 10 11  2  0
 11 12  1  0
 12 13  2  0
 13 14  1  0
 10 15  1  0
 14 15  2  0
M  END
