MAK-UNK-de9577cf-9
     RDKit          3D

 37 40  0  0  0  0  0  0  0  0999 V2000
   13.5460    5.6830   21.9720 C   0  0  0  0  0  0  0  0  0  0  0  0
   12.9850    4.5290   22.6080 N   0  0  0  0  0  0  0  0  0  0  0  0
   11.7360    4.1120   21.9660 C   0  0  0  0  0  0  0  0  0  0  0  0
   11.1770    2.7370   22.2560 C   0  0  0  0  0  0  0  0  0  0  0  0
   12.0650    1.6180   22.5840 C   0  0  0  0  0  0  0  0  0  0  0  0
   11.4740    0.4030   22.7900 C   0  0  0  0  0  0  0  0  0  0  0  0
   12.2780   -0.8580   23.1620 C   0  0  0  0  0  0  0  0  0  0  0  0
   12.8770   -1.8540   22.2150 C   0  0  0  0  0  0  0  0  0  0  0  0
   12.8340   -1.8500   20.8810 F   0  0  0  0  0  0  0  0  0  0  0  0
   13.5860   -2.9240   22.9660 C   0  0  0  0  0  0  0  0  0  0  0  0
   13.6630   -3.0070   24.3270 C   0  0  0  0  0  0  0  0  0  0  0  0
   13.1560   -2.1200   25.0680 C   0  0  0  0  0  0  0  0  0  0  0  0
   12.5050   -1.0930   24.5760 C   0  0  0  0  0  0  0  0  0  0  0  0
   12.0550   -0.2430   25.1170 O   0  0  0  0  0  0  0  0  0  0  0  0
   12.4780    0.4500   23.9980 C   0  0  0  0  0  0  0  0  0  0  0  0
   13.3810    0.0740   23.2400 O   0  0  0  0  0  0  0  0  0  0  0  0
   11.7550    1.5920   23.8560 C   0  0  0  0  0  0  0  0  0  0  0  0
   10.4300    1.6380   24.2760 C   0  0  0  0  0  0  0  0  0  0  0  0
    9.6350    2.9220   24.1830 C   0  0  0  0  0  0  0  0  0  0  0  0
   10.3980    4.0000   23.6740 C   0  0  0  0  0  0  0  0  0  0  0  0
    9.6590    5.6070   23.6160 S   0  0  0  0  0  0  0  0  0  0  0  0
    8.4180    5.4420   22.5080 N   0  0  0  0  0  0  0  0  0  0  0  0
   10.6250    6.5390   23.0650 O   0  0  0  0  0  0  0  0  0  0  0  0
    9.1020    5.8350   24.9400 O   0  0  0  0  0  0  0  0  0  0  0  0
   11.7160    3.8910   23.2330 C   0  0  0  0  0  0  0  0  0  0  0  0
   12.3940    2.6920   23.3040 C   0  0  0  0  0  0  0  0  0  0  0  0
   10.0900    0.7140   22.5950 N   0  0  0  0  0  0  0  0  0  0  0  0
    8.7240   -0.3350   22.7040 S   0  0  0  0  0  0  0  0  0  0  0  0
    8.0040    0.0760   23.8950 O   0  0  0  0  0  0  0  0  0  0  0  0
    9.1650   -1.7020   22.5350 O   0  0  0  0  0  0  0  0  0  0  0  0
    7.7280    0.0960   21.3180 C   0  0  0  0  0  0  0  0  0  0  0  0
    7.6430   -0.7860   20.2500 C   0  0  0  0  0  0  0  0  0  0  0  0
    6.7730   -0.3650   19.0940 C   0  0  0  0  0  0  0  0  0  0  0  0
    6.1190    0.8590   19.1690 C   0  0  0  0  0  0  0  0  0  0  0  0
    6.2350    1.6860   20.2430 N   0  0  0  0  0  0  0  0  0  0  0  0
    7.0290    1.2960   21.2840 C   0  0  0  0  0  0  0  0  0  0  0  0
    9.9120    2.1000   22.2800 C   0  0  0  0  0  0  0  0  0  0  0  0
  1  2  1  0
  2  3  1  0
  3  4  1  0
  4  5  1  0
  5  6  2  0
  6  7  1  0
  7  8  2  0
  8  9  1  0
  8 10  1  0
 10 11  2  0
 11 12  1  0
  7 13  1  0
 12 13  2  0
 13 14  1  0
 14 15  1  0
 15 16  2  0
 15 17  1  0
 17 18  2  0
 18 19  1  0
 19 20  2  0
 20 21  1  0
 21 22  1  0
 21 23  2  0
 21 24  2  0
 20 25  1  0
 17 26  1  0
 25 26  2  0
  6 27  1  0
 27 28  1  0
 28 29  2  0
 28 30  2  0
 28 31  1  0
 31 32  2  0
 32 33  1  0
 33 34  2  0
 34 35  1  0
 31 36  1  0
 35 36  2  0
  4 37  2  0
 27 37  1  0
M  END
