MAK-UNK-129dcd6f-16
     RDKit          3D

 26 28  0  0  0  0  0  0  0  0999 V2000
    0.2320    4.4010   17.5110 C   0  0  0  0  0  0  0  0  0  0  0  0
    0.0600    3.6460   18.7750 C   0  0  0  0  0  0  0  0  0  0  0  0
   -1.1940    3.5700   19.4310 C   0  0  0  0  0  0  0  0  0  0  0  0
   -1.3820    2.7990   20.7020 C   0  0  0  0  0  0  0  0  0  0  0  0
   -0.3370    2.1360   21.2840 N   0  0  0  0  0  0  0  0  0  0  0  0
    0.9040    2.1600   20.7170 C   0  0  0  0  0  0  0  0  0  0  0  0
    1.2600    2.8860   19.4450 C   0  0  0  0  0  0  0  0  0  0  0  0
    2.5320    2.8700   18.9200 N   0  0  0  0  0  0  0  0  0  0  0  0
    3.3770    2.3190   19.7730 C   0  0  0  0  0  0  0  0  0  0  0  0
    3.2380    2.5040   20.9820 O   0  0  0  0  0  0  0  0  0  0  0  0
    4.5910    1.4630   19.4650 C   0  0  0  0  0  0  0  0  0  0  0  0
    5.1280    1.4100   18.0280 C   0  0  0  0  0  0  0  0  0  0  0  0
    6.3050    0.5700   17.8010 N   0  0  0  0  0  0  0  0  0  0  0  0
    6.9250   -0.1450   18.7990 C   0  0  0  0  0  0  0  0  0  0  0  0
    6.4720   -0.1410   20.2130 C   0  0  0  0  0  0  0  0  0  0  0  0
    7.1910   -0.8840   21.1110 N   0  0  0  0  0  0  0  0  0  0  0  0
    8.2570   -0.2050   21.5580 C   0  0  0  0  0  0  0  0  0  0  0  0
    8.4650    0.9670   21.2750 O   0  0  0  0  0  0  0  0  0  0  0  0
    9.0850   -0.9620   22.3480 N   0  0  0  0  0  0  0  0  0  0  0  0
   10.4010   -0.5530   22.5200 C   0  0  0  0  0  0  0  0  0  0  0  0
   10.7320    0.7480   22.8590 C   0  0  0  0  0  0  0  0  0  0  0  0
   12.0350    1.2100   23.0180 C   0  0  0  0  0  0  0  0  0  0  0  0
   13.1550    0.4290   22.8630 C   0  0  0  0  0  0  0  0  0  0  0  0
   12.9630   -1.0350   22.4970 C   0  0  0  0  0  0  0  0  0  0  0  0
   11.5360   -1.5510   22.3140 C   0  0  0  0  0  0  0  0  0  0  0  0
    5.2340    0.7270   20.4750 C   0  0  0  0  0  0  0  0  0  0  0  0
  1  2  1  0
  2  3  2  0
  3  4  1  0
  4  5  2  0
  5  6  1  0
  2  7  1  0
  6  7  2  0
  7  8  1  0
  8  9  1  0
  9 10  2  0
  9 11  1  0
 11 12  2  0
 12 13  1  0
 13 14  2  0
 14 15  1  0
 15 16  1  0
 16 17  1  0
 17 18  2  0
 17 19  1  0
 19 20  1  0
 20 21  2  0
 21 22  1  0
 22 23  2  0
 23 24  1  0
 20 25  1  0
 24 25  2  0
 11 26  1  0
 15 26  2  0
M  END
