MAK-UNK-2c1752f0-5
     RDKit          3D

 13 13  0  0  0  0  0  0  0  0999 V2000
    7.8190   -1.9130   21.2610 C   0  0  0  0  0  0  0  0  0  0  0  0
    6.9740   -3.0990   21.6480 C   0  0  0  0  0  0  0  0  0  0  0  0
    5.5590   -3.4080   20.5680 S   0  0  0  0  0  0  0  0  0  0  0  0
    5.7340   -4.6410   19.8400 O   0  0  0  0  0  0  0  0  0  0  0  0
    4.4710   -3.3920   21.4980 O   0  0  0  0  0  0  0  0  0  0  0  0
    5.3670   -2.1000   19.4550 N   0  0  0  0  0  0  0  0  0  0  0  0
    5.6930   -0.6990   19.8040 C   0  0  0  0  0  0  0  0  0  0  0  0
    7.1170   -0.2820   19.9900 C   0  0  0  0  0  0  0  0  0  0  0  0
    6.5450    0.8060   20.2440 C   0  0  0  0  0  0  0  0  0  0  0  0
    6.5380    2.0090   20.5690 C   0  0  0  0  0  0  0  0  0  0  0  0
    5.1690    1.9090   20.4410 C   0  0  0  0  0  0  0  0  0  0  0  0
    4.7510    0.5110   20.0470 C   0  0  0  0  0  0  0  0  0  0  0  0
    3.4450    0.3670   19.9210 F   0  0  0  0  0  0  0  0  0  0  0  0
  1  2  1  0
  2  3  1  0
  3  4  2  0
  3  5  2  0
  3  6  1  0
  6  7  1  0
  7  8  2  0
  8  9  1  0
  9 10  2  0
 10 11  1  0
  7 12  1  0
 11 12  2  0
 12 13  1  0
M  END
