MAK-UNK-0d6072ac-28
     RDKit          3D

 19 21  0  0  0  0  0  0  0  0999 V2000
   13.4560   -0.8150   21.6930 C   0  0  0  0  0  0  0  0  0  0  0  0
   13.0120   -2.0720   21.7690 C   0  0  2  0  0  0  0  0  0  0  0  0
   12.2580   -2.7030   20.8650 C   0  0  0  0  0  0  0  0  0  0  0  0
   12.7150   -3.4580   20.0490 O   0  0  0  0  0  0  0  0  0  0  0  0
   10.9410   -2.4630   20.9570 O   0  0  0  0  0  0  0  0  0  0  0  0
   12.3880   -2.0050   23.0070 C   0  0  0  0  0  0  0  0  0  0  0  0
   13.2780   -2.1320   24.1240 C   0  0  0  0  0  0  0  0  0  0  0  0
   12.5900   -2.0410   25.1490 C   0  0  0  0  0  0  0  0  0  0  0  0
   11.2350   -1.8620   24.9610 C   0  0  0  0  0  0  0  0  0  0  0  0
   10.4200   -1.7490   24.2820 C   0  0  0  0  0  0  0  0  0  0  0  0
   11.0220   -1.8190   23.0870 C   0  0  0  0  0  0  0  0  0  0  0  0
    9.3640   -1.6250   24.6860 N   0  0  0  0  0  0  0  0  0  0  0  0
    9.1220   -1.5700   23.5010 C   0  0  0  0  0  0  0  0  0  0  0  0
    7.8490   -1.4280   23.8750 C   0  0  0  0  0  0  0  0  0  0  0  0
    7.2750   -1.3000   22.7420 N   0  0  0  0  0  0  0  0  0  0  0  0
    8.4140   -1.4000   21.8350 C   0  0  0  0  0  0  0  0  0  0  0  0
    7.7940   -1.1830   20.2600 Cl  0  0  0  0  0  0  0  0  0  0  0  0
    9.9580   -1.6290   22.0750 N   0  0  0  0  0  0  0  0  0  0  0  0
   10.6900   -1.7550   23.3960 C   0  0  0  0  0  0  0  0  0  0  0  0
  2  1  1  6
  2  3  1  0
  3  4  2  0
  3  5  1  0
  2  6  1  0
  6  7  2  0
  7  8  1  0
  8  9  2  0
  9 10  1  0
  6 11  1  0
 10 11  2  0
 10 12  1  0
 12 13  1  0
 13 14  1  0
 14 15  2  0
 15 16  1  0
 16 17  1  0
 16 18  2  0
  9 19  1  0
 13 19  2  0
 18 19  1  0
M  END
