MAK-UNK-31051d4e-5
     RDKit          3D

 25 27  0  0  0  0  0  0  0  0999 V2000
    6.8610   -3.7040   26.9980 O   0  0  0  0  0  0  0  0  0  0  0  0
    6.4740   -2.9860   25.8210 S   0  0  0  0  0  0  0  0  0  0  0  0
    6.3410   -1.5760   25.9760 O   0  0  0  0  0  0  0  0  0  0  0  0
    7.4420   -3.2650   24.4480 N   0  0  0  0  0  0  0  0  0  0  0  0
    8.6270   -2.5640   24.3000 C   0  0  0  0  0  0  0  0  0  0  0  0
    8.9080   -1.8910   22.9900 C   0  0  0  0  0  0  0  0  0  0  0  0
   10.3400   -1.3200   22.9220 C   0  0  0  0  0  0  0  0  0  0  0  0
   10.5500    0.1670   23.1400 C   0  0  0  0  0  0  0  0  0  0  0  0
   11.9290    0.7210   23.0650 C   0  0  0  0  0  0  0  0  0  0  0  0
   13.0530   -0.2180   22.7850 C   0  0  0  0  0  0  0  0  0  0  0  0
   12.7870   -1.5810   22.5970 C   0  0  0  0  0  0  0  0  0  0  0  0
   11.4720   -2.1090   22.6640 C   0  0  0  0  0  0  0  0  0  0  0  0
    4.8620   -3.8280   25.4100 C   0  0  2  0  0  0  0  0  0  0  0  0
    3.8360   -2.8070   25.1250 C   0  0  0  0  0  0  0  0  0  0  0  0
    2.9510   -2.4140   26.1110 C   0  0  1  0  0  0  0  0  0  0  0  0
    1.8730   -1.6950   25.5220 O   0  0  0  0  0  0  0  0  0  0  0  0
    2.4240   -3.4400   26.8570 C   0  0  0  0  0  0  0  0  0  0  0  0
    3.0680   -4.7840   26.7160 C   0  0  0  0  0  0  0  0  0  0  0  0
    4.4760   -4.7420   26.3410 N   0  0  0  0  0  0  0  0  0  0  0  0
    5.2510   -5.9860   26.4510 C   0  0  0  0  0  0  0  0  0  0  0  0
    5.2460   -6.5240   27.7370 C   0  0  0  0  0  0  0  0  0  0  0  0
    4.2240   -7.3490   28.2120 C   0  0  0  0  0  0  0  0  0  0  0  0
    4.3780   -7.7950   29.5120 C   0  0  0  0  0  0  0  0  0  0  0  0
    5.8250   -7.1880   30.1790 S   0  0  0  0  0  0  0  0  0  0  0  0
    6.2030   -6.3510   28.7290 C   0  0  0  0  0  0  0  0  0  0  0  0
  1  2  2  0
  2  3  2  0
  2  4  1  0
  4  5  1  0
  5  6  1  0
  6  7  1  0
  7  8  2  0
  8  9  1  0
  9 10  2  0
 10 11  1  0
  7 12  1  0
 11 12  2  0
 13  2  1  1
 13 14  1  0
 14 15  1  0
 15 16  1  6
 15 17  1  0
 17 18  1  0
 13 19  1  0
 18 19  1  0
 19 20  1  0
 20 21  1  0
 21 22  1  0
 22 23  2  0
 23 24  1  0
 21 25  2  0
 24 25  1  0
M  END
