MAK-UNK-a7992eb3-15
     RDKit          3D

 19 21  0  0  0  0  0  0  0  0999 V2000
    0.5020   -4.3330   27.4350 O   0  0  0  0  0  0  0  0  0  0  0  0
    1.3280   -3.3030   26.8380 S   0  0  0  0  0  0  0  0  0  0  0  0
    0.9700   -1.9030   26.7900 O   0  0  0  0  0  0  0  0  0  0  0  0
    3.0280   -3.5450   27.1810 C   0  0  0  0  0  0  0  0  0  0  0  0
    3.1660   -4.3430   25.8440 C   0  0  0  0  0  0  0  0  0  0  0  0
    4.3850   -4.0840   25.1050 O   0  0  0  0  0  0  0  0  0  0  0  0
    5.0140   -5.1310   24.4730 C   0  0  0  0  0  0  0  0  0  0  0  0
    6.3910   -5.0820   24.2670 C   0  0  0  0  0  0  0  0  0  0  0  0
    7.3070   -5.1540   23.2340 C   0  0  0  0  0  0  0  0  0  0  0  0
    6.5620   -4.8290   22.0430 N   0  0  0  0  0  0  0  0  0  0  0  0
    6.3660   -3.4670   21.7960 C   0  0  0  0  0  0  0  0  0  0  0  0
    7.4250   -2.6020   22.1400 C   0  0  0  0  0  0  0  0  0  0  0  0
    8.0340   -2.6070   23.4030 C   0  0  0  0  0  0  0  0  0  0  0  0
    9.1380   -1.6220   23.5580 C   0  0  0  0  0  0  0  0  0  0  0  0
    9.3250   -0.7560   22.1050 S   0  0  0  0  0  0  0  0  0  0  0  0
    8.0390   -1.6280   21.3410 C   0  0  0  0  0  0  0  0  0  0  0  0
    5.3630   -5.5100   22.0950 C   0  0  0  0  0  0  0  0  0  0  0  0
    4.3600   -5.2920   23.0720 C   0  0  0  0  0  0  0  0  0  0  0  0
    2.0050   -3.7980   25.2610 C   0  0  0  0  0  0  0  0  0  0  0  0
  1  2  2  0
  2  3  2  0
  2  4  1  0
  4  5  1  0
  5  6  1  0
  6  7  1  0
  7  8  1  0
  8  9  1  0
  9 10  1  0
 10 11  1  0
 11 12  1  0
 12 13  1  0
 13 14  2  0
 14 15  1  0
 12 16  2  0
 15 16  1  0
 10 17  1  0
  7 18  1  0
 17 18  1  0
  2 19  1  0
  5 19  1  0
M  END
