MAK-UNK-ae34c249-8
     RDKit          3D

 29 32  0  0  0  0  0  0  0  0999 V2000
    8.7520    1.6600   20.9630 O   0  0  0  0  0  0  0  0  0  0  0  0
    8.3430    0.6850   21.5750 C   0  0  0  0  0  0  0  0  0  0  0  0
    7.2900   -0.1820   21.0910 N   0  0  0  0  0  0  0  0  0  0  0  0
    6.5230    0.3360   20.1360 C   0  0  0  0  0  0  0  0  0  0  0  0
    5.4030    1.0450   20.3560 C   0  0  0  0  0  0  0  0  0  0  0  0
    4.6070    1.6350   19.2210 C   0  0  0  0  0  0  0  0  0  0  0  0
    5.1110    1.4110   17.8060 C   0  0  0  0  0  0  0  0  0  0  0  0
    6.3130    0.6170   17.7430 N   0  0  0  0  0  0  0  0  0  0  0  0
    6.9700    0.1120   18.8250 C   0  0  0  0  0  0  0  0  0  0  0  0
    8.8190    0.3050   22.7820 N   0  0  0  0  0  0  0  0  0  0  0  0
   10.1780   -0.1260   23.0050 C   0  0  0  0  0  0  0  0  0  0  0  0
   11.3270    0.8560   23.0360 C   0  0  0  0  0  0  0  0  0  0  0  0
   12.6440    0.5970   23.2300 C   0  0  0  0  0  0  0  0  0  0  0  0
   12.9500   -0.9250   23.4440 C   0  0  0  0  0  0  0  0  0  0  0  0
   11.8870   -1.8530   23.4120 C   0  0  0  0  0  0  0  0  0  0  0  0
   10.4400   -1.4280   23.1830 C   0  0  0  0  0  0  0  0  0  0  0  0
    9.2420   -2.1260   23.0990 C   0  0  0  0  0  0  0  0  0  0  0  0
    9.0060   -2.8600   21.8230 N   0  0  0  0  0  0  0  0  0  0  0  0
    8.0950   -2.8690   22.6470 N   0  0  0  0  0  0  0  0  0  0  0  0
    7.0130   -3.1070   23.1160 C   0  0  0  0  0  0  0  0  0  0  0  0
    5.7830   -3.7160   22.8700 C   0  0  0  0  0  0  0  0  0  0  0  0
    4.9880   -4.0730   24.0580 N   0  0  0  0  0  0  0  0  0  0  0  0
    3.7910   -4.8720   23.7450 C   0  0  0  0  0  0  0  0  0  0  0  0
    4.1790   -6.1620   23.3280 C   0  0  0  0  0  0  0  0  0  0  0  0
    5.5360   -6.4090   23.1660 C   0  0  0  0  0  0  0  0  0  0  0  0
    6.5000   -5.7600   23.9690 C   0  0  0  0  0  0  0  0  0  0  0  0
    7.8190   -5.9610   23.8530 F   0  0  0  0  0  0  0  0  0  0  0  0
    5.8560   -4.8130   24.9560 C   0  0  0  0  0  0  0  0  0  0  0  0
    7.8400   -2.2120   24.3320 S   0  0  0  0  0  0  0  0  0  0  0  0
  1  2  2  0
  2  3  1  0
  3  4  1  0
  4  5  2  0
  5  6  1  0
  6  7  2  0
  7  8  1  0
  4  9  1  0
  8  9  2  0
  2 10  1  0
 10 11  1  0
 11 12  2  0
 12 13  1  0
 13 14  2  0
 14 15  1  0
 11 16  1  0
 15 16  2  0
 16 17  1  0
 17 18  2  0
 18 19  1  0
 19 20  2  0
 20 21  1  0
 21 22  1  0
 22 23  1  0
 23 24  1  0
 24 25  1  0
 25 26  2  0
 26 27  1  0
 22 28  1  0
 26 28  1  0
 17 29  1  0
 20 29  1  0
M  END
