MAK-UNK-9955b1f3-15
     RDKit          3D

 15 16  0  0  0  0  0  0  0  0999 V2000
    6.2010    0.6000   26.3750 N   0  0  0  0  0  0  0  0  0  0  0  0
    5.6810    1.0710   25.0650 C   0  0  0  0  0  0  0  0  0  0  0  0
    4.3850    1.7560   24.8340 C   0  0  0  0  0  0  0  0  0  0  0  0
    4.2220    2.0490   23.5630 N   0  0  0  0  0  0  0  0  0  0  0  0
    5.3780    1.5620   22.9650 C   0  0  0  0  0  0  0  0  0  0  0  0
    5.5570    1.6620   21.7120 O   0  0  0  0  0  0  0  0  0  0  0  0
    6.3580    0.9270   23.8840 N   0  0  0  0  0  0  0  0  0  0  0  0
    7.8210    1.0440   23.6770 C   0  0  0  0  0  0  0  0  0  0  0  0
    8.6050    0.1730   24.5000 N   0  0  0  0  0  0  0  0  0  0  0  0
    9.7530    0.4920   25.1160 C   0  0  0  0  0  0  0  0  0  0  0  0
   10.9150   -0.0710   24.6250 C   0  0  0  0  0  0  0  0  0  0  0  0
   11.1020    0.1540   23.2580 C   0  0  0  0  0  0  0  0  0  0  0  0
   10.4450   -0.6620   22.5860 O   0  0  0  0  0  0  0  0  0  0  0  0
    9.7040   -1.6670   23.3100 C   0  0  0  0  0  0  0  0  0  0  0  0
    8.5120   -1.1250   24.1190 C   0  0  0  0  0  0  0  0  0  0  0  0
  1  2  1  0
  2  3  2  0
  3  4  1  0
  4  5  1  0
  5  6  2  0
  2  7  1  0
  5  7  1  0
  7  8  1  0
  8  9  1  0
  9 10  1  0
 10 11  1  0
 11 12  1  0
 12 13  1  0
 13 14  1  0
  9 15  1  0
 14 15  1  0
M  END
