MAK-UNK-198e6d85-10
     RDKit          3D

 22 24  0  0  0  0  0  0  0  0999 V2000
   13.9380   -2.7660   23.9400 N   0  0  0  0  0  0  0  0  0  0  0  0
   12.8240   -2.3710   24.8290 C   0  0  0  0  0  0  0  0  0  0  0  0
   11.6110   -2.1460   24.1600 C   0  0  1  0  0  0  0  0  0  0  0  0
   10.4690   -2.8560   24.3640 O   0  0  0  0  0  0  0  0  0  0  0  0
    9.4750   -2.9220   23.2160 C   0  0  1  0  0  0  0  0  0  0  0  0
    8.2770   -3.7360   23.1670 C   0  0  1  0  0  0  0  0  0  0  0  0
    7.7270   -4.5030   24.0950 C   0  0  0  0  0  0  0  0  0  0  0  0
    6.7290   -5.5040   23.6400 C   0  0  0  0  0  0  0  0  0  0  0  0
    5.9510   -5.1980   22.5070 C   0  0  0  0  0  0  0  0  0  0  0  0
    6.5210   -4.3410   21.5720 C   0  0  1  0  0  0  0  0  0  0  0  0
    5.8320   -3.8960   20.4430 C   0  0  0  0  0  0  0  0  0  0  0  0
    6.0980   -2.7350   20.1220 O   0  0  0  0  0  0  0  0  0  0  0  0
    7.1790   -3.1630   22.2980 C   0  0  0  0  0  0  0  0  0  0  0  0
    9.2950   -1.4970   23.1440 C   0  0  0  0  0  0  0  0  0  0  0  0
   10.5380   -1.5920   23.6390 C   0  0  0  0  0  0  0  0  0  0  0  0
   11.5040   -0.7920   23.6530 C   0  0  0  0  0  0  0  0  0  0  0  0
   12.8030   -0.6330   24.0520 C   0  0  0  0  0  0  0  0  0  0  0  0
   13.2270   -1.7620   24.7060 C   0  0  0  0  0  0  0  0  0  0  0  0
   12.3630   -2.8260   24.8640 C   0  0  0  0  0  0  0  0  0  0  0  0
   12.8070   -3.7750   25.4680 O   0  0  0  0  0  0  0  0  0  0  0  0
   11.0260   -2.7710   24.3340 C   0  0  0  0  0  0  0  0  0  0  0  0
   10.2680   -3.8930   24.5460 O   0  0  0  0  0  0  0  0  0  0  0  0
  1  2  1  0
  3  2  1  1
  3  4  1  0
  4  5  1  0
  5  6  1  0
  6  7  1  1
  7  8  1  0
  8  9  1  0
  9 10  1  0
 10 11  1  6
 11 12  2  0
  6 13  1  0
 10 13  1  0
  5 14  1  1
 14 15  1  0
  3 16  1  0
 15 16  2  0
 16 17  1  0
 17 18  2  0
 18 19  1  0
 19 20  1  0
 15 21  1  0
 19 21  2  0
 21 22  1  0
M  END
