MAK-UNK-9e4a73aa-24
     RDKit          3D

 26 29  0  0  0  0  0  0  0  0999 V2000
    6.3150    0.3220   24.3880 O   0  0  0  0  0  0  0  0  0  0  0  0
    7.3930   -0.0790   23.9730 C   0  0  0  0  0  0  0  0  0  0  0  0
    8.4940    0.8750   23.5600 C   0  0  0  0  0  0  0  0  0  0  0  0
    8.1880    2.3530   23.5110 C   0  0  0  0  0  0  0  0  0  0  0  0
    9.3060    3.2860   23.1190 C   0  0  0  0  0  0  0  0  0  0  0  0
    9.0390    4.5980   23.0840 F   0  0  0  0  0  0  0  0  0  0  0  0
   10.5870    2.8230   22.8020 C   0  0  0  0  0  0  0  0  0  0  0  0
   11.8270    3.9340   22.3670 Cl  0  0  0  0  0  0  0  0  0  0  0  0
   10.9260    1.3330   22.8360 C   0  0  0  0  0  0  0  0  0  0  0  0
    9.7880    0.4010   23.2400 C   0  0  0  0  0  0  0  0  0  0  0  0
   10.0140   -1.0070   23.3240 N   0  0  0  0  0  0  0  0  0  0  0  0
   11.2410   -1.5840   23.3710 C   0  0  0  0  0  0  0  0  0  0  0  0
   11.7870   -1.9370   22.1440 C   0  0  0  0  0  0  0  0  0  0  0  0
   13.0250   -2.5460   22.1010 C   0  0  0  0  0  0  0  0  0  0  0  0
   13.7060   -2.7980   23.2990 C   0  0  0  0  0  0  0  0  0  0  0  0
   13.1310   -2.4170   24.6060 C   0  0  0  0  0  0  0  0  0  0  0  0
   11.8990   -1.8150   24.5790 C   0  0  0  0  0  0  0  0  0  0  0  0
    9.0150   -1.9040   23.7250 C   0  0  0  0  0  0  0  0  0  0  0  0
    9.2750   -3.0810   23.9480 O   0  0  0  0  0  0  0  0  0  0  0  0
    7.7060   -1.4490   23.8590 N   0  0  0  0  0  0  0  0  0  0  0  0
    6.8330   -2.1570   22.9900 C   0  0  0  0  0  0  0  0  0  0  0  0
    7.5830   -1.1860   22.2460 C   0  0  0  0  0  0  0  0  0  0  0  0
    7.6190   -0.8180   20.9230 C   0  0  0  0  0  0  0  0  0  0  0  0
    6.8160   -1.4270   20.0530 C   0  0  0  0  0  0  0  0  0  0  0  0
    6.0220   -2.3690   20.4800 N   0  0  0  0  0  0  0  0  0  0  0  0
    6.0840   -2.6740   21.9000 C   0  0  0  0  0  0  0  0  0  0  0  0
  1  2  2  0
  2  3  1  0
  3  4  2  0
  4  5  1  0
  5  6  1  0
  5  7  2  0
  7  8  1  0
  7  9  1  0
  3 10  1  0
  9 10  2  0
 10 11  1  0
 11 12  1  0
 12 13  2  0
 13 14  1  0
 14 15  2  0
 15 16  1  0
 12 17  1  0
 16 17  2  0
 11 18  1  0
 18 19  2  0
  2 20  1  0
 18 20  1  0
 20 21  1  0
 21 22  2  0
 22 23  1  0
 23 24  2  0
 24 25  1  0
 21 26  1  0
 25 26  2  0
M  END
