MAK-UNK-8145c7a0-13
     RDKit          3D

 26 28  0  0  0  0  0  0  0  0999 V2000
    6.6310   -6.0970   22.1110 C   0  0  0  0  0  0  0  0  0  0  0  0
    5.5620   -4.7610   21.6080 S   0  0  0  0  0  0  0  0  0  0  0  0
    6.1240   -3.5190   22.0770 O   0  0  0  0  0  0  0  0  0  0  0  0
    5.2030   -4.9190   20.2040 O   0  0  0  0  0  0  0  0  0  0  0  0
    4.2100   -4.9980   22.6230 N   0  0  0  0  0  0  0  0  0  0  0  0
    3.6600   -6.3730   22.7440 C   0  0  0  0  0  0  0  0  0  0  0  0
    3.8880   -7.0540   24.0900 C   0  0  0  0  0  0  0  0  0  0  0  0
    4.5220   -6.1590   25.0890 C   0  0  0  0  0  0  0  0  0  0  0  0
    4.2000   -6.2950   26.4410 C   0  0  0  0  0  0  0  0  0  0  0  0
    4.7880   -5.4550   27.3730 C   0  0  0  0  0  0  0  0  0  0  0  0
    5.6920   -4.4830   26.9460 C   0  0  0  0  0  0  0  0  0  0  0  0
    6.0220   -4.3440   25.5860 C   0  0  0  0  0  0  0  0  0  0  0  0
    6.9710   -3.3390   25.1490 C   0  0  0  0  0  0  0  0  0  0  0  0
    6.9540   -2.1410   25.6510 N   0  0  0  0  0  0  0  0  0  0  0  0
    7.9930   -1.4040   25.1990 N   0  0  0  0  0  0  0  0  0  0  0  0
    8.7570   -2.0710   24.3850 C   0  0  0  0  0  0  0  0  0  0  0  0
   10.0360   -1.5560   23.8730 C   0  0  0  0  0  0  0  0  0  0  0  0
   10.1940   -1.0310   22.5690 N   0  0  0  0  0  0  0  0  0  0  0  0
   10.6500    0.3520   22.7800 C   0  0  0  0  0  0  0  0  0  0  0  0
   12.1210    0.4860   23.2210 C   0  0  0  0  0  0  0  0  0  0  0  0
   13.0410   -0.2470   22.3770 C   0  0  0  0  0  0  0  0  0  0  0  0
   12.6340   -1.3720   21.8300 C   0  0  0  0  0  0  0  0  0  0  0  0
   13.4790   -2.0340   21.0470 F   0  0  0  0  0  0  0  0  0  0  0  0
   11.2590   -1.9250   22.0400 C   0  0  0  0  0  0  0  0  0  0  0  0
    8.2330   -3.6390   23.9960 S   0  0  0  0  0  0  0  0  0  0  0  0
    5.4310   -5.1900   24.6820 C   0  0  0  0  0  0  0  0  0  0  0  0
  1  2  1  0
  2  3  2  0
  2  4  2  0
  2  5  1  0
  5  6  1  0
  6  7  1  0
  7  8  1  0
  8  9  2  0
  9 10  1  0
 10 11  2  0
 11 12  1  0
 12 13  1  0
 13 14  2  0
 14 15  1  0
 15 16  2  0
 16 17  1  0
 17 18  1  0
 18 19  1  0
 19 20  1  0
 20 21  1  0
 21 22  2  0
 22 23  1  0
 18 24  1  0
 22 24  1  0
 13 25  1  0
 16 25  1  0
  8 26  1  0
 12 26  2  0
M  END
