MAK-UNK-b1d4dcd7-5
     RDKit          3D

 28 31  0  0  0  0  0  0  0  0999 V2000
    5.7500   -3.6640   19.9370 O   0  0  0  0  0  0  0  0  0  0  0  0
    6.3260   -2.5730   20.2490 C   0  0  0  0  0  0  0  0  0  0  0  0
    6.3170   -1.5280   19.4090 C   0  0  1  0  0  0  0  0  0  0  0  0
    4.9930   -1.1160   19.2500 C   0  0  2  0  0  0  0  0  0  0  0  0
    4.3720   -2.1100   18.9740 O   0  0  0  0  0  0  0  0  0  0  0  0
    4.9570   -0.0990   18.0970 C   0  0  0  0  0  0  0  0  0  0  0  0
    5.6100    1.0450   18.4620 C   0  0  0  0  0  0  0  0  0  0  0  0
    6.8810    0.7290   18.9380 C   0  0  0  0  0  0  0  0  0  0  0  0
    6.7740   -0.2740   19.9840 N   0  0  0  0  0  0  0  0  0  0  0  0
    6.2060    0.2720   21.2270 C   0  0  0  0  0  0  0  0  0  0  0  0
    6.6940    1.6870   21.5620 C   0  0  0  0  0  0  0  0  0  0  0  0
    8.1970    1.8110   21.7270 C   0  0  0  0  0  0  0  0  0  0  0  0
    8.6780    3.2080   22.0470 C   0  0  0  0  0  0  0  0  0  0  0  0
    7.7550    4.2630   22.1680 C   0  0  0  0  0  0  0  0  0  0  0  0
    6.3790    4.0410   21.9970 C   0  0  0  0  0  0  0  0  0  0  0  0
    5.8460    2.7870   21.7000 C   0  0  0  0  0  0  0  0  0  0  0  0
    7.0080   -2.3120   21.3830 N   0  0  0  0  0  0  0  0  0  0  0  0
    8.1280   -1.5600   21.3180 C   0  0  0  0  0  0  0  0  0  0  0  0
    9.3540   -2.2030   21.7690 C   0  0  0  0  0  0  0  0  0  0  0  0
    9.2630   -2.8930   22.9010 N   0  0  0  0  0  0  0  0  0  0  0  0
   10.0440   -2.4940   23.9020 C   0  0  0  0  0  0  0  0  0  0  0  0
   10.8900   -1.4570   23.5490 C   0  0  0  0  0  0  0  0  0  0  0  0
   12.3850   -1.5270   23.3420 C   0  0  0  0  0  0  0  0  0  0  0  0
   12.9140   -0.3100   23.0060 C   0  0  0  0  0  0  0  0  0  0  0  0
   12.0040    0.7280   22.9200 C   0  0  0  0  0  0  0  0  0  0  0  0
   10.4030    0.1660   23.2680 S   0  0  0  0  0  0  0  0  0  0  0  0
    7.9770   -3.5410   23.2190 C   0  0  0  0  0  0  0  0  0  0  0  0
    6.8020   -2.9820   22.6700 C   0  0  0  0  0  0  0  0  0  0  0  0
  1  2  2  0
  3  2  1  1
  3  4  1  0
  4  5  1  6
  4  6  1  0
  6  7  1  0
  7  8  1  0
  3  9  1  0
  8  9  1  0
  9 10  1  0
 10 11  1  0
 11 12  2  0
 12 13  1  0
 13 14  2  0
 14 15  1  0
 11 16  1  0
 15 16  2  0
  2 17  1  0
 17 18  1  0
 18 19  1  0
 19 20  1  0
 20 21  1  0
 21 22  1  0
 22 23  2  0
 23 24  1  0
 24 25  2  0
 22 26  1  0
 25 26  1  0
 20 27  1  0
 17 28  1  0
 27 28  1  0
M  END
