MAK-UNK-194150d3-4
     RDKit          3D

 22 23  0  0  0  0  0  0  0  0999 V2000
    2.2470    5.9140   22.0970 C   0  0  0  0  0  0  0  0  0  0  0  0
    2.0280    4.5080   22.0680 N   0  0  0  0  0  0  0  0  0  0  0  0
    2.7790    3.8960   23.1790 C   0  0  0  0  0  0  0  0  0  0  0  0
    3.9410    3.3600   22.6100 C   0  0  1  0  0  0  0  0  0  0  0  0
    4.3190    2.2360   22.8940 O   0  0  0  0  0  0  0  0  0  0  0  0
    3.7900    3.3840   21.2530 C   0  0  1  0  0  0  0  0  0  0  0  0
    3.8910    2.0320   20.5950 C   0  0  0  0  0  0  0  0  0  0  0  0
    4.5880    2.1900   18.9130 S   0  0  0  0  0  0  0  0  0  0  0  0
    5.0910    0.4930   18.4930 C   0  0  0  0  0  0  0  0  0  0  0  0
    6.4670    0.3560   18.3250 C   0  0  0  0  0  0  0  0  0  0  0  0
    7.3160    0.6050   19.3750 O   0  0  0  0  0  0  0  0  0  0  0  0
    6.8500    0.6350   20.6620 C   0  0  0  0  0  0  0  0  0  0  0  0
    7.5470   -0.3030   21.5280 N   0  0  0  0  0  0  0  0  0  0  0  0
    8.9160   -0.2620   21.7600 C   0  0  0  0  0  0  0  0  0  0  0  0
    9.3350   -0.7120   23.0130 C   0  0  0  0  0  0  0  0  0  0  0  0
   10.6580   -1.1200   23.1710 C   0  0  0  0  0  0  0  0  0  0  0  0
   11.4410   -1.3830   22.0700 C   0  0  0  0  0  0  0  0  0  0  0  0
   12.7570   -1.7820   22.2000 C   0  0  0  0  0  0  0  0  0  0  0  0
   13.2740   -1.9160   23.4770 C   0  0  0  0  0  0  0  0  0  0  0  0
   12.5140   -1.6650   24.5850 C   0  0  0  0  0  0  0  0  0  0  0  0
   11.1890   -1.2690   24.4340 C   0  0  0  0  0  0  0  0  0  0  0  0
    2.5540    3.9200   20.8150 C   0  0  0  0  0  0  0  0  0  0  0  0
  1  2  1  0
  2  3  1  0
  3  4  1  0
  4  5  1  1
  4  6  1  0
  6  7  1  1
  7  8  1  0
  8  9  1  0
  9 10  1  0
 10 11  1  0
 11 12  1  0
 12 13  1  0
 13 14  1  0
 14 15  1  0
 15 16  1  0
 16 17  2  0
 17 18  1  0
 18 19  2  0
 19 20  1  0
 16 21  1  0
 20 21  2  0
  2 22  1  0
  6 22  1  0
M  END
