MAK-UNK-de8f6d00-6
     RDKit          3D

 34 38  0  0  0  0  0  0  0  0999 V2000
   15.3110   -1.7730   27.0610 O   0  0  0  0  0  0  0  0  0  0  0  0
   15.6570   -2.1670   26.1700 C   0  0  0  0  0  0  0  0  0  0  0  0
   17.1200   -2.2740   25.7230 N   0  0  0  0  0  0  0  0  0  0  0  0
   18.5140   -1.4660   25.4180 C   0  0  0  0  0  0  0  0  0  0  0  0
   19.4580   -0.8790   26.3530 C   0  0  0  0  0  0  0  0  0  0  0  0
   20.6440   -0.2420   25.9750 C   0  0  0  0  0  0  0  0  0  0  0  0
   21.0540   -0.1060   24.6560 C   0  0  0  0  0  0  0  0  0  0  0  0
   20.2020   -0.6650   23.5860 C   0  0  0  0  0  0  0  0  0  0  0  0
   18.9190   -1.3440   24.0610 C   0  0  0  0  0  0  0  0  0  0  0  0
   14.6790   -2.6770   25.1950 N   0  0  0  0  0  0  0  0  0  0  0  0
   13.2010   -2.8570   25.2480 C   0  0  0  0  0  0  0  0  0  0  0  0
   12.8510   -3.8920   26.1630 C   0  0  0  0  0  0  0  0  0  0  0  0
   11.5590   -4.3010   26.3850 N   0  0  0  0  0  0  0  0  0  0  0  0
   10.5130   -3.7480   25.7660 C   0  0  0  0  0  0  0  0  0  0  0  0
   10.7740   -2.7080   24.8600 C   0  0  0  0  0  0  0  0  0  0  0  0
   12.0850   -2.2240   24.5590 C   0  0  0  0  0  0  0  0  0  0  0  0
   12.0970   -1.2110   23.6160 N   0  0  0  0  0  0  0  0  0  0  0  0
   11.5130   -1.6260   22.3560 C   0  0  0  0  0  0  0  0  0  0  0  0
   10.1530   -1.6120   22.3510 C   0  0  0  0  0  0  0  0  0  0  0  0
    9.9060   -0.2100   22.3240 N   0  0  0  0  0  0  0  0  0  0  0  0
    8.6220    0.2190   21.7050 C   0  0  0  0  0  0  0  0  0  0  0  0
    8.3950    1.4060   21.5590 O   0  0  0  0  0  0  0  0  0  0  0  0
    7.7190   -0.7840   21.2620 C   0  0  0  0  0  0  0  0  0  0  0  0
    6.9750   -0.4010   20.1280 C   0  0  0  0  0  0  0  0  0  0  0  0
    7.0900   -0.7870   18.7030 C   0  0  0  0  0  0  0  0  0  0  0  0
    6.1380   -0.0910   18.0160 N   0  0  0  0  0  0  0  0  0  0  0  0
    5.3840    0.7060   18.8690 C   0  0  0  0  0  0  0  0  0  0  0  0
    4.3770    1.4870   18.4640 N   0  0  0  0  0  0  0  0  0  0  0  0
    3.7710    2.1690   19.4650 C   0  0  0  0  0  0  0  0  0  0  0  0
    4.1130    2.1190   20.8120 C   0  0  0  0  0  0  0  0  0  0  0  0
    5.1650    1.3040   21.1640 C   0  0  0  0  0  0  0  0  0  0  0  0
    5.8290    0.5720   20.2040 C   0  0  0  0  0  0  0  0  0  0  0  0
   10.3730    0.5390   23.5410 C   0  0  0  0  0  0  0  0  0  0  0  0
   11.7080    0.1980   23.9390 C   0  0  0  0  0  0  0  0  0  0  0  0
  1  2  2  0
  2  3  1  0
  3  4  1  0
  4  5  2  0
  5  6  1  0
  6  7  2  0
  7  8  1  0
  4  9  1  0
  8  9  2  0
  2 10  1  0
 10 11  1  0
 11 12  2  0
 12 13  1  0
 13 14  2  0
 14 15  1  0
 11 16  1  0
 15 16  2  0
 16 17  1  0
 17 18  1  0
 18 19  1  0
 19 20  1  0
 20 21  1  0
 21 22  2  0
 21 23  1  0
 23 24  1  0
 24 25  2  0
 25 26  1  0
 26 27  1  0
 27 28  1  0
 28 29  2  0
 29 30  1  0
 30 31  2  0
 24 32  1  0
 27 32  2  0
 31 32  1  0
 20 33  1  0
 17 34  1  0
 33 34  1  0
M  END
