MAK-UNK-194150d3-7
     RDKit          3D

 24 26  0  0  0  0  0  0  0  0999 V2000
    5.7560    3.5090   21.7290 O   0  0  0  0  0  0  0  0  0  0  0  0
    5.4100    2.7670   20.8140 C   0  0  0  0  0  0  0  0  0  0  0  0
    6.2670    1.8610   20.1820 N   0  0  0  0  0  0  0  0  0  0  0  0
    6.2940    0.5630   20.8910 C   0  0  2  0  0  0  0  0  0  0  0  0
    7.6690   -0.0480   20.8230 N   0  0  0  0  0  0  0  0  0  0  0  0
    8.7160    0.3890   21.7700 C   0  0  0  0  0  0  0  0  0  0  0  0
    9.0470   -0.3960   22.8890 C   0  0  0  0  0  0  0  0  0  0  0  0
   10.3940   -0.6740   23.1960 C   0  0  0  0  0  0  0  0  0  0  0  0
   11.2110   -1.3290   22.2600 C   0  0  0  0  0  0  0  0  0  0  0  0
   12.5450   -1.6700   22.4490 C   0  0  0  0  0  0  0  0  0  0  0  0
   13.0980   -1.3230   23.6770 C   0  0  0  0  0  0  0  0  0  0  0  0
   12.3010   -0.6180   24.7310 C   0  0  0  0  0  0  0  0  0  0  0  0
   10.9710   -0.3190   24.4510 C   0  0  0  0  0  0  0  0  0  0  0  0
    5.2070   -0.2790   20.4920 C   0  0  0  0  0  0  0  0  0  0  0  0
    5.5120    0.1580   19.2730 C   0  0  0  0  0  0  0  0  0  0  0  0
    6.5530    1.0490   19.0190 C   0  0  0  0  0  0  0  0  0  0  0  0
    6.9760    1.1840   20.4700 C   0  0  0  0  0  0  0  0  0  0  0  0
    6.5200    0.6150   21.7810 C   0  0  0  0  0  0  0  0  0  0  0  0
    5.4620   -0.2580   21.7460 C   0  0  0  0  0  0  0  0  0  0  0  0
    3.9940    2.7780   20.2910 C   0  0  0  0  0  0  0  0  0  0  0  0
    3.3400    2.5380   21.4620 C   0  0  0  0  0  0  0  0  0  0  0  0
    2.2460    2.4290   21.7380 C   0  0  0  0  0  0  0  0  0  0  0  0
    1.5950    2.6100   20.4520 C   0  0  0  0  0  0  0  0  0  0  0  0
    2.7400    2.9140   19.0960 S   0  0  0  0  0  0  0  0  0  0  0  0
  1  2  2  0
  2  3  1  0
  4  3  1  6
  4  5  1  0
  5  6  1  0
  6  7  1  0
  7  8  1  0
  8  9  2  0
  9 10  1  0
 10 11  2  0
 11 12  1  0
  8 13  1  0
 12 13  2  0
  4 14  1  0
 14 15  2  0
 15 16  1  0
 16 17  2  0
 17 18  1  0
 14 19  1  0
 18 19  2  0
  2 20  1  0
 20 21  2  0
 21 22  1  0
 22 23  2  0
 20 24  1  0
 23 24  1  0
M  END
