MAK-UNK-de9577cf-3
     RDKit          3D

 37 40  0  0  0  0  0  0  0  0999 V2000
    7.6880    6.8260   21.4980 C   0  0  0  0  0  0  0  0  0  0  0  0
    8.9220    6.4850   22.0360 N   0  0  0  0  0  0  0  0  0  0  0  0
    8.8010    5.5640   22.9850 N   0  0  0  0  0  0  0  0  0  0  0  0
    7.9870    4.3980   22.7690 C   0  0  0  0  0  0  0  0  0  0  0  0
    8.6380    3.2320   22.6050 C   0  0  0  0  0  0  0  0  0  0  0  0
    7.7230    2.2830   22.4420 C   0  0  0  0  0  0  0  0  0  0  0  0
    7.9480    0.9460   22.2570 C   0  0  0  0  0  0  0  0  0  0  0  0
    8.3450    0.1900   23.5220 C   0  0  0  0  0  0  0  0  0  0  0  0
    8.6140   -1.2790   23.3350 C   0  0  0  0  0  0  0  0  0  0  0  0
    8.4980   -1.8620   22.0800 C   0  0  0  0  0  0  0  0  0  0  0  0
    8.1270   -1.1090   20.9560 C   0  0  0  0  0  0  0  0  0  0  0  0
    7.8560    0.2560   21.0300 C   0  0  0  0  0  0  0  0  0  0  0  0
    7.5120    0.9150   19.9190 F   0  0  0  0  0  0  0  0  0  0  0  0
    6.4320    2.7630   22.4750 N   0  0  0  0  0  0  0  0  0  0  0  0
    4.9300    1.9580   22.3110 S   0  0  0  0  0  0  0  0  0  0  0  0
    4.7890    1.1810   23.5230 O   0  0  0  0  0  0  0  0  0  0  0  0
    3.9540    2.9670   21.9560 O   0  0  0  0  0  0  0  0  0  0  0  0
    5.1650    0.8830   20.9940 C   0  0  0  0  0  0  0  0  0  0  0  0
    5.3220    1.3520   19.6780 C   0  0  0  0  0  0  0  0  0  0  0  0
    5.5390    0.3260   18.5960 C   0  0  0  0  0  0  0  0  0  0  0  0
    5.5920   -1.1840   18.8520 C   0  0  0  0  0  0  0  0  0  0  0  0
    5.4070   -1.6070   20.2600 N   0  0  0  0  0  0  0  0  0  0  0  0
    5.2060   -0.4970   21.2540 C   0  0  0  0  0  0  0  0  0  0  0  0
    6.5790    4.1550   22.6890 C   0  0  0  0  0  0  0  0  0  0  0  0
   10.3260    5.4030   23.8610 S   0  0  0  0  0  0  0  0  0  0  0  0
   11.2860    6.3430   23.2890 O   0  0  0  0  0  0  0  0  0  0  0  0
    9.9850    5.5920   25.2550 O   0  0  0  0  0  0  0  0  0  0  0  0
   11.0060    3.7380   23.7060 C   0  0  0  0  0  0  0  0  0  0  0  0
   10.3430    2.6110   24.2130 C   0  0  0  0  0  0  0  0  0  0  0  0
   10.9100    1.3170   24.1100 C   0  0  0  0  0  0  0  0  0  0  0  0
   12.1550    1.1480   23.5000 C   0  0  0  0  0  0  0  0  0  0  0  0
   12.8060   -0.1000   23.3780 C   0  0  0  0  0  0  0  0  0  0  0  0
   13.4460   -0.4220   22.3940 O   0  0  0  0  0  0  0  0  0  0  0  0
   12.6460   -0.8780   24.4950 O   0  0  0  0  0  0  0  0  0  0  0  0
   13.2710   -2.1780   24.4390 C   0  0  0  0  0  0  0  0  0  0  0  0
   12.8090    2.2690   22.9860 C   0  0  0  0  0  0  0  0  0  0  0  0
   12.2410    3.5730   23.0780 C   0  0  0  0  0  0  0  0  0  0  0  0
  1  2  1  0
  2  3  1  0
  3  4  1  0
  4  5  1  0
  5  6  2  0
  6  7  1  0
  7  8  2  0
  8  9  1  0
  9 10  2  0
 10 11  1  0
  7 12  1  0
 11 12  2  0
 12 13  1  0
  6 14  1  0
 14 15  1  0
 15 16  2  0
 15 17  2  0
 15 18  1  0
 18 19  2  0
 19 20  1  0
 20 21  2  0
 21 22  1  0
 18 23  1  0
 22 23  2  0
  4 24  2  0
 14 24  1  0
 25  3  1  0
 25 26  2  0
 25 27  2  0
 25 28  1  0
 28 29  2  0
 29 30  1  0
 30 31  2  0
 31 32  1  0
 32 33  2  0
 32 34  1  0
 34 35  1  0
 31 36  1  0
 28 37  1  0
 36 37  2  0
M  END
