MAK-UNK-27459e11-17
     RDKit          3D

 17 17  0  0  0  0  0  0  0  0999 V2000
    4.7050   -4.1860   25.1530 C   0  0  0  0  0  0  0  0  0  0  0  0
    6.4530   -4.0240   25.0090 S   0  0  0  0  0  0  0  0  0  0  0  0
    6.9440   -5.3430   24.6600 O   0  0  0  0  0  0  0  0  0  0  0  0
    6.8720   -3.2760   26.1920 O   0  0  0  0  0  0  0  0  0  0  0  0
    6.8190   -3.0320   23.6990 N   0  0  0  0  0  0  0  0  0  0  0  0
    8.1780   -2.6830   23.4770 C   0  0  0  0  0  0  0  0  0  0  0  0
    8.5510   -1.3300   23.8910 C   0  0  0  0  0  0  0  0  0  0  0  0
    9.8910   -0.9320   23.7940 C   0  0  0  0  0  0  0  0  0  0  0  0
   10.3320    0.3970   24.0290 C   0  0  0  0  0  0  0  0  0  0  0  0
   11.6190    0.9070   23.9610 C   0  0  0  0  0  0  0  0  0  0  0  0
   12.6450    0.0490   23.6280 C   0  0  0  0  0  0  0  0  0  0  0  0
   12.2470   -1.3630   23.3780 C   0  0  0  0  0  0  0  0  0  0  0  0
   13.1540   -2.4600   23.0070 C   0  0  0  0  0  0  0  0  0  0  0  0
   13.3460   -2.2870   21.5720 C   0  0  0  0  0  0  0  0  0  0  0  0
   13.3290   -3.2120   20.6200 N   0  0  0  0  0  0  0  0  0  0  0  0
   13.5660   -1.0330   21.3380 N   0  0  0  0  0  0  0  0  0  0  0  0
   10.8330   -1.8150   23.4690 C   0  0  0  0  0  0  0  0  0  0  0  0
  1  2  1  0
  2  3  2  0
  2  4  2  0
  2  5  1  0
  5  6  1  0
  6  7  1  0
  7  8  1  0
  8  9  2  0
  9 10  1  0
 10 11  2  0
 11 12  1  0
 12 13  1  0
 13 14  1  0
 14 15  2  3
 14 16  1  0
  8 17  1  0
 12 17  2  0
M  END
