MAK-UNK-acefcb18-7
     RDKit          3D

 22 24  0  0  0  0  0  0  0  0999 V2000
    6.2670   -0.7240   19.0240 C   0  0  0  0  0  0  0  0  0  0  0  0
    6.4710   -1.0000   20.3750 C   0  0  0  0  0  0  0  0  0  0  0  0
    5.3920   -1.1010   21.2960 C   0  0  0  0  0  0  0  0  0  0  0  0
    5.6490   -1.4160   22.7590 C   0  0  0  0  0  0  0  0  0  0  0  0
    7.0630   -1.6180   23.2540 C   0  0  0  0  0  0  0  0  0  0  0  0
    7.2590   -1.9120   24.6220 C   0  0  2  0  0  0  0  0  0  0  0  0
    8.6090   -2.0720   24.5990 O   0  0  0  0  0  0  0  0  0  0  0  0
    9.0020   -3.2330   23.8910 C   0  0  1  0  0  0  0  0  0  0  0  0
   10.2910   -3.8390   24.0920 O   0  0  0  0  0  0  0  0  0  0  0  0
    7.9810   -4.1510   23.9830 C   0  0  1  0  0  0  0  0  0  0  0  0
    8.0780   -5.1120   23.1280 N   0  0  0  0  0  0  0  0  0  0  0  0
    7.1630   -5.0190   22.1310 C   0  0  0  0  0  0  0  0  0  0  0  0
    6.5230   -6.2220   21.5520 C   0  0  0  0  0  0  0  0  0  0  0  0
    5.6450   -6.0010   20.5610 C   0  0  0  0  0  0  0  0  0  0  0  0
    5.5170   -4.2270   20.2770 S   0  0  0  0  0  0  0  0  0  0  0  0
    6.6910   -3.8840   21.5270 C   0  0  0  0  0  0  0  0  0  0  0  0
    7.1690   -4.3460   25.0500 C   0  0  1  0  0  0  0  0  0  0  0  0
    7.7740   -4.8410   25.9900 O   0  0  0  0  0  0  0  0  0  0  0  0
    6.4950   -3.1370   25.2830 C   0  0  2  0  0  0  0  0  0  0  0  0
    5.2330   -3.2950   24.6130 O   0  0  0  0  0  0  0  0  0  0  0  0
    8.0290   -1.4840   22.2680 C   0  0  0  0  0  0  0  0  0  0  0  0
    7.7500   -1.2000   20.9400 C   0  0  0  0  0  0  0  0  0  0  0  0
  1  2  1  0
  2  3  2  0
  3  4  1  0
  4  5  2  0
  6  5  1  6
  6  7  1  0
  7  8  1  0
  8  9  1  1
  8 10  1  0
 10 11  1  1
 11 12  1  0
 12 13  1  0
 13 14  2  0
 14 15  1  0
 12 16  2  0
 15 16  1  0
 10 17  1  0
 17 18  1  1
  6 19  1  0
 17 19  1  0
 19 20  1  6
  5 21  1  0
  2 22  1  0
 21 22  2  0
M  END
