MAK-UNK-9159f8ed-4
     RDKit          3D

 30 32  0  0  0  0  0  0  0  0999 V2000
    5.0840    1.5300   17.7620 C   0  0  0  0  0  0  0  0  0  0  0  0
    4.2670    1.9980   19.2750 S   0  0  0  0  0  0  0  0  0  0  0  0
    2.8390    2.4060   19.0430 O   0  0  0  0  0  0  0  0  0  0  0  0
    5.0400    3.0520   20.0250 O   0  0  0  0  0  0  0  0  0  0  0  0
    4.2380    0.5630   20.1290 N   0  0  0  0  0  0  0  0  0  0  0  0
    5.0900    0.4740   21.3170 C   0  0  0  0  0  0  0  0  0  0  0  0
    4.7750    1.4080   22.4600 C   0  0  0  0  0  0  0  0  0  0  0  0
    5.6200    1.3450   23.6890 C   0  0  0  0  0  0  0  0  0  0  0  0
    6.6510    0.4330   23.7190 C   0  0  0  0  0  0  0  0  0  0  0  0
    6.9430   -0.4920   22.5490 C   0  0  0  0  0  0  0  0  0  0  0  0
    8.1080   -1.4670   22.6870 C   0  0  0  0  0  0  0  0  0  0  0  0
    9.3660   -0.8300   22.9560 O   0  0  0  0  0  0  0  0  0  0  0  0
    7.7700   -2.7660   22.5350 O   0  0  0  0  0  0  0  0  0  0  0  0
    7.6800   -3.1660   21.1720 C   0  0  0  0  0  0  0  0  0  0  0  0
    6.3650   -3.5190   20.8190 C   0  0  0  0  0  0  0  0  0  0  0  0
    6.0680   -4.1640   19.8050 O   0  0  0  0  0  0  0  0  0  0  0  0
    5.4280   -3.1190   21.6380 N   0  0  0  0  0  0  0  0  0  0  0  0
    5.0220   -3.9900   22.5450 C   0  0  0  0  0  0  0  0  0  0  0  0
    5.0740   -5.3850   22.3830 C   0  0  0  0  0  0  0  0  0  0  0  0
    4.5600   -6.2510   23.5030 C   0  0  0  0  0  0  0  0  0  0  0  0
    4.0600   -5.6260   24.6540 C   0  0  0  0  0  0  0  0  0  0  0  0
    4.0630   -4.2320   24.7080 C   0  0  0  0  0  0  0  0  0  0  0  0
    3.5510   -3.7060   25.8950 N   0  0  0  0  0  0  0  0  0  0  0  0
    2.1340   -3.6360   26.0710 C   0  0  0  0  0  0  0  0  0  0  0  0
    1.8270   -2.5380   26.8510 C   0  0  0  0  0  0  0  0  0  0  0  0
    3.0150   -1.8990   27.1790 C   0  0  0  0  0  0  0  0  0  0  0  0
    4.0730   -2.5250   26.4970 C   0  0  0  0  0  0  0  0  0  0  0  0
    5.2060   -2.0730   26.4630 O   0  0  0  0  0  0  0  0  0  0  0  0
    4.5250   -3.4270   23.6930 C   0  0  0  0  0  0  0  0  0  0  0  0
    6.1530   -0.4410   21.3840 C   0  0  0  0  0  0  0  0  0  0  0  0
  1  2  1  0
  2  3  2  0
  2  4  2  0
  2  5  1  0
  5  6  1  0
  6  7  2  0
  7  8  1  0
  8  9  2  0
  9 10  1  0
 10 11  1  0
 11 12  2  0
 11 13  1  0
 13 14  1  0
 14 15  1  0
 15 16  2  0
 15 17  1  0
 17 18  1  0
 18 19  2  0
 19 20  1  0
 20 21  2  0
 21 22  1  0
 22 23  1  0
 23 24  1  0
 24 25  1  0
 25 26  1  0
 23 27  1  0
 26 27  1  0
 27 28  2  0
 18 29  1  0
 22 29  2  0
  6 30  1  0
 10 30  2  0
M  END
