MAK-UNK-7264f48c-2
     RDKit          3D

 27 29  0  0  0  0  0  0  0  0999 V2000
    7.6100    0.8470   22.6440 C   0  0  0  0  0  0  0  0  0  0  0  0
    6.2280    0.6090   23.1340 C   0  0  0  0  0  0  0  0  0  0  0  0
    5.7590    1.4220   23.9340 O   0  0  0  0  0  0  0  0  0  0  0  0
    5.5180   -0.4260   22.7430 N   0  0  0  0  0  0  0  0  0  0  0  0
    5.4390   -0.4540   21.3630 C   0  0  0  0  0  0  0  0  0  0  0  0
    4.8110    0.7170   20.6670 C   0  0  0  0  0  0  0  0  0  0  0  0
    4.6550    0.8580   19.2110 N   0  0  0  0  0  0  0  0  0  0  0  0
    5.1640   -0.2620   18.3810 C   0  0  0  0  0  0  0  0  0  0  0  0
    5.8180   -1.5000   19.0520 C   0  0  0  0  0  0  0  0  0  0  0  0
    5.9270   -1.5340   20.6030 C   0  0  0  0  0  0  0  0  0  0  0  0
    6.5950   -2.7850   21.2160 C   0  0  0  0  0  0  0  0  0  0  0  0
    6.0600   -4.0420   20.8150 C   0  0  0  0  0  0  0  0  0  0  0  0
    5.3980   -4.2420   19.7890 O   0  0  0  0  0  0  0  0  0  0  0  0
    6.3970   -5.1080   21.7550 N   0  0  0  0  0  0  0  0  0  0  0  0
    7.2230   -4.8810   22.8350 C   0  0  0  0  0  0  0  0  0  0  0  0
    6.5550   -4.8430   24.1810 C   0  0  0  0  0  0  0  0  0  0  0  0
    5.0670   -4.9950   24.1200 N   0  0  0  0  0  0  0  0  0  0  0  0
    4.3640   -5.1570   25.6510 S   0  0  0  0  0  0  0  0  0  0  0  0
    4.1540   -6.5620   25.8740 O   0  0  0  0  0  0  0  0  0  0  0  0
    5.0850   -4.3350   26.6000 O   0  0  0  0  0  0  0  0  0  0  0  0
    2.7800   -4.4940   25.5370 C   0  0  0  0  0  0  0  0  0  0  0  0
    2.3390   -3.2950   25.8240 C   0  0  0  0  0  0  0  0  0  0  0  0
    1.2480   -2.5780   25.8320 C   0  0  0  0  0  0  0  0  0  0  0  0
    0.2330   -3.8530   25.2290 S   0  0  0  0  0  0  0  0  0  0  0  0
    1.5610   -5.0480   25.1160 C   0  0  0  0  0  0  0  0  0  0  0  0
    4.5450   -5.9760   23.1150 C   0  0  0  0  0  0  0  0  0  0  0  0
    5.5480   -6.2610   22.0090 C   0  0  0  0  0  0  0  0  0  0  0  0
  1  2  1  0
  2  3  2  0
  2  4  1  0
  4  5  1  0
  5  6  2  0
  6  7  1  0
  7  8  2  0
  8  9  1  0
  5 10  1  0
  9 10  2  0
 10 11  1  0
 11 12  1  0
 12 13  2  0
 12 14  1  0
 14 15  1  0
 15 16  1  0
 16 17  1  0
 17 18  1  0
 18 19  2  0
 18 20  2  0
 18 21  1  0
 21 22  1  0
 22 23  2  0
 23 24  1  0
 21 25  2  0
 24 25  1  0
 17 26  1  0
 14 27  1  0
 26 27  1  0
M  END
