MAK-UNK-c7aa8293-12
     RDKit          3D

 24 26  0  0  0  0  0  0  0  0999 V2000
   13.3430   -1.9330   25.6340 N   0  0  0  0  0  0  0  0  0  0  0  0
   12.0820   -1.4170   25.0690 C   0  0  0  0  0  0  0  0  0  0  0  0
   11.5640   -2.0050   23.8130 C   0  0  1  0  0  0  0  0  0  0  0  0
   10.5120   -2.9210   23.7950 O   0  0  0  0  0  0  0  0  0  0  0  0
    9.0260   -2.5570   23.8260 C   0  0  2  0  0  0  0  0  0  0  0  0
    7.9440   -3.3760   23.3230 C   0  0  2  0  0  0  0  0  0  0  0  0
    7.6070   -4.7470   23.8800 C   0  0  0  0  0  0  0  0  0  0  0  0
    6.9880   -5.7750   23.1340 C   0  0  0  0  0  0  0  0  0  0  0  0
    6.5500   -5.3750   21.8660 C   0  0  0  0  0  0  0  0  0  0  0  0
    6.4380   -3.8760   21.6450 C   0  0  2  0  0  0  0  0  0  0  0  0
    5.9310   -3.4470   20.2960 C   0  0  0  0  0  0  0  0  0  0  0  0
    6.3830   -2.1570   19.9480 C   0  0  0  0  0  0  0  0  0  0  0  0
    6.0010   -1.5140   18.7790 C   0  0  0  0  0  0  0  0  0  0  0  0
    5.5240   -0.3800   18.8020 O   0  0  0  0  0  0  0  0  0  0  0  0
    7.6480   -3.2450   21.9810 C   0  0  0  0  0  0  0  0  0  0  0  0
    9.2200   -1.3910   22.9580 C   0  0  0  0  0  0  0  0  0  0  0  0
   10.5170   -1.4460   23.2530 C   0  0  0  0  0  0  0  0  0  0  0  0
   11.4740   -0.7130   22.9670 C   0  0  0  0  0  0  0  0  0  0  0  0
   12.8210   -0.5910   23.1790 C   0  0  0  0  0  0  0  0  0  0  0  0
   13.2970   -1.5960   23.9580 C   0  0  0  0  0  0  0  0  0  0  0  0
   12.4880   -2.5850   24.4410 C   0  0  0  0  0  0  0  0  0  0  0  0
   13.0300   -3.5620   25.2170 O   0  0  0  0  0  0  0  0  0  0  0  0
   11.0930   -2.4860   24.0670 C   0  0  0  0  0  0  0  0  0  0  0  0
   10.3240   -3.5190   24.5840 O   0  0  0  0  0  0  0  0  0  0  0  0
  1  2  1  0
  3  2  1  1
  3  4  1  0
  4  5  1  0
  5  6  1  0
  6  7  1  6
  7  8  1  0
  8  9  1  0
  9 10  1  0
 10 11  1  6
 11 12  1  0
 12 13  1  0
 13 14  2  0
  6 15  1  0
 10 15  1  0
  5 16  1  6
 16 17  1  0
  3 18  1  0
 17 18  2  0
 18 19  1  0
 19 20  2  0
 20 21  1  0
 21 22  1  0
 17 23  1  0
 21 23  2  0
 23 24  1  0
M  END
