MAK-UNK-e4a48a85-4
     RDKit          3D

 27 30  0  0  0  0  0  0  0  0999 V2000
   11.6750    2.1630   23.0380 C   0  0  0  0  0  0  0  0  0  0  0  0
   11.7790    0.6820   23.1530 C   0  0  0  0  0  0  0  0  0  0  0  0
   13.0070    0.1290   22.8010 C   0  0  0  0  0  0  0  0  0  0  0  0
   13.1670   -1.2400   22.8670 C   0  0  0  0  0  0  0  0  0  0  0  0
   12.1190   -1.9860   23.2810 C   0  0  0  0  0  0  0  0  0  0  0  0
   10.8830   -1.5100   23.6520 C   0  0  0  0  0  0  0  0  0  0  0  0
    9.7880   -2.4390   24.1070 C   0  0  0  0  0  0  0  0  0  0  0  0
   10.0850   -3.1140   25.1600 C   0  0  0  0  0  0  0  0  0  0  0  0
    9.0790   -4.0330   25.6770 C   0  0  0  0  0  0  0  0  0  0  0  0
    7.8220   -4.8550   25.9100 C   0  0  0  0  0  0  0  0  0  0  0  0
    6.6900   -4.4980   24.9860 N   0  0  0  0  0  0  0  0  0  0  0  0
    5.6010   -3.7640   25.6470 C   0  0  0  0  0  0  0  0  0  0  0  0
    4.6720   -3.3700   24.6490 C   0  0  0  0  0  0  0  0  0  0  0  0
    4.2940   -4.2810   23.6370 C   0  0  0  0  0  0  0  0  0  0  0  0
    3.8790   -3.5240   22.5000 O   0  0  0  0  0  0  0  0  0  0  0  0
    5.2900   -5.3200   23.1420 C   0  0  0  0  0  0  0  0  0  0  0  0
    6.1660   -5.6470   24.3350 C   0  0  0  0  0  0  0  0  0  0  0  0
    8.2970   -3.6030   24.6100 N   0  0  0  0  0  0  0  0  0  0  0  0
    8.5950   -2.6440   23.5720 N   0  0  0  0  0  0  0  0  0  0  0  0
    7.3170   -3.0150   23.1910 C   0  0  0  0  0  0  0  0  0  0  0  0
    6.8360   -2.4110   21.8450 C   0  0  0  0  0  0  0  0  0  0  0  0
    7.4750   -1.1580   21.2470 C   0  0  0  0  0  0  0  0  0  0  0  0
    7.0860   -0.5570   20.0170 C   0  0  0  0  0  0  0  0  0  0  0  0
    6.0430   -1.2110   19.3630 C   0  0  0  0  0  0  0  0  0  0  0  0
    5.4270   -2.3670   19.8790 C   0  0  0  0  0  0  0  0  0  0  0  0
    5.8030   -2.9650   21.0920 C   0  0  0  0  0  0  0  0  0  0  0  0
   10.7060   -0.1280   23.5850 C   0  0  0  0  0  0  0  0  0  0  0  0
  1  2  1  0
  2  3  2  0
  3  4  1  0
  4  5  2  0
  5  6  1  0
  6  7  1  0
  7  8  2  0
  8  9  1  0
  9 10  1  0
 10 11  1  0
 11 12  1  0
 12 13  1  0
 13 14  1  0
 14 15  1  0
 14 16  1  0
 11 17  1  0
 16 17  1  0
  9 18  2  0
  7 19  1  0
 18 19  1  0
 19 20  1  0
 20 21  1  0
 21 22  2  0
 22 23  1  0
 23 24  2  0
 24 25  1  0
 21 26  1  0
 25 26  2  0
  2 27  1  0
  6 27  2  0
M  END
