MAK-UNK-9e4a73aa-25
     RDKit          3D

 26 29  0  0  0  0  0  0  0  0999 V2000
    6.9060   -3.6990   26.0570 O   0  0  0  0  0  0  0  0  0  0  0  0
    7.3280   -3.1490   25.0470 C   0  0  0  0  0  0  0  0  0  0  0  0
    7.1310   -1.6550   24.6770 C   0  0  0  0  0  0  0  0  0  0  0  0
    5.9600   -1.0100   25.0650 C   0  0  0  0  0  0  0  0  0  0  0  0
    5.7480    0.3360   24.7590 C   0  0  0  0  0  0  0  0  0  0  0  0
    4.6010    0.9030   25.1650 F   0  0  0  0  0  0  0  0  0  0  0  0
    6.6790    1.0960   24.0550 C   0  0  0  0  0  0  0  0  0  0  0  0
    6.3780    2.7520   23.6960 Cl  0  0  0  0  0  0  0  0  0  0  0  0
    7.9880    0.4350   23.5980 C   0  0  0  0  0  0  0  0  0  0  0  0
    8.1600   -1.0270   23.9660 C   0  0  0  0  0  0  0  0  0  0  0  0
    9.3190   -1.8330   23.6490 N   0  0  0  0  0  0  0  0  0  0  0  0
   10.5760   -1.2060   23.3350 C   0  0  0  0  0  0  0  0  0  0  0  0
   11.5660   -1.8880   22.6170 C   0  0  0  0  0  0  0  0  0  0  0  0
   12.7930   -1.2980   22.3080 C   0  0  0  0  0  0  0  0  0  0  0  0
   13.0770    0.0090   22.7100 C   0  0  0  0  0  0  0  0  0  0  0  0
   12.1380    0.7510   23.4270 C   0  0  0  0  0  0  0  0  0  0  0  0
   10.8190    0.0960   23.7510 C   0  0  0  0  0  0  0  0  0  0  0  0
    9.3280   -3.1240   24.0410 C   0  0  0  0  0  0  0  0  0  0  0  0
   10.3570   -3.7040   24.3970 O   0  0  0  0  0  0  0  0  0  0  0  0
    8.0460   -3.6900   24.0490 N   0  0  0  0  0  0  0  0  0  0  0  0
    7.2020   -3.3590   22.9160 C   0  0  0  0  0  0  0  0  0  0  0  0
    8.5340   -2.4690   22.8250 C   0  0  0  0  0  0  0  0  0  0  0  0
    8.2990   -1.6520   21.6000 C   0  0  0  0  0  0  0  0  0  0  0  0
    7.5470   -1.3300   20.5950 C   0  0  0  0  0  0  0  0  0  0  0  0
    6.4730   -2.0560   20.6400 N   0  0  0  0  0  0  0  0  0  0  0  0
    6.4030   -2.9480   21.7180 C   0  0  0  0  0  0  0  0  0  0  0  0
  1  2  2  0
  2  3  1  0
  3  4  2  0
  4  5  1  0
  5  6  1  0
  5  7  2  0
  7  8  1  0
  7  9  1  0
  3 10  1  0
  9 10  2  0
 10 11  1  0
 11 12  1  0
 12 13  2  0
 13 14  1  0
 14 15  2  0
 15 16  1  0
 12 17  1  0
 16 17  2  0
 11 18  1  0
 18 19  2  0
  2 20  1  0
 18 20  1  0
 20 21  1  0
 21 22  2  0
 22 23  1  0
 23 24  2  0
 24 25  1  0
 21 26  1  0
 25 26  2  0
M  END
