MAK-UNK-0d6072ac-15
     RDKit          3D

 19 21  0  0  0  0  0  0  0  0999 V2000
    5.6260   -5.5820   21.7540 C   0  0  0  0  0  0  0  0  0  0  0  0
    5.7050   -5.4800   23.0900 C   0  0  2  0  0  0  0  0  0  0  0  0
    4.6250   -4.9310   23.9300 C   0  0  0  0  0  0  0  0  0  0  0  0
    3.5860   -4.6100   23.3750 O   0  0  0  0  0  0  0  0  0  0  0  0
    4.9250   -4.7900   25.6710 S   0  0  0  0  0  0  0  0  0  0  0  0
    6.9860   -4.7060   23.3500 C   0  0  0  0  0  0  0  0  0  0  0  0
    7.7930   -5.2300   24.2610 C   0  0  0  0  0  0  0  0  0  0  0  0
    8.9820   -4.6770   24.5660 C   0  0  0  0  0  0  0  0  0  0  0  0
    9.5600   -3.5270   24.0220 C   0  0  0  0  0  0  0  0  0  0  0  0
    8.7710   -2.7760   23.0140 C   0  0  0  0  0  0  0  0  0  0  0  0
    7.4270   -3.3910   22.6550 C   0  0  0  0  0  0  0  0  0  0  0  0
    9.5350   -1.6830   22.6780 N   0  0  0  0  0  0  0  0  0  0  0  0
   10.7360   -1.7250   23.3810 C   0  0  0  0  0  0  0  0  0  0  0  0
   11.7800   -0.8000   23.3210 C   0  0  0  0  0  0  0  0  0  0  0  0
   12.9270   -1.0180   24.1030 C   0  0  0  0  0  0  0  0  0  0  0  0
   13.0090   -2.1560   24.9180 C   0  0  0  0  0  0  0  0  0  0  0  0
   14.2840   -2.5970   25.9270 Cl  0  0  0  0  0  0  0  0  0  0  0  0
   12.0110   -3.0500   24.9720 C   0  0  0  0  0  0  0  0  0  0  0  0
   10.7980   -2.8280   24.1810 C   0  0  0  0  0  0  0  0  0  0  0  0
  2  1  1  6
  2  3  1  0
  3  4  2  0
  3  5  1  0
  2  6  1  0
  6  7  2  0
  7  8  1  0
  8  9  2  0
  9 10  1  0
  6 11  1  0
 10 11  2  0
 10 12  1  0
 12 13  1  0
 13 14  1  0
 14 15  2  0
 15 16  1  0
 16 17  1  0
 16 18  2  0
  9 19  1  0
 13 19  2  0
 18 19  1  0
M  END
