MAK-UNK-902cc841-14
     RDKit          3D

 29 31  0  0  0  0  0  0  0  0999 V2000
   13.6950   -2.9290   25.4030 C   0  0  0  0  0  0  0  0  0  0  0  0
   13.8990   -3.2020   24.0300 O   0  0  0  0  0  0  0  0  0  0  0  0
   13.4050   -2.2700   23.2060 C   0  0  0  0  0  0  0  0  0  0  0  0
   13.9680   -1.3680   22.6520 O   0  0  0  0  0  0  0  0  0  0  0  0
   12.0850   -2.3640   22.9590 C   0  0  0  0  0  0  0  0  0  0  0  0
   11.7720   -1.5670   21.9380 C   0  0  0  0  0  0  0  0  0  0  0  0
   10.4630   -1.5520   21.5780 C   0  0  0  0  0  0  0  0  0  0  0  0
    9.4290   -2.2700   22.1090 C   0  0  0  0  0  0  0  0  0  0  0  0
    9.8480   -3.0740   23.1650 C   0  0  0  0  0  0  0  0  0  0  0  0
    8.8610   -3.8300   23.7470 N   0  0  0  0  0  0  0  0  0  0  0  0
    7.5820   -2.9100   24.2010 S   0  0  0  0  0  0  0  0  0  0  0  0
    7.2680   -3.0360   25.5950 O   0  0  0  0  0  0  0  0  0  0  0  0
    6.5460   -3.2330   23.2630 O   0  0  0  0  0  0  0  0  0  0  0  0
    8.3110   -1.1690   23.8780 C   0  0  1  0  0  0  0  0  0  0  0  0
    9.8380   -0.8100   23.7510 C   0  0  0  0  0  0  0  0  0  0  0  0
   10.9920   -1.4290   24.2230 C   0  0  0  0  0  0  0  0  0  0  0  0
   12.2520   -0.8860   23.9840 C   0  0  0  0  0  0  0  0  0  0  0  0
   12.0380    0.5330   23.0730 S   0  0  0  0  0  0  0  0  0  0  0  0
   10.3120    0.3250   23.0810 C   0  0  0  0  0  0  0  0  0  0  0  0
    7.6650   -0.6340   22.8680 N   0  0  0  0  0  0  0  0  0  0  0  0
    6.2630   -1.1200   22.9180 C   0  0  0  0  0  0  0  0  0  0  0  0
    6.0160   -2.3370   22.0470 C   0  0  0  0  0  0  0  0  0  0  0  0
    6.3370   -1.9790   20.7060 N   0  0  0  0  0  0  0  0  0  0  0  0
    5.8500   -2.6660   19.6490 C   0  0  0  0  0  0  0  0  0  0  0  0
    6.0570   -1.9230   18.3780 C   0  0  0  0  0  0  0  0  0  0  0  0
    5.3190   -3.7910   19.6700 O   0  0  0  0  0  0  0  0  0  0  0  0
    7.3000   -0.8900   20.5510 C   0  0  0  0  0  0  0  0  0  0  0  0
    8.2680   -0.8430   21.5470 C   0  0  0  0  0  0  0  0  0  0  0  0
   11.1560   -3.1270   23.6110 C   0  0  0  0  0  0  0  0  0  0  0  0
  1  2  1  0
  2  3  1  0
  3  4  2  0
  3  5  1  0
  5  6  2  0
  6  7  1  0
  7  8  2  0
  8  9  1  0
  9 10  1  0
 11 10  1  0
 11 12  2  0
 11 13  2  0
 14 11  1  6
 14 15  1  0
 15 16  1  0
 16 17  2  0
 17 18  1  0
 15 19  2  0
 18 19  1  0
 14 20  1  0
 20 21  1  0
 21 22  1  0
 22 23  1  0
 23 24  1  0
 24 25  1  0
 24 26  2  0
 23 27  1  0
 20 28  1  0
 27 28  1  0
  5 29  1  0
  9 29  2  0
M  END
