MAK-UNK-10572812-5
     RDKit          3D

 33 38  0  0  0  0  0  0  0  0999 V2000
    6.8790    0.1280   23.8040 O   0  0  0  0  0  0  0  0  0  0  0  0
    7.7510    0.4560   23.0020 C   0  0  0  0  0  0  0  0  0  0  0  0
    8.5120    1.5750   23.1100 N   0  0  0  0  0  0  0  0  0  0  0  0
    9.6250    1.3120   22.2080 C   0  0  0  0  0  0  0  0  0  0  0  0
   10.4530    1.3260   23.2110 C   0  0  2  0  0  0  0  0  0  0  0  0
   10.7460    2.8600   23.3960 C   0  0  0  0  0  0  0  0  0  0  0  0
   11.0860    3.8160   24.1430 C   0  0  0  0  0  0  0  0  0  0  0  0
   10.2140    4.7690   23.6410 N   0  0  0  0  0  0  0  0  0  0  0  0
   11.1440    5.4480   23.4700 C   0  0  0  0  0  0  0  0  0  0  0  0
   11.7810    6.5910   23.4330 C   0  0  0  0  0  0  0  0  0  0  0  0
   13.0130    6.5710   22.5640 C   0  0  0  0  0  0  0  0  0  0  0  0
   13.4120    5.3030   21.7630 C   0  0  0  0  0  0  0  0  0  0  0  0
   14.4240    5.2310   20.9350 F   0  0  0  0  0  0  0  0  0  0  0  0
   12.5870    4.0690   21.9850 C   0  0  0  0  0  0  0  0  0  0  0  0
   11.5410    4.1350   22.8900 C   0  0  0  0  0  0  0  0  0  0  0  0
   11.5240    0.1990   23.4480 N   0  0  0  0  0  0  0  0  0  0  0  0
   11.0400   -0.9870   23.9980 C   0  0  0  0  0  0  0  0  0  0  0  0
    9.8230   -1.4260   23.4630 C   0  0  0  0  0  0  0  0  0  0  0  0
    9.9590   -1.1790   22.1640 N   0  0  0  0  0  0  0  0  0  0  0  0
   11.3910   -1.4800   21.9550 C   0  0  0  0  0  0  0  0  0  0  0  0
   12.1850   -0.4060   22.4500 C   0  0  0  0  0  0  0  0  0  0  0  0
    9.5000    0.0600   21.4670 C   0  0  0  0  0  0  0  0  0  0  0  0
    8.7550    0.9710   20.9840 O   0  0  0  0  0  0  0  0  0  0  0  0
    8.0780   -0.3880   21.7670 C   0  0  2  0  0  0  0  0  0  0  0  0
    7.1310   -0.0840   20.5290 C   0  0  0  0  0  0  0  0  0  0  0  0
    7.4070   -0.5720   19.1560 C   0  0  0  0  0  0  0  0  0  0  0  0
    6.4820   -0.1430   18.3100 N   0  0  0  0  0  0  0  0  0  0  0  0
    5.5620    0.6180   19.0880 C   0  0  0  0  0  0  0  0  0  0  0  0
    4.4850    1.2080   18.5650 N   0  0  0  0  0  0  0  0  0  0  0  0
    3.7180    1.8850   19.4530 C   0  0  0  0  0  0  0  0  0  0  0  0
    3.9200    2.0400   20.8510 C   0  0  0  0  0  0  0  0  0  0  0  0
    5.1580    1.3490   21.3490 C   0  0  0  0  0  0  0  0  0  0  0  0
    5.9620    0.6470   20.4630 C   0  0  0  0  0  0  0  0  0  0  0  0
  1  2  2  0
  2  3  1  0
  3  4  1  0
  4  5  1  0
  5  6  1  6
  6  7  2  0
  7  8  1  0
  8  9  1  0
  9 10  1  0
 10 11  2  0
 11 12  1  0
 12 13  1  0
 12 14  2  0
  6 15  1  0
  9 15  2  0
 14 15  1  0
  5 16  1  0
 16 17  1  0
 17 18  1  0
 18 19  1  0
 19 20  1  0
 16 21  1  0
 20 21  1  0
 19 22  1  0
 22 23  2  0
  2 24  1  0
 22 24  1  0
 24 25  1  6
 25 26  2  0
 26 27  1  0
 27 28  1  0
 28 29  1  0
 29 30  2  0
 30 31  1  0
 31 32  2  0
 25 33  1  0
 28 33  2  0
 32 33  1  0
M  END
