MAK-UNK-e4a48a85-17
     RDKit          3D

 31 34  0  0  0  0  0  0  0  0999 V2000
    8.8030   -3.7550   19.3840 C   0  0  0  0  0  0  0  0  0  0  0  0
    7.5860   -2.9030   19.4780 C   0  0  0  0  0  0  0  0  0  0  0  0
    7.1980   -2.2940   18.3120 C   0  0  0  0  0  0  0  0  0  0  0  0
    6.0750   -1.4570   18.2470 C   0  0  0  0  0  0  0  0  0  0  0  0
    5.3520   -1.2390   19.3940 C   0  0  0  0  0  0  0  0  0  0  0  0
    5.7770   -1.8510   20.5310 C   0  0  0  0  0  0  0  0  0  0  0  0
    5.1980   -1.7100   21.7230 C   0  0  0  0  0  0  0  0  0  0  0  0
    6.2370   -1.8280   22.6860 N   0  0  0  0  0  0  0  0  0  0  0  0
    6.4940   -3.2300   22.9830 C   0  0  0  0  0  0  0  0  0  0  0  0
    7.9540   -3.6090   22.7930 C   0  0  0  0  0  0  0  0  0  0  0  0
    8.7030   -2.7860   23.7010 N   0  0  0  0  0  0  0  0  0  0  0  0
    8.4430   -3.2230   24.9590 C   0  0  0  0  0  0  0  0  0  0  0  0
    7.8050   -2.5390   25.8900 N   0  0  0  0  0  0  0  0  0  0  0  0
    7.6490   -3.2760   27.0560 C   0  0  0  0  0  0  0  0  0  0  0  0
    6.9720   -2.6940   28.1350 C   0  0  0  0  0  0  0  0  0  0  0  0
    5.7790   -3.4680   28.7110 C   0  0  0  0  0  0  0  0  0  0  0  0
    5.9860   -4.4470   29.4340 O   0  0  0  0  0  0  0  0  0  0  0  0
    4.5080   -3.0460   28.3860 N   0  0  0  0  0  0  0  0  0  0  0  0
    3.6460   -3.8630   27.5760 C   0  0  0  0  0  0  0  0  0  0  0  0
    2.2890   -3.3530   27.5480 N   0  0  0  0  0  0  0  0  0  0  0  0
    1.3160   -4.1010   28.3370 C   0  0  0  0  0  0  0  0  0  0  0  0
   -0.1330   -3.8250   27.9460 C   0  0  0  0  0  0  0  0  0  0  0  0
   -0.4030   -4.1110   26.4670 C   0  0  0  0  0  0  0  0  0  0  0  0
   -1.4500   -3.2560   26.0170 O   0  0  0  0  0  0  0  0  0  0  0  0
    0.7540   -3.9260   25.6560 C   0  0  0  0  0  0  0  0  0  0  0  0
    1.7520   -2.9380   26.2610 C   0  0  0  0  0  0  0  0  0  0  0  0
    8.1870   -4.5450   27.0210 C   0  0  0  0  0  0  0  0  0  0  0  0
    8.8970   -4.8160   25.4970 S   0  0  0  0  0  0  0  0  0  0  0  0
    8.6600   -1.3770   23.2770 C   0  0  0  0  0  0  0  0  0  0  0  0
    7.4660   -1.0910   22.3170 C   0  0  0  0  0  0  0  0  0  0  0  0
    6.8730   -2.6730   20.5780 C   0  0  0  0  0  0  0  0  0  0  0  0
  1  2  1  0
  2  3  2  0
  3  4  1  0
  4  5  2  0
  5  6  1  0
  6  7  1  0
  7  8  1  0
  8  9  1  0
  9 10  1  0
 10 11  1  0
 11 12  1  0
 12 13  2  0
 13 14  1  0
 14 15  1  0
 15 16  1  0
 16 17  2  0
 16 18  1  0
 18 19  1  0
 19 20  1  0
 20 21  1  0
 21 22  1  0
 22 23  1  0
 23 24  1  0
 23 25  1  0
 20 26  1  0
 25 26  1  0
 14 27  2  0
 12 28  1  0
 27 28  1  0
 11 29  1  0
  8 30  1  0
 29 30  1  0
  2 31  1  0
  6 31  2  0
M  END
