MAK-UNK-5e88aa6a-8
     RDKit          3D

 21 22  0  0  0  0  0  0  0  0999 V2000
    9.1890    6.9810   26.2510 N   0  0  0  0  0  0  0  0  0  0  0  0
    9.8490    5.5320   25.7000 S   0  0  0  0  0  0  0  0  0  0  0  0
   11.2860    5.6740   25.6800 O   0  0  0  0  0  0  0  0  0  0  0  0
    9.2000    4.4960   26.4690 O   0  0  0  0  0  0  0  0  0  0  0  0
    9.2540    5.4710   24.0300 C   0  0  0  0  0  0  0  0  0  0  0  0
    9.8660    4.5470   23.1980 N   0  0  0  0  0  0  0  0  0  0  0  0
    8.9310    3.5260   22.7060 C   0  0  0  0  0  0  0  0  0  0  0  0
    9.3110    2.2160   22.9760 C   0  0  0  0  0  0  0  0  0  0  0  0
    8.6820    1.1030   22.1840 C   0  0  0  0  0  0  0  0  0  0  0  0
    7.7820    1.3140   21.1570 C   0  0  0  0  0  0  0  0  0  0  0  0
    7.1990   -0.0930   20.3960 S   0  0  0  0  0  0  0  0  0  0  0  0
    8.1640   -1.0430   21.4590 C   0  0  0  0  0  0  0  0  0  0  0  0
    8.8940   -0.3270   22.3460 C   0  0  0  0  0  0  0  0  0  0  0  0
    9.7980   -1.0070   23.3520 C   0  0  0  0  0  0  0  0  0  0  0  0
    9.1710   -2.0190   24.0850 N   0  0  0  0  0  0  0  0  0  0  0  0
    9.3530   -3.4150   23.8470 C   0  0  0  0  0  0  0  0  0  0  0  0
    8.2010   -4.4320   23.9020 C   0  0  0  0  0  0  0  0  0  0  0  0
    6.9570   -3.8030   24.4800 C   0  0  0  0  0  0  0  0  0  0  0  0
    6.7580   -3.7230   25.9010 O   0  0  0  0  0  0  0  0  0  0  0  0
    6.8850   -2.5150   24.0910 C   0  0  0  0  0  0  0  0  0  0  0  0
    7.9160   -1.7110   24.5260 C   0  0  0  0  0  0  0  0  0  0  0  0
  2  1  1  0
  2  3  2  0
  2  4  2  0
  2  5  1  0
  5  6  1  0
  6  7  1  0
  7  8  1  0
  8  9  1  0
  9 10  2  0
 10 11  1  0
 11 12  1  0
  9 13  1  0
 12 13  2  0
 13 14  1  0
 14 15  1  0
 15 16  1  0
 16 17  1  0
 17 18  1  0
 18 19  1  0
 18 20  1  0
 15 21  1  0
 20 21  1  0
M  END
