MAK-UNK-0d6072ac-7
     RDKit          3D

 19 21  0  0  0  0  0  0  0  0999 V2000
   13.6440   -2.9300   25.5840 C   0  0  0  0  0  0  0  0  0  0  0  0
   12.6170   -3.1330   24.5180 C   0  0  2  0  0  0  0  0  0  0  0  0
   13.2690   -3.0870   23.3070 C   0  0  0  0  0  0  0  0  0  0  0  0
   14.4220   -3.3640   23.2770 O   0  0  0  0  0  0  0  0  0  0  0  0
   12.7000   -2.7360   22.2620 O   0  0  0  0  0  0  0  0  0  0  0  0
   11.9250   -2.0090   24.1460 C   0  0  0  0  0  0  0  0  0  0  0  0
   12.9810   -0.9730   24.1530 C   0  0  0  0  0  0  0  0  0  0  0  0
   12.4600    0.1010   23.7920 C   0  0  0  0  0  0  0  0  0  0  0  0
   11.2270   -0.4270   23.6210 C   0  0  0  0  0  0  0  0  0  0  0  0
   10.1020   -0.3580   23.3500 C   0  0  0  0  0  0  0  0  0  0  0  0
   10.4640   -1.8130   23.7660 C   0  0  0  0  0  0  0  0  0  0  0  0
    9.1770    0.3170   22.9900 N   0  0  0  0  0  0  0  0  0  0  0  0
    8.7450   -0.8970   23.1410 C   0  0  0  0  0  0  0  0  0  0  0  0
    7.5170   -1.4270   22.9600 C   0  0  0  0  0  0  0  0  0  0  0  0
    7.3240   -2.7170   23.1660 N   0  0  0  0  0  0  0  0  0  0  0  0
    8.4180   -3.5680   23.5880 C   0  0  0  0  0  0  0  0  0  0  0  0
    7.7360   -5.1520   23.7100 Cl  0  0  0  0  0  0  0  0  0  0  0  0
    9.7880   -2.9980   23.8100 C   0  0  0  0  0  0  0  0  0  0  0  0
   10.0500   -1.5810   23.5880 C   0  0  0  0  0  0  0  0  0  0  0  0
  2  1  1  1
  2  3  1  0
  3  4  2  0
  3  5  1  0
  2  6  1  0
  6  7  2  0
  7  8  1  0
  8  9  2  0
  9 10  1  0
  6 11  1  0
 10 11  2  0
 10 12  1  0
 12 13  1  0
 13 14  1  0
 14 15  2  0
 15 16  1  0
 16 17  1  0
 16 18  2  0
  9 19  1  0
 13 19  2  0
 18 19  1  0
M  END
