MAK-UNK-902cc841-11
     RDKit          3D

 29 31  0  0  0  0  0  0  0  0999 V2000
    6.0280   -1.8910   18.5780 C   0  0  0  0  0  0  0  0  0  0  0  0
    5.8780   -2.7360   19.7820 C   0  0  0  0  0  0  0  0  0  0  0  0
    5.3420   -3.8510   19.6850 O   0  0  0  0  0  0  0  0  0  0  0  0
    6.3670   -2.3160   20.9200 N   0  0  0  0  0  0  0  0  0  0  0  0
    6.1870   -3.0910   22.1450 C   0  0  0  0  0  0  0  0  0  0  0  0
    7.5080   -3.4880   22.7470 C   0  0  0  0  0  0  0  0  0  0  0  0
    8.3080   -2.2810   22.9000 N   0  0  0  0  0  0  0  0  0  0  0  0
    9.3450   -2.1710   23.9340 C   0  0  2  0  0  0  0  0  0  0  0  0
    8.8330   -1.4300   25.0780 O   0  0  0  0  0  0  0  0  0  0  0  0
    7.4820   -1.2020   25.2100 C   0  0  0  0  0  0  0  0  0  0  0  0
    6.7190   -0.5560   24.5080 O   0  0  0  0  0  0  0  0  0  0  0  0
    6.8960   -1.7710   26.2940 C   0  0  0  0  0  0  0  0  0  0  0  0
    6.8650   -1.1120   27.6590 C   0  0  0  0  0  0  0  0  0  0  0  0
    6.2170   -1.7580   28.8520 C   0  0  0  0  0  0  0  0  0  0  0  0
    5.5810   -3.1090   28.6560 C   0  0  0  0  0  0  0  0  0  0  0  0
    5.6610   -3.6780   27.2630 C   0  0  0  0  0  0  0  0  0  0  0  0
    5.0820   -4.8740   27.1670 N   0  0  0  0  0  0  0  0  0  0  0  0
    4.9680   -5.7810   28.5690 S   0  0  0  0  0  0  0  0  0  0  0  0
    4.7050   -7.4120   27.9340 C   0  0  0  0  0  0  0  0  0  0  0  0
    6.2910   -5.7490   29.1650 O   0  0  0  0  0  0  0  0  0  0  0  0
    3.7900   -5.3870   29.3110 O   0  0  0  0  0  0  0  0  0  0  0  0
    6.2800   -3.0390   26.1630 C   0  0  0  0  0  0  0  0  0  0  0  0
   10.6900   -1.6410   23.4250 C   0  0  0  0  0  0  0  0  0  0  0  0
   11.4780   -0.6650   23.6570 C   0  0  0  0  0  0  0  0  0  0  0  0
   12.6070   -0.1340   23.2860 C   0  0  0  0  0  0  0  0  0  0  0  0
   13.1670   -1.0520   22.1480 C   0  0  0  0  0  0  0  0  0  0  0  0
   11.7700   -2.2110   22.1990 S   0  0  0  0  0  0  0  0  0  0  0  0
    8.6530   -1.6670   21.6260 C   0  0  0  0  0  0  0  0  0  0  0  0
    7.3690   -1.2230   20.9450 C   0  0  0  0  0  0  0  0  0  0  0  0
  1  2  1  0
  2  3  2  0
  2  4  1  0
  4  5  1  0
  5  6  1  0
  6  7  1  0
  7  8  1  0
  8  9  1  1
  9 10  1  0
 10 11  2  0
 10 12  1  0
 12 13  2  0
 13 14  1  0
 14 15  2  0
 15 16  1  0
 16 17  1  0
 18 17  1  0
 18 19  1  0
 18 20  2  0
 18 21  2  0
 12 22  1  0
 16 22  2  0
  8 23  1  0
 23 24  2  0
 24 25  1  0
 25 26  2  0
 23 27  1  0
 26 27  1  0
  7 28  1  0
  4 29  1  0
 28 29  1  0
M  END
