MAK-UNK-1cb0e944-2
     RDKit          3D

 28 30  0  0  0  0  0  0  0  0999 V2000
   10.8890    6.3550   22.6610 C   0  0  0  0  0  0  0  0  0  0  0  0
   10.9320    4.9080   22.9790 C   0  0  0  0  0  0  0  0  0  0  0  0
    9.8680    4.2560   23.5220 N   0  0  0  0  0  0  0  0  0  0  0  0
   10.1510    2.9240   23.7310 C   0  0  0  0  0  0  0  0  0  0  0  0
    9.0480    2.1050   24.3450 C   0  0  0  0  0  0  0  0  0  0  0  0
    9.1980    0.9740   24.7870 O   0  0  0  0  0  0  0  0  0  0  0  0
    7.3890    2.8650   24.4720 S   0  0  0  0  0  0  0  0  0  0  0  0
    6.4040    1.9590   25.5210 N   0  0  0  0  0  0  0  0  0  0  0  0
    7.5330    4.1630   25.0880 O   0  0  0  0  0  0  0  0  0  0  0  0
    6.7380    2.7090   23.1870 O   0  0  0  0  0  0  0  0  0  0  0  0
   11.4850    2.7090   23.2850 C   0  0  0  0  0  0  0  0  0  0  0  0
   12.4120    1.4710   23.2410 C   0  0  0  0  0  0  0  0  0  0  0  0
   11.9130    0.2090   23.0890 C   0  0  0  0  0  0  0  0  0  0  0  0
   10.6920   -0.1190   23.5340 C   0  0  0  0  0  0  0  0  0  0  0  0
   10.2710   -1.4000   23.3300 C   0  0  0  0  0  0  0  0  0  0  0  0
    9.0100   -1.8080   23.7620 C   0  0  0  0  0  0  0  0  0  0  0  0
    8.1910   -2.6440   22.8690 N   0  0  0  0  0  0  0  0  0  0  0  0
    7.9100   -3.9130   23.5080 C   0  0  0  0  0  0  0  0  0  0  0  0
    6.8640   -4.6870   22.7430 C   0  0  0  0  0  0  0  0  0  0  0  0
    5.6960   -3.9560   22.6530 C   0  0  0  0  0  0  0  0  0  0  0  0
    5.1650   -3.7570   23.9630 O   0  0  0  0  0  0  0  0  0  0  0  0
    5.9450   -2.7580   21.9140 C   0  0  0  0  0  0  0  0  0  0  0  0
    6.9310   -1.9730   22.5000 C   0  0  0  0  0  0  0  0  0  0  0  0
   11.2850   -2.0950   22.6740 C   0  0  0  0  0  0  0  0  0  0  0  0
   12.6840   -1.1340   22.3570 S   0  0  0  0  0  0  0  0  0  0  0  0
   11.9470    3.9940   22.8200 C   0  0  0  0  0  0  0  0  0  0  0  0
   13.1770    4.3200   22.3080 C   0  0  0  0  0  0  0  0  0  0  0  0
   13.4670    5.4110   21.8330 O   0  0  0  0  0  0  0  0  0  0  0  0
  1  2  1  0
  2  3  1  0
  3  4  1  0
  4  5  1  0
  5  6  2  0
  7  5  1  0
  7  8  1  0
  7  9  2  0
  7 10  2  0
  4 11  2  0
 11 12  1  0
 12 13  1  0
 13 14  2  0
 14 15  1  0
 15 16  1  0
 16 17  1  0
 17 18  1  0
 18 19  1  0
 19 20  1  0
 20 21  1  0
 20 22  1  0
 17 23  1  0
 22 23  1  0
 15 24  2  0
 13 25  1  0
 24 25  1  0
  2 26  2  0
 11 26  1  0
 26 27  1  0
 27 28  2  0
M  END
