MAK-UNK-194150d3-17
     RDKit          3D

 19 20  0  0  0  0  0  0  0  0999 V2000
    5.1720   -0.0420   23.1430 C   0  0  0  0  0  0  0  0  0  0  0  0
    5.1200   -1.4700   22.5900 C   0  0  0  0  0  0  0  0  0  0  0  0
    4.9460   -2.5080   23.5580 N   0  0  0  0  0  0  0  0  0  0  0  0
    4.8830   -3.8400   23.1460 C   0  0  0  0  0  0  0  0  0  0  0  0
    4.9990   -4.0790   21.7540 N   0  0  0  0  0  0  0  0  0  0  0  0
    5.1840   -3.0720   20.7220 C   0  0  0  0  0  0  0  0  0  0  0  0
    5.2500   -1.7210   21.0630 C   0  0  0  0  0  0  0  0  0  0  0  0
    5.4060   -0.7320   20.0990 C   0  0  0  0  0  0  0  0  0  0  0  0
    5.7770    0.5640   20.4360 C   0  0  0  0  0  0  0  0  0  0  0  0
    7.1280    0.8730   20.3610 C   0  0  0  0  0  0  0  0  0  0  0  0
    7.8490   -0.2250   21.0880 N   0  0  0  0  0  0  0  0  0  0  0  0
    8.8720    0.2250   22.0440 C   0  0  0  0  0  0  0  0  0  0  0  0
    9.1440   -0.7200   23.0320 C   0  0  0  0  0  0  0  0  0  0  0  0
   10.4690   -1.1020   23.1670 C   0  0  0  0  0  0  0  0  0  0  0  0
   11.2720   -1.3460   21.9470 C   0  0  0  0  0  0  0  0  0  0  0  0
   12.7220   -1.7670   22.0540 C   0  0  0  0  0  0  0  0  0  0  0  0
   13.3180   -1.9310   23.4200 C   0  0  0  0  0  0  0  0  0  0  0  0
   12.4230   -1.6630   24.5910 C   0  0  0  0  0  0  0  0  0  0  0  0
   11.0830   -1.2780   24.4060 C   0  0  0  0  0  0  0  0  0  0  0  0
  1  2  1  0
  2  3  2  0
  3  4  1  0
  4  5  2  0
  5  6  1  0
  2  7  1  0
  6  7  2  0
  7  8  1  0
  8  9  3  0
  9 10  1  0
 10 11  1  0
 11 12  1  0
 12 13  1  0
 13 14  1  0
 14 15  2  0
 15 16  1  0
 16 17  2  0
 17 18  1  0
 14 19  1  0
 18 19  2  0
M  END
