MAK-UNK-129dcd6f-18
     RDKit          3D

 26 28  0  0  0  0  0  0  0  0999 V2000
    7.0770    1.5130   12.9010 C   0  0  0  0  0  0  0  0  0  0  0  0
    7.8300    1.4630   13.0540 C   0  0  0  0  0  0  0  0  0  0  0  0
    8.2670    1.2320   11.9910 C   0  0  0  0  0  0  0  0  0  0  0  0
    9.3950    1.0870   12.0810 C   0  0  0  0  0  0  0  0  0  0  0  0
   10.6930    1.1030   13.1040 N   0  0  0  0  0  0  0  0  0  0  0  0
   10.5370    1.3600   14.3370 C   0  0  0  0  0  0  0  0  0  0  0  0
    8.8310    1.6900   14.9710 C   0  0  0  0  0  0  0  0  0  0  0  0
    7.9570    1.7110   16.8110 N   0  0  0  0  0  0  0  0  0  0  0  0
    7.5070    0.7830   17.9460 C   0  0  0  0  0  0  0  0  0  0  0  0
    7.9730   -0.2770   18.3370 O   0  0  0  0  0  0  0  0  0  0  0  0
    6.3260    1.0330   18.7580 C   0  0  0  0  0  0  0  0  0  0  0  0
    5.3770    1.7130   18.0710 N   0  0  0  0  0  0  0  0  0  0  0  0
    4.2400    1.9990   18.7050 C   0  0  0  0  0  0  0  0  0  0  0  0
    3.9910    1.5750   20.1530 C   0  0  0  0  0  0  0  0  0  0  0  0
    5.0680    0.8230   20.8740 C   0  0  0  0  0  0  0  0  0  0  0  0
    6.3200    0.5420   20.1010 C   0  0  0  0  0  0  0  0  0  0  0  0
    7.4260   -0.1670   20.6700 N   0  0  0  0  0  0  0  0  0  0  0  0
    8.5120    0.3720   21.3510 C   0  0  0  0  0  0  0  0  0  0  0  0
    8.9350    1.5170   21.1650 O   0  0  0  0  0  0  0  0  0  0  0  0
    9.1180   -0.5120   22.2380 N   0  0  0  0  0  0  0  0  0  0  0  0
   10.4920   -0.3980   22.5040 C   0  0  0  0  0  0  0  0  0  0  0  0
   10.8920    0.8920   22.8040 C   0  0  0  0  0  0  0  0  0  0  0  0
   12.2150    1.1480   23.0590 C   0  0  0  0  0  0  0  0  0  0  0  0
   13.0890    0.1030   23.0150 C   0  0  0  0  0  0  0  0  0  0  0  0
   12.8180   -1.2290   22.7370 C   0  0  0  0  0  0  0  0  0  0  0  0
   11.4270   -1.4530   22.4690 C   0  0  0  0  0  0  0  0  0  0  0  0
  1  2  1  0
  2  3  2  0
  3  4  1  0
  4  5  2  0
  5  6  1  0
  2  7  1  0
  6  7  2  0
  7  8  1  0
  8  9  1  0
  9 10  2  0
  9 11  1  0
 11 12  2  0
 12 13  1  0
 13 14  2  0
 14 15  1  0
 11 16  1  0
 15 16  2  0
 16 17  1  0
 17 18  1  0
 18 19  2  0
 18 20  1  0
 20 21  1  0
 21 22  2  0
 22 23  1  0
 23 24  2  0
 24 25  1  0
 21 26  1  0
 25 26  2  0
M  END
