MAK-UNK-f2409524-4
     RDKit          3D

 26 28  0  0  0  0  0  0  0  0999 V2000
    2.1510    1.4690   24.6510 O   0  0  0  0  0  0  0  0  0  0  0  0
    2.5470    2.3010   23.5770 C   0  0  0  0  0  0  0  0  0  0  0  0
    3.7790    2.2110   22.9830 N   0  0  0  0  0  0  0  0  0  0  0  0
    4.6890    1.1370   23.3480 C   0  0  0  0  0  0  0  0  0  0  0  0
    4.7110    0.0720   22.4350 C   0  0  0  0  0  0  0  0  0  0  0  0
    5.5440    0.3430   21.3800 C   0  0  1  0  0  0  0  0  0  0  0  0
    6.7940    0.8600   21.8930 O   0  0  0  0  0  0  0  0  0  0  0  0
    7.6950    1.2180   20.8680 C   0  0  0  0  0  0  0  0  0  0  0  0
    7.0730    0.9310   19.6540 C   0  0  2  0  0  0  0  0  0  0  0  0
    5.8480    1.7520   19.5750 C   0  0  0  0  0  0  0  0  0  0  0  0
    5.6470    2.7350   20.5270 C   0  0  0  0  0  0  0  0  0  0  0  0
    4.6160    3.5460   20.5840 N   0  0  0  0  0  0  0  0  0  0  0  0
    3.6440    3.4060   19.6120 C   0  0  0  0  0  0  0  0  0  0  0  0
    3.7020    2.4690   18.5980 N   0  0  0  0  0  0  0  0  0  0  0  0
    4.8860    1.6210   18.6240 C   0  0  0  0  0  0  0  0  0  0  0  0
    6.9200   -0.4690   19.6200 C   0  0  1  0  0  0  0  0  0  0  0  0
    8.0320   -1.0850   20.3030 O   0  0  0  0  0  0  0  0  0  0  0  0
    5.8170   -0.7950   20.3920 C   0  0  2  0  0  0  0  0  0  0  0  0
    4.6980   -0.9630   19.5320 O   0  0  0  0  0  0  0  0  0  0  0  0
    1.7820    3.2870   22.9930 N   0  0  0  0  0  0  0  0  0  0  0  0
    0.5670    3.8000   23.5140 C   0  0  0  0  0  0  0  0  0  0  0  0
    0.4760    4.4130   24.7600 C   0  0  0  0  0  0  0  0  0  0  0  0
   -0.8640    5.0050   25.1620 C   0  0  0  0  0  0  0  0  0  0  0  0
   -1.9610    4.5290   24.2140 C   0  0  0  0  0  0  0  0  0  0  0  0
   -1.8400    3.2600   23.6490 C   0  0  0  0  0  0  0  0  0  0  0  0
   -0.5600    2.7540   23.3830 C   0  0  0  0  0  0  0  0  0  0  0  0
  1  2  2  0
  2  3  1  0
  3  4  1  0
  4  5  1  0
  6  5  1  1
  6  7  1  0
  7  8  1  0
  8  9  1  0
  9 10  1  1
 10 11  2  0
 11 12  1  0
 12 13  2  0
 13 14  1  0
 10 15  1  0
 14 15  2  0
  9 16  1  0
 16 17  1  1
  6 18  1  0
 16 18  1  0
 18 19  1  6
  2 20  1  0
 20 21  1  0
 21 22  1  0
 22 23  1  0
 23 24  1  0
 24 25  1  0
 21 26  1  0
 25 26  1  0
M  END
