MAK-UNK-0d6072ac-6
     RDKit          3D

 19 21  0  0  0  0  0  0  0  0999 V2000
    6.0860   -5.9250   21.4230 C   0  0  0  0  0  0  0  0  0  0  0  0
    6.0060   -5.5220   22.8730 C   0  0  2  0  0  0  0  0  0  0  0  0
    4.9190   -4.7220   23.2140 C   0  0  0  0  0  0  0  0  0  0  0  0
    4.3430   -4.7650   24.3000 O   0  0  0  0  0  0  0  0  0  0  0  0
    4.5180   -3.8650   22.2300 O   0  0  0  0  0  0  0  0  0  0  0  0
    7.3380   -4.9060   23.2740 C   0  0  0  0  0  0  0  0  0  0  0  0
    8.1350   -5.6270   24.1350 C   0  0  0  0  0  0  0  0  0  0  0  0
    9.4520   -5.1290   24.5930 C   0  0  0  0  0  0  0  0  0  0  0  0
    9.9880   -3.8130   24.1530 C   0  0  0  0  0  0  0  0  0  0  0  0
    9.0710   -3.1270   23.2430 C   0  0  0  0  0  0  0  0  0  0  0  0
    7.7470   -3.6660   22.7980 C   0  0  0  0  0  0  0  0  0  0  0  0
    9.6980   -1.8570   22.8760 N   0  0  0  0  0  0  0  0  0  0  0  0
   10.9120   -1.8080   23.5400 C   0  0  0  0  0  0  0  0  0  0  0  0
   11.8780   -0.8250   23.5270 C   0  0  0  0  0  0  0  0  0  0  0  0
   12.9920   -1.0420   24.2920 C   0  0  0  0  0  0  0  0  0  0  0  0
   13.1260   -2.1930   25.0410 C   0  0  0  0  0  0  0  0  0  0  0  0
   14.4140   -2.5880   26.0330 Cl  0  0  0  0  0  0  0  0  0  0  0  0
   12.1840   -3.1910   25.0700 C   0  0  0  0  0  0  0  0  0  0  0  0
   11.0990   -2.9870   24.3220 C   0  0  0  0  0  0  0  0  0  0  0  0
  2  1  1  6
  2  3  1  0
  3  4  2  0
  3  5  1  0
  2  6  1  0
  6  7  2  0
  7  8  1  0
  8  9  2  0
  9 10  1  0
  6 11  1  0
 10 11  2  0
 10 12  1  0
 12 13  1  0
 13 14  1  0
 14 15  2  0
 15 16  1  0
 16 17  1  0
 16 18  2  0
  9 19  1  0
 13 19  2  0
 18 19  1  0
M  END
