MAK-UNK-a7992eb3-14
     RDKit          3D

 27 28  0  0  0  0  0  0  0  0999 V2000
    5.6050   -1.1240   18.7080 C   0  0  0  0  0  0  0  0  0  0  0  0
    5.1520   -0.3560   19.7770 C   0  0  0  0  0  0  0  0  0  0  0  0
    4.1790    0.3930   19.6970 O   0  0  0  0  0  0  0  0  0  0  0  0
    5.9580   -0.5250   21.0100 N   0  0  0  0  0  0  0  0  0  0  0  0
    5.4540    0.1960   22.1910 C   0  0  2  0  0  0  0  0  0  0  0  0
    6.3250    1.3710   22.5480 C   0  0  0  0  0  0  0  0  0  0  0  0
    7.5500    1.2580   22.6100 O   0  0  0  0  0  0  0  0  0  0  0  0
    5.6730    2.6150   22.7960 N   0  0  0  0  0  0  0  0  0  0  0  0
    5.8680    3.7340   22.0410 C   0  0  0  0  0  0  0  0  0  0  0  0
    6.1610    4.9460   22.6730 C   0  0  0  0  0  0  0  0  0  0  0  0
    5.1200    5.8020   23.0230 C   0  0  0  0  0  0  0  0  0  0  0  0
    3.6950    6.9730   23.5170 Br  0  0  0  0  0  0  0  0  0  0  0  0
    5.1990   -0.7350   23.4180 C   0  0  1  0  0  0  0  0  0  0  0  0
    3.8950   -0.5970   23.8930 C   0  0  0  0  0  0  0  0  0  0  0  0
    5.3590   -2.1370   23.0710 O   0  0  0  0  0  0  0  0  0  0  0  0
    5.2100   -3.0910   24.1650 C   0  0  0  0  0  0  0  0  0  0  0  0
    6.2680   -2.9060   25.0130 C   0  0  0  0  0  0  0  0  0  0  0  0
    7.4230   -2.7370   24.2610 C   0  0  0  0  0  0  0  0  0  0  0  0
    7.5590   -3.9080   23.4640 N   0  0  0  0  0  0  0  0  0  0  0  0
    7.5870   -3.6350   22.1330 C   0  0  0  0  0  0  0  0  0  0  0  0
    6.8940   -4.6830   21.8170 C   0  0  0  0  0  0  0  0  0  0  0  0
    7.2120   -5.8460   22.4820 C   0  0  0  0  0  0  0  0  0  0  0  0
    6.4900   -6.9180   22.2000 C   0  0  0  0  0  0  0  0  0  0  0  0
    5.3750   -6.4230   21.0410 S   0  0  0  0  0  0  0  0  0  0  0  0
    5.8760   -4.8310   20.9550 C   0  0  0  0  0  0  0  0  0  0  0  0
    6.5750   -4.9940   23.7550 C   0  0  0  0  0  0  0  0  0  0  0  0
    5.2610   -4.5420   23.6620 C   0  0  0  0  0  0  0  0  0  0  0  0
  1  2  1  0
  2  3  2  0
  2  4  1  0
  5  4  1  6
  5  6  1  0
  6  7  2  0
  6  8  1  0
  8  9  1  0
  9 10  1  0
 10 11  3  0
 11 12  1  0
  5 13  1  0
 13 14  1  6
 13 15  1  0
 15 16  1  0
 16 17  1  0
 17 18  1  0
 18 19  1  0
 19 20  1  0
 20 21  1  0
 21 22  1  0
 22 23  2  0
 23 24  1  0
 21 25  2  0
 24 25  1  0
 19 26  1  0
 16 27  1  0
 26 27  1  0
M  END
