MAK-UNK-01147c51-13
     RDKit          3D

 24 26  0  0  0  0  0  0  0  0999 V2000
   13.8670   -2.7200   23.6420 N   0  0  0  0  0  0  0  0  0  0  0  0
   12.8380   -2.4210   24.6650 C   0  0  0  0  0  0  0  0  0  0  0  0
   11.5090   -2.2440   23.9640 C   0  0  1  0  0  0  0  0  0  0  0  0
   10.3520   -2.9050   24.3270 O   0  0  0  0  0  0  0  0  0  0  0  0
    8.9210   -2.5760   23.8720 C   0  0  2  0  0  0  0  0  0  0  0  0
    7.8400   -3.5850   23.3920 C   0  0  2  0  0  0  0  0  0  0  0  0
    7.6690   -4.9210   23.7990 C   0  0  0  0  0  0  0  0  0  0  0  0
    6.9330   -5.9180   22.9080 C   0  0  0  0  0  0  0  0  0  0  0  0
    5.8470   -5.1390   22.2210 C   0  0  0  0  0  0  0  0  0  0  0  0
    6.4980   -4.2860   21.2040 C   0  0  1  0  0  0  0  0  0  0  0  0
    5.8060   -3.4690   20.3310 N   0  0  0  0  0  0  0  0  0  0  0  0
    6.2720   -2.2870   19.6990 C   0  0  0  0  0  0  0  0  0  0  0  0
    5.5380   -1.0980   19.7660 C   0  0  0  0  0  0  0  0  0  0  0  0
    5.2130   -0.7940   21.1220 O   0  0  0  0  0  0  0  0  0  0  0  0
    7.6450   -3.4640   21.8630 C   0  0  0  0  0  0  0  0  0  0  0  0
    9.3010   -1.6490   22.8030 C   0  0  0  0  0  0  0  0  0  0  0  0
   10.5150   -1.6550   23.3370 C   0  0  0  0  0  0  0  0  0  0  0  0
   11.4190   -0.7880   23.4200 C   0  0  0  0  0  0  0  0  0  0  0  0
   12.7870   -0.5040   23.9310 C   0  0  0  0  0  0  0  0  0  0  0  0
   13.1680   -1.6680   24.5700 C   0  0  0  0  0  0  0  0  0  0  0  0
   12.3050   -2.7540   24.6020 C   0  0  0  0  0  0  0  0  0  0  0  0
   12.8640   -3.6280   25.2150 O   0  0  0  0  0  0  0  0  0  0  0  0
   10.9950   -2.8070   24.0110 C   0  0  0  0  0  0  0  0  0  0  0  0
   10.3010   -3.8160   24.0930 O   0  0  0  0  0  0  0  0  0  0  0  0
  1  2  1  0
  3  2  1  1
  3  4  1  0
  4  5  1  0
  5  6  1  0
  6  7  1  6
  7  8  1  0
  8  9  1  0
  9 10  1  0
 10 11  1  1
 11 12  1  0
 12 13  1  0
 13 14  1  0
  6 15  1  0
 10 15  1  0
  5 16  1  6
 16 17  1  0
  3 18  1  0
 17 18  2  0
 18 19  1  0
 19 20  2  0
 20 21  1  0
 21 22  1  0
 17 23  1  0
 21 23  2  0
 23 24  1  0
M  END
