MAK-UNK-60abb798-8
     RDKit          3D

 20 22  0  0  0  0  0  0  0  0999 V2000
   12.8250   -2.2510   21.9730 N   0  0  0  0  0  0  0  0  0  0  0  0
   12.8820   -2.4870   23.4310 C   0  0  0  0  0  0  0  0  0  0  0  0
   11.6280   -2.1750   24.2360 C   0  0  2  0  0  0  0  0  0  0  0  0
   10.5440   -3.0460   24.1200 O   0  0  0  0  0  0  0  0  0  0  0  0
    9.3210   -2.7820   23.2250 C   0  0  1  0  0  0  0  0  0  0  0  0
    8.1940   -3.6630   23.1920 C   0  0  0  0  0  0  0  0  0  0  0  0
    7.0670   -3.1060   22.4230 C   0  0  0  0  0  0  0  0  0  0  0  0
    6.1540   -3.9860   21.8170 C   0  0  0  0  0  0  0  0  0  0  0  0
    6.2920   -5.3380   22.2090 C   0  0  0  0  0  0  0  0  0  0  0  0
    6.9380   -5.6890   23.5590 C   0  0  0  0  0  0  0  0  0  0  0  0
    7.7690   -4.5630   24.1560 C   0  0  0  0  0  0  0  0  0  0  0  0
    9.2120   -1.5250   23.5600 C   0  0  0  0  0  0  0  0  0  0  0  0
   10.4960   -1.6070   23.8890 C   0  0  0  0  0  0  0  0  0  0  0  0
   11.3900   -0.7350   23.7510 C   0  0  0  0  0  0  0  0  0  0  0  0
   12.7330   -0.5220   23.9630 C   0  0  0  0  0  0  0  0  0  0  0  0
   13.2880   -1.6440   24.5480 C   0  0  0  0  0  0  0  0  0  0  0  0
   12.5130   -2.7130   24.8150 C   0  0  0  0  0  0  0  0  0  0  0  0
   13.2990   -3.7190   25.4400 O   0  0  0  0  0  0  0  0  0  0  0  0
   11.1070   -2.7600   24.4960 C   0  0  0  0  0  0  0  0  0  0  0  0
   10.4640   -3.9130   24.8150 O   0  0  0  0  0  0  0  0  0  0  0  0
  1  2  1  0
  3  2  1  6
  3  4  1  0
  4  5  1  0
  5  6  1  1
  6  7  1  0
  7  8  1  0
  8  9  1  0
  9 10  1  0
  6 11  1  0
 10 11  1  0
  5 12  1  0
 12 13  1  0
  3 14  1  0
 13 14  2  0
 14 15  1  0
 15 16  2  0
 16 17  1  0
 17 18  1  0
 13 19  1  0
 17 19  2  0
 19 20  1  0
M  END
