MAK-UNK-de8f6d00-2
     RDKit          3D

 34 38  0  0  0  0  0  0  0  0999 V2000
   16.7120   -3.3270   25.9650 O   0  0  0  0  0  0  0  0  0  0  0  0
   16.3530   -2.2860   26.0010 C   0  0  0  0  0  0  0  0  0  0  0  0
   17.2840   -1.3260   26.1000 N   0  0  0  0  0  0  0  0  0  0  0  0
   18.6750   -1.4350   25.7210 C   0  0  0  0  0  0  0  0  0  0  0  0
   19.0580   -0.7590   24.4840 C   0  0  0  0  0  0  0  0  0  0  0  0
   20.3730   -0.8190   24.0750 C   0  0  0  0  0  0  0  0  0  0  0  0
   21.2650   -1.5210   24.8640 C   0  0  0  0  0  0  0  0  0  0  0  0
   21.0100   -2.1860   26.0390 N   0  0  0  0  0  0  0  0  0  0  0  0
   19.6900   -2.1240   26.4460 C   0  0  0  0  0  0  0  0  0  0  0  0
   15.0200   -1.9620   25.9140 N   0  0  0  0  0  0  0  0  0  0  0  0
   14.1480   -2.1280   24.8010 C   0  0  0  0  0  0  0  0  0  0  0  0
   14.4470   -3.0670   23.5230 C   0  0  0  0  0  0  0  0  0  0  0  0
   13.3770   -3.0840   22.4410 C   0  0  0  0  0  0  0  0  0  0  0  0
   12.4400   -2.1950   22.9810 C   0  0  0  0  0  0  0  0  0  0  0  0
   12.0380   -1.3480   23.9850 C   0  0  0  0  0  0  0  0  0  0  0  0
   10.9040   -0.7180   23.8810 N   0  0  0  0  0  0  0  0  0  0  0  0
    9.8110   -1.5400   23.3810 C   0  0  0  0  0  0  0  0  0  0  0  0
    8.6200   -0.6840   23.6960 C   0  0  0  0  0  0  0  0  0  0  0  0
    8.7660    0.5520   22.9710 N   0  0  0  0  0  0  0  0  0  0  0  0
    8.4820    0.5930   21.5360 C   0  0  0  0  0  0  0  0  0  0  0  0
    8.7200    1.7220   20.8370 O   0  0  0  0  0  0  0  0  0  0  0  0
    7.9220   -0.7000   20.9420 C   0  0  0  0  0  0  0  0  0  0  0  0
    7.0370   -0.2660   19.7980 C   0  0  0  0  0  0  0  0  0  0  0  0
    7.2750   -0.7110   18.5260 C   0  0  0  0  0  0  0  0  0  0  0  0
    6.3440   -0.1470   17.7890 N   0  0  0  0  0  0  0  0  0  0  0  0
    5.3100    0.7420   18.2160 C   0  0  0  0  0  0  0  0  0  0  0  0
    4.2910    1.6170   18.6360 N   0  0  0  0  0  0  0  0  0  0  0  0
    3.8260    2.1860   19.7540 C   0  0  0  0  0  0  0  0  0  0  0  0
    4.3130    2.0570   21.0960 C   0  0  0  0  0  0  0  0  0  0  0  0
    5.4610    1.1680   21.0370 C   0  0  0  0  0  0  0  0  0  0  0  0
    5.9200    0.5580   19.6750 C   0  0  0  0  0  0  0  0  0  0  0  0
    9.8500    1.3590   23.4590 C   0  0  0  0  0  0  0  0  0  0  0  0
   11.0360    0.6620   23.4050 C   0  0  0  0  0  0  0  0  0  0  0  0
   12.9890   -1.3350   24.9700 C   0  0  0  0  0  0  0  0  0  0  0  0
  1  2  2  0
  2  3  1  0
  3  4  1  0
  4  5  2  0
  5  6  1  0
  6  7  2  0
  7  8  1  0
  4  9  1  0
  8  9  2  0
  2 10  1  0
 10 11  1  0
 11 12  2  0
 12 13  1  0
 13 14  2  0
 14 15  1  0
 15 16  1  0
 16 17  1  0
 17 18  1  0
 18 19  1  0
 19 20  1  0
 20 21  2  0
 20 22  1  0
 22 23  1  0
 23 24  2  0
 24 25  1  0
 25 26  1  0
 26 27  1  0
 27 28  2  0
 28 29  1  0
 29 30  2  0
 23 31  1  0
 26 31  2  0
 30 31  1  0
 19 32  1  0
 16 33  1  0
 32 33  1  0
 11 34  1  0
 15 34  2  0
M  END
