MAK-UNK-1bb0b7ee-11
     RDKit          3D

 21 23  0  0  0  0  0  0  0  0999 V2000
    4.3210   -6.4840   22.5550 C   0  0  0  0  0  0  0  0  0  0  0  0
    5.3760   -5.7150   23.2250 C   0  0  2  0  0  0  0  0  0  0  0  0
    4.7950   -4.7930   24.2410 C   0  0  1  0  0  0  0  0  0  0  0  0
    3.9960   -5.2230   25.0860 O   0  0  0  0  0  0  0  0  0  0  0  0
    4.3560   -5.2130   26.4980 C   0  0  0  0  0  0  0  0  0  0  0  0
    3.4490   -4.6550   27.4550 C   0  0  0  0  0  0  0  0  0  0  0  0
    2.2560   -5.8310   27.2180 S   0  0  0  0  0  0  0  0  0  0  0  0
    1.7230   -5.9030   25.8110 O   0  0  0  0  0  0  0  0  0  0  0  0
    1.4540   -6.0730   28.4010 O   0  0  0  0  0  0  0  0  0  0  0  0
    3.8800   -6.4050   27.3550 C   0  0  0  0  0  0  0  0  0  0  0  0
    5.8430   -4.2000   24.9380 C   0  0  0  0  0  0  0  0  0  0  0  0
    6.8290   -3.5520   24.0000 C   0  0  0  0  0  0  0  0  0  0  0  0
    7.3120   -4.3820   22.9850 C   0  0  0  0  0  0  0  0  0  0  0  0
    6.1770   -5.0690   22.3420 N   0  0  0  0  0  0  0  0  0  0  0  0
    5.7400   -4.4890   21.1840 C   0  0  0  0  0  0  0  0  0  0  0  0
    5.4670   -3.1230   20.9650 C   0  0  0  0  0  0  0  0  0  0  0  0
    5.1970   -2.1880   22.1010 C   0  0  0  0  0  0  0  0  0  0  0  0
    4.9380   -0.8510   21.8270 C   0  0  0  0  0  0  0  0  0  0  0  0
    4.9330   -0.3990   20.5080 C   0  0  0  0  0  0  0  0  0  0  0  0
    5.1890   -1.2590   19.2870 C   0  0  0  0  0  0  0  0  0  0  0  0
    5.4390   -2.5950   19.6580 C   0  0  0  0  0  0  0  0  0  0  0  0
  2  1  1  6
  2  3  1  0
  3  4  1  1
  4  5  1  0
  5  6  1  0
  7  6  1  0
  7  8  2  0
  7  9  2  0
  5 10  1  0
  7 10  1  0
  3 11  1  0
 11 12  1  0
 12 13  1  0
  2 14  1  0
 13 14  1  0
 14 15  1  0
 15 16  1  0
 16 17  2  0
 17 18  1  0
 18 19  2  0
 19 20  1  0
 16 21  1  0
 20 21  2  0
M  END
