MAK-UNK-9955b1f3-14
     RDKit          3D

 13 14  0  0  0  0  0  0  0  0999 V2000
    8.3730   -0.9220   21.1380 N   0  0  0  0  0  0  0  0  0  0  0  0
    8.6250   -1.7430   22.1870 C   0  0  0  0  0  0  0  0  0  0  0  0
    9.8960   -2.4060   22.1540 C   0  0  0  0  0  0  0  0  0  0  0  0
    9.9690   -3.1720   23.2070 N   0  0  0  0  0  0  0  0  0  0  0  0
    8.8320   -3.0670   23.9380 C   0  0  0  0  0  0  0  0  0  0  0  0
    8.6690   -3.8170   25.0940 N   0  0  0  0  0  0  0  0  0  0  0  0
    8.8650   -5.1380   25.0830 C   0  0  0  0  0  0  0  0  0  0  0  0
    7.9510   -5.6140   23.9460 C   0  0  0  0  0  0  0  0  0  0  0  0
    6.5290   -5.3320   24.3650 C   0  0  0  0  0  0  0  0  0  0  0  0
    6.3790   -5.3130   25.5770 O   0  0  0  0  0  0  0  0  0  0  0  0
    6.4460   -4.0130   26.1690 C   0  0  0  0  0  0  0  0  0  0  0  0
    7.8670   -3.4000   26.1870 C   0  0  0  0  0  0  0  0  0  0  0  0
    7.9190   -2.1460   23.3360 N   0  0  0  0  0  0  0  0  0  0  0  0
  1  2  1  0
  2  3  2  0
  3  4  2  0
  4  5  1  0
  5  6  1  0
  6  7  1  0
  7  8  1  0
  8  9  1  0
  9 10  1  0
 10 11  1  0
  6 12  1  0
 11 12  1  0
  2 13  1  0
  5 13  2  0
M  END
