MAK-UNK-f0bfc2e0-2
     RDKit          3D

 25 27  0  0  0  0  0  0  0  0999 V2000
    4.7370   -3.6100   25.1820 C   0  0  0  0  0  0  0  0  0  0  0  0
    6.4850   -3.7330   25.2800 S   0  0  0  0  0  0  0  0  0  0  0  0
    6.8170   -5.0630   24.7790 O   0  0  0  0  0  0  0  0  0  0  0  0
    6.8280   -3.3040   26.6220 O   0  0  0  0  0  0  0  0  0  0  0  0
    7.1380   -2.6660   24.1700 N   0  0  0  0  0  0  0  0  0  0  0  0
    8.5410   -2.4650   23.9630 C   0  0  0  0  0  0  0  0  0  0  0  0
    9.0580   -1.7270   22.7200 C   0  0  2  0  0  0  0  0  0  0  0  0
   10.4900   -1.1520   22.7610 C   0  0  0  0  0  0  0  0  0  0  0  0
   10.6680    0.3040   23.0090 C   0  0  0  0  0  0  0  0  0  0  0  0
   12.0400    0.9060   23.0330 C   0  0  0  0  0  0  0  0  0  0  0  0
   13.1220    0.0720   22.8290 C   0  0  0  0  0  0  0  0  0  0  0  0
   12.9340   -1.3030   22.6020 C   0  0  0  0  0  0  0  0  0  0  0  0
   11.6530   -1.9030   22.5680 C   0  0  0  0  0  0  0  0  0  0  0  0
    8.0100   -0.6650   22.2710 C   0  0  1  0  0  0  0  0  0  0  0  0
    8.5130    0.4720   21.6470 C   0  0  0  0  0  0  0  0  0  0  0  0
    7.6510    1.1550   20.8240 C   0  0  0  0  0  0  0  0  0  0  0  0
    6.9420    0.3810   19.7560 C   0  0  2  0  0  0  0  0  0  0  0  0
    6.1470    0.9810   18.8200 C   0  0  0  0  0  0  0  0  0  0  0  0
    5.1440    1.7320   18.1370 C   0  0  0  0  0  0  0  0  0  0  0  0
    3.9990    2.5840   18.3790 C   0  0  0  0  0  0  0  0  0  0  0  0
    3.9780    2.5950   19.7470 C   0  0  0  0  0  0  0  0  0  0  0  0
    4.7540    2.0140   20.5810 N   0  0  0  0  0  0  0  0  0  0  0  0
    5.7220    1.2930   20.1020 C   0  0  0  0  0  0  0  0  0  0  0  0
    6.0360   -0.4740   20.5870 C   0  0  0  0  0  0  0  0  0  0  0  0
    6.8670   -1.3630   21.4860 C   0  0  0  0  0  0  0  0  0  0  0  0
  1  2  1  0
  2  3  2  0
  2  4  2  0
  2  5  1  0
  5  6  1  0
  7  6  1  1
  7  8  1  0
  8  9  2  0
  9 10  1  0
 10 11  2  0
 11 12  1  0
  8 13  1  0
 12 13  2  0
  7 14  1  0
 14 15  1  6
 15 16  1  0
 16 17  1  0
 17 18  1  6
 18 19  2  0
 19 20  1  0
 20 21  2  0
 21 22  1  0
 18 23  1  0
 22 23  2  0
 17 24  1  0
 14 25  1  0
 24 25  1  0
M  END
