MAK-UNK-de9577cf-16
     RDKit          3D

 37 40  0  0  0  0  0  0  0  0999 V2000
   18.5610   -6.7310   31.1710 C   0  0  0  0  0  0  0  0  0  0  0  0
   18.9810   -6.6770   29.1200 N   0  0  0  0  0  0  0  0  0  0  0  0
   19.5620   -5.3660   27.5720 C   0  0  0  0  0  0  0  0  0  0  0  0
   19.8960   -3.3460   26.6810 C   0  0  0  0  0  0  0  0  0  0  0  0
   20.7970   -2.2300   26.1080 C   0  0  0  0  0  0  0  0  0  0  0  0
   20.0570   -1.0290   25.5740 C   0  0  0  0  0  0  0  0  0  0  0  0
   20.9960   -0.1450   25.0680 C   0  0  0  0  0  0  0  0  0  0  0  0
   21.4360    0.9140   25.8710 C   0  0  0  0  0  0  0  0  0  0  0  0
   22.5240    1.8280   25.3050 C   0  0  0  0  0  0  0  0  0  0  0  0
   23.0880    1.5760   23.9370 C   0  0  0  0  0  0  0  0  0  0  0  0
   22.5100    0.4100   23.1970 C   0  0  0  0  0  0  0  0  0  0  0  0
   21.5170   -0.3770   23.7740 C   0  0  0  0  0  0  0  0  0  0  0  0
   21.0510   -1.4380   23.0190 F   0  0  0  0  0  0  0  0  0  0  0  0
   18.5350   -1.3130   25.8540 N   0  0  0  0  0  0  0  0  0  0  0  0
   16.3780   -1.6620   26.2260 S   0  0  0  0  0  0  0  0  0  0  0  0
   15.9040   -1.0800   27.1650 O   0  0  0  0  0  0  0  0  0  0  0  0
   16.6000   -2.8470   25.8520 O   0  0  0  0  0  0  0  0  0  0  0  0
   14.4900   -2.1600   25.5390 C   0  0  0  0  0  0  0  0  0  0  0  0
   13.9180   -3.3280   25.8270 C   0  0  0  0  0  0  0  0  0  0  0  0
   12.7260   -3.7030   25.3600 N   0  0  0  0  0  0  0  0  0  0  0  0
   11.8650   -3.1280   24.6020 C   0  0  0  0  0  0  0  0  0  0  0  0
   12.2340   -1.8910   24.1840 C   0  0  0  0  0  0  0  0  0  0  0  0
   13.4350   -1.4520   24.6080 C   0  0  0  0  0  0  0  0  0  0  0  0
   13.4760   -0.2280   23.9910 O   0  0  0  0  0  0  0  0  0  0  0  0
   12.7610   -0.0350   22.8120 C   0  0  0  0  0  0  0  0  0  0  0  0
   12.6810   -0.8670   21.7650 O   0  0  0  0  0  0  0  0  0  0  0  0
   12.0250    1.2960   22.8260 C   0  0  0  0  0  0  0  0  0  0  0  0
   10.6740    1.3640   23.0920 C   0  0  0  0  0  0  0  0  0  0  0  0
   10.0490    2.6170   23.1950 C   0  0  0  0  0  0  0  0  0  0  0  0
   10.7950    3.7900   23.0340 C   0  0  0  0  0  0  0  0  0  0  0  0
   10.0500    5.3750   23.2810 S   0  0  0  0  0  0  0  0  0  0  0  0
    8.5590    5.2160   22.5470 N   0  0  0  0  0  0  0  0  0  0  0  0
   10.8120    6.3780   22.5810 O   0  0  0  0  0  0  0  0  0  0  0  0
    9.7670    5.5070   24.7000 O   0  0  0  0  0  0  0  0  0  0  0  0
   12.1320    3.7080   22.7050 C   0  0  0  0  0  0  0  0  0  0  0  0
   12.7270    2.4600   22.6000 C   0  0  0  0  0  0  0  0  0  0  0  0
   18.8580   -2.2980   26.2650 C   0  0  0  0  0  0  0  0  0  0  0  0
  1  2  1  0
  2  3  1  0
  3  4  1  0
  4  5  1  0
  5  6  2  0
  6  7  1  0
  7  8  2  0
  8  9  1  0
  9 10  2  0
 10 11  1  0
  7 12  1  0
 11 12  2  0
 12 13  1  0
  6 14  1  0
 14 15  1  0
 15 16  2  0
 15 17  2  0
 15 18  1  0
 18 19  2  0
 19 20  1  0
 20 21  2  0
 21 22  1  0
 18 23  1  0
 22 23  2  0
 23 24  1  0
 24 25  1  0
 25 26  2  0
 25 27  1  0
 27 28  2  0
 28 29  1  0
 29 30  2  0
 30 31  1  0
 31 32  1  0
 31 33  2  0
 31 34  2  0
 30 35  1  0
 27 36  1  0
 35 36  2  0
  4 37  2  0
 14 37  1  0
M  END
