MAK-UNK-198e6d85-6
     RDKit          3D

 22 24  0  0  0  0  0  0  0  0999 V2000
    6.0320   -2.2970   19.6950 C   0  0  0  0  0  0  0  0  0  0  0  0
    5.5970   -3.3840   20.4500 C   0  0  0  0  0  0  0  0  0  0  0  0
    6.5600   -3.9270   21.4190 N   0  0  0  0  0  0  0  0  0  0  0  0
    6.1610   -5.2390   21.9280 C   0  0  0  0  0  0  0  0  0  0  0  0
    6.9280   -5.6600   23.1240 C   0  0  0  0  0  0  0  0  0  0  0  0
    7.5950   -4.5930   23.9700 C   0  0  0  0  0  0  0  0  0  0  0  0
    8.1170   -3.4790   23.2710 C   0  0  2  0  0  0  0  0  0  0  0  0
    9.0080   -2.5460   23.9060 C   0  0  2  0  0  0  0  0  0  0  0  0
    9.1800   -1.3670   23.3320 C   0  0  0  0  0  0  0  0  0  0  0  0
   10.4530   -1.4050   23.6840 C   0  0  0  0  0  0  0  0  0  0  0  0
   11.5110   -0.4980   23.5490 C   0  0  0  0  0  0  0  0  0  0  0  0
   12.8270   -0.4210   23.8570 C   0  0  0  0  0  0  0  0  0  0  0  0
   13.2850   -1.5660   24.5130 C   0  0  0  0  0  0  0  0  0  0  0  0
   12.4040   -2.5880   24.7690 C   0  0  0  0  0  0  0  0  0  0  0  0
   12.9680   -3.6370   25.4260 O   0  0  0  0  0  0  0  0  0  0  0  0
   11.0150   -2.5090   24.3590 C   0  0  0  0  0  0  0  0  0  0  0  0
   10.1780   -3.5150   24.6220 O   0  0  0  0  0  0  0  0  0  0  0  0
   11.5910   -1.9040   24.1500 C   0  0  2  0  0  0  0  0  0  0  0  0
   12.6770   -2.4550   23.4310 C   0  0  0  0  0  0  0  0  0  0  0  0
   12.4860   -2.3910   21.9670 N   0  0  0  0  0  0  0  0  0  0  0  0
   10.3090   -2.8490   24.1070 O   0  0  0  0  0  0  0  0  0  0  0  0
    6.9810   -2.9190   22.4290 C   0  0  0  0  0  0  0  0  0  0  0  0
  1  2  1  0
  2  3  1  0
  3  4  1  0
  4  5  1  0
  5  6  1  0
  7  6  1  1
  7  8  1  0
  8  9  1  6
  9 10  1  0
 10 11  2  0
 11 12  1  0
 12 13  2  0
 13 14  1  0
 14 15  1  0
 10 16  1  0
 14 16  2  0
 16 17  1  0
 11 18  1  0
 18 19  1  6
 19 20  1  0
  8 21  1  0
 18 21  1  0
  3 22  1  0
  7 22  1  0
M  END
