MAK-UNK-bdda130a-7
     RDKit          3D

 23 26  0  0  0  0  0  0  0  0999 V2000
    3.0820   -4.3950   27.3580 C   0  0  0  0  0  0  0  0  0  0  0  0
    4.2440   -4.8600   26.0550 S   0  0  0  0  0  0  0  0  0  0  0  0
    5.8300   -5.4580   26.3610 C   0  0  0  0  0  0  0  0  0  0  0  0
    2.9730   -4.3970   24.9640 C   0  0  0  0  0  0  0  0  0  0  0  0
    2.9480   -3.2260   26.0070 C   0  0  0  0  0  0  0  0  0  0  0  0
    2.2030   -3.5090   24.8810 C   0  0  0  0  0  0  0  0  0  0  0  0
    3.6610   -4.5790   25.6180 S   0  0  0  0  0  0  0  0  0  0  0  0
    3.3860   -5.5710   24.3800 C   0  0  0  0  0  0  0  0  0  0  0  0
    4.5150   -4.9990   24.3540 N   0  0  0  0  0  0  0  0  0  0  0  0
    5.3010   -6.0370   23.8690 C   0  0  0  0  0  0  0  0  0  0  0  0
    5.6980   -6.2070   22.4990 C   0  0  0  0  0  0  0  0  0  0  0  0
    6.3680   -5.0210   21.9880 N   0  0  0  0  0  0  0  0  0  0  0  0
    6.4370   -4.2230   23.1780 C   0  0  0  0  0  0  0  0  0  0  0  0
    5.0880   -3.9730   23.4730 C   0  0  2  0  0  0  0  0  0  0  0  0
    4.7940   -2.5760   23.1940 N   0  0  0  0  0  0  0  0  0  0  0  0
    5.3200   -2.8910   21.8970 C   0  0  0  0  0  0  0  0  0  0  0  0
    5.4200   -1.4520   21.3040 C   0  0  0  0  0  0  0  0  0  0  0  0
    5.8060   -2.4980   20.5280 N   0  0  0  0  0  0  0  0  0  0  0  0
    5.4090   -3.0240   21.6670 C   0  0  0  0  0  0  0  0  0  0  0  0
    5.4280   -1.6540   21.3220 C   0  0  0  0  0  0  0  0  0  0  0  0
    5.7920   -2.8380   20.6620 C   0  0  0  0  0  0  0  0  0  0  0  0
    5.8970   -4.4160   20.7620 C   0  0  0  0  0  0  0  0  0  0  0  0
    5.5520   -5.0910   19.7900 O   0  0  0  0  0  0  0  0  0  0  0  0
  1  2  2  0
  2  3  2  0
  2  4  1  0
  4  5  1  0
  5  6  2  0
  6  7  1  0
  4  8  2  0
  7  8  1  0
  2  9  1  0
  9 10  1  0
 10 11  1  0
 11 12  1  0
 12 13  1  0
  9 14  1  0
 13 14  1  0
 14 15  1  1
 15 16  1  0
 16 17  1  0
 17 18  2  0
 18 19  1  0
 19 20  2  0
 16 21  2  0
 20 21  1  0
 12 22  1  0
 21 22  1  0
 22 23  2  0
M  END
