MAK-UNK-acefcb18-20
     RDKit          3D

 31 34  0  0  0  0  0  0  0  0999 V2000
   16.3850    3.3970   19.6720 C   0  0  0  0  0  0  0  0  0  0  0  0
   15.8250    2.6110   19.1540 C   0  0  0  0  0  0  0  0  0  0  0  0
   15.6710    1.2690   19.2360 C   0  0  0  0  0  0  0  0  0  0  0  0
   14.7160    0.8650   18.4530 C   0  0  0  0  0  0  0  0  0  0  0  0
   14.3190    1.9060   17.8660 C   0  0  0  0  0  0  0  0  0  0  0  0
   13.3850    1.5740   17.1640 O   0  0  0  0  0  0  0  0  0  0  0  0
   13.8840    0.5740   17.5120 C   0  0  0  0  0  0  0  0  0  0  0  0
   14.8930    1.0200   18.4790 C   0  0  0  0  0  0  0  0  0  0  0  0
   15.6900    1.9290   18.2210 O   0  0  0  0  0  0  0  0  0  0  0  0
   14.8280    0.3110   19.6670 N   0  0  0  0  0  0  0  0  0  0  0  0
   14.4150    0.8880   20.6070 C   0  0  0  0  0  0  0  0  0  0  0  0
   13.7810    0.0520   21.7840 C   0  0  0  0  0  0  0  0  0  0  0  0
   13.7260   -1.1850   21.9970 N   0  0  0  0  0  0  0  0  0  0  0  0
   12.5930   -1.2180   22.4640 C   0  0  0  0  0  0  0  0  0  0  0  0
   12.0440   -0.3190   23.3190 C   0  0  0  0  0  0  0  0  0  0  0  0
   10.5990   -0.5090   23.7290 C   0  0  0  0  0  0  0  0  0  0  0  0
    9.7230   -1.5780   23.3210 C   0  0  0  0  0  0  0  0  0  0  0  0
    8.4020   -1.6660   23.7660 C   0  0  0  0  0  0  0  0  0  0  0  0
    8.1850   -3.0000   24.2250 N   0  0  0  0  0  0  0  0  0  0  0  0
    9.2380   -3.7300   24.7940 C   0  0  0  0  0  0  0  0  0  0  0  0
    9.0140   -4.9170   25.4860 C   0  0  0  0  0  0  0  0  0  0  0  0
    8.0790   -4.8150   26.4990 C   0  0  0  0  0  0  0  0  0  0  0  0
    8.7210   -4.9270   27.5440 O   0  0  0  0  0  0  0  0  0  0  0  0
    7.3660   -3.6240   26.3700 C   0  0  0  0  0  0  0  0  0  0  0  0
    7.0260   -3.1280   25.0980 C   0  0  0  0  0  0  0  0  0  0  0  0
   10.2100   -2.5270   22.4640 C   0  0  0  0  0  0  0  0  0  0  0  0
   11.5630   -2.2170   22.1550 C   0  0  0  0  0  0  0  0  0  0  0  0
   13.5120   -1.6560   20.7530 C   0  0  0  0  0  0  0  0  0  0  0  0
   14.2430   -0.9570   19.7930 C   0  0  0  0  0  0  0  0  0  0  0  0
   14.7710    3.2460   17.9790 C   0  0  0  0  0  0  0  0  0  0  0  0
   15.4720    3.4970   18.6140 C   0  0  0  0  0  0  0  0  0  0  0  0
  1  2  1  0
  2  3  2  0
  3  4  1  0
  4  5  2  0
  5  6  1  0
  6  7  1  0
  7  8  1  0
  8  9  2  0
  8 10  1  0
 10 11  1  0
 11 12  1  0
 12 13  1  0
 13 14  1  0
 14 15  2  0
 15 16  1  0
 16 17  2  0
 17 18  1  0
 18 19  1  0
 19 20  1  0
 20 21  1  0
 21 22  1  0
 22 23  1  0
 22 24  1  0
 19 25  1  0
 24 25  1  0
 17 26  1  0
 14 27  1  0
 26 27  2  0
 13 28  1  0
 10 29  1  0
 28 29  1  0
  5 30  1  0
  2 31  1  0
 30 31  2  0
M  END
