MAK-UNK-8145c7a0-11
     RDKit          3D

 26 28  0  0  0  0  0  0  0  0999 V2000
    5.9540   -3.7860   21.9890 C   0  0  0  0  0  0  0  0  0  0  0  0
    5.6860   -5.5260   21.7150 S   0  0  0  0  0  0  0  0  0  0  0  0
    6.7990   -6.2380   22.3040 O   0  0  0  0  0  0  0  0  0  0  0  0
    5.3700   -5.6980   20.2970 O   0  0  0  0  0  0  0  0  0  0  0  0
    4.2820   -5.7760   22.6650 N   0  0  0  0  0  0  0  0  0  0  0  0
    4.1290   -6.9280   23.4920 C   0  0  0  0  0  0  0  0  0  0  0  0
    3.7390   -6.7870   24.9070 C   0  0  0  0  0  0  0  0  0  0  0  0
    4.5350   -5.9710   25.7080 C   0  0  0  0  0  0  0  0  0  0  0  0
    4.5960   -6.0440   27.1170 C   0  0  0  0  0  0  0  0  0  0  0  0
    5.3790   -5.2420   27.9450 C   0  0  0  0  0  0  0  0  0  0  0  0
    6.1940   -4.2580   27.3610 C   0  0  0  0  0  0  0  0  0  0  0  0
    6.1870   -4.1210   25.8480 C   0  0  0  0  0  0  0  0  0  0  0  0
    7.0390   -3.1010   25.1140 C   0  0  0  0  0  0  0  0  0  0  0  0
    7.8320   -3.7120   24.0740 N   0  0  0  0  0  0  0  0  0  0  0  0
    8.6040   -2.8530   23.3750 N   0  0  0  0  0  0  0  0  0  0  0  0
    8.3470   -1.5720   23.9190 C   0  0  0  0  0  0  0  0  0  0  0  0
    9.0530   -0.5080   23.2910 C   0  0  0  0  0  0  0  0  0  0  0  0
   10.3970   -0.5890   23.4440 N   0  0  0  0  0  0  0  0  0  0  0  0
   11.1430    0.2800   24.3120 C   0  0  0  0  0  0  0  0  0  0  0  0
   11.9100    1.1570   23.3580 C   0  0  0  0  0  0  0  0  0  0  0  0
   13.0330    0.3590   22.7500 C   0  0  0  0  0  0  0  0  0  0  0  0
   12.5670   -1.0320   22.3430 C   0  0  0  0  0  0  0  0  0  0  0  0
   13.3940   -1.8970   21.7700 F   0  0  0  0  0  0  0  0  0  0  0  0
   11.1060   -1.3920   22.6070 C   0  0  0  0  0  0  0  0  0  0  0  0
    7.2200   -1.4190   25.2700 S   0  0  0  0  0  0  0  0  0  0  0  0
    5.3150   -5.0270   25.0580 C   0  0  0  0  0  0  0  0  0  0  0  0
  1  2  1  0
  2  3  2  0
  2  4  2  0
  2  5  1  0
  5  6  1  0
  6  7  1  0
  7  8  1  0
  8  9  2  0
  9 10  1  0
 10 11  2  0
 11 12  1  0
 12 13  1  0
 13 14  2  0
 14 15  1  0
 15 16  2  0
 16 17  1  0
 17 18  1  0
 18 19  1  0
 19 20  1  0
 20 21  1  0
 21 22  2  0
 22 23  1  0
 18 24  1  0
 22 24  1  0
 13 25  1  0
 16 25  1  0
  8 26  1  0
 12 26  2  0
M  END
