MAK-UNK-f2409524-7
     RDKit          3D

 26 29  0  0  0  0  0  0  0  0999 V2000
    2.7110    1.3490   24.1570 O   0  0  0  0  0  0  0  0  0  0  0  0
    2.8400    2.2730   23.3630 C   0  0  0  0  0  0  0  0  0  0  0  0
    4.0570    2.5040   22.5860 N   0  0  0  0  0  0  0  0  0  0  0  0
    5.0850    1.6080   22.4730 C   0  0  0  0  0  0  0  0  0  0  0  0
    4.8060    0.2930   22.6550 N   0  0  0  0  0  0  0  0  0  0  0  0
    5.9640   -0.3750   22.4900 C   0  0  0  0  0  0  0  0  0  0  0  0
    6.2520   -1.8700   22.5770 C   0  0  0  0  0  0  0  0  0  0  0  0
    7.6960   -2.4150   22.3430 C   0  0  0  0  0  0  0  0  0  0  0  0
    8.8200   -1.4140   22.0220 C   0  0  0  0  0  0  0  0  0  0  0  0
    8.4320    0.0780   21.9550 C   0  0  0  0  0  0  0  0  0  0  0  0
    6.9640    0.5120   22.2070 C   0  0  0  0  0  0  0  0  0  0  0  0
    6.4020    1.8470   22.1920 N   0  0  0  0  0  0  0  0  0  0  0  0
    7.1200    3.0050   21.9400 C   0  0  0  0  0  0  0  0  0  0  0  0
    8.0400    3.4770   23.1000 C   0  0  0  0  0  0  0  0  0  0  0  0
    9.3310    3.7040   22.7770 C   0  0  0  0  0  0  0  0  0  0  0  0
   10.3010    4.1160   23.5850 N   0  0  0  0  0  0  0  0  0  0  0  0
    9.8740    4.3390   24.9840 C   0  0  0  0  0  0  0  0  0  0  0  0
    8.6100    4.1310   25.3790 N   0  0  0  0  0  0  0  0  0  0  0  0
    7.7210    3.7020   24.4200 C   0  0  0  0  0  0  0  0  0  0  0  0
    1.8390    3.2090   23.1080 N   0  0  0  0  0  0  0  0  0  0  0  0
    0.6030    3.3170   23.9070 C   0  0  0  0  0  0  0  0  0  0  0  0
    0.5570    4.6210   24.4040 C   0  0  0  0  0  0  0  0  0  0  0  0
   -0.6850    4.8730   24.9750 C   0  0  0  0  0  0  0  0  0  0  0  0
   -1.7650    4.5230   24.1610 C   0  0  0  0  0  0  0  0  0  0  0  0
   -1.7480    3.2070   23.7230 C   0  0  0  0  0  0  0  0  0  0  0  0
   -0.4890    2.9500   23.0970 C   0  0  0  0  0  0  0  0  0  0  0  0
  1  2  2  0
  2  3  1  0
  3  4  1  0
  4  5  2  0
  5  6  1  0
  6  7  2  0
  7  8  1  0
  8  9  2  0
  9 10  1  0
  6 11  1  0
 10 11  2  0
  4 12  1  0
 11 12  1  0
 12 13  1  0
 13 14  1  0
 14 15  2  0
 15 16  1  0
 16 17  2  0
 17 18  1  0
 14 19  1  0
 18 19  2  0
  2 20  1  0
 20 21  1  0
 21 22  1  0
 22 23  1  0
 23 24  1  0
 24 25  1  0
 21 26  1  0
 25 26  1  0
M  END
