MAK-UNK-8fdbca50-33
     RDKit          3D

 40 43  0  0  0  0  0  0  0  0999 V2000
   13.2600   -2.7170   23.3330 C   0  0  0  0  0  0  0  0  0  0  0  0
   12.0620   -2.8980   24.0180 C   0  0  0  0  0  0  0  0  0  0  0  0
   10.8070   -2.8640   23.3630 C   0  0  0  0  0  0  0  0  0  0  0  0
   12.0110   -2.0090   25.1160 N   0  0  0  0  0  0  0  0  0  0  0  0
   13.2710   -1.4360   25.3570 C   0  0  0  0  0  0  0  0  0  0  0  0
   10.9720   -1.1240   24.9040 C   0  0  0  0  0  0  0  0  0  0  0  0
   10.4190   -0.4520   25.7670 O   0  0  0  0  0  0  0  0  0  0  0  0
   10.5670   -1.0250   23.6080 C   0  0  0  0  0  0  0  0  0  0  0  0
    9.6120   -0.1080   23.4350 C   0  0  0  0  0  0  0  0  0  0  0  0
   10.0470    1.0940   23.9050 C   0  0  0  0  0  0  0  0  0  0  0  0
   11.2900    1.5600   23.6040 N   0  0  0  0  0  0  0  0  0  0  0  0
   11.2480    2.8350   23.1550 C   0  0  0  0  0  0  0  0  0  0  0  0
   12.1670    3.3100   22.4760 O   0  0  0  0  0  0  0  0  0  0  0  0
    9.9970    3.6900   23.5280 C   0  0  2  0  0  0  0  0  0  0  0  0
    8.7730    3.5080   22.2450 Cl  0  0  0  0  0  0  0  0  0  0  0  0
   10.3300    5.0680   23.6410 N   0  0  0  0  0  0  0  0  0  0  0  0
    9.7570    6.0920   22.8260 C   0  0  0  0  0  0  0  0  0  0  0  0
    9.2490    7.2250   23.4600 C   0  0  0  0  0  0  0  0  0  0  0  0
    8.1500    7.9200   22.9950 C   0  0  0  0  0  0  0  0  0  0  0  0
    7.8450    9.0020   23.7960 C   0  0  0  0  0  0  0  0  0  0  0  0
    6.7730    9.8670   23.5370 C   0  0  0  0  0  0  0  0  0  0  0  0
    6.9940   11.2410   23.4370 C   0  0  0  0  0  0  0  0  0  0  0  0
    5.9350   12.1130   23.1720 C   0  0  0  0  0  0  0  0  0  0  0  0
    4.6310   11.5990   23.0070 C   0  0  0  0  0  0  0  0  0  0  0  0
    4.3990   10.2290   23.1060 C   0  0  0  0  0  0  0  0  0  0  0  0
    5.4690    9.3760   23.3690 C   0  0  0  0  0  0  0  0  0  0  0  0
    5.2200    8.0590   23.4580 F   0  0  0  0  0  0  0  0  0  0  0  0
    8.8050    8.9710   24.8060 N   0  0  0  0  0  0  0  0  0  0  0  0
    8.9940   10.0440   26.1290 S   0  0  0  0  0  0  0  0  0  0  0  0
   10.0160    9.4570   26.9810 O   0  0  0  0  0  0  0  0  0  0  0  0
    7.6640   10.3240   26.6310 O   0  0  0  0  0  0  0  0  0  0  0  0
    9.6680   11.5110   25.4440 C   0  0  0  0  0  0  0  0  0  0  0  0
    8.8440   12.5650   25.0570 C   0  0  0  0  0  0  0  0  0  0  0  0
    9.4220   13.7070   24.5190 C   0  0  0  0  0  0  0  0  0  0  0  0
   10.8020   13.7510   24.3910 C   0  0  0  0  0  0  0  0  0  0  0  0
   11.6240   12.7430   24.7600 N   0  0  0  0  0  0  0  0  0  0  0  0
   11.0410   11.6350   25.2820 C   0  0  0  0  0  0  0  0  0  0  0  0
    9.6570    7.8930   24.6050 C   0  0  0  0  0  0  0  0  0  0  0  0
   12.3170    0.5940   23.1650 C   0  0  0  0  0  0  0  0  0  0  0  0
   11.7530   -0.7470   22.7160 C   0  0  0  0  0  0  0  0  0  0  0  0
  1  2  1  0
  2  3  1  0
  2  4  1  0
  4  5  1  0
  4  6  1  0
  6  7  2  0
  6  8  1  0
  8  9  1  0
  9 10  1  0
 10 11  1  0
 11 12  1  0
 12 13  2  0
 12 14  1  0
 14 15  1  6
 14 16  1  0
 16 17  1  0
 17 18  1  0
 18 19  1  0
 19 20  2  0
 20 21  1  0
 21 22  2  0
 22 23  1  0
 23 24  2  0
 24 25  1  0
 21 26  1  0
 25 26  2  0
 26 27  1  0
 20 28  1  0
 28 29  1  0
 29 30  2  0
 29 31  2  0
 29 32  1  0
 32 33  2  0
 33 34  1  0
 34 35  2  0
 35 36  1  0
 32 37  1  0
 36 37  2  0
 18 38  2  0
 28 38  1  0
 11 39  1  0
  8 40  1  0
 39 40  1  0
M  END
