MAK-UNK-c7aa8293-6
     RDKit          3D

 17 18  0  0  0  0  0  0  0  0999 V2000
    6.3490   -4.5510   24.2100 C   0  0  0  0  0  0  0  0  0  0  0  0
    7.7060   -4.6960   23.5170 C   0  0  0  0  0  0  0  0  0  0  0  0
    8.2640   -3.4950   23.0580 C   0  0  0  0  0  0  0  0  0  0  0  0
    9.1100   -2.6680   23.8100 C   0  0  2  0  0  0  0  0  0  0  0  0
    9.4720   -1.5990   23.1840 C   0  0  0  0  0  0  0  0  0  0  0  0
   10.6080   -1.5870   23.7950 C   0  0  0  0  0  0  0  0  0  0  0  0
   11.3210   -0.6280   24.0990 C   0  0  0  0  0  0  0  0  0  0  0  0
   12.4780   -0.3690   24.7230 C   0  0  0  0  0  0  0  0  0  0  0  0
   13.0600   -1.5190   25.1790 C   0  0  0  0  0  0  0  0  0  0  0  0
   12.4810   -2.7100   24.9660 C   0  0  0  0  0  0  0  0  0  0  0  0
   13.1840   -3.7610   25.4710 O   0  0  0  0  0  0  0  0  0  0  0  0
   11.2330   -2.7930   24.2760 C   0  0  0  0  0  0  0  0  0  0  0  0
   10.6940   -3.8470   24.1050 O   0  0  0  0  0  0  0  0  0  0  0  0
   11.5720   -1.9950   24.3540 C   0  0  2  0  0  0  0  0  0  0  0  0
   12.4880   -2.2320   23.1170 C   0  0  0  0  0  0  0  0  0  0  0  0
   13.7470   -2.9420   23.3940 N   0  0  0  0  0  0  0  0  0  0  0  0
   10.3240   -2.9900   24.2250 O   0  0  0  0  0  0  0  0  0  0  0  0
  1  2  1  0
  2  3  1  0
  4  3  1  6
  4  5  1  0
  5  6  1  0
  6  7  2  0
  7  8  1  0
  8  9  2  0
  9 10  1  0
 10 11  1  0
  6 12  1  0
 10 12  2  0
 12 13  1  0
  7 14  1  0
 14 15  1  6
 15 16  1  0
  4 17  1  0
 14 17  1  0
M  END
