MAK-UNK-0d6072ac-19
     RDKit          3D

 20 22  0  0  0  0  0  0  0  0999 V2000
    5.7620   -3.4260   20.3100 C   0  0  0  0  0  0  0  0  0  0  0  0
    6.3300   -4.2890   21.3920 C   0  0  2  0  0  0  0  0  0  0  0  0
    5.4920   -4.8430   22.3410 C   0  0  0  0  0  0  0  0  0  0  0  0
    5.8990   -5.7360   23.0890 O   0  0  0  0  0  0  0  0  0  0  0  0
    4.3330   -4.4250   22.4150 O   0  0  0  0  0  0  0  0  0  0  0  0
    7.5700   -3.8130   22.1020 C   0  0  0  0  0  0  0  0  0  0  0  0
    8.5580   -2.6260   22.0850 C   0  0  0  0  0  0  0  0  0  0  0  0
    9.7930   -2.5740   22.9720 C   0  0  0  0  0  0  0  0  0  0  0  0
   10.0940   -3.6850   23.8810 C   0  0  0  0  0  0  0  0  0  0  0  0
   11.1610   -2.8800   24.0800 C   0  0  0  0  0  0  0  0  0  0  0  0
   12.3140   -2.9810   24.8650 C   0  0  0  0  0  0  0  0  0  0  0  0
   13.1880   -2.0300   24.8990 C   0  0  0  0  0  0  0  0  0  0  0  0
   14.3860   -2.5210   25.9780 Cl  0  0  0  0  0  0  0  0  0  0  0  0
   12.9670   -0.8570   24.0850 C   0  0  0  0  0  0  0  0  0  0  0  0
   11.8010   -0.7040   23.2350 C   0  0  0  0  0  0  0  0  0  0  0  0
   10.8950   -1.7640   23.2570 C   0  0  0  0  0  0  0  0  0  0  0  0
    9.5990   -2.2340   22.6740 N   0  0  0  0  0  0  0  0  0  0  0  0
    8.8860   -1.4100   21.7040 C   0  0  0  0  0  0  0  0  0  0  0  0
    9.1280   -3.5960   23.1750 C   0  0  0  0  0  0  0  0  0  0  0  0
    8.1270   -4.4620   23.0050 C   0  0  0  0  0  0  0  0  0  0  0  0
  2  1  1  1
  2  3  1  0
  3  4  2  0
  3  5  1  0
  2  6  1  0
  6  7  2  0
  7  8  1  0
  8  9  2  0
  9 10  1  0
 10 11  2  0
 11 12  1  0
 12 13  1  0
 12 14  2  0
 14 15  1  0
 10 16  1  0
 15 16  2  0
 16 17  1  0
 17 18  1  0
  9 19  1  0
 17 19  1  0
  6 20  1  0
 19 20  2  0
M  END
