MAK-UNK-01147c51-7
     RDKit          3D

 23 25  0  0  0  0  0  0  0  0999 V2000
    7.1130   -2.1090   21.7720 C   0  0  0  0  0  0  0  0  0  0  0  0
    8.0380   -2.5610   22.9040 C   0  0  1  0  0  0  0  0  0  0  0  0
    9.2830   -3.0270   22.5300 C   0  0  0  0  0  0  0  0  0  0  0  0
   10.4780   -2.2820   22.8080 C   0  0  0  0  0  0  0  0  0  0  0  0
   11.2690   -2.6810   23.9040 C   0  0  0  0  0  0  0  0  0  0  0  0
   12.6750   -2.5670   23.8860 C   0  0  0  0  0  0  0  0  0  0  0  0
   13.2900   -2.4250   22.6600 C   0  0  0  0  0  0  0  0  0  0  0  0
   12.5530   -1.9680   21.5940 C   0  0  0  0  0  0  0  0  0  0  0  0
   11.1570   -2.0400   21.6180 C   0  0  0  0  0  0  0  0  0  0  0  0
    8.3090   -1.4530   23.8040 C   0  0  2  0  0  0  0  0  0  0  0  0
    8.7840   -0.2630   23.2770 C   0  0  0  0  0  0  0  0  0  0  0  0
   10.2680   -0.0430   23.3210 C   0  0  0  0  0  0  0  0  0  0  0  0
   11.0410   -1.2130   23.7140 C   0  0  0  0  0  0  0  0  0  0  0  0
   12.5350   -1.1700   23.8280 C   0  0  0  0  0  0  0  0  0  0  0  0
   13.1100    0.1250   23.4930 C   0  0  0  0  0  0  0  0  0  0  0  0
   12.3850    1.2350   23.1250 C   0  0  0  0  0  0  0  0  0  0  0  0
   12.9850    2.4270   22.8420 O   0  0  0  0  0  0  0  0  0  0  0  0
   10.9010    1.1240   23.0370 C   0  0  0  0  0  0  0  0  0  0  0  0
   10.1900    2.2400   22.6710 O   0  0  0  0  0  0  0  0  0  0  0  0
   10.4170   -2.2980   23.9760 C   0  0  1  0  0  0  0  0  0  0  0  0
   11.5910   -2.7940   24.6920 C   0  0  0  0  0  0  0  0  0  0  0  0
   11.3730   -4.1190   24.8280 N   0  0  0  0  0  0  0  0  0  0  0  0
    9.2960   -1.9580   24.6970 O   0  0  0  0  0  0  0  0  0  0  0  0
  2  1  1  6
  2  3  1  0
  3  4  1  0
  4  5  1  0
  5  6  1  0
  6  7  1  0
  7  8  1  0
  4  9  1  0
  8  9  1  0
  2 10  1  0
 10 11  1  6
 11 12  1  0
 12 13  2  0
 13 14  1  0
 14 15  2  0
 15 16  1  0
 16 17  1  0
 12 18  1  0
 16 18  2  0
 18 19  1  0
 13 20  1  0
 20 21  1  1
 21 22  1  0
 10 23  1  0
 20 23  1  0
M  END
