MAK-UNK-8145c7a0-5
     RDKit          3D

 26 28  0  0  0  0  0  0  0  0999 V2000
    7.1360   -5.5520   24.1870 C   0  0  0  0  0  0  0  0  0  0  0  0
    7.2980   -4.1010   24.2310 C   0  0  0  0  0  0  0  0  0  0  0  0
    6.8210   -3.3350   25.2900 N   0  0  0  0  0  0  0  0  0  0  0  0
    7.1140   -2.0160   25.0700 N   0  0  0  0  0  0  0  0  0  0  0  0
    7.7430   -1.8490   23.9270 C   0  0  0  0  0  0  0  0  0  0  0  0
    8.1240   -0.6190   23.4510 C   0  0  0  0  0  0  0  0  0  0  0  0
    9.5470   -0.5680   23.1710 N   0  0  0  0  0  0  0  0  0  0  0  0
   10.3520   -0.0820   24.2830 C   0  0  0  0  0  0  0  0  0  0  0  0
   11.5770    0.4940   23.7190 C   0  0  0  0  0  0  0  0  0  0  0  0
   12.0770   -0.4480   22.5950 C   0  0  0  0  0  0  0  0  0  0  0  0
   13.5960   -0.4840   21.8370 S   0  0  0  0  0  0  0  0  0  0  0  0
   14.2160    0.4530   22.7040 O   0  0  0  0  0  0  0  0  0  0  0  0
   13.7510   -1.8980   21.9270 O   0  0  0  0  0  0  0  0  0  0  0  0
   14.1840    0.0500   20.1990 N   0  0  0  0  0  0  0  0  0  0  0  0
   14.9880    1.3630   20.1320 C   0  0  0  0  0  0  0  0  0  0  0  0
   16.0530    1.9750   19.3010 C   0  0  0  0  0  0  0  0  0  0  0  0
   15.1780    2.3630   18.7900 C   0  0  0  0  0  0  0  0  0  0  0  0
   14.6400    3.5000   18.9170 C   0  0  0  0  0  0  0  0  0  0  0  0
   13.5490    3.5830   18.2180 C   0  0  0  0  0  0  0  0  0  0  0  0
   13.1650    2.5560   17.4720 C   0  0  0  0  0  0  0  0  0  0  0  0
   13.8790    1.2800   17.3340 C   0  0  0  0  0  0  0  0  0  0  0  0
   14.8270    1.4110   18.1200 C   0  0  0  0  0  0  0  0  0  0  0  0
   11.3620   -1.4410   22.1520 C   0  0  0  0  0  0  0  0  0  0  0  0
   11.9210   -2.2170   21.2280 F   0  0  0  0  0  0  0  0  0  0  0  0
   10.0860   -1.6930   22.6300 C   0  0  0  0  0  0  0  0  0  0  0  0
    8.0800   -3.2520   23.0090 S   0  0  0  0  0  0  0  0  0  0  0  0
  1  2  1  0
  2  3  2  0
  3  4  1  0
  4  5  2  0
  5  6  1  0
  6  7  1  0
  7  8  1  0
  8  9  1  0
  9 10  1  0
 10 11  1  0
 11 12  2  0
 11 13  2  0
 11 14  1  0
 14 15  1  0
 15 16  1  0
 16 17  1  0
 17 18  2  0
 18 19  1  0
 19 20  2  0
 20 21  1  0
 17 22  1  0
 21 22  2  0
 10 23  2  0
 23 24  1  0
  7 25  1  0
 23 25  1  0
  2 26  1  0
  5 26  1  0
M  END
