MAK-UNK-902cc841-3
     RDKit          3D

 30 33  0  0  0  0  0  0  0  0999 V2000
    5.9020   -2.2550   18.6760 C   0  0  0  0  0  0  0  0  0  0  0  0
    5.6850   -3.1180   19.8900 C   0  0  0  0  0  0  0  0  0  0  0  0
    5.2980   -4.2790   19.7650 O   0  0  0  0  0  0  0  0  0  0  0  0
    6.0070   -2.5080   21.0780 N   0  0  0  0  0  0  0  0  0  0  0  0
    6.0470   -3.2650   22.3400 C   0  0  0  0  0  0  0  0  0  0  0  0
    6.7100   -2.5370   23.4390 C   0  0  0  0  0  0  0  0  0  0  0  0
    8.1020   -2.1020   23.1310 N   0  0  0  0  0  0  0  0  0  0  0  0
    8.4990   -0.6410   23.2950 C   0  0  1  0  0  0  0  0  0  0  0  0
    7.5740    0.3480   23.8750 C   0  0  0  0  0  0  0  0  0  0  0  0
    6.9110    0.2970   24.9270 O   0  0  0  0  0  0  0  0  0  0  0  0
    7.3860    1.3900   23.0380 N   0  0  0  0  0  0  0  0  0  0  0  0
    7.4300    0.7550   21.8580 C   0  0  0  0  0  0  0  0  0  0  0  0
    6.5900    0.8340   20.7900 C   0  0  0  0  0  0  0  0  0  0  0  0
    6.8760   -0.1170   19.6570 C   0  0  0  0  0  0  0  0  0  0  0  0
    8.0880   -1.0460   19.8630 C   0  0  0  0  0  0  0  0  0  0  0  0
    8.9930   -1.0460   21.0290 C   0  0  0  0  0  0  0  0  0  0  0  0
   10.2710   -1.8500   21.4520 N   0  0  0  0  0  0  0  0  0  0  0  0
   10.4740   -1.9830   22.8400 C   0  0  0  0  0  0  0  0  0  0  0  0
   11.8760   -1.9050   23.0940 C   0  0  0  0  0  0  0  0  0  0  0  0
   12.5310   -1.8550   21.9360 C   0  0  0  0  0  0  0  0  0  0  0  0
   11.6320   -2.3270   21.0420 C   0  0  0  0  0  0  0  0  0  0  0  0
   12.0630   -3.0650   20.1850 O   0  0  0  0  0  0  0  0  0  0  0  0
    8.5500   -0.1090   21.9530 C   0  0  0  0  0  0  0  0  0  0  0  0
   10.0220   -0.1930   23.2210 C   0  0  0  0  0  0  0  0  0  0  0  0
   11.2650   -0.8390   23.3230 C   0  0  0  0  0  0  0  0  0  0  0  0
   12.4620    0.0940   23.1570 C   0  0  0  0  0  0  0  0  0  0  0  0
   12.0410    1.3640   22.9340 C   0  0  0  0  0  0  0  0  0  0  0  0
   10.3290    1.4790   22.9190 S   0  0  0  0  0  0  0  0  0  0  0  0
    8.2690   -2.4340   21.7500 C   0  0  0  0  0  0  0  0  0  0  0  0
    7.1630   -1.6920   21.0260 C   0  0  0  0  0  0  0  0  0  0  0  0
  1  2  1  0
  2  3  2  0
  2  4  1  0
  4  5  1  0
  5  6  1  0
  6  7  1  0
  7  8  1  0
  8  9  1  1
  9 10  2  0
  9 11  1  0
 11 12  1  0
 12 13  2  0
 13 14  1  0
 14 15  2  0
 15 16  1  0
 16 17  1  0
 17 18  1  0
 18 19  1  0
 19 20  1  0
 17 21  1  0
 20 21  1  0
 21 22  2  0
 12 23  1  0
 16 23  2  0
  8 24  1  0
 24 25  2  0
 25 26  1  0
 26 27  2  0
 24 28  1  0
 27 28  1  0
  7 29  1  0
  4 30  1  0
 29 30  1  0
M  END
