MAK-UNK-5e88aa6a-6
     RDKit          3D

 20 21  0  0  0  0  0  0  0  0999 V2000
   13.3100   -0.5090   22.8220 N   0  0  0  0  0  0  0  0  0  0  0  0
   13.1150   -1.8620   21.8380 S   0  0  0  0  0  0  0  0  0  0  0  0
   13.5650   -2.9820   22.6130 O   0  0  0  0  0  0  0  0  0  0  0  0
   13.7200   -1.4740   20.5930 O   0  0  0  0  0  0  0  0  0  0  0  0
   11.3610   -1.8760   21.7310 C   0  0  0  0  0  0  0  0  0  0  0  0
   10.8050   -1.0680   22.7640 C   0  0  0  0  0  0  0  0  0  0  0  0
   10.2020   -1.5140   23.7950 C   0  0  0  0  0  0  0  0  0  0  0  0
    9.8440   -0.3800   24.5380 N   0  0  0  0  0  0  0  0  0  0  0  0
    9.1980   -0.5110   25.7010 C   0  0  0  0  0  0  0  0  0  0  0  0
    8.3540   -1.7920   25.8080 C   0  0  0  0  0  0  0  0  0  0  0  0
    7.5870   -1.9280   26.7630 O   0  0  0  0  0  0  0  0  0  0  0  0
    8.4490   -2.8170   24.8490 N   0  0  0  0  0  0  0  0  0  0  0  0
    8.6920   -4.1760   25.3560 C   0  0  0  0  0  0  0  0  0  0  0  0
    7.7200   -5.2500   24.7800 C   0  0  0  0  0  0  0  0  0  0  0  0
    6.4550   -4.5660   24.2360 C   0  0  0  0  0  0  0  0  0  0  0  0
    5.5460   -5.5390   23.7220 O   0  0  0  0  0  0  0  0  0  0  0  0
    6.8110   -3.6700   23.2250 C   0  0  0  0  0  0  0  0  0  0  0  0
    7.9880   -2.7180   23.5300 C   0  0  0  0  0  0  0  0  0  0  0  0
   10.2350    0.7440   23.9250 N   0  0  0  0  0  0  0  0  0  0  0  0
   10.8430    0.3210   22.8030 N   0  0  0  0  0  0  0  0  0  0  0  0
  2  1  1  0
  2  3  2  0
  2  4  2  0
  2  5  1  0
  5  6  1  0
  6  7  2  0
  7  8  1  0
  8  9  1  0
  9 10  1  0
 10 11  2  0
 10 12  1  0
 12 13  1  0
 13 14  1  0
 14 15  1  0
 15 16  1  0
 15 17  1  0
 12 18  1  0
 17 18  1  0
  8 19  1  0
  6 20  1  0
 19 20  2  0
M  END
