MAK-UNK-129dcd6f-8
     RDKit          3D

 26 28  0  0  0  0  0  0  0  0999 V2000
    5.2410    1.7220   17.5060 C   0  0  0  0  0  0  0  0  0  0  0  0
    4.7010    2.6280   18.5780 C   0  0  0  0  0  0  0  0  0  0  0  0
    5.3140    2.8000   19.6250 O   0  0  0  0  0  0  0  0  0  0  0  0
    3.4880    3.1760   18.2440 N   0  0  0  0  0  0  0  0  0  0  0  0
    2.4030    2.8900   19.0530 C   0  0  0  0  0  0  0  0  0  0  0  0
    1.1780    3.5560   19.1000 C   0  0  0  0  0  0  0  0  0  0  0  0
    0.1600    3.2110   19.9360 N   0  0  0  0  0  0  0  0  0  0  0  0
    0.3900    2.1650   20.7460 C   0  0  0  0  0  0  0  0  0  0  0  0
    1.5780    1.4540   20.7600 C   0  0  0  0  0  0  0  0  0  0  0  0
    2.6220    1.8150   19.8870 C   0  0  0  0  0  0  0  0  0  0  0  0
    3.9580    1.0500   19.8830 C   0  0  0  0  0  0  0  0  0  0  0  0
    4.4960    1.0900   21.2720 C   0  0  0  0  0  0  0  0  0  0  0  0
    5.6860    0.3810   21.0670 C   0  0  0  0  0  0  0  0  0  0  0  0
    6.5420   -0.3010   20.2220 C   0  0  0  0  0  0  0  0  0  0  0  0
    7.7040   -0.8320   20.6280 N   0  0  0  0  0  0  0  0  0  0  0  0
    8.5660   -0.0790   21.3680 C   0  0  0  0  0  0  0  0  0  0  0  0
    8.7610    1.1340   21.1760 O   0  0  0  0  0  0  0  0  0  0  0  0
    9.2130   -0.8120   22.3220 N   0  0  0  0  0  0  0  0  0  0  0  0
   10.5090   -0.4200   22.5210 C   0  0  0  0  0  0  0  0  0  0  0  0
   10.7330    1.0270   22.8640 C   0  0  0  0  0  0  0  0  0  0  0  0
   12.1600    1.4730   23.0400 C   0  0  0  0  0  0  0  0  0  0  0  0
   13.2210    0.4290   22.8650 C   0  0  0  0  0  0  0  0  0  0  0  0
   12.8710   -1.0040   22.5290 C   0  0  0  0  0  0  0  0  0  0  0  0
   11.5160   -1.3630   22.3700 C   0  0  0  0  0  0  0  0  0  0  0  0
    5.9080   -0.2550   18.9890 C   0  0  0  0  0  0  0  0  0  0  0  0
    4.6560    0.3970   18.8140 N   0  0  0  0  0  0  0  0  0  0  0  0
  1  2  1  0
  2  3  2  0
  2  4  1  0
  4  5  1  0
  5  6  2  0
  6  7  1  0
  7  8  2  0
  8  9  1  0
  5 10  1  0
  9 10  2  0
 10 11  1  0
 11 12  2  0
 12 13  1  0
 13 14  2  0
 14 15  1  0
 15 16  1  0
 16 17  2  0
 16 18  1  0
 18 19  1  0
 19 20  2  0
 20 21  1  0
 21 22  2  0
 22 23  1  0
 19 24  1  0
 23 24  2  0
 14 25  1  0
 11 26  1  0
 25 26  2  0
M  END
