MAK-UNK-10572812-16
     RDKit          3D

 34 38  0  0  0  0  0  0  0  0999 V2000
   13.3350   -1.7850   23.5850 C   0  0  0  0  0  0  0  0  0  0  0  0
   12.0530   -1.1480   23.7960 N   0  0  0  0  0  0  0  0  0  0  0  0
   11.0370   -1.8590   23.0000 C   0  0  0  0  0  0  0  0  0  0  0  0
    9.8180   -1.3700   23.2380 C   0  0  0  0  0  0  0  0  0  0  0  0
    9.7310    0.0360   22.8150 N   0  0  0  0  0  0  0  0  0  0  0  0
    8.9410    0.3710   21.7330 C   0  0  0  0  0  0  0  0  0  0  0  0
    8.9810    1.5160   21.2380 O   0  0  0  0  0  0  0  0  0  0  0  0
    8.0270   -0.7400   21.2040 C   0  0  0  0  0  0  0  0  0  0  0  0
    7.0930   -0.2430   20.1090 C   0  0  0  0  0  0  0  0  0  0  0  0
    7.3620   -0.6250   18.6550 C   0  0  0  0  0  0  0  0  0  0  0  0
    6.3540    0.0190   18.0450 N   0  0  0  0  0  0  0  0  0  0  0  0
    5.4610    0.7500   18.8550 C   0  0  0  0  0  0  0  0  0  0  0  0
    4.4060    1.4460   18.4160 N   0  0  0  0  0  0  0  0  0  0  0  0
    3.7180    2.0440   19.4150 C   0  0  0  0  0  0  0  0  0  0  0  0
    4.1050    1.9440   20.8970 C   0  0  0  0  0  0  0  0  0  0  0  0
    3.2350    2.6750   21.9010 C   0  0  0  0  0  0  0  0  0  0  0  0
    3.2500    2.3500   23.0850 O   0  0  0  0  0  0  0  0  0  0  0  0
    2.4570    3.7010   21.4130 N   0  0  0  0  0  0  0  0  0  0  0  0
    2.0800    4.8390   22.2390 C   0  0  0  0  0  0  0  0  0  0  0  0
    0.7400    5.2080   22.1170 C   0  0  0  0  0  0  0  0  0  0  0  0
    0.1240    5.7630   23.2360 C   0  0  0  0  0  0  0  0  0  0  0  0
   -1.0060    5.2020   23.8080 C   0  0  0  0  0  0  0  0  0  0  0  0
   -1.3550    5.9800   24.8820 N   0  0  0  0  0  0  0  0  0  0  0  0
   -0.4740    7.0350   25.0170 C   0  0  0  0  0  0  0  0  0  0  0  0
   -0.4540    8.1470   26.0460 C   0  0  0  0  0  0  0  0  0  0  0  0
    0.6360    9.2190   25.9940 C   0  0  0  0  0  0  0  0  0  0  0  0
    1.6940    9.1220   24.8690 C   0  0  0  0  0  0  0  0  0  0  0  0
    2.6700   10.0400   24.7790 F   0  0  0  0  0  0  0  0  0  0  0  0
    1.6200    7.9600   23.8460 C   0  0  0  0  0  0  0  0  0  0  0  0
    0.4780    6.9310   23.9900 C   0  0  0  0  0  0  0  0  0  0  0  0
    5.2260    1.1970   21.2270 C   0  0  0  0  0  0  0  0  0  0  0  0
    5.9250    0.5810   20.1740 C   0  0  0  0  0  0  0  0  0  0  0  0
   10.7110    0.9190   23.4510 C   0  0  0  0  0  0  0  0  0  0  0  0
   12.1070    0.2770   23.4100 C   0  0  0  0  0  0  0  0  0  0  0  0
  1  2  1  0
  2  3  1  0
  3  4  1  0
  4  5  1  0
  5  6  1  0
  6  7  2  0
  6  8  1  0
  8  9  1  0
  9 10  2  0
 10 11  1  0
 11 12  1  0
 12 13  1  0
 13 14  2  0
 14 15  1  0
 15 16  1  0
 16 17  2  0
 16 18  1  0
 18 19  1  0
 19 20  1  0
 20 21  1  0
 21 22  2  0
 22 23  1  0
 23 24  1  0
 24 25  1  0
 25 26  2  0
 26 27  1  0
 27 28  1  0
 27 29  2  0
 21 30  1  0
 24 30  2  0
 29 30  1  0
 15 31  2  0
  9 32  1  0
 12 32  2  0
 31 32  1  0
  5 33  1  0
  2 34  1  0
 33 34  1  0
M  END
