MAK-UNK-c7aa8293-11
     RDKit          3D

 20 21  0  0  0  0  0  0  0  0999 V2000
    4.9450   -6.2160   23.8520 C   0  0  0  0  0  0  0  0  0  0  0  0
    6.1560   -5.5840   23.4560 N   0  0  0  0  0  0  0  0  0  0  0  0
    6.5900   -6.1800   22.2060 C   0  0  0  0  0  0  0  0  0  0  0  0
    6.1450   -4.1420   23.6810 C   0  0  0  0  0  0  0  0  0  0  0  0
    6.9020   -3.4150   22.7720 C   0  0  0  0  0  0  0  0  0  0  0  0
    8.3740   -3.6910   22.8880 C   0  0  0  0  0  0  0  0  0  0  0  0
    9.1770   -3.1870   23.9080 C   0  0  2  0  0  0  0  0  0  0  0  0
    8.9540   -1.9520   24.2580 C   0  0  0  0  0  0  0  0  0  0  0  0
   10.3300   -1.6900   24.0160 C   0  0  0  0  0  0  0  0  0  0  0  0
   11.0000   -0.6110   23.5510 C   0  0  0  0  0  0  0  0  0  0  0  0
   12.2700   -0.2210   23.2700 C   0  0  0  0  0  0  0  0  0  0  0  0
   13.2210   -1.1860   23.5220 C   0  0  0  0  0  0  0  0  0  0  0  0
   12.8930   -2.4460   24.0290 C   0  0  0  0  0  0  0  0  0  0  0  0
   13.9400   -3.3060   24.2390 O   0  0  0  0  0  0  0  0  0  0  0  0
   11.5130   -2.7130   24.2740 C   0  0  0  0  0  0  0  0  0  0  0  0
   11.0970   -3.9840   24.8000 O   0  0  0  0  0  0  0  0  0  0  0  0
   11.5830   -1.8870   23.8390 C   0  0  1  0  0  0  0  0  0  0  0  0
   12.2340   -2.0120   25.0260 C   0  0  0  0  0  0  0  0  0  0  0  0
   13.0810   -3.1880   25.2630 N   0  0  0  0  0  0  0  0  0  0  0  0
   10.6860   -3.0450   23.6060 O   0  0  0  0  0  0  0  0  0  0  0  0
  1  2  1  0
  2  3  1  0
  2  4  1  0
  4  5  1  0
  5  6  1  0
  7  6  1  6
  7  8  1  0
  8  9  1  0
  9 10  2  0
 10 11  1  0
 11 12  2  0
 12 13  1  0
 13 14  1  0
  9 15  1  0
 13 15  2  0
 15 16  1  0
 10 17  1  0
 17 18  1  1
 18 19  1  0
  7 20  1  0
 17 20  1  0
M  END
