MAK-UNK-acefcb18-3
     RDKit          3D

 17 18  0  0  0  0  0  0  0  0999 V2000
    3.1310   -7.2050   23.5440 C   0  0  0  0  0  0  0  0  0  0  0  0
    4.0320   -5.9950   23.1880 C   0  0  0  0  0  0  0  0  0  0  0  0
    5.2870   -6.1810   22.6040 C   0  0  0  0  0  0  0  0  0  0  0  0
    6.1550   -5.1590   22.2580 C   0  0  0  0  0  0  0  0  0  0  0  0
    5.7740   -3.8430   22.5010 C   0  0  0  0  0  0  0  0  0  0  0  0
    6.4960   -2.8970   22.2240 O   0  0  0  0  0  0  0  0  0  0  0  0
    7.9100   -3.0410   22.4120 C   0  0  0  0  0  0  0  0  0  0  0  0
    8.3800   -2.8710   23.8410 C   0  0  0  0  0  0  0  0  0  0  0  0
    9.1220   -1.7490   24.2000 C   0  0  0  0  0  0  0  0  0  0  0  0
    9.4450   -0.7690   23.2670 C   0  0  0  0  0  0  0  0  0  0  0  0
   10.7850   -0.8310   22.8950 C   0  0  0  0  0  0  0  0  0  0  0  0
   11.6700    0.2220   23.0370 C   0  0  0  0  0  0  0  0  0  0  0  0
   12.9630   -0.0220   22.6250 C   0  0  0  0  0  0  0  0  0  0  0  0
   13.1390   -1.6460   21.9880 S   0  0  0  0  0  0  0  0  0  0  0  0
   11.4310   -1.9430   22.3220 C   0  0  0  0  0  0  0  0  0  0  0  0
    4.3970   -3.5590   23.1450 C   0  0  0  0  0  0  0  0  0  0  0  0
    3.5230   -4.5990   23.4920 C   0  0  0  0  0  0  0  0  0  0  0  0
  1  2  1  0
  2  3  2  0
  3  4  1  0
  4  5  2  0
  5  6  1  0
  6  7  1  0
  7  8  1  0
  8  9  2  3
  9 10  1  0
 10 11  1  0
 11 12  1  0
 12 13  2  0
 13 14  1  0
 11 15  2  0
 14 15  1  0
  5 16  1  0
  2 17  1  0
 16 17  2  0
M  END
