MAK-MCD-5988fef6-1
     RDKit          3D

 23 25  0  0  0  0  0  0  0  0999 V2000
    6.7710   -2.9640   21.2450 C   0  0  0  0  0  0  0  0  0  0  0  0
    6.2910   -4.2260   21.2030 C   0  0  0  0  0  0  0  0  0  0  0  0
    5.5720   -4.5720   19.9890 O   0  0  0  0  0  0  0  0  0  0  0  0
    6.5520   -5.0110   22.3950 N   0  0  0  0  0  0  0  0  0  0  0  0
    7.3330   -4.4370   23.3700 C   0  0  0  0  0  0  0  0  0  0  0  0
    6.4920   -4.0250   24.6010 C   0  0  0  0  0  0  0  0  0  0  0  0
    5.8230   -5.1440   25.1540 N   0  0  0  0  0  0  0  0  0  0  0  0
    5.0110   -5.0270   26.6220 S   0  0  0  0  0  0  0  0  0  0  0  0
    4.4530   -6.3360   26.8750 O   0  0  0  0  0  0  0  0  0  0  0  0
    5.8790   -4.3400   27.5250 O   0  0  0  0  0  0  0  0  0  0  0  0
    3.6310   -4.0240   26.3550 C   0  0  0  0  0  0  0  0  0  0  0  0
    2.3450   -4.5760   26.2260 C   0  0  0  0  0  0  0  0  0  0  0  0
    1.1910   -3.8070   26.0250 C   0  0  0  0  0  0  0  0  0  0  0  0
    1.3190   -2.2840   25.9380 C   0  0  0  0  0  0  0  0  0  0  0  0
    2.7130   -1.6870   26.0650 C   0  0  0  0  0  0  0  0  0  0  0  0
    2.9380   -0.3720   25.9980 F   0  0  0  0  0  0  0  0  0  0  0  0
    3.8280   -2.6540   26.2760 C   0  0  0  0  0  0  0  0  0  0  0  0
    5.0310   -5.7580   24.2750 C   0  0  0  0  0  0  0  0  0  0  0  0
    3.8790   -6.4240   24.6790 C   0  0  0  0  0  0  0  0  0  0  0  0
    3.0660   -7.0340   23.7860 C   0  0  0  0  0  0  0  0  0  0  0  0
    3.3460   -7.0240   22.5010 N   0  0  0  0  0  0  0  0  0  0  0  0
    4.4950   -6.3810   22.1050 C   0  0  0  0  0  0  0  0  0  0  0  0
    5.3860   -5.7010   22.9610 C   0  0  0  0  0  0  0  0  0  0  0  0
  1  2  1  0
  2  3  2  0
  2  4  1  0
  4  5  1  0
  5  6  1  0
  6  7  1  0
  7  8  1  0
  8  9  2  0
  8 10  2  0
  8 11  1  0
 11 12  2  0
 12 13  1  0
 13 14  2  0
 14 15  1  0
 15 16  1  0
 11 17  1  0
 15 17  2  0
  7 18  1  0
 18 19  1  0
 19 20  2  0
 20 21  1  0
 21 22  2  0
  4 23  1  0
 18 23  2  0
 22 23  1  0
M  END
