MAK-UNK-6435e6c2-3
     RDKit          3D

 15 16  0  0  0  0  0  0  0  0999 V2000
    6.3970   -2.7290   20.9910 C   0  0  0  0  0  0  0  0  0  0  0  0
    6.0110   -4.2320   20.9150 C   0  0  0  0  0  0  0  0  0  0  0  0
    5.2840   -4.5110   19.7020 O   0  0  0  0  0  0  0  0  0  0  0  0
    6.3830   -5.0760   21.9230 N   0  0  0  0  0  0  0  0  0  0  0  0
    7.1460   -4.5510   23.0450 C   0  0  0  0  0  0  0  0  0  0  0  0
    6.2860   -4.1270   24.0610 C   0  0  0  0  0  0  0  0  0  0  0  0
    5.3410   -5.1920   24.4240 N   0  0  0  0  0  0  0  0  0  0  0  0
    4.6490   -5.0420   25.7180 C   0  0  0  0  0  0  0  0  0  0  0  0
    3.4770   -4.0530   25.7090 C   0  0  0  0  0  0  0  0  0  0  0  0
    3.7300   -2.5760   25.8600 C   0  0  0  0  0  0  0  0  0  0  0  0
    2.5870   -1.7920   25.8530 C   0  0  0  0  0  0  0  0  0  0  0  0
    1.2110   -2.8070   25.6710 S   0  0  0  0  0  0  0  0  0  0  0  0
    2.1180   -4.2690   25.5920 C   0  0  0  0  0  0  0  0  0  0  0  0
    4.5900   -5.7390   23.2700 C   0  0  0  0  0  0  0  0  0  0  0  0
    5.4670   -6.1620   22.2710 C   0  0  0  0  0  0  0  0  0  0  0  0
  1  2  1  0
  2  3  2  0
  2  4  1  0
  4  5  1  0
  5  6  1  0
  6  7  1  0
  7  8  1  0
  8  9  1  0
  9 10  1  0
 10 11  2  0
 11 12  1  0
  9 13  2  0
 12 13  1  0
  7 14  1  0
  4 15  1  0
 14 15  1  0
M  END
