MAK-UNK-27459e11-1
     RDKit          3D

 17 17  0  0  0  0  0  0  0  0999 V2000
    3.2540   -5.4530   26.1000 N   0  0  0  0  0  0  0  0  0  0  0  0
    4.0370   -4.2910   25.6100 C   0  0  0  0  0  0  0  0  0  0  0  0
    3.5380   -3.4670   24.5620 N   0  0  0  0  0  0  0  0  0  0  0  0
    5.3640   -4.0700   26.3110 C   0  0  0  0  0  0  0  0  0  0  0  0
    6.4450   -5.0220   26.0430 C   0  0  0  0  0  0  0  0  0  0  0  0
    7.9720   -4.2570   25.8370 S   0  0  0  0  0  0  0  0  0  0  0  0
    8.9730   -5.2390   25.4970 O   0  0  0  0  0  0  0  0  0  0  0  0
    8.1430   -3.3370   26.9400 O   0  0  0  0  0  0  0  0  0  0  0  0
    7.7400   -3.3620   24.4130 N   0  0  0  0  0  0  0  0  0  0  0  0
    8.8590   -3.1830   23.4430 C   0  0  0  0  0  0  0  0  0  0  0  0
    9.0450   -1.8280   23.0970 C   0  0  0  0  0  0  0  0  0  0  0  0
   10.3250   -1.3100   22.8990 C   0  0  0  0  0  0  0  0  0  0  0  0
   10.6480    0.0490   23.2980 C   0  0  0  0  0  0  0  0  0  0  0  0
   12.0620    0.7340   23.1370 C   0  0  0  0  0  0  0  0  0  0  0  0
   13.1390   -0.1090   22.5290 C   0  0  0  0  0  0  0  0  0  0  0  0
   12.5330   -1.3690   22.2340 C   0  0  0  0  0  0  0  0  0  0  0  0
   11.3290   -2.0840   22.3140 C   0  0  0  0  0  0  0  0  0  0  0  0
  1  2  2  3
  2  3  1  0
  2  4  1  0
  4  5  1  0
  5  6  1  0
  6  7  2  0
  6  8  2  0
  6  9  1  0
  9 10  1  0
 10 11  1  0
 11 12  1  0
 12 13  2  0
 13 14  1  0
 14 15  2  0
 15 16  1  0
 12 17  1  0
 16 17  2  0
M  END
