MAK-UNK-31051d4e-4
     RDKit          3D

 25 27  0  0  0  0  0  0  0  0999 V2000
    8.6570   -5.3450   25.7050 O   0  0  0  0  0  0  0  0  0  0  0  0
    7.8980   -4.1860   26.1080 S   0  0  0  0  0  0  0  0  0  0  0  0
    8.1600   -3.5620   27.3820 O   0  0  0  0  0  0  0  0  0  0  0  0
    7.9430   -2.9480   24.9420 N   0  0  0  0  0  0  0  0  0  0  0  0
    8.7380   -3.0130   23.9040 C   0  0  0  0  0  0  0  0  0  0  0  0
    9.0600   -1.7440   23.1750 C   0  0  0  0  0  0  0  0  0  0  0  0
   10.3800   -1.3150   22.9290 C   0  0  0  0  0  0  0  0  0  0  0  0
   10.7800   -0.0440   23.3380 C   0  0  0  0  0  0  0  0  0  0  0  0
   12.0530    0.5540   23.1870 C   0  0  0  0  0  0  0  0  0  0  0  0
   13.1050   -0.2370   22.5240 C   0  0  0  0  0  0  0  0  0  0  0  0
   12.7240   -1.6270   22.0470 C   0  0  0  0  0  0  0  0  0  0  0  0
   11.3190   -2.1290   22.2760 C   0  0  0  0  0  0  0  0  0  0  0  0
    6.2010   -4.7180   26.3340 C   0  0  2  0  0  0  0  0  0  0  0  0
    5.8370   -5.2300   27.5290 C   0  0  0  0  0  0  0  0  0  0  0  0
    6.6170   -6.1330   28.2420 C   0  0  0  0  0  0  0  0  0  0  0  0
    6.0930   -6.5940   29.4540 C   0  0  0  0  0  0  0  0  0  0  0  0
    4.5690   -5.9190   29.7990 S   0  0  0  0  0  0  0  0  0  0  0  0
    4.6250   -4.9850   28.2810 C   0  0  0  0  0  0  0  0  0  0  0  0
    5.6300   -5.6710   25.5030 N   0  0  0  0  0  0  0  0  0  0  0  0
    4.3820   -6.3930   26.0210 C   0  0  0  0  0  0  0  0  0  0  0  0
    3.3070   -6.1450   25.2060 C   0  0  0  0  0  0  0  0  0  0  0  0
    3.4120   -6.7160   23.9430 C   0  0  0  0  0  0  0  0  0  0  0  0
    3.2910   -7.9460   23.9050 O   0  0  0  0  0  0  0  0  0  0  0  0
    4.6910   -6.4650   23.4150 C   0  0  0  0  0  0  0  0  0  0  0  0
    5.5200   -5.3640   24.0670 C   0  0  0  0  0  0  0  0  0  0  0  0
  1  2  2  0
  2  3  2  0
  2  4  1  0
  4  5  1  0
  5  6  1  0
  6  7  1  0
  7  8  2  0
  8  9  1  0
  9 10  2  0
 10 11  1  0
  7 12  1  0
 11 12  2  0
 13  2  1  1
 13 14  1  0
 14 15  1  0
 15 16  2  0
 16 17  1  0
 14 18  2  0
 17 18  1  0
 13 19  1  0
 19 20  1  0
 20 21  1  0
 21 22  1  0
 22 23  1  0
 22 24  1  0
 19 25  1  0
 24 25  1  0
M  END
