MAK-UNK-a7992eb3-26
     RDKit          3D

 34 36  0  0  0  0  0  0  0  0999 V2000
   -0.7930   -5.3900   30.5830 C   0  0  0  0  0  0  0  0  0  0  0  0
   -2.0640   -5.6670   29.7700 C   0  0  0  0  0  0  0  0  0  0  0  0
   -3.1920   -5.3990   30.1670 O   0  0  0  0  0  0  0  0  0  0  0  0
   -1.7860   -6.2810   28.4890 N   0  0  0  0  0  0  0  0  0  0  0  0
   -1.0100   -5.6960   27.4520 C   0  0  2  0  0  0  0  0  0  0  0  0
    0.2540   -5.3390   27.9360 C   0  0  0  0  0  0  0  0  0  0  0  0
    1.3430   -5.6090   27.1210 C   0  0  0  0  0  0  0  0  0  0  0  0
    1.5220   -4.9690   25.9080 C   0  0  0  0  0  0  0  0  0  0  0  0
    2.6120   -5.2410   25.1060 C   0  0  0  0  0  0  0  0  0  0  0  0
    3.5720   -6.1700   25.4880 C   0  0  0  0  0  0  0  0  0  0  0  0
    4.6560   -6.3700   24.5910 O   0  0  0  0  0  0  0  0  0  0  0  0
    4.8110   -5.4160   23.5400 C   0  0  1  0  0  0  0  0  0  0  0  0
    4.9010   -4.1340   24.1010 C   0  0  0  0  0  0  0  0  0  0  0  0
    6.1920   -3.6520   24.3000 C   0  0  0  0  0  0  0  0  0  0  0  0
    7.1100   -3.7150   23.0950 C   0  0  0  0  0  0  0  0  0  0  0  0
    6.6450   -4.4880   22.0950 N   0  0  0  0  0  0  0  0  0  0  0  0
    5.6500   -4.1690   21.0880 C   0  0  0  0  0  0  0  0  0  0  0  0
    5.5780   -2.7010   20.6560 C   0  0  0  0  0  0  0  0  0  0  0  0
    5.6450   -1.6280   21.7010 C   0  0  0  0  0  0  0  0  0  0  0  0
    5.5840   -0.2750   21.3900 C   0  0  0  0  0  0  0  0  0  0  0  0
    5.4440    0.1430   19.9510 C   0  0  0  0  0  0  0  0  0  0  0  0
    5.3740   -0.7980   18.9240 C   0  0  0  0  0  0  0  0  0  0  0  0
    5.4450   -2.2780   19.3300 C   0  0  0  0  0  0  0  0  0  0  0  0
    6.1650   -5.6550   22.8280 C   0  0  2  0  0  0  0  0  0  0  0  0
    6.1920   -6.7440   22.0400 C   0  0  0  0  0  0  0  0  0  0  0  0
    3.4360   -6.8460   26.7040 C   0  0  0  0  0  0  0  0  0  0  0  0
    2.3100   -6.5590   27.5240 C   0  0  0  0  0  0  0  0  0  0  0  0
   -1.7320   -4.4650   26.8430 C   0  0  0  0  0  0  0  0  0  0  0  0
   -1.9100   -3.4070   27.4390 O   0  0  0  0  0  0  0  0  0  0  0  0
   -2.1760   -4.6480   25.5440 N   0  0  0  0  0  0  0  0  0  0  0  0
   -1.4470   -4.0510   24.4470 C   0  0  0  0  0  0  0  0  0  0  0  0
   -0.5670   -4.9820   23.8930 C   0  0  0  0  0  0  0  0  0  0  0  0
   -0.9270   -5.6720   22.7380 C   0  0  0  0  0  0  0  0  0  0  0  0
   -1.4420   -6.6230   21.1690 Br  0  0  0  0  0  0  0  0  0  0  0  0
  1  2  1  0
  2  3  2  0
  2  4  1  0
  4  5  1  0
  5  6  1  1
  6  7  1  0
  7  8  2  0
  8  9  1  0
  9 10  2  0
 10 11  1  0
 12 11  1  1
 12 13  1  0
 13 14  1  0
 14 15  1  0
 15 16  1  0
 16 17  1  0
 17 18  1  0
 18 19  2  0
 19 20  1  0
 20 21  2  0
 21 22  1  0
 18 23  1  0
 22 23  2  0
 12 24  1  0
 16 24  1  0
 24 25  1  6
 10 26  1  0
  7 27  1  0
 26 27  2  0
  5 28  1  0
 28 29  2  0
 28 30  1  0
 30 31  1  0
 31 32  1  0
 32 33  3  0
 33 34  1  0
M  END
