MAK-UNK-37f1d6fa-1
     RDKit          3D

 31 34  0  0  0  0  0  0  0  0999 V2000
    8.6330    1.4790   21.0200 O   0  0  0  0  0  0  0  0  0  0  0  0
    8.4050    0.4110   21.5830 C   0  0  0  0  0  0  0  0  0  0  0  0
    7.3110   -0.4390   21.1510 N   0  0  0  0  0  0  0  0  0  0  0  0
    6.5330    0.1210   20.2000 C   0  0  0  0  0  0  0  0  0  0  0  0
    5.3930    0.8070   20.4290 C   0  0  0  0  0  0  0  0  0  0  0  0
    4.6000    1.4390   19.3030 C   0  0  0  0  0  0  0  0  0  0  0  0
    5.1200    1.2910   17.8830 C   0  0  0  0  0  0  0  0  0  0  0  0
    6.3370    0.5230   17.8050 N   0  0  0  0  0  0  0  0  0  0  0  0
    6.9950   -0.0270   18.8800 C   0  0  0  0  0  0  0  0  0  0  0  0
    9.1690   -0.0490   22.6290 N   0  0  0  0  0  0  0  0  0  0  0  0
   10.5760    0.3750   22.7180 C   0  0  0  0  0  0  0  0  0  0  0  0
   11.6250   -0.8770   22.5520 C   0  0  0  0  0  0  0  0  0  0  0  0
   13.0400   -0.9260   22.5450 C   0  0  0  0  0  0  0  0  0  0  0  0
   13.3130    0.5330   22.7510 C   0  0  0  0  0  0  0  0  0  0  0  0
   12.0160    0.7120   22.7720 C   0  0  0  0  0  0  0  0  0  0  0  0
   11.0430    1.7880   22.9060 C   0  0  0  0  0  0  0  0  0  0  0  0
   12.0120    2.8340   23.0430 C   0  0  0  0  0  0  0  0  0  0  0  0
   13.1720    2.7530   22.7210 O   0  0  0  0  0  0  0  0  0  0  0  0
   11.4660    4.0800   23.6440 N   0  0  0  0  0  0  0  0  0  0  0  0
   11.2790    5.3230   23.0440 C   0  0  0  0  0  0  0  0  0  0  0  0
    9.9730    5.7880   23.2590 C   0  0  0  0  0  0  0  0  0  0  0  0
    9.8190    7.0080   23.8970 C   0  0  0  0  0  0  0  0  0  0  0  0
    8.8690    7.9080   23.4620 C   0  0  0  0  0  0  0  0  0  0  0  0
    8.8760    9.0030   24.2050 N   0  0  0  0  0  0  0  0  0  0  0  0
    9.8260    8.8930   25.1670 C   0  0  0  0  0  0  0  0  0  0  0  0
   10.1550    9.8350   26.1560 C   0  0  0  0  0  0  0  0  0  0  0  0
   11.2720    9.3980   27.0880 C   0  0  0  0  0  0  0  0  0  0  0  0
   11.9200    8.1890   26.9910 C   0  0  0  0  0  0  0  0  0  0  0  0
   12.8920    7.8790   27.8570 F   0  0  0  0  0  0  0  0  0  0  0  0
   11.4930    7.2190   25.8680 C   0  0  0  0  0  0  0  0  0  0  0  0
   10.4650    7.6340   25.0210 C   0  0  0  0  0  0  0  0  0  0  0  0
  1  2  2  0
  2  3  1  0
  3  4  1  0
  4  5  2  0
  5  6  1  0
  6  7  2  0
  7  8  1  0
  4  9  1  0
  8  9  2  0
  2 10  1  0
 10 11  1  0
 11 12  2  0
 12 13  1  0
 13 14  2  0
 14 15  1  0
 11 16  1  0
 15 16  2  0
 16 17  1  0
 17 18  2  0
 17 19  1  0
 19 20  1  0
 20 21  1  0
 21 22  1  0
 22 23  2  0
 23 24  1  0
 24 25  1  0
 25 26  1  0
 26 27  2  0
 27 28  1  0
 28 29  1  0
 28 30  2  0
 22 31  1  0
 25 31  2  0
 30 31  1  0
M  END
