MAK-UNK-198e6d85-7
     RDKit          3D

 21 23  0  0  0  0  0  0  0  0999 V2000
   13.0550   -1.5330   22.1710 N   0  0  0  0  0  0  0  0  0  0  0  0
   12.3940   -2.4990   23.0710 C   0  0  0  0  0  0  0  0  0  0  0  0
   11.4900   -2.0410   24.0580 C   0  0  2  0  0  0  0  0  0  0  0  0
   10.3800   -2.8460   24.2820 O   0  0  0  0  0  0  0  0  0  0  0  0
    8.9050   -2.5880   23.9220 C   0  0  2  0  0  0  0  0  0  0  0  0
    8.1250   -3.6130   23.0940 C   0  0  2  0  0  0  0  0  0  0  0  0
    7.0860   -3.0630   22.1730 C   0  0  0  0  0  0  0  0  0  0  0  0
    6.2170   -4.0570   21.6780 C   0  0  0  0  0  0  0  0  0  0  0  0
    6.4320   -5.4140   21.9260 C   0  0  0  0  0  0  0  0  0  0  0  0
    7.0350   -5.7860   23.1120 C   0  0  0  0  0  0  0  0  0  0  0  0
    7.6210   -4.7140   23.7860 C   0  0  2  0  0  0  0  0  0  0  0  0
    6.8720   -4.2460   24.6550 O   0  0  0  0  0  0  0  0  0  0  0  0
    9.1490   -1.3800   23.1540 C   0  0  0  0  0  0  0  0  0  0  0  0
   10.3970   -1.4440   23.5680 C   0  0  0  0  0  0  0  0  0  0  0  0
   11.3080   -0.5770   23.5730 C   0  0  0  0  0  0  0  0  0  0  0  0
   12.6190   -0.3610   23.9240 C   0  0  0  0  0  0  0  0  0  0  0  0
   13.0980   -1.5040   24.4970 C   0  0  0  0  0  0  0  0  0  0  0  0
   12.3210   -2.6010   24.6400 C   0  0  0  0  0  0  0  0  0  0  0  0
   12.9860   -3.6590   25.2770 O   0  0  0  0  0  0  0  0  0  0  0  0
   10.9570   -2.6180   24.1720 C   0  0  0  0  0  0  0  0  0  0  0  0
   10.2640   -3.7740   24.3460 O   0  0  0  0  0  0  0  0  0  0  0  0
  1  2  1  0
  3  2  1  6
  3  4  1  0
  4  5  1  0
  5  6  1  0
  6  7  1  1
  7  8  1  0
  8  9  1  0
  9 10  1  0
  6 11  1  0
 10 11  1  0
 11 12  1  1
  5 13  1  6
 13 14  1  0
  3 15  1  0
 14 15  2  0
 15 16  1  0
 16 17  2  0
 17 18  1  0
 18 19  1  0
 14 20  1  0
 18 20  2  0
 20 21  1  0
M  END
