MAK-UNK-9159f8ed-2
     RDKit          3D

 29 31  0  0  0  0  0  0  0  0999 V2000
    6.2530   -3.1240   26.9490 C   0  0  0  0  0  0  0  0  0  0  0  0
    6.9180   -3.0990   25.6770 O   0  0  0  0  0  0  0  0  0  0  0  0
    7.2920   -1.8650   25.2440 C   0  0  0  0  0  0  0  0  0  0  0  0
    6.8550   -0.8470   25.7540 O   0  0  0  0  0  0  0  0  0  0  0  0
    8.2590   -1.7880   24.0820 C   0  0  0  0  0  0  0  0  0  0  0  0
    9.7120   -1.5060   24.3640 C   0  0  0  0  0  0  0  0  0  0  0  0
   10.6310   -1.4190   23.3520 C   0  0  0  0  0  0  0  0  0  0  0  0
   10.1850   -1.6100   21.9290 C   0  0  0  0  0  0  0  0  0  0  0  0
    8.6910   -1.9020   21.7250 C   0  0  0  0  0  0  0  0  0  0  0  0
    8.2310   -2.1070   20.4060 N   0  0  0  0  0  0  0  0  0  0  0  0
    6.6000   -2.0380   19.9770 S   0  0  0  0  0  0  0  0  0  0  0  0
    6.4870   -1.9940   18.5410 O   0  0  0  0  0  0  0  0  0  0  0  0
    5.8960   -1.0980   20.8300 O   0  0  0  0  0  0  0  0  0  0  0  0
    6.0400   -3.6810   20.4680 C   0  0  0  0  0  0  0  0  0  0  0  0
    5.4330   -4.3840   19.6770 O   0  0  0  0  0  0  0  0  0  0  0  0
    6.3950   -3.9490   21.7520 N   0  0  0  0  0  0  0  0  0  0  0  0
    5.5440   -4.5640   22.6620 C   0  0  0  0  0  0  0  0  0  0  0  0
    5.3340   -5.9420   22.6630 C   0  0  0  0  0  0  0  0  0  0  0  0
    4.4630   -6.4980   23.5910 C   0  0  0  0  0  0  0  0  0  0  0  0
    3.7650   -5.6120   24.5700 C   0  0  0  0  0  0  0  0  0  0  0  0
    3.9920   -4.2330   24.5490 C   0  0  0  0  0  0  0  0  0  0  0  0
    3.3290   -3.3880   25.4810 N   0  0  0  0  0  0  0  0  0  0  0  0
    1.9680   -3.6180   25.9280 C   0  0  0  0  0  0  0  0  0  0  0  0
    1.7000   -2.5380   26.9660 C   0  0  0  0  0  0  0  0  0  0  0  0
    2.9440   -1.9260   27.1040 C   0  0  0  0  0  0  0  0  0  0  0  0
    3.8540   -2.2490   26.1080 C   0  0  0  0  0  0  0  0  0  0  0  0
    4.8700   -1.6210   25.8930 O   0  0  0  0  0  0  0  0  0  0  0  0
    4.8850   -3.7340   23.5880 C   0  0  0  0  0  0  0  0  0  0  0  0
    7.8000   -1.9750   22.7870 C   0  0  0  0  0  0  0  0  0  0  0  0
  1  2  1  0
  2  3  1  0
  3  4  2  0
  3  5  1  0
  5  6  2  0
  6  7  1  0
  7  8  2  0
  8  9  1  0
  9 10  1  0
 10 11  1  0
 11 12  2  0
 11 13  2  0
 11 14  1  0
 14 15  2  0
 14 16  1  0
 16 17  1  0
 17 18  2  0
 18 19  1  0
 19 20  2  0
 20 21  1  0
 21 22  1  0
 22 23  1  0
 23 24  1  0
 24 25  1  0
 22 26  1  0
 25 26  1  0
 26 27  2  0
 17 28  1  0
 21 28  2  0
  5 29  1  0
  9 29  2  0
M  END
