MAK-UNK-8fdbca50-35
     RDKit          3D

 40 43  0  0  0  0  0  0  0  0999 V2000
   13.0890   -0.7550   24.2720 C   0  0  0  0  0  0  0  0  0  0  0  0
   13.2930   -1.7980   23.3970 C   0  0  0  0  0  0  0  0  0  0  0  0
   12.5300   -2.8700   23.6570 C   0  0  0  0  0  0  0  0  0  0  0  0
   13.2160   -1.3950   22.0920 N   0  0  0  0  0  0  0  0  0  0  0  0
   13.3080   -2.4200   21.2380 C   0  0  0  0  0  0  0  0  0  0  0  0
   11.9940   -1.0300   22.0720 C   0  0  0  0  0  0  0  0  0  0  0  0
   11.0350   -1.8600   21.5690 O   0  0  0  0  0  0  0  0  0  0  0  0
   11.5680    0.2230   22.5820 C   0  0  1  0  0  0  0  0  0  0  0  0
   10.2020    0.3670   22.5430 C   0  0  0  0  0  0  0  0  0  0  0  0
    9.5220    0.5480   23.7260 C   0  0  0  0  0  0  0  0  0  0  0  0
    9.7250   -0.2950   24.7940 C   0  0  1  0  0  0  0  0  0  0  0  0
    9.4220   -0.1050   26.1150 N   0  0  0  0  0  0  0  0  0  0  0  0
    8.1480   -0.3600   26.7520 C   0  0  0  0  0  0  0  0  0  0  0  0
    7.2010    0.6060   26.4810 C   0  0  0  0  0  0  0  0  0  0  0  0
    7.0320    1.1720   25.2400 C   0  0  0  0  0  0  0  0  0  0  0  0
    6.0360    2.0810   25.2690 C   0  0  0  0  0  0  0  0  0  0  0  0
    5.6970    2.7760   24.0840 C   0  0  0  0  0  0  0  0  0  0  0  0
    4.5190    2.4580   23.3670 C   0  0  0  0  0  0  0  0  0  0  0  0
    4.1500    3.1030   22.2000 C   0  0  0  0  0  0  0  0  0  0  0  0
    4.9470    4.0970   21.7000 C   0  0  0  0  0  0  0  0  0  0  0  0
    6.1740    4.4910   22.3640 C   0  0  0  0  0  0  0  0  0  0  0  0
    6.5270    3.8140   23.5570 C   0  0  0  0  0  0  0  0  0  0  0  0
    7.6580    4.1650   24.1850 F   0  0  0  0  0  0  0  0  0  0  0  0
    5.4990    2.1640   26.5220 N   0  0  0  0  0  0  0  0  0  0  0  0
    4.2280    3.1320   27.1380 S   0  0  0  0  0  0  0  0  0  0  0  0
    4.5940    3.4430   28.5070 O   0  0  0  0  0  0  0  0  0  0  0  0
    3.0100    2.4120   26.8430 O   0  0  0  0  0  0  0  0  0  0  0  0
    4.2010    4.6140   26.1970 C   0  0  0  0  0  0  0  0  0  0  0  0
    3.5970    4.6650   24.9340 C   0  0  0  0  0  0  0  0  0  0  0  0
    3.5770    5.8600   24.1900 C   0  0  0  0  0  0  0  0  0  0  0  0
    4.1700    7.0090   24.7260 C   0  0  0  0  0  0  0  0  0  0  0  0
    4.7670    7.0000   25.9490 N   0  0  0  0  0  0  0  0  0  0  0  0
    4.7850    5.7560   26.7130 C   0  0  0  0  0  0  0  0  0  0  0  0
    6.2250    1.2360   27.2990 C   0  0  0  0  0  0  0  0  0  0  0  0
    8.7400   -1.4820   24.4020 C   0  0  0  0  0  0  0  0  0  0  0  0
    7.5670   -1.4340   24.8000 O   0  0  0  0  0  0  0  0  0  0  0  0
    9.1880   -2.6620   23.5400 C   0  0  0  0  0  0  0  0  0  0  0  0
    7.8420   -3.8110   23.3580 Cl  0  0  0  0  0  0  0  0  0  0  0  0
   11.2240   -0.6270   24.8390 C   0  0  0  0  0  0  0  0  0  0  0  0
   12.0350    0.3190   23.9960 C   0  0  0  0  0  0  0  0  0  0  0  0
  1  2  1  0
  2  3  1  0
  2  4  1  0
  4  5  1  0
  4  6  1  0
  6  7  2  0
  8  6  1  1
  8  9  1  0
  9 10  1  0
 10 11  1  0
 11 12  1  1
 12 13  1  0
 13 14  1  0
 14 15  1  0
 15 16  2  0
 16 17  1  0
 17 18  2  0
 18 19  1  0
 19 20  2  0
 20 21  1  0
 17 22  1  0
 21 22  2  0
 22 23  1  0
 16 24  1  0
 24 25  1  0
 25 26  2  0
 25 27  2  0
 25 28  1  0
 28 29  2  0
 29 30  1  0
 30 31  2  0
 31 32  1  0
 28 33  1  0
 32 33  2  0
 14 34  2  0
 24 34  1  0
 11 35  1  0
 35 36  2  0
 35 37  1  0
 37 38  1  0
 11 39  1  0
  8 40  1  0
 39 40  1  0
M  END
