MAK-UNK-5e88aa6a-1
     RDKit          3D

 16 16  0  0  0  0  0  0  0  0999 V2000
   15.1230   -5.3770   20.4380 C   0  0  0  0  0  0  0  0  0  0  0  0
   14.1740   -4.2790   20.0260 C   0  0  0  0  0  0  0  0  0  0  0  0
   13.3250   -3.5720   20.9370 C   0  0  0  0  0  0  0  0  0  0  0  0
   13.1710   -2.2640   20.9830 N   0  0  0  0  0  0  0  0  0  0  0  0
   12.0260   -1.9400   21.5340 C   0  0  0  0  0  0  0  0  0  0  0  0
   10.9850   -2.5390   21.3110 O   0  0  0  0  0  0  0  0  0  0  0  0
   12.0340   -0.9110   22.4080 C   0  0  0  0  0  0  0  0  0  0  0  0
   10.8940   -0.7160   23.1010 C   0  0  0  0  0  0  0  0  0  0  0  0
   11.3700    0.0210   24.1900 O   0  0  0  0  0  0  0  0  0  0  0  0
   11.5860    1.2670   23.7490 C   0  0  0  0  0  0  0  0  0  0  0  0
   10.4370    2.1670   24.0120 C   0  0  0  0  0  0  0  0  0  0  0  0
   10.4920    3.6210   23.5840 C   0  0  0  0  0  0  0  0  0  0  0  0
   11.6470    4.2810   22.8840 C   0  0  0  0  0  0  0  0  0  0  0  0
   12.3360    5.4100   22.2610 C   0  0  0  0  0  0  0  0  0  0  0  0
   12.6610    3.3710   22.6830 C   0  0  0  0  0  0  0  0  0  0  0  0
   12.7620    1.8920   23.0440 C   0  0  0  0  0  0  0  0  0  0  0  0
  1  2  1  0
  2  3  1  0
  3  4  1  0
  4  5  1  0
  5  6  2  0
  5  7  1  0
  7  8  1  0
  8  9  1  0
  9 10  1  0
 10 11  2  0
 11 12  1  0
 12 13  2  0
 13 14  1  0
 13 15  1  0
 10 16  1  0
 15 16  2  0
M  END
