MAK-UNK-10572812-6
     RDKit          3D

 34 38  0  0  0  0  0  0  0  0999 V2000
   13.3660   -1.4020   23.3420 C   0  0  0  0  0  0  0  0  0  0  0  0
   12.2850   -0.4640   23.5000 N   0  0  0  0  0  0  0  0  0  0  0  0
   11.1590   -1.0840   22.8260 C   0  0  0  0  0  0  0  0  0  0  0  0
   10.1160   -0.4020   23.1930 C   0  0  0  0  0  0  0  0  0  0  0  0
   10.0880    0.9170   22.5330 N   0  0  0  0  0  0  0  0  0  0  0  0
    9.0420    1.0450   21.6330 C   0  0  0  0  0  0  0  0  0  0  0  0
    8.7540    2.1280   21.1400 O   0  0  0  0  0  0  0  0  0  0  0  0
    8.2490   -0.2510   21.2770 C   0  0  0  0  0  0  0  0  0  0  0  0
    7.2210    0.0080   20.1700 C   0  0  0  0  0  0  0  0  0  0  0  0
    7.4190   -0.5190   18.7340 C   0  0  0  0  0  0  0  0  0  0  0  0
    6.3290   -0.0250   18.1300 N   0  0  0  0  0  0  0  0  0  0  0  0
    5.4280    0.7180   18.9090 C   0  0  0  0  0  0  0  0  0  0  0  0
    4.2850    1.2800   18.4590 N   0  0  0  0  0  0  0  0  0  0  0  0
    3.5590    1.9470   19.3970 C   0  0  0  0  0  0  0  0  0  0  0  0
    3.9970    2.0630   20.8570 C   0  0  0  0  0  0  0  0  0  0  0  0
    5.2790    1.4040   21.1950 C   0  0  0  0  0  0  0  0  0  0  0  0
    5.9960    0.7300   20.2210 C   0  0  0  0  0  0  0  0  0  0  0  0
   11.3310    1.8750   22.7270 C   0  0  2  0  0  0  0  0  0  0  0  0
   11.5200    3.1980   22.1040 C   0  0  0  0  0  0  0  0  0  0  0  0
   11.9280    4.2720   21.6880 O   0  0  0  0  0  0  0  0  0  0  0  0
   12.8580    3.2550   22.5490 N   0  0  0  0  0  0  0  0  0  0  0  0
   13.8320    4.3220   22.1190 C   0  0  0  0  0  0  0  0  0  0  0  0
   14.6890    4.0000   21.0370 C   0  0  0  0  0  0  0  0  0  0  0  0
   15.2910    5.0540   20.1120 C   0  0  0  0  0  0  0  0  0  0  0  0
   14.3370    5.8290   19.4810 C   0  0  0  0  0  0  0  0  0  0  0  0
   14.9450    6.8470   18.7620 N   0  0  0  0  0  0  0  0  0  0  0  0
   16.2240    6.8440   18.8550 C   0  0  0  0  0  0  0  0  0  0  0  0
   17.2830    7.8480   18.2980 C   0  0  0  0  0  0  0  0  0  0  0  0
   18.7520    7.6860   18.7040 C   0  0  0  0  0  0  0  0  0  0  0  0
   19.0040    6.4790   19.6410 C   0  0  0  0  0  0  0  0  0  0  0  0
   20.2220    6.2410   20.1720 F   0  0  0  0  0  0  0  0  0  0  0  0
   17.9170    5.4900   20.0210 C   0  0  0  0  0  0  0  0  0  0  0  0
   16.5550    5.6690   19.6920 C   0  0  0  0  0  0  0  0  0  0  0  0
   12.5650    0.9300   22.9800 C   0  0  0  0  0  0  0  0  0  0  0  0
  1  2  1  0
  2  3  1  0
  3  4  1  0
  4  5  1  0
  5  6  1  0
  6  7  2  0
  6  8  1  0
  8  9  1  0
  9 10  2  0
 10 11  1  0
 11 12  1  0
 12 13  1  0
 13 14  2  0
 14 15  1  0
 15 16  2  0
  9 17  1  0
 12 17  2  0
 16 17  1  0
  5 18  1  0
 18 19  1  6
 19 20  2  0
 19 21  1  0
 21 22  1  0
 22 23  1  0
 23 24  1  0
 24 25  2  0
 25 26  1  0
 26 27  1  0
 27 28  1  0
 28 29  2  0
 29 30  1  0
 30 31  1  0
 30 32  2  0
 24 33  1  0
 27 33  2  0
 32 33  1  0
  2 34  1  0
 18 34  1  0
M  END
