MAK-UNK-27459e11-10
     RDKit          3D

 17 17  0  0  0  0  0  0  0  0999 V2000
    5.7870   -5.4780   25.5260 C   0  0  0  0  0  0  0  0  0  0  0  0
    7.2170   -4.4590   25.3340 S   0  0  0  0  0  0  0  0  0  0  0  0
    8.3880   -5.3120   25.3590 O   0  0  0  0  0  0  0  0  0  0  0  0
    7.0210   -3.3920   26.2880 O   0  0  0  0  0  0  0  0  0  0  0  0
    7.1120   -3.8290   23.7800 N   0  0  0  0  0  0  0  0  0  0  0  0
    8.2050   -3.2670   23.0420 C   0  0  0  0  0  0  0  0  0  0  0  0
    8.3250   -1.7550   22.7050 C   0  0  0  0  0  0  0  0  0  0  0  0
    9.6630   -0.9970   22.9630 C   0  0  0  0  0  0  0  0  0  0  0  0
    9.6130    0.3060   23.6940 C   0  0  0  0  0  0  0  0  0  0  0  0
   10.8410    1.1080   23.9850 C   0  0  0  0  0  0  0  0  0  0  0  0
   12.0340    0.5830   23.5530 C   0  0  0  0  0  0  0  0  0  0  0  0
   12.0520   -0.6340   22.8800 C   0  0  0  0  0  0  0  0  0  0  0  0
   13.2380   -1.0910   22.5220 C   0  0  0  0  0  0  0  0  0  0  0  0
   13.5350   -2.0170   23.5750 C   0  0  0  0  0  0  0  0  0  0  0  0
   13.3040   -1.6790   24.9230 N   0  0  0  0  0  0  0  0  0  0  0  0
   13.9900   -3.1720   23.2190 N   0  0  0  0  0  0  0  0  0  0  0  0
   10.9250   -1.4240   22.5740 C   0  0  0  0  0  0  0  0  0  0  0  0
  1  2  1  0
  2  3  2  0
  2  4  2  0
  2  5  1  0
  5  6  1  0
  6  7  1  0
  7  8  1  0
  8  9  2  0
  9 10  1  0
 10 11  2  0
 11 12  1  0
 12 13  1  0
 13 14  1  0
 14 15  2  3
 14 16  1  0
  8 17  1  0
 12 17  2  0
M  END
