MAK-UNK-a7992eb3-28
     RDKit          3D

 26 27  0  0  0  0  0  0  0  0999 V2000
    2.0040   -7.4950   22.7110 C   0  0  0  0  0  0  0  0  0  0  0  0
    1.5480   -8.5340   23.7590 C   0  0  0  0  0  0  0  0  0  0  0  0
    2.2260   -8.8150   24.7410 O   0  0  0  0  0  0  0  0  0  0  0  0
    0.3270   -9.1060   23.4670 N   0  0  0  0  0  0  0  0  0  0  0  0
   -0.6110   -9.4040   24.5400 C   0  0  1  0  0  0  0  0  0  0  0  0
   -1.4140   -8.2930   24.8170 C   0  0  0  0  0  0  0  0  0  0  0  0
   -0.7790   -7.1270   25.2540 C   0  0  0  0  0  0  0  0  0  0  0  0
   -0.1110   -7.0810   26.4530 C   0  0  0  0  0  0  0  0  0  0  0  0
    0.5310   -5.9440   26.9240 C   0  0  0  0  0  0  0  0  0  0  0  0
    0.5160   -4.7530   26.1510 C   0  0  0  0  0  0  0  0  0  0  0  0
    1.1240   -3.5880   26.5360 O   0  0  0  0  0  0  0  0  0  0  0  0
    2.0820   -3.0910   25.6600 C   0  0  0  0  0  0  0  0  0  0  0  0
    3.2310   -3.8480   25.6490 C   0  0  0  0  0  0  0  0  0  0  0  0
    4.0980   -2.3480   25.9930 S   0  0  0  0  0  0  0  0  0  0  0  0
    4.7160   -2.3490   27.3050 O   0  0  0  0  0  0  0  0  0  0  0  0
    4.7990   -1.8710   24.8220 O   0  0  0  0  0  0  0  0  0  0  0  0
    2.4190   -1.7940   26.0270 C   0  0  0  0  0  0  0  0  0  0  0  0
   -0.1780   -4.8170   24.9110 C   0  0  0  0  0  0  0  0  0  0  0  0
   -0.8330   -5.9620   24.4210 C   0  0  0  0  0  0  0  0  0  0  0  0
   -1.4100  -10.6360   24.0850 C   0  0  0  0  0  0  0  0  0  0  0  0
   -1.5300  -10.9500   22.9000 O   0  0  0  0  0  0  0  0  0  0  0  0
   -1.9870  -11.3910   25.1340 N   0  0  0  0  0  0  0  0  0  0  0  0
   -1.4430  -12.7200   25.4420 C   0  0  0  0  0  0  0  0  0  0  0  0
   -0.0810  -12.6750   25.7740 C   0  0  0  0  0  0  0  0  0  0  0  0
    0.8400  -13.8270   26.0100 C   0  0  0  0  0  0  0  0  0  0  0  0
    1.2390  -14.3590   27.7800 Br  0  0  0  0  0  0  0  0  0  0  0  0
  1  2  1  0
  2  3  2  0
  2  4  1  0
  4  5  1  0
  5  6  1  6
  6  7  1  0
  7  8  2  0
  8  9  1  0
  9 10  2  0
 10 11  1  0
 11 12  1  0
 12 13  1  0
 14 13  1  0
 14 15  2  0
 14 16  2  0
 12 17  1  0
 14 17  1  0
 10 18  1  0
  7 19  1  0
 18 19  2  0
  5 20  1  0
 20 21  2  0
 20 22  1  0
 22 23  1  0
 23 24  1  0
 24 25  3  0
 25 26  1  0
M  END
