MAK-UNK-5e88aa6a-2
     RDKit          3D

 17 18  0  0  0  0  0  0  0  0999 V2000
   11.1830   -2.2550   23.7780 C   0  0  0  0  0  0  0  0  0  0  0  0
   12.1120   -1.4570   22.9140 C   0  0  0  0  0  0  0  0  0  0  0  0
   12.8060   -0.4390   23.5710 C   0  0  0  0  0  0  0  0  0  0  0  0
   12.2640    0.8310   23.6550 C   0  0  2  0  0  0  0  0  0  0  0  0
   10.9210    1.0960   23.5470 C   0  0  0  0  0  0  0  0  0  0  0  0
   10.3390    2.3760   23.5530 C   0  0  0  0  0  0  0  0  0  0  0  0
   11.1760    3.5590   23.2580 C   0  0  1  0  0  0  0  0  0  0  0  0
   11.3690    4.4330   24.1360 O   0  0  0  0  0  0  0  0  0  0  0  0
   10.5750    5.5860   24.0690 C   0  0  0  0  0  0  0  0  0  0  0  0
   10.3440    6.1620   22.7750 C   0  0  0  0  0  0  0  0  0  0  0  0
    9.5810    7.2390   22.6680 C   0  0  0  0  0  0  0  0  0  0  0  0
    9.0160    7.8100   23.8900 C   0  0  0  0  0  0  0  0  0  0  0  0
    8.1980    8.9430   23.9480 C   0  0  0  0  0  0  0  0  0  0  0  0
    9.2130    7.3100   25.1470 C   0  0  0  0  0  0  0  0  0  0  0  0
   10.0140    6.1690   25.2250 C   0  0  0  0  0  0  0  0  0  0  0  0
   12.4330    3.1840   22.7960 C   0  0  0  0  0  0  0  0  0  0  0  0
   12.8420    1.7040   22.7860 C   0  0  0  0  0  0  0  0  0  0  0  0
  1  2  1  0
  2  3  1  0
  4  3  1  6
  4  5  1  0
  5  6  1  0
  6  7  1  0
  7  8  1  1
  8  9  1  0
  9 10  2  0
 10 11  1  0
 11 12  2  0
 12 13  1  0
 12 14  1  0
  9 15  1  0
 14 15  2  0
  7 16  1  0
  4 17  1  0
 16 17  1  0
M  END
