MAK-UNK-acefcb18-12
     RDKit          3D

 12 13  0  0  0  0  0  0  0  0999 V2000
    8.2870   -4.7620   27.5860 C   0  0  0  0  0  0  0  0  0  0  0  0
    7.9730   -4.4600   26.2500 C   0  0  0  0  0  0  0  0  0  0  0  0
    8.8070   -4.9820   25.2700 C   0  0  0  0  0  0  0  0  0  0  0  0
    9.6420   -3.9680   24.6910 C   0  0  0  0  0  0  0  0  0  0  0  0
    9.1170   -3.1690   23.7000 N   0  0  0  0  0  0  0  0  0  0  0  0
   10.2920   -2.6150   22.9740 C   0  0  0  0  0  0  0  0  0  0  0  0
   10.0040   -1.3960   23.5260 C   0  0  0  0  0  0  0  0  0  0  0  0
   10.3980   -0.1470   23.6030 C   0  0  0  0  0  0  0  0  0  0  0  0
   11.8200   -0.0800   22.6480 S   0  0  0  0  0  0  0  0  0  0  0  0
   11.4360   -1.8510   22.3430 C   0  0  0  0  0  0  0  0  0  0  0  0
    8.0830   -2.5090   24.4060 C   0  0  0  0  0  0  0  0  0  0  0  0
    7.7740   -2.9270   25.9340 C   0  0  0  0  0  0  0  0  0  0  0  0
  1  2  1  0
  2  3  1  0
  3  4  1  0
  4  5  1  0
  5  6  1  0
  6  7  1  0
  7  8  2  0
  8  9  1  0
  6 10  2  0
  9 10  1  0
  5 11  1  0
  2 12  1  0
 11 12  1  0
M  END
