MAK-UNK-10572812-3
     RDKit          3D

 34 38  0  0  0  0  0  0  0  0999 V2000
   13.4080   -1.4570   23.4160 C   0  0  0  0  0  0  0  0  0  0  0  0
   12.1160   -1.0720   23.5780 N   0  0  0  0  0  0  0  0  0  0  0  0
   11.0080   -1.8130   23.1530 C   0  0  0  0  0  0  0  0  0  0  0  0
    9.7480   -1.2360   23.5690 C   0  0  0  0  0  0  0  0  0  0  0  0
    9.7080   -0.0910   22.8440 N   0  0  0  0  0  0  0  0  0  0  0  0
    8.8100    0.3180   21.7810 C   0  0  0  0  0  0  0  0  0  0  0  0
    8.9180    1.4040   21.1730 O   0  0  0  0  0  0  0  0  0  0  0  0
    7.7550   -0.5970   21.5220 C   0  0  2  0  0  0  0  0  0  0  0  0
    7.9120   -1.9350   21.8940 C   0  0  0  0  0  0  0  0  0  0  0  0
    9.2060   -2.4720   21.5970 O   0  0  0  0  0  0  0  0  0  0  0  0
    6.8960   -2.6530   22.5210 N   0  0  0  0  0  0  0  0  0  0  0  0
    7.0730   -4.0430   22.3880 C   0  0  0  0  0  0  0  0  0  0  0  0
    6.6880   -5.0330   23.4860 C   0  0  0  0  0  0  0  0  0  0  0  0
    5.3670   -4.5430   24.0890 C   0  0  0  0  0  0  0  0  0  0  0  0
    5.3690   -3.3640   24.9770 C   0  0  0  0  0  0  0  0  0  0  0  0
    4.0380   -3.1660   25.3600 N   0  0  0  0  0  0  0  0  0  0  0  0
    3.2320   -4.1210   24.7830 C   0  0  0  0  0  0  0  0  0  0  0  0
    1.8610   -4.2480   24.9310 C   0  0  0  0  0  0  0  0  0  0  0  0
    1.0750   -5.3600   24.2320 C   0  0  0  0  0  0  0  0  0  0  0  0
    1.8230   -6.3670   23.3410 C   0  0  0  0  0  0  0  0  0  0  0  0
    1.1880   -7.3620   22.7050 F   0  0  0  0  0  0  0  0  0  0  0  0
    3.3460   -6.1580   23.2310 C   0  0  0  0  0  0  0  0  0  0  0  0
    4.0060   -5.0020   23.9840 C   0  0  0  0  0  0  0  0  0  0  0  0
    7.1090   -0.2830   20.3120 C   0  0  0  0  0  0  0  0  0  0  0  0
    7.3440   -0.6060   18.9580 C   0  0  0  0  0  0  0  0  0  0  0  0
    6.4450   -0.0390   18.1200 N   0  0  0  0  0  0  0  0  0  0  0  0
    5.4930    0.7280   18.9090 C   0  0  0  0  0  0  0  0  0  0  0  0
    4.4680    1.4130   18.3700 N   0  0  0  0  0  0  0  0  0  0  0  0
    3.7060    2.0440   19.2810 C   0  0  0  0  0  0  0  0  0  0  0  0
    3.9100    2.0430   20.7760 C   0  0  0  0  0  0  0  0  0  0  0  0
    5.1170    1.2310   21.2440 C   0  0  0  0  0  0  0  0  0  0  0  0
    5.8680    0.5970   20.2650 C   0  0  0  0  0  0  0  0  0  0  0  0
   10.6730    0.8810   23.3670 C   0  0  0  0  0  0  0  0  0  0  0  0
   11.9920    0.3880   23.2890 C   0  0  0  0  0  0  0  0  0  0  0  0
  1  2  1  0
  2  3  1  0
  3  4  1  0
  4  5  1  0
  5  6  1  0
  6  7  2  0
  8  6  1  6
  8  9  1  0
  9 10  2  0
  9 11  1  0
 11 12  1  0
 12 13  1  0
 13 14  1  0
 14 15  2  0
 15 16  1  0
 16 17  1  0
 17 18  1  0
 18 19  2  0
 19 20  1  0
 20 21  1  0
 20 22  2  0
 14 23  1  0
 17 23  2  0
 22 23  1  0
  8 24  1  0
 24 25  2  0
 25 26  1  0
 26 27  1  0
 27 28  1  0
 28 29  2  0
 29 30  1  0
 30 31  2  0
 24 32  1  0
 27 32  2  0
 31 32  1  0
  5 33  1  0
  2 34  1  0
 33 34  1  0
M  END
