MAK-UNK-702fb7d3-21
     RDKit          3D

 43 48  0  0  0  0  0  0  0  0999 V2000
    5.3340   -0.7090   23.3990 C   0  0  0  0  0  0  0  0  0  0  0  0
    6.1900   -0.5070   24.4720 N   0  0  0  0  0  0  0  0  0  0  0  0
    7.4530    0.0770   24.0390 C   0  0  0  0  0  0  0  0  0  0  0  0
    8.5120   -1.0190   23.7480 C   0  0  0  0  0  0  0  0  0  0  0  0
    9.7800   -0.6100   23.2980 C   0  0  0  0  0  0  0  0  0  0  0  0
   11.1120   -1.6580   23.8560 Cl  0  0  0  0  0  0  0  0  0  0  0  0
    8.1210   -2.2400   24.0160 N   0  0  0  0  0  0  0  0  0  0  0  0
    7.2330   -2.2880   25.1940 C   0  0  0  0  0  0  0  0  0  0  0  0
    6.5480   -3.4430   25.3820 C   0  0  0  0  0  0  0  0  0  0  0  0
    5.5920   -3.5190   26.4110 C   0  0  0  0  0  0  0  0  0  0  0  0
    4.8730   -4.7040   26.5770 C   0  0  0  0  0  0  0  0  0  0  0  0
    5.0990   -5.8740   25.6790 C   0  0  0  0  0  0  0  0  0  0  0  0
    6.0630   -5.6870   24.7050 C   0  0  0  0  0  0  0  0  0  0  0  0
    6.7830   -4.5270   24.5510 C   0  0  0  0  0  0  0  0  0  0  0  0
    7.7190   -4.4980   23.5260 C   0  0  1  0  0  0  0  0  0  0  0  0
    6.9820   -4.2360   22.3790 C   0  0  0  0  0  0  0  0  0  0  0  0
    6.4510   -5.2980   21.6140 C   0  0  0  0  0  0  0  0  0  0  0  0
    5.6800   -5.0780   20.4590 C   0  0  0  0  0  0  0  0  0  0  0  0
    5.4370   -3.7580   20.0670 C   0  0  0  0  0  0  0  0  0  0  0  0
    5.9680   -2.6300   20.8300 C   0  0  0  0  0  0  0  0  0  0  0  0
    6.7540   -2.8960   22.0040 C   0  0  0  0  0  0  0  0  0  0  0  0
    8.8390   -3.4350   23.6750 C   0  0  0  0  0  0  0  0  0  0  0  0
    7.5600    1.4700   24.0220 C   0  0  0  0  0  0  0  0  0  0  0  0
    8.1350    2.4060   23.1910 C   0  0  0  0  0  0  0  0  0  0  0  0
    7.9480    3.6510   23.7500 C   0  0  0  0  0  0  0  0  0  0  0  0
    8.4190    4.9670   23.2340 C   0  0  0  0  0  0  0  0  0  0  0  0
    7.4830    5.9000   22.8420 C   0  0  0  0  0  0  0  0  0  0  0  0
    7.9220    7.1180   22.4060 C   0  0  0  0  0  0  0  0  0  0  0  0
    9.2790    7.3600   22.3780 C   0  0  0  0  0  0  0  0  0  0  0  0
   10.2230    6.4350   22.7540 C   0  0  0  0  0  0  0  0  0  0  0  0
    9.7860    5.2200   23.1870 C   0  0  0  0  0  0  0  0  0  0  0  0
   10.6800    4.2940   23.5690 F   0  0  0  0  0  0  0  0  0  0  0  0
    7.2510    3.4810   24.9120 N   0  0  0  0  0  0  0  0  0  0  0  0
    6.7700    4.6920   26.0220 S   0  0  0  0  0  0  0  0  0  0  0  0
    6.0190    4.0110   27.0600 O   0  0  0  0  0  0  0  0  0  0  0  0
    6.2160    5.7760   25.2420 O   0  0  0  0  0  0  0  0  0  0  0  0
    8.3010    5.1970   26.7390 C   0  0  0  0  0  0  0  0  0  0  0  0
    9.4400    5.3500   25.9520 C   0  0  0  0  0  0  0  0  0  0  0  0
   10.6270    5.7500   26.5470 C   0  0  0  0  0  0  0  0  0  0  0  0
   10.6300    5.9810   27.9140 C   0  0  0  0  0  0  0  0  0  0  0  0
    9.5380    5.8400   28.7010 N   0  0  0  0  0  0  0  0  0  0  0  0
    8.3870    5.4480   28.0970 C   0  0  0  0  0  0  0  0  0  0  0  0
    7.0030    2.1690   25.0840 C   0  0  0  0  0  0  0  0  0  0  0  0
  1  2  1  0
  2  3  1  0
  3  4  2  3
  4  5  1  0
  5  6  1  0
  4  7  1  0
  7  8  1  0
  8  9  1  0
  9 10  2  0
 10 11  1  0
 11 12  2  0
 12 13  1  0
  9 14  1  0
 13 14  2  0
 14 15  1  0
 15 16  1  6
 16 17  2  0
 17 18  1  0
 18 19  2  0
 19 20  1  0
 16 21  1  0
 20 21  2  0
  7 22  1  0
 15 22  1  0
  3 23  1  0
 23 24  1  0
 24 25  2  0
 25 26  1  0
 26 27  2  0
 27 28  1  0
 28 29  2  0
 29 30  1  0
 26 31  1  0
 30 31  2  0
 31 32  1  0
 25 33  1  0
 33 34  1  0
 34 35  2  0
 34 36  2  0
 34 37  1  0
 37 38  2  0
 38 39  1  0
 39 40  2  0
 40 41  1  0
 37 42  1  0
 41 42  2  0
 23 43  2  0
 33 43  1  0
M  END
