MAK-UNK-194150d3-8
     RDKit          3D

 19 19  0  0  0  0  0  0  0  0999 V2000
    4.1280    2.3610   18.7240 O   0  0  0  0  0  0  0  0  0  0  0  0
    3.1420    3.0800   18.8040 C   0  0  0  0  0  0  0  0  0  0  0  0
    2.0240    3.2650   20.2100 S   0  0  0  0  0  0  0  0  0  0  0  0
    3.2850    3.6800   21.4610 C   0  0  0  0  0  0  0  0  0  0  0  0
    4.1010    2.5620   21.7050 C   0  0  0  0  0  0  0  0  0  0  0  0
    5.0330    2.2680   20.8070 N   0  0  0  0  0  0  0  0  0  0  0  0
    4.7020    1.0610   20.2490 C   0  0  0  0  0  0  0  0  0  0  0  0
    3.3110    0.7970   20.0190 O   0  0  0  0  0  0  0  0  0  0  0  0
    5.5810    0.1130   19.9160 C   0  0  0  0  0  0  0  0  0  0  0  0
    7.0200    0.2900   20.1480 C   0  0  0  0  0  0  0  0  0  0  0  0
    7.5710   -0.2080   21.3890 N   0  0  0  0  0  0  0  0  0  0  0  0
    8.7760    0.1190   21.9930 C   0  0  0  0  0  0  0  0  0  0  0  0
    9.1800   -0.8020   22.9690 C   0  0  0  0  0  0  0  0  0  0  0  0
   10.5320   -1.1360   23.1190 C   0  0  0  0  0  0  0  0  0  0  0  0
   11.3690   -1.3670   22.0430 C   0  0  0  0  0  0  0  0  0  0  0  0
   12.6940   -1.6940   22.1820 C   0  0  0  0  0  0  0  0  0  0  0  0
   13.2450   -1.8090   23.4260 C   0  0  0  0  0  0  0  0  0  0  0  0
   12.4770   -1.5960   24.5550 C   0  0  0  0  0  0  0  0  0  0  0  0
   11.1110   -1.2630   24.3980 C   0  0  0  0  0  0  0  0  0  0  0  0
  1  2  2  0
  2  3  1  0
  3  4  1  0
  4  5  1  0
  5  6  1  0
  6  7  1  0
  7  8  2  0
  7  9  1  0
  9 10  1  0
 10 11  1  0
 11 12  1  0
 12 13  1  0
 13 14  1  0
 14 15  2  0
 15 16  1  0
 16 17  2  0
 17 18  1  0
 14 19  1  0
 18 19  2  0
M  END
