MAK-UNK-acefcb18-5
     RDKit          3D

 22 24  0  0  0  0  0  0  0  0999 V2000
    7.9620   -2.0490   24.3290 C   0  0  0  0  0  0  0  0  0  0  0  0
    8.3020   -3.1380   25.0510 C   0  0  0  0  0  0  0  0  0  0  0  0
    9.3950   -4.0490   24.4890 C   0  0  0  0  0  0  0  0  0  0  0  0
    9.3810   -5.0940   25.6600 C   0  0  0  0  0  0  0  0  0  0  0  0
    8.5710   -4.9780   26.6890 C   0  0  0  0  0  0  0  0  0  0  0  0
    8.2020   -3.9180   26.1630 O   0  0  0  0  0  0  0  0  0  0  0  0
    7.7480   -2.9410   27.2020 C   0  0  1  0  0  0  0  0  0  0  0  0
    8.2360   -1.6230   27.0100 C   0  0  1  0  0  0  0  0  0  0  0  0
    7.3670   -0.9380   26.1110 O   0  0  0  0  0  0  0  0  0  0  0  0
    8.1690   -0.8970   27.9870 O   0  0  0  0  0  0  0  0  0  0  0  0
    7.2140   -1.4190   28.9390 C   0  0  1  0  0  0  0  0  0  0  0  0
    7.2420   -0.5460   30.1840 C   0  0  0  0  0  0  0  0  0  0  0  0
    8.5020    0.0550   30.6910 C   0  0  0  0  0  0  0  0  0  0  0  0
    8.3870    0.8140   31.8240 C   0  0  0  0  0  0  0  0  0  0  0  0
    6.7610    0.8620   32.3630 S   0  0  0  0  0  0  0  0  0  0  0  0
    6.2040   -0.1700   31.0240 C   0  0  0  0  0  0  0  0  0  0  0  0
    6.0230   -1.7730   28.2610 C   0  0  2  0  0  0  0  0  0  0  0  0
    5.0460   -2.3380   29.1740 O   0  0  0  0  0  0  0  0  0  0  0  0
    6.2010   -2.7270   27.2390 C   0  0  2  0  0  0  0  0  0  0  0  0
    5.4930   -3.9250   27.6190 O   0  0  0  0  0  0  0  0  0  0  0  0
    7.6640   -4.3080   27.2600 C   0  0  0  0  0  0  0  0  0  0  0  0
    7.4620   -3.2510   26.3810 C   0  0  0  0  0  0  0  0  0  0  0  0
  1  2  1  0
  2  3  2  0
  3  4  1  0
  4  5  2  0
  5  6  1  0
  7  6  1  6
  7  8  1  0
  8  9  1  6
  8 10  1  0
 10 11  1  0
 11 12  1  1
 12 13  1  0
 13 14  2  0
 14 15  1  0
 12 16  2  0
 15 16  1  0
 11 17  1  0
 17 18  1  1
  7 19  1  0
 17 19  1  0
 19 20  1  1
  5 21  1  0
  2 22  1  0
 21 22  2  0
M  END
