MAK-UNK-10572812-2
     RDKit          3D

 34 38  0  0  0  0  0  0  0  0999 V2000
   14.2480   -2.7340   26.1140 C   0  0  0  0  0  0  0  0  0  0  0  0
   13.1250   -2.6470   25.1800 C   0  0  0  0  0  0  0  0  0  0  0  0
   12.1890   -3.4170   25.1330 O   0  0  0  0  0  0  0  0  0  0  0  0
   13.3490   -1.6410   24.3690 N   0  0  0  0  0  0  0  0  0  0  0  0
   13.5940   -2.1330   23.1520 C   0  0  1  0  0  0  0  0  0  0  0  0
   14.3390   -3.4400   23.2460 C   0  0  0  0  0  0  0  0  0  0  0  0
   15.7370   -4.3270   22.3960 C   0  0  0  0  0  0  0  0  0  0  0  0
   15.6900   -5.3200   21.5020 C   0  0  0  0  0  0  0  0  0  0  0  0
   16.8040   -5.3000   20.8740 N   0  0  0  0  0  0  0  0  0  0  0  0
   17.5430   -4.3820   21.3890 C   0  0  0  0  0  0  0  0  0  0  0  0
   18.7140   -3.8590   20.8860 C   0  0  0  0  0  0  0  0  0  0  0  0
   19.7520   -2.6370   21.2470 C   0  0  0  0  0  0  0  0  0  0  0  0
   19.1740   -2.3190   22.4210 C   0  0  0  0  0  0  0  0  0  0  0  0
   19.8360   -1.3570   23.0770 F   0  0  0  0  0  0  0  0  0  0  0  0
   18.0460   -2.7420   23.0620 C   0  0  0  0  0  0  0  0  0  0  0  0
   17.1450   -3.8330   22.3840 C   0  0  0  0  0  0  0  0  0  0  0  0
   12.2360   -1.8580   22.6700 N   0  0  0  0  0  0  0  0  0  0  0  0
   11.0980   -2.2830   23.4590 C   0  0  0  0  0  0  0  0  0  0  0  0
    9.8240   -1.7500   22.8430 C   0  0  0  0  0  0  0  0  0  0  0  0
    9.7690   -0.4400   22.5670 N   0  0  0  0  0  0  0  0  0  0  0  0
    8.8000    0.0120   21.7180 C   0  0  0  0  0  0  0  0  0  0  0  0
    8.7050    1.2080   21.4220 O   0  0  0  0  0  0  0  0  0  0  0  0
    7.8510   -1.0650   21.1790 C   0  0  0  0  0  0  0  0  0  0  0  0
    6.9890   -0.4720   20.0600 C   0  0  0  0  0  0  0  0  0  0  0  0
    7.1000   -0.7530   18.6990 C   0  0  0  0  0  0  0  0  0  0  0  0
    6.1980   -0.0400   17.9960 N   0  0  0  0  0  0  0  0  0  0  0  0
    5.3970    0.7700   18.9260 C   0  0  0  0  0  0  0  0  0  0  0  0
    4.4080    1.5810   18.5090 N   0  0  0  0  0  0  0  0  0  0  0  0
    3.7860    2.2250   19.5090 C   0  0  0  0  0  0  0  0  0  0  0  0
    4.1060    2.1160   20.9850 C   0  0  0  0  0  0  0  0  0  0  0  0
    5.2600    1.1660   21.3170 C   0  0  0  0  0  0  0  0  0  0  0  0
    5.8610    0.5230   20.2480 C   0  0  0  0  0  0  0  0  0  0  0  0
   10.9830    0.3220   22.8910 C   0  0  0  0  0  0  0  0  0  0  0  0
   12.2100   -0.3540   22.6040 C   0  0  0  0  0  0  0  0  0  0  0  0
  1  2  1  0
  2  3  2  0
  2  4  1  0
  4  5  1  0
  5  6  1  1
  6  7  1  0
  7  8  2  0
  8  9  1  0
  9 10  1  0
 10 11  1  0
 11 12  2  0
 12 13  1  0
 13 14  1  0
 13 15  2  0
  7 16  1  0
 10 16  2  0
 15 16  1  0
  5 17  1  0
 17 18  1  0
 18 19  1  0
 19 20  1  0
 20 21  1  0
 21 22  2  0
 21 23  1  0
 23 24  1  0
 24 25  2  0
 25 26  1  0
 26 27  1  0
 27 28  1  0
 28 29  2  0
 29 30  1  0
 30 31  2  0
 24 32  1  0
 27 32  2  0
 31 32  1  0
 20 33  1  0
 17 34  1  0
 33 34  1  0
M  END
