MAK-UNK-f2409524-20
     RDKit          3D

 23 24  0  0  0  0  0  0  0  0999 V2000
    9.7710   -0.6860   22.3860 C   0  0  0  0  0  0  0  0  0  0  0  0
    8.7770    0.1560   21.5730 C   0  0  0  0  0  0  0  0  0  0  0  0
    9.0910    1.3120   21.2220 O   0  0  0  0  0  0  0  0  0  0  0  0
    7.5380   -0.4130   21.2490 N   0  0  0  0  0  0  0  0  0  0  0  0
    6.6530    0.1610   20.2400 C   0  0  0  0  0  0  0  0  0  0  0  0
    6.9910   -0.1780   18.9340 C   0  0  0  0  0  0  0  0  0  0  0  0
    6.2490    0.3160   17.7610 N   0  0  0  0  0  0  0  0  0  0  0  0
    5.1120    1.1970   18.0650 C   0  0  0  0  0  0  0  0  0  0  0  0
    4.8370    1.4730   19.3850 C   0  0  0  0  0  0  0  0  0  0  0  0
    5.5380    1.0050   20.4900 C   0  0  0  0  0  0  0  0  0  0  0  0
    5.2030    1.3260   21.7620 N   0  0  0  0  0  0  0  0  0  0  0  0
    4.7770    2.6050   21.9690 C   0  0  0  0  0  0  0  0  0  0  0  0
    3.4100    2.6620   21.6700 C   0  0  0  0  0  0  0  0  0  0  0  0
    2.8840    1.8680   20.9010 O   0  0  0  0  0  0  0  0  0  0  0  0
    2.5260    3.6040   22.2000 C   0  0  0  0  0  0  0  0  0  0  0  0
    2.8860    4.3950   23.0660 O   0  0  0  0  0  0  0  0  0  0  0  0
    1.1670    3.4900   21.5830 N   0  0  0  0  0  0  0  0  0  0  0  0
    0.5070    4.7300   21.4190 C   0  0  0  0  0  0  0  0  0  0  0  0
   -0.3470    4.8280   20.1600 C   0  0  0  0  0  0  0  0  0  0  0  0
   -1.5400    5.6960   20.5580 C   0  0  0  0  0  0  0  0  0  0  0  0
   -1.1850    6.8530   21.2490 C   0  0  0  0  0  0  0  0  0  0  0  0
   -0.6170    6.5540   22.4900 C   0  0  0  0  0  0  0  0  0  0  0  0
   -0.1540    5.2300   22.5510 C   0  0  0  0  0  0  0  0  0  0  0  0
  1  2  1  0
  2  3  2  0
  2  4  1  0
  4  5  1  0
  5  6  2  0
  6  7  1  0
  7  8  2  0
  8  9  1  0
  5 10  1  0
  9 10  2  0
 10 11  1  0
 11 12  1  0
 12 13  1  0
 13 14  2  0
 13 15  1  0
 15 16  2  0
 15 17  1  0
 17 18  1  0
 18 19  1  0
 19 20  1  0
 20 21  1  0
 21 22  1  0
 18 23  1  0
 22 23  1  0
M  END
