MAK-UNK-198e6d85-13
     RDKit          3D

 20 22  0  0  0  0  0  0  0  0999 V2000
   13.9590   -2.8170   24.1120 N   0  0  0  0  0  0  0  0  0  0  0  0
   12.8610   -2.0520   24.7450 C   0  0  0  0  0  0  0  0  0  0  0  0
   11.6360   -2.0440   23.8600 C   0  0  1  0  0  0  0  0  0  0  0  0
   10.4970   -2.7590   24.1680 O   0  0  0  0  0  0  0  0  0  0  0  0
    9.0450   -2.4400   23.7890 C   0  0  2  0  0  0  0  0  0  0  0  0
    7.9670   -3.4890   23.4580 C   0  0  0  0  0  0  0  0  0  0  0  0
    7.6350   -3.5060   22.1230 C   0  0  0  0  0  0  0  0  0  0  0  0
    6.3530   -4.2380   21.7710 C   0  0  0  0  0  0  0  0  0  0  0  0
    6.5410   -5.6470   22.2890 C   0  0  0  0  0  0  0  0  0  0  0  0
    7.2560   -5.7160   23.6260 C   0  0  0  0  0  0  0  0  0  0  0  0
    7.9760   -4.6160   24.1970 C   0  0  0  0  0  0  0  0  0  0  0  0
    9.3620   -1.6250   22.6190 C   0  0  0  0  0  0  0  0  0  0  0  0
   10.5660   -1.6030   23.1830 C   0  0  0  0  0  0  0  0  0  0  0  0
   11.4920   -0.6170   23.2470 C   0  0  0  0  0  0  0  0  0  0  0  0
   12.7180   -0.3540   23.7480 C   0  0  0  0  0  0  0  0  0  0  0  0
   13.1780   -1.4390   24.4300 C   0  0  0  0  0  0  0  0  0  0  0  0
   12.4030   -2.7040   24.5710 C   0  0  0  0  0  0  0  0  0  0  0  0
   12.9590   -3.6920   25.2800 O   0  0  0  0  0  0  0  0  0  0  0  0
   11.0990   -2.7210   23.9130 C   0  0  0  0  0  0  0  0  0  0  0  0
   10.4400   -3.7460   24.0130 O   0  0  0  0  0  0  0  0  0  0  0  0
  1  2  1  0
  3  2  1  1
  3  4  1  0
  4  5  1  0
  5  6  1  6
  6  7  1  0
  7  8  1  0
  8  9  1  0
  9 10  1  0
  6 11  1  0
 10 11  1  0
  5 12  1  0
 12 13  1  0
  3 14  1  0
 13 14  2  0
 14 15  1  0
 15 16  2  0
 16 17  1  0
 17 18  1  0
 13 19  1  0
 17 19  2  0
 19 20  1  0
M  END
