MAK-UNK-f2409524-23
     RDKit          3D

 25 27  0  0  0  0  0  0  0  0999 V2000
    9.5730   -0.7590   22.3570 C   0  0  0  0  0  0  0  0  0  0  0  0
    8.6930    0.1670   21.5500 C   0  0  0  0  0  0  0  0  0  0  0  0
    9.0940    1.2940   21.2270 O   0  0  0  0  0  0  0  0  0  0  0  0
    7.4490   -0.3820   21.2400 N   0  0  0  0  0  0  0  0  0  0  0  0
    6.5640    0.1400   20.2640 C   0  0  0  0  0  0  0  0  0  0  0  0
    6.8790    0.0490   18.9060 C   0  0  0  0  0  0  0  0  0  0  0  0
    6.1310    0.5300   17.8990 N   0  0  0  0  0  0  0  0  0  0  0  0
    4.9930    1.1410   18.2390 C   0  0  0  0  0  0  0  0  0  0  0  0
    4.5530    1.2890   19.5430 C   0  0  0  0  0  0  0  0  0  0  0  0
    5.3300    0.7840   20.6060 C   0  0  0  0  0  0  0  0  0  0  0  0
    4.7820    0.9720   22.0350 C   0  0  0  0  0  0  0  0  0  0  0  0
    4.2090    2.3810   22.4280 C   0  0  2  0  0  0  0  0  0  0  0  0
    4.9890    2.9670   23.6120 C   0  0  0  0  0  0  0  0  0  0  0  0
    2.6640    2.3150   22.7600 C   0  0  0  0  0  0  0  0  0  0  0  0
    2.0010    3.4950   23.3880 N   0  0  0  0  0  0  0  0  0  0  0  0
    2.6620    4.6540   23.5730 C   0  0  0  0  0  0  0  0  0  0  0  0
    1.4480    4.2800   23.8410 C   0  0  0  0  0  0  0  0  0  0  0  0
    0.6630    2.9850   23.6360 C   0  0  0  0  0  0  0  0  0  0  0  0
   -0.8180    3.2450   23.1810 C   0  0  0  0  0  0  0  0  0  0  0  0
   -1.6890    3.9670   24.2290 C   0  0  0  0  0  0  0  0  0  0  0  0
   -1.4090    3.4970   25.6580 C   0  0  0  0  0  0  0  0  0  0  0  0
   -0.7180    2.1360   25.6690 C   0  0  0  0  0  0  0  0  0  0  0  0
    0.6390    2.1490   24.9480 C   0  0  0  0  0  0  0  0  0  0  0  0
    0.6250    4.9890   24.3660 N   0  0  0  0  0  0  0  0  0  0  0  0
    0.5690    3.7000   23.9350 N   0  0  0  0  0  0  0  0  0  0  0  0
  1  2  1  0
  2  3  2  0
  2  4  1  0
  4  5  1  0
  5  6  2  0
  6  7  1  0
  7  8  2  0
  8  9  1  0
  5 10  1  0
  9 10  2  0
 10 11  1  0
 11 12  1  0
 12 13  1  1
 12 14  1  0
 14 15  1  0
 15 16  1  0
 16 17  2  0
 17 18  1  0
 18 19  1  0
 19 20  1  0
 20 21  1  0
 21 22  1  0
 18 23  1  0
 22 23  1  0
 17 24  1  0
 15 25  1  0
 24 25  2  0
M  END
