MAK-UNK-b2c98f02-3
     RDKit          3D

 28 30  0  0  0  0  0  0  0  0999 V2000
    9.4970    0.5990   21.6160 O   0  0  0  0  0  0  0  0  0  0  0  0
    9.0010   -0.5120   21.7910 C   0  0  0  0  0  0  0  0  0  0  0  0
    9.4480   -1.4510   22.8940 C   0  0  0  0  0  0  0  0  0  0  0  0
   10.7530   -1.3770   23.1450 C   0  0  0  0  0  0  0  0  0  0  0  0
   11.6220   -2.0520   22.1030 C   0  0  0  0  0  0  0  0  0  0  0  0
   13.0070   -1.4130   22.0650 C   0  0  0  0  0  0  0  0  0  0  0  0
   13.0180   -0.3880   23.1540 C   0  0  0  0  0  0  0  0  0  0  0  0
   12.8410   -1.3320   24.3430 C   0  0  0  0  0  0  0  0  0  0  0  0
   11.3280   -1.7310   24.3600 C   0  0  0  0  0  0  0  0  0  0  0  0
    7.9250   -0.9920   20.9660 N   0  0  0  0  0  0  0  0  0  0  0  0
    7.1270    0.0470   20.5840 C   0  0  0  0  0  0  0  0  0  0  0  0
    6.3160    0.5060   21.7730 C   0  0  0  0  0  0  0  0  0  0  0  0
    5.5420    1.5570   21.5820 C   0  0  0  0  0  0  0  0  0  0  0  0
    5.5090    2.1980   20.2610 C   0  0  0  0  0  0  0  0  0  0  0  0
    4.4370    3.6380   20.4350 S   0  0  0  0  0  0  0  0  0  0  0  0
    5.2890    4.7900   20.5580 O   0  0  0  0  0  0  0  0  0  0  0  0
    3.5830    3.3670   21.5740 O   0  0  0  0  0  0  0  0  0  0  0  0
    3.4290    3.8180   19.1350 N   0  0  0  0  0  0  0  0  0  0  0  0
    2.2190    3.0590   19.3200 C   0  0  0  0  0  0  0  0  0  0  0  0
    2.6450    1.8740   19.9110 C   0  0  0  0  0  0  0  0  0  0  0  0
    3.7320    1.2040   19.3180 C   0  0  0  0  0  0  0  0  0  0  0  0
    4.1610    0.0190   19.8220 C   0  0  0  0  0  0  0  0  0  0  0  0
    5.1810   -0.7820   19.3680 C   0  0  0  0  0  0  0  0  0  0  0  0
    5.9160   -0.4040   18.2740 C   0  0  0  0  0  0  0  0  0  0  0  0
    5.5850    0.8490   17.6370 C   0  0  0  0  0  0  0  0  0  0  0  0
    4.4300    1.6680   18.2160 C   0  0  0  0  0  0  0  0  0  0  0  0
    6.2060    1.7630   19.1530 N   0  0  0  0  0  0  0  0  0  0  0  0
    7.0120    0.6860   19.3520 C   0  0  0  0  0  0  0  0  0  0  0  0
  1  2  2  0
  2  3  1  0
  3  4  1  0
  4  5  1  0
  5  6  1  0
  6  7  1  0
  7  8  1  0
  4  9  1  0
  8  9  1  0
  2 10  1  0
 10 11  1  0
 11 12  2  0
 12 13  1  0
 13 14  2  0
 14 15  1  0
 15 16  2  0
 15 17  2  0
 15 18  1  0
 18 19  1  0
 19 20  1  0
 20 21  1  0
 21 22  2  0
 22 23  1  0
 23 24  2  0
 24 25  1  0
 21 26  1  0
 25 26  2  0
 14 27  1  0
 11 28  1  0
 27 28  2  0
M  END
