MAK-UNK-01147c51-10
     RDKit          3D

 24 26  0  0  0  0  0  0  0  0999 V2000
   12.7380   -2.5380   21.8720 N   0  0  0  0  0  0  0  0  0  0  0  0
   12.8180   -2.4520   23.3460 C   0  0  0  0  0  0  0  0  0  0  0  0
   11.6530   -2.0660   24.0780 C   0  0  2  0  0  0  0  0  0  0  0  0
   10.5570   -2.9170   24.0430 O   0  0  0  0  0  0  0  0  0  0  0  0
    9.4350   -2.8090   23.0170 C   0  0  1  0  0  0  0  0  0  0  0  0
    8.2460   -3.6370   23.0060 C   0  0  1  0  0  0  0  0  0  0  0  0
    7.7660   -4.4710   23.9120 C   0  0  0  0  0  0  0  0  0  0  0  0
    6.7440   -5.4180   23.4340 C   0  0  0  0  0  0  0  0  0  0  0  0
    5.9310   -4.9670   22.3810 C   0  0  0  0  0  0  0  0  0  0  0  0
    6.4300   -3.9420   21.5600 C   0  0  1  0  0  0  0  0  0  0  0  0
    5.6440   -3.4590   20.5010 C   0  0  0  0  0  0  0  0  0  0  0  0
    5.9430   -2.3010   19.7290 C   0  0  0  0  0  0  0  0  0  0  0  0
    6.8780   -1.3360   20.1300 C   0  0  0  0  0  0  0  0  0  0  0  0
    6.5690   -0.1770   20.4090 O   0  0  0  0  0  0  0  0  0  0  0  0
    7.0500   -2.9820   22.3660 C   0  0  0  0  0  0  0  0  0  0  0  0
    9.2060   -1.4130   23.2660 C   0  0  0  0  0  0  0  0  0  0  0  0
   10.4940   -1.4730   23.6560 C   0  0  0  0  0  0  0  0  0  0  0  0
   11.4170   -0.5950   23.5930 C   0  0  0  0  0  0  0  0  0  0  0  0
   12.7390   -0.3820   23.8770 C   0  0  0  0  0  0  0  0  0  0  0  0
   13.2460   -1.4840   24.4480 C   0  0  0  0  0  0  0  0  0  0  0  0
   12.4970   -2.6290   24.6900 C   0  0  0  0  0  0  0  0  0  0  0  0
   13.0720   -3.6860   25.3030 O   0  0  0  0  0  0  0  0  0  0  0  0
   11.1150   -2.6300   24.2700 C   0  0  0  0  0  0  0  0  0  0  0  0
   10.4940   -3.8440   24.5310 O   0  0  0  0  0  0  0  0  0  0  0  0
  1  2  1  0
  3  2  1  6
  3  4  1  0
  4  5  1  0
  5  6  1  0
  6  7  1  1
  7  8  1  0
  8  9  1  0
  9 10  1  0
 10 11  1  1
 11 12  1  0
 12 13  1  0
 13 14  2  0
  6 15  1  0
 10 15  1  0
  5 16  1  1
 16 17  1  0
  3 18  1  0
 17 18  2  0
 18 19  1  0
 19 20  2  0
 20 21  1  0
 21 22  1  0
 17 23  1  0
 21 23  2  0
 23 24  1  0
M  END
