MAK-UNK-1bb0b7ee-1
     RDKit          3D

 19 21  0  0  0  0  0  0  0  0999 V2000
    0.2080   -9.4470   23.9500 C   0  0  0  0  0  0  0  0  0  0  0  0
    1.1830   -9.5730   25.1080 C   0  0  0  0  0  0  0  0  0  0  0  0
    2.3010   -8.7330   25.1580 C   0  0  0  0  0  0  0  0  0  0  0  0
    2.5480   -7.7630   24.1520 C   0  0  0  0  0  0  0  0  0  0  0  0
    3.5540   -7.0450   24.2390 O   0  0  0  0  0  0  0  0  0  0  0  0
    3.6760   -6.3950   23.0160 C   0  0  0  0  0  0  0  0  0  0  0  0
    4.9480   -5.8710   22.7890 C   0  0  0  0  0  0  0  0  0  0  0  0
    5.3670   -5.1060   23.7620 C   0  0  0  0  0  0  0  0  0  0  0  0
    4.6890   -5.0840   24.9370 C   0  0  0  0  0  0  0  0  0  0  0  0
    5.5310   -4.0860   25.5600 C   0  0  0  0  0  0  0  0  0  0  0  0
    6.6890   -3.2290   25.3700 C   0  0  0  0  0  0  0  0  0  0  0  0
    7.0090   -3.6090   24.0980 C   0  0  0  0  0  0  0  0  0  0  0  0
    6.4380   -4.4510   23.3410 N   0  0  0  0  0  0  0  0  0  0  0  0
    5.0550   -4.9570   21.6440 C   0  0  0  0  0  0  0  0  0  0  0  0
    6.4960   -4.5820   21.7930 C   0  0  0  0  0  0  0  0  0  0  0  0
    7.1680   -5.8990   22.0190 C   0  0  0  0  0  0  0  0  0  0  0  0
    5.9560   -6.7170   22.3330 C   0  0  0  0  0  0  0  0  0  0  0  0
    1.6700   -7.6360   23.1000 N   0  0  0  0  0  0  0  0  0  0  0  0
    0.4790   -8.4920   22.9900 C   0  0  0  0  0  0  0  0  0  0  0  0
  1  2  2  0
  2  3  1  0
  3  4  2  0
  4  5  1  0
  5  6  1  0
  7  6  1  0
  7  8  1  0
  8  9  2  0
  9 10  1  0
 10 11  2  0
 11 12  1  0
  8 13  1  0
 12 13  2  0
  7 14  1  0
 14 15  1  0
 15 16  1  0
  7 17  1  0
 16 17  1  0
  4 18  1  0
  1 19  1  0
 18 19  2  0
M  END
