MAK-UNK-31051d4e-6
     RDKit          3D

 25 27  0  0  0  0  0  0  0  0999 V2000
    8.5700   -5.3240   25.9920 O   0  0  0  0  0  0  0  0  0  0  0  0
    7.8430   -4.0800   26.1270 S   0  0  0  0  0  0  0  0  0  0  0  0
    8.1540   -3.1800   27.2110 O   0  0  0  0  0  0  0  0  0  0  0  0
    7.8900   -3.1910   24.6900 N   0  0  0  0  0  0  0  0  0  0  0  0
    9.0470   -2.7110   24.3590 C   0  0  0  0  0  0  0  0  0  0  0  0
    9.2020   -1.8270   23.1790 C   0  0  0  0  0  0  0  0  0  0  0  0
   10.4790   -1.3030   22.9320 C   0  0  0  0  0  0  0  0  0  0  0  0
   10.7960   -0.0030   23.3100 C   0  0  0  0  0  0  0  0  0  0  0  0
   12.0340    0.6570   23.1500 C   0  0  0  0  0  0  0  0  0  0  0  0
   13.1330   -0.0950   22.5170 C   0  0  0  0  0  0  0  0  0  0  0  0
   12.8310   -1.5160   22.0730 C   0  0  0  0  0  0  0  0  0  0  0  0
   11.4590   -2.0820   22.3070 C   0  0  0  0  0  0  0  0  0  0  0  0
    6.1500   -4.5200   26.4810 C   0  0  2  0  0  0  0  0  0  0  0  0
    5.7730   -5.7960   26.3540 C   0  0  0  0  0  0  0  0  0  0  0  0
    4.5860   -5.9530   27.0150 N   0  0  0  0  0  0  0  0  0  0  0  0
    4.8310   -6.3720   28.3410 C   0  0  0  0  0  0  0  0  0  0  0  0
    3.8340   -7.0330   29.0810 C   0  0  0  0  0  0  0  0  0  0  0  0
    2.7250   -7.6470   28.5210 C   0  0  0  0  0  0  0  0  0  0  0  0
    1.8330   -8.2580   29.3910 C   0  0  0  0  0  0  0  0  0  0  0  0
    2.4040   -8.0560   30.9890 S   0  0  0  0  0  0  0  0  0  0  0  0
    3.7860   -7.1830   30.4610 C   0  0  0  0  0  0  0  0  0  0  0  0
    3.5370   -5.0600   27.0610 C   0  0  0  0  0  0  0  0  0  0  0  0
    3.7470   -3.8400   26.3840 C   0  0  0  0  0  0  0  0  0  0  0  0
    5.1140   -3.5680   25.7860 C   0  0  2  0  0  0  0  0  0  0  0  0
    5.0310   -3.7540   24.3740 O   0  0  0  0  0  0  0  0  0  0  0  0
  1  2  2  0
  2  3  2  0
  2  4  1  0
  4  5  1  0
  5  6  1  0
  6  7  1  0
  7  8  2  0
  8  9  1  0
  9 10  2  0
 10 11  1  0
  7 12  1  0
 11 12  2  0
 13  2  1  6
 13 14  1  0
 14 15  1  0
 15 16  1  0
 16 17  1  0
 17 18  1  0
 18 19  2  0
 19 20  1  0
 17 21  2  0
 20 21  1  0
 15 22  1  0
 22 23  1  0
 13 24  1  0
 23 24  1  0
 24 25  1  6
M  END
