MAK-UNK-0d6072ac-4
     RDKit          3D

 19 21  0  0  0  0  0  0  0  0999 V2000
    5.1700   -5.1990   22.0040 C   0  0  0  0  0  0  0  0  0  0  0  0
    5.7750   -5.7000   23.1160 C   0  0  2  0  0  0  0  0  0  0  0  0
    4.9740   -6.1460   24.2110 C   0  0  0  0  0  0  0  0  0  0  0  0
    4.9440   -5.6050   25.3140 O   0  0  0  0  0  0  0  0  0  0  0  0
    4.1680   -7.2600   23.9810 O   0  0  0  0  0  0  0  0  0  0  0  0
    7.0280   -4.8770   23.4190 C   0  0  0  0  0  0  0  0  0  0  0  0
    7.8750   -5.3890   24.4530 C   0  0  0  0  0  0  0  0  0  0  0  0
    9.0040   -4.7490   24.6770 C   0  0  0  0  0  0  0  0  0  0  0  0
    9.4880   -3.6200   24.0440 C   0  0  0  0  0  0  0  0  0  0  0  0
    8.7120   -3.0250   23.0920 C   0  0  0  0  0  0  0  0  0  0  0  0
    7.4710   -3.6830   22.7870 C   0  0  0  0  0  0  0  0  0  0  0  0
    9.3880   -1.8730   22.6390 N   0  0  0  0  0  0  0  0  0  0  0  0
   10.6750   -1.7220   23.2890 C   0  0  0  0  0  0  0  0  0  0  0  0
   11.7300   -0.8150   23.2400 C   0  0  0  0  0  0  0  0  0  0  0  0
   12.8730   -1.0340   24.0460 C   0  0  0  0  0  0  0  0  0  0  0  0
   12.9380   -2.1600   24.8750 C   0  0  0  0  0  0  0  0  0  0  0  0
   14.2170   -2.5870   25.8880 Cl  0  0  0  0  0  0  0  0  0  0  0  0
   11.9270   -3.0400   24.9350 C   0  0  0  0  0  0  0  0  0  0  0  0
   10.7900   -2.8680   24.1930 C   0  0  0  0  0  0  0  0  0  0  0  0
  2  1  1  6
  2  3  1  0
  3  4  2  0
  3  5  1  0
  2  6  1  0
  6  7  2  0
  7  8  1  0
  8  9  2  0
  9 10  1  0
  6 11  1  0
 10 11  2  0
 10 12  1  0
 12 13  1  0
 13 14  1  0
 14 15  2  0
 15 16  1  0
 16 17  1  0
 16 18  2  0
  9 19  1  0
 13 19  2  0
 18 19  1  0
M  END
