MAK-UNK-1bb0b7ee-12
     RDKit          3D

 24 27  0  0  0  0  0  0  0  0999 V2000
   10.2770  -10.3710   19.6150 O   0  0  0  0  0  0  0  0  0  0  0  0
    9.6190  -11.6410   19.7810 S   0  0  0  0  0  0  0  0  0  0  0  0
   10.2330  -12.8260   20.1330 O   0  0  0  0  0  0  0  0  0  0  0  0
    8.5330  -11.8220   18.6520 C   0  0  0  0  0  0  0  0  0  0  0  0
    7.5080  -12.1920   19.9830 C   0  0  0  0  0  0  0  0  0  0  0  0
    4.7750  -12.6440   20.1560 O   0  0  0  0  0  0  0  0  0  0  0  0
    3.3520  -11.3420   19.6810 C   0  0  0  0  0  0  0  0  0  0  0  0
    3.2340  -11.2560   18.4440 C   0  0  0  0  0  0  0  0  0  0  0  0
    2.6380  -10.1820   18.1060 C   0  0  0  0  0  0  0  0  0  0  0  0
    1.9690   -9.1800   18.7460 C   0  0  0  0  0  0  0  0  0  0  0  0
    1.8620   -9.1000   19.8740 C   0  0  0  0  0  0  0  0  0  0  0  0
    2.4630   -9.9470   20.4920 C   0  0  0  0  0  0  0  0  0  0  0  0
    1.9480   -8.8770   21.8050 C   0  0  0  0  0  0  0  0  0  0  0  0
    2.0840   -7.3440   22.0340 N   0  0  0  0  0  0  0  0  0  0  0  0
    3.1580   -6.4920   22.6870 C   0  0  0  0  0  0  0  0  0  0  0  0
    3.8950   -5.4730   22.1510 N   0  0  0  0  0  0  0  0  0  0  0  0
    4.7280   -4.9160   23.0730 C   0  0  0  0  0  0  0  0  0  0  0  0
    5.6300   -3.8600   22.9360 C   0  0  0  0  0  0  0  0  0  0  0  0
    6.3510   -3.4660   24.0610 C   0  0  0  0  0  0  0  0  0  0  0  0
    6.1650   -4.1220   25.2770 C   0  0  0  0  0  0  0  0  0  0  0  0
    5.2790   -5.1950   25.4180 C   0  0  0  0  0  0  0  0  0  0  0  0
    4.5680   -5.5600   24.2740 C   0  0  0  0  0  0  0  0  0  0  0  0
    3.5930   -6.5520   24.0210 N   0  0  0  0  0  0  0  0  0  0  0  0
    8.1650  -11.5240   20.7270 C   0  0  0  0  0  0  0  0  0  0  0  0
  1  2  2  0
  2  3  2  0
  2  4  1  0
  4  5  1  0
  5  6  1  0
  6  7  1  0
  7  8  2  0
  8  9  1  0
  9 10  2  0
 10 11  1  0
  7 12  1  0
 11 12  2  0
 12 13  1  0
 13 14  1  0
 14 15  1  0
 15 16  2  0
 16 17  1  0
 17 18  2  0
 18 19  1  0
 19 20  2  0
 20 21  1  0
 17 22  1  0
 21 22  2  0
 15 23  1  0
 22 23  1  0
  2 24  1  0
  5 24  1  0
M  END
