MAK-UNK-2084232d-14
     RDKit          3D

 26 29  0  0  0  0  0  0  0  0999 V2000
   13.0240   -1.8960   22.0660 N   0  0  0  0  0  0  0  0  0  0  0  0
   13.0530   -2.5040   23.4180 C   0  0  0  0  0  0  0  0  0  0  0  0
   11.7770   -2.1710   24.2650 C   0  0  2  0  0  0  0  0  0  0  0  0
   10.6610   -3.3000   24.1030 O   0  0  0  0  0  0  0  0  0  0  0  0
    9.1410   -3.0650   23.9690 C   0  0  2  0  0  0  0  0  0  0  0  0
    8.3020   -3.9730   23.3090 C   0  0  1  0  0  0  0  0  0  0  0  0
    7.7240   -5.0300   23.9990 C   0  0  0  0  0  0  0  0  0  0  0  0
    6.9930   -6.0410   23.1030 C   0  0  0  0  0  0  0  0  0  0  0  0
    6.2570   -5.4490   21.9130 C   0  0  0  0  0  0  0  0  0  0  0  0
    6.7380   -4.1460   21.4540 N   0  0  0  0  0  0  0  0  0  0  0  0
    5.7390   -3.5350   20.5710 C   0  0  0  0  0  0  0  0  0  0  0  0
    6.0400   -2.2820   20.0110 C   0  0  0  0  0  0  0  0  0  0  0  0
    7.1820   -1.5130   20.2040 C   0  0  0  0  0  0  0  0  0  0  0  0
    7.0530   -0.0590   19.2930 S   0  0  0  0  0  0  0  0  0  0  0  0
    5.5210   -0.5560   18.7260 C   0  0  0  0  0  0  0  0  0  0  0  0
    5.1090   -1.7130   19.1680 N   0  0  0  0  0  0  0  0  0  0  0  0
    7.2060   -3.2810   22.5310 C   0  0  0  0  0  0  0  0  0  0  0  0
    9.1910   -1.7340   23.4180 C   0  0  0  0  0  0  0  0  0  0  0  0
   10.5930   -1.7690   23.8310 C   0  0  0  0  0  0  0  0  0  0  0  0
   11.4390   -0.8170   23.7020 C   0  0  0  0  0  0  0  0  0  0  0  0
   12.8820   -0.3780   23.9380 C   0  0  0  0  0  0  0  0  0  0  0  0
   13.3700   -1.6940   24.6220 C   0  0  0  0  0  0  0  0  0  0  0  0
   12.6100   -2.7850   24.8470 C   0  0  0  0  0  0  0  0  0  0  0  0
   13.2570   -3.8030   25.4790 O   0  0  0  0  0  0  0  0  0  0  0  0
   11.2470   -2.8890   24.4700 C   0  0  0  0  0  0  0  0  0  0  0  0
   10.6280   -4.0910   24.7590 O   0  0  0  0  0  0  0  0  0  0  0  0
  1  2  1  0
  3  2  1  6
  3  4  1  0
  4  5  1  0
  5  6  1  0
  6  7  1  1
  7  8  1  0
  8  9  1  0
  9 10  1  0
 10 11  1  0
 11 12  1  0
 12 13  2  0
 13 14  1  0
 14 15  1  0
 12 16  1  0
 15 16  2  0
  6 17  1  0
 10 17  1  0
  5 18  1  6
 18 19  1  0
  3 20  1  0
 19 20  2  0
 20 21  1  0
 21 22  2  0
 22 23  1  0
 23 24  1  0
 19 25  1  0
 23 25  2  0
 25 26  1  0
M  END
