MAK-UNK-2084232d-15
     RDKit          3D

 22 24  0  0  0  0  0  0  0  0999 V2000
   13.9500   -2.9630   24.2550 N   0  0  0  0  0  0  0  0  0  0  0  0
   12.7770   -2.4400   23.5320 C   0  0  0  0  0  0  0  0  0  0  0  0
   11.6820   -2.0360   24.2640 C   0  0  2  0  0  0  0  0  0  0  0  0
   10.5260   -3.1060   24.2090 O   0  0  0  0  0  0  0  0  0  0  0  0
    9.2600   -2.8840   23.4090 C   0  0  1  0  0  0  0  0  0  0  0  0
    8.0370   -3.9070   23.4430 C   0  0  1  0  0  0  0  0  0  0  0  0
    7.0430   -3.9960   24.3540 C   0  0  0  0  0  0  0  0  0  0  0  0
    6.1770   -5.0780   24.0730 C   0  0  0  0  0  0  0  0  0  0  0  0
    5.4110   -5.0030   22.8940 C   0  0  0  0  0  0  0  0  0  0  0  0
    5.9390   -3.8690   22.0210 C   0  0  2  0  0  0  0  0  0  0  0  0
    5.5220   -3.9850   20.6560 O   0  0  0  0  0  0  0  0  0  0  0  0
    7.4150   -3.9880   22.0570 C   0  0  2  0  0  0  0  0  0  0  0  0
    7.6070   -5.2970   21.5480 O   0  0  0  0  0  0  0  0  0  0  0  0
    9.0850   -1.5030   23.7730 C   0  0  0  0  0  0  0  0  0  0  0  0
   10.4180   -1.5380   23.9910 C   0  0  0  0  0  0  0  0  0  0  0  0
   11.3100   -0.6560   23.7260 C   0  0  0  0  0  0  0  0  0  0  0  0
   12.6500   -0.4150   23.8020 C   0  0  0  0  0  0  0  0  0  0  0  0
   13.3130   -1.4720   24.3820 C   0  0  0  0  0  0  0  0  0  0  0  0
   12.5220   -2.6270   24.8190 C   0  0  0  0  0  0  0  0  0  0  0  0
   13.1890   -3.6610   25.4340 O   0  0  0  0  0  0  0  0  0  0  0  0
   11.1210   -2.6420   24.6020 C   0  0  0  0  0  0  0  0  0  0  0  0
   10.5750   -3.7810   25.0370 O   0  0  0  0  0  0  0  0  0  0  0  0
  1  2  1  0
  3  2  1  6
  3  4  1  0
  4  5  1  0
  5  6  1  0
  6  7  1  1
  7  8  1  0
  8  9  1  0
  9 10  1  0
 10 11  1  6
  6 12  1  0
 10 12  1  0
 12 13  1  1
  5 14  1  1
 14 15  1  0
  3 16  1  0
 15 16  2  0
 16 17  1  0
 17 18  2  0
 18 19  1  0
 19 20  1  0
 15 21  1  0
 19 21  2  0
 21 22  1  0
M  END
