MAK-UNK-2084232d-7
     RDKit          3D

 26 29  0  0  0  0  0  0  0  0999 V2000
   13.9580   -2.6190   23.9810 N   0  0  0  0  0  0  0  0  0  0  0  0
   13.0360   -2.7080   24.8870 C   0  0  0  0  0  0  0  0  0  0  0  0
   11.6620   -2.4250   24.2880 C   0  0  1  0  0  0  0  0  0  0  0  0
   10.5780   -3.2300   24.3410 O   0  0  0  0  0  0  0  0  0  0  0  0
    9.7500   -3.3360   23.0700 C   0  0  1  0  0  0  0  0  0  0  0  0
    8.6880   -4.2400   22.8410 C   0  0  1  0  0  0  0  0  0  0  0  0
    8.0520   -5.0300   23.7640 C   0  0  0  0  0  0  0  0  0  0  0  0
    7.0810   -5.8950   23.2820 C   0  0  0  0  0  0  0  0  0  0  0  0
    6.3270   -5.4950   22.1790 C   0  0  0  0  0  0  0  0  0  0  0  0
    6.5190   -4.1870   21.6480 N   0  0  0  0  0  0  0  0  0  0  0  0
    5.9230   -3.8220   20.3590 C   0  0  0  0  0  0  0  0  0  0  0  0
    6.0930   -2.4700   19.9980 C   0  0  0  0  0  0  0  0  0  0  0  0
    7.2200   -1.6820   20.2770 C   0  0  0  0  0  0  0  0  0  0  0  0
    7.1090   -0.0770   19.6960 S   0  0  0  0  0  0  0  0  0  0  0  0
    5.5690   -0.4970   19.0970 C   0  0  0  0  0  0  0  0  0  0  0  0
    5.1770   -1.7860   19.3380 N   0  0  0  0  0  0  0  0  0  0  0  0
    7.6100   -3.4890   22.0770 C   0  0  0  0  0  0  0  0  0  0  0  0
    9.3520   -1.9270   23.0560 C   0  0  0  0  0  0  0  0  0  0  0  0
   10.6140   -1.9270   23.7600 C   0  0  0  0  0  0  0  0  0  0  0  0
   11.4020   -0.8830   24.1250 C   0  0  0  0  0  0  0  0  0  0  0  0
   12.5670   -0.5690   24.7500 C   0  0  0  0  0  0  0  0  0  0  0  0
   13.2540   -1.7860   25.2410 C   0  0  0  0  0  0  0  0  0  0  0  0
   12.6650   -3.0010   25.0130 C   0  0  0  0  0  0  0  0  0  0  0  0
   13.3880   -4.0640   25.5340 O   0  0  0  0  0  0  0  0  0  0  0  0
   11.2790   -3.1080   24.2430 C   0  0  0  0  0  0  0  0  0  0  0  0
   10.7380   -4.4350   24.0820 O   0  0  0  0  0  0  0  0  0  0  0  0
  1  2  1  0
  3  2  1  1
  3  4  1  0
  4  5  1  0
  5  6  1  0
  6  7  1  1
  7  8  1  0
  8  9  1  0
  9 10  1  0
 10 11  1  0
 11 12  1  0
 12 13  2  0
 13 14  1  0
 14 15  1  0
 12 16  1  0
 15 16  2  0
  6 17  1  0
 10 17  1  0
  5 18  1  1
 18 19  1  0
  3 20  1  0
 19 20  2  0
 20 21  1  0
 21 22  2  0
 22 23  1  0
 23 24  1  0
 19 25  1  0
 23 25  2  0
 25 26  1  0
M  END
