MAK-UNK-2084232d-24
     RDKit          3D

 22 24  0  0  0  0  0  0  0  0999 V2000
   14.1280   -2.9040   24.0330 N   0  0  0  0  0  0  0  0  0  0  0  0
   13.0020   -2.6990   24.9570 C   0  0  0  0  0  0  0  0  0  0  0  0
   11.6910   -2.4270   24.2850 C   0  0  1  0  0  0  0  0  0  0  0  0
   10.4900   -3.0090   24.5880 O   0  0  0  0  0  0  0  0  0  0  0  0
    9.4020   -3.0140   23.5140 C   0  0  1  0  0  0  0  0  0  0  0  0
    8.1130   -3.5750   23.6810 C   0  0  1  0  0  0  0  0  0  0  0  0
    7.4450   -3.3240   22.3590 C   0  0  0  0  0  0  0  0  0  0  0  0
    6.2490   -3.9420   21.9970 C   0  0  1  0  0  0  0  0  0  0  0  0
    5.9980   -3.7090   20.6110 O   0  0  0  0  0  0  0  0  0  0  0  0
    6.3300   -5.3220   22.1150 C   0  0  0  0  0  0  0  0  0  0  0  0
    6.9770   -5.8430   23.3830 C   0  0  1  0  0  0  0  0  0  0  0  0
    7.8330   -6.9200   23.0030 O   0  0  0  0  0  0  0  0  0  0  0  0
    7.8000   -4.8510   24.2200 C   0  0  0  0  0  0  0  0  0  0  0  0
    9.4960   -1.7310   23.3140 C   0  0  0  0  0  0  0  0  0  0  0  0
   10.7300   -1.8270   23.7830 C   0  0  0  0  0  0  0  0  0  0  0  0
   11.6420   -0.9740   23.7180 C   0  0  0  0  0  0  0  0  0  0  0  0
   12.9410   -0.7580   24.0610 C   0  0  0  0  0  0  0  0  0  0  0  0
   13.4300   -1.8500   24.7240 C   0  0  0  0  0  0  0  0  0  0  0  0
   12.6520   -2.9220   24.9590 C   0  0  0  0  0  0  0  0  0  0  0  0
   13.3280   -3.9010   25.6650 O   0  0  0  0  0  0  0  0  0  0  0  0
   11.2700   -2.9790   24.5050 C   0  0  0  0  0  0  0  0  0  0  0  0
   10.6040   -4.1450   24.8250 O   0  0  0  0  0  0  0  0  0  0  0  0
  1  2  1  0
  3  2  1  1
  3  4  1  0
  4  5  1  0
  5  6  1  0
  6  7  1  6
  7  8  1  0
  8  9  1  6
  8 10  1  0
 10 11  1  0
 11 12  1  6
  6 13  1  0
 11 13  1  0
  5 14  1  1
 14 15  1  0
  3 16  1  0
 15 16  2  0
 16 17  1  0
 17 18  2  0
 18 19  1  0
 19 20  1  0
 15 21  1  0
 19 21  2  0
 21 22  1  0
M  END
