MAK-UNK-acefcb18-21
     RDKit          3D

 31 34  0  0  0  0  0  0  0  0999 V2000
   24.0950   -2.5560   20.5560 C   0  0  0  0  0  0  0  0  0  0  0  0
   22.8770   -1.7990   20.1170 C   0  0  0  0  0  0  0  0  0  0  0  0
   22.9550   -0.8900   19.1130 C   0  0  0  0  0  0  0  0  0  0  0  0
   21.8560   -0.1720   18.6960 C   0  0  0  0  0  0  0  0  0  0  0  0
   20.3660   -0.3050   19.3230 C   0  0  0  0  0  0  0  0  0  0  0  0
   18.6920    0.8060   18.7260 O   0  0  0  0  0  0  0  0  0  0  0  0
   17.1000    1.6610   18.8200 C   0  0  0  0  0  0  0  0  0  0  0  0
   15.7560    1.4960   18.9180 C   0  0  0  0  0  0  0  0  0  0  0  0
   15.1960    2.2030   17.8720 O   0  0  0  0  0  0  0  0  0  0  0  0
   14.9950    0.7590   19.9070 N   0  0  0  0  0  0  0  0  0  0  0  0
   14.2160   -0.4780   19.7520 C   0  0  0  0  0  0  0  0  0  0  0  0
   13.3870   -1.1130   20.9090 C   0  0  0  0  0  0  0  0  0  0  0  0
   13.2750   -0.4190   22.0800 N   0  0  0  0  0  0  0  0  0  0  0  0
   12.0010   -0.5700   22.4940 C   0  0  0  0  0  0  0  0  0  0  0  0
   11.3550   -1.5810   21.8620 C   0  0  0  0  0  0  0  0  0  0  0  0
   10.0310   -1.6870   22.2430 N   0  0  0  0  0  0  0  0  0  0  0  0
    9.6010   -0.7370   23.2230 C   0  0  0  0  0  0  0  0  0  0  0  0
    8.3090   -1.1470   23.3000 C   0  0  0  0  0  0  0  0  0  0  0  0
    8.4490   -2.4450   23.6490 N   0  0  0  0  0  0  0  0  0  0  0  0
    8.9080   -2.5210   24.8580 C   0  0  0  0  0  0  0  0  0  0  0  0
    7.8670   -2.1120   25.6400 C   0  0  0  0  0  0  0  0  0  0  0  0
    7.0130   -3.1530   25.8970 C   0  0  0  0  0  0  0  0  0  0  0  0
    5.8360   -2.6890   26.3160 O   0  0  0  0  0  0  0  0  0  0  0  0
    7.0290   -3.9000   24.7340 C   0  0  0  0  0  0  0  0  0  0  0  0
    7.2790   -3.1380   23.5680 C   0  0  0  0  0  0  0  0  0  0  0  0
   10.1580    0.3370   23.9780 C   0  0  0  0  0  0  0  0  0  0  0  0
   11.5000    0.2650   23.4200 N   0  0  0  0  0  0  0  0  0  0  0  0
   13.3700    1.0420   22.0660 C   0  0  0  0  0  0  0  0  0  0  0  0
   14.4600    1.5510   21.3560 C   0  0  0  0  0  0  0  0  0  0  0  0
   20.5050   -1.3680   20.3630 C   0  0  0  0  0  0  0  0  0  0  0  0
   21.6720   -1.9960   20.6930 C   0  0  0  0  0  0  0  0  0  0  0  0
  1  2  1  0
  2  3  2  0
  3  4  1  0
  4  5  2  0
  5  6  1  0
  6  7  1  0
  7  8  1  0
  8  9  2  0
  8 10  1  0
 10 11  1  0
 11 12  1  0
 12 13  1  0
 13 14  1  0
 14 15  2  0
 15 16  1  0
 16 17  2  0
 17 18  1  0
 18 19  1  0
 19 20  1  0
 20 21  1  0
 21 22  1  0
 22 23  1  0
 22 24  1  0
 19 25  1  0
 24 25  1  0
 17 26  1  0
 14 27  1  0
 26 27  2  0
 13 28  1  0
 10 29  1  0
 28 29  1  0
  5 30  1  0
  2 31  1  0
 30 31  2  0
M  END
