MAK-UNK-9a6be56d-20
     RDKit          3D

 38 42  0  0  0  0  0  0  0  0999 V2000
    5.8360   -5.3340   21.7000 C   0  0  0  0  0  0  0  0  0  0  0  0
    6.3810   -4.4090   22.5880 N   0  0  0  0  0  0  0  0  0  0  0  0
    7.7570   -4.1280   22.7510 C   0  0  0  0  0  0  0  0  0  0  0  0
    8.1160   -2.8440   23.1590 C   0  0  0  0  0  0  0  0  0  0  0  0
    8.9050   -1.9060   22.5470 C   0  0  0  0  0  0  0  0  0  0  0  0
    9.1160   -0.7080   23.2130 C   0  0  1  0  0  0  0  0  0  0  0  0
   10.4590   -0.5210   23.4560 N   0  0  0  0  0  0  0  0  0  0  0  0
   11.0870   -1.4580   22.6240 C   0  0  0  0  0  0  0  0  0  0  0  0
   12.5720   -1.2660   22.3360 C   0  0  0  0  0  0  0  0  0  0  0  0
   13.1480   -0.1210   22.8410 C   0  0  0  0  0  0  0  0  0  0  0  0
   12.3490    0.9890   23.0280 C   0  0  0  0  0  0  0  0  0  0  0  0
   12.9090    2.2390   22.8880 C   0  0  0  0  0  0  0  0  0  0  0  0
   12.2210    3.4260   23.0580 C   0  0  0  0  0  0  0  0  0  0  0  0
   10.8710    3.4350   23.4030 C   0  0  0  0  0  0  0  0  0  0  0  0
   10.0570    5.0110   23.6130 S   0  0  0  0  0  0  0  0  0  0  0  0
   11.2540    6.1220   23.1350 N   0  0  0  0  0  0  0  0  0  0  0  0
    9.8260    5.3040   25.0030 O   0  0  0  0  0  0  0  0  0  0  0  0
    8.9590    5.1300   22.6920 O   0  0  0  0  0  0  0  0  0  0  0  0
   10.1630    2.0900   23.5730 C   0  0  0  0  0  0  0  0  0  0  0  0
   10.9930    0.7940   23.3530 C   0  0  0  0  0  0  0  0  0  0  0  0
    8.1400    0.6030   22.1720 S   0  0  0  0  0  0  0  0  0  0  0  0
    9.0580    1.3900   21.3330 O   0  0  0  0  0  0  0  0  0  0  0  0
    7.2240    1.3500   23.0130 O   0  0  0  0  0  0  0  0  0  0  0  0
    7.0710   -0.1010   20.9450 C   0  0  0  0  0  0  0  0  0  0  0  0
    6.4660   -1.5250   21.1470 C   0  0  0  0  0  0  0  0  0  0  0  0
    5.6180   -1.6990   19.8520 C   0  0  0  0  0  0  0  0  0  0  0  0
    5.4910   -0.7730   18.8350 C   0  0  0  0  0  0  0  0  0  0  0  0
    6.0630    0.4280   18.7760 N   0  0  0  0  0  0  0  0  0  0  0  0
    6.8390    0.7440   19.8220 C   0  0  0  0  0  0  0  0  0  0  0  0
    8.2650   -0.9170   24.3800 C   0  0  0  0  0  0  0  0  0  0  0  0
    7.8400   -0.1650   25.4670 C   0  0  0  0  0  0  0  0  0  0  0  0
    7.3670    1.1360   25.2910 C   0  0  0  0  0  0  0  0  0  0  0  0
    6.9150    1.8260   26.3300 C   0  0  0  0  0  0  0  0  0  0  0  0
    6.9190    1.2390   27.6170 C   0  0  0  0  0  0  0  0  0  0  0  0
    7.3730   -0.0310   27.9120 C   0  0  0  0  0  0  0  0  0  0  0  0
    7.8380   -0.7170   26.7670 C   0  0  0  0  0  0  0  0  0  0  0  0
    8.2820   -1.9640   26.9570 F   0  0  0  0  0  0  0  0  0  0  0  0
    7.7130   -2.1720   24.3360 C   0  0  0  0  0  0  0  0  0  0  0  0
  1  2  1  0
  2  3  1  0
  3  4  1  0
  4  5  2  0
  5  6  1  0
  6  7  1  0
  7  8  1  0
  8  9  1  0
  9 10  1  0
 10 11  1  0
 11 12  2  0
 12 13  1  0
 13 14  2  0
 14 15  1  0
 15 16  1  0
 15 17  2  0
 15 18  2  0
 14 19  1  0
  7 20  1  0
 11 20  1  0
 19 20  2  0
  6 21  1  6
 21 22  2  0
 21 23  2  0
 21 24  1  0
 24 25  2  0
 25 26  1  0
 26 27  2  0
 27 28  1  0
 24 29  1  0
 28 29  2  0
  6 30  1  0
 30 31  1  0
 31 32  2  0
 32 33  1  0
 33 34  2  0
 34 35  1  0
 31 36  1  0
 35 36  2  0
 36 37  1  0
  4 38  1  0
 30 38  2  0
M  END
