MAK-UNK-0cb6a3ad-4
     RDKit          3D

 11 12  0  0  0  0  0  0  0  0999 V2000
    9.6190   -1.4420   21.9260 C   0  0  0  0  0  0  0  0  0  0  0  0
   10.8930   -1.6240   22.7940 C   0  0  1  0  0  0  0  0  0  0  0  0
   11.5610   -0.2860   23.0860 C   0  0  0  0  0  0  0  0  0  0  0  0
   12.7280   -0.5110   23.7870 C   0  0  0  0  0  0  0  0  0  0  0  0
   12.6690   -1.5190   24.7280 C   0  0  2  0  0  0  0  0  0  0  0  0
   11.5550   -2.2170   24.9540 C   0  0  0  0  0  0  0  0  0  0  0  0
   10.6430   -2.4790   23.9730 C   0  0  0  0  0  0  0  0  0  0  0  0
   13.4410   -1.3840   25.8910 O   0  0  0  0  0  0  0  0  0  0  0  0
   14.0380   -2.6480   25.6450 C   0  0  0  0  0  0  0  0  0  0  0  0
   13.2770   -2.8000   24.4190 C   0  0  2  0  0  0  0  0  0  0  0  0
   13.7900   -2.8120   23.1850 C   0  0  0  0  0  0  0  0  0  0  0  0
  2  1  1  1
  2  3  1  0
  3  4  1  0
  5  4  1  6
  5  6  1  0
  2  7  1  0
  6  7  1  0
  5  8  1  0
  8  9  1  0
  5 10  1  0
  9 10  1  0
 10 11  1  6
M  END
