MAK-UNK-0955449e-11
     RDKit          3D

 18 19  0  0  0  0  0  0  0  0999 V2000
    6.9090   -0.6050   22.3220 C   0  0  0  0  0  0  0  0  0  0  0  0
    7.6720   -1.2670   23.3740 N   0  0  0  0  0  0  0  0  0  0  0  0
    8.5500   -2.3130   22.8000 C   0  0  0  0  0  0  0  0  0  0  0  0
    8.4340   -3.5210   23.5510 C   0  0  0  0  0  0  0  0  0  0  0  0
    9.3240   -3.9030   24.3060 C   0  0  0  0  0  0  0  0  0  0  0  0
    9.2330   -2.8800   23.5620 C   0  0  0  0  0  0  0  0  0  0  0  0
   10.3950   -2.0570   23.6420 C   0  0  0  0  0  0  0  0  0  0  0  0
   10.4860   -0.7520   23.0480 C   0  0  0  0  0  0  0  0  0  0  0  0
   11.8470   -0.1050   23.2810 C   0  0  0  0  0  0  0  0  0  0  0  0
   12.8850   -0.8430   24.0580 C   0  0  0  0  0  0  0  0  0  0  0  0
   12.7140   -2.0870   24.5970 C   0  0  0  0  0  0  0  0  0  0  0  0
   11.4830   -2.6530   24.3730 C   0  0  0  0  0  0  0  0  0  0  0  0
   11.3380   -3.8570   24.8960 F   0  0  0  0  0  0  0  0  0  0  0  0
    7.7870   -3.0530   22.8670 N   0  0  0  0  0  0  0  0  0  0  0  0
    6.4680   -3.4840   22.4190 C   0  0  0  0  0  0  0  0  0  0  0  0
    6.7920   -4.3220   21.3080 N   0  0  0  0  0  0  0  0  0  0  0  0
    5.7880   -4.2360   20.2750 C   0  0  0  0  0  0  0  0  0  0  0  0
    7.5210   -4.2890   23.5540 C   0  0  0  0  0  0  0  0  0  0  0  0
  1  2  1  0
  2  3  1  0
  3  4  1  0
  4  5  1  0
  5  6  2  0
  6  7  1  0
  7  8  2  0
  8  9  1  0
  9 10  2  0
 10 11  1  0
  7 12  1  0
 11 12  2  0
 12 13  1  0
  6 14  1  0
 14 15  1  0
 15 16  1  0
 16 17  1  0
  4 18  2  0
 14 18  1  0
M  END
