MAK-UNK-af83ef51-11
     RDKit          3D

 19 20  0  0  0  0  0  0  0  0999 V2000
   13.2820   -0.2590   22.9230 C   0  0  0  0  0  0  0  0  0  0  0  0
   12.2830    0.8580   22.9280 C   0  0  0  0  0  0  0  0  0  0  0  0
   12.5270    2.1280   22.8850 C   0  0  0  0  0  0  0  0  0  0  0  0
   11.2260    1.5130   22.9390 C   0  0  0  0  0  0  0  0  0  0  0  0
   11.9560    0.1190   22.9600 C   0  0  0  0  0  0  0  0  0  0  0  0
   10.6800   -0.5510   23.0200 C   0  0  0  0  0  0  0  0  0  0  0  0
    9.2760   -0.4670   23.0590 C   0  0  0  0  0  0  0  0  0  0  0  0
    8.5350   -1.7050   22.8690 N   0  0  0  0  0  0  0  0  0  0  0  0
    8.0790   -2.4090   24.0640 C   0  0  0  0  0  0  0  0  0  0  0  0
    7.5180   -3.7990   23.7720 C   0  0  0  0  0  0  0  0  0  0  0  0
    6.4460   -3.7530   22.7640 N   0  0  0  0  0  0  0  0  0  0  0  0
    5.2880   -4.3820   23.0830 C   0  0  1  0  0  0  0  0  0  0  0  0
    4.2420   -3.7700   22.3180 O   0  0  0  0  0  0  0  0  0  0  0  0
    5.1710   -5.8110   22.8710 C   0  0  1  0  0  0  0  0  0  0  0  0
    6.3810   -6.4460   22.5260 C   0  0  0  0  0  0  0  0  0  0  0  0
    4.3340   -6.8570   23.9360 Cl  0  0  0  0  0  0  0  0  0  0  0  0
    6.2240   -2.4060   22.2650 C   0  0  0  0  0  0  0  0  0  0  0  0
    7.4030   -1.4800   21.9590 C   0  0  0  0  0  0  0  0  0  0  0  0
   10.7710    0.6880   22.9810 C   0  0  0  0  0  0  0  0  0  0  0  0
  1  2  1  0
  2  3  2  0
  3  4  1  0
  4  5  2  0
  5  6  1  0
  6  7  1  0
  7  8  1  0
  8  9  1  0
  9 10  1  0
 10 11  1  0
 11 12  1  0
 12 13  1  6
 12 14  1  0
 14 15  1  1
 14 16  1  0
 11 17  1  0
  8 18  1  0
 17 18  1  0
  2 19  1  0
  6 19  2  0
M  END
