MAK-UNK-9e4a73aa-1
     RDKit          3D

 26 29  0  0  0  0  0  0  0  0999 V2000
    5.5680   -3.3880   20.0850 O   0  0  0  0  0  0  0  0  0  0  0  0
    6.2010   -2.9130   21.0420 C   0  0  0  0  0  0  0  0  0  0  0  0
    6.0880   -3.5680   22.2090 C   0  0  0  0  0  0  0  0  0  0  0  0
    5.2950   -4.8080   22.3360 C   0  0  0  0  0  0  0  0  0  0  0  0
    5.2080   -5.4500   23.7490 C   0  0  0  0  0  0  0  0  0  0  0  0
    4.4970   -6.5700   23.9310 F   0  0  0  0  0  0  0  0  0  0  0  0
    5.8710   -4.8370   24.7970 C   0  0  0  0  0  0  0  0  0  0  0  0
    5.7490   -5.5400   26.3650 Cl  0  0  0  0  0  0  0  0  0  0  0  0
    6.6210   -3.6640   24.5910 C   0  0  0  0  0  0  0  0  0  0  0  0
    6.7100   -3.0750   23.3270 C   0  0  0  0  0  0  0  0  0  0  0  0
    7.4940   -1.8700   23.2530 N   0  0  0  0  0  0  0  0  0  0  0  0
    6.9430   -0.8600   23.9930 C   0  0  0  0  0  0  0  0  0  0  0  0
    6.5530    0.4520   23.3370 C   0  0  0  0  0  0  0  0  0  0  0  0
    5.9460    1.4710   24.2680 C   0  0  0  0  0  0  0  0  0  0  0  0
    5.7820    1.1730   25.6270 C   0  0  0  0  0  0  0  0  0  0  0  0
    6.1700   -0.0640   26.1550 C   0  0  0  0  0  0  0  0  0  0  0  0
    6.7370   -1.0680   25.3650 C   0  0  0  0  0  0  0  0  0  0  0  0
    7.9120   -1.4900   21.9680 C   0  0  0  0  0  0  0  0  0  0  0  0
    9.1890   -0.8840   21.6850 O   0  0  0  0  0  0  0  0  0  0  0  0
    6.9640   -1.7590   20.9950 N   0  0  0  0  0  0  0  0  0  0  0  0
    6.3090   -0.7250   20.2100 C   0  0  0  0  0  0  0  0  0  0  0  0
    5.1100   -0.2840   20.7900 C   0  0  0  0  0  0  0  0  0  0  0  0
    4.3560    0.6960   20.1550 C   0  0  0  0  0  0  0  0  0  0  0  0
    4.8670    1.2710   18.8260 C   0  0  0  0  0  0  0  0  0  0  0  0
    6.0690    0.7810   18.3130 C   0  0  0  0  0  0  0  0  0  0  0  0
    6.7920   -0.2070   18.9910 C   0  0  0  0  0  0  0  0  0  0  0  0
  1  2  2  0
  2  3  1  0
  3  4  2  0
  4  5  1  0
  5  6  1  0
  5  7  2  0
  7  8  1  0
  7  9  1  0
  3 10  1  0
  9 10  2  0
 10 11  1  0
 11 12  1  0
 12 13  2  0
 13 14  1  0
 14 15  2  0
 15 16  1  0
 12 17  1  0
 16 17  2  0
 11 18  1  0
 18 19  2  0
  2 20  1  0
 18 20  1  0
 20 21  1  0
 21 22  2  0
 22 23  1  0
 23 24  2  0
 24 25  1  0
 21 26  1  0
 25 26  2  0
M  END
