MAK-UNK-5e88aa6a-7
     RDKit          3D

 30 32  0  0  0  0  0  0  0  0999 V2000
    7.7890    6.5610   21.6680 C   0  0  0  0  0  0  0  0  0  0  0  0
    8.6360    5.9370   22.7710 C   0  0  2  0  0  0  0  0  0  0  0  0
    8.1540    4.9400   23.3380 O   0  0  0  0  0  0  0  0  0  0  0  0
    8.8690    4.1720   24.2310 C   0  0  1  0  0  0  0  0  0  0  0  0
    8.5710    4.2680   25.7160 C   0  0  0  0  0  0  0  0  0  0  0  0
    7.3780    3.4740   26.2880 C   0  0  0  0  0  0  0  0  0  0  0  0
    7.1090    3.6050   27.7860 C   0  0  0  0  0  0  0  0  0  0  0  0
    7.8470    4.2680   28.5250 O   0  0  0  0  0  0  0  0  0  0  0  0
    5.9990    2.9530   28.2690 O   0  0  0  0  0  0  0  0  0  0  0  0
    6.5170    2.6060   25.4000 C   0  0  0  0  0  0  0  0  0  0  0  0
    7.2500    2.4250   24.0180 C   0  0  0  0  0  0  0  0  0  0  0  0
    8.6040    2.6700   23.8530 C   0  0  1  0  0  0  0  0  0  0  0  0
    9.2590    2.2340   22.5910 N   0  0  0  0  0  0  0  0  0  0  0  0
   10.3250    1.3440   22.7520 C   0  0  0  0  0  0  0  0  0  0  0  0
   11.6650    1.6630   22.8830 C   0  0  0  0  0  0  0  0  0  0  0  0
   12.7920    0.3990   23.0620 S   0  0  0  0  0  0  0  0  0  0  0  0
   11.4560   -0.6480   22.9650 C   0  0  0  0  0  0  0  0  0  0  0  0
   10.1950   -0.0580   22.8000 C   0  0  0  0  0  0  0  0  0  0  0  0
    9.0510   -0.8710   22.7030 C   0  0  0  0  0  0  0  0  0  0  0  0
    8.9620   -1.6220   23.9340 N   0  0  0  0  0  0  0  0  0  0  0  0
    9.4440   -3.0060   23.8210 C   0  0  0  0  0  0  0  0  0  0  0  0
    8.5190   -4.0330   23.9800 C   0  0  0  0  0  0  0  0  0  0  0  0
    7.2430   -3.6940   24.4640 C   0  0  0  0  0  0  0  0  0  0  0  0
    7.1430   -3.3130   25.8430 O   0  0  0  0  0  0  0  0  0  0  0  0
    6.8250   -2.5800   23.8790 C   0  0  0  0  0  0  0  0  0  0  0  0
    7.5930   -1.5520   24.4770 C   0  0  0  0  0  0  0  0  0  0  0  0
    9.0910    7.3500   23.8760 S   0  0  0  0  0  0  0  0  0  0  0  0
    8.3110    7.0260   25.3310 N   0  0  0  0  0  0  0  0  0  0  0  0
    8.4700    8.5650   23.4010 O   0  0  0  0  0  0  0  0  0  0  0  0
   10.4990    7.3180   24.1760 O   0  0  0  0  0  0  0  0  0  0  0  0
  2  1  1  6
  2  3  1  0
  4  3  1  6
  4  5  1  0
  5  6  2  0
  6  7  1  0
  7  8  2  0
  7  9  1  0
  6 10  1  0
 10 11  1  0
  4 12  1  0
 11 12  1  0
 12 13  1  6
 13 14  1  0
 14 15  2  0
 15 16  1  0
 16 17  1  0
 14 18  1  0
 17 18  2  0
 18 19  1  0
 19 20  1  0
 20 21  1  0
 21 22  1  0
 22 23  1  0
 23 24  1  0
 23 25  1  0
 20 26  1  0
 25 26  1  0
  2 27  1  0
 27 28  1  0
 27 29  2  0
 27 30  2  0
M  END
