MAK-UNK-1bb0b7ee-8
     RDKit          3D

 21 23  0  0  0  0  0  0  0  0999 V2000
    5.8550   -6.1300   20.8950 C   0  0  0  0  0  0  0  0  0  0  0  0
    5.5180   -5.0030   21.7560 C   0  0  1  0  0  0  0  0  0  0  0  0
    4.4210   -5.2370   22.7570 C   0  0  2  0  0  0  0  0  0  0  0  0
    3.5510   -4.3950   22.7510 O   0  0  0  0  0  0  0  0  0  0  0  0
    3.2380   -3.7410   24.0090 C   0  0  0  0  0  0  0  0  0  0  0  0
    3.9780   -2.5900   24.2910 C   0  0  0  0  0  0  0  0  0  0  0  0
    3.7540   -1.7940   25.5670 C   0  0  0  0  0  0  0  0  0  0  0  0
    2.6820   -2.3440   26.4890 C   0  0  0  0  0  0  0  0  0  0  0  0
    1.9720   -3.5940   26.0470 C   0  0  0  0  0  0  0  0  0  0  0  0
    2.2530   -4.2580   24.8430 N   0  0  0  0  0  0  0  0  0  0  0  0
    4.9390   -5.6100   24.1690 C   0  0  0  0  0  0  0  0  0  0  0  0
    6.1220   -4.9170   24.3580 C   0  0  0  0  0  0  0  0  0  0  0  0
    7.1020   -5.0710   23.3910 C   0  0  0  0  0  0  0  0  0  0  0  0
    6.7630   -4.4550   22.2690 N   0  0  0  0  0  0  0  0  0  0  0  0
    6.7630   -3.0350   21.9860 C   0  0  0  0  0  0  0  0  0  0  0  0
    8.0540   -2.6000   22.3270 C   0  0  0  0  0  0  0  0  0  0  0  0
    8.8440   -3.1740   23.3290 C   0  0  0  0  0  0  0  0  0  0  0  0
   10.2370   -2.6900   23.6770 C   0  0  0  0  0  0  0  0  0  0  0  0
   10.6780   -1.6090   22.9150 C   0  0  0  0  0  0  0  0  0  0  0  0
    9.8790   -1.0450   21.9240 C   0  0  0  0  0  0  0  0  0  0  0  0
    8.6060   -1.5200   21.6300 C   0  0  0  0  0  0  0  0  0  0  0  0
  2  1  1  1
  2  3  1  0
  3  4  1  1
  4  5  1  0
  5  6  2  0
  6  7  1  0
  7  8  2  0
  8  9  1  0
  5 10  1  0
  9 10  2  0
  3 11  1  0
 11 12  1  0
 12 13  1  0
  2 14  1  0
 13 14  1  0
 14 15  1  0
 15 16  1  0
 16 17  2  0
 17 18  1  0
 18 19  2  0
 19 20  1  0
 16 21  1  0
 20 21  2  0
M  END
