MAK-UNK-a7992eb3-19
     RDKit          3D

 32 36  0  0  0  0  0  0  0  0999 V2000
    8.2990   -0.2640   21.3690 C   0  0  0  0  0  0  0  0  0  0  0  0
    8.7040   -1.4680   22.2240 C   0  0  0  0  0  0  0  0  0  0  0  0
    7.8510   -2.7240   22.1190 C   0  0  0  0  0  0  0  0  0  0  0  0
    6.7410   -2.7390   21.2570 C   0  0  0  0  0  0  0  0  0  0  0  0
    5.9180   -3.8810   21.1240 C   0  0  0  0  0  0  0  0  0  0  0  0
    6.4360   -5.0420   21.8560 N   0  0  0  0  0  0  0  0  0  0  0  0
    7.2700   -4.8330   22.9420 C   0  0  0  0  0  0  0  0  0  0  0  0
    6.6010   -4.3160   24.0290 C   0  0  0  0  0  0  0  0  0  0  0  0
    5.9130   -5.1420   24.6100 O   0  0  0  0  0  0  0  0  0  0  0  0
    4.8230   -5.5720   23.7720 C   0  0  1  0  0  0  0  0  0  0  0  0
    3.7760   -4.4730   23.8140 C   0  0  0  0  0  0  0  0  0  0  0  0
    3.8700   -3.8660   24.8910 O   0  0  0  0  0  0  0  0  0  0  0  0
    4.7560   -2.7210   24.9070 C   0  0  0  0  0  0  0  0  0  0  0  0
    4.7750   -1.9690   23.7150 C   0  0  0  0  0  0  0  0  0  0  0  0
    5.5900   -0.8240   23.5760 C   0  0  0  0  0  0  0  0  0  0  0  0
    6.3670   -0.4920   24.6850 C   0  0  0  0  0  0  0  0  0  0  0  0
    6.3570   -1.2200   25.8580 C   0  0  0  0  0  0  0  0  0  0  0  0
    5.5610   -2.3470   26.0170 C   0  0  0  0  0  0  0  0  0  0  0  0
    5.6150   -3.0140   27.2430 C   0  0  0  0  0  0  0  0  0  0  0  0
    4.8380   -2.1720   28.1640 N   0  0  0  0  0  0  0  0  0  0  0  0
    5.4930   -1.5350   29.1570 C   0  0  0  0  0  0  0  0  0  0  0  0
    6.7820   -1.3090   29.2900 N   0  0  0  0  0  0  0  0  0  0  0  0
    6.9240   -0.6310   30.4810 C   0  0  0  0  0  0  0  0  0  0  0  0
    7.9390   -0.2180   31.0210 C   0  0  0  0  0  0  0  0  0  0  0  0
    7.9430    0.4710   32.2640 C   0  0  0  0  0  0  0  0  0  0  0  0
    6.7530    0.7180   32.9500 C   0  0  0  0  0  0  0  0  0  0  0  0
    5.5720    0.2820   32.4040 C   0  0  0  0  0  0  0  0  0  0  0  0
    5.6760   -0.4450   31.0730 C   0  0  0  0  0  0  0  0  0  0  0  0
    4.7860   -1.0230   30.2170 N   0  0  0  0  0  0  0  0  0  0  0  0
    5.3120   -5.8790   22.3280 C   0  0  0  0  0  0  0  0  0  0  0  0
    6.4310   -1.5800   20.4950 C   0  0  0  0  0  0  0  0  0  0  0  0
    7.1820   -0.3790   20.5450 C   0  0  0  0  0  0  0  0  0  0  0  0
  1  2  2  0
  2  3  1  0
  3  4  2  0
  4  5  1  0
  5  6  1  0
  6  7  1  0
  7  8  1  0
  8  9  1  0
  9 10  1  0
 10 11  1  6
 11 12  1  0
 12 13  1  0
 13 14  2  0
 14 15  1  0
 15 16  2  0
 16 17  1  0
 13 18  1  0
 17 18  2  0
 18 19  1  0
 19 20  1  0
 20 21  1  0
 21 22  2  0
 22 23  1  0
 23 24  2  0
 24 25  1  0
 25 26  2  0
 26 27  1  0
 23 28  1  0
 27 28  2  0
 21 29  1  0
 28 29  1  0
  6 30  1  0
 10 30  1  0
  4 31  1  0
  1 32  1  0
 31 32  2  0
M  END
