MAK-UNK-9e4a73aa-32
     RDKit          3D

 27 30  0  0  0  0  0  0  0  0999 V2000
   10.0350   -0.2420   25.8660 C   0  0  0  0  0  0  0  0  0  0  0  0
   11.0080   -0.9540   24.9070 C   0  0  0  0  0  0  0  0  0  0  0  0
   12.3890   -0.9150   25.0200 C   0  0  0  0  0  0  0  0  0  0  0  0
   13.1540   -1.6060   24.0810 C   0  0  0  0  0  0  0  0  0  0  0  0
   12.5500   -2.3110   23.0550 C   0  0  0  0  0  0  0  0  0  0  0  0
   11.1740   -2.3460   22.9480 C   0  0  0  0  0  0  0  0  0  0  0  0
   10.4230   -1.6610   23.8920 C   0  0  0  0  0  0  0  0  0  0  0  0
    9.0820   -1.6800   23.8310 N   0  0  0  0  0  0  0  0  0  0  0  0
    8.3430   -2.9200   24.0310 C   0  0  0  0  0  0  0  0  0  0  0  0
    9.0230   -4.1680   24.1140 O   0  0  0  0  0  0  0  0  0  0  0  0
    7.0150   -2.8410   24.1350 N   0  0  0  0  0  0  0  0  0  0  0  0
    6.2580   -2.8930   22.9740 C   0  0  0  0  0  0  0  0  0  0  0  0
    7.4190   -2.0970   22.7910 C   0  0  0  0  0  0  0  0  0  0  0  0
    7.9690   -1.3650   21.7720 C   0  0  0  0  0  0  0  0  0  0  0  0
    7.2840   -1.3020   20.5080 C   0  0  0  0  0  0  0  0  0  0  0  0
    6.1380   -2.0250   20.4940 N   0  0  0  0  0  0  0  0  0  0  0  0
    5.8090   -2.6700   21.6220 C   0  0  0  0  0  0  0  0  0  0  0  0
    6.5990   -1.7870   24.9930 C   0  0  0  0  0  0  0  0  0  0  0  0
    5.7490   -1.8900   26.0550 O   0  0  0  0  0  0  0  0  0  0  0  0
    7.1620   -0.4060   24.7000 C   0  0  0  0  0  0  0  0  0  0  0  0
    6.4500    0.7630   25.0030 C   0  0  0  0  0  0  0  0  0  0  0  0
    7.0580    2.0980   24.6700 C   0  0  0  0  0  0  0  0  0  0  0  0
    6.3770    3.2180   24.9550 F   0  0  0  0  0  0  0  0  0  0  0  0
    8.3020    2.2050   24.0720 C   0  0  0  0  0  0  0  0  0  0  0  0
    8.9680    3.7450   23.6970 Cl  0  0  0  0  0  0  0  0  0  0  0  0
    9.1030    0.9570   23.7330 C   0  0  0  0  0  0  0  0  0  0  0  0
    8.4430   -0.3790   24.0920 C   0  0  0  0  0  0  0  0  0  0  0  0
  1  2  1  0
  2  3  2  0
  3  4  1  0
  4  5  2  0
  5  6  1  0
  2  7  1  0
  6  7  2  0
  7  8  1  0
  8  9  1  0
  9 10  2  0
  9 11  1  0
 11 12  1  0
 12 13  2  0
 13 14  1  0
 14 15  2  0
 15 16  1  0
 12 17  1  0
 16 17  2  0
 11 18  1  0
 18 19  2  0
 18 20  1  0
 20 21  1  0
 21 22  2  0
 22 23  1  0
 22 24  1  0
 24 25  1  0
 24 26  2  0
  8 27  1  0
 20 27  2  0
 26 27  1  0
M  END
