MAK-UNK-01147c51-16
     RDKit          3D

 21 23  0  0  0  0  0  0  0  0999 V2000
   13.9040   -2.9200   24.2280 N   0  0  0  0  0  0  0  0  0  0  0  0
   13.0170   -2.2120   24.8730 C   0  0  0  0  0  0  0  0  0  0  0  0
   11.6470   -2.1970   24.1550 C   0  0  1  0  0  0  0  0  0  0  0  0
   10.5060   -2.9010   24.4830 O   0  0  0  0  0  0  0  0  0  0  0  0
    9.3840   -3.0520   23.4450 C   0  0  1  0  0  0  0  0  0  0  0  0
    8.0680   -3.5950   23.5890 C   0  0  2  0  0  0  0  0  0  0  0  0
    7.7450   -4.7740   24.2650 C   0  0  0  0  0  0  0  0  0  0  0  0
    6.9290   -5.7410   23.6680 C   0  0  0  0  0  0  0  0  0  0  0  0
    6.1640   -5.3840   22.5710 C   0  0  0  0  0  0  0  0  0  0  0  0
    6.7780   -4.5070   21.7160 C   0  0  1  0  0  0  0  0  0  0  0  0
    5.9840   -3.8690   20.7810 N   0  0  0  0  0  0  0  0  0  0  0  0
    7.4990   -3.4510   22.2930 C   0  0  0  0  0  0  0  0  0  0  0  0
    9.2420   -1.6360   23.3310 C   0  0  0  0  0  0  0  0  0  0  0  0
   10.4900   -1.7200   23.7180 C   0  0  0  0  0  0  0  0  0  0  0  0
   11.4500   -0.7740   23.5280 C   0  0  0  0  0  0  0  0  0  0  0  0
   12.8940   -0.5730   23.8110 C   0  0  0  0  0  0  0  0  0  0  0  0
   13.4250   -1.7650   24.5280 C   0  0  0  0  0  0  0  0  0  0  0  0
   12.4770   -2.8550   24.8190 C   0  0  0  0  0  0  0  0  0  0  0  0
   13.2240   -3.8350   25.5280 O   0  0  0  0  0  0  0  0  0  0  0  0
   11.0790   -2.8630   24.4390 C   0  0  0  0  0  0  0  0  0  0  0  0
   10.4010   -4.0010   24.8170 O   0  0  0  0  0  0  0  0  0  0  0  0
  1  2  1  0
  3  2  1  1
  3  4  1  0
  4  5  1  0
  5  6  1  0
  6  7  1  6
  7  8  1  0
  8  9  1  0
  9 10  1  0
 10 11  1  6
  6 12  1  0
 10 12  1  0
  5 13  1  1
 13 14  1  0
  3 15  1  0
 14 15  2  0
 15 16  1  0
 16 17  2  0
 17 18  1  0
 18 19  1  0
 14 20  1  0
 18 20  2  0
 20 21  1  0
M  END
