MAK-UNK-0cb6a3ad-6
     RDKit          3D

 14 14  0  0  0  0  0  0  0  0999 V2000
    8.0370   -3.3970   22.6680 C   0  0  0  0  0  0  0  0  0  0  0  0
    8.5120   -1.9320   22.8800 C   0  0  0  0  0  0  0  0  0  0  0  0
    8.0770   -1.0520   21.8220 O   0  0  0  0  0  0  0  0  0  0  0  0
    9.2370   -1.7090   24.0100 O   0  0  0  0  0  0  0  0  0  0  0  0
   10.6710   -1.7060   23.8750 C   0  0  1  0  0  0  0  0  0  0  0  0
   11.1870   -0.6590   24.5990 C   0  0  0  0  0  0  0  0  0  0  0  0
   12.5320   -0.5620   24.4360 C   0  0  2  0  0  0  0  0  0  0  0  0
   12.9420   -0.3670   22.9780 C   0  0  0  0  0  0  0  0  0  0  0  0
   13.2330   -1.7880   25.0110 C   0  0  0  0  0  0  0  0  0  0  0  0
   12.4610   -2.9470   25.0320 C   0  0  0  0  0  0  0  0  0  0  0  0
   11.2170   -3.0710   24.3750 C   0  0  1  0  0  0  0  0  0  0  0  0
   10.2260   -3.9150   24.9010 C   0  0  0  0  0  0  0  0  0  0  0  0
   10.6750   -4.7230   25.9340 C   0  0  0  0  0  0  0  0  0  0  0  0
    9.1920   -3.0480   25.5850 C   0  0  0  0  0  0  0  0  0  0  0  0
  1  2  1  0
  2  3  2  0
  2  4  1  0
  5  4  1  1
  5  6  1  0
  6  7  1  0
  7  8  1  6
  7  9  1  0
  9 10  1  0
  5 11  1  0
 10 11  1  0
 11 12  1  1
 12 13  1  0
 12 14  1  0
M  END
