MAK-UNK-9a6be56d-22
     RDKit          3D

 38 42  0  0  0  0  0  0  0  0999 V2000
    1.7460    2.6360   24.4760 C   0  0  0  0  0  0  0  0  0  0  0  0
    2.4090    1.4920   24.8960 N   0  0  0  0  0  0  0  0  0  0  0  0
    2.1500    0.7410   26.0740 C   0  0  0  0  0  0  0  0  0  0  0  0
    3.2220   -0.0230   26.5250 C   0  0  0  0  0  0  0  0  0  0  0  0
    4.4200   -0.0770   25.8770 C   0  0  0  0  0  0  0  0  0  0  0  0
    5.3630   -0.8470   26.4330 C   0  0  0  0  0  0  0  0  0  0  0  0
    6.7100   -0.9120   25.7380 C   0  0  0  0  0  0  0  0  0  0  0  0
    7.6220    0.2190   26.1520 C   0  0  0  0  0  0  0  0  0  0  0  0
    8.8880    0.3370   25.5930 C   0  0  0  0  0  0  0  0  0  0  0  0
    9.3810   -0.5540   24.6430 C   0  0  0  0  0  0  0  0  0  0  0  0
   10.6100   -0.3980   24.0990 N   0  0  0  0  0  0  0  0  0  0  0  0
   11.4110   -1.6340   23.8630 C   0  0  0  0  0  0  0  0  0  0  0  0
   12.3030   -1.4740   22.8050 C   0  0  0  0  0  0  0  0  0  0  0  0
   13.1800   -0.4120   23.0690 C   0  0  0  0  0  0  0  0  0  0  0  0
   12.4730    0.9150   23.2130 C   0  0  0  0  0  0  0  0  0  0  0  0
   13.0520    2.2440   22.8540 C   0  0  0  0  0  0  0  0  0  0  0  0
   12.3430    3.4350   22.9820 C   0  0  0  0  0  0  0  0  0  0  0  0
   10.8900    3.5410   23.5200 C   0  0  0  0  0  0  0  0  0  0  0  0
    9.9680    5.0500   23.6920 S   0  0  0  0  0  0  0  0  0  0  0  0
   11.1230    6.1870   23.1640 N   0  0  0  0  0  0  0  0  0  0  0  0
    9.7270    5.3740   25.0760 O   0  0  0  0  0  0  0  0  0  0  0  0
    8.8750    5.0690   22.7540 O   0  0  0  0  0  0  0  0  0  0  0  0
   10.4860    2.0480   23.8530 C   0  0  0  0  0  0  0  0  0  0  0  0
   11.2270    0.8720   23.7030 C   0  0  0  0  0  0  0  0  0  0  0  0
    8.4110   -1.7040   24.2660 C   0  0  0  0  0  0  0  0  0  0  0  0
    7.1410   -1.8490   24.8060 C   0  0  0  0  0  0  0  0  0  0  0  0
    6.3610   -2.8710   24.4180 F   0  0  0  0  0  0  0  0  0  0  0  0
    4.7260   -1.3850   27.6030 N   0  0  0  0  0  0  0  0  0  0  0  0
    5.3230   -2.4410   28.8050 S   0  0  0  0  0  0  0  0  0  0  0  0
    6.2820   -3.3640   28.2130 O   0  0  0  0  0  0  0  0  0  0  0  0
    4.1510   -2.9810   29.4740 O   0  0  0  0  0  0  0  0  0  0  0  0
    6.1350   -1.3180   29.8900 C   0  0  0  0  0  0  0  0  0  0  0  0
    7.4800   -0.9720   29.7120 C   0  0  0  0  0  0  0  0  0  0  0  0
    8.0450   -0.1180   30.5650 C   0  0  0  0  0  0  0  0  0  0  0  0
    7.2800    0.4240   31.6260 C   0  0  0  0  0  0  0  0  0  0  0  0
    5.9770    0.1160   31.8290 N   0  0  0  0  0  0  0  0  0  0  0  0
    5.4270   -0.7580   30.9480 C   0  0  0  0  0  0  0  0  0  0  0  0
    3.4100   -0.8670   27.6380 C   0  0  0  0  0  0  0  0  0  0  0  0
  1  2  1  0
  2  3  1  0
  3  4  1  0
  4  5  1  0
  5  6  2  0
  6  7  1  0
  7  8  2  0
  8  9  1  0
  9 10  2  0
 10 11  1  0
 11 12  1  0
 12 13  1  0
 13 14  1  0
 14 15  1  0
 15 16  2  0
 16 17  1  0
 17 18  2  0
 18 19  1  0
 19 20  1  0
 19 21  2  0
 19 22  2  0
 18 23  1  0
 11 24  1  0
 15 24  1  0
 23 24  2  0
 10 25  1  0
  7 26  1  0
 25 26  2  0
 26 27  1  0
  6 28  1  0
 28 29  1  0
 29 30  2  0
 29 31  2  0
 29 32  1  0
 32 33  2  0
 33 34  1  0
 34 35  2  0
 35 36  1  0
 32 37  1  0
 36 37  2  0
  4 38  2  0
 28 38  1  0
M  END
