MAK-UNK-acefcb18-28
     RDKit          3D

 28 31  0  0  0  0  0  0  0  0999 V2000
   12.8750    5.8640   21.7360 C   0  0  0  0  0  0  0  0  0  0  0  0
   12.2110    5.9160   22.9950 N   0  0  0  0  0  0  0  0  0  0  0  0
   12.7070    4.8040   23.6650 C   0  0  0  0  0  0  0  0  0  0  0  0
   12.6850    3.6420   22.7370 C   0  0  0  0  0  0  0  0  0  0  0  0
   11.3230    3.1990   22.5700 N   0  0  0  0  0  0  0  0  0  0  0  0
   11.1290    1.8220   22.8360 C   0  0  0  0  0  0  0  0  0  0  0  0
   12.2240    1.0070   23.2000 C   0  0  0  0  0  0  0  0  0  0  0  0
   12.0660   -0.4620   23.5270 C   0  0  0  0  0  0  0  0  0  0  0  0
   10.6470   -1.0100   23.4270 C   0  0  0  0  0  0  0  0  0  0  0  0
   10.4230   -2.4650   23.7550 C   0  0  0  0  0  0  0  0  0  0  0  0
    9.1490   -2.8850   24.1060 N   0  0  0  0  0  0  0  0  0  0  0  0
    8.5480   -3.5950   23.1570 C   0  0  0  0  0  0  0  0  0  0  0  0
    7.7880   -4.6390   23.6310 C   0  0  0  0  0  0  0  0  0  0  0  0
    6.7910   -4.1780   24.5190 C   0  0  0  0  0  0  0  0  0  0  0  0
    6.4790   -5.0210   25.3680 O   0  0  0  0  0  0  0  0  0  0  0  0
    7.0800   -2.8000   25.0800 C   0  0  0  0  0  0  0  0  0  0  0  0
    8.1960   -2.0840   24.5580 C   0  0  0  0  0  0  0  0  0  0  0  0
    9.6670   -0.1170   23.0380 C   0  0  0  0  0  0  0  0  0  0  0  0
    9.8760    1.2300   22.7590 N   0  0  0  0  0  0  0  0  0  0  0  0
    8.7850    2.0340   22.3910 C   0  0  2  0  0  0  0  0  0  0  0  0
    8.1800    2.9410   23.2330 O   0  0  0  0  0  0  0  0  0  0  0  0
    7.0150    3.3910   22.5260 C   0  0  0  0  0  0  0  0  0  0  0  0
    6.7410    2.2550   21.7840 C   0  0  2  0  0  0  0  0  0  0  0  0
    5.5580    1.9820   21.9760 O   0  0  0  0  0  0  0  0  0  0  0  0
    7.7100    1.2650   21.9030 C   0  0  1  0  0  0  0  0  0  0  0  0
    7.9720    0.5590   20.9320 O   0  0  0  0  0  0  0  0  0  0  0  0
   10.3300    4.2790   22.8840 C   0  0  0  0  0  0  0  0  0  0  0  0
   10.7640    5.6550   22.8980 C   0  0  0  0  0  0  0  0  0  0  0  0
  1  2  1  0
  2  3  1  0
  3  4  1  0
  4  5  1  0
  5  6  1  0
  6  7  2  0
  7  8  1  0
  8  9  2  0
  9 10  1  0
 10 11  1  0
 11 12  1  0
 12 13  1  0
 13 14  1  0
 14 15  1  0
 14 16  1  0
 11 17  1  0
 16 17  1  0
  9 18  1  0
  6 19  1  0
 18 19  2  0
 20 19  1  1
 20 21  1  0
 21 22  1  0
 22 23  1  0
 23 24  1  1
 20 25  1  0
 23 25  1  0
 25 26  1  6
  5 27  1  0
  2 28  1  0
 27 28  1  0
M  CHG  1  19   1
M  END
