MAK-UNK-de9577cf-12
     RDKit          3D

 37 40  0  0  0  0  0  0  0  0999 V2000
   11.1980   -3.0000   24.9440 C   0  0  0  0  0  0  0  0  0  0  0  0
   12.1180   -3.7190   25.6900 N   0  0  0  0  0  0  0  0  0  0  0  0
   13.5230   -3.4840   25.8160 C   0  0  1  0  0  0  0  0  0  0  0  0
   13.6510   -2.2640   25.3940 O   0  0  0  0  0  0  0  0  0  0  0  0
   13.4580   -2.2330   23.8690 C   0  0  0  0  0  0  0  0  0  0  0  0
   13.9580   -3.1660   23.1060 O   0  0  0  0  0  0  0  0  0  0  0  0
   12.8420   -1.1880   23.1450 C   0  0  0  0  0  0  0  0  0  0  0  0
   11.6980   -1.0720   22.5210 C   0  0  0  0  0  0  0  0  0  0  0  0
   11.5020    0.1650   22.0040 C   0  0  0  0  0  0  0  0  0  0  0  0
   12.5860    1.4210   22.0800 C   0  0  0  0  0  0  0  0  0  0  0  0
   12.1860    3.4360   21.8050 S   0  0  0  0  0  0  0  0  0  0  0  0
   10.4770    3.5850   21.8040 N   0  0  0  0  0  0  0  0  0  0  0  0
   12.5780    4.2460   20.7040 O   0  0  0  0  0  0  0  0  0  0  0  0
   12.3670    4.0610   23.1280 O   0  0  0  0  0  0  0  0  0  0  0  0
   13.6400    1.0370   22.6560 C   0  0  0  0  0  0  0  0  0  0  0  0
   13.6480   -0.2110   23.1490 C   0  0  0  0  0  0  0  0  0  0  0  0
   14.2390   -4.5030   27.0290 C   0  0  0  0  0  0  0  0  0  0  0  0
   14.6810   -4.8780   28.4900 C   0  0  0  0  0  0  0  0  0  0  0  0
   15.3810   -6.2420   29.0330 C   0  0  0  0  0  0  0  0  0  0  0  0
   15.9270   -6.7480   31.0740 C   0  0  0  0  0  0  0  0  0  0  0  0
   14.8530   -8.2150   31.2730 C   0  0  0  0  0  0  0  0  0  0  0  0
   14.7220   -8.7770   33.0050 C   0  0  0  0  0  0  0  0  0  0  0  0
   15.5020   -8.1850   34.1080 C   0  0  0  0  0  0  0  0  0  0  0  0
   16.5660   -7.0240   33.8240 C   0  0  0  0  0  0  0  0  0  0  0  0
   16.8650   -6.3410   32.5310 C   0  0  0  0  0  0  0  0  0  0  0  0
   17.7750   -5.4520   32.8040 F   0  0  0  0  0  0  0  0  0  0  0  0
   15.2570   -6.6450   27.7410 N   0  0  0  0  0  0  0  0  0  0  0  0
   15.3340   -8.0520   26.9630 S   0  0  0  0  0  0  0  0  0  0  0  0
   16.4750   -8.5590   27.0480 O   0  0  0  0  0  0  0  0  0  0  0  0
   14.5830   -8.5150   27.8080 O   0  0  0  0  0  0  0  0  0  0  0  0
   14.8690   -6.3300   26.8180 C   0  0  0  0  0  0  0  0  0  0  0  0
   14.2560   -5.1270   26.1890 C   0  0  0  0  0  0  0  0  0  0  0  0
   14.1470   -4.3250   26.9810 C   0  0  0  0  0  0  0  0  0  0  0  0
   14.7320   -4.8870   28.2680 C   0  0  0  0  0  0  0  0  0  0  0  0
   15.3670   -6.0500   28.5240 N   0  0  0  0  0  0  0  0  0  0  0  0
   15.3530   -6.6510   27.7500 C   0  0  0  0  0  0  0  0  0  0  0  0
   14.6820   -5.6190   26.6920 C   0  0  0  0  0  0  0  0  0  0  0  0
  1  2  1  0
  3  2  1  1
  3  4  1  0
  4  5  1  0
  5  6  2  0
  5  7  1  0
  7  8  2  0
  8  9  1  0
  9 10  2  0
 10 11  1  0
 11 12  1  0
 11 13  2  0
 11 14  2  0
 10 15  1  0
  7 16  1  0
 15 16  2  0
  3 17  1  0
 17 18  1  0
 18 19  2  0
 19 20  1  0
 20 21  2  0
 21 22  1  0
 22 23  2  0
 23 24  1  0
 20 25  1  0
 24 25  2  0
 25 26  1  0
 19 27  1  0
 27 28  1  0
 28 29  2  0
 28 30  2  0
 28 31  1  0
 31 32  2  0
 32 33  1  0
 33 34  2  0
 34 35  1  0
 31 36  1  0
 35 36  2  0
 17 37  2  0
 27 37  1  0
M  END
