MAK-UNK-60abb798-3
     RDKit          3D

 21 23  0  0  0  0  0  0  0  0999 V2000
    9.5090   -1.3530   24.6010 N   0  0  0  0  0  0  0  0  0  0  0  0
   10.3580   -2.0400   25.2770 C   0  0  0  0  0  0  0  0  0  0  0  0
   11.3870   -2.8110   24.4490 C   0  0  1  0  0  0  0  0  0  0  0  0
   10.7670   -3.8720   23.9650 O   0  0  0  0  0  0  0  0  0  0  0  0
    9.3410   -3.6880   23.8080 C   0  0  2  0  0  0  0  0  0  0  0  0
    8.4900   -4.6930   23.3130 C   0  0  1  0  0  0  0  0  0  0  0  0
    7.3890   -5.1360   24.0430 C   0  0  0  0  0  0  0  0  0  0  0  0
    6.4910   -5.9700   23.3650 C   0  0  0  0  0  0  0  0  0  0  0  0
    5.8720   -5.4240   22.2630 C   0  0  0  0  0  0  0  0  0  0  0  0
    6.5140   -4.3120   21.7380 C   0  0  2  0  0  0  0  0  0  0  0  0
    6.1150   -4.1480   20.3440 N   0  0  0  0  0  0  0  0  0  0  0  0
    8.0230   -4.3530   21.8780 C   0  0  0  0  0  0  0  0  0  0  0  0
    9.5400   -2.5090   22.9470 C   0  0  0  0  0  0  0  0  0  0  0  0
   10.7170   -2.4220   23.6000 C   0  0  0  0  0  0  0  0  0  0  0  0
   11.7280   -1.6370   23.4880 C   0  0  0  0  0  0  0  0  0  0  0  0
   12.9700   -1.4190   24.0630 C   0  0  0  0  0  0  0  0  0  0  0  0
   13.3030   -2.2980   25.0700 C   0  0  0  0  0  0  0  0  0  0  0  0
   12.3620   -3.2950   25.3850 C   0  0  0  0  0  0  0  0  0  0  0  0
   12.6500   -4.2190   26.3590 O   0  0  0  0  0  0  0  0  0  0  0  0
   11.0970   -3.3530   24.6780 C   0  0  0  0  0  0  0  0  0  0  0  0
   10.4010   -4.3080   25.1140 O   0  0  0  0  0  0  0  0  0  0  0  0
  1  2  1  0
  3  2  1  1
  3  4  1  0
  4  5  1  0
  5  6  1  0
  6  7  1  1
  7  8  1  0
  8  9  1  0
  9 10  1  0
 10 11  1  6
  6 12  1  0
 10 12  1  0
  5 13  1  6
 13 14  1  0
  3 15  1  0
 14 15  2  0
 15 16  1  0
 16 17  2  0
 17 18  1  0
 18 19  1  0
 14 20  1  0
 18 20  2  0
 20 21  1  0
M  END
