MAK-UNK-acefcb18-2
     RDKit          3D

 17 18  0  0  0  0  0  0  0  0999 V2000
    5.2940    0.3840   17.9130 C   0  0  0  0  0  0  0  0  0  0  0  0
    5.8260    0.1890   19.1300 C   0  0  0  0  0  0  0  0  0  0  0  0
    6.7630    1.0700   19.8060 C   0  0  0  0  0  0  0  0  0  0  0  0
    7.3050    0.7350   21.2180 C   0  0  0  0  0  0  0  0  0  0  0  0
    6.9230   -0.4190   21.9020 C   0  0  0  0  0  0  0  0  0  0  0  0
    7.3670   -0.6590   23.0270 O   0  0  0  0  0  0  0  0  0  0  0  0
    8.3840    0.2030   23.5780 C   0  0  0  0  0  0  0  0  0  0  0  0
    8.9030   -0.4780   24.6820 C   0  0  0  0  0  0  0  0  0  0  0  0
    9.6160   -1.7050   24.1030 C   0  0  1  0  0  0  0  0  0  0  0  0
    8.8300   -2.1360   22.9900 O   0  0  0  0  0  0  0  0  0  0  0  0
   10.9480   -1.2890   23.4990 C   0  0  0  0  0  0  0  0  0  0  0  0
   11.6620   -0.0340   23.8750 C   0  0  0  0  0  0  0  0  0  0  0  0
   12.8560    0.1550   23.2070 C   0  0  0  0  0  0  0  0  0  0  0  0
   13.1670   -1.1400   22.1310 S   0  0  0  0  0  0  0  0  0  0  0  0
   11.6730   -1.9730   22.5510 C   0  0  0  0  0  0  0  0  0  0  0  0
    5.9290   -1.3290   21.1500 C   0  0  0  0  0  0  0  0  0  0  0  0
    5.4210   -1.0550   19.8740 C   0  0  0  0  0  0  0  0  0  0  0  0
  1  2  1  0
  2  3  2  0
  3  4  1  0
  4  5  2  0
  5  6  1  0
  6  7  1  0
  7  8  1  0
  8  9  1  0
  9 10  1  6
  9 11  1  0
 11 12  1  0
 12 13  2  0
 13 14  1  0
 11 15  2  0
 14 15  1  0
  5 16  1  0
  2 17  1  0
 16 17  2  0
M  END
