MAK-UNK-b2c98f02-9
     RDKit          3D

 28 30  0  0  0  0  0  0  0  0999 V2000
    9.1300    1.3510   21.3210 O   0  0  0  0  0  0  0  0  0  0  0  0
    8.5760    0.3000   21.6740 C   0  0  0  0  0  0  0  0  0  0  0  0
    9.1310   -0.7040   22.6080 C   0  0  0  0  0  0  0  0  0  0  0  0
   10.4220   -0.8620   22.9160 C   0  0  1  0  0  0  0  0  0  0  0  0
   11.2190   -1.7580   21.9650 C   0  0  0  0  0  0  0  0  0  0  0  0
   12.6500   -1.6800   22.0310 C   0  0  0  0  0  0  0  0  0  0  0  0
   13.0320   -1.0020   23.1420 C   0  0  2  0  0  0  0  0  0  0  0  0
   12.5020   -2.0890   24.4390 S   0  0  0  0  0  0  0  0  0  0  0  0
   12.8590   -3.3710   24.0130 O   0  0  0  0  0  0  0  0  0  0  0  0
   13.0530   -1.5550   25.6310 O   0  0  0  0  0  0  0  0  0  0  0  0
   10.7930   -2.0430   24.3920 N   0  0  0  0  0  0  0  0  0  0  0  0
   10.0280   -3.0830   23.8130 C   0  0  0  0  0  0  0  0  0  0  0  0
    8.5120   -2.7560   23.9190 C   0  0  0  0  0  0  0  0  0  0  0  0
    7.6460   -3.7860   23.1770 C   0  0  0  0  0  0  0  0  0  0  0  0
    7.8320   -5.1600   23.3510 C   0  0  0  0  0  0  0  0  0  0  0  0
    7.0100   -6.0830   22.6460 C   0  0  0  0  0  0  0  0  0  0  0  0
    5.9480   -5.6750   21.7280 C   0  0  0  0  0  0  0  0  0  0  0  0
    5.7940   -4.2510   21.5880 C   0  0  0  0  0  0  0  0  0  0  0  0
    6.6150   -3.3450   22.2880 C   0  0  0  0  0  0  0  0  0  0  0  0
   12.4490    0.4070   23.2050 C   0  0  0  0  0  0  0  0  0  0  0  0
   11.0680    0.4990   23.0100 C   0  0  0  0  0  0  0  0  0  0  0  0
    7.3530   -0.1200   21.2890 N   0  0  0  0  0  0  0  0  0  0  0  0
    6.6080    0.3710   20.2290 C   0  0  0  0  0  0  0  0  0  0  0  0
    5.4720    1.2030   20.3300 C   0  0  0  0  0  0  0  0  0  0  0  0
    4.8210    1.6320   19.2160 C   0  0  0  0  0  0  0  0  0  0  0  0
    5.3280    1.2140   17.9470 C   0  0  0  0  0  0  0  0  0  0  0  0
    6.3740    0.4390   17.7600 N   0  0  0  0  0  0  0  0  0  0  0  0
    7.0010    0.0200   18.8370 C   0  0  0  0  0  0  0  0  0  0  0  0
  1  2  2  0
  2  3  1  0
  4  3  1  6
  4  5  1  0
  5  6  1  0
  6  7  1  0
  7  8  1  1
  8  9  2  0
  8 10  2  0
  8 11  1  0
 11 12  1  0
 12 13  1  0
 13 14  1  0
 14 15  2  0
 15 16  1  0
 16 17  2  0
 17 18  1  0
 14 19  1  0
 18 19  2  0
  7 20  1  0
  4 21  1  0
 20 21  1  0
  2 22  1  0
 22 23  1  0
 23 24  2  0
 24 25  1  0
 25 26  2  0
 26 27  1  0
 23 28  1  0
 27 28  2  0
M  END
