MAK-UNK-0d6072ac-12
     RDKit          3D

 19 21  0  0  0  0  0  0  0  0999 V2000
    4.2410   -3.2590   23.0900 C   0  0  0  0  0  0  0  0  0  0  0  0
    5.1760   -4.3610   22.7000 C   0  0  2  0  0  0  0  0  0  0  0  0
    4.7610   -5.7210   23.1990 C   0  0  0  0  0  0  0  0  0  0  0  0
    5.0390   -6.1150   24.3210 O   0  0  0  0  0  0  0  0  0  0  0  0
    4.0980   -6.3580   22.3350 O   0  0  0  0  0  0  0  0  0  0  0  0
    6.6100   -3.9700   23.0940 C   0  0  0  0  0  0  0  0  0  0  0  0
    7.3020   -4.8580   23.8960 C   0  0  0  0  0  0  0  0  0  0  0  0
    8.6680   -4.4820   24.2850 N   0  0  0  0  0  0  0  0  0  0  0  0
    9.3280   -3.2650   23.8860 C   0  0  0  0  0  0  0  0  0  0  0  0
    8.6070   -2.3020   23.0270 C   0  0  0  0  0  0  0  0  0  0  0  0
    7.2120   -2.6270   22.5970 C   0  0  0  0  0  0  0  0  0  0  0  0
    9.4160   -1.2500   22.7950 N   0  0  0  0  0  0  0  0  0  0  0  0
   10.6290   -1.4540   23.4500 C   0  0  0  0  0  0  0  0  0  0  0  0
   11.7230   -0.5950   23.4620 C   0  0  0  0  0  0  0  0  0  0  0  0
   12.8480   -0.9460   24.1780 C   0  0  0  0  0  0  0  0  0  0  0  0
   12.8400   -2.2410   24.9030 C   0  0  0  0  0  0  0  0  0  0  0  0
   14.1400   -2.7550   25.8290 Cl  0  0  0  0  0  0  0  0  0  0  0  0
   11.7250   -3.0480   24.8220 C   0  0  0  0  0  0  0  0  0  0  0  0
   10.6020   -2.6900   24.1250 C   0  0  0  0  0  0  0  0  0  0  0  0
  2  1  1  1
  2  3  1  0
  3  4  2  0
  3  5  1  0
  2  6  1  0
  6  7  2  0
  7  8  1  0
  8  9  2  0
  9 10  1  0
  6 11  1  0
 10 11  2  0
 10 12  1  0
 12 13  1  0
 13 14  1  0
 14 15  2  0
 15 16  1  0
 16 17  1  0
 16 18  2  0
  9 19  1  0
 13 19  2  0
 18 19  1  0
M  END
