MAK-UNK-a7992eb3-13
     RDKit          3D

 27 30  0  0  0  0  0  0  0  0999 V2000
    4.9960   -2.1970   26.3150 C   0  0  0  0  0  0  0  0  0  0  0  0
    3.7360   -2.3530   25.8560 C   0  0  1  0  0  0  0  0  0  0  0  0
    3.3530   -3.6670   25.2680 C   0  0  1  0  0  0  0  0  0  0  0  0
    4.2000   -4.5340   25.5230 O   0  0  0  0  0  0  0  0  0  0  0  0
    5.0600   -5.0190   24.4570 C   0  0  0  0  0  0  0  0  0  0  0  0
    6.3920   -4.6810   24.5830 C   0  0  0  0  0  0  0  0  0  0  0  0
    6.9280   -3.5320   23.9600 C   0  0  0  0  0  0  0  0  0  0  0  0
    6.0670   -2.9440   22.9480 N   0  0  0  0  0  0  0  0  0  0  0  0
    6.6960   -2.7570   21.6700 C   0  0  0  0  0  0  0  0  0  0  0  0
    6.3820   -4.0550   21.2080 C   0  0  0  0  0  0  0  0  0  0  0  0
    7.0000   -5.0930   22.0890 C   0  0  0  0  0  0  0  0  0  0  0  0
    6.5920   -6.3700   21.5770 C   0  0  0  0  0  0  0  0  0  0  0  0
    5.6180   -6.1440   20.1950 S   0  0  0  0  0  0  0  0  0  0  0  0
    5.6420   -4.4700   20.1870 C   0  0  0  0  0  0  0  0  0  0  0  0
    4.7380   -3.5270   22.7760 C   0  0  0  0  0  0  0  0  0  0  0  0
    4.4500   -4.8050   23.2250 C   0  0  0  0  0  0  0  0  0  0  0  0
    2.1170   -4.2480   25.5810 C   0  0  0  0  0  0  0  0  0  0  0  0
    1.0390   -3.2280   25.7920 C   0  0  0  0  0  0  0  0  0  0  0  0
    1.3130   -2.1020   26.5550 C   0  0  0  0  0  0  0  0  0  0  0  0
    2.7290   -1.9310   26.8620 N   0  0  0  0  0  0  0  0  0  0  0  0
    3.0630   -0.7650   27.6830 C   0  0  0  0  0  0  0  0  0  0  0  0
    2.3140    0.5190   27.2800 C   0  0  0  0  0  0  0  0  0  0  0  0
    2.4640    1.0500   25.9960 C   0  0  0  0  0  0  0  0  0  0  0  0
    1.7880    2.2120   25.6280 C   0  0  0  0  0  0  0  0  0  0  0  0
    0.9440    2.8590   26.5550 C   0  0  0  0  0  0  0  0  0  0  0  0
    0.7930    2.3300   27.8350 C   0  0  0  0  0  0  0  0  0  0  0  0
    1.4730    1.1670   28.1980 C   0  0  0  0  0  0  0  0  0  0  0  0
  2  1  1  1
  2  3  1  0
  3  4  1  1
  4  5  1  0
  5  6  1  0
  6  7  1  0
  7  8  1  0
  8  9  1  0
  9 10  1  0
 10 11  1  0
 11 12  2  0
 12 13  1  0
 10 14  2  0
 13 14  1  0
  8 15  1  0
  5 16  1  0
 15 16  1  0
  3 17  1  0
 17 18  1  0
 18 19  1  0
  2 20  1  0
 19 20  1  0
 20 21  1  0
 21 22  1  0
 22 23  2  0
 23 24  1  0
 24 25  2  0
 25 26  1  0
 22 27  1  0
 26 27  2  0
M  END
