MAK-UNK-1bb0b7ee-14
     RDKit          3D

 32 34  0  0  0  0  0  0  0  0999 V2000
    3.9700  -12.9380   20.3010 C   0  0  0  0  0  0  0  0  0  0  0  0
    3.0280  -11.9480   19.7160 C   0  0  0  0  0  0  0  0  0  0  0  0
    1.9320  -11.7180   20.1230 O   0  0  0  0  0  0  0  0  0  0  0  0
    3.3400  -11.4500   18.4730 N   0  0  0  0  0  0  0  0  0  0  0  0
    2.9100  -10.1690   18.1240 C   0  0  2  0  0  0  0  0  0  0  0  0
    3.5700   -9.4650   16.9850 C   0  0  0  0  0  0  0  0  0  0  0  0
    4.6120   -8.8750   17.1540 O   0  0  0  0  0  0  0  0  0  0  0  0
    3.1380   -9.1800   15.6780 N   0  0  0  0  0  0  0  0  0  0  0  0
    3.8710   -7.9950   15.3410 C   0  0  0  0  0  0  0  0  0  0  0  0
    4.2940   -7.2300   14.1400 C   0  0  0  0  0  0  0  0  0  0  0  0
    3.3090   -5.3750   13.4950 C   0  0  0  0  0  0  0  0  0  0  0  0
    1.7050   -4.2790   13.1790 Br  0  0  0  0  0  0  0  0  0  0  0  0
    2.1780   -9.1960   19.2550 C   0  0  1  0  0  0  0  0  0  0  0  0
    0.9300   -8.6350   19.0180 C   0  0  0  0  0  0  0  0  0  0  0  0
    2.1180   -9.3420   20.7000 O   0  0  0  0  0  0  0  0  0  0  0  0
    1.4760   -8.2730   21.6130 C   0  0  0  0  0  0  0  0  0  0  0  0
    0.0990   -8.3810   21.5930 C   0  0  0  0  0  0  0  0  0  0  0  0
   -0.7390   -7.5410   22.3380 C   0  0  0  0  0  0  0  0  0  0  0  0
   -0.2280   -6.5320   23.1520 C   0  0  0  0  0  0  0  0  0  0  0  0
    1.1420   -6.3230   23.2480 C   0  0  0  0  0  0  0  0  0  0  0  0
    2.0380   -7.1170   22.5380 C   0  0  0  0  0  0  0  0  0  0  0  0
    3.4050   -6.7680   22.7080 C   0  0  0  0  0  0  0  0  0  0  0  0
    4.2550   -7.1300   23.6400 N   0  0  0  0  0  0  0  0  0  0  0  0
    5.2100   -6.0530   23.6080 C   0  0  0  0  0  0  0  0  0  0  0  0
    6.1970   -5.7260   22.7210 N   0  0  0  0  0  0  0  0  0  0  0  0
    6.8100   -4.5360   23.2180 C   0  0  0  0  0  0  0  0  0  0  0  0
    7.8410   -3.7670   22.7490 C   0  0  0  0  0  0  0  0  0  0  0  0
    8.2790   -2.6240   23.4010 C   0  0  0  0  0  0  0  0  0  0  0  0
    7.6740   -2.1790   24.6070 C   0  0  0  0  0  0  0  0  0  0  0  0
    6.6070   -2.9240   25.1500 C   0  0  0  0  0  0  0  0  0  0  0  0
    6.1650   -4.0720   24.5020 C   0  0  0  0  0  0  0  0  0  0  0  0
    5.1840   -5.0340   24.7140 N   0  0  0  0  0  0  0  0  0  0  0  0
  1  2  1  0
  2  3  2  0
  2  4  1  0
  5  4  1  1
  5  6  1  0
  6  7  2  0
  6  8  1  0
  8  9  1  0
  9 10  1  0
 10 11  3  0
 11 12  1  0
  5 13  1  0
 13 14  1  6
 13 15  1  0
 15 16  1  0
 16 17  2  0
 17 18  1  0
 18 19  2  0
 19 20  1  0
 16 21  1  0
 20 21  2  0
 21 22  1  0
 22 23  1  0
 23 24  1  0
 24 25  2  0
 25 26  1  0
 26 27  2  0
 27 28  1  0
 28 29  2  0
 29 30  1  0
 26 31  1  0
 30 31  2  0
 24 32  1  0
 31 32  1  0
M  END
