MAK-UNK-9a6be56d-12
     RDKit          3D

 38 42  0  0  0  0  0  0  0  0999 V2000
    8.8380   -0.1800   29.0590 C   0  0  0  0  0  0  0  0  0  0  0  0
    8.3260    0.0780   27.8320 N   0  0  0  0  0  0  0  0  0  0  0  0
    9.2680    0.1040   26.8320 C   0  0  0  0  0  0  0  0  0  0  0  0
    8.6520   -0.5270   25.7930 C   0  0  0  0  0  0  0  0  0  0  0  0
    7.3230   -1.0210   25.9180 C   0  0  0  0  0  0  0  0  0  0  0  0
    6.9030   -1.6480   24.7050 C   0  0  0  0  0  0  0  0  0  0  0  0
    5.6030   -2.1720   24.7620 C   0  0  0  0  0  0  0  0  0  0  0  0
    4.5250   -1.2970   24.8720 C   0  0  0  0  0  0  0  0  0  0  0  0
    3.1950   -1.6850   24.9590 C   0  0  0  0  0  0  0  0  0  0  0  0
    2.8680   -3.0290   24.9320 C   0  0  0  0  0  0  0  0  0  0  0  0
    4.0400   -4.0250   24.8060 C   0  0  0  0  0  0  0  0  0  0  0  0
    5.3400   -3.5600   24.7320 C   0  0  0  0  0  0  0  0  0  0  0  0
    6.3270   -4.4530   24.6370 F   0  0  0  0  0  0  0  0  0  0  0  0
    7.9610   -1.5340   23.8310 N   0  0  0  0  0  0  0  0  0  0  0  0
    7.9490   -2.1270   22.2420 S   0  0  0  0  0  0  0  0  0  0  0  0
    9.3390   -2.3250   21.8820 O   0  0  0  0  0  0  0  0  0  0  0  0
    7.0630   -1.2570   21.4920 O   0  0  0  0  0  0  0  0  0  0  0  0
    7.2480   -3.7120   22.4170 C   0  0  0  0  0  0  0  0  0  0  0  0
    6.1020   -4.1320   21.7760 C   0  0  0  0  0  0  0  0  0  0  0  0
    5.6170   -5.4070   21.9550 C   0  0  0  0  0  0  0  0  0  0  0  0
    6.2100   -6.3670   22.7700 C   0  0  0  0  0  0  0  0  0  0  0  0
    7.3460   -6.0480   23.4530 N   0  0  0  0  0  0  0  0  0  0  0  0
    7.8290   -4.6630   23.2300 C   0  0  0  0  0  0  0  0  0  0  0  0
    9.1530   -0.8030   24.5100 C   0  0  0  0  0  0  0  0  0  0  0  0
   10.4010   -0.5260   23.9590 N   0  0  0  0  0  0  0  0  0  0  0  0
   11.3020   -1.6670   23.7500 C   0  0  0  0  0  0  0  0  0  0  0  0
   12.2780   -1.4330   22.7840 C   0  0  0  0  0  0  0  0  0  0  0  0
   13.1040   -0.3550   23.0370 C   0  0  0  0  0  0  0  0  0  0  0  0
   12.2970    0.7820   23.2090 C   0  0  0  0  0  0  0  0  0  0  0  0
   12.9070    1.9880   22.9010 C   0  0  0  0  0  0  0  0  0  0  0  0
   12.2190    3.1860   23.0180 C   0  0  0  0  0  0  0  0  0  0  0  0
   10.9140    3.2740   23.4490 C   0  0  0  0  0  0  0  0  0  0  0  0
   10.1030    4.8550   23.5830 S   0  0  0  0  0  0  0  0  0  0  0  0
   11.0740    5.8750   22.6570 N   0  0  0  0  0  0  0  0  0  0  0  0
   10.2150    5.3720   24.9200 O   0  0  0  0  0  0  0  0  0  0  0  0
    8.8240    4.7620   22.9270 O   0  0  0  0  0  0  0  0  0  0  0  0
   10.2360    2.0830   23.7830 C   0  0  0  0  0  0  0  0  0  0  0  0
   10.9710    0.7240   23.6580 C   0  0  0  0  0  0  0  0  0  0  0  0
  1  2  1  0
  2  3  1  0
  3  4  1  0
  4  5  1  0
  5  6  2  0
  6  7  1  0
  7  8  2  0
  8  9  1  0
  9 10  2  0
 10 11  1  0
  7 12  1  0
 11 12  2  0
 12 13  1  0
  6 14  1  0
 14 15  1  0
 15 16  2  0
 15 17  2  0
 15 18  1  0
 18 19  2  0
 19 20  1  0
 20 21  2  0
 21 22  1  0
 18 23  1  0
 22 23  2  0
  4 24  2  0
 14 24  1  0
 24 25  1  0
 25 26  1  0
 26 27  1  0
 27 28  1  0
 28 29  1  0
 29 30  2  0
 30 31  1  0
 31 32  2  0
 32 33  1  0
 33 34  1  0
 33 35  2  0
 33 36  2  0
 32 37  1  0
 25 38  1  0
 29 38  1  0
 37 38  2  0
M  END
