MAK-UNK-702fb7d3-4
     RDKit          3D

 43 48  0  0  0  0  0  0  0  0999 V2000
   10.5450  -13.5920   29.2420 O   0  0  0  0  0  0  0  0  0  0  0  0
   10.2140  -13.2010   30.3420 C   0  0  0  0  0  0  0  0  0  0  0  0
   10.1560  -14.2360   31.5080 C   0  0  0  0  0  0  0  0  0  0  0  0
    8.7920  -14.1680   32.6630 Cl  0  0  0  0  0  0  0  0  0  0  0  0
    9.8090  -11.7720   30.6120 C   0  0  1  0  0  0  0  0  0  0  0  0
    9.7520  -10.7430   29.4720 N   0  0  0  0  0  0  0  0  0  0  0  0
   10.0500  -10.6370   27.8730 C   0  0  0  0  0  0  0  0  0  0  0  0
    9.7960   -8.7010   26.3490 C   0  0  0  0  0  0  0  0  0  0  0  0
    9.9370   -7.1040   26.5500 C   0  0  0  0  0  0  0  0  0  0  0  0
    9.4260   -6.2820   25.6490 C   0  0  0  0  0  0  0  0  0  0  0  0
    9.4280   -4.7780   25.4050 C   0  0  0  0  0  0  0  0  0  0  0  0
    8.3160   -3.9200   24.9030 C   0  0  0  0  0  0  0  0  0  0  0  0
    8.6170   -2.5360   24.6690 C   0  0  0  0  0  0  0  0  0  0  0  0
    9.8950   -1.9550   24.8850 C   0  0  0  0  0  0  0  0  0  0  0  0
   10.9660   -2.6700   25.3600 C   0  0  0  0  0  0  0  0  0  0  0  0
   10.7480   -3.9950   25.6110 C   0  0  0  0  0  0  0  0  0  0  0  0
   11.7980   -4.6310   26.0810 F   0  0  0  0  0  0  0  0  0  0  0  0
    8.8050   -6.9190   24.7930 N   0  0  0  0  0  0  0  0  0  0  0  0
    7.7480   -6.2380   23.5960 S   0  0  0  0  0  0  0  0  0  0  0  0
    6.4370   -6.7230   23.9710 O   0  0  0  0  0  0  0  0  0  0  0  0
    8.0810   -6.2670   22.2130 O   0  0  0  0  0  0  0  0  0  0  0  0
    7.7730   -4.5740   24.1110 C   0  0  0  0  0  0  0  0  0  0  0  0
    6.7600   -4.2270   24.9500 C   0  0  0  0  0  0  0  0  0  0  0  0
    6.6510   -2.9310   25.3880 C   0  0  0  0  0  0  0  0  0  0  0  0
    7.5690   -1.9580   25.0060 C   0  0  0  0  0  0  0  0  0  0  0  0
    8.6360   -2.1930   24.1800 N   0  0  0  0  0  0  0  0  0  0  0  0
    8.7610   -3.5700   23.6960 C   0  0  0  0  0  0  0  0  0  0  0  0
    9.0400   -8.1820   24.9360 C   0  0  0  0  0  0  0  0  0  0  0  0
    8.5060  -11.8680   31.5520 C   0  0  0  0  0  0  0  0  0  0  0  0
    8.7470  -11.9930   32.9820 C   0  0  0  0  0  0  0  0  0  0  0  0
    7.6480  -11.8820   33.8480 C   0  0  0  0  0  0  0  0  0  0  0  0
    7.7800  -11.9800   35.2410 C   0  0  0  0  0  0  0  0  0  0  0  0
    9.0210  -12.1920   35.8430 C   0  0  0  0  0  0  0  0  0  0  0  0
   10.1500  -12.3060   35.0590 C   0  0  0  0  0  0  0  0  0  0  0  0
   10.0140  -12.2010   33.5580 C   0  0  0  0  0  0  0  0  0  0  0  0
   11.2670  -12.3260   32.7310 C   0  0  2  0  0  0  0  0  0  0  0  0
   12.5110  -12.1870   33.3670 C   0  0  0  0  0  0  0  0  0  0  0  0
   13.2810  -10.8890   33.3130 C   0  0  0  0  0  0  0  0  0  0  0  0
   14.5090  -10.7940   33.9550 C   0  0  0  0  0  0  0  0  0  0  0  0
   15.0330  -11.8870   34.6440 C   0  0  0  0  0  0  0  0  0  0  0  0
   14.3330  -13.0950   34.7050 C   0  0  0  0  0  0  0  0  0  0  0  0
   13.0940  -13.2470   34.0810 C   0  0  0  0  0  0  0  0  0  0  0  0
   11.1190  -11.4630   31.4470 C   0  0  0  0  0  0  0  0  0  0  0  0
  1  2  2  0
  2  3  1  0
  3  4  1  0
  5  2  1  0
  5  6  1  6
  6  7  1  0
  7  8  1  0
  8  9  1  0
  9 10  2  0
 10 11  1  0
 11 12  2  0
 12 13  1  0
 13 14  2  0
 14 15  1  0
 11 16  1  0
 15 16  2  0
 16 17  1  0
 10 18  1  0
 18 19  1  0
 19 20  2  0
 19 21  2  0
 19 22  1  0
 22 23  2  0
 23 24  1  0
 24 25  2  0
 25 26  1  0
 22 27  1  0
 26 27  2  0
  8 28  2  0
 18 28  1  0
  5 29  1  0
 29 30  1  0
 30 31  2  0
 31 32  1  0
 32 33  2  0
 33 34  1  0
 30 35  1  0
 34 35  2  0
 35 36  1  0
 36 37  1  1
 37 38  2  0
 38 39  1  0
 39 40  2  0
 40 41  1  0
 37 42  1  0
 41 42  2  0
  5 43  1  0
 36 43  1  0
M  END
