MAK-UNK-f2409524-35
     RDKit          3D

 40 43  0  0  0  0  0  0  0  0999 V2000
    0.5190   -1.6670   11.6750 C   0  0  0  0  0  0  0  0  0  0  0  0
    1.9860   -2.1350   12.0940 C   0  0  0  0  0  0  0  0  0  0  0  0
    2.7180   -1.9880   11.1220 O   0  0  0  0  0  0  0  0  0  0  0  0
    2.5480   -2.7340   13.0460 N   0  0  0  0  0  0  0  0  0  0  0  0
    4.1890   -2.6940   13.0110 C   0  0  0  0  0  0  0  0  0  0  0  0
    4.2640   -3.1930   11.6260 C   0  0  0  0  0  0  0  0  0  0  0  0
    5.3030   -3.2830   10.6960 N   0  0  0  0  0  0  0  0  0  0  0  0
    6.4750   -2.7850   11.2960 C   0  0  0  0  0  0  0  0  0  0  0  0
    6.4760   -2.2860   12.7740 C   0  0  0  0  0  0  0  0  0  0  0  0
    5.5080   -2.0960   14.1080 C   0  0  0  0  0  0  0  0  0  0  0  0
    5.6200   -0.8110   16.5280 C   0  0  0  0  0  0  0  0  0  0  0  0
    5.8600   -0.6720   17.9120 C   0  0  0  0  0  0  0  0  0  0  0  0
    4.7030    0.1850   18.4440 C   0  0  0  0  0  0  0  0  0  0  0  0
    4.5690    0.6210   19.8370 C   0  0  0  0  0  0  0  0  0  0  0  0
    5.5540    0.2320   20.7130 C   0  0  0  0  0  0  0  0  0  0  0  0
    5.4510    0.6290   22.0620 C   0  0  0  0  0  0  0  0  0  0  0  0
    4.9650    1.9160   22.3600 C   0  0  0  0  0  0  0  0  0  0  0  0
    3.6500    2.1570   22.1380 N   0  0  0  0  0  0  0  0  0  0  0  0
    2.7650    2.4980   23.2390 C   0  0  0  0  0  0  0  0  0  0  0  0
    2.7380    1.9170   24.3270 O   0  0  0  0  0  0  0  0  0  0  0  0
    1.9800    3.5600   22.8770 N   0  0  0  0  0  0  0  0  0  0  0  0
    0.6010    3.9280   23.3880 C   0  0  0  0  0  0  0  0  0  0  0  0
    0.6670    4.7540   24.6570 C   0  0  0  0  0  0  0  0  0  0  0  0
   -0.7450    4.9790   25.2590 C   0  0  0  0  0  0  0  0  0  0  0  0
   -1.8370    4.6520   24.1940 C   0  0  0  0  0  0  0  0  0  0  0  0
   -1.7610    3.2370   23.5860 C   0  0  0  0  0  0  0  0  0  0  0  0
   -0.2920    2.8640   23.3420 C   0  0  0  0  0  0  0  0  0  0  0  0
    6.6550   -0.5610   20.2180 C   0  0  0  0  0  0  0  0  0  0  0  0
    7.6120   -0.8630   21.1810 N   0  0  0  0  0  0  0  0  0  0  0  0
    8.7820   -0.1660   21.3870 C   0  0  0  0  0  0  0  0  0  0  0  0
    9.0410    1.1720   21.2000 O   0  0  0  0  0  0  0  0  0  0  0  0
    9.7310   -1.0630   21.7980 C   0  0  0  0  0  0  0  0  0  0  0  0
    9.7370   -1.5060   23.2370 C   0  0  0  0  0  0  0  0  0  0  0  0
   11.0100   -1.7180   23.6860 C   0  0  0  0  0  0  0  0  0  0  0  0
   11.9950   -0.7790   23.4140 C   0  0  0  0  0  0  0  0  0  0  0  0
   13.2930   -0.9700   23.8560 C   0  0  0  0  0  0  0  0  0  0  0  0
   13.6360   -2.1060   24.5910 C   0  0  0  0  0  0  0  0  0  0  0  0
   12.7110   -3.0430   24.8800 C   0  0  0  0  0  0  0  0  0  0  0  0
   11.3040   -2.8480   24.3900 C   0  0  0  0  0  0  0  0  0  0  0  0
    6.8120   -1.0110   18.8520 C   0  0  0  0  0  0  0  0  0  0  0  0
  1  2  1  0
  2  3  2  0
  2  4  1  0
  4  5  1  0
  5  6  2  0
  6  7  1  0
  7  8  2  0
  8  9  1  0
  5 10  1  0
  9 10  2  0
 10 11  1  0
 11 12  1  0
 12 13  2  0
 13 14  1  0
 14 15  2  0
 15 16  1  0
 16 17  1  0
 17 18  1  0
 18 19  1  0
 19 20  2  0
 19 21  1  0
 21 22  1  0
 22 23  1  0
 23 24  1  0
 24 25  1  0
 25 26  1  0
 22 27  1  0
 26 27  1  0
 15 28  1  0
 28 29  1  0
 29 30  1  0
 30 31  2  0
 30 32  1  0
 32 33  1  0
 33 34  1  0
 34 35  2  0
 35 36  1  0
 36 37  2  0
 37 38  1  0
 34 39  1  0
 38 39  2  0
 12 40  1  0
 28 40  2  0
M  END
