MAK-UNK-bdda130a-6
     RDKit          3D

 23 26  0  0  0  0  0  0  0  0999 V2000
    3.7480   -3.7930   24.4510 C   0  0  0  0  0  0  0  0  0  0  0  0
    4.1350   -5.1900   25.4850 S   0  0  0  0  0  0  0  0  0  0  0  0
    3.6050   -6.1140   26.8450 C   0  0  0  0  0  0  0  0  0  0  0  0
    2.7830   -4.1820   25.6570 C   0  0  0  0  0  0  0  0  0  0  0  0
    1.5780   -3.8390   25.5420 C   0  0  0  0  0  0  0  0  0  0  0  0
    1.0180   -2.7290   25.9350 C   0  0  0  0  0  0  0  0  0  0  0  0
    0.4390   -4.1230   25.1470 S   0  0  0  0  0  0  0  0  0  0  0  0
    1.9620   -5.1490   25.0100 C   0  0  0  0  0  0  0  0  0  0  0  0
    5.4870   -5.3950   24.5260 N   0  0  0  0  0  0  0  0  0  0  0  0
    5.9480   -4.2100   24.0730 C   0  0  0  0  0  0  0  0  0  0  0  0
    5.3920   -3.5380   22.8390 C   0  0  0  0  0  0  0  0  0  0  0  0
    5.3860   -4.3410   21.7170 N   0  0  0  0  0  0  0  0  0  0  0  0
    5.9540   -3.7730   20.6230 C   0  0  0  0  0  0  0  0  0  0  0  0
    5.5870   -3.8870   19.4580 O   0  0  0  0  0  0  0  0  0  0  0  0
    7.0190   -3.0630   21.0730 C   0  0  0  0  0  0  0  0  0  0  0  0
    7.3670   -1.7720   20.6700 C   0  0  0  0  0  0  0  0  0  0  0  0
    8.4780   -1.1950   21.2640 C   0  0  0  0  0  0  0  0  0  0  0  0
    9.2340   -1.8040   22.2020 N   0  0  0  0  0  0  0  0  0  0  0  0
    8.8600   -3.0550   22.5600 C   0  0  0  0  0  0  0  0  0  0  0  0
    7.7640   -3.7400   22.0300 C   0  0  0  0  0  0  0  0  0  0  0  0
    7.3750   -5.0850   22.4220 N   0  0  0  0  0  0  0  0  0  0  0  0
    5.9690   -5.4950   22.0780 C   0  0  1  0  0  0  0  0  0  0  0  0
    5.3290   -6.1900   23.2790 C   0  0  0  0  0  0  0  0  0  0  0  0
  1  2  2  0
  2  3  2  0
  2  4  1  0
  4  5  1  0
  5  6  2  0
  6  7  1  0
  4  8  2  0
  7  8  1  0
  2  9  1  0
  9 10  1  0
 10 11  1  0
 11 12  1  0
 12 13  1  0
 13 14  2  0
 13 15  1  0
 15 16  2  0
 16 17  1  0
 17 18  2  0
 18 19  1  0
 15 20  1  0
 19 20  2  0
 20 21  1  0
 12 22  1  0
 21 22  1  0
  9 23  1  0
 22 23  1  1
M  END
