MAK-UNK-a7992eb3-20
     RDKit          3D

 29 32  0  0  0  0  0  0  0  0999 V2000
    8.8640   -6.0460   26.5630 C   0  0  0  0  0  0  0  0  0  0  0  0
    8.2120   -4.9830   25.9310 C   0  0  1  0  0  0  0  0  0  0  0  0
    6.8790   -4.7100   26.2580 C   0  0  2  0  0  0  0  0  0  0  0  0
    6.4870   -3.3760   25.9160 O   0  0  0  0  0  0  0  0  0  0  0  0
    5.8310   -3.2220   24.6550 C   0  0  0  0  0  0  0  0  0  0  0  0
    5.9980   -4.3350   23.9440 C   0  0  2  0  0  0  0  0  0  0  0  0
    7.0090   -4.3840   22.8850 C   0  0  0  0  0  0  0  0  0  0  0  0
    6.4490   -4.8280   21.6130 N   0  0  0  0  0  0  0  0  0  0  0  0
    5.4980   -3.8500   20.9930 C   0  0  0  0  0  0  0  0  0  0  0  0
    5.9810   -2.6070   20.5600 C   0  0  0  0  0  0  0  0  0  0  0  0
    5.5330   -2.0620   19.3520 C   0  0  0  0  0  0  0  0  0  0  0  0
    5.9970   -0.8170   18.8800 C   0  0  0  0  0  0  0  0  0  0  0  0
    6.9300   -0.0740   19.6120 C   0  0  0  0  0  0  0  0  0  0  0  0
    7.4120   -0.5650   20.8240 C   0  0  0  0  0  0  0  0  0  0  0  0
    6.9930   -1.7900   21.3430 C   0  0  0  0  0  0  0  0  0  0  0  0
    5.7450   -6.1110   21.8470 C   0  0  0  0  0  0  0  0  0  0  0  0
    4.7230   -5.9750   22.8110 C   0  0  0  0  0  0  0  0  0  0  0  0
    4.7100   -4.6780   23.4000 O   0  0  0  0  0  0  0  0  0  0  0  0
    6.7050   -4.7830   27.7580 C   0  0  0  0  0  0  0  0  0  0  0  0
    7.7660   -4.1250   28.3370 C   0  0  0  0  0  0  0  0  0  0  0  0
    8.9480   -3.5930   27.6540 C   0  0  0  0  0  0  0  0  0  0  0  0
    9.0330   -3.8120   26.1940 N   0  0  0  0  0  0  0  0  0  0  0  0
   10.3810   -4.2030   25.7130 C   0  0  0  0  0  0  0  0  0  0  0  0
   11.0020   -3.3310   24.7960 C   0  0  0  0  0  0  0  0  0  0  0  0
   12.3620   -3.0780   24.8350 C   0  0  0  0  0  0  0  0  0  0  0  0
   13.0500   -2.2540   23.9810 C   0  0  0  0  0  0  0  0  0  0  0  0
   12.4770   -1.5460   22.9380 C   0  0  0  0  0  0  0  0  0  0  0  0
   10.9590   -1.7300   22.7700 C   0  0  0  0  0  0  0  0  0  0  0  0
   10.2460   -2.5900   23.6650 C   0  0  0  0  0  0  0  0  0  0  0  0
  2  1  1  1
  2  3  1  0
  3  4  1  1
  4  5  1  0
  6  5  1  6
  6  7  1  0
  7  8  1  0
  8  9  1  0
  9 10  1  0
 10 11  2  0
 11 12  1  0
 12 13  2  0
 13 14  1  0
 10 15  1  0
 14 15  2  0
  8 16  1  0
 16 17  1  0
  6 18  1  0
 17 18  1  0
  3 19  1  0
 19 20  1  0
 20 21  1  0
  2 22  1  0
 21 22  1  0
 22 23  1  0
 23 24  1  0
 24 25  2  0
 25 26  1  0
 26 27  2  0
 27 28  1  0
 24 29  1  0
 28 29  2  0
M  END
