MAK-UNK-902cc841-15
     RDKit          3D

 25 27  0  0  0  0  0  0  0  0999 V2000
    6.0860   -1.9310   18.4450 C   0  0  0  0  0  0  0  0  0  0  0  0
    5.7860   -2.5870   19.7300 C   0  0  0  0  0  0  0  0  0  0  0  0
    5.3570   -3.7530   19.7430 O   0  0  0  0  0  0  0  0  0  0  0  0
    6.0210   -1.9100   20.8160 N   0  0  0  0  0  0  0  0  0  0  0  0
    5.6660   -2.3700   22.1390 C   0  0  0  0  0  0  0  0  0  0  0  0
    6.8660   -2.3350   23.0380 C   0  0  0  0  0  0  0  0  0  0  0  0
    7.5170   -0.9940   23.1120 N   0  0  0  0  0  0  0  0  0  0  0  0
    8.7990   -1.1360   23.7920 C   0  0  1  0  0  0  0  0  0  0  0  0
    9.1690   -2.3320   23.0900 C   0  0  0  0  0  0  0  0  0  0  0  0
    8.7470   -3.4350   23.4260 O   0  0  0  0  0  0  0  0  0  0  0  0
    9.9880   -2.0820   22.0730 N   0  0  0  0  0  0  0  0  0  0  0  0
   11.2630   -2.2800   22.3930 C   0  0  0  0  0  0  0  0  0  0  0  0
   12.2000   -2.8340   21.4360 C   0  0  0  0  0  0  0  0  0  0  0  0
   13.4180   -3.1140   21.7530 N   0  0  0  0  0  0  0  0  0  0  0  0
   13.8390   -2.8450   23.1410 C   0  0  0  0  0  0  0  0  0  0  0  0
   12.9810   -2.2320   24.1760 C   0  0  0  0  0  0  0  0  0  0  0  0
   11.6320   -1.9490   23.7160 C   0  0  0  0  0  0  0  0  0  0  0  0
   10.7750   -1.3650   24.6240 C   0  0  0  0  0  0  0  0  0  0  0  0
    9.9410   -0.1040   23.6160 C   0  0  0  0  0  0  0  0  0  0  0  0
   11.2620   -0.3420   23.1530 C   0  0  0  0  0  0  0  0  0  0  0  0
   12.0670    0.7760   23.0990 C   0  0  0  0  0  0  0  0  0  0  0  0
   11.4160    1.9320   23.5090 C   0  0  0  0  0  0  0  0  0  0  0  0
    9.7940    1.5920   23.9650 S   0  0  0  0  0  0  0  0  0  0  0  0
    7.8420   -0.5370   21.7510 C   0  0  0  0  0  0  0  0  0  0  0  0
    6.6820   -0.6150   20.7670 C   0  0  0  0  0  0  0  0  0  0  0  0
  1  2  1  0
  2  3  2  0
  2  4  1  0
  4  5  1  0
  5  6  1  0
  6  7  1  0
  7  8  1  0
  8  9  1  6
  9 10  2  0
  9 11  1  0
 11 12  1  0
 12 13  2  0
 13 14  1  0
 14 15  2  0
 15 16  1  0
 12 17  1  0
 16 17  2  0
 17 18  1  0
  8 19  1  0
 19 20  2  0
 20 21  1  0
 21 22  2  0
 19 23  1  0
 22 23  1  0
  7 24  1  0
  4 25  1  0
 24 25  1  0
M  END
