MAK-UNK-01147c51-6
     RDKit          3D

 24 26  0  0  0  0  0  0  0  0999 V2000
   13.1950   -1.5700   22.4000 N   0  0  0  0  0  0  0  0  0  0  0  0
   12.5340   -2.5910   23.2380 C   0  0  0  0  0  0  0  0  0  0  0  0
   11.5440   -2.1960   24.1700 C   0  0  2  0  0  0  0  0  0  0  0  0
   10.4430   -3.0630   24.2870 O   0  0  0  0  0  0  0  0  0  0  0  0
    8.9560   -2.7100   24.1730 C   0  0  2  0  0  0  0  0  0  0  0  0
    7.9020   -3.5140   23.5910 C   0  0  1  0  0  0  0  0  0  0  0  0
    7.6450   -3.4420   22.2900 C   0  0  0  0  0  0  0  0  0  0  0  0
    6.3920   -4.0470   21.8370 C   0  0  0  0  0  0  0  0  0  0  0  0
    6.1680   -5.3480   22.2530 C   0  0  2  0  0  0  0  0  0  0  0  0
    4.8620   -5.6570   22.6510 C   0  0  0  0  0  0  0  0  0  0  0  0
    4.5620   -5.9920   23.9820 C   0  0  0  0  0  0  0  0  0  0  0  0
    3.4650   -5.3900   24.6260 C   0  0  0  0  0  0  0  0  0  0  0  0
    2.6740   -5.9410   25.3770 O   0  0  0  0  0  0  0  0  0  0  0  0
    7.1380   -5.8690   23.0990 C   0  0  0  0  0  0  0  0  0  0  0  0
    7.6820   -4.9870   24.0740 C   0  0  0  0  0  0  0  0  0  0  0  0
    9.1880   -1.5980   23.3040 C   0  0  0  0  0  0  0  0  0  0  0  0
   10.4530   -1.6700   23.7110 C   0  0  0  0  0  0  0  0  0  0  0  0
   11.3370   -0.7560   23.6260 C   0  0  0  0  0  0  0  0  0  0  0  0
   12.6570   -0.4930   23.9210 C   0  0  0  0  0  0  0  0  0  0  0  0
   13.1960   -1.5580   24.5220 C   0  0  0  0  0  0  0  0  0  0  0  0
   12.4880   -2.7270   24.7940 C   0  0  0  0  0  0  0  0  0  0  0  0
   13.1180   -3.7290   25.4260 O   0  0  0  0  0  0  0  0  0  0  0  0
   11.1020   -2.8120   24.3880 C   0  0  0  0  0  0  0  0  0  0  0  0
   10.5550   -4.0810   24.7490 O   0  0  0  0  0  0  0  0  0  0  0  0
  1  2  1  0
  3  2  1  6
  3  4  1  0
  4  5  1  0
  5  6  1  0
  6  7  1  6
  7  8  1  0
  8  9  1  0
  9 10  1  1
 10 11  1  0
 11 12  1  0
 12 13  2  0
  9 14  1  0
  6 15  1  0
 14 15  1  0
  5 16  1  6
 16 17  1  0
  3 18  1  0
 17 18  2  0
 18 19  1  0
 19 20  2  0
 20 21  1  0
 21 22  1  0
 17 23  1  0
 21 23  2  0
 23 24  1  0
M  END
