MAK-UNK-c7aa8293-8
     RDKit          3D

 22 24  0  0  0  0  0  0  0  0999 V2000
    5.9310   -2.4890   20.0500 C   0  0  0  0  0  0  0  0  0  0  0  0
    5.9360   -3.8150   20.6350 N   0  0  0  0  0  0  0  0  0  0  0  0
    6.3420   -4.1160   21.9180 C   0  0  1  0  0  0  0  0  0  0  0  0
    6.6180   -5.5460   21.9680 C   0  0  0  0  0  0  0  0  0  0  0  0
    7.1260   -5.9360   23.3550 C   0  0  0  0  0  0  0  0  0  0  0  0
    7.7260   -4.8960   24.0570 C   0  0  0  0  0  0  0  0  0  0  0  0
    8.4150   -3.8840   23.3640 C   0  0  2  0  0  0  0  0  0  0  0  0
    9.1490   -2.9030   24.1000 C   0  0  2  0  0  0  0  0  0  0  0  0
    9.2140   -1.6970   23.3250 C   0  0  0  0  0  0  0  0  0  0  0  0
   10.5510   -1.7950   23.8120 C   0  0  0  0  0  0  0  0  0  0  0  0
   11.4570   -0.7960   23.7730 C   0  0  0  0  0  0  0  0  0  0  0  0
   12.7680   -0.6050   24.1430 C   0  0  0  0  0  0  0  0  0  0  0  0
   13.3050   -1.7250   24.7350 C   0  0  0  0  0  0  0  0  0  0  0  0
   12.5760   -2.8610   24.9040 C   0  0  0  0  0  0  0  0  0  0  0  0
   13.2730   -3.8450   25.5190 O   0  0  0  0  0  0  0  0  0  0  0  0
   11.1960   -2.9500   24.4530 C   0  0  0  0  0  0  0  0  0  0  0  0
   10.6350   -4.2660   24.7360 O   0  0  0  0  0  0  0  0  0  0  0  0
   11.5790   -2.1350   24.2390 C   0  0  2  0  0  0  0  0  0  0  0  0
   12.2580   -2.6760   23.1460 C   0  0  0  0  0  0  0  0  0  0  0  0
   13.0160   -1.6940   22.3350 N   0  0  0  0  0  0  0  0  0  0  0  0
   10.4580   -2.9600   24.4820 O   0  0  0  0  0  0  0  0  0  0  0  0
    7.5930   -3.2990   22.3580 C   0  0  0  0  0  0  0  0  0  0  0  0
  1  2  1  0
  3  2  1  6
  3  4  1  0
  4  5  1  0
  5  6  1  0
  7  6  1  1
  7  8  1  0
  8  9  1  6
  9 10  1  0
 10 11  2  0
 11 12  1  0
 12 13  2  0
 13 14  1  0
 14 15  1  0
 10 16  1  0
 14 16  2  0
 16 17  1  0
 11 18  1  0
 18 19  1  6
 19 20  1  0
  8 21  1  0
 18 21  1  0
  3 22  1  0
  7 22  1  0
M  END
