MAK-UNK-ae34c249-5
     RDKit          3D

 29 32  0  0  0  0  0  0  0  0999 V2000
    8.7250   -0.3050   20.9860 O   0  0  0  0  0  0  0  0  0  0  0  0
    8.2070   -1.3190   21.3840 C   0  0  0  0  0  0  0  0  0  0  0  0
    6.7680   -1.4210   21.1930 N   0  0  0  0  0  0  0  0  0  0  0  0
    6.2810   -0.4930   20.1200 C   0  0  0  0  0  0  0  0  0  0  0  0
    5.1640    0.2770   20.3820 C   0  0  0  0  0  0  0  0  0  0  0  0
    4.6910    1.1440   19.3920 C   0  0  0  0  0  0  0  0  0  0  0  0
    5.3000    1.2730   18.1320 C   0  0  0  0  0  0  0  0  0  0  0  0
    6.4210    0.5040   17.8730 N   0  0  0  0  0  0  0  0  0  0  0  0
    6.8660   -0.3470   18.8750 C   0  0  0  0  0  0  0  0  0  0  0  0
    8.8650   -2.4200   22.0250 N   0  0  0  0  0  0  0  0  0  0  0  0
   10.1660   -2.3020   22.5950 C   0  0  0  0  0  0  0  0  0  0  0  0
   10.4740   -2.6170   24.0000 C   0  0  0  0  0  0  0  0  0  0  0  0
   11.7980   -2.4050   24.4820 C   0  0  0  0  0  0  0  0  0  0  0  0
   12.8230   -1.8940   23.7230 C   0  0  0  0  0  0  0  0  0  0  0  0
   12.4860   -1.6080   22.4410 C   0  0  0  0  0  0  0  0  0  0  0  0
   13.2350   -0.9580   21.5710 C   0  0  0  0  0  0  0  0  0  0  0  0
   13.6880   -1.0320   20.3410 N   0  0  0  0  0  0  0  0  0  0  0  0
   14.2550    0.2250   19.9730 N   0  0  0  0  0  0  0  0  0  0  0  0
   14.1700    1.1620   21.0920 C   0  0  0  0  0  0  0  0  0  0  0  0
   14.4910    2.4730   21.3910 C   0  0  0  0  0  0  0  0  0  0  0  0
   14.6920    3.5480   20.3560 N   0  0  0  0  0  0  0  0  0  0  0  0
   15.6820    3.0560   19.5480 C   0  0  0  0  0  0  0  0  0  0  0  0
   15.4580    1.6650   19.0110 C   0  0  0  0  0  0  0  0  0  0  0  0
   15.6520    2.3060   17.9440 C   0  0  0  0  0  0  0  0  0  0  0  0
   15.0350    3.4270   18.0520 C   0  0  0  0  0  0  0  0  0  0  0  0
   15.3740    4.3100   17.1420 F   0  0  0  0  0  0  0  0  0  0  0  0
   14.1500    3.4830   19.0760 C   0  0  0  0  0  0  0  0  0  0  0  0
   13.5380    0.4430   22.4190 S   0  0  0  0  0  0  0  0  0  0  0  0
   11.2300   -1.8440   21.9080 C   0  0  0  0  0  0  0  0  0  0  0  0
  1  2  2  0
  2  3  1  0
  3  4  1  0
  4  5  2  0
  5  6  1  0
  6  7  2  0
  7  8  1  0
  4  9  1  0
  8  9  2  0
  2 10  1  0
 10 11  1  0
 11 12  2  0
 12 13  1  0
 13 14  2  0
 14 15  1  0
 15 16  1  0
 16 17  2  0
 17 18  1  0
 18 19  2  0
 19 20  1  0
 20 21  1  0
 21 22  1  0
 22 23  1  0
 23 24  1  0
 24 25  2  0
 25 26  1  0
 21 27  1  0
 25 27  1  0
 16 28  1  0
 19 28  1  0
 11 29  1  0
 15 29  2  0
M  END
