MAK-UNK-bdda130a-2
     RDKit          3D

 25 28  0  0  0  0  0  0  0  0999 V2000
    3.4430   -3.2310   24.3510 C   0  0  0  0  0  0  0  0  0  0  0  0
    4.1720   -4.6450   25.1120 S   0  0  0  0  0  0  0  0  0  0  0  0
    4.0760   -5.6720   26.4980 C   0  0  0  0  0  0  0  0  0  0  0  0
    2.8790   -3.7120   25.6460 C   0  0  0  0  0  0  0  0  0  0  0  0
    1.6100   -3.4900   25.7090 C   0  0  0  0  0  0  0  0  0  0  0  0
    0.8150   -2.6070   26.2260 C   0  0  0  0  0  0  0  0  0  0  0  0
    0.2550   -3.9590   25.3220 S   0  0  0  0  0  0  0  0  0  0  0  0
    1.9300   -4.5560   25.0410 C   0  0  0  0  0  0  0  0  0  0  0  0
    5.2370   -4.7590   23.8180 N   0  0  0  0  0  0  0  0  0  0  0  0
    6.2920   -5.5620   23.8720 C   0  0  0  0  0  0  0  0  0  0  0  0
    7.3100   -5.4950   22.9950 C   0  0  0  0  0  0  0  0  0  0  0  0
    6.9430   -5.0840   21.8150 N   0  0  0  0  0  0  0  0  0  0  0  0
    7.4520   -3.8420   21.7140 C   0  0  0  0  0  0  0  0  0  0  0  0
    7.0590   -3.0760   20.8420 O   0  0  0  0  0  0  0  0  0  0  0  0
    8.3570   -3.4500   22.6250 C   0  0  0  0  0  0  0  0  0  0  0  0
    8.8550   -2.7970   23.5420 O   0  0  0  0  0  0  0  0  0  0  0  0
    7.3310   -2.5770   22.7990 N   0  0  0  0  0  0  0  0  0  0  0  0
    6.5750   -2.3010   21.6900 C   0  0  0  0  0  0  0  0  0  0  0  0
    6.7000   -0.9550   21.2240 C   0  0  0  0  0  0  0  0  0  0  0  0
    6.0200   -0.5870   20.0780 N   0  0  0  0  0  0  0  0  0  0  0  0
    5.2450   -1.5120   19.3960 C   0  0  0  0  0  0  0  0  0  0  0  0
    5.0930   -2.8110   19.8160 C   0  0  0  0  0  0  0  0  0  0  0  0
    5.7800   -3.2970   21.0660 C   0  0  0  0  0  0  0  0  0  0  0  0
    5.6000   -4.7950   21.5310 C   0  0  2  0  0  0  0  0  0  0  0  0
    4.6770   -4.9540   22.5700 C   0  0  0  0  0  0  0  0  0  0  0  0
  1  2  2  0
  2  3  2  0
  2  4  1  0
  4  5  1  0
  5  6  2  0
  6  7  1  0
  4  8  2  0
  7  8  1  0
  2  9  1  0
  9 10  1  0
 10 11  1  0
 11 12  1  0
 12 13  1  0
 13 14  2  0
 13 15  1  0
 15 16  2  0
 15 17  1  0
 17 18  1  0
 18 19  1  0
 19 20  2  0
 20 21  1  0
 21 22  2  0
 18 23  2  0
 22 23  1  0
 12 24  1  0
 23 24  1  0
  9 25  1  0
 24 25  1  1
M  END
