MAK-UNK-9e4a73aa-29
     RDKit          3D

 27 30  0  0  0  0  0  0  0  0999 V2000
    7.3490    0.8360   20.2450 C   0  0  0  0  0  0  0  0  0  0  0  0
    6.2750   -0.0010   20.4460 C   0  0  0  0  0  0  0  0  0  0  0  0
    5.2440   -0.9800   20.7080 C   0  0  0  0  0  0  0  0  0  0  0  0
    5.2910   -2.2640   21.2240 N   0  0  0  0  0  0  0  0  0  0  0  0
    6.4590   -2.8410   21.6000 C   0  0  0  0  0  0  0  0  0  0  0  0
    7.6020   -2.0080   21.4020 C   0  0  0  0  0  0  0  0  0  0  0  0
    8.7280   -2.4520   21.7130 N   0  0  0  0  0  0  0  0  0  0  0  0
    9.4490   -1.3760   22.0850 C   0  0  0  0  0  0  0  0  0  0  0  0
    9.3630   -0.0460   21.8260 O   0  0  0  0  0  0  0  0  0  0  0  0
   10.4800   -1.6390   22.8750 C   0  0  0  0  0  0  0  0  0  0  0  0
   11.5430   -0.7770   22.7730 C   0  0  0  0  0  0  0  0  0  0  0  0
   12.5860   -1.0840   23.5830 C   0  0  0  0  0  0  0  0  0  0  0  0
   13.6330   -0.3030   23.5470 F   0  0  0  0  0  0  0  0  0  0  0  0
   12.4930   -2.3180   24.4910 C   0  0  0  0  0  0  0  0  0  0  0  0
   13.8950   -2.6280   25.5030 Cl  0  0  0  0  0  0  0  0  0  0  0  0
   11.3980   -3.1020   24.5080 C   0  0  0  0  0  0  0  0  0  0  0  0
   10.3560   -2.7340   23.6830 C   0  0  0  0  0  0  0  0  0  0  0  0
    9.0970   -3.4990   23.6430 N   0  0  0  0  0  0  0  0  0  0  0  0
    7.9850   -2.9360   24.2880 C   0  0  0  0  0  0  0  0  0  0  0  0
    6.8890   -3.7740   24.5350 C   0  0  0  0  0  0  0  0  0  0  0  0
    5.7420   -3.2900   25.1650 C   0  0  0  0  0  0  0  0  0  0  0  0
    5.6780   -1.9550   25.5520 C   0  0  0  0  0  0  0  0  0  0  0  0
    6.7550   -1.1060   25.3070 C   0  0  0  0  0  0  0  0  0  0  0  0
    7.9180   -1.6050   24.6680 C   0  0  0  0  0  0  0  0  0  0  0  0
    8.6330   -3.6330   22.4410 C   0  0  0  0  0  0  0  0  0  0  0  0
    8.1230   -4.6910   22.0400 O   0  0  0  0  0  0  0  0  0  0  0  0
    7.4320   -0.7410   20.8760 C   0  0  0  0  0  0  0  0  0  0  0  0
  1  2  1  0
  2  3  2  0
  3  4  1  0
  4  5  2  0
  5  6  1  0
  6  7  1  0
  7  8  1  0
  8  9  2  0
  8 10  1  0
 10 11  2  0
 11 12  1  0
 12 13  1  0
 12 14  2  0
 14 15  1  0
 14 16  1  0
 10 17  1  0
 16 17  2  0
 17 18  1  0
 18 19  1  0
 19 20  2  0
 20 21  1  0
 21 22  2  0
 22 23  1  0
 19 24  1  0
 23 24  2  0
  7 25  1  0
 18 25  1  0
 25 26  2  0
  2 27  1  0
  6 27  2  0
M  END
