MAK-UNK-0955449e-18
     RDKit          3D

 22 24  0  0  0  0  0  0  0  0999 V2000
    5.3810   -2.2060   18.9480 C   0  0  0  0  0  0  0  0  0  0  0  0
    6.1310   -2.4850   20.1130 N   0  0  0  0  0  0  0  0  0  0  0  0
    5.9050   -3.6260   20.8600 C   0  0  0  0  0  0  0  0  0  0  0  0
    6.9430   -3.6640   21.9610 C   0  0  0  0  0  0  0  0  0  0  0  0
    8.0790   -3.0750   22.1100 C   0  0  0  0  0  0  0  0  0  0  0  0
    7.7500   -4.0790   23.4880 C   0  0  0  0  0  0  0  0  0  0  0  0
    6.5880   -4.9880   23.8750 C   0  0  0  0  0  0  0  0  0  0  0  0
    5.9970   -4.4650   25.2020 C   0  0  0  0  0  0  0  0  0  0  0  0
    4.8190   -5.2440   25.7100 C   0  0  0  0  0  0  0  0  0  0  0  0
    4.2840   -6.4390   24.9520 C   0  0  0  0  0  0  0  0  0  0  0  0
    4.9270   -6.7850   23.7730 C   0  0  0  0  0  0  0  0  0  0  0  0
    6.0510   -6.0950   23.2300 C   0  0  0  0  0  0  0  0  0  0  0  0
    6.5930   -6.5180   22.0830 F   0  0  0  0  0  0  0  0  0  0  0  0
    8.7620   -3.5860   23.7180 N   0  0  0  0  0  0  0  0  0  0  0  0
    9.6050   -2.5970   22.9730 C   0  0  0  0  0  0  0  0  0  0  0  0
   10.8230   -2.3110   23.5510 C   0  0  0  0  0  0  0  0  0  0  0  0
   11.5210   -1.1230   23.3630 C   0  0  0  0  0  0  0  0  0  0  0  0
   12.7690   -0.7950   23.9250 C   0  0  0  0  0  0  0  0  0  0  0  0
   13.3710   -1.8940   24.8220 C   0  0  0  0  0  0  0  0  0  0  0  0
   12.6200   -3.1470   25.0160 C   0  0  0  0  0  0  0  0  0  0  0  0
   11.3710   -3.2840   24.3650 C   0  0  0  0  0  0  0  0  0  0  0  0
    7.3880   -4.0820   23.1060 C   0  0  0  0  0  0  0  0  0  0  0  0
  1  2  1  0
  2  3  1  0
  3  4  1  0
  4  5  1  0
  5  6  2  0
  6  7  1  0
  7  8  2  0
  8  9  1  0
  9 10  2  0
 10 11  1  0
  7 12  1  0
 11 12  2  0
 12 13  1  0
  6 14  1  0
 14 15  1  0
 15 16  1  0
 16 17  2  0
 17 18  1  0
 18 19  2  0
 19 20  1  0
 16 21  1  0
 20 21  2  0
  4 22  2  0
 14 22  1  0
M  END
