MAK-UNK-198e6d85-3
     RDKit          3D

 23 25  0  0  0  0  0  0  0  0999 V2000
   12.8250   -1.5680   22.2720 N   0  0  0  0  0  0  0  0  0  0  0  0
   12.1870   -2.7010   22.9810 C   0  0  0  0  0  0  0  0  0  0  0  0
   11.3220   -2.2690   24.1700 C   0  0  2  0  0  0  0  0  0  0  0  0
   10.2250   -3.0200   24.4810 O   0  0  0  0  0  0  0  0  0  0  0  0
    8.9030   -2.6660   24.1550 C   0  0  2  0  0  0  0  0  0  0  0  0
    7.8700   -3.4470   23.5300 C   0  0  1  0  0  0  0  0  0  0  0  0
    7.7520   -3.4190   22.1290 C   0  0  0  0  0  0  0  0  0  0  0  0
    6.7010   -4.3150   21.5110 C   0  0  2  0  0  0  0  0  0  0  0  0
    6.0920   -3.7260   20.6220 O   0  0  0  0  0  0  0  0  0  0  0  0
    5.7500   -4.8660   22.5210 C   0  0  1  0  0  0  0  0  0  0  0  0
    4.6900   -5.5930   21.9030 O   0  0  0  0  0  0  0  0  0  0  0  0
    6.7190   -5.6990   23.3530 C   0  0  0  0  0  0  0  0  0  0  0  0
    7.5760   -4.7010   24.1280 C   0  0  2  0  0  0  0  0  0  0  0  0
    6.7300   -4.3700   25.2330 O   0  0  0  0  0  0  0  0  0  0  0  0
    9.4310   -1.6580   23.2970 C   0  0  0  0  0  0  0  0  0  0  0  0
   10.6880   -1.7810   23.8190 C   0  0  0  0  0  0  0  0  0  0  0  0
   11.4500   -0.7500   23.7780 C   0  0  0  0  0  0  0  0  0  0  0  0
   12.7400   -0.5920   24.1980 C   0  0  0  0  0  0  0  0  0  0  0  0
   13.3620   -1.7270   24.8170 C   0  0  0  0  0  0  0  0  0  0  0  0
   12.6430   -2.8170   24.9380 C   0  0  0  0  0  0  0  0  0  0  0  0
   13.3140   -3.8110   25.5590 O   0  0  0  0  0  0  0  0  0  0  0  0
   11.3100   -2.8920   24.4570 C   0  0  0  0  0  0  0  0  0  0  0  0
   10.6760   -4.0830   24.6570 O   0  0  0  0  0  0  0  0  0  0  0  0
  1  2  1  0
  3  2  1  6
  3  4  1  0
  4  5  1  0
  5  6  1  0
  6  7  1  6
  7  8  1  0
  8  9  1  6
  8 10  1  0
 10 11  1  6
 10 12  1  0
  6 13  1  0
 12 13  1  0
 13 14  1  1
  5 15  1  6
 15 16  1  0
  3 17  1  0
 16 17  2  0
 17 18  1  0
 18 19  2  0
 19 20  1  0
 20 21  1  0
 16 22  1  0
 20 22  2  0
 22 23  1  0
M  END
