MAK-UNK-1bb0b7ee-4
     RDKit          3D

 27 30  0  0  0  0  0  0  0  0999 V2000
    4.3390   -5.0850   22.4840 C   0  0  0  0  0  0  0  0  0  0  0  0
    5.1470   -4.3500   23.3120 C   0  0  2  0  0  0  0  0  0  0  0  0
    4.6220   -4.2920   24.5980 C   0  0  1  0  0  0  0  0  0  0  0  0
    4.2860   -5.5970   25.0940 O   0  0  0  0  0  0  0  0  0  0  0  0
    4.4330   -5.8160   26.5030 C   0  0  0  0  0  0  0  0  0  0  0  0
    3.2170   -5.8880   27.0610 C   0  0  0  0  0  0  0  0  0  0  0  0
    2.2720   -4.7810   26.8920 C   0  0  0  0  0  0  0  0  0  0  0  0
    1.5510   -4.5510   25.7230 C   0  0  0  0  0  0  0  0  0  0  0  0
    0.6650   -3.4980   25.5910 C   0  0  0  0  0  0  0  0  0  0  0  0
    0.4690   -2.6160   26.6610 C   0  0  0  0  0  0  0  0  0  0  0  0
    1.1930   -2.8360   27.8560 C   0  0  0  0  0  0  0  0  0  0  0  0
    2.0740   -3.8600   28.0280 N   0  0  0  0  0  0  0  0  0  0  0  0
    3.3950   -6.1970   28.5860 C   0  0  0  0  0  0  0  0  0  0  0  0
    2.5320   -7.2600   28.8060 C   0  0  0  0  0  0  0  0  0  0  0  0
    1.9370   -7.7340   27.6480 C   0  0  0  0  0  0  0  0  0  0  0  0
    2.5250   -7.1810   26.5020 C   0  0  0  0  0  0  0  0  0  0  0  0
    5.6210   -3.6020   25.5170 C   0  0  0  0  0  0  0  0  0  0  0  0
    6.7570   -3.2880   24.8110 C   0  0  0  0  0  0  0  0  0  0  0  0
    6.6110   -2.4990   23.7120 C   0  0  0  0  0  0  0  0  0  0  0  0
    5.6500   -3.0050   22.7440 N   0  0  0  0  0  0  0  0  0  0  0  0
    6.4450   -3.1650   21.5430 C   0  0  0  0  0  0  0  0  0  0  0  0
    6.5590   -4.4370   21.7910 C   0  0  0  0  0  0  0  0  0  0  0  0
    7.4580   -4.9160   22.7220 C   0  0  0  0  0  0  0  0  0  0  0  0
    7.4740   -6.2570   22.9930 C   0  0  0  0  0  0  0  0  0  0  0  0
    6.6040   -7.0960   22.3410 C   0  0  0  0  0  0  0  0  0  0  0  0
    5.6980   -6.6180   21.3860 C   0  0  0  0  0  0  0  0  0  0  0  0
    5.7090   -5.2000   21.1120 C   0  0  0  0  0  0  0  0  0  0  0  0
  2  1  1  6
  2  3  1  0
  3  4  1  1
  4  5  1  0
  6  5  1  0
  6  7  1  0
  7  8  2  0
  8  9  1  0
  9 10  2  0
 10 11  1  0
  7 12  1  0
 11 12  2  0
  6 13  1  0
 13 14  1  0
 14 15  1  0
  6 16  1  0
 15 16  1  0
  3 17  1  0
 17 18  1  0
 18 19  1  0
  2 20  1  0
 19 20  1  0
 20 21  1  0
 21 22  1  0
 22 23  2  0
 23 24  1  0
 24 25  2  0
 25 26  1  0
 22 27  1  0
 26 27  2  0
M  END
