MAK-UNK-9a6be56d-17
     RDKit          3D

 38 42  0  0  0  0  0  0  0  0999 V2000
   -0.0200    2.0680   26.4990 C   0  0  0  0  0  0  0  0  0  0  0  0
    1.0820    1.9960   27.2800 N   0  0  0  0  0  0  0  0  0  0  0  0
    2.2040    2.3020   26.5740 C   0  0  0  0  0  0  0  0  0  0  0  0
    3.2130    1.3770   26.9310 C   0  0  0  0  0  0  0  0  0  0  0  0
    4.0640    1.4570   28.1130 C   0  0  0  0  0  0  0  0  0  0  0  0
    5.0110    0.3490   28.1980 C   0  0  0  0  0  0  0  0  0  0  0  0
    5.9070    0.2800   29.2810 C   0  0  0  0  0  0  0  0  0  0  0  0
    7.0860   -0.4710   29.1840 C   0  0  0  0  0  0  0  0  0  0  0  0
    8.0350   -0.5910   30.1920 C   0  0  0  0  0  0  0  0  0  0  0  0
    7.8280    0.0670   31.3970 C   0  0  0  0  0  0  0  0  0  0  0  0
    6.5380    0.8950   31.5360 C   0  0  0  0  0  0  0  0  0  0  0  0
    5.6410    0.9680   30.4900 C   0  0  0  0  0  0  0  0  0  0  0  0
    4.5290    1.7020   30.6500 F   0  0  0  0  0  0  0  0  0  0  0  0
    4.7530   -0.3910   27.1040 N   0  0  0  0  0  0  0  0  0  0  0  0
    5.5350   -1.8300   26.6300 S   0  0  0  0  0  0  0  0  0  0  0  0
    5.8810   -2.5320   27.8530 O   0  0  0  0  0  0  0  0  0  0  0  0
    4.6660   -2.4280   25.6360 O   0  0  0  0  0  0  0  0  0  0  0  0
    7.0350   -1.3250   25.8840 C   0  0  0  0  0  0  0  0  0  0  0  0
    7.8090   -0.2800   26.3780 C   0  0  0  0  0  0  0  0  0  0  0  0
    8.9900    0.0660   25.7640 C   0  0  0  0  0  0  0  0  0  0  0  0
    9.4410   -0.6090   24.6410 C   0  0  0  0  0  0  0  0  0  0  0  0
   10.6010   -0.2810   24.0500 N   0  0  0  0  0  0  0  0  0  0  0  0
   11.3550   -1.5150   23.7130 C   0  0  0  0  0  0  0  0  0  0  0  0
   12.3560   -1.2550   22.7820 C   0  0  0  0  0  0  0  0  0  0  0  0
   13.1520   -0.1220   23.0580 C   0  0  0  0  0  0  0  0  0  0  0  0
   12.4180    1.0550   23.2020 C   0  0  0  0  0  0  0  0  0  0  0  0
   12.9910    2.2570   22.8510 C   0  0  0  0  0  0  0  0  0  0  0  0
   12.2810    3.4600   22.9670 C   0  0  0  0  0  0  0  0  0  0  0  0
   10.9840    3.3960   23.4610 C   0  0  0  0  0  0  0  0  0  0  0  0
   10.0700    4.9210   23.6180 S   0  0  0  0  0  0  0  0  0  0  0  0
   11.1890    6.0390   23.0430 N   0  0  0  0  0  0  0  0  0  0  0  0
    9.8200    5.2590   24.9910 O   0  0  0  0  0  0  0  0  0  0  0  0
    8.9890    4.9170   22.6720 O   0  0  0  0  0  0  0  0  0  0  0  0
   10.4100    2.1700   23.8260 C   0  0  0  0  0  0  0  0  0  0  0  0
   11.1250    0.9830   23.6990 C   0  0  0  0  0  0  0  0  0  0  0  0
    8.6800   -1.6290   24.1400 N   0  0  0  0  0  0  0  0  0  0  0  0
    7.5090   -1.9700   24.7550 C   0  0  0  0  0  0  0  0  0  0  0  0
    3.6990    0.1860   26.3360 C   0  0  0  0  0  0  0  0  0  0  0  0
  1  2  1  0
  2  3  1  0
  3  4  1  0
  4  5  1  0
  5  6  2  0
  6  7  1  0
  7  8  2  0
  8  9  1  0
  9 10  2  0
 10 11  1  0
  7 12  1  0
 11 12  2  0
 12 13  1  0
  6 14  1  0
 14 15  1  0
 15 16  2  0
 15 17  2  0
 15 18  1  0
 18 19  2  0
 19 20  1  0
 20 21  2  0
 21 22  1  0
 22 23  1  0
 23 24  1  0
 24 25  1  0
 25 26  1  0
 26 27  2  0
 27 28  1  0
 28 29  2  0
 29 30  1  0
 30 31  1  0
 30 32  2  0
 30 33  2  0
 29 34  1  0
 22 35  1  0
 26 35  1  0
 34 35  2  0
 21 36  1  0
 18 37  1  0
 36 37  2  0
  4 38  2  0
 14 38  1  0
M  END
