MAK-UNK-de9577cf-21
     RDKit          3D

 37 40  0  0  0  0  0  0  0  0999 V2000
    5.6490   -2.6230   28.9750 C   0  0  0  0  0  0  0  0  0  0  0  0
    6.7610   -3.2890   28.4920 N   0  0  0  0  0  0  0  0  0  0  0  0
    7.8760   -2.3670   28.3060 C   0  0  0  0  0  0  0  0  0  0  0  0
    8.0960   -2.2470   26.7890 C   0  0  0  0  0  0  0  0  0  0  0  0
    7.5320   -3.1590   25.9530 C   0  0  0  0  0  0  0  0  0  0  0  0
    7.7460   -2.9950   24.6180 C   0  0  0  0  0  0  0  0  0  0  0  0
    7.2030   -3.8500   23.6470 C   0  0  0  0  0  0  0  0  0  0  0  0
    7.4840   -5.2190   23.6460 C   0  0  0  0  0  0  0  0  0  0  0  0
    6.9370   -6.0960   22.6890 C   0  0  0  0  0  0  0  0  0  0  0  0
    6.0140   -5.6080   21.6110 C   0  0  0  0  0  0  0  0  0  0  0  0
    5.7910   -4.2370   21.6900 C   0  0  0  0  0  0  0  0  0  0  0  0
    6.3390   -3.3660   22.6440 C   0  0  0  0  0  0  0  0  0  0  0  0
    6.0210   -2.0650   22.5870 F   0  0  0  0  0  0  0  0  0  0  0  0
    8.5560   -1.8340   24.6140 N   0  0  0  0  0  0  0  0  0  0  0  0
    9.2050   -0.9810   23.2770 S   0  0  0  0  0  0  0  0  0  0  0  0
    9.2800    0.3700   23.7790 O   0  0  0  0  0  0  0  0  0  0  0  0
    8.2860   -1.2960   22.2060 O   0  0  0  0  0  0  0  0  0  0  0  0
   10.7880   -1.4320   22.6250 C   0  0  0  0  0  0  0  0  0  0  0  0
   10.7750   -2.1890   21.5210 C   0  0  0  0  0  0  0  0  0  0  0  0
   11.9360   -2.5640   20.8780 C   0  0  0  0  0  0  0  0  0  0  0  0
   13.1770   -2.2790   21.2200 C   0  0  0  0  0  0  0  0  0  0  0  0
   13.3540   -1.4980   22.3960 N   0  0  0  0  0  0  0  0  0  0  0  0
   12.1020   -1.1190   23.0270 C   0  0  0  0  0  0  0  0  0  0  0  0
   12.3970   -0.4710   23.9510 O   0  0  0  0  0  0  0  0  0  0  0  0
   12.9090    0.5390   23.2930 C   0  0  0  0  0  0  0  0  0  0  0  0
   13.9150    0.6340   22.6270 O   0  0  0  0  0  0  0  0  0  0  0  0
   11.9690    1.5540   23.5140 C   0  0  0  0  0  0  0  0  0  0  0  0
   10.8830    1.8760   23.9310 C   0  0  0  0  0  0  0  0  0  0  0  0
   10.3140    3.1300   23.9720 C   0  0  0  0  0  0  0  0  0  0  0  0
   10.9300    4.2570   23.5250 C   0  0  0  0  0  0  0  0  0  0  0  0
   10.1060    5.7990   23.6760 S   0  0  0  0  0  0  0  0  0  0  0  0
    8.7950    5.5660   22.6520 N   0  0  0  0  0  0  0  0  0  0  0  0
   10.9450    6.8070   23.0820 O   0  0  0  0  0  0  0  0  0  0  0  0
    9.6230    5.8900   25.0350 O   0  0  0  0  0  0  0  0  0  0  0  0
   12.1650    4.0800   22.9960 C   0  0  0  0  0  0  0  0  0  0  0  0
   12.6800    2.6530   23.0050 C   0  0  0  0  0  0  0  0  0  0  0  0
    8.7710   -1.3840   25.9340 C   0  0  0  0  0  0  0  0  0  0  0  0
  1  2  1  0
  2  3  1  0
  3  4  1  0
  4  5  1  0
  5  6  2  0
  6  7  1  0
  7  8  2  0
  8  9  1  0
  9 10  2  0
 10 11  1  0
  7 12  1  0
 11 12  2  0
 12 13  1  0
  6 14  1  0
 14 15  1  0
 15 16  2  0
 15 17  2  0
 15 18  1  0
 18 19  2  0
 19 20  1  0
 20 21  2  0
 21 22  1  0
 18 23  1  0
 22 23  2  0
 23 24  1  0
 24 25  1  0
 25 26  2  0
 25 27  1  0
 27 28  2  0
 28 29  1  0
 29 30  2  0
 30 31  1  0
 31 32  1  0
 31 33  2  0
 31 34  2  0
 30 35  1  0
 27 36  1  0
 35 36  2  0
  4 37  2  0
 14 37  1  0
M  END
