MAK-UNK-7264f48c-4
     RDKit          3D

 26 28  0  0  0  0  0  0  0  0999 V2000
    5.2270   -1.1840   23.9280 C   0  0  0  0  0  0  0  0  0  0  0  0
    6.6170   -1.0110   23.3180 C   0  0  0  0  0  0  0  0  0  0  0  0
    7.4450   -0.0050   23.7920 C   0  0  0  0  0  0  0  0  0  0  0  0
    8.7180    0.1570   23.2400 C   0  0  0  0  0  0  0  0  0  0  0  0
    9.2480   -0.5920   22.2560 N   0  0  0  0  0  0  0  0  0  0  0  0
    8.4050   -1.5570   21.8230 C   0  0  0  0  0  0  0  0  0  0  0  0
    7.1100   -1.8250   22.2860 C   0  0  0  0  0  0  0  0  0  0  0  0
    6.3020   -2.8450   21.7660 N   0  0  0  0  0  0  0  0  0  0  0  0
    6.1760   -2.7950   20.3340 C   0  0  0  0  0  0  0  0  0  0  0  0
    6.4340   -1.6190   20.5270 O   0  0  0  0  0  0  0  0  0  0  0  0
    5.9230   -4.1450   20.6610 C   0  0  0  0  0  0  0  0  0  0  0  0
    5.3820   -4.7560   19.7470 O   0  0  0  0  0  0  0  0  0  0  0  0
    6.2180   -4.8590   21.8310 N   0  0  0  0  0  0  0  0  0  0  0  0
    7.1000   -4.4290   22.9220 C   0  0  0  0  0  0  0  0  0  0  0  0
    6.2990   -4.1340   24.0390 C   0  0  0  0  0  0  0  0  0  0  0  0
    5.4250   -5.3000   24.3980 N   0  0  0  0  0  0  0  0  0  0  0  0
    4.5730   -5.2140   25.8560 S   0  0  0  0  0  0  0  0  0  0  0  0
    4.2180   -6.5610   26.2290 O   0  0  0  0  0  0  0  0  0  0  0  0
    5.2920   -4.3360   26.7510 O   0  0  0  0  0  0  0  0  0  0  0  0
    3.0130   -4.5020   25.5940 C   0  0  0  0  0  0  0  0  0  0  0  0
    2.5490   -3.1400   25.7480 C   0  0  0  0  0  0  0  0  0  0  0  0
    1.2440   -2.5720   25.5380 C   0  0  0  0  0  0  0  0  0  0  0  0
    0.3890   -3.9810   25.0490 S   0  0  0  0  0  0  0  0  0  0  0  0
    1.7950   -5.0990   25.1730 C   0  0  0  0  0  0  0  0  0  0  0  0
    4.7060   -5.9480   23.2550 C   0  0  0  0  0  0  0  0  0  0  0  0
    5.5450   -6.1100   22.1570 C   0  0  0  0  0  0  0  0  0  0  0  0
  1  2  1  0
  2  3  2  0
  3  4  1  0
  4  5  2  0
  5  6  1  0
  2  7  1  0
  6  7  2  0
  7  8  1  0
  8  9  1  0
  9 10  2  0
  9 11  1  0
 11 12  2  0
 11 13  1  0
 13 14  1  0
 14 15  1  0
 15 16  1  0
 16 17  1  0
 17 18  2  0
 17 19  2  0
 17 20  1  0
 20 21  1  0
 21 22  2  0
 22 23  1  0
 20 24  2  0
 23 24  1  0
 16 25  1  0
 13 26  1  0
 25 26  1  0
M  END
