MAK-UNK-902cc841-17
     RDKit          3D

 25 27  0  0  0  0  0  0  0  0999 V2000
    6.1100   -1.9040   18.5670 C   0  0  0  0  0  0  0  0  0  0  0  0
    5.8110   -2.7160   19.7620 C   0  0  0  0  0  0  0  0  0  0  0  0
    5.3950   -3.8850   19.6550 O   0  0  0  0  0  0  0  0  0  0  0  0
    6.0590   -2.1050   20.9810 N   0  0  0  0  0  0  0  0  0  0  0  0
    6.2660   -2.9490   22.1450 C   0  0  0  0  0  0  0  0  0  0  0  0
    7.6140   -3.3060   22.2110 C   0  0  0  0  0  0  0  0  0  0  0  0
    8.5710   -2.1670   22.0630 N   0  0  0  0  0  0  0  0  0  0  0  0
    8.9010   -1.6840   23.3560 C   0  0  1  0  0  0  0  0  0  0  0  0
    8.4600   -2.7430   24.2930 C   0  0  0  0  0  0  0  0  0  0  0  0
    9.3410   -3.8550   24.1550 O   0  0  0  0  0  0  0  0  0  0  0  0
    7.2960   -2.5990   25.1120 N   0  0  0  0  0  0  0  0  0  0  0  0
    6.0230   -3.1510   24.9550 C   0  0  0  0  0  0  0  0  0  0  0  0
    5.7890   -4.6420   25.0120 C   0  0  0  0  0  0  0  0  0  0  0  0
    4.5740   -5.2190   24.8720 N   0  0  0  0  0  0  0  0  0  0  0  0
    3.5610   -4.3020   24.6670 C   0  0  0  0  0  0  0  0  0  0  0  0
    3.7240   -2.9660   24.6080 C   0  0  0  0  0  0  0  0  0  0  0  0
    4.9260   -2.2620   24.7390 C   0  0  0  0  0  0  0  0  0  0  0  0
    4.8700   -0.8600   24.6420 C   0  0  0  0  0  0  0  0  0  0  0  0
   10.3680   -1.1490   23.3350 C   0  0  0  0  0  0  0  0  0  0  0  0
   11.5080   -1.9250   23.3190 C   0  0  0  0  0  0  0  0  0  0  0  0
   12.7170   -1.2960   23.2890 C   0  0  0  0  0  0  0  0  0  0  0  0
   12.5070    0.3900   23.2820 S   0  0  0  0  0  0  0  0  0  0  0  0
   10.7840    0.1840   23.3180 C   0  0  0  0  0  0  0  0  0  0  0  0
    8.2650   -1.2040   21.1700 C   0  0  0  0  0  0  0  0  0  0  0  0
    6.8050   -0.8630   21.1070 C   0  0  0  0  0  0  0  0  0  0  0  0
  1  2  1  0
  2  3  2  0
  2  4  1  0
  4  5  1  0
  5  6  1  0
  6  7  1  0
  7  8  1  0
  8  9  1  1
  9 10  2  0
  9 11  1  0
 11 12  1  0
 12 13  2  0
 13 14  1  0
 14 15  2  0
 15 16  1  0
 12 17  1  0
 16 17  2  0
 17 18  1  0
  8 19  1  0
 19 20  1  0
 20 21  2  0
 21 22  1  0
 19 23  2  0
 22 23  1  0
  7 24  1  0
  4 25  1  0
 24 25  1  0
M  END
