MAK-UNK-1cb0e944-6
     RDKit          3D

 21 22  0  0  0  0  0  0  0  0999 V2000
    5.6040    3.8890   25.9740 N   0  0  0  0  0  0  0  0  0  0  0  0
    6.2030    4.5150   24.5350 S   0  0  0  0  0  0  0  0  0  0  0  0
    5.3520    3.9650   23.5030 O   0  0  0  0  0  0  0  0  0  0  0  0
    6.3080    5.9370   24.7600 O   0  0  0  0  0  0  0  0  0  0  0  0
    7.8770    3.7690   24.4110 C   0  0  0  0  0  0  0  0  0  0  0  0
    8.2240    2.9830   23.2010 N   0  0  0  0  0  0  0  0  0  0  0  0
    8.9450    1.7430   23.5120 C   0  0  0  0  0  0  0  0  0  0  0  0
   10.2520    1.7770   23.0190 C   0  0  0  0  0  0  0  0  0  0  0  0
   11.1000    0.4770   22.8550 C   0  0  0  0  0  0  0  0  0  0  0  0
   12.4750    0.5000   22.6210 C   0  0  0  0  0  0  0  0  0  0  0  0
   13.0580   -1.0750   22.4090 S   0  0  0  0  0  0  0  0  0  0  0  0
   11.4810   -1.7110   22.6690 C   0  0  0  0  0  0  0  0  0  0  0  0
   10.6070   -0.8960   22.8940 C   0  0  0  0  0  0  0  0  0  0  0  0
    9.2280   -1.2540   23.1600 C   0  0  0  0  0  0  0  0  0  0  0  0
    8.9800   -2.6580   23.5250 N   0  0  0  0  0  0  0  0  0  0  0  0
    8.4920   -2.8750   24.8970 C   0  0  0  0  0  0  0  0  0  0  0  0
    8.4040   -4.3960   25.1020 C   0  0  0  0  0  0  0  0  0  0  0  0
    7.4560   -5.0610   24.1610 C   0  0  0  0  0  0  0  0  0  0  0  0
    6.2120   -5.2680   24.8260 O   0  0  0  0  0  0  0  0  0  0  0  0
    7.2630   -4.3400   23.0640 C   0  0  0  0  0  0  0  0  0  0  0  0
    8.0460   -3.1960   22.5540 C   0  0  0  0  0  0  0  0  0  0  0  0
  2  1  1  0
  2  3  2  0
  2  4  2  0
  2  5  1  0
  5  6  1  0
  6  7  1  0
  7  8  1  0
  8  9  1  0
  9 10  2  0
 10 11  1  0
 11 12  1  0
  9 13  1  0
 12 13  2  0
 13 14  1  0
 14 15  1  0
 15 16  1  0
 16 17  1  0
 17 18  1  0
 18 19  1  0
 18 20  1  0
 15 21  1  0
 20 21  1  0
M  END
