MAK-UNK-9e4a73aa-19
     RDKit          3D

 26 29  0  0  0  0  0  0  0  0999 V2000
   12.7530   -1.5940   21.9230 O   0  0  0  0  0  0  0  0  0  0  0  0
   11.7710   -1.2590   22.5990 C   0  0  0  0  0  0  0  0  0  0  0  0
   11.4680    0.0930   22.7660 C   0  0  0  0  0  0  0  0  0  0  0  0
   12.3800    1.2070   22.5260 C   0  0  0  0  0  0  0  0  0  0  0  0
   11.8120    2.6590   22.7270 C   0  0  0  0  0  0  0  0  0  0  0  0
   12.5950    3.7240   22.5070 F   0  0  0  0  0  0  0  0  0  0  0  0
   10.4930    2.8260   23.1300 C   0  0  0  0  0  0  0  0  0  0  0  0
    9.8360    4.3960   23.3540 Cl  0  0  0  0  0  0  0  0  0  0  0  0
    9.6890    1.7110   23.3770 C   0  0  0  0  0  0  0  0  0  0  0  0
   10.2060    0.4360   23.2050 C   0  0  0  0  0  0  0  0  0  0  0  0
    9.3960   -0.6610   23.5590 N   0  0  0  0  0  0  0  0  0  0  0  0
    8.3610   -1.1590   22.7920 C   0  0  0  0  0  0  0  0  0  0  0  0
    8.3480   -0.6270   21.3640 C   0  0  0  0  0  0  0  0  0  0  0  0
    7.2810   -1.1020   20.4910 C   0  0  0  0  0  0  0  0  0  0  0  0
    6.4280   -1.9540   21.0460 N   0  0  0  0  0  0  0  0  0  0  0  0
    6.5470   -2.3720   22.3850 C   0  0  0  0  0  0  0  0  0  0  0  0
    7.4620   -2.0970   23.4690 C   0  0  0  0  0  0  0  0  0  0  0  0
   10.3440   -1.4730   24.1360 C   0  0  0  0  0  0  0  0  0  0  0  0
   10.6980   -1.5020   25.2650 O   0  0  0  0  0  0  0  0  0  0  0  0
   10.9200   -2.1700   23.2630 N   0  0  0  0  0  0  0  0  0  0  0  0
    9.8160   -2.8450   22.8820 C   0  0  0  0  0  0  0  0  0  0  0  0
    9.2950   -3.8450   23.8290 C   0  0  0  0  0  0  0  0  0  0  0  0
    8.1500   -4.6230   23.6250 C   0  0  0  0  0  0  0  0  0  0  0  0
    7.4310   -4.4680   22.4730 C   0  0  0  0  0  0  0  0  0  0  0  0
    7.7740   -3.5950   21.5240 N   0  0  0  0  0  0  0  0  0  0  0  0
    8.9850   -2.7560   21.6920 C   0  0  0  0  0  0  0  0  0  0  0  0
  1  2  2  0
  2  3  1  0
  3  4  2  0
  4  5  1  0
  5  6  1  0
  5  7  2  0
  7  8  1  0
  7  9  1  0
  3 10  1  0
  9 10  2  0
 10 11  1  0
 11 12  1  0
 12 13  2  0
 13 14  1  0
 14 15  2  0
 15 16  1  0
 12 17  1  0
 16 17  2  0
 11 18  1  0
 18 19  2  0
  2 20  1  0
 18 20  1  0
 20 21  1  0
 21 22  2  0
 22 23  1  0
 23 24  2  0
 24 25  1  0
 21 26  1  0
 25 26  2  0
M  END
