MAK-UNK-7264f48c-6
     RDKit          3D

 25 27  0  0  0  0  0  0  0  0999 V2000
    7.3550   -1.5720   25.0170 C   0  0  0  0  0  0  0  0  0  0  0  0
    8.3930   -1.6960   23.9210 C   0  0  0  0  0  0  0  0  0  0  0  0
    9.8330   -1.5670   24.2370 C   0  0  0  0  0  0  0  0  0  0  0  0
   10.7940   -1.6790   23.2290 C   0  0  0  0  0  0  0  0  0  0  0  0
   10.3300   -1.9060   21.9530 N   0  0  0  0  0  0  0  0  0  0  0  0
    8.9970   -2.0280   21.6300 C   0  0  0  0  0  0  0  0  0  0  0  0
    8.0250   -1.9300   22.5970 C   0  0  0  0  0  0  0  0  0  0  0  0
    6.7420   -2.0800   22.1370 N   0  0  0  0  0  0  0  0  0  0  0  0
    6.8020   -2.8630   21.0100 C   0  0  0  0  0  0  0  0  0  0  0  0
    6.1350   -4.2320   20.7760 C   0  0  0  0  0  0  0  0  0  0  0  0
    5.4040   -4.4630   19.8170 O   0  0  0  0  0  0  0  0  0  0  0  0
    6.4620   -5.2730   21.7740 N   0  0  0  0  0  0  0  0  0  0  0  0
    7.1060   -4.7180   22.8550 C   0  0  0  0  0  0  0  0  0  0  0  0
    6.2180   -4.2280   23.9530 C   0  0  0  0  0  0  0  0  0  0  0  0
    5.3050   -5.2590   24.3220 N   0  0  0  0  0  0  0  0  0  0  0  0
    4.4930   -5.0870   25.8100 S   0  0  0  0  0  0  0  0  0  0  0  0
    4.0290   -6.4120   26.1460 O   0  0  0  0  0  0  0  0  0  0  0  0
    5.3770   -4.3700   26.7030 O   0  0  0  0  0  0  0  0  0  0  0  0
    3.0570   -4.1940   25.6450 C   0  0  0  0  0  0  0  0  0  0  0  0
    2.0170   -3.9460   25.1580 C   0  0  0  0  0  0  0  0  0  0  0  0
    1.9030   -2.4680   25.6020 C   0  0  0  0  0  0  0  0  0  0  0  0
    0.4550   -2.6660   25.7720 S   0  0  0  0  0  0  0  0  0  0  0  0
    1.9600   -3.5870   26.5060 C   0  0  0  0  0  0  0  0  0  0  0  0
    4.5930   -5.7910   23.2960 C   0  0  0  0  0  0  0  0  0  0  0  0
    5.5120   -6.2990   22.1870 C   0  0  0  0  0  0  0  0  0  0  0  0
  1  2  1  0
  2  3  2  0
  3  4  1  0
  4  5  2  0
  5  6  1  0
  2  7  1  0
  6  7  2  0
  7  8  1  0
  8  9  1  0
  9 10  1  0
 10 11  2  0
 10 12  1  0
 12 13  1  0
 13 14  1  0
 14 15  1  0
 15 16  1  0
 16 17  2  0
 16 18  2  0
 16 19  1  0
 19 20  1  0
 20 21  2  0
 21 22  1  0
 19 23  2  0
 22 23  1  0
 15 24  1  0
 12 25  1  0
 24 25  1  0
M  END
