MAK-UNK-6435e6c2-5
     RDKit          3D

 19 20  0  0  0  0  0  0  0  0999 V2000
    6.0540   -2.8810   20.7320 C   0  0  0  0  0  0  0  0  0  0  0  0
    5.8780   -4.3740   20.7440 C   0  0  0  0  0  0  0  0  0  0  0  0
    5.4550   -4.9780   19.7720 O   0  0  0  0  0  0  0  0  0  0  0  0
    6.2410   -5.0010   21.9060 N   0  0  0  0  0  0  0  0  0  0  0  0
    7.0460   -4.3410   22.9110 C   0  0  0  0  0  0  0  0  0  0  0  0
    6.4450   -4.4750   24.1470 C   0  0  0  0  0  0  0  0  0  0  0  0
    5.0330   -4.6570   24.1840 N   0  0  0  0  0  0  0  0  0  0  0  0
    4.3400   -4.6810   25.7480 S   0  0  0  0  0  0  0  0  0  0  0  0
    3.7140   -5.9790   25.9260 O   0  0  0  0  0  0  0  0  0  0  0  0
    5.3760   -4.2440   26.6650 O   0  0  0  0  0  0  0  0  0  0  0  0
    2.9890   -3.4590   25.6750 C   0  0  0  0  0  0  0  0  0  0  0  0
    1.6880   -3.8880   25.2160 C   0  0  0  0  0  0  0  0  0  0  0  0
    1.7220   -2.7870   25.5060 C   0  0  0  0  0  0  0  0  0  0  0  0
    3.2590   -3.2930   25.7820 C   0  0  0  0  0  0  0  0  0  0  0  0
    4.0770   -2.3470   26.2440 C   0  0  0  0  0  0  0  0  0  0  0  0
    5.3560   -2.1000   26.6500 F   0  0  0  0  0  0  0  0  0  0  0  0
    3.0190   -1.8050   26.0930 C   0  0  0  0  0  0  0  0  0  0  0  0
    4.5370   -5.7420   23.2870 C   0  0  0  0  0  0  0  0  0  0  0  0
    5.4690   -6.1580   22.3350 C   0  0  0  0  0  0  0  0  0  0  0  0
  1  2  1  0
  2  3  2  0
  2  4  1  0
  4  5  1  0
  5  6  1  0
  6  7  1  0
  7  8  1  0
  8  9  2  0
  8 10  2  0
  8 11  1  0
 11 12  2  0
 12 13  1  0
 13 14  2  0
 14 15  1  0
 15 16  1  0
 11 17  1  0
 15 17  2  0
  7 18  1  0
  4 19  1  0
 18 19  1  0
M  END
