MAK-UNK-0d6072ac-17
     RDKit          3D

 20 22  0  0  0  0  0  0  0  0999 V2000
    6.0950   -3.1660   22.0740 C   0  0  0  0  0  0  0  0  0  0  0  0
    7.2340   -3.4450   22.7170 C   0  0  0  0  0  0  0  0  0  0  0  0
    7.8910   -4.7210   23.4410 C   0  0  0  0  0  0  0  0  0  0  0  0
    6.8570   -5.4000   23.1360 C   0  0  0  0  0  0  0  0  0  0  0  0
    5.8780   -6.7840   23.0720 Cl  0  0  0  0  0  0  0  0  0  0  0  0
    6.8730   -4.0960   22.7680 C   0  0  0  0  0  0  0  0  0  0  0  0
    8.4630   -3.8720   23.3960 C   0  0  0  0  0  0  0  0  0  0  0  0
    8.1170   -2.7720   22.9150 C   0  0  0  0  0  0  0  0  0  0  0  0
    8.7000   -1.5740   22.8130 N   0  0  0  0  0  0  0  0  0  0  0  0
    9.8230   -1.7420   23.3270 C   0  0  0  0  0  0  0  0  0  0  0  0
   10.9140   -0.7860   23.4590 C   0  0  0  0  0  0  0  0  0  0  0  0
   12.0730   -1.3550   24.0700 C   0  0  0  0  0  0  0  0  0  0  0  0
   13.1590   -0.7710   24.2050 C   0  0  2  0  0  0  0  0  0  0  0  0
   13.3910   -0.0700   23.0110 C   0  0  0  0  0  0  0  0  0  0  0  0
   13.8190   -1.9820   24.1980 C   0  0  0  0  0  0  0  0  0  0  0  0
   13.9950   -2.6620   23.0430 O   0  0  0  0  0  0  0  0  0  0  0  0
   14.1740   -2.4510   25.2800 O   0  0  0  0  0  0  0  0  0  0  0  0
   12.1590   -2.6180   24.5300 C   0  0  0  0  0  0  0  0  0  0  0  0
   11.0050   -3.4800   24.3540 C   0  0  0  0  0  0  0  0  0  0  0  0
    9.7970   -3.1080   23.7400 C   0  0  0  0  0  0  0  0  0  0  0  0
  1  2  1  0
  2  3  2  0
  3  4  1  0
  4  5  1  0
  4  6  2  0
  6  7  1  0
  2  8  1  0
  7  8  2  0
  8  9  1  0
  9 10  1  0
 10 11  1  0
 11 12  2  0
 12 13  1  0
 13 14  1  6
 13 15  1  0
 15 16  2  0
 15 17  1  0
 12 18  1  0
 18 19  2  0
  7 20  1  0
 10 20  2  0
 19 20  1  0
M  END
