MAK-UNK-9955b1f3-2
     RDKit          3D

 12 12  0  0  0  0  0  0  0  0999 V2000
    4.0220   -2.0620   24.5660 C   0  0  0  0  0  0  0  0  0  0  0  0
    5.0340   -1.5230   23.6210 C   0  0  0  0  0  0  0  0  0  0  0  0
    6.3530   -1.7530   23.7190 C   0  0  0  0  0  0  0  0  0  0  0  0
    6.7950   -2.1690   25.0650 N   0  0  0  0  0  0  0  0  0  0  0  0
    8.2000   -2.6420   25.0660 C   0  0  0  0  0  0  0  0  0  0  0  0
    8.6580   -3.8610   25.7750 N   0  0  0  0  0  0  0  0  0  0  0  0
    9.1160   -4.9190   24.8950 C   0  0  0  0  0  0  0  0  0  0  0  0
    8.0520   -5.2830   23.8410 C   0  0  0  0  0  0  0  0  0  0  0  0
    6.6240   -5.1710   24.4000 C   0  0  0  0  0  0  0  0  0  0  0  0
    6.5490   -5.6620   25.5150 O   0  0  0  0  0  0  0  0  0  0  0  0
    6.5420   -4.7270   26.5930 C   0  0  0  0  0  0  0  0  0  0  0  0
    7.8290   -4.2740   26.9040 C   0  0  0  0  0  0  0  0  0  0  0  0
  1  2  1  0
  2  3  1  0
  3  4  1  0
  4  5  1  0
  5  6  1  0
  6  7  1  0
  7  8  1  0
  8  9  1  0
  9 10  1  0
 10 11  1  0
  6 12  1  0
 11 12  1  0
M  END
