MAK-UNK-f2409524-25
     RDKit          3D

 26 29  0  0  0  0  0  0  0  0999 V2000
    9.8070   -0.6820   22.5480 C   0  0  0  0  0  0  0  0  0  0  0  0
    8.8750    0.0580   21.5760 C   0  0  0  0  0  0  0  0  0  0  0  0
    9.1170    1.2440   21.2660 O   0  0  0  0  0  0  0  0  0  0  0  0
    7.7670   -0.6500   21.0880 N   0  0  0  0  0  0  0  0  0  0  0  0
    6.7800   -0.0560   20.1910 C   0  0  0  0  0  0  0  0  0  0  0  0
    7.0320   -0.2370   18.8350 C   0  0  0  0  0  0  0  0  0  0  0  0
    6.1610    0.3070   17.7760 N   0  0  0  0  0  0  0  0  0  0  0  0
    4.9900    1.0580   18.2630 C   0  0  0  0  0  0  0  0  0  0  0  0
    4.8120    1.1780   19.6250 C   0  0  0  0  0  0  0  0  0  0  0  0
    5.6430    0.6620   20.6110 C   0  0  0  0  0  0  0  0  0  0  0  0
    5.2900    0.9020   21.9280 C   0  0  0  0  0  0  0  0  0  0  0  0
    4.9000    1.6990   23.0020 C   0  0  0  0  0  0  0  0  0  0  0  0
    4.6290    3.0550   22.7870 C   0  0  2  0  0  0  0  0  0  0  0  0
    5.8320    3.6950   22.4320 N   0  0  0  0  0  0  0  0  0  0  0  0
    6.1300    4.8550   23.1470 C   0  0  0  0  0  0  0  0  0  0  0  0
    5.0000    4.7970   24.0960 C   0  0  0  0  0  0  0  0  0  0  0  0
    4.5400    5.5800   25.2360 C   0  0  0  0  0  0  0  0  0  0  0  0
    3.4320    5.0340   25.7120 N   0  0  0  0  0  0  0  0  0  0  0  0
    2.7450    5.5180   26.7750 C   0  0  0  0  0  0  0  0  0  0  0  0
    2.2010    6.7260   26.3380 C   0  0  0  0  0  0  0  0  0  0  0  0
    1.5860    7.4050   27.3910 C   0  0  0  0  0  0  0  0  0  0  0  0
    2.4680    7.7240   28.4090 C   0  0  0  0  0  0  0  0  0  0  0  0
    3.1520    6.4980   29.0140 C   0  0  0  0  0  0  0  0  0  0  0  0
    3.6140    5.6030   27.8670 C   0  0  0  0  0  0  0  0  0  0  0  0
    3.1080    3.8860   24.9280 N   0  0  0  0  0  0  0  0  0  0  0  0
    4.1310    3.8290   23.9610 C   0  0  0  0  0  0  0  0  0  0  0  0
  1  2  1  0
  2  3  2  0
  2  4  1  0
  4  5  1  0
  5  6  2  0
  6  7  1  0
  7  8  2  0
  8  9  1  0
  5 10  1  0
  9 10  2  0
 10 11  1  0
 11 12  1  0
 13 12  1  1
 13 14  1  0
 14 15  1  0
 15 16  1  0
 16 17  2  0
 17 18  1  0
 18 19  1  0
 19 20  1  0
 20 21  1  0
 21 22  1  0
 22 23  1  0
 19 24  1  0
 23 24  1  0
 18 25  1  0
 13 26  1  0
 16 26  1  0
 25 26  2  0
M  END
