MAK-UNK-1cb0e944-12
     RDKit          3D

 22 23  0  0  0  0  0  0  0  0999 V2000
   11.7760   -3.1840   24.6590 N   0  0  0  0  0  0  0  0  0  0  0  0
   13.0440   -2.1210   24.6750 S   0  0  0  0  0  0  0  0  0  0  0  0
   14.1610   -2.8990   25.1350 O   0  0  0  0  0  0  0  0  0  0  0  0
   12.5860   -0.9350   25.3540 O   0  0  0  0  0  0  0  0  0  0  0  0
   13.0850   -1.7810   22.9460 C   0  0  0  0  0  0  0  0  0  0  0  0
   12.6630   -0.3850   22.6910 C   0  0  0  0  0  0  0  0  0  0  0  0
   11.2350   -0.2320   22.4340 N   0  0  0  0  0  0  0  0  0  0  0  0
   10.4600   -1.2180   21.8280 C   0  0  0  0  0  0  0  0  0  0  0  0
   10.9430   -2.2670   21.4290 O   0  0  0  0  0  0  0  0  0  0  0  0
    8.9580   -0.8600   21.7360 C   0  0  0  0  0  0  0  0  0  0  0  0
    8.0060   -0.7980   20.6390 C   0  0  0  0  0  0  0  0  0  0  0  0
    6.4260   -0.3260   21.0710 S   0  0  0  0  0  0  0  0  0  0  0  0
    6.8940   -0.1900   22.7050 C   0  0  0  0  0  0  0  0  0  0  0  0
    8.2340   -0.4990   22.9080 C   0  0  0  0  0  0  0  0  0  0  0  0
    8.7670   -0.4360   24.3160 C   0  0  0  0  0  0  0  0  0  0  0  0
    8.4300   -1.6310   24.8710 N   0  0  0  0  0  0  0  0  0  0  0  0
    8.8460   -2.7060   24.0620 C   0  0  0  0  0  0  0  0  0  0  0  0
    8.0130   -3.8280   24.0520 C   0  0  0  0  0  0  0  0  0  0  0  0
    6.8160   -3.6890   24.8680 C   0  0  0  0  0  0  0  0  0  0  0  0
    6.8960   -3.5430   26.3040 O   0  0  0  0  0  0  0  0  0  0  0  0
    6.1670   -2.4680   24.6000 C   0  0  0  0  0  0  0  0  0  0  0  0
    7.0120   -1.5270   25.2690 C   0  0  0  0  0  0  0  0  0  0  0  0
  2  1  1  0
  2  3  2  0
  2  4  2  0
  2  5  1  0
  5  6  1  0
  6  7  1  0
  7  8  1  0
  8  9  2  0
  8 10  1  0
 10 11  2  0
 11 12  1  0
 12 13  1  0
 10 14  1  0
 13 14  2  0
 14 15  1  0
 15 16  1  0
 16 17  1  0
 17 18  1  0
 18 19  1  0
 19 20  1  0
 19 21  1  0
 16 22  1  0
 21 22  1  0
M  END
