MAK-UNK-902cc841-16
     RDKit          3D

 25 27  0  0  0  0  0  0  0  0999 V2000
   14.2560   -2.6760   26.0010 C   0  0  0  0  0  0  0  0  0  0  0  0
   13.3540   -2.1420   24.9550 C   0  0  0  0  0  0  0  0  0  0  0  0
   13.3230   -0.9340   24.8120 O   0  0  0  0  0  0  0  0  0  0  0  0
   12.5370   -2.9600   24.2360 N   0  0  0  0  0  0  0  0  0  0  0  0
   11.2950   -2.3080   24.0240 C   0  0  0  0  0  0  0  0  0  0  0  0
   12.5070   -1.6440   23.6100 C   0  0  0  0  0  0  0  0  0  0  0  0
   12.8500   -0.3440   22.9840 N   0  0  0  0  0  0  0  0  0  0  0  0
   11.7150    0.4610   22.7270 C   0  0  0  0  0  0  0  0  0  0  0  0
   10.5450   -0.1140   23.0770 C   0  0  0  0  0  0  0  0  0  0  0  0
   10.3180   -1.3540   23.6570 C   0  0  0  0  0  0  0  0  0  0  0  0
    8.9810   -1.6570   23.8990 C   0  0  1  0  0  0  0  0  0  0  0  0
    7.6750   -1.3640   24.3020 C   0  0  0  0  0  0  0  0  0  0  0  0
    6.9990   -0.1920   23.9210 C   0  0  0  0  0  0  0  0  0  0  0  0
    5.7040   -0.0240   24.3840 C   0  0  0  0  0  0  0  0  0  0  0  0
    5.3840   -1.2430   25.2250 C   0  0  0  0  0  0  0  0  0  0  0  0
    6.7270   -2.4050   25.3130 S   0  0  0  0  0  0  0  0  0  0  0  0
    8.5850   -2.3010   22.7610 N   0  0  0  0  0  0  0  0  0  0  0  0
    7.6520   -3.2900   22.6900 C   0  0  0  0  0  0  0  0  0  0  0  0
    6.3660   -2.9020   22.3140 C   0  0  0  0  0  0  0  0  0  0  0  0
    6.4140   -2.1970   21.0330 N   0  0  0  0  0  0  0  0  0  0  0  0
    5.8870   -2.7560   19.7490 C   0  0  0  0  0  0  0  0  0  0  0  0
    6.0790   -1.9160   18.6450 C   0  0  0  0  0  0  0  0  0  0  0  0
    5.3540   -3.8780   19.6490 O   0  0  0  0  0  0  0  0  0  0  0  0
    7.5020   -1.2030   20.9550 C   0  0  0  0  0  0  0  0  0  0  0  0
    8.7970   -1.7470   21.5530 C   0  0  0  0  0  0  0  0  0  0  0  0
  1  2  1  0
  2  3  2  0
  2  4  1  0
  4  5  1  0
  5  6  2  0
  6  7  1  0
  7  8  2  0
  8  9  1  0
  5 10  1  0
  9 10  2  0
 11 10  1  6
 11 12  1  0
 12 13  2  0
 13 14  1  0
 14 15  2  0
 12 16  1  0
 15 16  1  0
 11 17  1  0
 17 18  1  0
 18 19  1  0
 19 20  1  0
 20 21  1  0
 21 22  1  0
 21 23  2  0
 20 24  1  0
 17 25  1  0
 24 25  1  0
M  END
