MAK-UNK-194150d3-13
     RDKit          3D

 18 19  0  0  0  0  0  0  0  0999 V2000
    5.5670    0.5510   20.0220 C   0  0  0  0  0  0  0  0  0  0  0  0
    4.0920    0.8060   19.8230 C   0  0  0  0  0  0  0  0  0  0  0  0
    3.3820    1.7960   20.7100 C   0  0  0  0  0  0  0  0  0  0  0  0
    4.2440    2.5220   21.7050 C   0  0  0  0  0  0  0  0  0  0  0  0
    3.6150    3.4270   22.5230 N   0  0  0  0  0  0  0  0  0  0  0  0
    2.1930    3.6300   22.3880 C   0  0  0  0  0  0  0  0  0  0  0  0
    1.3830    2.9610   21.4660 N   0  0  0  0  0  0  0  0  0  0  0  0
    2.0210    2.0720   20.6680 C   0  0  0  0  0  0  0  0  0  0  0  0
    7.0070    0.2880   20.1500 C   0  0  0  0  0  0  0  0  0  0  0  0
    7.3550   -0.1490   21.5010 N   0  0  0  0  0  0  0  0  0  0  0  0
    8.8100   -0.1860   21.7070 C   0  0  0  0  0  0  0  0  0  0  0  0
    9.1280   -0.6530   22.9900 C   0  0  0  0  0  0  0  0  0  0  0  0
   10.4640   -1.0520   23.1230 C   0  0  0  0  0  0  0  0  0  0  0  0
   11.2610   -1.2710   22.0220 C   0  0  0  0  0  0  0  0  0  0  0  0
   12.6960   -1.6910   22.1730 C   0  0  0  0  0  0  0  0  0  0  0  0
   13.2620   -1.8720   23.4370 C   0  0  0  0  0  0  0  0  0  0  0  0
   12.5410   -1.6820   24.5960 C   0  0  0  0  0  0  0  0  0  0  0  0
   11.1030   -1.2700   24.4630 C   0  0  0  0  0  0  0  0  0  0  0  0
  1  2  3  0
  2  3  1  0
  3  4  2  0
  4  5  1  0
  5  6  2  0
  6  7  1  0
  3  8  1  0
  7  8  2  0
  1  9  1  0
  9 10  1  0
 10 11  1  0
 11 12  1  0
 12 13  1  0
 13 14  2  0
 14 15  1  0
 15 16  2  0
 16 17  1  0
 13 18  1  0
 17 18  2  0
M  END
