MAK-UNK-8145c7a0-4
     RDKit          3D

 26 28  0  0  0  0  0  0  0  0999 V2000
    6.8480   -5.4690   24.8640 C   0  0  0  0  0  0  0  0  0  0  0  0
    7.1720   -4.0590   25.0020 C   0  0  0  0  0  0  0  0  0  0  0  0
    6.5530   -3.1640   25.7450 N   0  0  0  0  0  0  0  0  0  0  0  0
    7.1540   -1.9300   25.6450 N   0  0  0  0  0  0  0  0  0  0  0  0
    8.1820   -1.9830   24.8420 C   0  0  0  0  0  0  0  0  0  0  0  0
    9.0760   -0.8620   24.5300 C   0  0  0  0  0  0  0  0  0  0  0  0
   10.2840   -1.3190   23.8140 N   0  0  0  0  0  0  0  0  0  0  0  0
   11.4740   -1.5020   24.6650 C   0  0  0  0  0  0  0  0  0  0  0  0
   12.7460   -0.8050   24.1560 C   0  0  0  0  0  0  0  0  0  0  0  0
   12.9780   -1.2380   22.9700 C   0  0  0  0  0  0  0  0  0  0  0  0
   11.8870   -1.2650   21.9950 C   0  0  0  0  0  0  0  0  0  0  0  0
   12.1640   -1.8260   20.8060 F   0  0  0  0  0  0  0  0  0  0  0  0
   10.5990   -0.6310   22.6180 C   0  0  1  0  0  0  0  0  0  0  0  0
    9.0340    0.0880   21.8060 S   0  0  0  0  0  0  0  0  0  0  0  0
    9.2490    1.3240   21.0760 O   0  0  0  0  0  0  0  0  0  0  0  0
    7.9710    0.1370   22.7830 O   0  0  0  0  0  0  0  0  0  0  0  0
    8.6010   -1.1410   20.7760 N   0  0  0  0  0  0  0  0  0  0  0  0
    8.7770   -2.4420   21.4450 C   0  0  0  0  0  0  0  0  0  0  0  0
    9.2670   -2.3480   22.8320 C   0  0  0  0  0  0  0  0  0  0  0  0
   10.6590   -2.5230   22.9910 C   0  0  0  0  0  0  0  0  0  0  0  0
   11.5470   -2.4610   21.9330 C   0  0  0  0  0  0  0  0  0  0  0  0
   12.9200   -2.6340   22.0730 C   0  0  0  0  0  0  0  0  0  0  0  0
   13.4540   -2.8830   23.3430 C   0  0  0  0  0  0  0  0  0  0  0  0
   12.6890   -2.9720   24.4990 C   0  0  0  0  0  0  0  0  0  0  0  0
   11.1860   -2.7750   24.2600 C   0  0  0  0  0  0  0  0  0  0  0  0
    8.4970   -3.4970   24.1370 S   0  0  0  0  0  0  0  0  0  0  0  0
  1  2  1  0
  2  3  2  0
  3  4  1  0
  4  5  2  0
  5  6  1  0
  6  7  1  0
  7  8  1  0
  8  9  1  0
  9 10  1  0
 10 11  2  0
 11 12  1  0
  7 13  1  0
 11 13  1  0
 13 14  1  6
 14 15  2  0
 14 16  2  0
 14 17  1  0
 17 18  1  0
 18 19  1  0
 19 20  1  0
 20 21  2  0
 21 22  1  0
 22 23  2  0
 23 24  1  0
 20 25  1  0
 24 25  2  0
  2 26  1  0
  5 26  1  0
M  END
