MAK-UNK-b2c98f02-7
     RDKit          3D

 28 30  0  0  0  0  0  0  0  0999 V2000
    9.1720    2.0430   21.3040 O   0  0  0  0  0  0  0  0  0  0  0  0
    8.4730    0.8350   21.4990 C   0  0  0  0  0  0  0  0  0  0  0  0
    9.2850   -0.3650   21.6490 C   0  0  0  0  0  0  0  0  0  0  0  0
    8.6150   -1.5420   21.7710 C   0  0  1  0  0  0  0  0  0  0  0  0
    9.6180   -2.3900   22.0450 C   0  0  0  0  0  0  0  0  0  0  0  0
   10.3790   -1.7060   22.8850 C   0  0  0  0  0  0  0  0  0  0  0  0
    9.6610   -1.3580   24.0650 C   0  0  0  0  0  0  0  0  0  0  0  0
    8.5030   -0.5820   23.8340 C   0  0  0  0  0  0  0  0  0  0  0  0
    7.7500   -1.3050   23.0180 C   0  0  2  0  0  0  0  0  0  0  0  0
    7.1240   -2.7490   23.7480 S   0  0  0  0  0  0  0  0  0  0  0  0
    7.7110   -3.9060   23.1090 O   0  0  0  0  0  0  0  0  0  0  0  0
    5.6920   -2.6480   23.9260 O   0  0  0  0  0  0  0  0  0  0  0  0
    7.8450   -2.7220   25.3040 N   0  0  0  0  0  0  0  0  0  0  0  0
    7.0430   -3.0100   26.4380 C   0  0  0  0  0  0  0  0  0  0  0  0
    6.4440   -1.9420   26.9770 C   0  0  0  0  0  0  0  0  0  0  0  0
    7.0190   -1.2980   28.1810 C   0  0  0  0  0  0  0  0  0  0  0  0
    8.3310   -0.7820   28.1820 C   0  0  0  0  0  0  0  0  0  0  0  0
    8.9620   -0.1000   29.4110 C   0  0  0  0  0  0  0  0  0  0  0  0
    8.1870   -0.0050   30.5520 C   0  0  0  0  0  0  0  0  0  0  0  0
    6.7790   -0.5380   30.6130 C   0  0  0  0  0  0  0  0  0  0  0  0
    6.2370   -1.1950   29.3510 C   0  0  0  0  0  0  0  0  0  0  0  0
    7.1490    0.5820   21.5320 N   0  0  0  0  0  0  0  0  0  0  0  0
    6.4730    0.6950   20.2640 C   0  0  0  0  0  0  0  0  0  0  0  0
    5.3420    1.4650   20.1730 C   0  0  0  0  0  0  0  0  0  0  0  0
    4.6730    1.6250   18.9810 C   0  0  0  0  0  0  0  0  0  0  0  0
    5.1750    0.9810   17.8520 C   0  0  0  0  0  0  0  0  0  0  0  0
    6.2680    0.2040   17.8430 N   0  0  0  0  0  0  0  0  0  0  0  0
    6.9420    0.0600   19.1340 C   0  0  0  0  0  0  0  0  0  0  0  0
  1  2  2  0
  2  3  1  0
  4  3  1  1
  4  5  1  0
  5  6  1  0
  6  7  1  0
  7  8  1  0
  4  9  1  0
  8  9  1  0
  9 10  1  1
 10 11  2  0
 10 12  2  0
 10 13  1  0
 13 14  1  0
 14 15  1  0
 15 16  1  0
 16 17  2  0
 17 18  1  0
 18 19  2  0
 19 20  1  0
 16 21  1  0
 20 21  2  0
  2 22  1  0
 22 23  1  0
 23 24  2  0
 24 25  1  0
 25 26  2  0
 26 27  1  0
 23 28  1  0
 27 28  2  0
M  END
