MAK-UNK-9a6be56d-9
     RDKit          3D

 38 42  0  0  0  0  0  0  0  0999 V2000
    8.7990   -2.6460   23.3520 C   0  0  0  0  0  0  0  0  0  0  0  0
    8.6430   -1.7970   24.5170 N   0  0  0  0  0  0  0  0  0  0  0  0
    9.2350   -0.5650   24.6570 C   0  0  2  0  0  0  0  0  0  0  0  0
    8.1330    0.3450   24.2960 C   0  0  0  0  0  0  0  0  0  0  0  0
    7.5110    0.2790   22.9100 C   0  0  0  0  0  0  0  0  0  0  0  0
    6.5050    1.1550   22.7240 C   0  0  0  0  0  0  0  0  0  0  0  0
    5.8510    1.1950   21.4980 C   0  0  0  0  0  0  0  0  0  0  0  0
    5.5600   -0.0610   20.8880 C   0  0  0  0  0  0  0  0  0  0  0  0
    4.8460   -0.0520   19.5170 C   0  0  0  0  0  0  0  0  0  0  0  0
    4.5150    1.3030   18.9450 C   0  0  0  0  0  0  0  0  0  0  0  0
    4.8830    2.5180   19.7080 C   0  0  0  0  0  0  0  0  0  0  0  0
    5.5240    2.4350   20.9270 C   0  0  0  0  0  0  0  0  0  0  0  0
    5.8440    3.6120   21.5810 F   0  0  0  0  0  0  0  0  0  0  0  0
    6.3770    1.8910   24.0040 N   0  0  0  0  0  0  0  0  0  0  0  0
    5.3040    3.1520   24.4840 S   0  0  0  0  0  0  0  0  0  0  0  0
    5.8300    4.3390   23.8530 O   0  0  0  0  0  0  0  0  0  0  0  0
    5.2270    3.0490   25.9230 O   0  0  0  0  0  0  0  0  0  0  0  0
    3.6910    2.9230   23.8330 C   0  0  0  0  0  0  0  0  0  0  0  0
    3.3550    3.2950   22.5180 C   0  0  0  0  0  0  0  0  0  0  0  0
    2.0580    3.1070   22.0490 C   0  0  0  0  0  0  0  0  0  0  0  0
    1.0830    2.5090   23.0010 C   0  0  0  0  0  0  0  0  0  0  0  0
    1.3800    2.1430   24.2630 N   0  0  0  0  0  0  0  0  0  0  0  0
    2.6730    2.3570   24.6490 C   0  0  0  0  0  0  0  0  0  0  0  0
    7.4160    1.3530   24.9500 C   0  0  0  0  0  0  0  0  0  0  0  0
   10.5050   -0.3190   23.9000 N   0  0  0  0  0  0  0  0  0  0  0  0
   11.4540   -1.4610   23.9170 C   0  0  0  0  0  0  0  0  0  0  0  0
   12.2900   -1.2960   22.8290 C   0  0  0  0  0  0  0  0  0  0  0  0
   13.1080   -0.2030   22.9670 C   0  0  0  0  0  0  0  0  0  0  0  0
   12.3920    0.9890   23.1400 C   0  0  0  0  0  0  0  0  0  0  0  0
   13.0130    2.1890   22.8370 C   0  0  0  0  0  0  0  0  0  0  0  0
   12.4210    3.4380   22.9480 C   0  0  0  0  0  0  0  0  0  0  0  0
   11.0020    3.4220   23.4520 C   0  0  0  0  0  0  0  0  0  0  0  0
   10.1540    4.9870   23.6310 S   0  0  0  0  0  0  0  0  0  0  0  0
   11.3330    6.0840   23.1270 N   0  0  0  0  0  0  0  0  0  0  0  0
    9.9360    5.3380   25.0070 O   0  0  0  0  0  0  0  0  0  0  0  0
    9.0720    5.0500   22.6970 O   0  0  0  0  0  0  0  0  0  0  0  0
   10.3910    2.1940   23.7620 C   0  0  0  0  0  0  0  0  0  0  0  0
   11.0790    0.9630   23.6070 C   0  0  0  0  0  0  0  0  0  0  0  0
  1  2  1  0
  3  2  1  6
  3  4  1  0
  4  5  1  0
  5  6  2  0
  6  7  1  0
  7  8  2  0
  8  9  1  0
  9 10  2  0
 10 11  1  0
  7 12  1  0
 11 12  2  0
 12 13  1  0
  6 14  1  0
 14 15  1  0
 15 16  2  0
 15 17  2  0
 15 18  1  0
 18 19  2  0
 19 20  1  0
 20 21  2  0
 21 22  1  0
 18 23  1  0
 22 23  2  0
  4 24  2  0
 14 24  1  0
  3 25  1  0
 25 26  1  0
 26 27  1  0
 27 28  1  0
 28 29  1  0
 29 30  2  0
 30 31  1  0
 31 32  2  0
 32 33  1  0
 33 34  1  0
 33 35  2  0
 33 36  2  0
 32 37  1  0
 25 38  1  0
 29 38  1  0
 37 38  2  0
M  END
