MAK-UNK-2084232d-8
     RDKit          3D

 21 23  0  0  0  0  0  0  0  0999 V2000
   13.9590   -2.7540   23.7960 N   0  0  0  0  0  0  0  0  0  0  0  0
   12.9350   -2.5820   24.8480 C   0  0  0  0  0  0  0  0  0  0  0  0
   11.6250   -2.2870   24.1910 C   0  0  1  0  0  0  0  0  0  0  0  0
   10.4480   -2.9240   24.5000 O   0  0  0  0  0  0  0  0  0  0  0  0
    9.3770   -3.0740   23.4220 C   0  0  1  0  0  0  0  0  0  0  0  0
    7.9300   -3.5980   23.5120 C   0  0  1  0  0  0  0  0  0  0  0  0
    7.2850   -3.2400   22.3340 C   0  0  0  0  0  0  0  0  0  0  0  0
    6.1450   -4.1060   21.7920 C   0  0  0  0  0  0  0  0  0  0  0  0
    6.5230   -5.5630   21.9560 C   0  0  0  0  0  0  0  0  0  0  0  0
    7.1860   -5.8480   23.2640 C   0  0  0  0  0  0  0  0  0  0  0  0
    7.7320   -4.8170   24.0670 C   0  0  2  0  0  0  0  0  0  0  0  0
    6.6990   -4.6210   25.0690 O   0  0  0  0  0  0  0  0  0  0  0  0
    9.3430   -1.6580   23.2090 C   0  0  0  0  0  0  0  0  0  0  0  0
   10.6000   -1.7270   23.6850 C   0  0  0  0  0  0  0  0  0  0  0  0
   11.5680   -0.8020   23.6390 C   0  0  0  0  0  0  0  0  0  0  0  0
   12.8470   -0.5880   23.9910 C   0  0  0  0  0  0  0  0  0  0  0  0
   13.3620   -1.6630   24.6350 C   0  0  0  0  0  0  0  0  0  0  0  0
   12.5990   -2.8920   24.9090 C   0  0  0  0  0  0  0  0  0  0  0  0
   13.3420   -3.9100   25.6410 O   0  0  0  0  0  0  0  0  0  0  0  0
   11.2070   -2.8780   24.4000 C   0  0  0  0  0  0  0  0  0  0  0  0
   10.5360   -4.0350   24.6690 O   0  0  0  0  0  0  0  0  0  0  0  0
  1  2  1  0
  3  2  1  1
  3  4  1  0
  4  5  1  0
  5  6  1  0
  6  7  1  6
  7  8  1  0
  8  9  1  0
  9 10  1  0
  6 11  1  0
 10 11  1  0
 11 12  1  1
  5 13  1  1
 13 14  1  0
  3 15  1  0
 14 15  2  0
 15 16  1  0
 16 17  2  0
 17 18  1  0
 18 19  1  0
 14 20  1  0
 18 20  2  0
 20 21  1  0
M  END
