MAK-UNK-198e6d85-11
     RDKit          3D

 21 23  0  0  0  0  0  0  0  0999 V2000
   12.7590   -2.1970   22.0600 N   0  0  0  0  0  0  0  0  0  0  0  0
   12.7490   -2.4680   23.5130 C   0  0  0  0  0  0  0  0  0  0  0  0
   11.5780   -2.1500   24.2320 C   0  0  2  0  0  0  0  0  0  0  0  0
   10.5120   -3.0600   24.2560 O   0  0  0  0  0  0  0  0  0  0  0  0
    8.9980   -2.7770   24.1050 C   0  0  2  0  0  0  0  0  0  0  0  0
    8.1280   -3.7830   23.3510 C   0  0  2  0  0  0  0  0  0  0  0  0
    7.2970   -3.2820   22.2120 C   0  0  0  0  0  0  0  0  0  0  0  0
    6.6450   -4.3680   21.6190 C   0  0  0  0  0  0  0  0  0  0  0  0
    5.9500   -5.2450   22.4160 C   0  0  0  0  0  0  0  0  0  0  0  0
    6.6740   -5.7230   23.4930 C   0  0  0  0  0  0  0  0  0  0  0  0
    7.4460   -4.7280   24.1200 C   0  0  2  0  0  0  0  0  0  0  0  0
    6.8080   -4.0910   24.9680 O   0  0  0  0  0  0  0  0  0  0  0  0
    9.1890   -1.5560   23.3740 C   0  0  0  0  0  0  0  0  0  0  0  0
   10.4530   -1.6240   23.7530 C   0  0  0  0  0  0  0  0  0  0  0  0
   11.3410   -0.7410   23.6620 C   0  0  0  0  0  0  0  0  0  0  0  0
   12.6610   -0.4910   23.9360 C   0  0  0  0  0  0  0  0  0  0  0  0
   13.1970   -1.6010   24.5390 C   0  0  0  0  0  0  0  0  0  0  0  0
   12.4760   -2.7140   24.7900 C   0  0  0  0  0  0  0  0  0  0  0  0
   13.2230   -3.7420   25.4520 O   0  0  0  0  0  0  0  0  0  0  0  0
   11.0870   -2.7750   24.3980 C   0  0  0  0  0  0  0  0  0  0  0  0
   10.4730   -3.9610   24.6900 O   0  0  0  0  0  0  0  0  0  0  0  0
  1  2  1  0
  3  2  1  6
  3  4  1  0
  4  5  1  0
  5  6  1  0
  6  7  1  1
  7  8  1  0
  8  9  1  0
  9 10  1  0
  6 11  1  0
 10 11  1  0
 11 12  1  1
  5 13  1  6
 13 14  1  0
  3 15  1  0
 14 15  2  0
 15 16  1  0
 16 17  2  0
 17 18  1  0
 18 19  1  0
 14 20  1  0
 18 20  2  0
 20 21  1  0
M  END
