MAK-UNK-01147c51-12
     RDKit          3D

 22 24  0  0  0  0  0  0  0  0999 V2000
    8.1930   -4.3470   24.2860 C   0  0  0  0  0  0  0  0  0  0  0  0
    8.6720   -3.0970   24.5950 N   0  0  0  0  0  0  0  0  0  0  0  0
    9.8610   -2.5770   24.1260 C   0  0  1  0  0  0  0  0  0  0  0  0
   10.1610   -1.2540   24.1770 C   0  0  0  0  0  0  0  0  0  0  0  0
   11.3430   -0.9080   23.5950 C   0  0  0  0  0  0  0  0  0  0  0  0
   12.0200   -1.9690   23.1790 C   0  0  1  0  0  0  0  0  0  0  0  0
   12.9390   -1.7140   22.1530 C   0  0  1  0  0  0  0  0  0  0  0  0
   13.2780   -2.8130   21.7480 C   0  0  0  0  0  0  0  0  0  0  0  0
   13.4170   -2.4860   23.0800 C   0  0  0  0  0  0  0  0  0  0  0  0
   13.0550   -1.1590   23.2640 C   0  0  0  0  0  0  0  0  0  0  0  0
   13.1220   -0.7050   24.4470 C   0  0  0  0  0  0  0  0  0  0  0  0
   13.4700   -1.3380   25.5440 C   0  0  0  0  0  0  0  0  0  0  0  0
   13.8670   -2.6180   25.5710 C   0  0  0  0  0  0  0  0  0  0  0  0
   14.2860   -3.4490   26.5340 O   0  0  0  0  0  0  0  0  0  0  0  0
   13.8070   -3.0670   24.2600 C   0  0  0  0  0  0  0  0  0  0  0  0
   14.1860   -4.0030   24.5850 O   0  0  0  0  0  0  0  0  0  0  0  0
   12.6450   -0.1700   22.3670 C   0  0  1  0  0  0  0  0  0  0  0  0
   13.5500    0.9410   22.7110 C   0  0  0  0  0  0  0  0  0  0  0  0
   13.1900    2.3840   22.6410 N   0  0  0  0  0  0  0  0  0  0  0  0
   12.9650   -0.8080   21.4870 O   0  0  0  0  0  0  0  0  0  0  0  0
   12.2910   -2.6790   24.4120 C   0  0  0  0  0  0  0  0  0  0  0  0
   10.9950   -3.2450   24.8930 C   0  0  0  0  0  0  0  0  0  0  0  0
  1  2  1  0
  3  2  1  1
  3  4  1  0
  4  5  1  0
  6  5  1  1
  6  7  1  0
  7  8  1  6
  8  9  1  0
  9 10  2  0
 10 11  1  0
 11 12  2  0
 12 13  1  0
 13 14  1  0
  9 15  1  0
 13 15  2  0
 15 16  1  0
 10 17  1  0
 17 18  1  1
 18 19  1  0
  7 20  1  0
 17 20  1  0
  6 21  1  0
  3 22  1  0
 21 22  1  0
M  END
