MAK-UNK-27459e11-9
     RDKit          3D

 17 17  0  0  0  0  0  0  0  0999 V2000
    4.4900   -4.2680   25.8930 C   0  0  0  0  0  0  0  0  0  0  0  0
    6.1990   -4.1240   25.5150 S   0  0  0  0  0  0  0  0  0  0  0  0
    6.6210   -5.4160   25.0210 O   0  0  0  0  0  0  0  0  0  0  0  0
    6.7970   -3.4580   26.6580 O   0  0  0  0  0  0  0  0  0  0  0  0
    6.3530   -3.0490   24.2260 N   0  0  0  0  0  0  0  0  0  0  0  0
    7.6580   -2.8780   23.5670 C   0  0  0  0  0  0  0  0  0  0  0  0
    7.8950   -1.5920   23.2200 C   0  0  0  0  0  0  0  0  0  0  0  0
    9.3670   -1.2140   23.1590 C   0  0  0  0  0  0  0  0  0  0  0  0
    9.9980    0.0720   23.3740 C   0  0  0  0  0  0  0  0  0  0  0  0
   11.3600    0.2790   23.3090 C   0  0  0  0  0  0  0  0  0  0  0  0
   12.0780   -0.8330   23.0300 C   0  0  0  0  0  0  0  0  0  0  0  0
   13.4800   -0.7110   23.0050 C   0  0  0  0  0  0  0  0  0  0  0  0
   13.6130   -1.8450   24.0290 C   0  0  0  0  0  0  0  0  0  0  0  0
   13.9100   -3.0000   23.6000 N   0  0  0  0  0  0  0  0  0  0  0  0
   13.3930   -1.7130   25.3500 N   0  0  0  0  0  0  0  0  0  0  0  0
   11.5780   -2.0740   22.7930 C   0  0  0  0  0  0  0  0  0  0  0  0
   10.2120   -2.2540   22.8600 C   0  0  0  0  0  0  0  0  0  0  0  0
  1  2  1  0
  2  3  2  0
  2  4  2  0
  2  5  1  0
  5  6  1  0
  6  7  1  0
  7  8  1  0
  8  9  2  0
  9 10  1  0
 10 11  2  0
 11 12  1  0
 12 13  1  0
 13 14  2  3
 13 15  1  0
 11 16  1  0
  8 17  1  0
 16 17  2  0
M  END
