MAK-UNK-c7aa8293-5
     RDKit          3D

 30 34  0  0  0  0  0  0  0  0999 V2000
    5.2800    1.5950   19.6720 N   0  0  0  0  0  0  0  0  0  0  0  0
    6.4840    1.5880   20.0980 C   0  0  0  0  0  0  0  0  0  0  0  0
    6.8030    0.6950   21.3160 C   0  0  2  0  0  0  0  0  0  0  0  0
    7.9500    0.6460   21.7440 O   0  0  0  0  0  0  0  0  0  0  0  0
    8.0890   -0.0560   22.9270 C   0  0  2  0  0  0  0  0  0  0  0  0
    9.1000   -1.0320   22.8790 C   0  0  0  0  0  0  0  0  0  0  0  0
   10.1370   -0.9230   21.9100 C   0  0  0  0  0  0  0  0  0  0  0  0
   11.3610   -1.6400   22.0570 C   0  0  0  0  0  0  0  0  0  0  0  0
   11.9550   -1.3870   23.3780 N   0  0  0  0  0  0  0  0  0  0  0  0
   13.4130   -1.4830   23.7100 C   0  0  0  0  0  0  0  0  0  0  0  0
   13.1610   -2.5160   24.5390 C   0  0  0  0  0  0  0  0  0  0  0  0
   12.1420   -2.1180   23.6860 C   0  0  0  0  0  0  0  0  0  0  0  0
   11.4060   -1.5120   22.7770 C   0  0  0  0  0  0  0  0  0  0  0  0
   10.3760   -2.2910   23.0010 C   0  0  0  0  0  0  0  0  0  0  0  0
    8.9970   -2.4240   22.4600 N   0  0  0  0  0  0  0  0  0  0  0  0
    8.2680   -3.4120   23.0180 C   0  0  0  0  0  0  0  0  0  0  0  0
    9.3350   -3.7650   23.8490 C   0  0  0  0  0  0  0  0  0  0  0  0
   10.5980   -3.1960   23.9360 C   0  0  0  0  0  0  0  0  0  0  0  0
   11.8530   -3.3920   24.7100 C   0  0  0  0  0  0  0  0  0  0  0  0
   11.0530   -1.8180   24.4720 C   0  0  0  0  0  0  0  0  0  0  0  0
    9.6010   -1.3480   24.3270 C   0  0  0  0  0  0  0  0  0  0  0  0
    6.7140   -0.5430   23.3960 C   0  0  0  0  0  0  0  0  0  0  0  0
    6.2410   -1.2060   22.5190 C   0  0  0  0  0  0  0  0  0  0  0  0
    6.2520   -0.6070   21.2710 C   0  0  0  0  0  0  0  0  0  0  0  0
    5.7560   -1.2550   20.1330 C   0  0  0  0  0  0  0  0  0  0  0  0
    5.2300   -2.5290   20.2480 C   0  0  0  0  0  0  0  0  0  0  0  0
    5.2020   -3.1870   21.6330 C   0  0  0  0  0  0  0  0  0  0  0  0
    4.6790   -4.4290   21.8030 O   0  0  0  0  0  0  0  0  0  0  0  0
    5.7120   -2.4950   22.7120 C   0  0  0  0  0  0  0  0  0  0  0  0
    5.6800   -3.0990   23.9410 O   0  0  0  0  0  0  0  0  0  0  0  0
  1  2  1  0
  3  2  1  6
  3  4  1  0
  4  5  1  0
  5  6  1  6
  6  7  1  0
  7  8  1  0
  8  9  1  0
  9 10  1  0
 10 11  1  0
 11 12  2  0
 12 13  1  0
 13 14  2  0
 14 15  1  0
 15 16  1  0
 16 17  2  0
 14 18  1  0
 17 18  1  0
 11 19  1  0
 18 19  2  0
  9 20  1  0
  6 21  1  0
 20 21  1  0
  5 22  1  0
 22 23  1  0
  3 24  1  0
 23 24  2  0
 24 25  1  0
 25 26  2  0
 26 27  1  0
 27 28  1  0
 23 29  1  0
 27 29  2  0
 29 30  1  0
M  END
