MAK-UNK-f2409524-28
     RDKit          3D

 26 28  0  0  0  0  0  0  0  0999 V2000
    9.7660   -1.3230   22.0840 C   0  0  0  0  0  0  0  0  0  0  0  0
    8.8000   -0.2440   21.6010 C   0  0  0  0  0  0  0  0  0  0  0  0
    9.1670    0.9240   21.4480 O   0  0  0  0  0  0  0  0  0  0  0  0
    7.4340   -0.7220   21.3410 N   0  0  0  0  0  0  0  0  0  0  0  0
    6.6040   -0.0470   20.3240 C   0  0  0  0  0  0  0  0  0  0  0  0
    7.0020   -0.3270   18.8990 C   0  0  0  0  0  0  0  0  0  0  0  0
    6.2630    0.2980   17.7870 N   0  0  0  0  0  0  0  0  0  0  0  0
    5.1250    1.2000   18.0610 C   0  0  0  0  0  0  0  0  0  0  0  0
    4.7230    1.4710   19.4910 C   0  0  0  0  0  0  0  0  0  0  0  0
    5.5240    0.8000   20.6250 C   0  0  0  0  0  0  0  0  0  0  0  0
    4.9590    1.2170   22.0260 C   0  0  0  0  0  0  0  0  0  0  0  0
    5.0230    0.5670   23.2440 C   0  0  2  0  0  0  0  0  0  0  0  0
    3.7950   -0.3690   23.3850 C   0  0  0  0  0  0  0  0  0  0  0  0
    3.6720   -0.9210   24.6370 C   0  0  0  0  0  0  0  0  0  0  0  0
    4.4860   -0.1680   25.6650 C   0  0  0  0  0  0  0  0  0  0  0  0
    4.6240    1.1750   25.5770 N   0  0  0  0  0  0  0  0  0  0  0  0
    5.2000    1.8650   26.7330 C   0  0  0  0  0  0  0  0  0  0  0  0
    4.8380    2.9760   27.1010 O   0  0  0  0  0  0  0  0  0  0  0  0
    6.2510    1.1050   27.4120 N   0  0  0  0  0  0  0  0  0  0  0  0
    6.5840    1.2090   28.7460 C   0  0  0  0  0  0  0  0  0  0  0  0
    7.9340    1.4410   28.9600 C   0  0  0  0  0  0  0  0  0  0  0  0
    8.6780    0.2800   29.0540 C   0  0  0  0  0  0  0  0  0  0  0  0
    8.1760   -0.7570   29.8300 C   0  0  0  0  0  0  0  0  0  0  0  0
    6.8540   -1.0660   29.5650 C   0  0  0  0  0  0  0  0  0  0  0  0
    6.0380    0.0890   29.3940 C   0  0  0  0  0  0  0  0  0  0  0  0
    5.0020    1.6450   24.3520 C   0  0  0  0  0  0  0  0  0  0  0  0
  1  2  1  0
  2  3  2  0
  2  4  1  0
  4  5  1  0
  5  6  2  0
  6  7  1  0
  7  8  2  0
  8  9  1  0
  5 10  1  0
  9 10  2  0
 10 11  1  0
 12 11  1  6
 12 13  1  0
 13 14  1  0
 14 15  1  0
 15 16  1  0
 16 17  1  0
 17 18  2  0
 17 19  1  0
 19 20  1  0
 20 21  1  0
 21 22  1  0
 22 23  1  0
 23 24  1  0
 20 25  1  0
 24 25  1  0
 12 26  1  0
 16 26  1  0
M  END
