MAK-UNK-0d6072ac-5
     RDKit          3D

 19 21  0  0  0  0  0  0  0  0999 V2000
    5.7720   -5.7420   21.3780 C   0  0  0  0  0  0  0  0  0  0  0  0
    5.7200   -5.0480   22.7000 C   0  0  2  0  0  0  0  0  0  0  0  0
    4.5760   -4.3200   23.0360 C   0  0  0  0  0  0  0  0  0  0  0  0
    4.5620   -3.0940   22.9910 O   0  0  0  0  0  0  0  0  0  0  0  0
    3.1540   -4.9990   23.5480 S   0  0  0  0  0  0  0  0  0  0  0  0
    6.9490   -4.2120   22.9040 C   0  0  0  0  0  0  0  0  0  0  0  0
    7.9620   -4.8340   23.6560 C   0  0  0  0  0  0  0  0  0  0  0  0
    9.1120   -4.2140   23.9170 C   0  0  0  0  0  0  0  0  0  0  0  0
    9.5090   -3.0510   23.5860 C   0  0  0  0  0  0  0  0  0  0  0  0
    8.6350   -2.2330   22.7990 C   0  0  0  0  0  0  0  0  0  0  0  0
    7.2670   -2.8820   22.4520 C   0  0  0  0  0  0  0  0  0  0  0  0
    9.3780   -1.0810   22.6190 N   0  0  0  0  0  0  0  0  0  0  0  0
   10.6320   -1.1890   23.2640 C   0  0  0  0  0  0  0  0  0  0  0  0
   11.7350   -0.3470   23.3910 C   0  0  0  0  0  0  0  0  0  0  0  0
   12.8460   -0.7660   24.1340 C   0  0  0  0  0  0  0  0  0  0  0  0
   12.8510   -2.0110   24.7450 C   0  0  0  0  0  0  0  0  0  0  0  0
   14.0990   -2.6310   25.6990 Cl  0  0  0  0  0  0  0  0  0  0  0  0
   11.7870   -2.8170   24.5940 C   0  0  0  0  0  0  0  0  0  0  0  0
   10.7020   -2.4220   23.8740 C   0  0  0  0  0  0  0  0  0  0  0  0
  2  1  1  6
  2  3  1  0
  3  4  1  0
  3  5  2  0
  2  6  1  0
  6  7  2  0
  7  8  1  0
  8  9  2  0
  9 10  1  0
  6 11  1  0
 10 11  2  0
 10 12  1  0
 12 13  1  0
 13 14  1  0
 14 15  2  0
 15 16  1  0
 16 17  1  0
 16 18  2  0
  9 19  1  0
 13 19  2  0
 18 19  1  0
M  END
