MAK-UNK-b1d4dcd7-8
     RDKit          3D

 28 32  0  0  0  0  0  0  0  0999 V2000
    6.0010   -2.1850   25.1570 O   0  0  0  0  0  0  0  0  0  0  0  0
    6.9520   -1.8520   24.4570 C   0  0  0  0  0  0  0  0  0  0  0  0
    7.5500   -0.4260   24.5500 C   0  0  2  0  0  0  0  0  0  0  0  0
    7.5400    0.0210   25.8830 C   0  0  0  0  0  0  0  0  0  0  0  0
    7.7620    1.3740   26.1740 C   0  0  0  0  0  0  0  0  0  0  0  0
    7.7630    1.8160   27.4900 C   0  0  0  0  0  0  0  0  0  0  0  0
    7.5430    0.9100   28.5200 C   0  0  0  0  0  0  0  0  0  0  0  0
    7.3160   -0.4410   28.2670 C   0  0  0  0  0  0  0  0  0  0  0  0
    7.3160   -0.8700   26.9380 C   0  0  0  0  0  0  0  0  0  0  0  0
    6.8790    0.5190   23.6680 N   0  0  0  0  0  0  0  0  0  0  0  0
    5.7210    1.1880   24.0710 C   0  0  0  0  0  0  0  0  0  0  0  0
    5.5470    2.4390   23.4520 C   0  0  0  0  0  0  0  0  0  0  0  0
    6.7030    2.9580   22.8940 C   0  0  0  0  0  0  0  0  0  0  0  0
    7.2150    2.0460   21.8030 C   0  0  1  0  0  0  0  0  0  0  0  0
    8.5230    2.4870   21.4040 O   0  0  0  0  0  0  0  0  0  0  0  0
    7.2860    0.5800   22.2620 C   0  0  2  0  0  0  0  0  0  0  0  0
    6.3000   -0.3150   21.5170 C   0  0  1  0  0  0  0  0  0  0  0  0
    5.8400    0.3900   20.2510 C   0  0  0  0  0  0  0  0  0  0  0  0
    6.4200    0.3150   18.9740 C   0  0  0  0  0  0  0  0  0  0  0  0
    5.7210    1.1440   17.9550 C   0  0  0  0  0  0  0  0  0  0  0  0
    4.6650    1.7860   18.5200 C   0  0  0  0  0  0  0  0  0  0  0  0
    4.4070    1.4760   20.2370 S   0  0  0  0  0  0  0  0  0  0  0  0
    6.8740   -1.4800   21.1120 N   0  0  0  0  0  0  0  0  0  0  0  0
    6.2240   -2.5680   21.5550 C   0  0  0  0  0  0  0  0  0  0  0  0
    6.8150   -3.4840   22.6040 C   0  0  0  0  0  0  0  0  0  0  0  0
    7.5600   -2.7100   23.5480 N   0  0  0  0  0  0  0  0  0  0  0  0
    8.7000   -2.1990   22.8220 C   0  0  0  0  0  0  0  0  0  0  0  0
    8.3080   -1.5470   21.4880 C   0  0  0  0  0  0  0  0  0  0  0  0
  1  2  2  0
  2  3  1  0
  3  4  1  1
  4  5  2  0
  5  6  1  0
  6  7  2  0
  7  8  1  0
  4  9  1  0
  8  9  2  0
  3 10  1  0
 10 11  1  0
 11 12  1  0
 12 13  1  0
 13 14  1  0
 14 15  1  1
 16 10  1  1
 14 16  1  0
 16 17  1  0
 17 18  1  6
 18 19  2  0
 19 20  1  0
 20 21  2  0
 18 22  1  0
 21 22  1  0
 17 23  1  0
 23 24  1  0
 24 25  1  0
  2 26  1  0
 25 26  1  0
 26 27  1  0
 23 28  1  0
 27 28  1  0
M  END
