MAK-UNK-01147c51-3
     RDKit          3D

 24 26  0  0  0  0  0  0  0  0999 V2000
   13.5550   -2.6610   25.4730 N   0  0  0  0  0  0  0  0  0  0  0  0
   12.4180   -1.8530   24.9800 C   0  0  0  0  0  0  0  0  0  0  0  0
   11.7560   -2.1530   23.8760 C   0  0  1  0  0  0  0  0  0  0  0  0
   10.5040   -3.0880   23.9860 O   0  0  0  0  0  0  0  0  0  0  0  0
    9.4250   -2.9590   22.9340 C   0  0  1  0  0  0  0  0  0  0  0  0
    8.1120   -3.8460   22.8760 C   0  0  1  0  0  0  0  0  0  0  0  0
    7.7170   -4.8420   23.7260 C   0  0  0  0  0  0  0  0  0  0  0  0
    6.9060   -5.8180   23.1290 C   0  0  0  0  0  0  0  0  0  0  0  0
    6.1830   -5.4670   21.9760 C   0  0  0  0  0  0  0  0  0  0  0  0
    6.0420   -3.9390   21.8020 C   0  0  2  0  0  0  0  0  0  0  0  0
    5.9690   -3.5850   20.4670 N   0  0  0  0  0  0  0  0  0  0  0  0
    6.1710   -2.2350   20.1220 C   0  0  0  0  0  0  0  0  0  0  0  0
    5.8630   -1.6470   18.7600 C   0  0  0  0  0  0  0  0  0  0  0  0
    6.5840   -0.4410   18.4410 O   0  0  0  0  0  0  0  0  0  0  0  0
    6.8740   -3.0890   22.5000 C   0  0  0  0  0  0  0  0  0  0  0  0
    9.3360   -1.6320   22.9250 C   0  0  0  0  0  0  0  0  0  0  0  0
   10.5960   -1.6590   23.3390 C   0  0  0  0  0  0  0  0  0  0  0  0
   11.5280   -0.7990   23.2070 C   0  0  0  0  0  0  0  0  0  0  0  0
   12.9320   -0.5880   23.5480 C   0  0  0  0  0  0  0  0  0  0  0  0
   13.4400   -1.6570   24.2580 C   0  0  0  0  0  0  0  0  0  0  0  0
   12.6310   -2.7260   24.5500 C   0  0  0  0  0  0  0  0  0  0  0  0
   13.1800   -3.7370   25.2790 O   0  0  0  0  0  0  0  0  0  0  0  0
   11.1290   -2.7610   24.0620 C   0  0  0  0  0  0  0  0  0  0  0  0
   10.3610   -3.8430   24.3420 O   0  0  0  0  0  0  0  0  0  0  0  0
  1  2  1  0
  3  2  1  1
  3  4  1  0
  4  5  1  0
  5  6  1  0
  6  7  1  1
  7  8  1  0
  8  9  1  0
  9 10  1  0
 10 11  1  6
 11 12  1  0
 12 13  1  0
 13 14  1  0
  6 15  1  0
 10 15  1  0
  5 16  1  1
 16 17  1  0
  3 18  1  0
 17 18  2  0
 18 19  1  0
 19 20  2  0
 20 21  1  0
 21 22  1  0
 17 23  1  0
 21 23  2  0
 23 24  1  0
M  END
