MAK-UNK-2084232d-25
     RDKit          3D

 23 25  0  0  0  0  0  0  0  0999 V2000
   12.6920   -2.3360   22.1630 N   0  0  0  0  0  0  0  0  0  0  0  0
   12.6170   -2.5310   23.6290 C   0  0  0  0  0  0  0  0  0  0  0  0
   11.5100   -2.0490   24.2500 C   0  0  2  0  0  0  0  0  0  0  0  0
   10.3380   -3.1250   24.3230 O   0  0  0  0  0  0  0  0  0  0  0  0
    8.8380   -2.8320   24.2280 C   0  0  2  0  0  0  0  0  0  0  0  0
    7.8610   -4.0000   23.6940 C   0  0  1  0  0  0  0  0  0  0  0  0
    6.7720   -4.3930   24.4120 C   0  0  1  0  0  0  0  0  0  0  0  0
    6.0070   -3.2830   24.8850 O   0  0  0  0  0  0  0  0  0  0  0  0
    5.9050   -5.2520   23.7390 C   0  0  0  0  0  0  0  0  0  0  0  0
    5.1980   -4.7250   22.6590 C   0  0  0  0  0  0  0  0  0  0  0  0
    6.1630   -4.2130   21.6060 C   0  0  1  0  0  0  0  0  0  0  0  0
    5.7660   -3.0630   20.8750 O   0  0  0  0  0  0  0  0  0  0  0  0
    7.5510   -4.1000   22.1770 C   0  0  2  0  0  0  0  0  0  0  0  0
    7.8610   -5.4500   21.8970 O   0  0  0  0  0  0  0  0  0  0  0  0
    9.0080   -1.5730   23.5120 C   0  0  0  0  0  0  0  0  0  0  0  0
   10.3310   -1.5890   23.8160 C   0  0  0  0  0  0  0  0  0  0  0  0
   11.2310   -0.7130   23.5750 C   0  0  0  0  0  0  0  0  0  0  0  0
   12.5730   -0.4500   23.7320 C   0  0  0  0  0  0  0  0  0  0  0  0
   13.2320   -1.4680   24.3890 C   0  0  0  0  0  0  0  0  0  0  0  0
   12.4320   -2.6180   24.8240 C   0  0  0  0  0  0  0  0  0  0  0  0
   13.1110   -3.6080   25.4980 O   0  0  0  0  0  0  0  0  0  0  0  0
   11.0230   -2.6560   24.5340 C   0  0  0  0  0  0  0  0  0  0  0  0
   10.4310   -3.7720   24.9980 O   0  0  0  0  0  0  0  0  0  0  0  0
  1  2  1  0
  3  2  1  6
  3  4  1  0
  4  5  1  0
  6  5  1  1
  6  7  1  0
  7  8  1  6
  7  9  1  0
  9 10  1  0
 10 11  1  0
 11 12  1  1
  6 13  1  0
 11 13  1  0
 13 14  1  1
  5 15  1  6
 15 16  1  0
  3 17  1  0
 16 17  2  0
 17 18  1  0
 18 19  2  0
 19 20  1  0
 20 21  1  0
 16 22  1  0
 20 22  2  0
 22 23  1  0
M  END
