MAK-UNK-9e4a73aa-34
     RDKit          3D

 27 30  0  0  0  0  0  0  0  0999 V2000
   13.5810   -1.7970   24.6840 C   0  0  0  0  0  0  0  0  0  0  0  0
   12.3120   -2.1690   24.0540 C   0  0  0  0  0  0  0  0  0  0  0  0
   11.4960   -2.9090   24.8780 C   0  0  0  0  0  0  0  0  0  0  0  0
   10.2820   -3.3290   24.4290 C   0  0  0  0  0  0  0  0  0  0  0  0
    9.8840   -3.0100   23.1470 C   0  0  0  0  0  0  0  0  0  0  0  0
    8.6000   -3.5460   22.8320 N   0  0  0  0  0  0  0  0  0  0  0  0
    7.9560   -4.3400   23.9310 C   0  0  0  0  0  0  0  0  0  0  0  0
    8.4880   -4.6380   25.0100 O   0  0  0  0  0  0  0  0  0  0  0  0
    6.6970   -4.7030   23.5750 N   0  0  0  0  0  0  0  0  0  0  0  0
    5.8610   -3.6680   23.2240 C   0  0  0  0  0  0  0  0  0  0  0  0
    7.2210   -3.2000   23.1060 C   0  0  0  0  0  0  0  0  0  0  0  0
    7.8330   -1.9830   22.7130 C   0  0  0  0  0  0  0  0  0  0  0  0
    7.0980   -0.9300   22.3240 C   0  0  0  0  0  0  0  0  0  0  0  0
    5.8420   -1.1480   22.3660 N   0  0  0  0  0  0  0  0  0  0  0  0
    5.3030   -2.4230   22.7990 C   0  0  0  0  0  0  0  0  0  0  0  0
    6.7390   -5.1910   22.3410 C   0  0  0  0  0  0  0  0  0  0  0  0
    6.7900   -6.4960   21.7900 O   0  0  0  0  0  0  0  0  0  0  0  0
    6.7570   -4.0110   21.4340 C   0  0  0  0  0  0  0  0  0  0  0  0
    5.7610   -3.7850   20.3420 C   0  0  0  0  0  0  0  0  0  0  0  0
    5.9380   -2.4810   19.6130 C   0  0  0  0  0  0  0  0  0  0  0  0
    5.1080   -2.1790   18.6490 F   0  0  0  0  0  0  0  0  0  0  0  0
    6.9490   -1.5770   19.9230 C   0  0  0  0  0  0  0  0  0  0  0  0
    7.0320   -0.1140   19.0270 Cl  0  0  0  0  0  0  0  0  0  0  0  0
    7.9190   -1.9190   21.0320 C   0  0  0  0  0  0  0  0  0  0  0  0
    7.7830   -3.1190   21.7530 C   0  0  0  0  0  0  0  0  0  0  0  0
   10.6450   -2.2700   22.2640 C   0  0  0  0  0  0  0  0  0  0  0  0
   11.9830   -1.8010   22.7490 C   0  0  0  0  0  0  0  0  0  0  0  0
  1  2  1  0
  2  3  2  0
  3  4  1  0
  4  5  2  0
  5  6  1  0
  6  7  1  0
  7  8  2  0
  7  9  1  0
  9 10  1  0
 10 11  2  0
 11 12  1  0
 12 13  2  0
 13 14  1  0
 10 15  1  0
 14 15  2  0
  9 16  1  0
 16 17  2  0
 16 18  1  0
 18 19  1  0
 19 20  2  0
 20 21  1  0
 20 22  1  0
 22 23  1  0
 22 24  2  0
  6 25  1  0
 18 25  2  0
 24 25  1  0
  5 26  1  0
  2 27  1  0
 26 27  2  0
M  END
