MAK-UNK-60abb798-9
     RDKit          3D

 22 24  0  0  0  0  0  0  0  0999 V2000
    6.0780   -2.2660   19.7440 C   0  0  0  0  0  0  0  0  0  0  0  0
    5.6000   -3.3950   20.4300 C   0  0  0  0  0  0  0  0  0  0  0  0
    6.4090   -3.9500   21.3790 N   0  0  0  0  0  0  0  0  0  0  0  0
    6.0590   -5.2540   21.9550 C   0  0  0  0  0  0  0  0  0  0  0  0
    6.9590   -5.7400   22.9050 C   0  0  0  0  0  0  0  0  0  0  0  0
    7.5390   -4.8410   23.7030 C   0  0  0  0  0  0  0  0  0  0  0  0
    8.1070   -3.5810   23.1440 C   0  0  2  0  0  0  0  0  0  0  0  0
    8.8250   -2.7080   24.0050 C   0  0  2  0  0  0  0  0  0  0  0  0
    8.9600   -1.3860   23.8410 C   0  0  0  0  0  0  0  0  0  0  0  0
   10.2710   -1.4160   24.0510 C   0  0  0  0  0  0  0  0  0  0  0  0
   11.0970   -0.8820   24.8990 C   0  0  0  0  0  0  0  0  0  0  0  0
   12.4370   -0.9020   25.1600 C   0  0  0  0  0  0  0  0  0  0  0  0
   13.2150   -1.6680   24.3530 C   0  0  0  0  0  0  0  0  0  0  0  0
   12.5250   -2.3300   23.3150 C   0  0  0  0  0  0  0  0  0  0  0  0
   13.2300   -3.0990   22.4090 O   0  0  0  0  0  0  0  0  0  0  0  0
   11.0850   -2.1980   23.1820 C   0  0  0  0  0  0  0  0  0  0  0  0
   10.6040   -2.9370   22.0620 O   0  0  0  0  0  0  0  0  0  0  0  0
   11.3630   -1.8420   23.8970 C   0  0  1  0  0  0  0  0  0  0  0  0
   12.6490   -2.4190   23.9410 C   0  0  0  0  0  0  0  0  0  0  0  0
   13.0270   -2.9900   25.2470 N   0  0  0  0  0  0  0  0  0  0  0  0
   10.2730   -2.9830   24.0290 O   0  0  0  0  0  0  0  0  0  0  0  0
    6.9400   -2.9970   22.3760 C   0  0  0  0  0  0  0  0  0  0  0  0
  1  2  1  0
  2  3  1  0
  3  4  1  0
  4  5  1  0
  5  6  1  0
  7  6  1  1
  7  8  1  0
  8  9  1  6
  9 10  1  0
 10 11  2  0
 11 12  1  0
 12 13  2  0
 13 14  1  0
 14 15  1  0
 10 16  1  0
 14 16  2  0
 16 17  1  0
 11 18  1  0
 18 19  1  1
 19 20  1  0
  8 21  1  0
 18 21  1  0
  3 22  1  0
  7 22  1  0
M  END
