MAK-UNK-f2409524-18
     RDKit          3D

 24 25  0  0  0  0  0  0  0  0999 V2000
    9.6070   -0.6810   22.4840 C   0  0  0  0  0  0  0  0  0  0  0  0
    8.7590    0.1530   21.5550 C   0  0  0  0  0  0  0  0  0  0  0  0
    9.0880    1.3150   21.2700 O   0  0  0  0  0  0  0  0  0  0  0  0
    7.6230   -0.5260   21.1110 N   0  0  0  0  0  0  0  0  0  0  0  0
    6.6990   -0.0360   20.1510 C   0  0  0  0  0  0  0  0  0  0  0  0
    6.9800   -0.0900   18.7920 C   0  0  0  0  0  0  0  0  0  0  0  0
    6.1850    0.3690   17.8110 N   0  0  0  0  0  0  0  0  0  0  0  0
    5.0310    0.9160   18.1790 C   0  0  0  0  0  0  0  0  0  0  0  0
    4.6220    1.0200   19.4870 C   0  0  0  0  0  0  0  0  0  0  0  0
    5.4550    0.5390   20.5230 C   0  0  0  0  0  0  0  0  0  0  0  0
    4.9770    0.6620   21.9780 C   0  0  1  0  0  0  0  0  0  0  0  0
    5.4910    1.9830   22.5520 C   0  0  0  0  0  0  0  0  0  0  0  0
    3.5090    0.5190   22.1230 N   0  0  0  0  0  0  0  0  0  0  0  0
    2.7320    1.5590   21.4820 C   0  0  0  0  0  0  0  0  0  0  0  0
    1.5410    1.6290   22.2680 N   0  0  0  0  0  0  0  0  0  0  0  0
    0.3230    1.5500   21.6350 C   0  0  0  0  0  0  0  0  0  0  0  0
    0.1640    1.6020   20.4260 O   0  0  0  0  0  0  0  0  0  0  0  0
   -0.6990    1.4030   22.5400 N   0  0  0  0  0  0  0  0  0  0  0  0
   -2.0890    1.3880   22.1000 C   0  0  0  0  0  0  0  0  0  0  0  0
   -2.8040    0.1480   22.6500 C   0  0  0  0  0  0  0  0  0  0  0  0
   -3.4410    0.4140   24.0130 C   0  0  0  0  0  0  0  0  0  0  0  0
   -4.5310    1.4810   23.9330 C   0  0  0  0  0  0  0  0  0  0  0  0
   -4.3000    2.4370   22.7680 C   0  0  0  0  0  0  0  0  0  0  0  0
   -2.8130    2.6770   22.5180 C   0  0  0  0  0  0  0  0  0  0  0  0
  1  2  1  0
  2  3  2  0
  2  4  1  0
  4  5  1  0
  5  6  2  0
  6  7  1  0
  7  8  2  0
  8  9  1  0
  5 10  1  0
  9 10  2  0
 10 11  1  0
 11 12  1  6
 11 13  1  0
 13 14  1  0
 14 15  1  0
 15 16  1  0
 16 17  2  0
 16 18  1  0
 18 19  1  0
 19 20  1  0
 20 21  1  0
 21 22  1  0
 22 23  1  0
 19 24  1  0
 23 24  1  0
M  END
