MAK-UNK-de9577cf-14
     RDKit          3D

 37 40  0  0  0  0  0  0  0  0999 V2000
   13.6200   -1.1680   20.7500 C   0  0  0  0  0  0  0  0  0  0  0  0
   13.0410   -2.2000   21.4820 N   0  0  0  0  0  0  0  0  0  0  0  0
   11.8600   -2.1480   20.9040 C   0  0  0  0  0  0  0  0  0  0  0  0
   10.9350   -1.5430   21.6920 C   0  0  0  0  0  0  0  0  0  0  0  0
   11.2260   -1.8880   23.0160 C   0  0  0  0  0  0  0  0  0  0  0  0
   10.4810   -1.3780   23.8560 C   0  0  2  0  0  0  0  0  0  0  0  0
   11.3190   -0.6310   24.4020 O   0  0  0  0  0  0  0  0  0  0  0  0
   12.3490   -0.0770   23.5050 C   0  0  0  0  0  0  0  0  0  0  0  0
   13.3620   -0.6220   23.0730 O   0  0  0  0  0  0  0  0  0  0  0  0
   11.9330    1.2110   23.2560 C   0  0  0  0  0  0  0  0  0  0  0  0
   10.4500    1.3530   23.4190 C   0  0  0  0  0  0  0  0  0  0  0  0
    9.9560    2.7520   23.2000 C   0  0  0  0  0  0  0  0  0  0  0  0
   10.8980    3.8740   22.8920 C   0  0  0  0  0  0  0  0  0  0  0  0
   10.2170    5.4640   22.7690 S   0  0  0  0  0  0  0  0  0  0  0  0
    8.7110    5.1480   22.1300 N   0  0  0  0  0  0  0  0  0  0  0  0
   11.0370    6.2600   21.9100 O   0  0  0  0  0  0  0  0  0  0  0  0
    9.8210    6.0920   23.9920 O   0  0  0  0  0  0  0  0  0  0  0  0
   12.2390    3.5580   22.7420 C   0  0  0  0  0  0  0  0  0  0  0  0
   12.7710    2.2710   22.9010 C   0  0  0  0  0  0  0  0  0  0  0  0
    9.7080   -2.9140   24.5480 S   0  0  0  0  0  0  0  0  0  0  0  0
    9.4320   -3.8590   23.4930 O   0  0  0  0  0  0  0  0  0  0  0  0
    8.8720   -2.7610   25.7090 O   0  0  0  0  0  0  0  0  0  0  0  0
   11.1820   -3.2900   25.1290 C   0  0  0  0  0  0  0  0  0  0  0  0
   12.2710   -2.6150   24.5770 C   0  0  0  0  0  0  0  0  0  0  0  0
   13.5860   -2.9060   25.1020 C   0  0  0  0  0  0  0  0  0  0  0  0
   13.6750   -3.8160   26.0920 C   0  0  0  0  0  0  0  0  0  0  0  0
   12.6060   -4.4500   26.5910 N   0  0  0  0  0  0  0  0  0  0  0  0
   11.3820   -4.2030   26.1220 C   0  0  0  0  0  0  0  0  0  0  0  0
    9.3970   -0.6830   22.9800 C   0  0  0  0  0  0  0  0  0  0  0  0
    8.1890   -0.0470   23.3480 C   0  0  0  0  0  0  0  0  0  0  0  0
    7.9830    1.2890   23.0190 C   0  0  0  0  0  0  0  0  0  0  0  0
    6.7850    1.9450   23.3710 C   0  0  0  0  0  0  0  0  0  0  0  0
    5.7620    1.2920   24.0550 C   0  0  0  0  0  0  0  0  0  0  0  0
    5.8690   -0.0460   24.4260 C   0  0  0  0  0  0  0  0  0  0  0  0
    7.1700   -0.7330   24.0360 C   0  0  0  0  0  0  0  0  0  0  0  0
    7.3060   -2.0230   24.3730 F   0  0  0  0  0  0  0  0  0  0  0  0
    9.7730   -0.8010   21.6880 C   0  0  0  0  0  0  0  0  0  0  0  0
  1  2  1  0
  2  3  1  0
  3  4  1  0
  4  5  2  0
  5  6  1  0
  6  7  1  1
  7  8  1  0
  8  9  2  0
  8 10  1  0
 10 11  2  0
 11 12  1  0
 12 13  2  0
 13 14  1  0
 14 15  1  0
 14 16  2  0
 14 17  2  0
 13 18  1  0
 10 19  1  0
 18 19  2  0
  6 20  1  0
 20 21  2  0
 20 22  2  0
 20 23  1  0
 23 24  2  0
 24 25  1  0
 25 26  2  0
 26 27  1  0
 23 28  1  0
 27 28  2  0
  6 29  1  0
 29 30  1  0
 30 31  2  0
 31 32  1  0
 32 33  2  0
 33 34  1  0
 30 35  1  0
 34 35  2  0
 35 36  1  0
  4 37  1  0
 29 37  2  0
M  END
