MAK-UNK-27459e11-12
     RDKit          3D

 16 16  0  0  0  0  0  0  0  0999 V2000
    6.5410   -5.1210   25.9080 C   0  0  0  0  0  0  0  0  0  0  0  0
    8.0980   -4.2670   25.9740 S   0  0  0  0  0  0  0  0  0  0  0  0
    9.1330   -5.1770   25.5510 O   0  0  0  0  0  0  0  0  0  0  0  0
    8.1440   -3.6370   27.2730 O   0  0  0  0  0  0  0  0  0  0  0  0
    7.9690   -2.9620   24.8620 N   0  0  0  0  0  0  0  0  0  0  0  0
    8.5120   -2.9250   23.6130 C   0  0  2  0  0  0  0  0  0  0  0  0
    8.8750   -1.7640   22.9930 C   0  0  0  0  0  0  0  0  0  0  0  0
   10.3310   -1.3150   22.7830 C   0  0  0  0  0  0  0  0  0  0  0  0
   10.6410    0.1070   23.2870 C   0  0  0  0  0  0  0  0  0  0  0  0
   12.0560    0.6720   23.1490 C   0  0  0  0  0  0  0  0  0  0  0  0
   13.1260   -0.1850   22.5180 C   0  0  0  0  0  0  0  0  0  0  0  0
   12.6370   -1.5730   22.0600 C   0  0  0  0  0  0  0  0  0  0  0  0
   11.3540   -2.0720   22.1870 C   0  0  0  0  0  0  0  0  0  0  0  0
    7.4340   -3.5890   22.7240 C   0  0  0  0  0  0  0  0  0  0  0  0
    6.4610   -2.8550   22.1340 N   0  0  0  0  0  0  0  0  0  0  0  0
    7.4320   -5.0520   22.5070 N   0  0  0  0  0  0  0  0  0  0  0  0
  1  2  1  0
  2  3  2  0
  2  4  2  0
  2  5  1  0
  5  6  1  0
  6  7  1  6
  7  8  1  0
  8  9  2  0
  9 10  1  0
 10 11  2  0
 11 12  1  0
  8 13  1  0
 12 13  2  0
  6 14  1  0
 14 15  2  3
 14 16  1  0
M  END
