MAK-UNK-f2409524-22
     RDKit          3D

 23 25  0  0  0  0  0  0  0  0999 V2000
    9.8940   -0.4560   22.2350 C   0  0  0  0  0  0  0  0  0  0  0  0
    8.7490    0.1570   21.5060 C   0  0  0  0  0  0  0  0  0  0  0  0
    8.8650    1.3380   21.1270 O   0  0  0  0  0  0  0  0  0  0  0  0
    7.6460   -0.5330   21.2650 N   0  0  0  0  0  0  0  0  0  0  0  0
    6.8410    0.0380   20.2840 C   0  0  0  0  0  0  0  0  0  0  0  0
    6.9970   -0.3780   18.8550 C   0  0  0  0  0  0  0  0  0  0  0  0
    6.1990    0.1660   17.7390 N   0  0  0  0  0  0  0  0  0  0  0  0
    5.1700    1.1830   18.0210 C   0  0  0  0  0  0  0  0  0  0  0  0
    4.9600    1.6420   19.4670 C   0  0  0  0  0  0  0  0  0  0  0  0
    5.8630    1.0030   20.5500 C   0  0  0  0  0  0  0  0  0  0  0  0
    5.5920    1.5000   21.7930 N   0  0  0  0  0  0  0  0  0  0  0  0
    4.3730    1.8480   22.4150 C   0  0  1  0  0  0  0  0  0  0  0  0
    4.3240    2.8460   23.3450 C   0  0  0  0  0  0  0  0  0  0  0  0
    2.9920    2.9620   24.0730 C   0  0  0  0  0  0  0  0  0  0  0  0
    1.9030    3.3820   23.1370 C   0  0  2  0  0  0  0  0  0  0  0  0
    0.6220    3.4630   23.7540 C   0  0  0  0  0  0  0  0  0  0  0  0
    0.4400    4.6100   24.5330 C   0  0  0  0  0  0  0  0  0  0  0  0
   -0.8580    4.9130   24.9300 C   0  0  0  0  0  0  0  0  0  0  0  0
   -1.8930    4.4960   24.1050 C   0  0  0  0  0  0  0  0  0  0  0  0
   -1.8070    3.2260   23.5280 C   0  0  0  0  0  0  0  0  0  0  0  0
   -0.4250    3.1680   22.8700 C   0  0  0  0  0  0  0  0  0  0  0  0
    1.8810    2.6820   21.9100 C   0  0  0  0  0  0  0  0  0  0  0  0
    3.2950    2.2290   21.3560 C   0  0  0  0  0  0  0  0  0  0  0  0
  1  2  1  0
  2  3  2  0
  2  4  1  0
  4  5  1  0
  5  6  2  0
  6  7  1  0
  7  8  2  0
  8  9  1  0
  5 10  1  0
  9 10  2  0
 10 11  1  0
 12 11  1  6
 12 13  1  0
 13 14  1  0
 14 15  1  0
 15 16  1  1
 16 17  1  0
 17 18  1  0
 18 19  1  0
 19 20  1  0
 16 21  1  0
 20 21  1  0
 15 22  1  0
 12 23  1  0
 22 23  1  0
M  END
