MAK-UNK-01147c51-14
     RDKit          3D

 21 22  0  0  0  0  0  0  0  0999 V2000
    1.8550   -3.4460   25.3610 C   0  0  0  0  0  0  0  0  0  0  0  0
    3.2800   -3.4840   24.7430 C   0  0  0  0  0  0  0  0  0  0  0  0
    3.5420   -4.6040   23.9470 C   0  0  0  0  0  0  0  0  0  0  0  0
    4.7660   -4.3420   23.2150 N   0  0  0  0  0  0  0  0  0  0  0  0
    6.0160   -4.8960   23.5170 C   0  0  0  0  0  0  0  0  0  0  0  0
    7.1670   -4.3810   22.9490 C   0  0  0  0  0  0  0  0  0  0  0  0
    8.1830   -3.8750   23.9690 C   0  0  0  0  0  0  0  0  0  0  0  0
    9.2590   -2.9850   23.3520 C   0  0  1  0  0  0  0  0  0  0  0  0
    9.2240   -1.6900   23.5280 C   0  0  0  0  0  0  0  0  0  0  0  0
   10.4980   -1.6780   23.8210 C   0  0  0  0  0  0  0  0  0  0  0  0
   11.3500   -0.7660   23.6380 C   0  0  0  0  0  0  0  0  0  0  0  0
   12.6720   -0.5240   23.8280 C   0  0  0  0  0  0  0  0  0  0  0  0
   13.3190   -1.5850   24.4310 C   0  0  0  0  0  0  0  0  0  0  0  0
   12.5990   -2.8070   24.8120 C   0  0  0  0  0  0  0  0  0  0  0  0
   13.2580   -3.6640   25.3650 O   0  0  0  0  0  0  0  0  0  0  0  0
   11.0890   -2.8440   24.4510 C   0  0  0  0  0  0  0  0  0  0  0  0
   10.5100   -3.8820   24.7420 O   0  0  0  0  0  0  0  0  0  0  0  0
   11.7210   -2.0270   24.1320 C   0  0  2  0  0  0  0  0  0  0  0  0
   12.9960   -2.5010   23.3400 C   0  0  0  0  0  0  0  0  0  0  0  0
   12.7670   -2.5830   21.8760 N   0  0  0  0  0  0  0  0  0  0  0  0
   10.6500   -3.1770   23.9460 O   0  0  0  0  0  0  0  0  0  0  0  0
  1  2  1  0
  2  3  1  0
  3  4  1  0
  4  5  1  0
  5  6  1  0
  6  7  1  0
  8  7  1  1
  8  9  1  0
  9 10  1  0
 10 11  2  0
 11 12  1  0
 12 13  2  0
 13 14  1  0
 14 15  1  0
 10 16  1  0
 14 16  2  0
 16 17  1  0
 11 18  1  0
 18 19  1  6
 19 20  1  0
  8 21  1  0
 18 21  1  0
M  END
