MAK-UNK-194150d3-2
     RDKit          3D

 17 18  0  0  0  0  0  0  0  0999 V2000
   13.2550   -1.9740   23.3910 C   0  0  0  0  0  0  0  0  0  0  0  0
   12.7100   -1.8270   22.1310 C   0  0  0  0  0  0  0  0  0  0  0  0
   11.3920   -1.3590   21.9820 C   0  0  0  0  0  0  0  0  0  0  0  0
   10.5890   -1.0220   23.1650 C   0  0  0  0  0  0  0  0  0  0  0  0
    9.1660   -0.4950   23.0720 C   0  0  0  0  0  0  0  0  0  0  0  0
    8.6390   -0.4080   21.7710 C   0  0  0  0  0  0  0  0  0  0  0  0
    7.2250   -0.8410   21.7260 N   0  0  0  0  0  0  0  0  0  0  0  0
    6.3500   -0.2510   20.6990 C   0  0  0  0  0  0  0  0  0  0  0  0
    7.1810   -0.2950   19.0980 S   0  0  0  0  0  0  0  0  0  0  0  0
    6.0270    0.4010   17.9350 C   0  0  0  0  0  0  0  0  0  0  0  0
    5.6320    1.2760   18.8040 C   0  0  0  0  0  0  0  0  0  0  0  0
    5.8800    1.6100   20.0260 N   0  0  0  0  0  0  0  0  0  0  0  0
    4.9640    2.4810   19.7280 C   0  0  0  0  0  0  0  0  0  0  0  0
    4.5350    2.2900   18.3880 C   0  0  0  0  0  0  0  0  0  0  0  0
    5.0480    1.2790   17.5080 N   0  0  0  0  0  0  0  0  0  0  0  0
   11.2040   -1.2140   24.3950 C   0  0  0  0  0  0  0  0  0  0  0  0
   12.5120   -1.6720   24.5170 C   0  0  0  0  0  0  0  0  0  0  0  0
  1  2  2  0
  2  3  1  0
  3  4  2  0
  4  5  1  0
  5  6  1  0
  6  7  1  0
  7  8  1  0
  8  9  1  0
  9 10  1  0
 10 11  2  0
 11 12  1  0
 12 13  2  0
 13 14  1  0
 10 15  1  0
 14 15  2  0
  4 16  1  0
  1 17  1  0
 16 17  2  0
M  END
