MAK-UNK-0d6072ac-35
     RDKit          3D

 19 21  0  0  0  0  0  0  0  0999 V2000
    6.1190   -5.2530   21.6530 C   0  0  0  0  0  0  0  0  0  0  0  0
    6.4610   -5.7810   23.0210 C   0  0  2  0  0  0  0  0  0  0  0  0
    5.3240   -5.8920   23.9860 C   0  0  0  0  0  0  0  0  0  0  0  0
    4.9090   -4.9170   24.5910 O   0  0  0  0  0  0  0  0  0  0  0  0
    4.8640   -7.0770   24.0960 O   0  0  0  0  0  0  0  0  0  0  0  0
    7.7500   -5.1280   23.6180 C   0  0  0  0  0  0  0  0  0  0  0  0
    8.4250   -5.6750   24.5450 C   0  0  0  0  0  0  0  0  0  0  0  0
    9.1710   -4.5260   24.3000 N   0  0  0  0  0  0  0  0  0  0  0  0
   10.3030   -4.0370   24.7530 C   0  0  0  0  0  0  0  0  0  0  0  0
   10.0160   -3.0250   23.8830 C   0  0  0  0  0  0  0  0  0  0  0  0
    8.5730   -3.7000   23.2700 C   0  0  0  0  0  0  0  0  0  0  0  0
    9.7530   -2.0990   23.0870 N   0  0  0  0  0  0  0  0  0  0  0  0
   10.9890   -1.7470   23.7140 C   0  0  0  0  0  0  0  0  0  0  0  0
   11.8480   -0.6180   23.5690 C   0  0  0  0  0  0  0  0  0  0  0  0
   13.0190   -0.5630   24.3390 C   0  0  0  0  0  0  0  0  0  0  0  0
   13.1540   -1.7500   25.1990 C   0  0  0  0  0  0  0  0  0  0  0  0
   11.7340   -1.8910   24.3070 Cl  0  0  0  0  0  0  0  0  0  0  0  0
   12.5030   -2.8520   25.4590 N   0  0  0  0  0  0  0  0  0  0  0  0
   11.3430   -2.9130   24.7180 C   0  0  0  0  0  0  0  0  0  0  0  0
  2  1  1  6
  2  3  1  0
  3  4  2  0
  3  5  1  0
  2  6  1  0
  6  7  2  0
  7  8  1  0
  8  9  2  0
  9 10  1  0
  6 11  1  0
 10 11  2  0
 10 12  1  0
 12 13  1  0
 13 14  1  0
 14 15  2  0
 15 16  1  0
 16 17  1  0
 16 18  2  0
  9 19  1  0
 13 19  2  0
 18 19  1  0
M  END
