MAK-UNK-9a6be56d-29
     RDKit          3D

 38 42  0  0  0  0  0  0  0  0999 V2000
    7.9070   -2.3130   23.5080 C   0  0  0  0  0  0  0  0  0  0  0  0
    9.1830   -2.1000   22.9130 N   0  0  0  0  0  0  0  0  0  0  0  0
   10.2040   -2.8680   23.4510 C   0  0  0  0  0  0  0  0  0  0  0  0
   11.5010   -2.7220   22.7810 C   0  0  0  0  0  0  0  0  0  0  0  0
   12.0870   -1.4160   23.1000 C   0  0  1  0  0  0  0  0  0  0  0  0
   13.1040   -0.9010   22.1510 N   0  0  0  0  0  0  0  0  0  0  0  0
   13.4250   -1.2480   20.7410 C   0  0  0  0  0  0  0  0  0  0  0  0
   14.2010   -0.4250   19.6690 C   0  0  0  0  0  0  0  0  0  0  0  0
   15.0210   -1.0720   19.2240 C   0  0  0  0  0  0  0  0  0  0  0  0
   15.9280   -0.5550   18.3140 C   0  0  0  0  0  0  0  0  0  0  0  0
   17.0240   -1.1520   17.9680 C   0  0  0  0  0  0  0  0  0  0  0  0
   17.9980   -0.2090   18.3920 C   0  0  0  0  0  0  0  0  0  0  0  0
   19.2240   -0.6050   18.2530 C   0  0  0  0  0  0  0  0  0  0  0  0
   19.4130   -1.6720   17.7680 C   0  0  0  0  0  0  0  0  0  0  0  0
   18.4880   -2.4190   17.3880 C   0  0  0  0  0  0  0  0  0  0  0  0
   17.3170   -2.1640   17.4980 C   0  0  0  0  0  0  0  0  0  0  0  0
   16.5430   -2.8680   17.1850 F   0  0  0  0  0  0  0  0  0  0  0  0
   15.6090    0.4450   18.0020 N   0  0  0  0  0  0  0  0  0  0  0  0
   16.3220    1.3070   16.8480 S   0  0  0  0  0  0  0  0  0  0  0  0
   17.6820    0.9060   17.0660 O   0  0  0  0  0  0  0  0  0  0  0  0
   15.5440    0.7560   15.8370 O   0  0  0  0  0  0  0  0  0  0  0  0
   15.6550    2.1790   18.1140 C   0  0  0  0  0  0  0  0  0  0  0  0
   15.3620    3.4940   18.2320 C   0  0  0  0  0  0  0  0  0  0  0  0
   14.9970    3.8320   19.4620 C   0  0  0  0  0  0  0  0  0  0  0  0
   14.9080    2.8100   20.4000 C   0  0  0  0  0  0  0  0  0  0  0  0
   15.0950    1.5670   20.2110 N   0  0  0  0  0  0  0  0  0  0  0  0
   15.5020    1.2770   19.0520 C   0  0  0  0  0  0  0  0  0  0  0  0
   14.5980    0.7360   18.7990 C   0  0  0  0  0  0  0  0  0  0  0  0
   10.7930   -0.5950   23.1750 C   0  0  0  0  0  0  0  0  0  0  0  0
   11.0160    0.4890   23.4060 C   0  0  0  0  0  0  0  0  0  0  0  0
   10.1280    1.5600   23.4940 C   0  0  0  0  0  0  0  0  0  0  0  0
    8.8250    1.5590   23.3550 C   0  0  0  0  0  0  0  0  0  0  0  0
    8.2020    3.2730   23.5820 S   0  0  0  0  0  0  0  0  0  0  0  0
    9.4000    4.1820   24.3960 N   0  0  0  0  0  0  0  0  0  0  0  0
    7.2410    3.3460   24.6360 O   0  0  0  0  0  0  0  0  0  0  0  0
    8.0760    3.9460   22.3210 O   0  0  0  0  0  0  0  0  0  0  0  0
    8.4220    0.2560   23.1250 C   0  0  0  0  0  0  0  0  0  0  0  0
    9.4600   -0.8110   23.0580 C   0  0  0  0  0  0  0  0  0  0  0  0
  1  2  1  0
  2  3  1  0
  3  4  1  0
  4  5  1  0
  5  6  1  6
  6  7  1  0
  7  8  1  0
  8  9  1  0
  9 10  2  0
 10 11  1  0
 11 12  2  0
 12 13  1  0
 13 14  2  0
 14 15  1  0
 11 16  1  0
 15 16  2  0
 16 17  1  0
 10 18  1  0
 18 19  1  0
 19 20  2  0
 19 21  2  0
 19 22  1  0
 22 23  2  0
 23 24  1  0
 24 25  2  0
 25 26  1  0
 22 27  1  0
 26 27  2  0
  8 28  2  0
 18 28  1  0
  5 29  1  0
 29 30  1  0
 30 31  2  0
 31 32  1  0
 32 33  1  0
 33 34  1  0
 33 35  2  0
 33 36  2  0
 32 37  2  0
  2 38  1  0
 29 38  2  0
 37 38  1  0
M  END
