MAK-UNK-8145c7a0-9
     RDKit          3D

 26 28  0  0  0  0  0  0  0  0999 V2000
    5.7680   -7.1770   29.8680 C   0  0  0  0  0  0  0  0  0  0  0  0
    5.7800   -5.7380   28.8120 S   0  0  0  0  0  0  0  0  0  0  0  0
    4.4750   -5.6390   28.1980 O   0  0  0  0  0  0  0  0  0  0  0  0
    6.3200   -4.6130   29.5330 O   0  0  0  0  0  0  0  0  0  0  0  0
    6.9360   -6.1350   27.6200 N   0  0  0  0  0  0  0  0  0  0  0  0
    7.7450   -5.2200   27.0310 C   0  0  0  0  0  0  0  0  0  0  0  0
    7.9600   -5.2280   25.7030 C   0  0  1  0  0  0  0  0  0  0  0  0
    6.8420   -5.6080   24.7310 C   0  0  0  0  0  0  0  0  0  0  0  0
    5.4340   -5.6590   25.3860 C   0  0  0  0  0  0  0  0  0  0  0  0
    4.2200   -6.0320   24.5440 C   0  0  0  0  0  0  0  0  0  0  0  0
    4.4360   -6.3470   23.0560 C   0  0  0  0  0  0  0  0  0  0  0  0
    5.9090   -6.2410   22.5780 C   0  0  0  0  0  0  0  0  0  0  0  0
    7.0030   -5.9030   23.3450 C   0  0  0  0  0  0  0  0  0  0  0  0
    8.2660   -3.8140   25.1800 C   0  0  0  0  0  0  0  0  0  0  0  0
    8.3770   -2.6710   25.9020 N   0  0  0  0  0  0  0  0  0  0  0  0
    8.6260   -1.6000   25.1250 N   0  0  0  0  0  0  0  0  0  0  0  0
    8.7120   -1.9810   23.7050 C   0  0  0  0  0  0  0  0  0  0  0  0
    8.9740   -0.9980   22.5630 C   0  0  0  0  0  0  0  0  0  0  0  0
   10.3000   -0.7570   22.3280 N   0  0  0  0  0  0  0  0  0  0  0  0
   10.8340    0.1140   23.3700 C   0  0  0  0  0  0  0  0  0  0  0  0
   12.0940    0.5970   23.0130 C   0  0  0  0  0  0  0  0  0  0  0  0
   12.8790   -0.3390   22.4250 C   0  0  0  0  0  0  0  0  0  0  0  0
   12.3810   -1.5420   22.0020 C   0  0  0  0  0  0  0  0  0  0  0  0
   13.2370   -2.3870   21.4180 F   0  0  0  0  0  0  0  0  0  0  0  0
   11.0300   -1.9010   22.1500 C   0  0  0  0  0  0  0  0  0  0  0  0
    8.4660   -3.6720   23.4760 S   0  0  0  0  0  0  0  0  0  0  0  0
  1  2  1  0
  2  3  2  0
  2  4  2  0
  2  5  1  0
  5  6  1  0
  7  6  1  1
  7  8  1  0
  8  9  2  0
  9 10  1  0
 10 11  2  0
 11 12  1  0
  8 13  1  0
 12 13  2  0
  7 14  1  0
 14 15  2  0
 15 16  1  0
 16 17  2  0
 17 18  1  0
 18 19  1  0
 19 20  1  0
 20 21  1  0
 21 22  1  0
 22 23  2  0
 23 24  1  0
 19 25  1  0
 23 25  1  0
 14 26  1  0
 17 26  1  0
M  END
