MAK-UNK-0955449e-16
     RDKit          3D

 27 30  0  0  0  0  0  0  0  0999 V2000
    6.0850   -1.3400   18.5920 C   0  0  0  0  0  0  0  0  0  0  0  0
    6.6280   -1.8840   19.7960 N   0  0  0  0  0  0  0  0  0  0  0  0
    5.9660   -2.8940   20.4490 C   0  0  0  0  0  0  0  0  0  0  0  0
    6.6940   -3.3940   21.6770 C   0  0  0  0  0  0  0  0  0  0  0  0
    7.7510   -3.3540   22.6570 C   0  0  0  0  0  0  0  0  0  0  0  0
    8.2090   -4.1650   23.9860 C   0  0  0  0  0  0  0  0  0  0  0  0
    7.0140   -5.1210   23.9260 C   0  0  0  0  0  0  0  0  0  0  0  0
    6.0970   -5.0900   25.1680 C   0  0  0  0  0  0  0  0  0  0  0  0
    4.8990   -6.0090   25.0590 C   0  0  0  0  0  0  0  0  0  0  0  0
    4.6660   -6.8490   23.8230 C   0  0  0  0  0  0  0  0  0  0  0  0
    5.5980   -6.7390   22.8070 C   0  0  0  0  0  0  0  0  0  0  0  0
    6.7130   -5.9270   22.8510 C   0  0  0  0  0  0  0  0  0  0  0  0
    7.4750   -5.9590   21.7740 F   0  0  0  0  0  0  0  0  0  0  0  0
    8.3380   -3.3360   23.2120 N   0  0  0  0  0  0  0  0  0  0  0  0
    9.2380   -2.1680   22.8570 C   0  0  2  0  0  0  0  0  0  0  0  0
   10.4890   -2.0350   23.5160 C   0  0  0  0  0  0  0  0  0  0  0  0
   11.1840   -0.8130   23.4480 C   0  0  0  0  0  0  0  0  0  0  0  0
   12.4370   -0.5610   24.0670 C   0  0  0  0  0  0  0  0  0  0  0  0
   13.0670   -1.7170   24.8580 C   0  0  0  0  0  0  0  0  0  0  0  0
   12.3220   -3.0080   24.9200 C   0  0  0  0  0  0  0  0  0  0  0  0
   11.0600   -3.0940   24.2450 C   0  0  0  0  0  0  0  0  0  0  0  0
    8.5210   -0.8650   23.0370 C   0  0  0  0  0  0  0  0  0  0  0  0
    7.7770   -0.3740   24.2520 C   0  0  0  0  0  0  0  0  0  0  0  0
    7.3390    0.8560   23.8620 N   0  0  0  0  0  0  0  0  0  0  0  0
    7.7210    1.1480   22.6050 N   0  0  0  0  0  0  0  0  0  0  0  0
    8.4270    0.1330   22.0970 N   0  0  0  0  0  0  0  0  0  0  0  0
    6.9080   -4.1190   22.6420 C   0  0  0  0  0  0  0  0  0  0  0  0
  1  2  1  0
  2  3  1  0
  3  4  1  0
  4  5  1  0
  5  6  2  0
  6  7  1  0
  7  8  2  0
  8  9  1  0
  9 10  2  0
 10 11  1  0
  7 12  1  0
 11 12  2  0
 12 13  1  0
  6 14  1  0
 14 15  1  0
 15 16  1  1
 16 17  2  0
 17 18  1  0
 18 19  2  0
 19 20  1  0
 16 21  1  0
 20 21  2  0
 15 22  1  0
 22 23  2  0
 23 24  1  0
 24 25  1  0
 22 26  1  0
 25 26  2  0
  4 27  2  0
 14 27  1  0
M  END
