MAK-UNK-198e6d85-8
     RDKit          3D

 31 35  0  0  0  0  0  0  0  0999 V2000
    4.6460   -5.6490   22.4030 N   0  0  0  0  0  0  0  0  0  0  0  0
    3.8490   -6.6680   23.1100 C   0  0  0  0  0  0  0  0  0  0  0  0
    2.9520   -6.1070   24.1650 C   0  0  2  0  0  0  0  0  0  0  0  0
    3.3880   -5.1820   24.8370 O   0  0  0  0  0  0  0  0  0  0  0  0
    4.1380   -5.5580   26.0050 C   0  0  1  0  0  0  0  0  0  0  0  0
    5.1470   -4.4760   26.1920 C   0  0  1  0  0  0  0  0  0  0  0  0
    5.1580   -3.6920   27.3180 C   0  0  0  0  0  0  0  0  0  0  0  0
    5.9490   -2.4020   27.1490 C   0  0  0  0  0  0  0  0  0  0  0  0
    6.9040   -2.5020   25.9280 C   0  0  0  0  0  0  0  0  0  0  0  0
    7.2930   -3.8880   25.4040 C   0  0  1  0  0  0  0  0  0  0  0  0
    8.6360   -4.2510   25.2620 N   0  0  0  0  0  0  0  0  0  0  0  0
    9.5640   -3.3290   24.7330 C   0  0  0  0  0  0  0  0  0  0  0  0
    8.5730   -2.9970   24.0590 C   0  0  0  0  0  0  0  0  0  0  0  0
    9.7650   -2.2630   23.8270 C   0  0  0  0  0  0  0  0  0  0  0  0
   10.8380   -2.9980   24.8590 C   0  0  0  0  0  0  0  0  0  0  0  0
   12.1570   -3.0880   25.4210 C   0  0  0  0  0  0  0  0  0  0  0  0
   13.3060   -2.3080   25.1780 C   0  0  0  0  0  0  0  0  0  0  0  0
   13.2520   -1.1840   24.1910 C   0  0  0  0  0  0  0  0  0  0  0  0
   12.0140   -1.1150   23.6670 C   0  0  0  0  0  0  0  0  0  0  0  0
   11.0400   -1.9840   24.0560 C   0  0  0  0  0  0  0  0  0  0  0  0
    9.8460   -2.1540   23.7580 N   0  0  0  0  0  0  0  0  0  0  0  0
    6.5900   -4.9430   25.9610 C   0  0  0  0  0  0  0  0  0  0  0  0
    3.2180   -5.9100   27.0010 C   0  0  0  0  0  0  0  0  0  0  0  0
    2.5720   -7.0660   26.5620 C   0  0  0  0  0  0  0  0  0  0  0  0
    2.4240   -7.2010   25.0770 C   0  0  0  0  0  0  0  0  0  0  0  0
    1.7990   -8.3410   24.5750 C   0  0  0  0  0  0  0  0  0  0  0  0
    1.3170   -9.3380   25.4260 C   0  0  0  0  0  0  0  0  0  0  0  0
    1.4560   -9.1970   26.8160 C   0  0  0  0  0  0  0  0  0  0  0  0
    0.9940  -10.1700   27.6500 O   0  0  0  0  0  0  0  0  0  0  0  0
    2.0750   -8.0740   27.3780 C   0  0  0  0  0  0  0  0  0  0  0  0
    2.1550   -8.0460   28.7470 O   0  0  0  0  0  0  0  0  0  0  0  0
  1  2  1  0
  3  2  1  1
  3  4  1  0
  4  5  1  0
  5  6  1  0
  6  7  1  1
  7  8  1  0
  8  9  1  0
  9 10  1  0
 10 11  1  1
 11 12  1  0
 12 13  2  0
 13 14  1  0
 14 15  2  0
 15 16  1  0
 16 17  2  0
 17 18  1  0
 18 19  2  0
 15 20  1  0
 19 20  1  0
 12 21  1  0
 20 21  2  0
  6 22  1  0
 10 22  1  0
  5 23  1  1
 23 24  1  0
  3 25  1  0
 24 25  2  0
 25 26  1  0
 26 27  2  0
 27 28  1  0
 28 29  1  0
 24 30  1  0
 28 30  2  0
 30 31  1  0
M  END
