MAK-UNK-9a6be56d-7
     RDKit          3D

 38 42  0  0  0  0  0  0  0  0999 V2000
   11.2730    6.0790   23.0270 N   0  0  0  0  0  0  0  0  0  0  0  0
   10.1010    4.9800   23.6120 S   0  0  0  0  0  0  0  0  0  0  0  0
    9.8660    5.3720   24.9810 O   0  0  0  0  0  0  0  0  0  0  0  0
    9.0090    5.0080   22.6750 O   0  0  0  0  0  0  0  0  0  0  0  0
   10.9530    3.4170   23.4930 C   0  0  0  0  0  0  0  0  0  0  0  0
   12.3740    3.3540   22.9320 C   0  0  0  0  0  0  0  0  0  0  0  0
   12.9550    2.1020   22.8810 C   0  0  0  0  0  0  0  0  0  0  0  0
   12.3870    0.9060   23.2710 C   0  0  0  0  0  0  0  0  0  0  0  0
   11.1260    0.8470   23.7950 C   0  0  0  0  0  0  0  0  0  0  0  0
   10.3660    2.1950   23.9070 C   0  0  0  0  0  0  0  0  0  0  0  0
   10.6560   -0.3620   24.1730 N   0  0  0  0  0  0  0  0  0  0  0  0
    9.2170   -0.5150   24.2010 C   0  0  0  0  0  0  0  0  0  0  0  0
    8.3330    0.2910   25.0350 N   0  0  0  0  0  0  0  0  0  0  0  0
    7.1070   -0.1220   25.4440 C   0  0  0  0  0  0  0  0  0  0  0  0
    6.3930    0.9380   26.0090 C   0  0  0  0  0  0  0  0  0  0  0  0
    5.5610    1.7750   25.3030 C   0  0  0  0  0  0  0  0  0  0  0  0
    4.9880    2.7400   26.1190 C   0  0  0  0  0  0  0  0  0  0  0  0
    4.0900    3.7370   25.6680 C   0  0  0  0  0  0  0  0  0  0  0  0
    2.9860    4.2450   26.5170 C   0  0  0  0  0  0  0  0  0  0  0  0
    2.0570    5.3040   25.9980 C   0  0  0  0  0  0  0  0  0  0  0  0
    2.2090    5.8350   24.7070 C   0  0  0  0  0  0  0  0  0  0  0  0
    3.3360    5.3950   23.6830 C   0  0  0  0  0  0  0  0  0  0  0  0
    4.2300    4.2790   24.3700 C   0  0  0  0  0  0  0  0  0  0  0  0
    5.2290    3.8140   23.6030 F   0  0  0  0  0  0  0  0  0  0  0  0
    5.4900    2.4790   27.3670 N   0  0  0  0  0  0  0  0  0  0  0  0
    5.2030    3.2980   28.8510 S   0  0  0  0  0  0  0  0  0  0  0  0
    6.3550    3.1150   29.7400 O   0  0  0  0  0  0  0  0  0  0  0  0
    3.8910    2.8720   29.3130 O   0  0  0  0  0  0  0  0  0  0  0  0
    5.1560    4.9950   28.3960 C   0  0  0  0  0  0  0  0  0  0  0  0
    5.8050    5.4480   27.2510 C   0  0  0  0  0  0  0  0  0  0  0  0
    5.7410    6.8000   26.9360 C   0  0  0  0  0  0  0  0  0  0  0  0
    5.0310    7.6540   27.7760 C   0  0  0  0  0  0  0  0  0  0  0  0
    4.3920    7.2350   28.8950 N   0  0  0  0  0  0  0  0  0  0  0  0
    4.4670    5.9080   29.1850 C   0  0  0  0  0  0  0  0  0  0  0  0
    6.3260    1.4010   27.3050 C   0  0  0  0  0  0  0  0  0  0  0  0
   11.4550   -1.5690   23.8720 C   0  0  0  0  0  0  0  0  0  0  0  0
   12.2780   -1.4080   22.7570 C   0  0  0  0  0  0  0  0  0  0  0  0
   13.1630   -0.3690   23.1230 C   0  0  0  0  0  0  0  0  0  0  0  0
  2  1  1  0
  2  3  2  0
  2  4  2  0
  2  5  1  0
  5  6  2  0
  6  7  1  0
  7  8  2  0
  8  9  1  0
  5 10  1  0
  9 10  2  0
  9 11  1  0
 11 12  1  0
 12 13  1  0
 13 14  1  0
 14 15  1  0
 15 16  1  0
 16 17  2  0
 17 18  1  0
 18 19  2  0
 19 20  1  0
 20 21  2  0
 21 22  1  0
 18 23  1  0
 22 23  2  0
 23 24  1  0
 17 25  1  0
 25 26  1  0
 26 27  2  0
 26 28  2  0
 26 29  1  0
 29 30  2  0
 30 31  1  0
 31 32  2  0
 32 33  1  0
 29 34  1  0
 33 34  2  0
 15 35  2  0
 25 35  1  0
 11 36  1  0
 36 37  1  0
  8 38  1  0
 37 38  1  0
M  END
