MAK-UNK-b2c98f02-2
     RDKit          3D

 28 30  0  0  0  0  0  0  0  0999 V2000
    9.2010    1.1450   21.3710 O   0  0  0  0  0  0  0  0  0  0  0  0
    8.5960    0.1110   21.7290 C   0  0  0  0  0  0  0  0  0  0  0  0
    9.2580   -0.8600   22.6580 C   0  0  0  0  0  0  0  0  0  0  0  0
   10.5780   -0.9690   22.5560 C   0  0  0  0  0  0  0  0  0  0  0  0
   11.2010   -2.2710   22.2350 C   0  0  0  0  0  0  0  0  0  0  0  0
   12.7040   -2.0370   21.9660 C   0  0  0  0  0  0  0  0  0  0  0  0
   13.0640   -0.6970   22.5970 C   0  0  0  0  0  0  0  0  0  0  0  0
   12.4780   -0.4810   23.7990 C   0  0  0  0  0  0  0  0  0  0  0  0
   11.1090   -0.3480   23.6400 C   0  0  0  0  0  0  0  0  0  0  0  0
    7.3090   -0.2540   21.3490 N   0  0  0  0  0  0  0  0  0  0  0  0
    6.6600    0.2470   20.2330 C   0  0  0  0  0  0  0  0  0  0  0  0
    7.0520   -0.1670   18.9510 C   0  0  0  0  0  0  0  0  0  0  0  0
    6.3840    0.3590   17.8660 N   0  0  0  0  0  0  0  0  0  0  0  0
    5.3430    1.2730   17.9510 C   0  0  0  0  0  0  0  0  0  0  0  0
    4.9430    1.6910   19.3290 C   0  0  0  0  0  0  0  0  0  0  0  0
    5.6140    1.1670   20.4040 C   0  0  0  0  0  0  0  0  0  0  0  0
    5.0790    1.7260   22.0080 S   0  0  0  0  0  0  0  0  0  0  0  0
    5.6960    0.9080   23.0240 O   0  0  0  0  0  0  0  0  0  0  0  0
    5.1980    3.1700   22.0390 O   0  0  0  0  0  0  0  0  0  0  0  0
    3.4390    1.3880   22.0380 N   0  0  0  0  0  0  0  0  0  0  0  0
    2.4690    2.4000   21.5640 C   0  0  0  0  0  0  0  0  0  0  0  0
    1.5200    1.8200   20.7600 C   0  0  0  0  0  0  0  0  0  0  0  0
    0.0590    2.2860   20.5750 C   0  0  0  0  0  0  0  0  0  0  0  0
   -0.2990    3.6070   20.1940 C   0  0  0  0  0  0  0  0  0  0  0  0
   -1.6550    3.8990   20.0580 C   0  0  0  0  0  0  0  0  0  0  0  0
   -2.6920    3.0510   20.2510 C   0  0  0  0  0  0  0  0  0  0  0  0
   -2.3880    1.6310   20.6580 C   0  0  0  0  0  0  0  0  0  0  0  0
   -0.9300    1.3240   20.8020 C   0  0  0  0  0  0  0  0  0  0  0  0
  1  2  2  0
  2  3  1  0
  3  4  1  0
  4  5  1  0
  5  6  1  0
  6  7  1  0
  7  8  1  0
  4  9  1  0
  8  9  1  0
  2 10  1  0
 10 11  1  0
 11 12  2  0
 12 13  1  0
 13 14  2  0
 14 15  1  0
 11 16  1  0
 15 16  2  0
 16 17  1  0
 17 18  2  0
 17 19  2  0
 17 20  1  0
 20 21  1  0
 21 22  1  0
 22 23  1  0
 23 24  2  0
 24 25  1  0
 25 26  2  0
 26 27  1  0
 23 28  1  0
 27 28  2  0
M  END
