MAK-UNK-de9577cf-5
     RDKit          3D

 37 40  0  0  0  0  0  0  0  0999 V2000
   12.3880   -1.7140   21.6560 C   0  0  0  0  0  0  0  0  0  0  0  0
   12.7100   -0.4490   22.1920 N   0  0  0  0  0  0  0  0  0  0  0  0
   11.8690    0.6770   22.5770 C   0  0  0  0  0  0  0  0  0  0  0  0
   10.4870    0.5650   22.2890 C   0  0  0  0  0  0  0  0  0  0  0  0
    9.8870   -0.5400   22.5890 C   0  0  0  0  0  0  0  0  0  0  0  0
    8.6370   -0.6560   22.3320 C   0  0  0  0  0  0  0  0  0  0  0  0
    8.2190   -1.9680   22.7840 C   0  0  0  0  0  0  0  0  0  0  0  0
    6.7980   -2.4310   22.5880 C   0  0  0  0  0  0  0  0  0  0  0  0
    6.4430   -3.6800   23.0470 C   0  0  0  0  0  0  0  0  0  0  0  0
    7.3850   -4.4760   23.6750 C   0  0  0  0  0  0  0  0  0  0  0  0
    8.7130   -4.0820   23.8760 C   0  0  0  0  0  0  0  0  0  0  0  0
    9.2500   -2.8710   23.4770 C   0  0  0  0  0  0  0  0  0  0  0  0
   10.6960   -2.4960   23.6980 C   0  0  0  0  0  0  0  0  0  0  0  0
   11.0900   -1.1510   23.9090 O   0  0  0  0  0  0  0  0  0  0  0  0
   12.3350   -0.7850   23.3530 C   0  0  0  0  0  0  0  0  0  0  0  0
   13.4280   -0.1370   22.8100 O   0  0  0  0  0  0  0  0  0  0  0  0
   11.8280    0.7240   23.2670 C   0  0  0  0  0  0  0  0  0  0  0  0
   10.4180    0.9570   23.3700 C   0  0  0  0  0  0  0  0  0  0  0  0
    9.7350    2.3850   23.4120 C   0  0  0  0  0  0  0  0  0  0  0  0
   10.8960    3.4290   23.3110 C   0  0  0  0  0  0  0  0  0  0  0  0
   10.4350    5.1560   23.4500 S   0  0  0  0  0  0  0  0  0  0  0  0
    9.0090    5.2590   22.5930 N   0  0  0  0  0  0  0  0  0  0  0  0
   11.3950    6.0020   22.7830 O   0  0  0  0  0  0  0  0  0  0  0  0
   10.0620    5.3930   24.8330 O   0  0  0  0  0  0  0  0  0  0  0  0
   12.2400    3.1240   23.1520 C   0  0  0  0  0  0  0  0  0  0  0  0
   12.7170    1.8060   23.1270 C   0  0  0  0  0  0  0  0  0  0  0  0
    8.2430    0.5210   21.7430 N   0  0  0  0  0  0  0  0  0  0  0  0
    6.6900    0.9580   21.1490 S   0  0  0  0  0  0  0  0  0  0  0  0
    5.8090   -0.1040   21.5920 O   0  0  0  0  0  0  0  0  0  0  0  0
    6.8390    1.2480   19.7390 O   0  0  0  0  0  0  0  0  0  0  0  0
    6.1720    2.4470   21.9040 C   0  0  0  0  0  0  0  0  0  0  0  0
    6.9390    3.6040   21.8660 C   0  0  0  0  0  0  0  0  0  0  0  0
    6.4460    4.7560   22.4850 C   0  0  0  0  0  0  0  0  0  0  0  0
    5.2550    4.7070   23.0960 C   0  0  0  0  0  0  0  0  0  0  0  0
    4.4720    3.5980   23.1600 N   0  0  0  0  0  0  0  0  0  0  0  0
    4.9530    2.4840   22.5570 C   0  0  0  0  0  0  0  0  0  0  0  0
    9.4090    1.3240   21.7200 C   0  0  0  0  0  0  0  0  0  0  0  0
  1  2  1  0
  2  3  1  0
  3  4  1  0
  4  5  1  0
  5  6  2  0
  6  7  1  0
  7  8  2  0
  8  9  1  0
  9 10  2  0
 10 11  1  0
  7 12  1  0
 11 12  2  0
 12 13  1  0
 13 14  1  0
 14 15  1  0
 15 16  2  0
 15 17  1  0
 17 18  2  0
 18 19  1  0
 19 20  2  0
 20 21  1  0
 21 22  1  0
 21 23  2  0
 21 24  2  0
 20 25  1  0
 17 26  1  0
 25 26  2  0
  6 27  1  0
 27 28  1  0
 28 29  2  0
 28 30  2  0
 28 31  1  0
 31 32  2  0
 32 33  1  0
 33 34  2  0
 34 35  1  0
 31 36  1  0
 35 36  2  0
  4 37  2  0
 27 37  1  0
M  END
