MAK-UNK-60abb798-4
     RDKit          3D

 22 24  0  0  0  0  0  0  0  0999 V2000
   13.0590   -1.4950   22.3700 N   0  0  0  0  0  0  0  0  0  0  0  0
   12.6460   -2.5120   23.3580 C   0  0  0  0  0  0  0  0  0  0  0  0
   11.6660   -2.1640   24.2530 C   0  0  2  0  0  0  0  0  0  0  0  0
   10.5180   -3.2460   24.1840 O   0  0  0  0  0  0  0  0  0  0  0  0
    9.3070   -2.9900   23.3250 C   0  0  1  0  0  0  0  0  0  0  0  0
    8.0480   -3.9400   23.2090 C   0  0  1  0  0  0  0  0  0  0  0  0
    7.4220   -4.6310   24.2060 C   0  0  0  0  0  0  0  0  0  0  0  0
    6.5540   -5.6450   23.7270 C   0  0  0  0  0  0  0  0  0  0  0  0
    5.7100   -5.4200   22.6080 C   0  0  0  0  0  0  0  0  0  0  0  0
    6.4170   -4.6340   21.5090 C   0  0  1  0  0  0  0  0  0  0  0  0
    5.5640   -4.2040   20.4200 O   0  0  0  0  0  0  0  0  0  0  0  0
    7.0720   -3.4320   22.1510 C   0  0  1  0  0  0  0  0  0  0  0  0
    6.0480   -2.6040   22.7300 O   0  0  0  0  0  0  0  0  0  0  0  0
    9.0930   -1.6470   23.7980 C   0  0  0  0  0  0  0  0  0  0  0  0
   10.4110   -1.6850   24.0290 C   0  0  0  0  0  0  0  0  0  0  0  0
   11.2690   -0.7530   23.8270 C   0  0  0  0  0  0  0  0  0  0  0  0
   12.5960   -0.4610   23.9190 C   0  0  0  0  0  0  0  0  0  0  0  0
   13.2960   -1.5200   24.4310 C   0  0  0  0  0  0  0  0  0  0  0  0
   12.5540   -2.7230   24.7900 C   0  0  0  0  0  0  0  0  0  0  0  0
   13.3390   -3.6870   25.3320 O   0  0  0  0  0  0  0  0  0  0  0  0
   11.1480   -2.8190   24.5780 C   0  0  0  0  0  0  0  0  0  0  0  0
   10.6350   -4.0310   24.9480 O   0  0  0  0  0  0  0  0  0  0  0  0
  1  2  1  0
  3  2  1  6
  3  4  1  0
  4  5  1  0
  5  6  1  0
  6  7  1  1
  7  8  1  0
  8  9  1  0
  9 10  1  0
 10 11  1  6
  6 12  1  0
 10 12  1  0
 12 13  1  1
  5 14  1  1
 14 15  1  0
  3 16  1  0
 15 16  2  0
 16 17  1  0
 17 18  2  0
 18 19  1  0
 19 20  1  0
 15 21  1  0
 19 21  2  0
 21 22  1  0
M  END
