MAK-UNK-acefcb18-18
     RDKit          3D

 29 31  0  0  0  0  0  0  0  0999 V2000
   12.7620    6.0480   22.4610 C   0  0  0  0  0  0  0  0  0  0  0  0
   12.3020    4.7320   22.5540 C   0  0  0  0  0  0  0  0  0  0  0  0
   10.9510    4.4320   22.4620 C   0  0  0  0  0  0  0  0  0  0  0  0
   10.5120    3.1010   22.5490 C   0  0  0  0  0  0  0  0  0  0  0  0
   11.3660    2.0890   22.7330 C   0  0  0  0  0  0  0  0  0  0  0  0
   10.8750    0.8200   22.8090 O   0  0  0  0  0  0  0  0  0  0  0  0
   11.5120   -0.0310   23.7620 C   0  0  0  0  0  0  0  0  0  0  0  0
   10.9150   -1.2830   23.6260 C   0  0  0  0  0  0  0  0  0  0  0  0
    9.6520   -1.4900   24.2010 C   0  0  1  0  0  0  0  0  0  0  0  0
    8.5700   -1.2690   23.2660 N   0  0  0  0  0  0  0  0  0  0  0  0
    7.7310   -0.1770   23.3550 C   0  0  0  0  0  0  0  0  0  0  0  0
    7.5080    0.4110   24.4130 O   0  0  0  0  0  0  0  0  0  0  0  0
    7.1330    0.2140   22.1380 C   0  0  0  0  0  0  0  0  0  0  0  0
    7.5020   -0.3460   20.9240 C   0  0  0  0  0  0  0  0  0  0  0  0
    6.9070    0.0370   19.7280 C   0  0  0  0  0  0  0  0  0  0  0  0
    5.8950    1.0000   19.5880 C   0  0  0  0  0  0  0  0  0  0  0  0
    5.3930    1.2750   18.3110 C   0  0  0  0  0  0  0  0  0  0  0  0
    5.7680    0.6470   17.3400 O   0  0  0  0  0  0  0  0  0  0  0  0
    5.5610    1.5430   20.8750 C   0  0  0  0  0  0  0  0  0  0  0  0
    6.1310    1.1880   22.1040 C   0  0  0  0  0  0  0  0  0  0  0  0
    9.4350   -2.7930   24.6190 N   0  0  0  0  0  0  0  0  0  0  0  0
   10.4850   -3.6120   25.0440 C   0  0  0  0  0  0  0  0  0  0  0  0
   10.2910   -4.5810   26.0940 C   0  0  0  0  0  0  0  0  0  0  0  0
    9.1180   -4.3780   26.7860 C   0  0  0  0  0  0  0  0  0  0  0  0
    8.9310   -5.3930   27.7410 O   0  0  0  0  0  0  0  0  0  0  0  0
    8.0090   -4.1900   25.9790 C   0  0  0  0  0  0  0  0  0  0  0  0
    8.0920   -3.0080   25.2230 C   0  0  0  0  0  0  0  0  0  0  0  0
   12.7150    2.3820   22.8320 C   0  0  0  0  0  0  0  0  0  0  0  0
   13.1750    3.6940   22.7400 C   0  0  0  0  0  0  0  0  0  0  0  0
  1  2  1  0
  2  3  2  0
  3  4  1  0
  4  5  2  0
  5  6  1  0
  6  7  1  0
  7  8  1  0
  9  8  1  6
  9 10  1  0
 10 11  1  0
 11 12  2  0
 11 13  1  0
 13 14  2  0
 14 15  1  0
 15 16  2  0
 16 17  1  0
 17 18  2  0
 16 19  1  0
 13 20  1  0
 19 20  2  0
  9 21  1  0
 21 22  1  0
 22 23  1  0
 23 24  1  0
 24 25  1  0
 24 26  1  0
 21 27  1  0
 26 27  1  0
  5 28  1  0
  2 29  1  0
 28 29  2  0
M  END
