MAK-UNK-702fb7d3-19
     RDKit          3D

 43 48  0  0  0  0  0  0  0  0999 V2000
   10.3740   -1.5440   24.6180 C   0  0  0  0  0  0  0  0  0  0  0  0
    8.9850   -1.3090   24.3040 N   0  0  0  0  0  0  0  0  0  0  0  0
    8.1580   -0.1770   24.5310 C   0  0  0  0  0  0  0  0  0  0  0  0
    7.7190    0.1460   25.9190 C   0  0  0  0  0  0  0  0  0  0  0  0
    6.4200    0.9440   26.1170 C   0  0  0  0  0  0  0  0  0  0  0  0
    6.1210    1.1900   27.4120 C   0  0  0  0  0  0  0  0  0  0  0  0
    4.9910    1.9010   27.8210 C   0  0  0  0  0  0  0  0  0  0  0  0
    5.1850    2.9720   28.7390 C   0  0  0  0  0  0  0  0  0  0  0  0
    3.9380    3.7710   29.2030 C   0  0  0  0  0  0  0  0  0  0  0  0
    2.6070    3.3410   28.6310 C   0  0  0  0  0  0  0  0  0  0  0  0
    2.5730    2.2010   27.6790 C   0  0  0  0  0  0  0  0  0  0  0  0
    3.7240    1.5330   27.3100 C   0  0  0  0  0  0  0  0  0  0  0  0
    3.5910    0.4860   26.4170 F   0  0  0  0  0  0  0  0  0  0  0  0
    7.2040    0.5710   28.1780 N   0  0  0  0  0  0  0  0  0  0  0  0
    7.4300    0.5360   29.8710 S   0  0  0  0  0  0  0  0  0  0  0  0
    8.2700   -0.6150   30.0840 O   0  0  0  0  0  0  0  0  0  0  0  0
    7.8560    1.8650   30.2410 O   0  0  0  0  0  0  0  0  0  0  0  0
    5.8840    0.1870   30.6170 C   0  0  0  0  0  0  0  0  0  0  0  0
    5.0520    1.1950   31.1310 C   0  0  0  0  0  0  0  0  0  0  0  0
    3.8330    0.8530   31.7190 C   0  0  0  0  0  0  0  0  0  0  0  0
    3.4950   -0.6000   31.7640 C   0  0  0  0  0  0  0  0  0  0  0  0
    4.2850   -1.5750   31.2770 N   0  0  0  0  0  0  0  0  0  0  0  0
    5.4530   -1.1550   30.7130 C   0  0  0  0  0  0  0  0  0  0  0  0
    8.1630   -0.0660   27.2290 C   0  0  0  0  0  0  0  0  0  0  0  0
    8.5160   -2.3970   23.6960 C   0  0  0  0  0  0  0  0  0  0  0  0
    9.4190   -3.3970   23.4920 C   0  0  0  0  0  0  0  0  0  0  0  0
   11.1110   -2.9500   23.9510 Cl  0  0  0  0  0  0  0  0  0  0  0  0
    7.2860   -2.6340   23.2860 N   0  0  0  0  0  0  0  0  0  0  0  0
    6.9160   -4.0500   23.4870 C   0  0  0  0  0  0  0  0  0  0  0  0
    6.4810   -4.2910   24.7990 C   0  0  0  0  0  0  0  0  0  0  0  0
    5.7960   -5.4570   25.1400 C   0  0  0  0  0  0  0  0  0  0  0  0
    5.3540   -5.6970   26.4510 C   0  0  0  0  0  0  0  0  0  0  0  0
    5.6610   -4.6040   27.4730 C   0  0  0  0  0  0  0  0  0  0  0  0
    6.3420   -3.4560   27.0900 C   0  0  0  0  0  0  0  0  0  0  0  0
    6.7520   -3.3140   25.7510 C   0  0  0  0  0  0  0  0  0  0  0  0
    7.4880   -2.1210   25.2230 C   0  0  1  0  0  0  0  0  0  0  0  0
    8.5820   -2.0290   24.0880 C   0  0  0  0  0  0  0  0  0  0  0  0
    8.4530   -1.0150   23.1330 C   0  0  0  0  0  0  0  0  0  0  0  0
    9.3470   -0.8180   22.0740 C   0  0  0  0  0  0  0  0  0  0  0  0
   10.5250   -1.5100   21.6890 C   0  0  0  0  0  0  0  0  0  0  0  0
   10.5480   -2.5000   22.7070 C   0  0  0  0  0  0  0  0  0  0  0  0
    9.7000   -2.7880   23.8140 C   0  0  0  0  0  0  0  0  0  0  0  0
    6.4590   -1.8870   24.2000 C   0  0  0  0  0  0  0  0  0  0  0  0
  1  2  1  0
  2  3  1  0
  3  4  1  0
  4  5  1  0
  5  6  2  0
  6  7  1  0
  7  8  2  0
  8  9  1  0
  9 10  2  0
 10 11  1  0
  7 12  1  0
 11 12  2  0
 12 13  1  0
  6 14  1  0
 14 15  1  0
 15 16  2  0
 15 17  2  0
 15 18  1  0
 18 19  2  0
 19 20  1  0
 20 21  2  0
 21 22  1  0
 18 23  1  0
 22 23  2  0
  4 24  2  0
 14 24  1  0
  2 25  2  3
 25 26  1  0
 26 27  1  0
 25 28  1  0
 28 29  1  0
 29 30  1  0
 30 31  2  0
 31 32  1  0
 32 33  2  0
 33 34  1  0
 30 35  1  0
 34 35  2  0
 35 36  1  0
 36 37  1  6
 37 38  2  0
 38 39  1  0
 39 40  2  0
 40 41  1  0
 37 42  1  0
 41 42  2  0
 28 43  1  0
 36 43  1  0
M  CHG  1   2   1
M  END
