MAK-UNK-10572812-11
     RDKit          3D

 34 38  0  0  0  0  0  0  0  0999 V2000
   15.0190    1.8310   18.7320 C   0  0  0  0  0  0  0  0  0  0  0  0
   14.5290    0.9930   19.8480 C   0  0  0  0  0  0  0  0  0  0  0  0
   14.4190    1.5760   20.9110 O   0  0  0  0  0  0  0  0  0  0  0  0
   14.1850   -0.4360   19.7100 N   0  0  0  0  0  0  0  0  0  0  0  0
   13.2330   -1.1970   20.6450 C   0  0  0  0  0  0  0  0  0  0  0  0
   13.0980   -2.5690   21.1140 C   0  0  0  0  0  0  0  0  0  0  0  0
   13.3340   -2.5520   22.4150 C   0  0  0  0  0  0  0  0  0  0  0  0
   14.2620   -3.2670   23.2060 C   0  0  0  0  0  0  0  0  0  0  0  0
   14.3590   -3.0160   24.4230 N   0  0  0  0  0  0  0  0  0  0  0  0
   13.5370   -2.1300   24.5300 C   0  0  0  0  0  0  0  0  0  0  0  0
   13.3470   -1.4820   25.6920 C   0  0  0  0  0  0  0  0  0  0  0  0
   12.3460   -0.4850   25.6380 C   0  0  0  0  0  0  0  0  0  0  0  0
   11.6160   -0.2180   24.6170 C   0  0  0  0  0  0  0  0  0  0  0  0
   10.6490    0.6940   24.6670 F   0  0  0  0  0  0  0  0  0  0  0  0
   11.8350   -0.8730   23.5060 C   0  0  0  0  0  0  0  0  0  0  0  0
   10.9830   -0.4850   22.6540 N   0  0  0  0  0  0  0  0  0  0  0  0
   10.1970   -1.6680   22.3150 C   0  0  0  0  0  0  0  0  0  0  0  0
    9.0800   -1.6220   23.1240 C   0  0  0  0  0  0  0  0  0  0  0  0
    8.5210   -0.2850   22.9230 N   0  0  0  0  0  0  0  0  0  0  0  0
    8.2960    0.1130   21.6700 C   0  0  0  0  0  0  0  0  0  0  0  0
    8.5340    1.2760   21.2590 O   0  0  0  0  0  0  0  0  0  0  0  0
    7.7570   -0.8860   20.9370 C   0  0  0  0  0  0  0  0  0  0  0  0
    6.9270   -0.3230   19.8840 C   0  0  0  0  0  0  0  0  0  0  0  0
    7.1690   -0.5620   18.4580 C   0  0  0  0  0  0  0  0  0  0  0  0
    6.2150    0.1490   17.8250 N   0  0  0  0  0  0  0  0  0  0  0  0
    5.3950    0.8010   18.7200 C   0  0  0  0  0  0  0  0  0  0  0  0
    4.2610    1.6590   18.3900 N   0  0  0  0  0  0  0  0  0  0  0  0
    3.6300    2.1620   19.4740 C   0  0  0  0  0  0  0  0  0  0  0  0
    3.9650    1.9380   20.8110 C   0  0  0  0  0  0  0  0  0  0  0  0
    5.0490    1.1280   21.1260 C   0  0  0  0  0  0  0  0  0  0  0  0
    5.8160    0.5170   20.0040 C   0  0  0  0  0  0  0  0  0  0  0  0
    9.1610    0.7150   23.6860 C   0  0  0  0  0  0  0  0  0  0  0  0
   10.4190    0.2550   23.8470 C   0  0  0  0  0  0  0  0  0  0  0  0
   12.8140   -1.8010   23.4010 C   0  0  0  0  0  0  0  0  0  0  0  0
  1  2  1  0
  2  3  2  0
  2  4  1  0
  4  5  1  0
  5  6  1  0
  6  7  1  0
  7  8  2  0
  8  9  1  0
  9 10  1  0
 10 11  1  0
 11 12  2  0
 12 13  1  0
 13 14  1  0
 13 15  2  0
 15 16  1  0
 16 17  1  0
 17 18  1  0
 18 19  1  0
 19 20  1  0
 20 21  2  0
 20 22  1  0
 22 23  1  0
 23 24  2  0
 24 25  1  0
 25 26  1  0
 26 27  1  0
 27 28  2  0
 28 29  1  0
 29 30  2  0
 23 31  1  0
 26 31  2  0
 30 31  1  0
 19 32  1  0
 16 33  1  0
 32 33  1  0
  7 34  1  0
 10 34  2  0
 15 34  1  0
M  END
