MAK-UNK-9e4a73aa-12
     RDKit          3D

 26 29  0  0  0  0  0  0  0  0999 V2000
    6.3190    0.3730   24.5260 O   0  0  0  0  0  0  0  0  0  0  0  0
    7.3300   -0.1330   24.0350 C   0  0  0  0  0  0  0  0  0  0  0  0
    8.4140    0.8170   23.5860 C   0  0  0  0  0  0  0  0  0  0  0  0
    8.0990    2.1640   23.5470 C   0  0  0  0  0  0  0  0  0  0  0  0
    9.1870    3.1400   23.1130 C   0  0  0  0  0  0  0  0  0  0  0  0
    8.8660    4.8270   23.0510 Cl  0  0  0  0  0  0  0  0  0  0  0  0
   10.4390    2.6170   22.7760 C   0  0  0  0  0  0  0  0  0  0  0  0
   11.4380    3.4220   22.3910 F   0  0  0  0  0  0  0  0  0  0  0  0
   10.6770    1.2290   22.8380 C   0  0  0  0  0  0  0  0  0  0  0  0
    9.6720    0.3400   23.2420 C   0  0  0  0  0  0  0  0  0  0  0  0
    9.8570   -1.0730   23.3400 N   0  0  0  0  0  0  0  0  0  0  0  0
   11.1450   -1.6180   23.3230 C   0  0  0  0  0  0  0  0  0  0  0  0
   11.8050   -1.8030   24.5330 C   0  0  0  0  0  0  0  0  0  0  0  0
   13.1230   -2.3860   24.5520 C   0  0  0  0  0  0  0  0  0  0  0  0
   13.6790   -2.7390   23.3360 C   0  0  0  0  0  0  0  0  0  0  0  0
   13.0040   -2.5370   22.1250 C   0  0  0  0  0  0  0  0  0  0  0  0
   11.7450   -1.9810   22.1210 C   0  0  0  0  0  0  0  0  0  0  0  0
    8.8900   -1.9910   23.7370 C   0  0  0  0  0  0  0  0  0  0  0  0
    9.0490   -3.1760   23.9730 O   0  0  0  0  0  0  0  0  0  0  0  0
    7.5930   -1.5030   23.8630 N   0  0  0  0  0  0  0  0  0  0  0  0
    6.7490   -2.1070   22.9010 C   0  0  0  0  0  0  0  0  0  0  0  0
    7.6190   -1.1650   22.3100 C   0  0  0  0  0  0  0  0  0  0  0  0
    7.5710   -0.9390   21.0410 C   0  0  0  0  0  0  0  0  0  0  0  0
    6.8920   -1.3180   19.8650 C   0  0  0  0  0  0  0  0  0  0  0  0
    6.0290   -2.2250   20.2770 N   0  0  0  0  0  0  0  0  0  0  0  0
    6.0320   -2.5280   21.6690 C   0  0  0  0  0  0  0  0  0  0  0  0
  1  2  2  0
  2  3  1  0
  3  4  2  0
  4  5  1  0
  5  6  1  0
  5  7  2  0
  7  8  1  0
  7  9  1  0
  3 10  1  0
  9 10  2  0
 10 11  1  0
 11 12  1  0
 12 13  2  0
 13 14  1  0
 14 15  2  0
 15 16  1  0
 12 17  1  0
 16 17  2  0
 11 18  1  0
 18 19  2  0
  2 20  1  0
 18 20  1  0
 20 21  1  0
 21 22  2  0
 22 23  1  0
 23 24  2  0
 24 25  1  0
 21 26  1  0
 25 26  2  0
M  END
