MAK-UNK-902cc841-6
     RDKit          3D

 32 35  0  0  0  0  0  0  0  0999 V2000
    6.1330   -1.7980   18.6280 C   0  0  0  0  0  0  0  0  0  0  0  0
    6.0610   -2.6010   19.8710 C   0  0  0  0  0  0  0  0  0  0  0  0
    5.3790   -3.8550   19.6260 O   0  0  0  0  0  0  0  0  0  0  0  0
    6.6360   -2.1870   21.0400 N   0  0  0  0  0  0  0  0  0  0  0  0
    6.6730   -3.2680   21.8830 C   0  0  0  0  0  0  0  0  0  0  0  0
    7.7590   -3.3150   22.8960 C   0  0  0  0  0  0  0  0  0  0  0  0
    8.5690   -2.2080   23.0580 N   0  0  0  0  0  0  0  0  0  0  0  0
    9.6180   -2.4970   23.8370 C   0  0  2  0  0  0  0  0  0  0  0  0
    9.2410   -3.0080   25.2480 C   0  0  0  0  0  0  0  0  0  0  0  0
   10.2560   -3.5260   26.0140 O   0  0  0  0  0  0  0  0  0  0  0  0
    7.8140   -2.9630   25.7430 N   0  0  0  0  0  0  0  0  0  0  0  0
    7.4750   -3.8890   26.7960 C   0  0  0  0  0  0  0  0  0  0  0  0
    8.1910   -5.0390   27.1110 C   0  0  0  0  0  0  0  0  0  0  0  0
    7.7910   -5.8850   28.1300 C   0  0  0  0  0  0  0  0  0  0  0  0
    6.6820   -5.7320   28.9470 C   0  0  0  0  0  0  0  0  0  0  0  0
    6.3920   -6.6300   29.9010 F   0  0  0  0  0  0  0  0  0  0  0  0
    5.8710   -4.6330   28.7660 C   0  0  0  0  0  0  0  0  0  0  0  0
    6.2400   -3.6560   27.6720 C   0  0  0  0  0  0  0  0  0  0  0  0
    6.5130   -2.4300   25.2290 C   0  0  1  0  0  0  0  0  0  0  0  0
    6.5910   -1.5130   24.1340 C   0  0  0  0  0  0  0  0  0  0  0  0
    5.4460   -1.6580   23.3540 C   0  0  0  0  0  0  0  0  0  0  0  0
    4.3250   -2.8260   23.8400 S   0  0  0  0  0  0  0  0  0  0  0  0
    3.9560   -3.7150   22.7280 O   0  0  0  0  0  0  0  0  0  0  0  0
    3.3160   -2.2470   24.7040 O   0  0  0  0  0  0  0  0  0  0  0  0
    5.5590   -3.5910   24.8630 C   0  0  0  0  0  0  0  0  0  0  0  0
   10.6480   -1.4810   23.6680 C   0  0  0  0  0  0  0  0  0  0  0  0
   11.7230   -1.5480   22.7930 C   0  0  0  0  0  0  0  0  0  0  0  0
   12.5760   -0.5200   22.7730 C   0  0  0  0  0  0  0  0  0  0  0  0
   12.0930    0.6680   23.8810 S   0  0  0  0  0  0  0  0  0  0  0  0
   10.7360   -0.2700   24.3560 C   0  0  0  0  0  0  0  0  0  0  0  0
    8.8680   -1.6510   21.7260 C   0  0  0  0  0  0  0  0  0  0  0  0
    7.7940   -1.2730   20.9920 C   0  0  0  0  0  0  0  0  0  0  0  0
  1  2  1  0
  2  3  2  0
  2  4  1  0
  4  5  1  0
  5  6  1  0
  6  7  1  0
  7  8  1  0
  8  9  1  1
  9 10  2  0
  9 11  1  0
 11 12  1  0
 12 13  2  0
 13 14  1  0
 14 15  2  0
 15 16  1  0
 15 17  1  0
 12 18  1  0
 17 18  2  0
 19 11  1  6
 19 20  1  0
 20 21  2  0
 22 21  1  0
 22 23  2  0
 22 24  2  0
 19 25  1  0
 22 25  1  0
  8 26  1  0
 26 27  1  0
 27 28  2  0
 28 29  1  0
 26 30  2  0
 29 30  1  0
  7 31  1  0
  4 32  1  0
 31 32  1  0
M  END
