MAK-UNK-9a6be56d-16
     RDKit          3D

 38 42  0  0  0  0  0  0  0  0999 V2000
    4.2920   -7.5050   28.1750 C   0  0  0  0  0  0  0  0  0  0  0  0
    4.5340   -6.0760   28.1190 N   0  0  0  0  0  0  0  0  0  0  0  0
    5.8050   -5.7420   27.4630 C   0  0  0  0  0  0  0  0  0  0  0  0
    6.0290   -4.3600   27.3850 C   0  0  0  0  0  0  0  0  0  0  0  0
    6.6610   -3.5990   28.3490 C   0  0  0  0  0  0  0  0  0  0  0  0
    6.7380   -2.3430   28.0460 C   0  0  0  0  0  0  0  0  0  0  0  0
    7.3650   -1.3330   28.9190 C   0  0  0  0  0  0  0  0  0  0  0  0
    8.6240   -0.7890   28.6600 C   0  0  0  0  0  0  0  0  0  0  0  0
    9.2730    0.1600   29.4350 C   0  0  0  0  0  0  0  0  0  0  0  0
    8.6810    0.6610   30.5830 C   0  0  0  0  0  0  0  0  0  0  0  0
    7.4130    0.1860   30.9400 C   0  0  0  0  0  0  0  0  0  0  0  0
    6.6960   -0.7750   30.2000 C   0  0  0  0  0  0  0  0  0  0  0  0
    5.4840   -1.1790   30.6050 F   0  0  0  0  0  0  0  0  0  0  0  0
    6.1590   -2.1390   26.8300 N   0  0  0  0  0  0  0  0  0  0  0  0
    5.9830   -0.6880   25.9640 S   0  0  0  0  0  0  0  0  0  0  0  0
    4.6240   -0.7430   25.4640 O   0  0  0  0  0  0  0  0  0  0  0  0
    6.3760    0.4090   26.8290 O   0  0  0  0  0  0  0  0  0  0  0  0
    7.0540   -0.7820   24.5800 C   0  0  0  0  0  0  0  0  0  0  0  0
    6.5240   -1.0360   23.3320 C   0  0  0  0  0  0  0  0  0  0  0  0
    7.1320   -1.1480   22.1110 N   0  0  0  0  0  0  0  0  0  0  0  0
    8.5330   -0.9460   22.2650 C   0  0  0  0  0  0  0  0  0  0  0  0
    9.1940   -0.6760   23.5040 C   0  0  0  0  0  0  0  0  0  0  0  0
   10.5980   -0.4810   23.5140 N   0  0  0  0  0  0  0  0  0  0  0  0
   11.1570   -1.4410   22.4950 C   0  0  0  0  0  0  0  0  0  0  0  0
   12.5230   -1.2790   22.2880 C   0  0  0  0  0  0  0  0  0  0  0  0
   13.2000   -0.1190   22.8410 C   0  0  0  0  0  0  0  0  0  0  0  0
   12.4430    1.0290   23.0280 C   0  0  0  0  0  0  0  0  0  0  0  0
   12.9650    2.2960   22.8690 C   0  0  0  0  0  0  0  0  0  0  0  0
   12.2180    3.4490   23.0430 C   0  0  0  0  0  0  0  0  0  0  0  0
   10.8830    3.3760   23.4000 C   0  0  0  0  0  0  0  0  0  0  0  0
    9.9830    4.9000   23.6110 S   0  0  0  0  0  0  0  0  0  0  0  0
   11.1390    6.0580   23.2200 N   0  0  0  0  0  0  0  0  0  0  0  0
    9.6530    5.1590   24.9860 O   0  0  0  0  0  0  0  0  0  0  0  0
    8.9620    4.9790   22.6090 O   0  0  0  0  0  0  0  0  0  0  0  0
   10.2600    2.1260   23.5860 C   0  0  0  0  0  0  0  0  0  0  0  0
   11.1330    0.8820   23.3720 C   0  0  0  0  0  0  0  0  0  0  0  0
    8.4240   -0.6050   24.6720 C   0  0  0  0  0  0  0  0  0  0  0  0
    5.7060   -3.3990   26.3950 C   0  0  0  0  0  0  0  0  0  0  0  0
  1  2  1  0
  2  3  1  0
  3  4  1  0
  4  5  1  0
  5  6  2  0
  6  7  1  0
  7  8  2  0
  8  9  1  0
  9 10  2  0
 10 11  1  0
  7 12  1  0
 11 12  2  0
 12 13  1  0
  6 14  1  0
 14 15  1  0
 15 16  2  0
 15 17  2  0
 15 18  1  0
 18 19  2  0
 19 20  1  0
 20 21  2  0
 21 22  1  0
 22 23  1  0
 23 24  1  0
 24 25  1  0
 25 26  1  0
 26 27  1  0
 27 28  2  0
 28 29  1  0
 29 30  2  0
 30 31  1  0
 31 32  1  0
 31 33  2  0
 31 34  2  0
 30 35  1  0
 23 36  1  0
 27 36  1  0
 35 36  2  0
 18 37  1  0
 22 37  2  0
  4 38  2  0
 14 38  1  0
M  END
