MAK-UNK-acefcb18-4
     RDKit          3D

 21 23  0  0  0  0  0  0  0  0999 V2000
    7.9140   -0.0230   23.6260 C   0  0  0  0  0  0  0  0  0  0  0  0
    8.3210   -1.4590   23.8560 C   0  0  0  0  0  0  0  0  0  0  0  0
    9.8150   -1.8390   23.7860 C   0  0  0  0  0  0  0  0  0  0  0  0
   10.1700   -3.2620   23.9900 C   0  0  0  0  0  0  0  0  0  0  0  0
    9.0110   -3.9360   24.2050 C   0  0  0  0  0  0  0  0  0  0  0  0
    8.6620   -2.8300   24.0260 O   0  0  0  0  0  0  0  0  0  0  0  0
    7.8110   -3.0340   22.8290 C   0  0  2  0  0  0  0  0  0  0  0  0
    6.9000   -1.9370   22.5460 O   0  0  0  0  0  0  0  0  0  0  0  0
    5.6320   -2.2820   21.9690 C   0  0  0  0  0  0  0  0  0  0  0  0
    4.9250   -3.3600   22.7520 C   0  0  2  0  0  0  0  0  0  0  0  0
    4.1940   -2.9020   23.8570 C   0  0  0  0  0  0  0  0  0  0  0  0
    3.1870   -3.6040   24.4670 C   0  0  0  0  0  0  0  0  0  0  0  0
    2.5150   -3.0840   25.5430 C   0  0  0  0  0  0  0  0  0  0  0  0
    3.1840   -1.5450   25.8650 S   0  0  0  0  0  0  0  0  0  0  0  0
    4.3110   -1.6930   24.5510 C   0  0  0  0  0  0  0  0  0  0  0  0
    5.7200   -4.4510   23.1110 C   0  0  1  0  0  0  0  0  0  0  0  0
    5.3720   -5.5440   22.3480 O   0  0  0  0  0  0  0  0  0  0  0  0
    7.1070   -4.2720   22.9540 C   0  0  1  0  0  0  0  0  0  0  0  0
    7.3800   -5.0990   21.8120 O   0  0  0  0  0  0  0  0  0  0  0  0
    7.6780   -3.8100   24.3110 C   0  0  0  0  0  0  0  0  0  0  0  0
    7.3200   -2.4670   24.1300 C   0  0  0  0  0  0  0  0  0  0  0  0
  1  2  1  0
  2  3  2  0
  3  4  1  0
  4  5  2  0
  5  6  1  0
  7  6  1  1
  7  8  1  0
  8  9  1  0
  9 10  1  0
 10 11  1  1
 11 12  1  0
 12 13  2  0
 13 14  1  0
 11 15  2  0
 14 15  1  0
 10 16  1  0
 16 17  1  6
  7 18  1  0
 16 18  1  0
 18 19  1  6
  5 20  1  0
  2 21  1  0
 20 21  2  0
M  END
