MAK-UNK-37f1d6fa-3
     RDKit          3D

 31 34  0  0  0  0  0  0  0  0999 V2000
    8.6770    0.8270   21.2670 O   0  0  0  0  0  0  0  0  0  0  0  0
    8.3100   -0.2950   21.6120 C   0  0  0  0  0  0  0  0  0  0  0  0
    8.9970   -1.0460   22.5620 N   0  0  0  0  0  0  0  0  0  0  0  0
   10.3990   -0.6150   22.6130 C   0  0  0  0  0  0  0  0  0  0  0  0
   11.3590   -1.5990   22.3440 C   0  0  0  0  0  0  0  0  0  0  0  0
   12.7230   -1.2970   22.3530 C   0  0  0  0  0  0  0  0  0  0  0  0
   13.1780   -0.0050   22.6300 C   0  0  0  0  0  0  0  0  0  0  0  0
   12.2360    1.1020   22.9310 C   0  0  0  0  0  0  0  0  0  0  0  0
   10.7610    0.6960   22.9050 C   0  0  0  0  0  0  0  0  0  0  0  0
    7.1610   -0.8850   21.0810 N   0  0  0  0  0  0  0  0  0  0  0  0
    6.4080   -0.0890   20.1150 C   0  0  0  0  0  0  0  0  0  0  0  0
    6.8950   -0.0700   18.7470 C   0  0  0  0  0  0  0  0  0  0  0  0
    6.2520    0.6510   17.7870 N   0  0  0  0  0  0  0  0  0  0  0  0
    5.1400    1.3830   18.0510 C   0  0  0  0  0  0  0  0  0  0  0  0
    4.6120    1.4000   19.3690 C   0  0  0  0  0  0  0  0  0  0  0  0
    3.4560    2.1390   19.7020 C   0  0  0  0  0  0  0  0  0  0  0  0
    2.9400    2.8840   18.8740 O   0  0  0  0  0  0  0  0  0  0  0  0
    2.9500    1.9880   20.9810 N   0  0  0  0  0  0  0  0  0  0  0  0
    1.7950    2.7840   21.4070 C   0  0  0  0  0  0  0  0  0  0  0  0
    0.5780    2.2680   20.9370 C   0  0  0  0  0  0  0  0  0  0  0  0
   -0.0960    1.4900   21.8610 C   0  0  0  0  0  0  0  0  0  0  0  0
    0.3330    1.3250   23.2190 C   0  0  0  0  0  0  0  0  0  0  0  0
   -0.4750    0.5050   23.9890 N   0  0  0  0  0  0  0  0  0  0  0  0
   -1.5250    0.0840   23.0910 C   0  0  0  0  0  0  0  0  0  0  0  0
   -2.6970   -0.8180   23.3430 C   0  0  0  0  0  0  0  0  0  0  0  0
   -3.5750   -1.0600   22.2740 C   0  0  0  0  0  0  0  0  0  0  0  0
   -3.3530   -0.4720   21.0120 C   0  0  0  0  0  0  0  0  0  0  0  0
   -4.2210   -0.7310   20.0220 F   0  0  0  0  0  0  0  0  0  0  0  0
   -2.2630    0.3750   20.7520 C   0  0  0  0  0  0  0  0  0  0  0  0
   -1.2990    0.7160   21.6970 C   0  0  0  0  0  0  0  0  0  0  0  0
    5.2610    0.6550   20.3950 C   0  0  0  0  0  0  0  0  0  0  0  0
  1  2  2  0
  2  3  1  0
  3  4  1  0
  4  5  2  0
  5  6  1  0
  6  7  2  0
  7  8  1  0
  4  9  1  0
  8  9  2  0
  2 10  1  0
 10 11  1  0
 11 12  2  0
 12 13  1  0
 13 14  2  0
 14 15  1  0
 15 16  1  0
 16 17  2  0
 16 18  1  0
 18 19  1  0
 19 20  1  0
 20 21  1  0
 21 22  2  0
 22 23  1  0
 23 24  1  0
 24 25  1  0
 25 26  2  0
 26 27  1  0
 27 28  1  0
 27 29  2  0
 21 30  1  0
 24 30  2  0
 29 30  1  0
 11 31  1  0
 15 31  2  0
M  END
