MAK-UNK-f0bfc2e0-1
     RDKit          3D

 26 28  0  0  0  0  0  0  0  0999 V2000
    9.3250   -6.4560   26.5070 C   0  0  0  0  0  0  0  0  0  0  0  0
    9.7140   -4.8840   27.0870 S   0  0  0  0  0  0  0  0  0  0  0  0
    9.4720   -4.7790   28.4900 O   0  0  0  0  0  0  0  0  0  0  0  0
   10.9310   -4.4340   26.4360 O   0  0  0  0  0  0  0  0  0  0  0  0
    8.3650   -4.1310   26.2920 C   0  0  0  0  0  0  0  0  0  0  0  0
    7.6560   -3.3970   25.3910 C   0  0  0  0  0  0  0  0  0  0  0  0
    7.4960   -2.6010   24.2890 C   0  0  0  0  0  0  0  0  0  0  0  0
    8.7110   -2.3820   23.7250 C   0  0  0  0  0  0  0  0  0  0  0  0
    9.0590   -1.5800   22.5470 N   0  0  0  0  0  0  0  0  0  0  0  0
    8.2280   -0.6330   21.8360 C   0  0  0  0  0  0  0  0  0  0  0  0
    8.5890    0.5440   21.7460 O   0  0  0  0  0  0  0  0  0  0  0  0
    7.0340   -1.0390   21.1910 N   0  0  0  0  0  0  0  0  0  0  0  0
    6.4640   -0.3080   20.1410 C   0  0  0  0  0  0  0  0  0  0  0  0
    5.1800    0.4480   20.4660 C   0  0  0  0  0  0  0  0  0  0  0  0
    4.6030    1.2320   19.3110 C   0  0  0  0  0  0  0  0  0  0  0  0
    5.2740    1.1980   18.0930 C   0  0  0  0  0  0  0  0  0  0  0  0
    6.4030    0.5180   17.8440 N   0  0  0  0  0  0  0  0  0  0  0  0
    6.9660   -0.2100   18.8500 C   0  0  0  0  0  0  0  0  0  0  0  0
   10.3470   -1.0220   22.7060 C   0  0  0  0  0  0  0  0  0  0  0  0
   10.5080    0.1150   23.4360 C   0  0  0  0  0  0  0  0  0  0  0  0
   11.8490    0.7510   23.5990 C   0  0  0  0  0  0  0  0  0  0  0  0
   13.1940    0.3080   23.0370 C   0  0  0  0  0  0  0  0  0  0  0  0
   12.7330   -0.9650   22.2970 C   0  0  0  0  0  0  0  0  0  0  0  0
   11.4700   -1.5540   22.1500 C   0  0  0  0  0  0  0  0  0  0  0  0
    9.6950   -3.0610   24.4590 C   0  0  0  0  0  0  0  0  0  0  0  0
    9.5380   -3.8390   25.6020 N   0  0  0  0  0  0  0  0  0  0  0  0
  2  1  1  0
  2  3  2  0
  2  4  2  0
  2  5  1  0
  5  6  2  0
  6  7  1  0
  7  8  2  0
  8  9  1  0
  9 10  1  0
 10 11  2  0
 10 12  1  0
 12 13  1  0
 13 14  2  0
 14 15  1  0
 15 16  2  0
 16 17  1  0
 13 18  1  0
 17 18  2  0
  9 19  1  0
 19 20  2  0
 20 21  1  0
 21 22  2  0
 22 23  1  0
 19 24  1  0
 23 24  2  0
  8 25  1  0
  5 26  1  0
 25 26  2  0
M  END
