MAK-UNK-f2409524-34
     RDKit          3D

 28 30  0  0  0  0  0  0  0  0999 V2000
   10.3640   -0.3520   22.3770 C   0  0  0  0  0  0  0  0  0  0  0  0
    9.1010    0.1740   21.7560 C   0  0  0  0  0  0  0  0  0  0  0  0
    9.0380    1.2810   21.1960 O   0  0  0  0  0  0  0  0  0  0  0  0
    8.0570   -0.7070   21.9110 N   0  0  0  0  0  0  0  0  0  0  0  0
    7.0580   -1.1170   20.9140 C   0  0  0  0  0  0  0  0  0  0  0  0
    6.4920   -2.5020   21.3890 C   0  0  0  0  0  0  0  0  0  0  0  0
    5.5480   -3.1260   20.6470 N   0  0  0  0  0  0  0  0  0  0  0  0
    5.2090   -2.4070   19.5060 C   0  0  0  0  0  0  0  0  0  0  0  0
    5.9690   -1.1700   19.4600 C   0  0  0  0  0  0  0  0  0  0  0  0
    6.7440   -0.3090   19.7700 C   0  0  0  0  0  0  0  0  0  0  0  0
    6.2790    0.3230   18.5790 C   0  0  0  0  0  0  0  0  0  0  0  0
    5.7020    1.5920   19.0150 N   0  0  0  0  0  0  0  0  0  0  0  0
    4.2410    1.7190   18.9590 C   0  0  0  0  0  0  0  0  0  0  0  0
    3.8640    1.7120   20.4380 C   0  0  0  0  0  0  0  0  0  0  0  0
    2.7660    2.0600   20.8520 O   0  0  0  0  0  0  0  0  0  0  0  0
    4.9880    1.2480   21.2850 C   0  0  2  0  0  0  0  0  0  0  0  0
    4.8780    1.6970   22.5450 C   0  0  0  0  0  0  0  0  0  0  0  0
    3.9290    2.7950   22.7280 N   0  0  0  0  0  0  0  0  0  0  0  0
    2.7370    2.6800   23.4300 C   0  0  0  0  0  0  0  0  0  0  0  0
    2.5110    1.8490   24.3020 O   0  0  0  0  0  0  0  0  0  0  0  0
    1.8630    3.6610   22.9800 N   0  0  0  0  0  0  0  0  0  0  0  0
    0.4940    3.9620   23.4400 C   0  0  0  0  0  0  0  0  0  0  0  0
    0.4670    4.5970   24.6730 C   0  0  0  0  0  0  0  0  0  0  0  0
   -0.7900    4.9600   25.1560 C   0  0  0  0  0  0  0  0  0  0  0  0
   -1.8440    4.5200   24.3250 C   0  0  0  0  0  0  0  0  0  0  0  0
   -1.7680    3.2580   23.7220 C   0  0  0  0  0  0  0  0  0  0  0  0
   -0.4990    2.7910   23.3880 C   0  0  0  0  0  0  0  0  0  0  0  0
    6.0720    1.9110   20.4240 C   0  0  0  0  0  0  0  0  0  0  0  0
  1  2  1  0
  2  3  2  0
  2  4  1  0
  4  5  1  0
  5  6  2  0
  6  7  1  0
  7  8  2  0
  8  9  1  0
  5 10  1  0
  9 10  2  0
 10 11  1  0
 11 12  1  0
 12 13  1  0
 13 14  1  0
 14 15  2  0
 14 16  1  0
 16 17  1  1
 17 18  1  0
 18 19  1  0
 19 20  2  0
 19 21  1  0
 21 22  1  0
 22 23  1  0
 23 24  1  0
 24 25  1  0
 25 26  1  0
 22 27  1  0
 26 27  1  0
 12 28  1  0
 16 28  1  0
M  END
