MAK-UNK-194150d3-10
     RDKit          3D

 15 16  0  0  0  0  0  0  0  0999 V2000
   13.3310   -2.0650   23.4170 C   0  0  0  0  0  0  0  0  0  0  0  0
   12.6740   -1.8450   22.0700 C   0  0  0  0  0  0  0  0  0  0  0  0
   11.3710   -1.3390   21.9700 C   0  0  0  0  0  0  0  0  0  0  0  0
   10.6170   -1.0120   23.0800 C   0  0  0  0  0  0  0  0  0  0  0  0
    9.3230   -0.4910   23.0820 C   0  0  0  0  0  0  0  0  0  0  0  0
    8.6900   -0.3580   21.8470 C   0  0  0  0  0  0  0  0  0  0  0  0
    7.4840   -0.9740   21.6240 N   0  0  0  0  0  0  0  0  0  0  0  0
    6.6330   -0.3750   20.7210 C   0  0  0  0  0  0  0  0  0  0  0  0
    6.9660    0.1430   19.4900 C   0  0  0  0  0  0  0  0  0  0  0  0
    6.7800    0.7890   18.2650 C   0  0  0  0  0  0  0  0  0  0  0  0
    5.5820    1.3040   17.8280 C   0  0  0  0  0  0  0  0  0  0  0  0
    4.3260    1.0980   18.9050 S   0  0  0  0  0  0  0  0  0  0  0  0
    5.4860    0.3250   19.8810 C   0  0  0  0  0  0  0  0  0  0  0  0
   11.2600   -1.2470   24.4490 C   0  0  0  0  0  0  0  0  0  0  0  0
   12.6700   -1.7830   24.5790 C   0  0  0  0  0  0  0  0  0  0  0  0
  1  2  2  0
  2  3  1  0
  3  4  2  0
  4  5  1  0
  5  6  1  0
  6  7  1  0
  7  8  1  0
  8  9  1  0
  9 10  1  0
 10 11  2  0
 11 12  1  0
  9 13  2  0
 12 13  1  0
  4 14  1  0
  1 15  1  0
 14 15  2  0
M  END
