MAK-UNK-b2c98f02-8
     RDKit          3D

 28 30  0  0  0  0  0  0  0  0999 V2000
    8.9900    1.6360   21.3450 O   0  0  0  0  0  0  0  0  0  0  0  0
    8.6240    0.5630   21.8390 C   0  0  0  0  0  0  0  0  0  0  0  0
    9.2930   -0.0570   23.0150 C   0  0  0  0  0  0  0  0  0  0  0  0
   10.5950   -0.4400   22.7630 C   0  0  2  0  0  0  0  0  0  0  0  0
   10.8120   -1.7500   22.1220 C   0  0  0  0  0  0  0  0  0  0  0  0
   12.0950   -2.0510   21.7600 C   0  0  0  0  0  0  0  0  0  0  0  0
   13.1800   -1.6400   22.6840 C   0  0  0  0  0  0  0  0  0  0  0  0
   12.9230   -0.9580   23.7800 C   0  0  2  0  0  0  0  0  0  0  0  0
   13.3890   -1.8710   25.2560 S   0  0  0  0  0  0  0  0  0  0  0  0
   12.5580   -3.0360   25.1920 O   0  0  0  0  0  0  0  0  0  0  0  0
   13.2290   -0.7480   26.0920 O   0  0  0  0  0  0  0  0  0  0  0  0
   15.0270   -2.4160   25.4420 N   0  0  0  0  0  0  0  0  0  0  0  0
   16.2290   -1.8180   26.3010 C   0  0  0  0  0  0  0  0  0  0  0  0
   18.0040   -1.8660   25.8730 C   0  0  0  0  0  0  0  0  0  0  0  0
   19.4220   -1.1580   25.8920 C   0  0  0  0  0  0  0  0  0  0  0  0
   20.2790   -1.3150   27.0790 C   0  0  0  0  0  0  0  0  0  0  0  0
   21.5470   -0.7350   27.0470 C   0  0  0  0  0  0  0  0  0  0  0  0
   22.0100   -0.0170   25.9600 C   0  0  0  0  0  0  0  0  0  0  0  0
   21.2110    0.1420   24.8390 C   0  0  0  0  0  0  0  0  0  0  0  0
   19.9290   -0.4240   24.7930 C   0  0  0  0  0  0  0  0  0  0  0  0
   11.4710   -0.4400   24.0150 C   0  0  0  0  0  0  0  0  0  0  0  0
    7.5720   -0.1960   21.3720 N   0  0  0  0  0  0  0  0  0  0  0  0
    6.7720    0.2150   20.2200 C   0  0  0  0  0  0  0  0  0  0  0  0
    5.6510    1.2200   20.5360 C   0  0  0  0  0  0  0  0  0  0  0  0
    4.8670    1.6260   19.3060 C   0  0  0  0  0  0  0  0  0  0  0  0
    5.2420    1.0460   17.9850 C   0  0  0  0  0  0  0  0  0  0  0  0
    6.2390    0.1710   17.8320 N   0  0  0  0  0  0  0  0  0  0  0  0
    6.9610   -0.2190   18.9120 C   0  0  0  0  0  0  0  0  0  0  0  0
  1  2  2  0
  2  3  1  0
  4  3  1  1
  4  5  1  0
  5  6  1  0
  6  7  1  0
  7  8  1  0
  8  9  1  1
  9 10  2  0
  9 11  2  0
  9 12  1  0
 12 13  1  0
 13 14  1  0
 14 15  1  0
 15 16  2  0
 16 17  1  0
 17 18  2  0
 18 19  1  0
 15 20  1  0
 19 20  2  0
  4 21  1  0
  8 21  1  0
  2 22  1  0
 22 23  1  0
 23 24  2  0
 24 25  1  0
 25 26  2  0
 26 27  1  0
 23 28  1  0
 27 28  2  0
M  END
