MAK-UNK-902cc841-5
     RDKit          3D

 32 35  0  0  0  0  0  0  0  0999 V2000
    6.0270   -1.8150   18.5470 C   0  0  0  0  0  0  0  0  0  0  0  0
    5.8450   -2.7360   19.7200 C   0  0  0  0  0  0  0  0  0  0  0  0
    5.3140   -3.8460   19.6010 O   0  0  0  0  0  0  0  0  0  0  0  0
    6.3780   -2.2100   20.8680 N   0  0  0  0  0  0  0  0  0  0  0  0
    6.3930   -2.9150   22.0910 C   0  0  0  0  0  0  0  0  0  0  0  0
    7.5870   -2.9200   22.7730 C   0  0  0  0  0  0  0  0  0  0  0  0
    8.3360   -1.8060   22.8080 N   0  0  0  0  0  0  0  0  0  0  0  0
    9.2760   -1.8210   23.7260 C   0  0  2  0  0  0  0  0  0  0  0  0
    8.8140   -1.5960   25.0190 C   0  0  0  0  0  0  0  0  0  0  0  0
    9.6340   -0.6530   25.7290 O   0  0  0  0  0  0  0  0  0  0  0  0
    7.6850   -2.2120   25.5380 N   0  0  0  0  0  0  0  0  0  0  0  0
    6.6820   -1.2760   25.8590 C   0  0  0  0  0  0  0  0  0  0  0  0
    7.0290    0.0490   26.6530 C   0  0  0  0  0  0  0  0  0  0  0  0
    5.8550    0.9890   26.9450 C   0  0  0  0  0  0  0  0  0  0  0  0
    4.6850    0.3730   26.3830 C   0  0  0  0  0  0  0  0  0  0  0  0
    3.6230    1.1580   26.6150 F   0  0  0  0  0  0  0  0  0  0  0  0
    4.2740   -0.7650   25.6780 C   0  0  0  0  0  0  0  0  0  0  0  0
    5.3430   -1.6370   25.4040 C   0  0  0  0  0  0  0  0  0  0  0  0
    7.7700   -3.4850   26.2560 C   0  0  2  0  0  0  0  0  0  0  0  0
    6.8170   -4.5510   25.7450 C   0  0  0  0  0  0  0  0  0  0  0  0
    6.4990   -5.5890   26.7850 C   0  0  0  0  0  0  0  0  0  0  0  0
    7.3410   -5.2110   28.2420 S   0  0  0  0  0  0  0  0  0  0  0  0
    8.6400   -5.8370   28.2260 O   0  0  0  0  0  0  0  0  0  0  0  0
    6.4340   -5.3150   29.3640 O   0  0  0  0  0  0  0  0  0  0  0  0
    7.5670   -3.4770   27.7920 C   0  0  0  0  0  0  0  0  0  0  0  0
   10.4500   -1.0900   23.3840 C   0  0  0  0  0  0  0  0  0  0  0  0
   11.6160   -0.9260   22.7440 C   0  0  0  0  0  0  0  0  0  0  0  0
   12.6270    0.0990   22.7200 C   0  0  0  0  0  0  0  0  0  0  0  0
   12.6340   -1.2400   21.9430 C   0  0  0  0  0  0  0  0  0  0  0  0
   11.1620   -2.2270   22.2630 S   0  0  0  0  0  0  0  0  0  0  0  0
    8.6990   -1.4140   21.4610 C   0  0  0  0  0  0  0  0  0  0  0  0
    7.3590   -1.1020   20.7330 C   0  0  0  0  0  0  0  0  0  0  0  0
  1  2  1  0
  2  3  2  0
  2  4  1  0
  4  5  1  0
  5  6  1  0
  6  7  1  0
  7  8  1  0
  8  9  1  1
  9 10  2  0
  9 11  1  0
 11 12  1  0
 12 13  2  0
 13 14  1  0
 14 15  2  0
 15 16  1  0
 15 17  1  0
 12 18  1  0
 17 18  2  0
 19 11  1  6
 19 20  1  0
 20 21  2  0
 22 21  1  0
 22 23  2  0
 22 24  2  0
 19 25  1  0
 22 25  1  0
  8 26  1  0
 26 27  2  0
 27 28  1  0
 28 29  2  0
 26 30  1  0
 29 30  1  0
  7 31  1  0
  4 32  1  0
 31 32  1  0
M  END
