MAK-UNK-9e4a73aa-6
     RDKit          3D

 26 29  0  0  0  0  0  0  0  0999 V2000
    7.9630   -3.9750   24.2130 O   0  0  0  0  0  0  0  0  0  0  0  0
    7.9480   -3.2700   23.2080 C   0  0  0  0  0  0  0  0  0  0  0  0
    7.0830   -3.6260   22.0340 C   0  0  0  0  0  0  0  0  0  0  0  0
    6.6090   -4.5950   21.4830 C   0  0  0  0  0  0  0  0  0  0  0  0
    6.1300   -3.5920   20.6570 C   0  0  0  0  0  0  0  0  0  0  0  0
    6.8150   -2.9520   21.6000 F   0  0  0  0  0  0  0  0  0  0  0  0
    5.9360   -2.0850   20.1820 C   0  0  0  0  0  0  0  0  0  0  0  0
    5.2090   -1.1230   18.9630 Cl  0  0  0  0  0  0  0  0  0  0  0  0
    5.6140   -3.1640   19.8250 C   0  0  0  0  0  0  0  0  0  0  0  0
    6.4950   -2.7520   21.0980 C   0  0  0  0  0  0  0  0  0  0  0  0
    6.8260   -1.3120   21.5030 C   0  0  2  0  0  0  0  0  0  0  0  0
    6.3780   -0.2620   20.5060 C   0  0  0  0  0  0  0  0  0  0  0  0
    5.2690    0.5300   20.8620 C   0  0  0  0  0  0  0  0  0  0  0  0
    4.7760    1.5080   20.0010 C   0  0  0  0  0  0  0  0  0  0  0  0
    5.3890    1.7090   18.7740 C   0  0  0  0  0  0  0  0  0  0  0  0
    6.4910    0.9380   18.4140 C   0  0  0  0  0  0  0  0  0  0  0  0
    6.9990   -0.0530   19.2640 C   0  0  0  0  0  0  0  0  0  0  0  0
    8.2920   -1.2080   21.9480 C   0  0  0  0  0  0  0  0  0  0  0  0
    9.0980   -0.2530   21.2780 O   0  0  0  0  0  0  0  0  0  0  0  0
    8.7250   -2.0560   23.0290 N   0  0  0  0  0  0  0  0  0  0  0  0
   10.2010   -2.1340   23.2200 C   0  0  0  0  0  0  0  0  0  0  0  0
   11.2720   -1.5580   23.3320 C   0  0  0  0  0  0  0  0  0  0  0  0
   12.4690   -1.8680   23.4800 C   0  0  0  0  0  0  0  0  0  0  0  0
   12.7450   -0.5980   23.4560 C   0  0  0  0  0  0  0  0  0  0  0  0
   11.5960    0.3040   23.2830 C   0  0  0  0  0  0  0  0  0  0  0  0
   10.3530   -0.6600   23.1800 C   0  0  0  0  0  0  0  0  0  0  0  0
  1  2  2  0
  2  3  1  0
  3  4  1  0
  4  5  2  0
  5  6  1  0
  5  7  1  0
  7  8  1  0
  7  9  2  0
  3 10  2  0
  9 10  1  0
 10 11  1  0
 11 12  1  6
 12 13  2  0
 13 14  1  0
 14 15  2  0
 15 16  1  0
 12 17  1  0
 16 17  2  0
 11 18  1  0
 18 19  2  0
  2 20  1  0
 18 20  1  0
 20 21  1  0
 21 22  2  0
 22 23  1  0
 23 24  2  0
 24 25  1  0
 21 26  1  0
 25 26  2  0
M  END
