MAK-UNK-0d6072ac-27
     RDKit          3D

 19 21  0  0  0  0  0  0  0  0999 V2000
   11.6210   -4.1730   26.0820 C   0  0  0  0  0  0  0  0  0  0  0  0
   12.6550   -3.2820   25.3140 C   0  0  2  0  0  0  0  0  0  0  0  0
   13.8990   -3.1260   26.0570 C   0  0  0  0  0  0  0  0  0  0  0  0
   14.4180   -2.0680   26.3140 O   0  0  0  0  0  0  0  0  0  0  0  0
   14.4080   -4.2370   26.4490 O   0  0  0  0  0  0  0  0  0  0  0  0
   12.1310   -2.2970   24.8380 C   0  0  0  0  0  0  0  0  0  0  0  0
   12.5290   -1.0000   24.7190 C   0  0  0  0  0  0  0  0  0  0  0  0
   11.7470   -0.0560   24.1200 C   0  0  0  0  0  0  0  0  0  0  0  0
   10.4840   -0.3710   23.6000 C   0  0  0  0  0  0  0  0  0  0  0  0
   10.1650   -1.4240   23.7050 C   0  0  0  0  0  0  0  0  0  0  0  0
   10.7910   -2.5920   24.2810 C   0  0  0  0  0  0  0  0  0  0  0  0
    8.9200   -0.7630   22.9610 N   0  0  0  0  0  0  0  0  0  0  0  0
    8.3620   -1.7110   22.9330 C   0  0  0  0  0  0  0  0  0  0  0  0
    7.3100   -2.4060   22.6140 N   0  0  0  0  0  0  0  0  0  0  0  0
    7.4540   -3.6790   23.0050 N   0  0  0  0  0  0  0  0  0  0  0  0
    8.6150   -4.0070   23.6290 C   0  0  0  0  0  0  0  0  0  0  0  0
    8.7080   -5.6460   24.1020 Cl  0  0  0  0  0  0  0  0  0  0  0  0
    9.6880   -3.1150   23.8980 C   0  0  0  0  0  0  0  0  0  0  0  0
    9.5410   -1.7680   23.4970 C   0  0  0  0  0  0  0  0  0  0  0  0
  2  1  1  1
  2  3  1  0
  3  4  2  0
  3  5  1  0
  2  6  1  0
  6  7  2  0
  7  8  1  0
  8  9  2  0
  9 10  1  0
  6 11  1  0
 10 11  2  0
 10 12  1  0
 12 13  1  0
 13 14  1  0
 14 15  2  0
 15 16  1  0
 16 17  1  0
 16 18  2  0
  9 19  1  0
 13 19  2  0
 18 19  1  0
M  END
