MAK-UNK-af83ef51-10
     RDKit          3D

 21 22  0  0  0  0  0  0  0  0999 V2000
   13.1980   -1.2400   23.3180 C   0  0  0  0  0  0  0  0  0  0  0  0
   12.4390    0.0640   23.0700 C   0  0  0  0  0  0  0  0  0  0  0  0
   12.8210    1.2230   22.9180 C   0  0  0  0  0  0  0  0  0  0  0  0
   11.3190    0.9490   22.8570 C   0  0  0  0  0  0  0  0  0  0  0  0
   11.9650   -0.5760   23.1350 C   0  0  0  0  0  0  0  0  0  0  0  0
   10.4570   -0.9050   23.0890 C   0  0  0  0  0  0  0  0  0  0  0  0
    9.0440   -0.3160   22.9060 C   0  0  0  0  0  0  0  0  0  0  0  0
    8.1000   -1.3090   22.8160 N   0  0  0  0  0  0  0  0  0  0  0  0
    6.8350   -1.2900   22.2900 C   0  0  0  0  0  0  0  0  0  0  0  0
    5.8150   -1.9500   22.9520 C   0  0  0  0  0  0  0  0  0  0  0  0
    6.1770   -3.2530   23.5050 N   0  0  0  0  0  0  0  0  0  0  0  0
    5.4290   -3.6550   24.7120 C   0  0  0  0  0  0  0  0  0  0  0  0
    5.9670   -4.0270   25.7630 O   0  0  0  0  0  0  0  0  0  0  0  0
    4.0610   -3.5890   24.5750 C   0  0  1  0  0  0  0  0  0  0  0  0
    3.3800   -4.9590   23.7850 Cl  0  0  0  0  0  0  0  0  0  0  0  0
    3.2920   -3.5440   25.6930 N   0  0  0  0  0  0  0  0  0  0  0  0
    1.9750   -2.8990   25.7670 C   0  0  0  0  0  0  0  0  0  0  0  0
    1.7430   -1.8820   26.4200 O   0  0  0  0  0  0  0  0  0  0  0  0
    7.5960   -3.6020   23.3510 C   0  0  0  0  0  0  0  0  0  0  0  0
    8.4020   -2.5030   23.6350 C   0  0  0  0  0  0  0  0  0  0  0  0
   11.0110    0.2540   22.9470 C   0  0  0  0  0  0  0  0  0  0  0  0
  1  2  1  0
  2  3  2  0
  3  4  1  0
  4  5  2  0
  5  6  1  0
  6  7  1  0
  7  8  1  0
  8  9  1  0
  9 10  1  0
 10 11  1  0
 11 12  1  0
 12 13  2  0
 12 14  1  0
 14 15  1  1
 14 16  1  0
 16 17  1  0
 17 18  2  0
 11 19  1  0
  8 20  1  0
 19 20  1  0
  2 21  1  0
  6 21  2  0
M  END
