MAK-UNK-9a6be56d-3
     RDKit          3D

 38 42  0  0  0  0  0  0  0  0999 V2000
    9.6990   -0.2800   25.1980 C   0  0  0  0  0  0  0  0  0  0  0  0
   10.4990   -0.2340   23.9920 N   0  0  0  0  0  0  0  0  0  0  0  0
   11.2480   -1.4820   23.7050 C   0  0  0  0  0  0  0  0  0  0  0  0
   12.3490   -1.3610   22.7000 C   0  0  0  0  0  0  0  0  0  0  0  0
   13.1620   -0.1410   22.9730 C   0  0  0  0  0  0  0  0  0  0  0  0
   12.5020    1.0770   23.1240 C   0  0  0  0  0  0  0  0  0  0  0  0
   13.0350    2.4650   22.8200 C   0  0  0  0  0  0  0  0  0  0  0  0
   12.2080    3.6990   23.0170 C   0  0  0  0  0  0  0  0  0  0  0  0
   10.8440    3.5000   23.5390 C   0  0  0  0  0  0  0  0  0  0  0  0
    9.8760    4.9110   23.7750 S   0  0  0  0  0  0  0  0  0  0  0  0
    9.4250    5.1160   25.1860 O   0  0  0  0  0  0  0  0  0  0  0  0
    8.6710    4.7650   22.8940 O   0  0  0  0  0  0  0  0  0  0  0  0
   10.6420    6.3100   23.2510 N   0  0  0  0  0  0  0  0  0  0  0  0
    9.6680    7.2420   22.8720 C   0  0  0  0  0  0  0  0  0  0  0  0
   11.7810    6.7690   23.8550 C   0  0  0  0  0  0  0  0  0  0  0  0
   11.7580    7.5080   25.0670 C   0  0  0  0  0  0  0  0  0  0  0  0
   11.9850    6.8600   26.3640 C   0  0  0  0  0  0  0  0  0  0  0  0
   11.9190    7.7560   27.3820 C   0  0  0  0  0  0  0  0  0  0  0  0
   12.0900    7.3820   28.7230 C   0  0  0  0  0  0  0  0  0  0  0  0
   11.0280    6.4820   29.3210 C   0  0  0  0  0  0  0  0  0  0  0  0
   11.2350    6.1300   30.6500 C   0  0  0  0  0  0  0  0  0  0  0  0
   12.3100    6.5390   31.4240 C   0  0  0  0  0  0  0  0  0  0  0  0
   13.2850    7.3700   30.8640 C   0  0  0  0  0  0  0  0  0  0  0  0
   13.1740    7.7850   29.5330 C   0  0  0  0  0  0  0  0  0  0  0  0
   14.1350    8.5830   29.0450 F   0  0  0  0  0  0  0  0  0  0  0  0
   11.6580    9.0270   26.8180 N   0  0  0  0  0  0  0  0  0  0  0  0
   11.4800   10.5250   27.6250 S   0  0  0  0  0  0  0  0  0  0  0  0
   10.1990   10.4750   28.3080 O   0  0  0  0  0  0  0  0  0  0  0  0
   12.7120   10.7250   28.3600 O   0  0  0  0  0  0  0  0  0  0  0  0
   11.3430   11.7370   26.3690 C   0  0  0  0  0  0  0  0  0  0  0  0
   10.0430   12.0310   25.6750 C   0  0  0  0  0  0  0  0  0  0  0  0
   10.0000   13.0070   24.6910 C   0  0  0  0  0  0  0  0  0  0  0  0
   11.1860   13.6770   24.3870 C   0  0  0  0  0  0  0  0  0  0  0  0
   12.3800   13.4320   24.9970 N   0  0  0  0  0  0  0  0  0  0  0  0
   12.4390   12.4750   25.9700 C   0  0  0  0  0  0  0  0  0  0  0  0
   11.5610    8.8700   25.4220 C   0  0  0  0  0  0  0  0  0  0  0  0
   10.3490    2.2040   23.8350 C   0  0  0  0  0  0  0  0  0  0  0  0
   11.0770    1.0080   23.6640 C   0  0  0  0  0  0  0  0  0  0  0  0
  1  2  1  0
  2  3  1  0
  3  4  1  0
  4  5  1  0
  5  6  1  0
  6  7  1  0
  7  8  2  0
  8  9  1  0
  9 10  1  0
 10 11  2  0
 10 12  2  0
 10 13  1  0
 13 14  1  0
 13 15  1  0
 15 16  1  0
 16 17  1  0
 17 18  2  0
 18 19  1  0
 19 20  2  0
 20 21  1  0
 21 22  2  0
 22 23  1  0
 19 24  1  0
 23 24  2  0
 24 25  1  0
 18 26  1  0
 26 27  1  0
 27 28  2  0
 27 29  2  0
 27 30  1  0
 30 31  2  0
 31 32  1  0
 32 33  2  0
 33 34  1  0
 30 35  1  0
 34 35  2  0
 16 36  2  0
 26 36  1  0
  9 37  2  0
  2 38  1  0
  6 38  2  0
 37 38  1  0
M  END
