MAK-UNK-8145c7a0-3
     RDKit          3D

 26 28  0  0  0  0  0  0  0  0999 V2000
    8.3840   -5.1670   26.2900 C   0  0  0  0  0  0  0  0  0  0  0  0
    8.3740   -3.7970   25.6480 C   0  0  0  0  0  0  0  0  0  0  0  0
    8.1810   -2.7450   26.5100 N   0  0  0  0  0  0  0  0  0  0  0  0
    8.2620   -1.6560   25.6970 N   0  0  0  0  0  0  0  0  0  0  0  0
    8.4860   -1.8770   24.3520 C   0  0  0  0  0  0  0  0  0  0  0  0
    8.6260   -0.8980   23.3490 C   0  0  1  0  0  0  0  0  0  0  0  0
    9.9540   -0.5150   23.0680 N   0  0  0  0  0  0  0  0  0  0  0  0
   10.6320    0.3160   24.0670 C   0  0  0  0  0  0  0  0  0  0  0  0
   11.5820    1.0660   23.3980 C   0  0  0  0  0  0  0  0  0  0  0  0
   12.5740    0.2540   22.8640 C   0  0  0  0  0  0  0  0  0  0  0  0
   12.2580   -1.1130   22.3040 C   0  0  0  0  0  0  0  0  0  0  0  0
   13.1960   -1.9200   21.7710 F   0  0  0  0  0  0  0  0  0  0  0  0
   10.7570   -1.4630   22.4060 C   0  0  0  0  0  0  0  0  0  0  0  0
    7.5380   -0.9060   22.0130 S   0  0  0  0  0  0  0  0  0  0  0  0
    8.1050   -0.1800   20.9040 O   0  0  0  0  0  0  0  0  0  0  0  0
    7.0200   -2.2500   21.8680 O   0  0  0  0  0  0  0  0  0  0  0  0
    6.1930   -0.0250   22.5250 N   0  0  0  0  0  0  0  0  0  0  0  0
    6.2680    1.4450   22.6260 C   0  0  0  0  0  0  0  0  0  0  0  0
    4.9620    2.0000   22.9430 C   0  0  0  0  0  0  0  0  0  0  0  0
    4.1490    2.2340   21.8200 C   0  0  0  0  0  0  0  0  0  0  0  0
    2.8900    3.1120   21.9110 C   0  0  0  0  0  0  0  0  0  0  0  0
    1.9380    3.4320   20.7570 C   0  0  0  0  0  0  0  0  0  0  0  0
    2.3440    2.7860   19.4440 C   0  0  0  0  0  0  0  0  0  0  0  0
    3.5780    1.9080   19.3020 C   0  0  0  0  0  0  0  0  0  0  0  0
    4.5100    1.6050   20.4590 C   0  0  0  0  0  0  0  0  0  0  0  0
    8.5920   -3.5380   23.9990 S   0  0  0  0  0  0  0  0  0  0  0  0
  1  2  1  0
  2  3  2  0
  3  4  1  0
  4  5  2  0
  5  6  1  0
  6  7  1  0
  7  8  1  0
  8  9  1  0
  9 10  1  0
 10 11  2  0
 11 12  1  0
  7 13  1  0
 11 13  1  0
  6 14  1  6
 14 15  2  0
 14 16  2  0
 14 17  1  0
 17 18  1  0
 18 19  1  0
 19 20  1  0
 20 21  2  0
 21 22  1  0
 22 23  2  0
 23 24  1  0
 20 25  1  0
 24 25  2  0
  2 26  1  0
  5 26  1  0
M  END
