MAK-UNK-10572812-14
     RDKit          3D

 34 38  0  0  0  0  0  0  0  0999 V2000
   13.3980   -1.9450   24.0450 C   0  0  0  0  0  0  0  0  0  0  0  0
   12.3960   -1.5020   23.1040 N   0  0  0  0  0  0  0  0  0  0  0  0
   11.0920   -2.0720   23.4640 C   0  0  0  0  0  0  0  0  0  0  0  0
   10.1270   -1.7590   22.5800 C   0  0  0  0  0  0  0  0  0  0  0  0
   10.1410   -0.3460   22.2010 N   0  0  0  0  0  0  0  0  0  0  0  0
    9.0350    0.1780   21.4430 C   0  0  0  0  0  0  0  0  0  0  0  0
    8.9010    1.5840   21.2560 O   0  0  0  0  0  0  0  0  0  0  0  0
    8.0940   -0.7330   20.8230 C   0  0  0  0  0  0  0  0  0  0  0  0
    7.2350    0.0180   20.0490 C   0  0  0  0  0  0  0  0  0  0  0  0
    7.1310    0.0830   18.6810 C   0  0  0  0  0  0  0  0  0  0  0  0
    7.9550   -0.7640   17.7400 C   0  0  0  0  0  0  0  0  0  0  0  0
    8.6640   -0.4470   16.7800 O   0  0  0  0  0  0  0  0  0  0  0  0
    7.7020   -2.0080   18.1260 N   0  0  0  0  0  0  0  0  0  0  0  0
    6.3370   -2.0410   18.0340 C   0  0  0  0  0  0  0  0  0  0  0  0
    5.6400   -1.5650   19.1260 C   0  0  0  0  0  0  0  0  0  0  0  0
    5.1600   -0.2830   18.7130 C   0  0  0  0  0  0  0  0  0  0  0  0
    3.9840    0.4630   19.2310 C   0  0  0  0  0  0  0  0  0  0  0  0
    3.8100    1.6810   18.5880 N   0  0  0  0  0  0  0  0  0  0  0  0
    4.9220    1.7250   17.6410 C   0  0  0  0  0  0  0  0  0  0  0  0
    5.1830    2.7850   16.7540 C   0  0  0  0  0  0  0  0  0  0  0  0
    6.3120    2.6600   15.8980 C   0  0  0  0  0  0  0  0  0  0  0  0
    7.1240    1.4920   15.9710 C   0  0  0  0  0  0  0  0  0  0  0  0
    8.1850    1.2790   15.2260 F   0  0  0  0  0  0  0  0  0  0  0  0
    6.8040    0.4970   16.8530 C   0  0  0  0  0  0  0  0  0  0  0  0
    5.7150    0.5750   17.7070 C   0  0  0  0  0  0  0  0  0  0  0  0
    6.2250    0.9260   18.2250 N   0  0  0  0  0  0  0  0  0  0  0  0
    5.6290    1.4700   19.3220 C   0  0  0  0  0  0  0  0  0  0  0  0
    4.6380    2.3680   19.2840 N   0  0  0  0  0  0  0  0  0  0  0  0
    4.1960    2.7330   20.5020 C   0  0  0  0  0  0  0  0  0  0  0  0
    4.6500    2.3000   21.6900 C   0  0  0  0  0  0  0  0  0  0  0  0
    5.6550    1.4080   21.6980 C   0  0  0  0  0  0  0  0  0  0  0  0
    6.2110    0.9320   20.4610 C   0  0  0  0  0  0  0  0  0  0  0  0
   10.9680    0.4820   23.0280 C   0  0  0  0  0  0  0  0  0  0  0  0
   12.3730   -0.0330   23.0620 C   0  0  0  0  0  0  0  0  0  0  0  0
  1  2  1  0
  2  3  1  0
  3  4  1  0
  4  5  1  0
  5  6  1  0
  6  7  2  0
  6  8  1  0
  8  9  1  0
  9 10  2  0
 10 11  1  0
 11 12  2  0
 11 13  1  0
 13 14  1  0
 14 15  1  0
 15 16  1  0
 16 17  2  0
 17 18  1  0
 18 19  1  0
 19 20  1  0
 20 21  2  0
 21 22  1  0
 22 23  1  0
 22 24  2  0
 16 25  1  0
 19 25  2  0
 24 25  1  0
 10 26  1  0
 26 27  1  0
 27 28  2  0
 28 29  1  0
 29 30  2  0
 30 31  1  0
  9 32  1  0
 27 32  1  0
 31 32  2  0
  5 33  1  0
  2 34  1  0
 33 34  1  0
M  END
