MAK-UNK-2084232d-9
     RDKit          3D

 24 26  0  0  0  0  0  0  0  0999 V2000
   14.0130   -2.8450   23.9840 N   0  0  0  0  0  0  0  0  0  0  0  0
   12.9270   -2.7260   24.9740 C   0  0  0  0  0  0  0  0  0  0  0  0
   11.6430   -2.3180   24.2420 C   0  0  1  0  0  0  0  0  0  0  0  0
   10.4620   -3.3230   24.4290 O   0  0  0  0  0  0  0  0  0  0  0  0
    9.3840   -3.2740   23.3830 C   0  0  1  0  0  0  0  0  0  0  0  0
    8.2100   -4.0560   23.2190 C   0  0  0  0  0  0  0  0  0  0  0  0
    7.3780   -3.4030   22.3380 C   0  0  2  0  0  0  0  0  0  0  0  0
    6.5920   -2.5580   22.7840 O   0  0  0  0  0  0  0  0  0  0  0  0
    6.5700   -4.4280   21.5620 C   0  0  2  0  0  0  0  0  0  0  0  0
    5.7980   -3.8600   20.4980 O   0  0  0  0  0  0  0  0  0  0  0  0
    5.7450   -5.2000   22.5410 C   0  0  0  0  0  0  0  0  0  0  0  0
    6.5010   -5.6990   23.5950 C   0  0  1  0  0  0  0  0  0  0  0  0
    7.1530   -6.8230   23.0240 O   0  0  0  0  0  0  0  0  0  0  0  0
    7.5110   -4.8720   24.1380 C   0  0  1  0  0  0  0  0  0  0  0  0
    8.4230   -5.7640   24.7590 O   0  0  0  0  0  0  0  0  0  0  0  0
    9.1990   -1.8540   23.5070 C   0  0  0  0  0  0  0  0  0  0  0  0
   10.4920   -1.8790   23.8750 C   0  0  0  0  0  0  0  0  0  0  0  0
   11.3930   -0.9820   23.7760 C   0  0  0  0  0  0  0  0  0  0  0  0
   12.8080   -0.6780   24.0400 C   0  0  0  0  0  0  0  0  0  0  0  0
   13.4720   -1.8550   24.7110 C   0  0  0  0  0  0  0  0  0  0  0  0
   12.6960   -2.9630   24.9610 C   0  0  0  0  0  0  0  0  0  0  0  0
   13.3920   -3.9600   25.6150 O   0  0  0  0  0  0  0  0  0  0  0  0
   11.1450   -3.0280   24.5260 C   0  0  0  0  0  0  0  0  0  0  0  0
   10.5300   -4.2250   24.8400 O   0  0  0  0  0  0  0  0  0  0  0  0
  1  2  1  0
  3  2  1  1
  3  4  1  0
  4  5  1  0
  5  6  1  1
  6  7  1  0
  7  8  1  1
  7  9  1  0
  9 10  1  6
  9 11  1  0
 11 12  1  0
 12 13  1  6
  6 14  1  0
 12 14  1  0
 14 15  1  6
  5 16  1  0
 16 17  1  0
  3 18  1  0
 17 18  2  0
 18 19  1  0
 19 20  2  0
 20 21  1  0
 21 22  1  0
 17 23  1  0
 21 23  2  0
 23 24  1  0
M  END
