MAK-UNK-23561bf6-1
     RDKit          3D

 17 18  0  0  0  0  0  0  0  0999 V2000
    6.3330   -2.7490   20.9140 C   0  0  0  0  0  0  0  0  0  0  0  0
    5.8980   -4.1800   20.7210 C   0  0  0  0  0  0  0  0  0  0  0  0
    5.2560   -4.5050   19.7270 O   0  0  0  0  0  0  0  0  0  0  0  0
    6.2770   -5.0470   21.6990 N   0  0  0  0  0  0  0  0  0  0  0  0
    7.0650   -4.5940   22.6840 C   0  0  0  0  0  0  0  0  0  0  0  0
    6.5380   -4.6820   24.0610 C   0  0  0  0  0  0  0  0  0  0  0  0
    5.1660   -4.9000   24.2100 N   0  0  0  0  0  0  0  0  0  0  0  0
    4.5500   -5.0720   25.7750 S   0  0  0  0  0  0  0  0  0  0  0  0
    3.9030   -6.4260   25.8760 O   0  0  0  0  0  0  0  0  0  0  0  0
    5.6170   -4.6730   26.6680 O   0  0  0  0  0  0  0  0  0  0  0  0
    3.3320   -3.8750   25.8550 C   0  0  0  0  0  0  0  0  0  0  0  0
    3.6140   -2.3820   26.1820 C   0  0  0  0  0  0  0  0  0  0  0  0
    2.3860   -1.4460   26.2250 C   0  0  0  0  0  0  0  0  0  0  0  0
    1.0930   -2.6520   25.8430 S   0  0  0  0  0  0  0  0  0  0  0  0
    1.9760   -4.1620   25.6350 C   0  0  0  0  0  0  0  0  0  0  0  0
    4.6460   -5.6950   23.1630 C   0  0  0  0  0  0  0  0  0  0  0  0
    5.4810   -6.1020   22.0980 C   0  0  0  0  0  0  0  0  0  0  0  0
  1  2  1  0
  2  3  2  0
  2  4  1  0
  4  5  1  0
  5  6  1  0
  6  7  1  0
  7  8  1  0
  8  9  2  0
  8 10  2  0
  8 11  1  0
 11 12  2  0
 12 13  1  0
 13 14  1  0
 11 15  1  0
 14 15  2  0
  7 16  1  0
  4 17  1  0
 16 17  1  0
M  END
