MAK-UNK-2084232d-11
     RDKit          3D

 22 24  0  0  0  0  0  0  0  0999 V2000
   13.2210   -1.5470   22.2360 N   0  0  0  0  0  0  0  0  0  0  0  0
   12.5740   -2.5730   23.0740 C   0  0  0  0  0  0  0  0  0  0  0  0
   11.5190   -2.1470   24.0760 C   0  0  2  0  0  0  0  0  0  0  0  0
   10.3980   -2.9720   24.1680 O   0  0  0  0  0  0  0  0  0  0  0  0
    8.9440   -2.5570   23.9460 C   0  0  2  0  0  0  0  0  0  0  0  0
    7.9140   -3.4220   23.4440 C   0  0  2  0  0  0  0  0  0  0  0  0
    7.7390   -4.8710   23.8230 C   0  0  0  0  0  0  0  0  0  0  0  0
    7.1870   -5.8900   23.0180 C   0  0  0  0  0  0  0  0  0  0  0  0
    6.4610   -5.4800   21.8910 C   0  0  0  0  0  0  0  0  0  0  0  0
    6.3360   -3.9950   21.6120 C   0  0  2  0  0  0  0  0  0  0  0  0
    5.8820   -3.6710   20.2230 C   0  0  0  0  0  0  0  0  0  0  0  0
    6.3510   -2.6180   19.7890 O   0  0  0  0  0  0  0  0  0  0  0  0
    7.6770   -3.3180   21.9420 C   0  0  0  0  0  0  0  0  0  0  0  0
    9.2620   -1.4900   23.0150 C   0  0  0  0  0  0  0  0  0  0  0  0
   10.4850   -1.5550   23.5210 C   0  0  0  0  0  0  0  0  0  0  0  0
   11.3660   -0.6800   23.5940 C   0  0  0  0  0  0  0  0  0  0  0  0
   12.6420   -0.4720   24.0390 C   0  0  0  0  0  0  0  0  0  0  0  0
   13.1760   -1.5690   24.6360 C   0  0  0  0  0  0  0  0  0  0  0  0
   12.3920   -2.6710   24.7000 C   0  0  0  0  0  0  0  0  0  0  0  0
   13.0240   -3.6780   25.3260 O   0  0  0  0  0  0  0  0  0  0  0  0
   11.0610   -2.7100   24.1560 C   0  0  0  0  0  0  0  0  0  0  0  0
   10.4000   -3.8880   24.2940 O   0  0  0  0  0  0  0  0  0  0  0  0
  1  2  1  0
  3  2  1  6
  3  4  1  0
  4  5  1  0
  5  6  1  0
  6  7  1  6
  7  8  1  0
  8  9  1  0
  9 10  1  0
 10 11  1  6
 11 12  1  0
  6 13  1  0
 10 13  1  0
  5 14  1  6
 14 15  1  0
  3 16  1  0
 15 16  2  0
 16 17  1  0
 17 18  2  0
 18 19  1  0
 19 20  1  0
 15 21  1  0
 19 21  2  0
 21 22  1  0
M  END
