MAK-UNK-27459e11-16
     RDKit          3D

 16 16  0  0  0  0  0  0  0  0999 V2000
    6.6340   -5.5280   26.7710 C   0  0  0  0  0  0  0  0  0  0  0  0
    8.0820   -4.6600   26.2160 S   0  0  0  0  0  0  0  0  0  0  0  0
    9.1840   -5.5800   26.0960 O   0  0  0  0  0  0  0  0  0  0  0  0
    8.1710   -3.4270   26.9650 O   0  0  0  0  0  0  0  0  0  0  0  0
    7.6510   -4.2910   24.6440 N   0  0  0  0  0  0  0  0  0  0  0  0
    8.6870   -3.6540   23.8270 C   0  0  0  0  0  0  0  0  0  0  0  0
    8.5240   -2.2060   23.7440 C   0  0  0  0  0  0  0  0  0  0  0  0
    9.6090   -1.3920   23.5340 C   0  0  0  0  0  0  0  0  0  0  0  0
    9.6530   -0.2080   24.2680 C   0  0  0  0  0  0  0  0  0  0  0  0
   10.7770    0.7070   24.0570 C   0  0  0  0  0  0  0  0  0  0  0  0
   11.7490    0.2930   23.1010 C   0  0  0  0  0  0  0  0  0  0  0  0
   12.8120    1.2370   22.8930 C   0  0  0  0  0  0  0  0  0  0  0  0
   12.6570    2.5820   22.8990 N   0  0  0  0  0  0  0  0  0  0  0  0
   13.9330    0.6580   22.6730 N   0  0  0  0  0  0  0  0  0  0  0  0
   11.6990   -0.9060   22.3980 C   0  0  0  0  0  0  0  0  0  0  0  0
   10.6180   -1.7530   22.6110 C   0  0  0  0  0  0  0  0  0  0  0  0
  1  2  1  0
  2  3  2  0
  2  4  2  0
  2  5  1  0
  5  6  1  0
  6  7  1  0
  7  8  1  0
  8  9  2  0
  9 10  1  0
 10 11  2  0
 11 12  1  0
 12 13  2  3
 12 14  1  0
 11 15  1  0
  8 16  1  0
 15 16  2  0
M  END
