MAK-UNK-0cb6a3ad-1
     RDKit          3D

 10 10  0  0  0  0  0  0  0  0999 V2000
    9.0910   -2.4140   24.0690 C   0  0  0  0  0  0  0  0  0  0  0  0
   10.6160   -2.3130   24.3510 C   0  0  0  0  0  0  0  0  0  0  0  0
   11.3680   -1.1680   23.6690 C   0  0  0  0  0  0  0  0  0  0  0  0
   12.7250   -1.0360   23.8770 C   0  0  0  0  0  0  0  0  0  0  0  0
   13.4850   -0.0610   23.3050 O   0  0  0  0  0  0  0  0  0  0  0  0
   13.3180   -1.9690   24.7120 C   0  0  0  0  0  0  0  0  0  0  0  0
   12.7110   -3.0070   25.3600 C   0  0  0  0  0  0  0  0  0  0  0  0
   13.5290   -3.7800   26.1610 C   0  0  0  0  0  0  0  0  0  0  0  0
   11.3220   -3.1970   25.1800 C   0  0  0  0  0  0  0  0  0  0  0  0
   10.4630   -4.4890   25.9640 Cl  0  0  0  0  0  0  0  0  0  0  0  0
  1  2  1  0
  2  3  2  0
  3  4  1  0
  4  5  1  0
  4  6  2  0
  6  7  1  0
  7  8  1  0
  2  9  1  0
  7  9  2  0
  9 10  1  0
M  END
