MAK-UNK-9a6be56d-6
     RDKit          3D

 38 42  0  0  0  0  0  0  0  0999 V2000
   13.4120    4.6970   21.9320 C   0  0  0  0  0  0  0  0  0  0  0  0
   13.6010    5.5630   23.0640 N   0  0  0  0  0  0  0  0  0  0  0  0
   12.8540    6.7650   22.8140 C   0  0  0  0  0  0  0  0  0  0  0  0
   11.8980    7.1310   23.7530 C   0  0  0  0  0  0  0  0  0  0  0  0
   10.5640    6.9740   23.5540 C   0  0  0  0  0  0  0  0  0  0  0  0
    9.7330    7.3320   24.4860 C   0  0  0  0  0  0  0  0  0  0  0  0
    8.2880    7.1720   24.3630 C   0  0  0  0  0  0  0  0  0  0  0  0
    7.3830    8.2380   24.3620 C   0  0  0  0  0  0  0  0  0  0  0  0
    6.0090    8.1230   24.2450 C   0  0  0  0  0  0  0  0  0  0  0  0
    5.4180    6.8690   24.1140 C   0  0  0  0  0  0  0  0  0  0  0  0
    6.2420    5.7290   24.1020 C   0  0  0  0  0  0  0  0  0  0  0  0
    7.6480    5.7550   24.2150 C   0  0  0  0  0  0  0  0  0  0  0  0
    8.4710    4.5190   24.1930 N   0  0  0  0  0  0  0  0  0  0  0  0
   10.0430    4.6160   23.6390 S   0  0  0  0  0  0  0  0  0  0  0  0
   10.6810    5.1050   24.8450 O   0  0  0  0  0  0  0  0  0  0  0  0
    9.9410    5.4110   22.4700 O   0  0  0  0  0  0  0  0  0  0  0  0
   10.8160    3.0800   23.3040 C   0  0  0  0  0  0  0  0  0  0  0  0
   12.1710    3.1220   23.0830 C   0  0  0  0  0  0  0  0  0  0  0  0
   12.9120    1.9800   22.8580 C   0  0  0  0  0  0  0  0  0  0  0  0
   12.3070    0.7530   22.8570 C   0  0  0  0  0  0  0  0  0  0  0  0
   10.9410    0.6330   23.0600 C   0  0  0  0  0  0  0  0  0  0  0  0
   10.1780    1.8120   23.2690 C   0  0  0  0  0  0  0  0  0  0  0  0
   10.4010   -0.6500   23.0680 N   0  0  0  0  0  0  0  0  0  0  0  0
    9.0500   -0.8890   23.5260 C   0  0  0  0  0  0  0  0  0  0  0  0
   11.3360   -1.7200   23.4070 C   0  0  0  0  0  0  0  0  0  0  0  0
   12.3640   -1.6640   22.4800 C   0  0  0  0  0  0  0  0  0  0  0  0
   13.1360   -0.5230   22.6390 C   0  0  0  0  0  0  0  0  0  0  0  0
   10.6100    7.8270   25.4650 N   0  0  0  0  0  0  0  0  0  0  0  0
   10.2590    8.5060   26.9950 S   0  0  0  0  0  0  0  0  0  0  0  0
    8.8480    8.8050   26.9960 O   0  0  0  0  0  0  0  0  0  0  0  0
   10.8670    7.6180   27.9600 O   0  0  0  0  0  0  0  0  0  0  0  0
   11.1080   10.0470   26.9710 C   0  0  0  0  0  0  0  0  0  0  0  0
   11.7130   10.4610   25.7820 C   0  0  0  0  0  0  0  0  0  0  0  0
   12.4340   11.8120   25.8140 C   0  0  0  0  0  0  0  0  0  0  0  0
   12.4040   12.4830   27.0450 C   0  0  0  0  0  0  0  0  0  0  0  0
   11.8010   12.0260   28.1620 N   0  0  0  0  0  0  0  0  0  0  0  0
   11.1680   10.8260   28.1090 C   0  0  0  0  0  0  0  0  0  0  0  0
   11.9300    7.6970   25.0180 C   0  0  0  0  0  0  0  0  0  0  0  0
  1  2  1  0
  2  3  1  0
  3  4  1  0
  4  5  1  0
  5  6  2  0
  6  7  1  0
  7  8  2  0
  8  9  1  0
  9 10  2  0
 10 11  1  0
  7 12  1  0
 11 12  2  0
 12 13  1  0
 14 13  1  0
 14 15  2  0
 14 16  2  0
 14 17  1  0
 17 18  2  0
 18 19  1  0
 19 20  2  0
 20 21  1  0
 17 22  1  0
 21 22  2  0
 21 23  1  0
 23 24  1  0
 23 25  1  0
 25 26  1  0
 20 27  1  0
 26 27  1  0
  6 28  1  0
 28 29  1  0
 29 30  2  0
 29 31  2  0
 29 32  1  0
 32 33  2  0
 33 34  1  0
 34 35  2  0
 35 36  1  0
 32 37  1  0
 36 37  2  0
  4 38  2  0
 28 38  1  0
M  END
