MAK-UNK-f2409524-1
     RDKit          3D

 22 23  0  0  0  0  0  0  0  0999 V2000
    9.8590   -0.6080   22.4600 C   0  0  0  0  0  0  0  0  0  0  0  0
    8.9110    0.0610   21.5370 C   0  0  0  0  0  0  0  0  0  0  0  0
    9.0670    1.2620   21.2440 O   0  0  0  0  0  0  0  0  0  0  0  0
    7.8700   -0.7210   21.0490 N   0  0  0  0  0  0  0  0  0  0  0  0
    6.8620   -0.0740   20.2130 C   0  0  0  0  0  0  0  0  0  0  0  0
    7.0490   -0.2130   18.7630 C   0  0  0  0  0  0  0  0  0  0  0  0
    6.1300    0.3970   17.8140 N   0  0  0  0  0  0  0  0  0  0  0  0
    4.9890    1.1630   18.3310 C   0  0  0  0  0  0  0  0  0  0  0  0
    4.7480    1.3240   19.8350 C   0  0  0  0  0  0  0  0  0  0  0  0
    5.7910    0.6370   20.7380 C   0  0  0  0  0  0  0  0  0  0  0  0
    5.5360    0.8160   22.2380 C   0  0  0  0  0  0  0  0  0  0  0  0
    5.0110    2.1910   22.5450 C   0  0  0  0  0  0  0  0  0  0  0  0
    5.7950    3.3000   22.1800 C   0  0  0  0  0  0  0  0  0  0  0  0
    6.2960    3.9240   23.4240 N   0  0  0  0  0  0  0  0  0  0  0  0
    7.4360    4.8410   23.3860 C   0  0  0  0  0  0  0  0  0  0  0  0
    8.0220    5.5070   24.4320 N   0  0  0  0  0  0  0  0  0  0  0  0
    9.3420    6.1220   24.3260 C   0  0  0  0  0  0  0  0  0  0  0  0
    9.1640    7.4730   24.6720 C   0  0  0  0  0  0  0  0  0  0  0  0
   10.1290    8.1660   25.4330 C   0  0  0  0  0  0  0  0  0  0  0  0
   11.4010    7.5910   25.5220 C   0  0  0  0  0  0  0  0  0  0  0  0
   11.4540    6.0780   25.6270 C   0  0  0  0  0  0  0  0  0  0  0  0
   10.2020    5.3590   25.1230 C   0  0  0  0  0  0  0  0  0  0  0  0
  1  2  1  0
  2  3  2  0
  2  4  1  0
  4  5  1  0
  5  6  2  0
  6  7  1  0
  7  8  2  0
  8  9  1  0
  5 10  1  0
  9 10  2  0
 10 11  1  0
 11 12  1  0
 12 13  1  0
 13 14  1  0
 14 15  2  3
 15 16  1  0
 16 17  1  0
 17 18  1  0
 18 19  1  0
 19 20  1  0
 20 21  1  0
 17 22  1  0
 21 22  1  0
M  END
