MAK-UNK-0cb6a3ad-8
     RDKit          3D

 11 12  0  0  0  0  0  0  0  0999 V2000
   11.6790    2.2490   22.8370 C   0  0  0  0  0  0  0  0  0  0  0  0
   11.0630    0.8350   22.9350 C   0  0  0  0  0  0  0  0  0  0  0  0
    9.7850    0.4450   22.5220 C   0  0  0  0  0  0  0  0  0  0  0  0
    9.6600   -0.9850   22.8140 O   0  0  0  0  0  0  0  0  0  0  0  0
   10.8520   -1.4130   23.3830 C   0  0  0  0  0  0  0  0  0  0  0  0
   11.7360   -0.4060   23.5030 C   0  0  0  0  0  0  0  0  0  0  0  0
   12.9680   -0.5520   24.0360 C   0  0  0  0  0  0  0  0  0  0  0  0
   12.9530   -1.6180   24.9400 C   0  0  0  0  0  0  0  0  0  0  0  0
   12.6260   -2.7420   24.2860 C   0  0  2  0  0  0  0  0  0  0  0  0
   13.3120   -2.7270   23.0720 C   0  0  0  0  0  0  0  0  0  0  0  0
   11.1620   -2.7730   23.8020 C   0  0  0  0  0  0  0  0  0  0  0  0
  1  2  1  0
  2  3  2  0
  3  4  1  0
  4  5  1  0
  2  6  1  0
  5  6  2  0
  6  7  1  0
  7  8  1  0
  8  9  1  0
  9 10  1  6
  5 11  1  0
  9 11  1  0
M  END
