MAK-UNK-de9577cf-7
     RDKit          3D

 37 40  0  0  0  0  0  0  0  0999 V2000
   22.6490   -2.3490   26.4090 C   0  0  0  0  0  0  0  0  0  0  0  0
   21.4850   -3.1950   26.2590 N   0  0  0  0  0  0  0  0  0  0  0  0
   20.5100   -2.6390   25.3230 C   0  0  0  0  0  0  0  0  0  0  0  0
   19.4530   -3.4780   24.9230 C   0  0  0  0  0  0  0  0  0  0  0  0
   18.1450   -3.2100   25.1360 C   0  0  0  0  0  0  0  0  0  0  0  0
   17.1860   -4.0260   24.7430 C   0  0  0  0  0  0  0  0  0  0  0  0
   15.7650   -3.5580   24.9740 C   0  0  0  0  0  0  0  0  0  0  0  0
   14.9930   -2.8220   25.9370 C   0  0  0  0  0  0  0  0  0  0  0  0
   13.7570   -2.2410   25.6370 C   0  0  0  0  0  0  0  0  0  0  0  0
   13.1440   -2.3110   24.4100 C   0  0  0  0  0  0  0  0  0  0  0  0
   12.0790   -1.6950   24.1150 O   0  0  0  0  0  0  0  0  0  0  0  0
   12.3550   -0.7720   23.0310 C   0  0  0  0  0  0  0  0  0  0  0  0
   13.1250   -1.0150   22.1430 O   0  0  0  0  0  0  0  0  0  0  0  0
   11.7370    0.5250   23.0210 C   0  0  0  0  0  0  0  0  0  0  0  0
   10.3530    0.7560   23.0610 C   0  0  0  0  0  0  0  0  0  0  0  0
    9.8330    2.0940   23.0880 C   0  0  0  0  0  0  0  0  0  0  0  0
   10.7140    3.2100   23.0820 C   0  0  0  0  0  0  0  0  0  0  0  0
   10.1160    4.8890   23.2350 S   0  0  0  0  0  0  0  0  0  0  0  0
    8.6210    4.9160   22.4780 N   0  0  0  0  0  0  0  0  0  0  0  0
   11.0000    5.8680   22.6390 O   0  0  0  0  0  0  0  0  0  0  0  0
    9.9340    5.2160   24.6430 O   0  0  0  0  0  0  0  0  0  0  0  0
   12.0860    2.9720   22.9860 C   0  0  0  0  0  0  0  0  0  0  0  0
   12.5610    1.6530   22.9580 C   0  0  0  0  0  0  0  0  0  0  0  0
   13.8780   -3.1480   23.4270 C   0  0  0  0  0  0  0  0  0  0  0  0
   15.2010   -3.7390   23.8390 C   0  0  0  0  0  0  0  0  0  0  0  0
   16.0090   -4.4830   23.0200 F   0  0  0  0  0  0  0  0  0  0  0  0
   17.9900   -5.0000   24.1220 N   0  0  0  0  0  0  0  0  0  0  0  0
   17.5520   -6.3770   23.2660 S   0  0  0  0  0  0  0  0  0  0  0  0
   16.5840   -6.1070   22.2310 O   0  0  0  0  0  0  0  0  0  0  0  0
   18.6270   -7.3040   23.2580 O   0  0  0  0  0  0  0  0  0  0  0  0
   16.8850   -6.7140   24.6750 C   0  0  0  0  0  0  0  0  0  0  0  0
   17.1720   -7.8810   25.2260 C   0  0  0  0  0  0  0  0  0  0  0  0
   16.6460   -8.0090   26.4060 C   0  0  0  0  0  0  0  0  0  0  0  0
   15.9030   -7.0250   26.9200 C   0  0  0  0  0  0  0  0  0  0  0  0
   15.5840   -5.8920   26.3600 N   0  0  0  0  0  0  0  0  0  0  0  0
   16.1120   -5.7510   25.2040 C   0  0  0  0  0  0  0  0  0  0  0  0
   19.3440   -4.6740   24.2540 C   0  0  0  0  0  0  0  0  0  0  0  0
  1  2  1  0
  2  3  1  0
  3  4  1  0
  4  5  1  0
  5  6  2  0
  6  7  1  0
  7  8  2  0
  8  9  1  0
  9 10  2  0
 10 11  1  0
 11 12  1  0
 12 13  2  0
 12 14  1  0
 14 15  2  0
 15 16  1  0
 16 17  2  0
 17 18  1  0
 18 19  1  0
 18 20  2  0
 18 21  2  0
 17 22  1  0
 14 23  1  0
 22 23  2  0
 10 24  1  0
  7 25  1  0
 24 25  2  0
 25 26  1  0
  6 27  1  0
 27 28  1  0
 28 29  2  0
 28 30  2  0
 28 31  1  0
 31 32  2  0
 32 33  1  0
 33 34  2  0
 34 35  1  0
 31 36  1  0
 35 36  2  0
  4 37  2  0
 27 37  1  0
M  END
