MAK-UNK-9e4a73aa-16
     RDKit          3D

 26 29  0  0  0  0  0  0  0  0999 V2000
    6.4810   -1.6740   20.3310 O   0  0  0  0  0  0  0  0  0  0  0  0
    6.9900   -2.0150   21.4060 C   0  0  0  0  0  0  0  0  0  0  0  0
    6.4080   -3.0040   22.1160 C   0  0  0  0  0  0  0  0  0  0  0  0
    5.0560   -3.4850   21.8740 C   0  0  0  0  0  0  0  0  0  0  0  0
    4.5160   -4.6190   22.8120 C   0  0  0  0  0  0  0  0  0  0  0  0
    3.2890   -5.1250   22.6970 F   0  0  0  0  0  0  0  0  0  0  0  0
    5.3170   -5.1130   23.7870 C   0  0  0  0  0  0  0  0  0  0  0  0
    4.6860   -6.3490   24.7980 Cl  0  0  0  0  0  0  0  0  0  0  0  0
    6.5970   -4.6190   23.9520 C   0  0  0  0  0  0  0  0  0  0  0  0
    7.0920   -3.5970   23.1310 C   0  0  0  0  0  0  0  0  0  0  0  0
    8.3950   -3.2240   23.5040 N   0  0  0  0  0  0  0  0  0  0  0  0
    8.2920   -3.3240   24.8740 C   0  0  0  0  0  0  0  0  0  0  0  0
    7.8980   -2.1410   25.7250 C   0  0  0  0  0  0  0  0  0  0  0  0
    7.7650   -2.4260   27.2060 C   0  0  0  0  0  0  0  0  0  0  0  0
    8.0000   -3.7180   27.7020 C   0  0  0  0  0  0  0  0  0  0  0  0
    8.3720   -4.7660   26.8480 C   0  0  0  0  0  0  0  0  0  0  0  0
    8.5190   -4.5860   25.4700 C   0  0  0  0  0  0  0  0  0  0  0  0
    8.9800   -2.1410   22.7900 C   0  0  0  0  0  0  0  0  0  0  0  0
   10.3670   -1.7780   22.8850 O   0  0  0  0  0  0  0  0  0  0  0  0
    8.1130   -1.4390   21.9590 N   0  0  0  0  0  0  0  0  0  0  0  0
    8.2300    0.0080   21.8680 C   0  0  0  0  0  0  0  0  0  0  0  0
    7.1680    0.6710   21.2630 C   0  0  0  0  0  0  0  0  0  0  0  0
    7.2300    2.0610   21.1550 C   0  0  0  0  0  0  0  0  0  0  0  0
    8.2680    2.8170   21.6030 N   0  0  0  0  0  0  0  0  0  0  0  0
    9.3100    2.2330   22.1900 N   0  0  0  0  0  0  0  0  0  0  0  0
    9.2970    0.7760   22.3310 C   0  0  0  0  0  0  0  0  0  0  0  0
  1  2  2  0
  2  3  1  0
  3  4  2  0
  4  5  1  0
  5  6  1  0
  5  7  2  0
  7  8  1  0
  7  9  1  0
  3 10  1  0
  9 10  2  0
 10 11  1  0
 11 12  1  0
 12 13  2  0
 13 14  1  0
 14 15  2  0
 15 16  1  0
 12 17  1  0
 16 17  2  0
 11 18  1  0
 18 19  2  0
  2 20  1  0
 18 20  1  0
 20 21  1  0
 21 22  2  0
 22 23  1  0
 23 24  2  0
 24 25  1  0
 21 26  1  0
 25 26  2  0
M  END
