MAK-UNK-9a6be56d-4
     RDKit          3D

 38 42  0  0  0  0  0  0  0  0999 V2000
    8.8870    7.6100   22.9900 C   0  0  0  0  0  0  0  0  0  0  0  0
    9.5540    7.5050   24.2060 N   0  0  0  0  0  0  0  0  0  0  0  0
   10.3000    6.4300   24.5090 N   0  0  0  0  0  0  0  0  0  0  0  0
   11.3280    6.1430   23.7270 C   0  0  0  0  0  0  0  0  0  0  0  0
   12.5540    5.7070   24.1290 C   0  0  0  0  0  0  0  0  0  0  0  0
   13.3050    5.4240   23.0640 C   0  0  0  0  0  0  0  0  0  0  0  0
   14.5350    4.9430   22.8440 C   0  0  0  0  0  0  0  0  0  0  0  0
   15.7700    4.9130   23.5470 C   0  0  0  0  0  0  0  0  0  0  0  0
   16.7880    4.4740   23.1720 C   0  0  0  0  0  0  0  0  0  0  0  0
   16.6570    4.0170   22.0990 C   0  0  0  0  0  0  0  0  0  0  0  0
   15.6150    3.8700   21.2120 C   0  0  0  0  0  0  0  0  0  0  0  0
   14.4910    4.3620   21.6110 C   0  0  0  0  0  0  0  0  0  0  0  0
   13.3970    4.2950   20.8490 F   0  0  0  0  0  0  0  0  0  0  0  0
   12.6420    5.6610   21.9550 N   0  0  0  0  0  0  0  0  0  0  0  0
   13.3350    5.2820   20.4570 S   0  0  0  0  0  0  0  0  0  0  0  0
   14.6560    5.6600   20.0810 O   0  0  0  0  0  0  0  0  0  0  0  0
   12.3970    4.8810   19.4650 O   0  0  0  0  0  0  0  0  0  0  0  0
   13.4590    3.8120   21.2580 C   0  0  0  0  0  0  0  0  0  0  0  0
   12.1950    3.3130   21.8870 C   0  0  0  0  0  0  0  0  0  0  0  0
   12.1910    1.9750   22.5940 C   0  0  0  0  0  0  0  0  0  0  0  0
   13.5410    1.3010   22.5520 C   0  0  0  0  0  0  0  0  0  0  0  0
   14.6550    1.8440   21.9650 N   0  0  0  0  0  0  0  0  0  0  0  0
   14.6200    3.0590   21.3550 C   0  0  0  0  0  0  0  0  0  0  0  0
   11.3420    6.1700   22.3490 C   0  0  0  0  0  0  0  0  0  0  0  0
    9.3650    4.9400   24.1940 S   0  0  0  0  0  0  0  0  0  0  0  0
    8.7410    4.6270   25.4390 O   0  0  0  0  0  0  0  0  0  0  0  0
    8.5780    5.1420   23.0080 O   0  0  0  0  0  0  0  0  0  0  0  0
   10.5030    3.5660   23.8030 C   0  0  0  0  0  0  0  0  0  0  0  0
   11.7800    3.6410   23.2370 C   0  0  0  0  0  0  0  0  0  0  0  0
   12.6890    2.4130   22.9240 C   0  0  0  0  0  0  0  0  0  0  0  0
   12.1880    0.9920   23.2450 C   0  0  0  0  0  0  0  0  0  0  0  0
   10.9530    0.8520   23.8010 C   0  0  0  0  0  0  0  0  0  0  0  0
   10.1120    2.0890   24.0840 C   0  0  0  0  0  0  0  0  0  0  0  0
   10.4760   -0.4160   24.1030 N   0  0  0  0  0  0  0  0  0  0  0  0
    9.5180   -0.4970   25.1880 C   0  0  0  0  0  0  0  0  0  0  0  0
   11.3290   -1.6030   23.8770 C   0  0  0  0  0  0  0  0  0  0  0  0
   12.2250   -1.3650   22.8330 C   0  0  0  0  0  0  0  0  0  0  0  0
   13.0320   -0.2430   22.9560 C   0  0  0  0  0  0  0  0  0  0  0  0
  1  2  1  0
  2  3  1  0
  3  4  1  0
  4  5  1  0
  5  6  2  0
  6  7  1  0
  7  8  2  0
  8  9  1  0
  9 10  2  0
 10 11  1  0
  7 12  1  0
 11 12  2  0
 12 13  1  0
  6 14  1  0
 14 15  1  0
 15 16  2  0
 15 17  2  0
 15 18  1  0
 18 19  2  0
 19 20  1  0
 20 21  2  0
 21 22  1  0
 18 23  1  0
 22 23  2  0
  4 24  2  0
 14 24  1  0
 25  3  1  0
 25 26  2  0
 25 27  2  0
 25 28  1  0
 28 29  2  0
 29 30  1  0
 30 31  2  0
 31 32  1  0
 28 33  1  0
 32 33  2  0
 32 34  1  0
 34 35  1  0
 34 36  1  0
 36 37  1  0
 31 38  1  0
 37 38  1  0
M  END
