MAK-UNK-de8f6d00-5
     RDKit          3D

 34 38  0  0  0  0  0  0  0  0999 V2000
   12.3510   -3.6440   24.6380 O   0  0  0  0  0  0  0  0  0  0  0  0
   11.5510   -3.0580   23.9210 C   0  0  0  0  0  0  0  0  0  0  0  0
   10.0910   -3.1630   24.1410 N   0  0  0  0  0  0  0  0  0  0  0  0
    9.1390   -3.9210   23.4950 C   0  0  0  0  0  0  0  0  0  0  0  0
    8.7750   -5.1880   23.8130 C   0  0  0  0  0  0  0  0  0  0  0  0
    7.7070   -5.9690   23.0740 C   0  0  0  0  0  0  0  0  0  0  0  0
    6.9950   -5.3030   21.9100 C   0  0  0  0  0  0  0  0  0  0  0  0
    7.4710   -3.9550   21.6730 N   0  0  0  0  0  0  0  0  0  0  0  0
    8.4690   -3.3140   22.4030 C   0  0  0  0  0  0  0  0  0  0  0  0
   11.9120   -2.2170   22.8580 N   0  0  0  0  0  0  0  0  0  0  0  0
   12.4180   -0.8050   22.8780 C   0  0  0  0  0  0  0  0  0  0  0  0
   13.8070   -0.4350   22.3950 C   0  0  0  0  0  0  0  0  0  0  0  0
   14.4000    0.8110   22.3400 C   0  0  0  0  0  0  0  0  0  0  0  0
   13.5590    2.0050   22.8200 C   0  0  0  0  0  0  0  0  0  0  0  0
   12.3150    1.7260   23.2610 C   0  0  0  0  0  0  0  0  0  0  0  0
   11.7400    0.3190   23.2940 C   0  0  0  0  0  0  0  0  0  0  0  0
   10.5450    0.2510   23.7430 N   0  0  0  0  0  0  0  0  0  0  0  0
    9.9140   -0.9780   23.2210 C   0  0  0  0  0  0  0  0  0  0  0  0
    8.5540   -0.8480   23.3530 C   0  0  0  0  0  0  0  0  0  0  0  0
    8.1940    0.3620   22.6640 N   0  0  0  0  0  0  0  0  0  0  0  0
    8.3800    0.4880   21.3130 C   0  0  0  0  0  0  0  0  0  0  0  0
    8.9530    1.4890   20.8460 O   0  0  0  0  0  0  0  0  0  0  0  0
    7.8750   -0.5480   20.5630 C   0  0  0  0  0  0  0  0  0  0  0  0
    7.1220   -0.0600   19.5130 C   0  0  0  0  0  0  0  0  0  0  0  0
    7.4430   -0.1300   18.3090 C   0  0  0  0  0  0  0  0  0  0  0  0
    6.5020    0.4290   17.6310 N   0  0  0  0  0  0  0  0  0  0  0  0
    5.3630    1.0030   18.0640 C   0  0  0  0  0  0  0  0  0  0  0  0
    4.1460    1.6170   18.5270 N   0  0  0  0  0  0  0  0  0  0  0  0
    3.5690    1.8340   19.7040 C   0  0  0  0  0  0  0  0  0  0  0  0
    4.0190    1.4970   20.8850 C   0  0  0  0  0  0  0  0  0  0  0  0
    5.3100    0.8120   20.7320 C   0  0  0  0  0  0  0  0  0  0  0  0
    5.8870    0.6060   19.4820 C   0  0  0  0  0  0  0  0  0  0  0  0
    8.5820    1.5200   23.4220 C   0  0  0  0  0  0  0  0  0  0  0  0
    9.9420    1.5680   23.4230 C   0  0  0  0  0  0  0  0  0  0  0  0
  1  2  2  0
  2  3  1  0
  3  4  1  0
  4  5  2  0
  5  6  1  0
  6  7  2  0
  7  8  1  0
  4  9  1  0
  8  9  2  0
  2 10  1  0
 10 11  1  0
 11 12  2  0
 12 13  1  0
 13 14  2  0
 14 15  1  0
 11 16  1  0
 15 16  2  0
 16 17  1  0
 17 18  1  0
 18 19  1  0
 19 20  1  0
 20 21  1  0
 21 22  2  0
 21 23  1  0
 23 24  1  0
 24 25  2  0
 25 26  1  0
 26 27  1  0
 27 28  1  0
 28 29  2  0
 29 30  1  0
 30 31  2  0
 24 32  1  0
 27 32  2  0
 31 32  1  0
 20 33  1  0
 17 34  1  0
 33 34  1  0
M  END
