MAK-UNK-de9577cf-19
     RDKit          3D

 37 40  0  0  0  0  0  0  0  0999 V2000
    7.3680   -6.3450   22.8710 C   0  0  0  0  0  0  0  0  0  0  0  0
    6.1710   -6.9940   22.6660 N   0  0  0  0  0  0  0  0  0  0  0  0
    5.3210   -6.2450   21.7610 C   0  0  0  0  0  0  0  0  0  0  0  0
    5.6270   -4.7700   21.9890 C   0  0  0  0  0  0  0  0  0  0  0  0
    5.4160   -3.8160   21.0290 C   0  0  0  0  0  0  0  0  0  0  0  0
    5.7260   -2.5250   21.3620 C   0  0  0  0  0  0  0  0  0  0  0  0
    5.5760   -1.4010   20.5250 C   0  0  0  0  0  0  0  0  0  0  0  0
    5.6010   -1.5540   19.1370 C   0  0  0  0  0  0  0  0  0  0  0  0
    5.4540   -0.4720   18.2640 C   0  0  0  0  0  0  0  0  0  0  0  0
    5.2560    0.9310   18.7480 C   0  0  0  0  0  0  0  0  0  0  0  0
    5.2410    0.9970   20.1330 C   0  0  0  0  0  0  0  0  0  0  0  0
    5.3890   -0.0850   21.0130 C   0  0  0  0  0  0  0  0  0  0  0  0
    5.3440    0.1710   22.3260 F   0  0  0  0  0  0  0  0  0  0  0  0
    6.1840   -2.7290   22.6720 N   0  0  0  0  0  0  0  0  0  0  0  0
    6.7580   -1.6190   23.7830 S   0  0  0  0  0  0  0  0  0  0  0  0
    6.2930   -2.1230   25.0640 O   0  0  0  0  0  0  0  0  0  0  0  0
    6.4110   -0.3060   23.3120 O   0  0  0  0  0  0  0  0  0  0  0  0
    8.5020   -1.6630   23.8030 C   0  0  0  0  0  0  0  0  0  0  0  0
    9.3130   -2.7640   24.1420 C   0  0  0  0  0  0  0  0  0  0  0  0
   10.7090   -2.5790   24.1750 C   0  0  0  0  0  0  0  0  0  0  0  0
   11.2130   -1.3140   23.8680 C   0  0  0  0  0  0  0  0  0  0  0  0
   12.5420   -0.9720   23.9160 O   0  0  0  0  0  0  0  0  0  0  0  0
   13.0710   -0.6780   22.7020 C   0  0  0  0  0  0  0  0  0  0  0  0
   13.4420   -0.2390   21.6670 O   0  0  0  0  0  0  0  0  0  0  0  0
   12.3630    0.7040   22.8720 C   0  0  0  0  0  0  0  0  0  0  0  0
   11.0080    1.1630   23.0280 C   0  0  0  0  0  0  0  0  0  0  0  0
   10.2810    2.1140   23.1760 C   0  0  0  0  0  0  0  0  0  0  0  0
   11.0410    3.3020   23.2260 C   0  0  0  0  0  0  0  0  0  0  0  0
   10.3220    4.9240   23.5120 S   0  0  0  0  0  0  0  0  0  0  0  0
    8.9060    4.9270   22.6210 N   0  0  0  0  0  0  0  0  0  0  0  0
    9.9350    5.0380   24.8780 O   0  0  0  0  0  0  0  0  0  0  0  0
   11.1580    5.9530   23.0000 O   0  0  0  0  0  0  0  0  0  0  0  0
   12.4460    3.1670   23.0510 C   0  0  0  0  0  0  0  0  0  0  0  0
   13.0830    1.8830   22.8750 C   0  0  0  0  0  0  0  0  0  0  0  0
   10.4220   -0.2970   23.5060 N   0  0  0  0  0  0  0  0  0  0  0  0
    9.0970   -0.4860   23.4760 C   0  0  0  0  0  0  0  0  0  0  0  0
    6.1240   -4.0650   23.0490 C   0  0  0  0  0  0  0  0  0  0  0  0
  1  2  1  0
  2  3  1  0
  3  4  1  0
  4  5  1  0
  5  6  2  0
  6  7  1  0
  7  8  2  0
  8  9  1  0
  9 10  2  0
 10 11  1  0
  7 12  1  0
 11 12  2  0
 12 13  1  0
  6 14  1  0
 14 15  1  0
 15 16  2  0
 15 17  2  0
 15 18  1  0
 18 19  2  0
 19 20  1  0
 20 21  2  0
 21 22  1  0
 22 23  1  0
 23 24  2  0
 23 25  1  0
 25 26  2  0
 26 27  1  0
 27 28  2  0
 28 29  1  0
 29 30  1  0
 29 31  2  0
 29 32  2  0
 28 33  1  0
 25 34  1  0
 33 34  2  0
 21 35  1  0
 18 36  1  0
 35 36  2  0
  4 37  2  0
 14 37  1  0
M  END
