MAK-UNK-acefcb18-17
     RDKit          3D

 19 20  0  0  0  0  0  0  0  0999 V2000
   12.5760    6.2070   22.4570 C   0  0  0  0  0  0  0  0  0  0  0  0
   12.1360    4.8950   22.6060 C   0  0  0  0  0  0  0  0  0  0  0  0
   10.7830    4.5810   22.6920 C   0  0  0  0  0  0  0  0  0  0  0  0
   10.3920    3.2380   22.8380 C   0  0  0  0  0  0  0  0  0  0  0  0
   11.2970    2.2450   22.9010 C   0  0  0  0  0  0  0  0  0  0  0  0
   10.8780    0.9590   23.0460 O   0  0  0  0  0  0  0  0  0  0  0  0
   11.9050   -0.0260   23.2670 C   0  0  0  0  0  0  0  0  0  0  0  0
   11.2140   -1.1690   23.6450 C   0  0  0  0  0  0  0  0  0  0  0  0
    9.8630   -1.2050   23.3170 C   0  0  1  0  0  0  0  0  0  0  0  0
    9.5610   -1.4780   21.9740 C   0  0  0  0  0  0  0  0  0  0  0  0
    9.1970   -2.1010   24.1980 N   0  0  0  0  0  0  0  0  0  0  0  0
    9.4450   -3.4800   23.8390 C   0  0  0  0  0  0  0  0  0  0  0  0
    8.3110   -4.2840   23.9600 C   0  0  0  0  0  0  0  0  0  0  0  0
    7.1580   -3.7610   24.5650 C   0  0  0  0  0  0  0  0  0  0  0  0
    7.0020   -3.4970   25.7650 O   0  0  0  0  0  0  0  0  0  0  0  0
    6.9020   -2.6440   23.8770 C   0  0  0  0  0  0  0  0  0  0  0  0
    7.7780   -1.7070   24.4220 C   0  0  0  0  0  0  0  0  0  0  0  0
   12.6230    2.5590   22.8200 C   0  0  0  0  0  0  0  0  0  0  0  0
   13.0460    3.8680   22.6720 C   0  0  0  0  0  0  0  0  0  0  0  0
  1  2  1  0
  2  3  2  0
  3  4  1  0
  4  5  2  0
  5  6  1  0
  6  7  1  0
  7  8  1  0
  8  9  1  0
  9 10  1  6
  9 11  1  0
 11 12  1  0
 12 13  1  0
 13 14  1  0
 14 15  1  0
 14 16  1  0
 11 17  1  0
 16 17  1  0
  5 18  1  0
  2 19  1  0
 18 19  2  0
M  END
