MAK-UNK-9a6be56d-14
     RDKit          3D

 38 42  0  0  0  0  0  0  0  0999 V2000
    6.2920   -6.3600   21.9520 C   0  0  0  0  0  0  0  0  0  0  0  0
    5.6420   -5.7290   23.0700 N   0  0  0  0  0  0  0  0  0  0  0  0
    6.2480   -5.5740   24.2820 C   0  0  0  0  0  0  0  0  0  0  0  0
    6.3560   -4.1440   24.5350 C   0  0  0  0  0  0  0  0  0  0  0  0
    5.8430   -3.5240   25.8180 C   0  0  0  0  0  0  0  0  0  0  0  0
    6.0200   -2.2020   25.8830 C   0  0  0  0  0  0  0  0  0  0  0  0
    5.6100   -1.4450   26.9850 C   0  0  0  0  0  0  0  0  0  0  0  0
    6.4950   -1.2710   28.0780 C   0  0  0  0  0  0  0  0  0  0  0  0
    6.0020   -0.4360   29.2640 C   0  0  0  0  0  0  0  0  0  0  0  0
    4.6210    0.1710   29.2520 C   0  0  0  0  0  0  0  0  0  0  0  0
    3.8020   -0.1020   28.0300 C   0  0  0  0  0  0  0  0  0  0  0  0
    4.3110   -0.8720   26.9800 C   0  0  0  0  0  0  0  0  0  0  0  0
    3.4730   -1.0700   25.8950 F   0  0  0  0  0  0  0  0  0  0  0  0
    6.6840   -1.8970   24.5900 N   0  0  0  0  0  0  0  0  0  0  0  0
    7.2120   -0.4090   23.9480 S   0  0  0  0  0  0  0  0  0  0  0  0
    5.8810    0.1290   24.0850 O   0  0  0  0  0  0  0  0  0  0  0  0
    8.8540   -0.0860   23.4330 C   0  0  0  0  0  0  0  0  0  0  0  0
   10.2330   -0.2390   23.1490 N   0  0  0  0  0  0  0  0  0  0  0  0
   10.9620   -1.4750   23.3830 C   0  0  0  0  0  0  0  0  0  0  0  0
   12.1560   -1.5990   22.6680 C   0  0  0  0  0  0  0  0  0  0  0  0
   13.0380   -0.3840   22.7510 C   0  0  0  0  0  0  0  0  0  0  0  0
   12.3890    0.8560   22.8690 C   0  0  0  0  0  0  0  0  0  0  0  0
   13.1060    2.0060   22.8020 C   0  0  0  0  0  0  0  0  0  0  0  0
   12.4800    3.3850   22.9360 C   0  0  0  0  0  0  0  0  0  0  0  0
   11.1190    3.4380   23.1380 C   0  0  0  0  0  0  0  0  0  0  0  0
   10.3260    5.0060   23.3540 S   0  0  0  0  0  0  0  0  0  0  0  0
   10.7580    5.4160   24.9130 N   0  0  0  0  0  0  0  0  0  0  0  0
   11.0170    6.0200   22.6500 O   0  0  0  0  0  0  0  0  0  0  0  0
    8.8930    4.8700   23.3030 O   0  0  0  0  0  0  0  0  0  0  0  0
   10.3870    2.2450   23.1830 C   0  0  0  0  0  0  0  0  0  0  0  0
   11.0210    0.9610   23.0580 C   0  0  0  0  0  0  0  0  0  0  0  0
    6.5960    1.1490   23.5240 C   0  0  0  0  0  0  0  0  0  0  0  0
    6.5220    1.5260   22.1750 C   0  0  0  0  0  0  0  0  0  0  0  0
    5.9630    2.9180   21.9300 C   0  0  0  0  0  0  0  0  0  0  0  0
    5.5820    3.6810   23.0230 C   0  0  0  0  0  0  0  0  0  0  0  0
    5.6730    3.2680   24.3040 N   0  0  0  0  0  0  0  0  0  0  0  0
    6.1750    2.0210   24.5290 C   0  0  0  0  0  0  0  0  0  0  0  0
    6.8660   -3.0570   23.8300 C   0  0  0  0  0  0  0  0  0  0  0  0
  1  2  1  0
  2  3  1  0
  3  4  1  0
  4  5  1  0
  5  6  2  0
  6  7  1  0
  7  8  2  0
  8  9  1  0
  9 10  2  0
 10 11  1  0
  7 12  1  0
 11 12  2  0
 12 13  1  0
  6 14  1  0
 14 15  1  0
 15 16  2  0
 15 17  2  0
 17 18  1  0
 18 19  1  0
 19 20  1  0
 20 21  1  0
 21 22  1  0
 22 23  2  0
 23 24  1  0
 24 25  2  0
 25 26  1  0
 26 27  1  0
 26 28  2  0
 26 29  2  0
 25 30  1  0
 18 31  1  0
 22 31  1  0
 30 31  2  0
 15 32  1  0
 32 33  2  0
 33 34  1  0
 34 35  2  0
 35 36  1  0
 32 37  1  0
 36 37  2  0
  4 38  2  0
 14 38  1  0
M  END
