MAK-UNK-9955b1f3-3
     RDKit          3D

 13 13  0  0  0  0  0  0  0  0999 V2000
   10.2650   -0.3220   23.1430 C   0  0  0  0  0  0  0  0  0  0  0  0
    9.1510    0.6780   23.2270 C   0  0  0  0  0  0  0  0  0  0  0  0
    7.8220    0.2730   23.4280 N   0  0  0  0  0  0  0  0  0  0  0  0
    6.9020    1.3450   23.7540 C   0  0  0  0  0  0  0  0  0  0  0  0
    7.4750   -0.9450   23.9710 C   0  0  0  0  0  0  0  0  0  0  0  0
    7.5480   -2.1880   23.3090 C   0  0  0  0  0  0  0  0  0  0  0  0
    7.3910   -3.4070   23.9470 N   0  0  0  0  0  0  0  0  0  0  0  0
    8.2430   -4.4200   23.6810 C   0  0  0  0  0  0  0  0  0  0  0  0
    7.4760   -5.5920   23.3100 C   0  0  0  0  0  0  0  0  0  0  0  0
    6.2810   -5.7120   23.9110 C   0  0  0  0  0  0  0  0  0  0  0  0
    6.2080   -5.7350   25.1440 O   0  0  0  0  0  0  0  0  0  0  0  0
    6.8020   -4.6580   25.8480 C   0  0  0  0  0  0  0  0  0  0  0  0
    6.8030   -3.4540   25.2730 C   0  0  0  0  0  0  0  0  0  0  0  0
  1  2  1  0
  2  3  1  0
  3  4  1  0
  3  5  1  0
  5  6  1  0
  6  7  1  0
  7  8  1  0
  8  9  1  0
  9 10  1  0
 10 11  1  0
 11 12  1  0
  7 13  1  0
 12 13  1  0
M  END
