MAK-UNK-0d6072ac-33
     RDKit          3D

 19 21  0  0  0  0  0  0  0  0999 V2000
    6.0730   -3.2800   20.8220 C   0  0  0  0  0  0  0  0  0  0  0  0
    6.5580   -4.4430   21.6980 C   0  0  2  0  0  0  0  0  0  0  0  0
    5.5160   -5.0540   22.3690 C   0  0  0  0  0  0  0  0  0  0  0  0
    5.9410   -6.2660   23.0410 O   0  0  0  0  0  0  0  0  0  0  0  0
    4.2800   -4.4770   22.3410 O   0  0  0  0  0  0  0  0  0  0  0  0
    7.7750   -4.3640   22.6300 C   0  0  0  0  0  0  0  0  0  0  0  0
    8.2190   -5.1380   23.5100 C   0  0  0  0  0  0  0  0  0  0  0  0
    9.2800   -3.9590   23.5530 C   0  0  0  0  0  0  0  0  0  0  0  0
    9.6040   -2.6880   23.0050 N   0  0  0  0  0  0  0  0  0  0  0  0
   10.7940   -2.2670   23.5630 C   0  0  0  0  0  0  0  0  0  0  0  0
   11.7020   -1.2040   23.5300 C   0  0  0  0  0  0  0  0  0  0  0  0
   12.8900   -1.1540   24.2790 C   0  0  0  0  0  0  0  0  0  0  0  0
   13.1670   -2.2520   25.1210 C   0  0  0  0  0  0  0  0  0  0  0  0
   14.4800   -2.5220   26.1130 Cl  0  0  0  0  0  0  0  0  0  0  0  0
   12.3310   -3.2750   25.2080 C   0  0  0  0  0  0  0  0  0  0  0  0
   11.1330   -3.2520   24.3990 C   0  0  0  0  0  0  0  0  0  0  0  0
   10.1750   -4.3860   24.4530 C   0  0  0  0  0  0  0  0  0  0  0  0
    9.1050   -4.8130   23.9730 N   0  0  0  0  0  0  0  0  0  0  0  0
    8.7470   -3.7500   22.9940 N   0  0  0  0  0  0  0  0  0  0  0  0
  2  1  1  1
  2  3  1  0
  3  4  2  0
  3  5  1  0
  2  6  1  0
  6  7  2  0
  7  8  1  0
  8  9  1  0
  9 10  1  0
 10 11  2  0
 11 12  1  0
 12 13  2  0
 13 14  1  0
 13 15  1  0
 10 16  1  0
 15 16  2  0
  8 17  2  0
 16 17  1  0
 17 18  1  0
  6 19  1  0
 18 19  2  0
M  END
