MAK-UNK-07311286-2
     RDKit          3D

 23 24  0  0  0  0  0  0  0  0999 V2000
    3.5840   -7.6930   27.2930 N   0  0  0  0  0  0  0  0  0  0  0  0
    3.1040   -7.1840   25.7560 S   0  0  0  0  0  0  0  0  0  0  0  0
    1.6980   -6.8590   25.8890 O   0  0  0  0  0  0  0  0  0  0  0  0
    3.5600   -8.1710   24.7920 O   0  0  0  0  0  0  0  0  0  0  0  0
    4.0660   -5.6790   25.5460 C   0  0  0  0  0  0  0  0  0  0  0  0
    3.2920   -4.5340   24.9770 C   0  0  0  0  0  0  0  0  0  0  0  0
    4.0230   -3.2920   24.7780 C   0  0  0  0  0  0  0  0  0  0  0  0
    5.3960   -3.1690   25.1050 C   0  0  0  0  0  0  0  0  0  0  0  0
    6.0300   -1.4190   24.7190 Br  0  0  0  0  0  0  0  0  0  0  0  0
    6.2050   -4.2160   25.6510 C   0  0  0  0  0  0  0  0  0  0  0  0
    7.9410   -4.1010   26.0610 S   0  0  0  0  0  0  0  0  0  0  0  0
    8.6840   -5.3050   25.7670 O   0  0  0  0  0  0  0  0  0  0  0  0
    8.0230   -3.5100   27.3790 O   0  0  0  0  0  0  0  0  0  0  0  0
    8.4240   -2.8770   25.0100 N   0  0  0  0  0  0  0  0  0  0  0  0
    8.9430   -3.1530   23.7750 C   0  0  0  0  0  0  0  0  0  0  0  0
    8.9800   -1.8940   23.1130 C   0  0  0  0  0  0  0  0  0  0  0  0
   10.3760   -1.3060   22.8800 C   0  0  0  0  0  0  0  0  0  0  0  0
   10.5200    0.1540   23.2950 C   0  0  0  0  0  0  0  0  0  0  0  0
   11.8900    0.5950   23.0470 C   0  0  0  0  0  0  0  0  0  0  0  0
   13.0920    0.0730   22.5460 C   0  0  0  0  0  0  0  0  0  0  0  0
   12.8840   -1.2590   22.1780 C   0  0  0  0  0  0  0  0  0  0  0  0
   11.5100   -1.9890   22.3320 C   0  0  0  0  0  0  0  0  0  0  0  0
    5.4750   -5.5530   25.8850 C   0  0  0  0  0  0  0  0  0  0  0  0
  2  1  1  0
  2  3  2  0
  2  4  2  0
  2  5  1  0
  5  6  2  0
  6  7  1  0
  7  8  2  0
  8  9  1  0
  8 10  1  0
 10 11  1  0
 11 12  2  0
 11 13  2  0
 11 14  1  0
 14 15  1  0
 15 16  1  0
 16 17  1  0
 17 18  2  0
 18 19  1  0
 19 20  2  0
 20 21  1  0
 17 22  1  0
 21 22  2  0
  5 23  1  0
 10 23  2  0
M  END
