MAK-UNK-198e6d85-2
     RDKit          3D

 21 23  0  0  0  0  0  0  0  0999 V2000
   12.6880   -2.1610   21.9260 N   0  0  0  0  0  0  0  0  0  0  0  0
   12.8320   -2.4400   23.3700 C   0  0  0  0  0  0  0  0  0  0  0  0
   11.5390   -2.1230   24.2120 C   0  0  2  0  0  0  0  0  0  0  0  0
   10.4920   -3.2960   23.9800 O   0  0  0  0  0  0  0  0  0  0  0  0
    9.2050   -3.1150   23.1900 C   0  0  1  0  0  0  0  0  0  0  0  0
    8.0280   -3.9650   23.1160 C   0  0  2  0  0  0  0  0  0  0  0  0
    6.9360   -3.2530   22.4730 N   0  0  0  0  0  0  0  0  0  0  0  0
    6.1750   -4.2280   21.6800 C   0  0  0  0  0  0  0  0  0  0  0  0
    5.4450   -5.1780   22.5910 C   0  0  0  0  0  0  0  0  0  0  0  0
    6.4200   -5.6550   23.6470 C   0  0  0  0  0  0  0  0  0  0  0  0
    7.4500   -4.8040   24.0920 C   0  0  1  0  0  0  0  0  0  0  0  0
    8.2950   -5.4510   24.6380 O   0  0  0  0  0  0  0  0  0  0  0  0
    9.0290   -1.7660   23.6990 C   0  0  0  0  0  0  0  0  0  0  0  0
   10.3520   -1.7210   23.9390 C   0  0  0  0  0  0  0  0  0  0  0  0
   11.1510   -0.7250   23.6930 C   0  0  0  0  0  0  0  0  0  0  0  0
   12.4740   -0.3650   23.7920 C   0  0  0  0  0  0  0  0  0  0  0  0
   13.2660   -1.4590   24.3950 C   0  0  0  0  0  0  0  0  0  0  0  0
   12.5450   -2.7000   24.7850 C   0  0  0  0  0  0  0  0  0  0  0  0
   13.3400   -3.7220   25.4020 O   0  0  0  0  0  0  0  0  0  0  0  0
   11.1230   -2.8270   24.5410 C   0  0  0  0  0  0  0  0  0  0  0  0
   10.6570   -3.8930   24.8810 O   0  0  0  0  0  0  0  0  0  0  0  0
  1  2  1  0
  3  2  1  6
  3  4  1  0
  4  5  1  0
  5  6  1  0
  6  7  1  1
  7  8  1  0
  8  9  1  0
  9 10  1  0
  6 11  1  0
 10 11  1  0
 11 12  1  6
  5 13  1  1
 13 14  1  0
  3 15  1  0
 14 15  2  0
 15 16  1  0
 16 17  2  0
 17 18  1  0
 18 19  1  0
 14 20  1  0
 18 20  2  0
 20 21  1  0
M  END
