MAK-UNK-27459e11-6
     RDKit          3D

 17 17  0  0  0  0  0  0  0  0999 V2000
    6.5410   -5.1180   26.0690 C   0  0  0  0  0  0  0  0  0  0  0  0
    8.0810   -4.2370   25.9160 S   0  0  0  0  0  0  0  0  0  0  0  0
    9.1170   -5.2090   25.6640 O   0  0  0  0  0  0  0  0  0  0  0  0
    8.1490   -3.3590   27.0600 O   0  0  0  0  0  0  0  0  0  0  0  0
    7.8310   -3.2480   24.5600 N   0  0  0  0  0  0  0  0  0  0  0  0
    8.8680   -3.1690   23.4960 C   0  0  0  0  0  0  0  0  0  0  0  0
    8.9850   -1.9570   22.7680 C   0  0  1  0  0  0  0  0  0  0  0  0
    7.9870   -0.9990   22.9170 C   0  0  0  0  0  0  0  0  0  0  0  0
    7.6330   -0.2220   21.7930 C   0  0  0  0  0  0  0  0  0  0  0  0
    6.4600   -0.5760   20.9830 N   0  0  0  0  0  0  0  0  0  0  0  0
    8.3680    0.8720   21.4440 N   0  0  0  0  0  0  0  0  0  0  0  0
   10.3760   -1.2870   22.7760 C   0  0  0  0  0  0  0  0  0  0  0  0
   10.6390    0.1140   23.3500 C   0  0  0  0  0  0  0  0  0  0  0  0
   12.0420    0.6460   23.2860 C   0  0  0  0  0  0  0  0  0  0  0  0
   13.0720   -0.1880   22.6910 C   0  0  0  0  0  0  0  0  0  0  0  0
   12.7510   -1.3990   22.2110 C   0  0  0  0  0  0  0  0  0  0  0  0
   11.4610   -1.9840   22.2230 C   0  0  0  0  0  0  0  0  0  0  0  0
  1  2  1  0
  2  3  2  0
  2  4  2  0
  2  5  1  0
  5  6  1  0
  7  6  1  1
  7  8  1  0
  8  9  1  0
  9 10  2  3
  9 11  1  0
  7 12  1  0
 12 13  2  0
 13 14  1  0
 14 15  2  0
 15 16  1  0
 12 17  1  0
 16 17  2  0
M  END
