MAK-UNK-acefcb18-16
     RDKit          3D

 23 24  0  0  0  0  0  0  0  0999 V2000
    6.3590    1.8600   26.1860 C   0  0  0  0  0  0  0  0  0  0  0  0
    6.9660    0.4890   26.1360 C   0  0  0  0  0  0  0  0  0  0  0  0
    6.9580   -0.1870   24.9110 C   0  0  0  0  0  0  0  0  0  0  0  0
    5.9410   -0.4220   24.2690 O   0  0  0  0  0  0  0  0  0  0  0  0
    8.2310   -0.5430   24.5160 N   0  0  0  0  0  0  0  0  0  0  0  0
    8.5760   -1.8480   23.9720 C   0  0  1  0  0  0  0  0  0  0  0  0
    9.7640   -1.6830   23.0990 C   0  0  0  0  0  0  0  0  0  0  0  0
    9.8520   -0.7120   22.1200 C   0  0  0  0  0  0  0  0  0  0  0  0
   11.2170   -0.5080   21.9590 O   0  0  0  0  0  0  0  0  0  0  0  0
   11.8670   -1.3120   22.8360 C   0  0  0  0  0  0  0  0  0  0  0  0
   13.1910   -1.9300   22.4980 C   0  0  0  0  0  0  0  0  0  0  0  0
   13.8250   -2.7830   23.5380 C   0  0  0  0  0  0  0  0  0  0  0  0
   13.2250   -2.9840   24.7430 C   0  0  0  0  0  0  0  0  0  0  0  0
   13.5310   -3.6650   25.9100 C   0  0  0  0  0  0  0  0  0  0  0  0
   11.8850   -2.3720   25.0280 C   0  0  0  0  0  0  0  0  0  0  0  0
   11.3020   -1.5840   24.0810 C   0  0  0  0  0  0  0  0  0  0  0  0
    8.7480   -3.0110   24.7750 N   0  0  0  0  0  0  0  0  0  0  0  0
    9.9710   -3.3770   25.2560 C   0  0  0  0  0  0  0  0  0  0  0  0
   10.1010   -4.5480   25.9900 C   0  0  0  0  0  0  0  0  0  0  0  0
    8.9770   -4.9740   26.6890 C   0  0  0  0  0  0  0  0  0  0  0  0
    9.0330   -4.6170   28.0050 O   0  0  0  0  0  0  0  0  0  0  0  0
    7.7710   -4.6910   26.0690 C   0  0  0  0  0  0  0  0  0  0  0  0
    7.6210   -3.3940   25.6100 C   0  0  0  0  0  0  0  0  0  0  0  0
  1  2  1  0
  2  3  1  0
  3  4  2  0
  3  5  1  0
  5  6  1  0
  6  7  1  1
  7  8  1  0
  8  9  1  0
  9 10  1  0
 10 11  2  0
 11 12  1  0
 12 13  2  0
 13 14  1  0
 13 15  1  0
 10 16  1  0
 15 16  2  0
  6 17  1  0
 17 18  1  0
 18 19  1  0
 19 20  1  0
 20 21  1  0
 20 22  1  0
 17 23  1  0
 22 23  1  0
M  END
