MAK-UNK-af83ef51-4
     RDKit          3D

 15 15  0  0  0  0  0  0  0  0999 V2000
   13.2650   -1.1470   21.8940 C   0  0  0  0  0  0  0  0  0  0  0  0
   12.2400   -0.5240   22.7480 C   0  0  0  0  0  0  0  0  0  0  0  0
   11.2720   -1.1220   23.5320 C   0  0  0  0  0  0  0  0  0  0  0  0
   10.4060    0.0140   24.2530 C   0  0  0  0  0  0  0  0  0  0  0  0
   10.5530    1.5030   24.1510 C   0  0  0  0  0  0  0  0  0  0  0  0
   11.6630    1.9560   23.2580 C   0  0  0  0  0  0  0  0  0  0  0  0
   12.1930    3.1410   22.8440 C   0  0  1  0  0  0  0  0  0  0  0  0
   12.1350    3.3860   21.6600 O   0  0  0  0  0  0  0  0  0  0  0  0
   11.4920    4.2910   23.5180 C   0  0  0  0  0  0  0  0  0  0  0  0
   11.7460    5.6850   23.1620 N   0  0  0  0  0  0  0  0  0  0  0  0
   10.7890    6.7440   24.0570 S   0  0  0  0  0  0  0  0  0  0  0  0
   12.0230    7.7720   24.8010 C   0  0  0  0  0  0  0  0  0  0  0  0
   10.0090    7.4680   23.0830 O   0  0  0  0  0  0  0  0  0  0  0  0
   10.1500    6.0180   25.1300 O   0  0  0  0  0  0  0  0  0  0  0  0
   11.7800    0.6480   23.1430 C   0  0  0  0  0  0  0  0  0  0  0  0
  1  2  1  0
  2  3  2  0
  3  4  1  0
  4  5  2  0
  5  6  1  0
  6  7  1  0
  7  8  1  6
  7  9  1  0
  9 10  2  3
 11 10  1  0
 11 12  1  0
 11 13  2  0
 11 14  2  0
  2 15  1  0
  6 15  2  0
M  END
