MAK-UNK-acefcb18-27
     RDKit          3D

 21 23  0  0  0  0  0  0  0  0999 V2000
   13.2110   -2.8250   24.9380 C   0  0  0  0  0  0  0  0  0  0  0  0
   12.5220   -2.0190   23.9790 N   0  0  0  0  0  0  0  0  0  0  0  0
   12.7260   -2.5550   22.6090 C   0  0  0  0  0  0  0  0  0  0  0  0
   12.9310   -1.6690   21.5330 C   0  0  0  0  0  0  0  0  0  0  0  0
   12.8430   -0.3000   22.0000 N   0  0  0  0  0  0  0  0  0  0  0  0
   11.8540   -0.1840   22.7160 C   0  0  0  0  0  0  0  0  0  0  0  0
   11.4680    0.7580   23.5210 C   0  0  0  0  0  0  0  0  0  0  0  0
   10.2520    0.4900   24.2780 C   0  0  0  0  0  0  0  0  0  0  0  0
    9.5300   -0.7320   24.1310 C   0  0  0  0  0  0  0  0  0  0  0  0
    8.4190   -1.0360   24.8020 C   0  0  0  0  0  0  0  0  0  0  0  0
    7.8980   -2.2530   24.5380 N   0  0  0  0  0  0  0  0  0  0  0  0
    8.5690   -3.2970   23.8630 C   0  0  0  0  0  0  0  0  0  0  0  0
    7.7440   -4.4100   23.9280 C   0  0  0  0  0  0  0  0  0  0  0  0
    6.7350   -4.1770   24.8760 C   0  0  0  0  0  0  0  0  0  0  0  0
    6.3170   -5.0940   25.5880 O   0  0  0  0  0  0  0  0  0  0  0  0
    5.8690   -3.3050   24.3870 C   0  0  0  0  0  0  0  0  0  0  0  0
    6.4780   -2.0620   24.3370 C   0  0  0  0  0  0  0  0  0  0  0  0
    9.9960   -1.6920   23.2300 C   0  0  0  0  0  0  0  0  0  0  0  0
   11.0680   -1.2100   22.7140 C   0  0  0  0  0  0  0  0  0  0  0  0
   13.6420   -0.2670   23.0600 C   0  0  0  0  0  0  0  0  0  0  0  0
   12.9000   -0.6360   24.1440 C   0  0  0  0  0  0  0  0  0  0  0  0
  1  2  1  0
  2  3  1  0
  3  4  1  0
  4  5  1  0
  5  6  1  0
  6  7  2  0
  7  8  1  0
  8  9  2  0
  9 10  1  0
 10 11  1  0
 11 12  1  0
 12 13  1  0
 13 14  1  0
 14 15  1  0
 14 16  1  0
 11 17  1  0
 16 17  1  0
  9 18  1  0
  6 19  1  0
 18 19  2  0
  5 20  1  0
  2 21  1  0
 20 21  1  0
M  END
