MAK-UNK-b2c98f02-1
     RDKit          3D

 28 30  0  0  0  0  0  0  0  0999 V2000
    9.4510    0.4340   21.6180 O   0  0  0  0  0  0  0  0  0  0  0  0
    8.7600   -0.5420   21.9200 C   0  0  0  0  0  0  0  0  0  0  0  0
    9.0530   -1.5230   23.0410 C   0  0  0  0  0  0  0  0  0  0  0  0
   10.5220   -1.9250   23.1290 C   0  0  0  0  0  0  0  0  0  0  0  0
   11.2290   -1.8570   21.7900 C   0  0  0  0  0  0  0  0  0  0  0  0
   12.7540   -1.7890   21.8250 C   0  0  0  0  0  0  0  0  0  0  0  0
   13.0290   -0.5600   22.6510 C   0  0  0  0  0  0  0  0  0  0  0  0
   12.7300   -1.0350   24.0530 C   0  0  0  0  0  0  0  0  0  0  0  0
   11.2150   -1.0490   24.1640 C   0  0  0  0  0  0  0  0  0  0  0  0
    7.5250   -0.9080   21.2640 N   0  0  0  0  0  0  0  0  0  0  0  0
    6.8000   -0.2200   20.2540 C   0  0  0  0  0  0  0  0  0  0  0  0
    6.1420   -0.8360   19.2340 C   0  0  0  0  0  0  0  0  0  0  0  0
    5.4450   -0.1020   18.2610 C   0  0  0  0  0  0  0  0  0  0  0  0
    5.4070    1.2550   18.3010 C   0  0  0  0  0  0  0  0  0  0  0  0
    6.0380    1.8750   19.2970 N   0  0  0  0  0  0  0  0  0  0  0  0
    6.6950    1.1500   20.2270 C   0  0  0  0  0  0  0  0  0  0  0  0
    7.4330    2.1910   21.5000 S   0  0  0  0  0  0  0  0  0  0  0  0
    6.4800    3.2420   21.7900 O   0  0  0  0  0  0  0  0  0  0  0  0
    8.7890    2.5220   21.1490 O   0  0  0  0  0  0  0  0  0  0  0  0
    7.4410    1.2350   22.8890 N   0  0  0  0  0  0  0  0  0  0  0  0
    6.3670    1.2410   23.7630 C   0  0  0  0  0  0  0  0  0  0  0  0
    5.3040    0.4590   23.2620 C   0  0  0  0  0  0  0  0  0  0  0  0
    5.6340   -1.0490   23.1760 C   0  0  0  0  0  0  0  0  0  0  0  0
    6.3450   -1.6390   24.3780 C   0  0  0  0  0  0  0  0  0  0  0  0
    6.6570   -3.0470   24.3190 C   0  0  0  0  0  0  0  0  0  0  0  0
    6.3160   -3.8050   23.2060 C   0  0  0  0  0  0  0  0  0  0  0  0
    5.6040   -3.2940   21.9580 C   0  0  0  0  0  0  0  0  0  0  0  0
    5.3030   -1.8320   22.0730 C   0  0  0  0  0  0  0  0  0  0  0  0
  1  2  2  0
  2  3  1  0
  3  4  1  0
  4  5  1  0
  5  6  1  0
  6  7  1  0
  7  8  1  0
  4  9  1  0
  8  9  1  0
  2 10  1  0
 10 11  1  0
 11 12  2  0
 12 13  1  0
 13 14  2  0
 14 15  1  0
 11 16  1  0
 15 16  2  0
 16 17  1  0
 17 18  2  0
 17 19  2  0
 17 20  1  0
 20 21  1  0
 21 22  1  0
 22 23  1  0
 23 24  2  0
 24 25  1  0
 25 26  2  0
 26 27  1  0
 23 28  1  0
 27 28  2  0
M  END
