MAK-UNK-a7992eb3-16
     RDKit          3D

 19 21  0  0  0  0  0  0  0  0999 V2000
    1.3690   -1.7330   26.0920 C   0  0  0  0  0  0  0  0  0  0  0  0
    2.6480   -1.6050   26.2430 C   0  0  0  0  0  0  0  0  0  0  0  0
    3.8820   -2.3270   26.1440 C   0  0  0  0  0  0  0  0  0  0  0  0
    3.5870   -3.7880   25.7010 C   0  0  0  0  0  0  0  0  0  0  0  0
    4.5600   -4.5640   25.5950 O   0  0  0  0  0  0  0  0  0  0  0  0
    5.0710   -5.0130   24.3220 C   0  0  0  0  0  0  0  0  0  0  0  0
    6.3880   -4.6890   24.0430 C   0  0  0  0  0  0  0  0  0  0  0  0
    6.6470   -3.3260   23.9550 C   0  0  0  0  0  0  0  0  0  0  0  0
    6.0490   -2.9300   22.7030 N   0  0  0  0  0  0  0  0  0  0  0  0
    6.7570   -3.2560   21.6200 C   0  0  0  0  0  0  0  0  0  0  0  0
    6.6570   -4.6740   21.7990 C   0  0  0  0  0  0  0  0  0  0  0  0
    5.6580   -5.3530   21.0310 C   0  0  0  0  0  0  0  0  0  0  0  0
    5.6200   -6.6300   21.3260 C   0  0  0  0  0  0  0  0  0  0  0  0
    6.7570   -7.1170   22.5040 S   0  0  0  0  0  0  0  0  0  0  0  0
    7.3560   -5.4910   22.6410 C   0  0  0  0  0  0  0  0  0  0  0  0
    4.7260   -3.2910   22.4960 C   0  0  0  0  0  0  0  0  0  0  0  0
    4.2150   -4.4190   23.1970 C   0  0  0  0  0  0  0  0  0  0  0  0
    2.1940   -4.1830   25.4500 N   0  0  0  0  0  0  0  0  0  0  0  0
    1.1240   -3.1540   25.6480 C   0  0  0  0  0  0  0  0  0  0  0  0
  1  2  2  0
  2  3  1  0
  3  4  2  0
  4  5  1  0
  5  6  1  0
  6  7  1  0
  7  8  1  0
  8  9  1  0
  9 10  1  0
 10 11  1  0
 11 12  1  0
 12 13  2  0
 13 14  1  0
 11 15  2  0
 14 15  1  0
  9 16  1  0
  6 17  1  0
 16 17  1  0
  4 18  1  0
  1 19  1  0
 18 19  2  0
M  END
