MAK-UNK-c7aa8293-13
     RDKit          3D

 24 26  0  0  0  0  0  0  0  0999 V2000
   12.8300   -1.9330   21.9100 N   0  0  0  0  0  0  0  0  0  0  0  0
   12.8650   -2.3940   23.3150 C   0  0  0  0  0  0  0  0  0  0  0  0
   11.6340   -1.9600   24.1150 C   0  0  2  0  0  0  0  0  0  0  0  0
   10.5290   -2.7950   24.1190 O   0  0  0  0  0  0  0  0  0  0  0  0
    9.3120   -2.6800   23.1890 C   0  0  1  0  0  0  0  0  0  0  0  0
    7.9190   -3.3660   23.3650 C   0  0  2  0  0  0  0  0  0  0  0  0
    7.5600   -4.6700   23.8140 C   0  0  0  0  0  0  0  0  0  0  0  0
    6.9720   -5.7350   22.8680 C   0  0  0  0  0  0  0  0  0  0  0  0
    5.7440   -5.1690   22.1930 C   0  0  0  0  0  0  0  0  0  0  0  0
    5.9710   -3.8230   21.5670 C   0  0  2  0  0  0  0  0  0  0  0  0
    5.8860   -3.6540   20.2060 N   0  0  0  0  0  0  0  0  0  0  0  0
    5.8160   -2.4600   19.4450 C   0  0  0  0  0  0  0  0  0  0  0  0
    6.7490   -1.4210   19.5820 C   0  0  0  0  0  0  0  0  0  0  0  0
    6.0930   -0.2240   20.0200 O   0  0  0  0  0  0  0  0  0  0  0  0
    7.3530   -3.2410   21.9470 C   0  0  0  0  0  0  0  0  0  0  0  0
    9.2080   -1.2050   23.2230 C   0  0  0  0  0  0  0  0  0  0  0  0
   10.4770   -1.2730   23.6070 C   0  0  0  0  0  0  0  0  0  0  0  0
   11.4760   -0.5230   23.5600 C   0  0  0  0  0  0  0  0  0  0  0  0
   12.9160   -0.4180   23.9010 C   0  0  0  0  0  0  0  0  0  0  0  0
   13.2190   -1.6380   24.5170 C   0  0  0  0  0  0  0  0  0  0  0  0
   12.2250   -2.6020   24.6720 C   0  0  0  0  0  0  0  0  0  0  0  0
   12.7260   -3.5550   25.2320 O   0  0  0  0  0  0  0  0  0  0  0  0
   10.8590   -2.4440   24.2260 C   0  0  0  0  0  0  0  0  0  0  0  0
    9.9710   -3.2720   24.3530 O   0  0  0  0  0  0  0  0  0  0  0  0
  1  2  1  0
  3  2  1  6
  3  4  1  0
  4  5  1  0
  5  6  1  0
  6  7  1  6
  7  8  1  0
  8  9  1  0
  9 10  1  0
 10 11  1  6
 11 12  1  0
 12 13  1  0
 13 14  1  0
  6 15  1  0
 10 15  1  0
  5 16  1  1
 16 17  1  0
  3 18  1  0
 17 18  2  0
 18 19  1  0
 19 20  2  0
 20 21  1  0
 21 22  1  0
 17 23  1  0
 21 23  2  0
 23 24  1  0
M  END
