MAK-UNK-0cb6a3ad-3
     RDKit          3D

 11 12  0  0  0  0  0  0  0  0999 V2000
    9.1840   -1.8550   23.7460 C   0  0  0  0  0  0  0  0  0  0  0  0
   10.6880   -1.5840   23.9230 C   0  0  2  0  0  0  0  0  0  0  0  0
   11.0400   -0.3830   23.2860 C   0  0  0  0  0  0  0  0  0  0  0  0
   12.4240   -0.1760   23.3020 C   0  0  0  0  0  0  0  0  0  0  0  0
   13.0610   -1.3490   23.4960 C   0  0  2  0  0  0  0  0  0  0  0  0
   12.6050   -2.4130   22.8210 C   0  0  0  0  0  0  0  0  0  0  0  0
   11.3270   -2.6770   23.3270 C   0  0  0  0  0  0  0  0  0  0  0  0
   12.6190   -1.8710   24.8020 C   0  0  0  0  0  0  0  0  0  0  0  0
   13.5800   -1.8670   25.7300 C   0  0  0  0  0  0  0  0  0  0  0  0
   12.5690   -3.2950   24.6330 C   0  0  0  0  0  0  0  0  0  0  0  0
   11.2480   -1.4940   25.0230 O   0  0  0  0  0  0  0  0  0  0  0  0
  2  1  1  1
  2  3  1  0
  3  4  1  0
  5  4  1  6
  5  6  1  0
  2  7  1  0
  6  7  1  0
  5  8  1  0
  8  9  1  0
  8 10  1  0
  2 11  1  0
  8 11  1  0
M  END
