MAK-UNK-9e4a73aa-10
     RDKit          3D

 26 29  0  0  0  0  0  0  0  0999 V2000
    5.8640   -1.3680   25.9120 O   0  0  0  0  0  0  0  0  0  0  0  0
    6.4540   -1.6820   24.8910 C   0  0  0  0  0  0  0  0  0  0  0  0
    6.4580   -2.9340   24.3850 C   0  0  0  0  0  0  0  0  0  0  0  0
    5.2650   -3.6570   24.3330 C   0  0  0  0  0  0  0  0  0  0  0  0
    5.2960   -4.9960   23.7450 C   0  0  0  0  0  0  0  0  0  0  0  0
    3.8360   -5.9140   23.6590 Cl  0  0  0  0  0  0  0  0  0  0  0  0
    6.6080   -5.4920   23.2400 C   0  0  0  0  0  0  0  0  0  0  0  0
    6.7770   -7.0120   22.5180 Cl  0  0  0  0  0  0  0  0  0  0  0  0
    7.7370   -4.6690   23.3610 C   0  0  0  0  0  0  0  0  0  0  0  0
    7.7040   -3.4100   23.9190 C   0  0  0  0  0  0  0  0  0  0  0  0
    8.8360   -2.4990   24.0750 N   0  0  0  0  0  0  0  0  0  0  0  0
   10.1560   -2.4980   23.5110 C   0  0  0  0  0  0  0  0  0  0  0  0
   10.3480   -2.2740   22.1550 C   0  0  0  0  0  0  0  0  0  0  0  0
   11.7940   -2.2110   21.6210 C   0  0  0  0  0  0  0  0  0  0  0  0
   12.8290   -2.3840   22.4960 C   0  0  0  0  0  0  0  0  0  0  0  0
   12.5900   -2.6190   23.8470 C   0  0  0  0  0  0  0  0  0  0  0  0
   11.2870   -2.6720   24.3320 C   0  0  0  0  0  0  0  0  0  0  0  0
    8.5340   -1.1730   24.0590 C   0  0  0  0  0  0  0  0  0  0  0  0
    9.4950   -0.2100   23.9780 O   0  0  0  0  0  0  0  0  0  0  0  0
    7.2150   -0.9040   24.0570 N   0  0  0  0  0  0  0  0  0  0  0  0
    7.0420   -1.0690   22.6580 C   0  0  0  0  0  0  0  0  0  0  0  0
    7.9560   -0.4090   21.8390 C   0  0  0  0  0  0  0  0  0  0  0  0
    7.6360   -0.6780   20.6010 C   0  0  0  0  0  0  0  0  0  0  0  0
    6.7540   -1.3500   19.8440 C   0  0  0  0  0  0  0  0  0  0  0  0
    5.8570   -2.0110   20.5990 N   0  0  0  0  0  0  0  0  0  0  0  0
    6.0280   -1.8520   21.9840 C   0  0  0  0  0  0  0  0  0  0  0  0
  1  2  2  0
  2  3  1  0
  3  4  2  0
  4  5  1  0
  5  6  1  0
  5  7  2  0
  7  8  1  0
  7  9  1  0
  3 10  1  0
  9 10  2  0
 10 11  1  0
 11 12  1  0
 12 13  2  0
 13 14  1  0
 14 15  2  0
 15 16  1  0
 12 17  1  0
 16 17  2  0
 11 18  1  0
 18 19  2  0
  2 20  1  0
 18 20  1  0
 20 21  1  0
 21 22  2  0
 22 23  1  0
 23 24  2  0
 24 25  1  0
 21 26  1  0
 25 26  2  0
M  END
