MAK-UNK-194150d3-1
     RDKit          3D

 23 24  0  0  0  0  0  0  0  0999 V2000
    6.1090    8.3650   20.8910 C   0  0  0  0  0  0  0  0  0  0  0  0
    6.1160    6.8830   21.2900 C   0  0  0  0  0  0  0  0  0  0  0  0
    7.3280    6.2030   21.4100 C   0  0  0  0  0  0  0  0  0  0  0  0
    7.3640    4.8290   21.7690 C   0  0  0  0  0  0  0  0  0  0  0  0
    6.1960    4.0830   22.0200 C   0  0  0  0  0  0  0  0  0  0  0  0
    6.4510    2.6590   22.3650 N   0  0  0  0  0  0  0  0  0  0  0  0
    7.2890    1.8170   21.1640 S   0  0  0  0  0  0  0  0  0  0  0  0
    8.5820    2.4460   21.0570 O   0  0  0  0  0  0  0  0  0  0  0  0
    6.4050    1.6720   20.0330 O   0  0  0  0  0  0  0  0  0  0  0  0
    7.5210    0.2860   21.8280 N   0  0  0  0  0  0  0  0  0  0  0  0
    8.8060   -0.1540   21.8100 C   0  0  0  0  0  0  0  0  0  0  0  0
    9.1950   -0.6740   23.0450 C   0  0  0  0  0  0  0  0  0  0  0  0
   10.5410   -1.0660   23.1530 C   0  0  0  0  0  0  0  0  0  0  0  0
   11.3370   -1.2840   22.0330 C   0  0  0  0  0  0  0  0  0  0  0  0
   12.6780   -1.6710   22.1010 C   0  0  0  0  0  0  0  0  0  0  0  0
   13.2660   -1.8520   23.3190 C   0  0  0  0  0  0  0  0  0  0  0  0
   12.5610   -1.6630   24.6080 C   0  0  0  0  0  0  0  0  0  0  0  0
   11.1160   -1.2520   24.3860 C   0  0  0  0  0  0  0  0  0  0  0  0
    4.9350    4.7150   21.9270 C   0  0  0  0  0  0  0  0  0  0  0  0
    3.6760    4.1660   22.1460 N   0  0  0  0  0  0  0  0  0  0  0  0
    3.5120    3.5780   23.2280 O   0  0  0  0  0  0  0  0  0  0  0  0
    2.7290    4.6620   21.5090 O   0  0  0  0  0  0  0  0  0  0  0  0
    4.8100    6.1700   21.5500 C   0  0  0  0  0  0  0  0  0  0  0  0
  1  2  1  0
  2  3  2  0
  3  4  1  0
  4  5  2  0
  5  6  1  0
  7  6  1  0
  7  8  2  0
  7  9  2  0
  7 10  1  0
 10 11  1  0
 11 12  1  0
 12 13  1  0
 13 14  2  0
 14 15  1  0
 15 16  2  0
 16 17  1  0
 13 18  1  0
 17 18  2  0
  5 19  1  0
 19 20  1  0
 20 21  2  0
 20 22  1  0
  2 23  1  0
 19 23  2  0
M  CHG  2  20   1  22  -1
M  END
