MAK-UNK-194150d3-6
     RDKit          3D

 14 14  0  0  0  0  0  0  0  0999 V2000
    4.2720    1.4560   19.1170 C   0  0  0  0  0  0  0  0  0  0  0  0
    5.1660    1.2020   17.9420 C   0  0  0  0  0  0  0  0  0  0  0  0
    6.5820    0.9240   18.2790 C   0  0  0  0  0  0  0  0  0  0  0  0
    6.9890   -0.6570   18.7080 S   0  0  0  0  0  0  0  0  0  0  0  0
    6.8400   -0.4130   20.4660 C   0  0  0  0  0  0  0  0  0  0  0  0
    8.0960   -0.5910   20.9770 N   0  0  0  0  0  0  0  0  0  0  0  0
    8.7050    0.1850   22.0140 C   0  0  0  0  0  0  0  0  0  0  0  0
    9.0390   -0.7770   23.1340 C   0  0  0  0  0  0  0  0  0  0  0  0
   10.5120   -1.1560   23.2150 C   0  0  0  0  0  0  0  0  0  0  0  0
   11.3760   -1.3790   22.0380 C   0  0  0  0  0  0  0  0  0  0  0  0
   12.7070   -1.7240   22.1280 C   0  0  0  0  0  0  0  0  0  0  0  0
   13.3010   -1.8800   23.3630 C   0  0  0  0  0  0  0  0  0  0  0  0
   12.6270   -1.7080   24.5680 C   0  0  0  0  0  0  0  0  0  0  0  0
   11.1680   -1.3370   24.5770 C   0  0  0  0  0  0  0  0  0  0  0  0
  1  2  1  0
  2  3  1  0
  3  4  1  0
  4  5  1  0
  5  6  1  0
  6  7  1  0
  7  8  1  0
  8  9  1  0
  9 10  2  0
 10 11  1  0
 11 12  2  0
 12 13  1  0
  9 14  1  0
 13 14  2  0
M  END
