MAK-UNK-702fb7d3-18
     RDKit          3D

 43 48  0  0  0  0  0  0  0  0999 V2000
    6.5350   -0.2750   26.6050 C   0  0  0  0  0  0  0  0  0  0  0  0
    6.3720   -0.1000   25.2560 N   0  0  2  0  0  0  0  0  0  0  0  0
    6.7220    1.5840   24.8300 Cl  0  0  0  0  0  0  0  0  0  0  0  0
    4.9740   -0.0240   24.8840 C   0  0  0  0  0  0  0  0  0  0  0  0
    4.3810   -1.2380   24.7610 C   0  0  0  0  0  0  0  0  0  0  0  0
    4.8710   -2.1010   23.9010 C   0  0  0  0  0  0  0  0  0  0  0  0
    4.2710   -3.2660   23.7900 C   0  0  0  0  0  0  0  0  0  0  0  0
    4.8180   -4.2110   22.8200 C   0  0  0  0  0  0  0  0  0  0  0  0
    5.0110   -5.6350   23.2250 C   0  0  0  0  0  0  0  0  0  0  0  0
    5.6010   -6.4570   22.1080 C   0  0  0  0  0  0  0  0  0  0  0  0
    5.8780   -5.7940   20.7770 C   0  0  0  0  0  0  0  0  0  0  0  0
    5.6110   -4.3170   20.5370 C   0  0  0  0  0  0  0  0  0  0  0  0
    5.1110   -3.6360   21.6030 C   0  0  0  0  0  0  0  0  0  0  0  0
    4.9000   -2.3320   21.4240 F   0  0  0  0  0  0  0  0  0  0  0  0
    3.2220   -3.2250   24.6810 N   0  0  0  0  0  0  0  0  0  0  0  0
    2.0320   -4.3740   25.0370 S   0  0  0  0  0  0  0  0  0  0  0  0
    2.1000   -5.3270   23.9480 O   0  0  0  0  0  0  0  0  0  0  0  0
    0.7940   -3.6600   25.2720 O   0  0  0  0  0  0  0  0  0  0  0  0
    2.4580   -5.2010   26.5230 C   0  0  0  0  0  0  0  0  0  0  0  0
    3.1570   -6.3900   26.5180 C   0  0  0  0  0  0  0  0  0  0  0  0
    3.5190   -7.1030   27.7180 C   0  0  0  0  0  0  0  0  0  0  0  0
    3.1550   -6.5900   28.9590 C   0  0  0  0  0  0  0  0  0  0  0  0
    2.4060   -5.3180   28.9460 N   0  0  0  0  0  0  0  0  0  0  0  0
    2.1080   -4.7100   27.7690 C   0  0  0  0  0  0  0  0  0  0  0  0
    3.2880   -1.9390   25.3120 C   0  0  0  0  0  0  0  0  0  0  0  0
    7.3170   -0.9610   24.3850 C   0  0  0  0  0  0  0  0  0  0  0  0
    7.4500   -0.4850   23.2600 O   0  0  0  0  0  0  0  0  0  0  0  0
    8.0380   -2.1700   24.7060 N   0  0  0  0  0  0  0  0  0  0  0  0
    7.4470   -3.4710   24.2830 C   0  0  0  0  0  0  0  0  0  0  0  0
    6.8920   -4.2630   25.3540 C   0  0  0  0  0  0  0  0  0  0  0  0
    6.2370   -5.4620   25.1630 C   0  0  0  0  0  0  0  0  0  0  0  0
    5.6960   -6.1820   26.2890 C   0  0  0  0  0  0  0  0  0  0  0  0
    5.7990   -5.7590   27.6160 C   0  0  0  0  0  0  0  0  0  0  0  0
    6.4310   -4.5920   27.8240 C   0  0  0  0  0  0  0  0  0  0  0  0
    6.9660   -3.8570   26.6480 C   0  0  0  0  0  0  0  0  0  0  0  0
    7.5750   -2.6090   26.9090 C   0  0  1  0  0  0  0  0  0  0  0  0
    7.3220   -1.9530   28.2620 C   0  0  0  0  0  0  0  0  0  0  0  0
    8.3290   -1.4250   29.0160 C   0  0  0  0  0  0  0  0  0  0  0  0
    8.0860   -0.8070   30.2420 C   0  0  0  0  0  0  0  0  0  0  0  0
    6.7920   -0.7170   30.7290 C   0  0  0  0  0  0  0  0  0  0  0  0
    5.7460   -1.2500   29.9870 C   0  0  0  0  0  0  0  0  0  0  0  0
    6.0130   -1.8630   28.7650 C   0  0  0  0  0  0  0  0  0  0  0  0
    8.7170   -2.4560   25.9400 C   0  0  0  0  0  0  0  0  0  0  0  0
  2  1  1  1
  2  3  1  0
  2  4  1  0
  4  5  1  0
  5  6  1  0
  6  7  2  0
  7  8  1  0
  8  9  2  0
  9 10  1  0
 10 11  2  0
 11 12  1  0
  8 13  1  0
 12 13  2  0
 13 14  1  0
  7 15  1  0
 15 16  1  0
 16 17  2  0
 16 18  2  0
 16 19  1  0
 19 20  2  0
 20 21  1  0
 21 22  2  0
 22 23  1  0
 19 24  1  0
 23 24  2  0
  5 25  2  0
 15 25  1  0
  2 26  1  0
 26 27  2  0
 26 28  1  0
 28 29  1  0
 29 30  1  0
 30 31  2  0
 31 32  1  0
 32 33  2  0
 33 34  1  0
 30 35  1  0
 34 35  2  0
 35 36  1  0
 36 37  1  1
 37 38  2  0
 38 39  1  0
 39 40  2  0
 40 41  1  0
 37 42  1  0
 41 42  2  0
 28 43  1  0
 36 43  1  0
M  CHG  1   2   1
M  END
