MAK-UNK-acefcb18-23
     RDKit          3D

 26 28  0  0  0  0  0  0  0  0999 V2000
    7.0890    0.3700   22.8410 C   0  0  0  0  0  0  0  0  0  0  0  0
    7.9840   -0.7370   23.4780 C   0  0  0  0  0  0  0  0  0  0  0  0
    9.2970   -0.3580   23.6770 N   0  0  0  0  0  0  0  0  0  0  0  0
   10.1530    0.1530   22.6960 C   0  0  0  0  0  0  0  0  0  0  0  0
    9.4490    0.2090   21.5650 C   0  0  0  0  0  0  0  0  0  0  0  0
    9.0960    1.3840   20.9390 O   0  0  0  0  0  0  0  0  0  0  0  0
    8.9480   -1.0150   21.1670 C   0  0  0  0  0  0  0  0  0  0  0  0
    9.5290   -2.0740   21.4610 O   0  0  0  0  0  0  0  0  0  0  0  0
   10.8680   -2.4940   21.3960 C   0  0  0  0  0  0  0  0  0  0  0  0
   11.2640   -3.4420   20.4450 C   0  0  0  0  0  0  0  0  0  0  0  0
   12.4250   -4.0290   20.2220 C   0  0  0  0  0  0  0  0  0  0  0  0
   13.5090   -3.7430   21.0400 C   0  0  0  0  0  0  0  0  0  0  0  0
   14.5930   -4.5660   20.6540 C   0  0  0  0  0  0  0  0  0  0  0  0
   13.2950   -2.7490   22.0540 C   0  0  0  0  0  0  0  0  0  0  0  0
   12.0610   -2.1040   22.2670 C   0  0  0  0  0  0  0  0  0  0  0  0
   11.5520    0.4720   23.2420 C   0  0  0  0  0  0  0  0  0  0  0  0
   11.3970    0.1370   24.5460 N   0  0  0  0  0  0  0  0  0  0  0  0
   10.0320   -0.3760   24.8280 C   0  0  0  0  0  0  0  0  0  0  0  0
    9.5220   -0.8050   26.0360 C   0  0  0  0  0  0  0  0  0  0  0  0
    8.5950   -1.9820   25.8740 N   0  0  0  0  0  0  0  0  0  0  0  0
    8.9600   -3.0730   24.9810 C   0  0  0  0  0  0  0  0  0  0  0  0
    8.8610   -4.4160   25.6730 C   0  0  0  0  0  0  0  0  0  0  0  0
    8.1590   -4.1470   26.8680 C   0  0  0  0  0  0  0  0  0  0  0  0
    7.5400   -5.3320   26.9110 O   0  0  0  0  0  0  0  0  0  0  0  0
    7.4750   -3.4050   27.4480 C   0  0  0  0  0  0  0  0  0  0  0  0
    7.4300   -2.1620   26.7680 C   0  0  0  0  0  0  0  0  0  0  0  0
  1  2  1  0
  2  3  1  0
  3  4  1  0
  4  5  1  0
  5  6  2  0
  5  7  1  0
  7  8  1  0
  8  9  1  0
  9 10  2  0
 10 11  1  0
 11 12  2  0
 12 13  1  0
 12 14  1  0
  9 15  1  0
 14 15  2  0
  4 16  2  0
 16 17  1  0
  3 18  1  0
 17 18  2  0
 18 19  1  0
 19 20  1  0
 20 21  1  0
 21 22  1  0
 22 23  1  0
 23 24  1  0
 23 25  1  0
 20 26  1  0
 25 26  1  0
M  END
