MAK-UNK-2084232d-1
     RDKit          3D

 21 23  0  0  0  0  0  0  0  0999 V2000
   13.5420   -3.0370   22.9560 N   0  0  0  0  0  0  0  0  0  0  0  0
   12.5470   -2.2950   22.7210 C   0  0  0  0  0  0  0  0  0  0  0  0
   11.6130   -1.9590   23.9060 C   0  0  2  0  0  0  0  0  0  0  0  0
   10.5360   -2.7640   24.1460 O   0  0  0  0  0  0  0  0  0  0  0  0
    9.4040   -2.9700   23.1670 C   0  0  1  0  0  0  0  0  0  0  0  0
    8.1280   -3.5110   23.5130 C   0  0  2  0  0  0  0  0  0  0  0  0
    7.9400   -4.7430   24.1660 C   0  0  0  0  0  0  0  0  0  0  0  0
    7.0600   -5.7090   23.6500 C   0  0  0  0  0  0  0  0  0  0  0  0
    6.2740   -5.3870   22.5470 C   0  0  0  0  0  0  0  0  0  0  0  0
    6.8530   -4.4560   21.7290 C   0  0  1  0  0  0  0  0  0  0  0  0
    5.9550   -4.0510   20.6950 O   0  0  0  0  0  0  0  0  0  0  0  0
    7.3810   -3.3310   22.3380 C   0  0  0  0  0  0  0  0  0  0  0  0
    9.2680   -1.5610   22.8730 C   0  0  0  0  0  0  0  0  0  0  0  0
   10.4700   -1.5460   23.3890 C   0  0  0  0  0  0  0  0  0  0  0  0
   11.3620   -0.5110   23.4510 C   0  0  0  0  0  0  0  0  0  0  0  0
   12.7510   -0.2720   23.9610 C   0  0  0  0  0  0  0  0  0  0  0  0
   13.2400   -1.5470   24.6040 C   0  0  0  0  0  0  0  0  0  0  0  0
   12.3710   -2.7050   24.6260 C   0  0  0  0  0  0  0  0  0  0  0  0
   12.9710   -3.7220   25.2760 O   0  0  0  0  0  0  0  0  0  0  0  0
   11.0490   -2.7180   24.0300 C   0  0  0  0  0  0  0  0  0  0  0  0
   10.3810   -3.9140   24.1400 O   0  0  0  0  0  0  0  0  0  0  0  0
  1  2  1  0
  3  2  1  6
  3  4  1  0
  4  5  1  0
  5  6  1  0
  6  7  1  6
  7  8  1  0
  8  9  1  0
  9 10  1  0
 10 11  1  6
  6 12  1  0
 10 12  1  0
  5 13  1  1
 13 14  1  0
  3 15  1  0
 14 15  2  0
 15 16  1  0
 16 17  2  0
 17 18  1  0
 18 19  1  0
 14 20  1  0
 18 20  2  0
 20 21  1  0
M  END
