MAK-UNK-0d6072ac-3
     RDKit          3D

 19 21  0  0  0  0  0  0  0  0999 V2000
    5.8930   -5.8940   21.7040 C   0  0  0  0  0  0  0  0  0  0  0  0
    5.7090   -5.2680   22.9260 C   0  0  2  0  0  0  0  0  0  0  0  0
    4.5760   -4.4630   23.1070 C   0  0  0  0  0  0  0  0  0  0  0  0
    4.1600   -3.6830   22.2640 O   0  0  0  0  0  0  0  0  0  0  0  0
    3.9230   -4.6040   24.2960 O   0  0  0  0  0  0  0  0  0  0  0  0
    7.0110   -4.5970   23.2880 C   0  0  0  0  0  0  0  0  0  0  0  0
    7.7980   -5.2350   24.3070 C   0  0  0  0  0  0  0  0  0  0  0  0
    8.9700   -4.6700   24.5830 C   0  0  0  0  0  0  0  0  0  0  0  0
    9.5110   -3.5300   23.9950 C   0  0  0  0  0  0  0  0  0  0  0  0
    8.7770   -2.8630   23.0570 C   0  0  0  0  0  0  0  0  0  0  0  0
    7.5210   -3.4240   22.7160 C   0  0  0  0  0  0  0  0  0  0  0  0
    9.4880   -1.7340   22.6400 N   0  0  0  0  0  0  0  0  0  0  0  0
   10.7600   -1.6500   23.2990 C   0  0  0  0  0  0  0  0  0  0  0  0
   11.8220   -0.7710   23.2640 C   0  0  0  0  0  0  0  0  0  0  0  0
   12.9460   -1.0250   24.0680 C   0  0  0  0  0  0  0  0  0  0  0  0
   12.9860   -2.1600   24.8820 C   0  0  0  0  0  0  0  0  0  0  0  0
   14.2490   -2.6080   25.9020 Cl  0  0  0  0  0  0  0  0  0  0  0  0
   11.9600   -3.0290   24.9220 C   0  0  0  0  0  0  0  0  0  0  0  0
   10.8330   -2.8210   24.1780 C   0  0  0  0  0  0  0  0  0  0  0  0
  2  1  1  6
  2  3  1  0
  3  4  2  0
  3  5  1  0
  2  6  1  0
  6  7  2  0
  7  8  1  0
  8  9  2  0
  9 10  1  0
  6 11  1  0
 10 11  2  0
 10 12  1  0
 12 13  1  0
 13 14  1  0
 14 15  2  0
 15 16  1  0
 16 17  1  0
 16 18  2  0
  9 19  1  0
 13 19  2  0
 18 19  1  0
M  END
