MAK-UNK-9e4a73aa-5
     RDKit          3D

 26 29  0  0  0  0  0  0  0  0999 V2000
    4.4070   -1.0520   24.8710 O   0  0  0  0  0  0  0  0  0  0  0  0
    4.6660   -2.2280   24.6410 C   0  0  0  0  0  0  0  0  0  0  0  0
    4.8680   -3.2370   25.7320 C   0  0  0  0  0  0  0  0  0  0  0  0
    4.2920   -2.9540   27.0930 C   0  0  0  0  0  0  0  0  0  0  0  0
    4.5120   -3.9930   28.1660 C   0  0  0  0  0  0  0  0  0  0  0  0
    3.9990   -3.7490   29.3790 F   0  0  0  0  0  0  0  0  0  0  0  0
    5.2210   -5.1740   27.9200 C   0  0  0  0  0  0  0  0  0  0  0  0
    5.4470   -6.3280   29.1740 Cl  0  0  0  0  0  0  0  0  0  0  0  0
    5.8120   -5.4840   26.5550 C   0  0  0  0  0  0  0  0  0  0  0  0
    5.5770   -4.4200   25.4870 C   0  0  0  0  0  0  0  0  0  0  0  0
    6.1360   -4.6620   24.1140 C   0  0  2  0  0  0  0  0  0  0  0  0
    7.2050   -3.8270   23.7700 C   0  0  0  0  0  0  0  0  0  0  0  0
    7.6550   -2.8950   24.6920 C   0  0  0  0  0  0  0  0  0  0  0  0
    8.7150   -2.0430   24.3930 C   0  0  0  0  0  0  0  0  0  0  0  0
    9.3800   -2.1050   23.0800 C   0  0  0  0  0  0  0  0  0  0  0  0
    8.8980   -3.0310   22.1930 C   0  0  0  0  0  0  0  0  0  0  0  0
    7.8300   -3.8900   22.5210 C   0  0  0  0  0  0  0  0  0  0  0  0
    5.0030   -4.1370   23.2140 C   0  0  0  0  0  0  0  0  0  0  0  0
    4.2380   -4.9390   22.4110 O   0  0  0  0  0  0  0  0  0  0  0  0
    4.7900   -2.7610   23.2120 C   0  0  2  0  0  0  0  0  0  0  0  0
    5.8430   -2.1250   22.5630 C   0  0  0  0  0  0  0  0  0  0  0  0
    6.7440   -1.2740   23.2010 C   0  0  0  0  0  0  0  0  0  0  0  0
    7.7570   -0.6980   22.4350 C   0  0  0  0  0  0  0  0  0  0  0  0
    7.8130   -0.9900   21.0860 C   0  0  0  0  0  0  0  0  0  0  0  0
    6.9440   -1.8030   20.4710 N   0  0  0  0  0  0  0  0  0  0  0  0
    5.9880   -2.3520   21.2270 C   0  0  0  0  0  0  0  0  0  0  0  0
  1  2  2  0
  2  3  1  0
  3  4  1  0
  4  5  2  0
  5  6  1  0
  5  7  1  0
  7  8  1  0
  7  9  2  0
  3 10  2  0
  9 10  1  0
 10 11  1  0
 11 12  1  1
 12 13  2  0
 13 14  1  0
 14 15  2  0
 15 16  1  0
 12 17  1  0
 16 17  2  0
 11 18  1  0
 18 19  2  0
  2 20  1  0
 18 20  1  0
 20 21  1  1
 21 22  2  0
 22 23  1  0
 23 24  2  0
 24 25  1  0
 21 26  1  0
 25 26  2  0
M  END
