MAK-UNK-c7aa8293-3
     RDKit          3D

 21 23  0  0  0  0  0  0  0  0999 V2000
    5.5860   -6.1810   21.5160 C   0  0  0  0  0  0  0  0  0  0  0  0
    6.4840   -5.2710   22.0120 N   0  0  0  0  0  0  0  0  0  0  0  0
    6.2610   -3.9160   22.1930 C   0  0  0  0  0  0  0  0  0  0  0  0
    7.3870   -3.1820   22.5270 C   0  0  0  0  0  0  0  0  0  0  0  0
    8.0360   -3.4140   23.7330 C   0  0  0  0  0  0  0  0  0  0  0  0
    9.3670   -3.0180   23.5380 C   0  0  1  0  0  0  0  0  0  0  0  0
    9.3610   -1.6290   23.1540 C   0  0  0  0  0  0  0  0  0  0  0  0
   10.7190   -1.7010   23.6430 C   0  0  0  0  0  0  0  0  0  0  0  0
   11.6530   -0.8490   23.5840 C   0  0  0  0  0  0  0  0  0  0  0  0
   12.9430   -0.6950   23.9450 C   0  0  0  0  0  0  0  0  0  0  0  0
   13.4470   -1.7700   24.6010 C   0  0  0  0  0  0  0  0  0  0  0  0
   12.6420   -2.8280   24.8210 C   0  0  0  0  0  0  0  0  0  0  0  0
   13.1090   -3.7700   25.4340 O   0  0  0  0  0  0  0  0  0  0  0  0
   11.2640   -2.8820   24.3700 C   0  0  0  0  0  0  0  0  0  0  0  0
   10.5710   -3.8790   24.5940 O   0  0  0  0  0  0  0  0  0  0  0  0
   11.7730   -2.1650   24.1130 C   0  0  1  0  0  0  0  0  0  0  0  0
   13.0000   -2.2740   25.0330 C   0  0  0  0  0  0  0  0  0  0  0  0
   13.9850   -2.8460   24.1810 N   0  0  0  0  0  0  0  0  0  0  0  0
   10.5050   -2.8520   24.5450 O   0  0  0  0  0  0  0  0  0  0  0  0
    7.7690   -4.8950   24.1620 C   0  0  0  0  0  0  0  0  0  0  0  0
    7.2210   -5.9040   23.1000 C   0  0  0  0  0  0  0  0  0  0  0  0
  1  2  1  0
  2  3  1  0
  3  4  1  0
  4  5  1  0
  6  5  1  1
  6  7  1  0
  7  8  1  0
  8  9  2  0
  9 10  1  0
 10 11  2  0
 11 12  1  0
 12 13  1  0
  8 14  1  0
 12 14  2  0
 14 15  1  0
  9 16  1  0
 16 17  1  1
 17 18  1  0
  6 19  1  0
 16 19  1  0
  5 20  1  0
  2 21  1  0
 20 21  1  0
M  END
