MAK-UNK-c7aa8293-1
     RDKit          3D

 21 22  0  0  0  0  0  0  0  0999 V2000
    5.4450   -2.5160   19.6920 C   0  0  0  0  0  0  0  0  0  0  0  0
    5.5950   -2.9490   20.9640 C   0  0  0  0  0  0  0  0  0  0  0  0
    4.5860   -3.8170   21.5010 O   0  0  0  0  0  0  0  0  0  0  0  0
    6.7580   -2.5190   21.6780 N   0  0  0  0  0  0  0  0  0  0  0  0
    7.0960   -3.2500   22.7850 C   0  0  0  0  0  0  0  0  0  0  0  0
    8.1730   -4.3520   22.5740 C   0  0  0  0  0  0  0  0  0  0  0  0
    8.8910   -4.7010   23.6780 C   0  0  0  0  0  0  0  0  0  0  0  0
    9.4470   -3.6530   24.3890 C   0  0  2  0  0  0  0  0  0  0  0  0
    9.2900   -2.3760   24.0060 C   0  0  0  0  0  0  0  0  0  0  0  0
   10.6880   -2.3240   24.3520 C   0  0  0  0  0  0  0  0  0  0  0  0
   11.6010   -1.3700   23.9070 C   0  0  0  0  0  0  0  0  0  0  0  0
   13.0370   -1.1910   24.1690 C   0  0  0  0  0  0  0  0  0  0  0  0
   13.5390   -2.1920   25.0280 C   0  0  0  0  0  0  0  0  0  0  0  0
   12.6870   -3.2200   25.5410 C   0  0  0  0  0  0  0  0  0  0  0  0
   13.1760   -4.0900   26.2990 O   0  0  0  0  0  0  0  0  0  0  0  0
   11.2900   -3.3050   25.2260 C   0  0  0  0  0  0  0  0  0  0  0  0
   10.6090   -4.3560   25.8070 O   0  0  0  0  0  0  0  0  0  0  0  0
   11.8440   -2.4800   24.7160 C   0  0  2  0  0  0  0  0  0  0  0  0
   13.3180   -2.8110   24.6090 C   0  0  0  0  0  0  0  0  0  0  0  0
   13.8760   -3.5540   25.5870 N   0  0  0  0  0  0  0  0  0  0  0  0
   10.9580   -3.7020   24.3280 O   0  0  0  0  0  0  0  0  0  0  0  0
  1  2  1  0
  2  3  2  0
  2  4  1  0
  4  5  1  0
  5  6  1  0
  6  7  1  0
  8  7  1  6
  8  9  1  0
  9 10  1  0
 10 11  2  0
 11 12  1  0
 12 13  2  0
 13 14  1  0
 14 15  1  0
 10 16  1  0
 14 16  2  0
 16 17  1  0
 11 18  1  0
 18 19  1  6
 19 20  1  0
  8 21  1  0
 18 21  1  0
M  END
