MAK-UNK-1cb0e944-4
     RDKit          3D

 30 32  0  0  0  0  0  0  0  0999 V2000
   12.1160    2.8500   22.8090 C   0  0  0  0  0  0  0  0  0  0  0  0
   10.6040    2.7700   22.9700 C   0  0  1  0  0  0  0  0  0  0  0  0
    9.9640    1.7900   23.5090 O   0  0  0  0  0  0  0  0  0  0  0  0
   10.5540    0.4230   23.6770 C   0  0  1  0  0  0  0  0  0  0  0  0
    9.7940   -0.7070   23.7820 C   0  0  0  0  0  0  0  0  0  0  0  0
    8.8740   -1.4670   24.5200 C   0  0  0  0  0  0  0  0  0  0  0  0
    8.0000   -2.6020   24.8140 C   0  0  0  0  0  0  0  0  0  0  0  0
    7.4510   -3.7460   25.3730 O   0  0  0  0  0  0  0  0  0  0  0  0
    8.9350   -2.8640   25.7520 O   0  0  0  0  0  0  0  0  0  0  0  0
    9.1550   -2.1550   23.2650 C   0  0  0  0  0  0  0  0  0  0  0  0
    9.3970   -0.9860   22.2150 C   0  0  0  0  0  0  0  0  0  0  0  0
   10.7110   -0.1590   22.4170 C   0  0  2  0  0  0  0  0  0  0  0  0
   11.8320   -1.0760   22.4600 N   0  0  0  0  0  0  0  0  0  0  0  0
   11.5060   -2.2610   21.9920 C   0  0  0  0  0  0  0  0  0  0  0  0
   12.9390   -1.8900   21.8170 C   0  0  0  0  0  0  0  0  0  0  0  0
   13.1640   -0.3880   22.5310 S   0  0  0  0  0  0  0  0  0  0  0  0
   11.4870   -0.7900   22.7370 C   0  0  0  0  0  0  0  0  0  0  0  0
   10.3150   -1.6540   22.5900 C   0  0  0  0  0  0  0  0  0  0  0  0
    9.5080   -2.7610   22.2360 C   0  0  0  0  0  0  0  0  0  0  0  0
    8.0010   -2.6600   22.3920 N   0  0  0  0  0  0  0  0  0  0  0  0
    7.3530   -3.9680   22.7660 C   0  0  0  0  0  0  0  0  0  0  0  0
    6.2280   -4.3160   22.0390 C   0  0  0  0  0  0  0  0  0  0  0  0
    5.5010   -3.1980   21.6820 C   0  0  0  0  0  0  0  0  0  0  0  0
    4.9000   -3.5270   20.4450 O   0  0  0  0  0  0  0  0  0  0  0  0
    5.9200   -1.8840   21.5230 C   0  0  0  0  0  0  0  0  0  0  0  0
    7.3400   -1.7730   21.5580 C   0  0  0  0  0  0  0  0  0  0  0  0
   10.1690    4.4910   23.5760 S   0  0  0  0  0  0  0  0  0  0  0  0
    9.8650    4.3770   25.2240 N   0  0  0  0  0  0  0  0  0  0  0  0
    8.8830    4.8720   23.0380 O   0  0  0  0  0  0  0  0  0  0  0  0
   11.3030    5.4010   23.4710 O   0  0  0  0  0  0  0  0  0  0  0  0
  2  1  1  1
  2  3  1  0
  4  3  1  6
  4  5  1  0
  5  6  2  0
  6  7  1  0
  7  8  2  0
  7  9  1  0
  6 10  1  0
 10 11  1  0
  4 12  1  0
 11 12  1  0
 12 13  1  1
 13 14  1  0
 14 15  2  0
 15 16  1  0
 16 17  1  0
 14 18  1  0
 17 18  2  0
 18 19  1  0
 19 20  1  0
 20 21  1  0
 21 22  1  0
 22 23  1  0
 23 24  1  0
 23 25  1  0
 20 26  1  0
 25 26  1  0
  2 27  1  0
 27 28  1  0
 27 29  2  0
 27 30  2  0
M  END
