MAK-UNK-27459e11-2
     RDKit          3D

 17 17  0  0  0  0  0  0  0  0999 V2000
    5.5250   -5.2680   25.7960 C   0  0  0  0  0  0  0  0  0  0  0  0
    6.7220   -5.0580   26.6910 C   0  0  2  0  0  0  0  0  0  0  0  0
    6.4030   -4.6040   28.0630 C   0  0  0  0  0  0  0  0  0  0  0  0
    5.8590   -3.4560   28.5360 N   0  0  0  0  0  0  0  0  0  0  0  0
    6.7320   -5.5460   28.9930 N   0  0  0  0  0  0  0  0  0  0  0  0
    8.0470   -4.1310   26.0810 S   0  0  0  0  0  0  0  0  0  0  0  0
    9.1110   -5.0690   25.8090 O   0  0  0  0  0  0  0  0  0  0  0  0
    8.2260   -2.9950   26.9480 O   0  0  0  0  0  0  0  0  0  0  0  0
    7.6600   -3.5180   24.5370 N   0  0  0  0  0  0  0  0  0  0  0  0
    8.7800   -3.2450   23.5690 C   0  0  0  0  0  0  0  0  0  0  0  0
    8.9560   -1.8730   23.2290 C   0  0  0  0  0  0  0  0  0  0  0  0
   10.2420   -1.3610   22.9760 C   0  0  0  0  0  0  0  0  0  0  0  0
   10.5990    0.0020   23.3460 C   0  0  0  0  0  0  0  0  0  0  0  0
   12.0180    0.6720   23.1310 C   0  0  0  0  0  0  0  0  0  0  0  0
   13.0700   -0.1850   22.4970 C   0  0  0  0  0  0  0  0  0  0  0  0
   12.4370   -1.4390   22.2350 C   0  0  0  0  0  0  0  0  0  0  0  0
   11.2300   -2.1420   22.3610 C   0  0  0  0  0  0  0  0  0  0  0  0
  2  1  1  6
  2  3  1  0
  3  4  2  3
  3  5  1  0
  2  6  1  0
  6  7  2  0
  6  8  2  0
  6  9  1  0
  9 10  1  0
 10 11  1  0
 11 12  1  0
 12 13  2  0
 13 14  1  0
 14 15  2  0
 15 16  1  0
 12 17  1  0
 16 17  2  0
M  END
