MAK-UNK-0d6072ac-8
     RDKit          3D

 19 21  0  0  0  0  0  0  0  0999 V2000
   14.0410   -2.5200   25.9640 C   0  0  0  0  0  0  0  0  0  0  0  0
   13.0690   -2.8400   24.8640 C   0  0  2  0  0  0  0  0  0  0  0  0
   13.8070   -2.7850   23.5780 C   0  0  0  0  0  0  0  0  0  0  0  0
   13.4800   -2.0010   22.6690 O   0  0  0  0  0  0  0  0  0  0  0  0
   14.8120   -3.5810   23.4270 O   0  0  0  0  0  0  0  0  0  0  0  0
   12.0570   -2.2490   24.4610 C   0  0  0  0  0  0  0  0  0  0  0  0
   11.9100   -0.9090   24.0820 C   0  0  0  0  0  0  0  0  0  0  0  0
   10.7170   -0.3120   23.5290 C   0  0  0  0  0  0  0  0  0  0  0  0
    9.4870   -1.0270   23.2600 C   0  0  0  0  0  0  0  0  0  0  0  0
   10.2280   -1.6770   23.7070 C   0  0  0  0  0  0  0  0  0  0  0  0
   10.7350   -2.8590   24.2050 C   0  0  0  0  0  0  0  0  0  0  0  0
    8.8000   -1.4420   23.0950 N   0  0  0  0  0  0  0  0  0  0  0  0
    8.0850   -2.4000   23.0340 C   0  0  0  0  0  0  0  0  0  0  0  0
    6.8530   -2.7990   22.6090 N   0  0  0  0  0  0  0  0  0  0  0  0
    6.6380   -4.1430   22.8750 C   0  0  0  0  0  0  0  0  0  0  0  0
    7.4450   -5.0780   23.4880 C   0  0  0  0  0  0  0  0  0  0  0  0
    6.1030   -6.1090   23.1830 Cl  0  0  0  0  0  0  0  0  0  0  0  0
    8.1340   -3.8510   23.4450 C   0  0  0  0  0  0  0  0  0  0  0  0
    9.0950   -2.8120   23.5720 C   0  0  0  0  0  0  0  0  0  0  0  0
  2  1  1  1
  2  3  1  0
  3  4  2  0
  3  5  1  0
  2  6  1  0
  6  7  2  0
  7  8  1  0
  8  9  2  0
  9 10  1  0
  6 11  1  0
 10 11  2  0
 10 12  1  0
 12 13  1  0
 13 14  1  0
 14 15  2  0
 15 16  1  0
 16 17  1  0
 16 18  2  0
  9 19  1  0
 13 19  2  0
 18 19  1  0
M  END
