MAK-UNK-60abb798-11
     RDKit          3D

 24 26  0  0  0  0  0  0  0  0999 V2000
   13.1490   -1.6920   22.2060 N   0  0  0  0  0  0  0  0  0  0  0  0
   12.5910   -2.4860   23.0540 C   0  0  0  0  0  0  0  0  0  0  0  0
   11.5370   -1.8770   24.0520 C   0  0  2  0  0  0  0  0  0  0  0  0
   10.3650   -2.6040   24.1750 O   0  0  0  0  0  0  0  0  0  0  0  0
    9.3320   -2.6150   23.1460 C   0  0  1  0  0  0  0  0  0  0  0  0
    8.1180   -3.4070   23.0640 C   0  0  1  0  0  0  0  0  0  0  0  0
    7.6750   -4.3460   23.9810 C   0  0  0  0  0  0  0  0  0  0  0  0
    6.7710   -5.2970   23.4880 C   0  0  0  0  0  0  0  0  0  0  0  0
    5.9680   -4.8810   22.4220 C   0  0  0  0  0  0  0  0  0  0  0  0
    6.4930   -3.8690   21.5930 C   0  0  1  0  0  0  0  0  0  0  0  0
    5.6760   -3.3660   20.4350 C   0  0  0  0  0  0  0  0  0  0  0  0
    6.1760   -2.2030   19.8230 C   0  0  0  0  0  0  0  0  0  0  0  0
    5.5910   -0.9810   20.1800 C   0  0  0  0  0  0  0  0  0  0  0  0
    6.1460    0.2180   19.6360 O   0  0  0  0  0  0  0  0  0  0  0  0
    7.0700   -2.8500   22.3750 C   0  0  0  0  0  0  0  0  0  0  0  0
    9.1630   -1.1630   23.1800 C   0  0  0  0  0  0  0  0  0  0  0  0
   10.4200   -1.2800   23.6110 C   0  0  0  0  0  0  0  0  0  0  0  0
   11.4570   -0.4990   23.6370 C   0  0  0  0  0  0  0  0  0  0  0  0
   12.8160   -0.4720   24.0310 C   0  0  0  0  0  0  0  0  0  0  0  0
   13.2250   -1.7420   24.6380 C   0  0  0  0  0  0  0  0  0  0  0  0
   12.0090   -2.4660   24.5530 C   0  0  0  0  0  0  0  0  0  0  0  0
   12.4070   -3.6110   25.1200 O   0  0  0  0  0  0  0  0  0  0  0  0
   10.8500   -2.4890   24.2120 C   0  0  0  0  0  0  0  0  0  0  0  0
   10.0560   -3.5530   24.3950 O   0  0  0  0  0  0  0  0  0  0  0  0
  1  2  1  0
  3  2  1  6
  3  4  1  0
  4  5  1  0
  5  6  1  0
  6  7  1  1
  7  8  1  0
  8  9  1  0
  9 10  1  0
 10 11  1  1
 11 12  1  0
 12 13  1  0
 13 14  2  0
  6 15  1  0
 10 15  1  0
  5 16  1  1
 16 17  1  0
  3 18  1  0
 17 18  2  0
 18 19  1  0
 19 20  2  0
 20 21  1  0
 21 22  1  0
 17 23  1  0
 21 23  2  0
 23 24  1  0
M  END
