MAK-UNK-9e4a73aa-17
     RDKit          3D

 26 29  0  0  0  0  0  0  0  0999 V2000
    4.9630   -3.6320   20.8660 O   0  0  0  0  0  0  0  0  0  0  0  0
    5.0280   -2.9430   21.8690 C   0  0  0  0  0  0  0  0  0  0  0  0
    5.1960   -1.3790   21.8410 C   0  0  0  0  0  0  0  0  0  0  0  0
    4.7390   -0.5960   20.7680 C   0  0  0  0  0  0  0  0  0  0  0  0
    4.8630    0.8000   20.7730 C   0  0  0  0  0  0  0  0  0  0  0  0
    4.3960    1.4790   19.7170 F   0  0  0  0  0  0  0  0  0  0  0  0
    5.4500    1.4880   21.8330 C   0  0  0  0  0  0  0  0  0  0  0  0
    5.5900    3.2030   21.8300 Cl  0  0  0  0  0  0  0  0  0  0  0  0
    5.9820    0.6750   23.0140 C   0  0  0  0  0  0  0  0  0  0  0  0
    5.8090   -0.8260   22.9200 C   0  0  0  0  0  0  0  0  0  0  0  0
    6.2720   -1.7610   23.8490 N   0  0  0  0  0  0  0  0  0  0  0  0
    7.4640   -2.0070   23.1600 C   0  0  0  0  0  0  0  0  0  0  0  0
    8.5640   -2.7440   23.6990 C   0  0  0  0  0  0  0  0  0  0  0  0
    9.7030   -2.8680   22.9260 C   0  0  0  0  0  0  0  0  0  0  0  0
    9.4480   -2.2210   21.7840 C   0  0  0  0  0  0  0  0  0  0  0  0
    8.5210   -1.5150   21.1190 C   0  0  0  0  0  0  0  0  0  0  0  0
    7.3770   -1.3820   21.8790 N   0  0  0  0  0  0  0  0  0  0  0  0
    5.5660   -2.8990   24.1910 C   0  0  0  0  0  0  0  0  0  0  0  0
    5.4920   -3.4330   25.4530 O   0  0  0  0  0  0  0  0  0  0  0  0
    4.9310   -3.4740   23.1780 N   0  0  0  0  0  0  0  0  0  0  0  0
    3.7920   -4.2020   23.5290 C   0  0  0  0  0  0  0  0  0  0  0  0
    2.8770   -3.6500   24.4470 C   0  0  0  0  0  0  0  0  0  0  0  0
    1.5630   -4.3420   24.9380 C   0  0  0  0  0  0  0  0  0  0  0  0
    1.5520   -5.7080   24.1820 C   0  0  0  0  0  0  0  0  0  0  0  0
    2.4560   -6.2020   23.3060 N   0  0  0  0  0  0  0  0  0  0  0  0
    3.5350   -5.4570   23.0070 C   0  0  0  0  0  0  0  0  0  0  0  0
  1  2  2  0
  2  3  1  0
  3  4  2  0
  4  5  1  0
  5  6  1  0
  5  7  2  0
  7  8  1  0
  7  9  1  0
  3 10  1  0
  9 10  2  0
 10 11  1  0
 11 12  1  0
 12 13  2  0
 13 14  1  0
 14 15  2  0
 15 16  1  0
 12 17  1  0
 16 17  2  0
 11 18  1  0
 18 19  2  0
  2 20  1  0
 18 20  1  0
 20 21  1  0
 21 22  2  0
 22 23  1  0
 23 24  2  0
 24 25  1  0
 21 26  1  0
 25 26  2  0
M  END
