MAK-UNK-9a6be56d-11
     RDKit          3D

 38 42  0  0  0  0  0  0  0  0999 V2000
    8.1300   -2.0070   28.6060 C   0  0  0  0  0  0  0  0  0  0  0  0
    8.3700   -0.6260   28.3930 N   0  0  0  0  0  0  0  0  0  0  0  0
    7.3560   -0.1270   27.4960 C   0  0  0  0  0  0  0  0  0  0  0  0
    7.8650   -0.2810   26.1940 C   0  0  0  0  0  0  0  0  0  0  0  0
    9.0460   -0.8730   25.8620 C   0  0  0  0  0  0  0  0  0  0  0  0
    9.2880   -0.9560   24.4070 C   0  0  1  0  0  0  0  0  0  0  0  0
   10.5940   -0.4530   23.8690 N   0  0  0  0  0  0  0  0  0  0  0  0
   11.0090   -1.3860   22.7700 C   0  0  0  0  0  0  0  0  0  0  0  0
   12.3800   -1.4200   22.4770 C   0  0  0  0  0  0  0  0  0  0  0  0
   13.2160   -0.2690   22.9730 C   0  0  0  0  0  0  0  0  0  0  0  0
   12.3660    0.9450   23.1540 C   0  0  0  0  0  0  0  0  0  0  0  0
   12.8420    2.2280   22.8850 C   0  0  0  0  0  0  0  0  0  0  0  0
   12.1270    3.4010   23.0210 C   0  0  0  0  0  0  0  0  0  0  0  0
   10.8270    3.2970   23.4720 C   0  0  0  0  0  0  0  0  0  0  0  0
    9.9950    4.8240   23.6380 S   0  0  0  0  0  0  0  0  0  0  0  0
   11.1980    6.0040   23.5340 N   0  0  0  0  0  0  0  0  0  0  0  0
    9.2720    4.9830   24.9550 O   0  0  0  0  0  0  0  0  0  0  0  0
    9.0500    5.0250   22.5770 O   0  0  0  0  0  0  0  0  0  0  0  0
   10.3150    2.0100   23.7560 C   0  0  0  0  0  0  0  0  0  0  0  0
   11.0590    0.8220   23.6040 C   0  0  0  0  0  0  0  0  0  0  0  0
    8.8490   -2.8280   23.9670 S   0  0  0  0  0  0  0  0  0  0  0  0
    9.3080   -3.6960   25.0260 O   0  0  0  0  0  0  0  0  0  0  0  0
    9.1610   -3.1230   22.5930 O   0  0  0  0  0  0  0  0  0  0  0  0
    7.0760   -3.0430   23.9620 C   0  0  0  0  0  0  0  0  0  0  0  0
    6.4870   -3.7310   22.9100 C   0  0  0  0  0  0  0  0  0  0  0  0
    5.1100   -3.9170   22.8710 C   0  0  0  0  0  0  0  0  0  0  0  0
    4.2560   -3.4310   23.8710 C   0  0  0  0  0  0  0  0  0  0  0  0
    4.8490   -2.6840   25.0310 N   0  0  0  0  0  0  0  0  0  0  0  0
    6.3240   -2.5340   24.9880 C   0  0  0  0  0  0  0  0  0  0  0  0
    8.0550   -0.1950   23.8670 C   0  0  0  0  0  0  0  0  0  0  0  0
    7.7400    0.1230   22.5330 C   0  0  0  0  0  0  0  0  0  0  0  0
    7.7430    1.4680   22.2110 C   0  0  0  0  0  0  0  0  0  0  0  0
    7.4440    1.9490   20.9450 C   0  0  0  0  0  0  0  0  0  0  0  0
    7.1170    1.0630   19.9040 C   0  0  0  0  0  0  0  0  0  0  0  0
    7.0990   -0.3010   20.1640 C   0  0  0  0  0  0  0  0  0  0  0  0
    7.4220   -0.8230   21.5440 C   0  0  0  0  0  0  0  0  0  0  0  0
    7.3870   -2.1390   21.7510 F   0  0  0  0  0  0  0  0  0  0  0  0
    7.2670    0.1480   24.9440 C   0  0  0  0  0  0  0  0  0  0  0  0
  1  2  1  0
  2  3  1  0
  3  4  1  0
  4  5  2  0
  5  6  1  0
  6  7  1  0
  7  8  1  0
  8  9  1  0
  9 10  1  0
 10 11  1  0
 11 12  2  0
 12 13  1  0
 13 14  2  0
 14 15  1  0
 15 16  1  0
 15 17  2  0
 15 18  2  0
 14 19  1  0
  7 20  1  0
 11 20  1  0
 19 20  2  0
  6 21  1  6
 21 22  2  0
 21 23  2  0
 21 24  1  0
 24 25  2  0
 25 26  1  0
 26 27  2  0
 27 28  1  0
 24 29  1  0
 28 29  2  0
  6 30  1  0
 30 31  1  0
 31 32  2  0
 32 33  1  0
 33 34  2  0
 34 35  1  0
 31 36  1  0
 35 36  2  0
 36 37  1  0
  4 38  1  0
 30 38  2  0
M  END
