MAK-UNK-9e4a73aa-20
     RDKit          3D

 26 29  0  0  0  0  0  0  0  0999 V2000
    7.7040    1.3730   22.6970 O   0  0  0  0  0  0  0  0  0  0  0  0
    7.2830    0.2530   22.9580 C   0  0  0  0  0  0  0  0  0  0  0  0
    7.1300   -1.2160   22.9230 C   0  0  0  0  0  0  0  0  0  0  0  0
    5.9130   -1.6960   22.9140 N   0  0  0  0  0  0  0  0  0  0  0  0
    5.5800   -3.0810   22.9540 C   0  0  0  0  0  0  0  0  0  0  0  0
    4.2600   -3.3270   22.9340 F   0  0  0  0  0  0  0  0  0  0  0  0
    6.3930   -4.2140   23.0260 C   0  0  0  0  0  0  0  0  0  0  0  0
    7.4560   -5.5270   23.1130 Cl  0  0  0  0  0  0  0  0  0  0  0  0
    7.7670   -3.4460   22.9850 C   0  0  0  0  0  0  0  0  0  0  0  0
    8.1490   -2.0760   22.9210 C   0  0  0  0  0  0  0  0  0  0  0  0
    9.4300   -1.4030   22.8570 N   0  0  0  0  0  0  0  0  0  0  0  0
   10.7150   -1.8470   23.0910 C   0  0  0  0  0  0  0  0  0  0  0  0
   11.5500   -2.3020   21.9340 C   0  0  0  0  0  0  0  0  0  0  0  0
   12.9230   -2.7190   22.3180 C   0  0  0  0  0  0  0  0  0  0  0  0
   13.3190   -2.6630   23.6620 C   0  0  0  0  0  0  0  0  0  0  0  0
   12.4600   -2.2230   24.6760 C   0  0  0  0  0  0  0  0  0  0  0  0
   11.1500   -1.8100   24.4010 C   0  0  0  0  0  0  0  0  0  0  0  0
    9.4710   -0.1770   22.1580 C   0  0  0  0  0  0  0  0  0  0  0  0
    9.2500    1.0480   21.4310 O   0  0  0  0  0  0  0  0  0  0  0  0
    8.1380   -0.2300   22.0650 N   0  0  0  0  0  0  0  0  0  0  0  0
    7.5110   -0.1430   20.8650 C   0  0  0  0  0  0  0  0  0  0  0  0
    7.6450   -1.1170   19.9540 C   0  0  0  0  0  0  0  0  0  0  0  0
    6.9630   -1.0030   18.7500 C   0  0  0  0  0  0  0  0  0  0  0  0
    6.1660    0.1170   18.5200 C   0  0  0  0  0  0  0  0  0  0  0  0
    6.0000    1.1270   19.3970 N   0  0  0  0  0  0  0  0  0  0  0  0
    6.6660    1.0050   20.5640 C   0  0  0  0  0  0  0  0  0  0  0  0
  1  2  2  0
  2  3  1  0
  3  4  2  0
  4  5  1  0
  5  6  1  0
  5  7  2  0
  7  8  1  0
  7  9  1  0
  3 10  1  0
  9 10  2  0
 10 11  1  0
 11 12  1  0
 12 13  2  0
 13 14  1  0
 14 15  2  0
 15 16  1  0
 12 17  1  0
 16 17  2  0
 11 18  1  0
 18 19  2  0
  2 20  1  0
 18 20  1  0
 20 21  1  0
 21 22  2  0
 22 23  1  0
 23 24  2  0
 24 25  1  0
 21 26  1  0
 25 26  2  0
M  END
