MAK-UNK-0d6072ac-29
     RDKit          3D

 19 21  0  0  0  0  0  0  0  0999 V2000
    8.9450   -3.7770   26.0420 C   0  0  0  0  0  0  0  0  0  0  0  0
   10.1940   -4.2670   25.6450 C   0  0  2  0  0  0  0  0  0  0  0  0
   10.9330   -4.6990   26.6570 C   0  0  0  0  0  0  0  0  0  0  0  0
   12.1490   -4.5340   26.7090 O   0  0  0  0  0  0  0  0  0  0  0  0
   10.2250   -5.2890   27.6630 O   0  0  0  0  0  0  0  0  0  0  0  0
   10.9960   -3.2130   24.9120 C   0  0  0  0  0  0  0  0  0  0  0  0
   12.4110   -2.8570   25.2820 C   0  0  0  0  0  0  0  0  0  0  0  0
   12.8580   -1.8580   24.5270 C   0  0  0  0  0  0  0  0  0  0  0  0
   11.9940   -1.3880   23.5910 C   0  0  0  0  0  0  0  0  0  0  0  0
   10.9490   -1.4870   23.1030 C   0  0  0  0  0  0  0  0  0  0  0  0
   10.3740   -2.5290   23.8510 C   0  0  0  0  0  0  0  0  0  0  0  0
   10.4290   -0.8320   22.1650 N   0  0  0  0  0  0  0  0  0  0  0  0
    9.6160   -1.7680   22.5880 C   0  0  0  0  0  0  0  0  0  0  0  0
    8.3870   -2.1140   22.2020 N   0  0  0  0  0  0  0  0  0  0  0  0
    7.9640   -3.1870   22.9130 C   0  0  0  0  0  0  0  0  0  0  0  0
    8.6890   -3.8500   23.9210 C   0  0  0  0  0  0  0  0  0  0  0  0
    7.9670   -5.2110   24.6840 Cl  0  0  0  0  0  0  0  0  0  0  0  0
   10.0800   -3.3780   24.3180 N   0  0  0  0  0  0  0  0  0  0  0  0
   10.6080   -2.2640   23.6140 C   0  0  0  0  0  0  0  0  0  0  0  0
  2  1  1  1
  2  3  1  0
  3  4  2  0
  3  5  1  0
  2  6  1  0
  6  7  2  0
  7  8  1  0
  8  9  2  0
  9 10  1  0
  6 11  1  0
 10 11  2  0
 10 12  1  0
 12 13  1  0
 13 14  1  0
 14 15  2  0
 15 16  1  0
 16 17  1  0
 16 18  2  0
  9 19  1  0
 13 19  2  0
 18 19  1  0
M  END
