MAK-UNK-0cb6a3ad-5
     RDKit          3D

 11 11  0  0  0  0  0  0  0  0999 V2000
    8.5020   -3.5250   23.1130 C   0  0  0  0  0  0  0  0  0  0  0  0
    9.4830   -2.8960   23.8660 C   0  0  2  0  0  0  0  0  0  0  0  0
   10.0590   -1.7320   23.3660 C   0  0  0  0  0  0  0  0  0  0  0  0
   11.0170   -1.1220   24.2510 C   0  0  0  0  0  0  0  0  0  0  0  0
   12.0620   -1.9720   24.7380 C   0  0  2  0  0  0  0  0  0  0  0  0
   12.7490   -2.2430   23.6140 C   0  0  0  0  0  0  0  0  0  0  0  0
   13.1440   -1.1860   22.7960 C   0  0  0  0  0  0  0  0  0  0  0  0
   13.9180   -2.9000   24.1920 C   0  0  0  0  0  0  0  0  0  0  0  0
   11.4240   -3.0410   25.3120 C   0  0  1  0  0  0  0  0  0  0  0  0
   10.3530   -2.6550   26.1270 O   0  0  0  0  0  0  0  0  0  0  0  0
   10.6940   -3.7450   24.2110 C   0  0  0  0  0  0  0  0  0  0  0  0
  2  1  1  6
  2  3  1  0
  3  4  1  0
  4  5  1  0
  5  6  1  6
  6  7  1  0
  6  8  1  0
  5  9  1  0
  9 10  1  1
  2 11  1  0
  9 11  1  0
M  END
