MAK-UNK-bdda130a-5
     RDKit          3D

 23 26  0  0  0  0  0  0  0  0999 V2000
    3.8260   -4.0900   27.5450 C   0  0  0  0  0  0  0  0  0  0  0  0
    4.8860   -4.6590   26.2890 S   0  0  0  0  0  0  0  0  0  0  0  0
    5.7460   -5.5160   27.5290 C   0  0  0  0  0  0  0  0  0  0  0  0
    3.5300   -3.6130   26.0460 C   0  0  0  0  0  0  0  0  0  0  0  0
    2.3970   -4.2200   26.2520 C   0  0  0  0  0  0  0  0  0  0  0  0
    2.0040   -2.8190   25.8730 C   0  0  0  0  0  0  0  0  0  0  0  0
    0.4950   -2.7720   25.9170 S   0  0  0  0  0  0  0  0  0  0  0  0
    1.9370   -3.7970   26.1500 C   0  0  0  0  0  0  0  0  0  0  0  0
    5.2930   -4.6670   24.6340 N   0  0  0  0  0  0  0  0  0  0  0  0
    6.7090   -4.7680   24.1870 C   0  0  0  0  0  0  0  0  0  0  0  0
    7.0670   -4.9520   22.7970 C   0  0  0  0  0  0  0  0  0  0  0  0
    6.0070   -4.6410   21.8710 N   0  0  0  0  0  0  0  0  0  0  0  0
    5.1300   -3.6450   22.3740 C   0  0  0  0  0  0  0  0  0  0  0  0
    4.3640   -4.1510   23.6100 C   0  0  1  0  0  0  0  0  0  0  0  0
    3.3440   -5.2050   23.4210 C   0  0  0  0  0  0  0  0  0  0  0  0
    2.1770   -5.0490   24.0100 C   0  0  0  0  0  0  0  0  0  0  0  0
    1.0930   -6.0170   23.9190 C   0  0  0  0  0  0  0  0  0  0  0  0
    1.2130   -7.1440   23.2230 N   0  0  0  0  0  0  0  0  0  0  0  0
    2.4410   -7.2370   22.6390 C   0  0  0  0  0  0  0  0  0  0  0  0
    3.5370   -6.3340   22.6840 C   0  0  0  0  0  0  0  0  0  0  0  0
    4.7580   -6.5730   21.9920 N   0  0  0  0  0  0  0  0  0  0  0  0
    5.4630   -5.6750   21.2320 C   0  0  0  0  0  0  0  0  0  0  0  0
    5.5080   -5.7830   19.9960 O   0  0  0  0  0  0  0  0  0  0  0  0
  1  2  2  0
  2  3  2  0
  2  4  1  0
  4  5  1  0
  5  6  2  0
  6  7  1  0
  4  8  2  0
  7  8  1  0
  2  9  1  0
  9 10  1  0
 10 11  1  0
 11 12  1  0
 12 13  1  0
 14  9  1  1
 13 14  1  0
 14 15  1  0
 15 16  1  0
 16 17  2  0
 17 18  1  0
 18 19  2  0
 15 20  2  0
 19 20  1  0
 20 21  1  0
 12 22  1  0
 21 22  1  0
 22 23  2  0
M  END
