MAK-UNK-1bb0b7ee-6
     RDKit          3D

 13 14  0  0  0  0  0  0  0  0999 V2000
    6.5740   -3.5540   22.1320 O   0  0  0  0  0  0  0  0  0  0  0  0
    5.4620   -4.1910   21.4680 S   0  0  0  0  0  0  0  0  0  0  0  0
    4.7370   -3.5640   20.4100 O   0  0  0  0  0  0  0  0  0  0  0  0
    4.4040   -5.0060   22.6470 C   0  0  0  0  0  0  0  0  0  0  0  0
    4.7100   -6.2980   22.3540 C   0  0  0  0  0  0  0  0  0  0  0  0
    5.4910   -6.8810   23.3620 O   0  0  0  0  0  0  0  0  0  0  0  0
    6.1160   -5.7530   23.6620 C   0  0  0  0  0  0  0  0  0  0  0  0
    5.5440   -4.8940   24.7200 C   0  0  0  0  0  0  0  0  0  0  0  0
    6.1690   -3.7180   24.9980 C   0  0  0  0  0  0  0  0  0  0  0  0
    7.3420   -3.1460   24.4080 C   0  0  0  0  0  0  0  0  0  0  0  0
    7.7580   -4.1140   23.4100 C   0  0  0  0  0  0  0  0  0  0  0  0
    7.1790   -5.3810   23.0340 N   0  0  0  0  0  0  0  0  0  0  0  0
    5.6580   -5.9160   21.1670 C   0  0  0  0  0  0  0  0  0  0  0  0
  1  2  2  0
  2  3  2  0
  2  4  1  0
  4  5  1  0
  5  6  1  0
  6  7  1  0
  7  8  2  0
  8  9  1  0
  9 10  2  0
 10 11  1  0
  7 12  1  0
 11 12  2  0
  2 13  1  0
  5 13  1  0
M  END
