MAK-UNK-1cb0e944-7
     RDKit          3D

 20 20  0  0  0  0  0  0  0  0999 V2000
   11.4650   -1.9250   21.4680 N   0  0  0  0  0  0  0  0  0  0  0  0
   13.1300   -1.8230   21.6310 S   0  0  0  0  0  0  0  0  0  0  0  0
   13.7400   -1.3800   20.4190 O   0  0  0  0  0  0  0  0  0  0  0  0
   13.4900   -3.0860   22.2060 O   0  0  0  0  0  0  0  0  0  0  0  0
   13.3890   -0.5270   22.7690 C   0  0  0  0  0  0  0  0  0  0  0  0
   13.7730   -0.7210   23.8580 O   0  0  0  0  0  0  0  0  0  0  0  0
   13.1250    0.6950   22.3600 N   0  0  0  0  0  0  0  0  0  0  0  0
   12.1230    1.1090   22.9170 C   0  0  0  0  0  0  0  0  0  0  0  0
   11.4350   -0.0010   23.0500 C   0  0  0  0  0  0  0  0  0  0  0  0
    9.9830   -0.0860   22.7070 C   0  0  0  0  0  0  0  0  0  0  0  0
    9.4360    0.4020   21.7230 O   0  0  0  0  0  0  0  0  0  0  0  0
    9.3480   -0.7840   23.6760 N   0  0  0  0  0  0  0  0  0  0  0  0
    8.7640   -2.0930   23.4940 C   0  0  0  0  0  0  0  0  0  0  0  0
    8.6910   -2.9040   24.7270 N   0  0  0  0  0  0  0  0  0  0  0  0
    9.2750   -4.1670   24.6090 C   0  0  0  0  0  0  0  0  0  0  0  0
    9.2000   -5.1690   25.7790 C   0  0  0  0  0  0  0  0  0  0  0  0
    8.1360   -4.5430   26.7130 C   0  0  0  0  0  0  0  0  0  0  0  0
    7.8210   -5.5440   27.6540 O   0  0  0  0  0  0  0  0  0  0  0  0
    6.9700   -4.0760   26.1820 C   0  0  0  0  0  0  0  0  0  0  0  0
    7.3190   -2.8820   25.2630 C   0  0  0  0  0  0  0  0  0  0  0  0
  1  2  1  0
  2  3  2  0
  2  4  2  0
  2  5  1  0
  5  6  2  0
  5  7  1  0
  7  8  1  0
  8  9  1  0
  9 10  1  0
 10 11  2  0
 10 12  1  0
 12 13  1  0
 13 14  1  0
 14 15  1  0
 15 16  1  0
 16 17  1  0
 17 18  1  0
 17 19  1  0
 14 20  1  0
 19 20  1  0
M  END
