MAK-UNK-9a6be56d-8
     RDKit          3D

 38 42  0  0  0  0  0  0  0  0999 V2000
    8.3730    0.2730   23.4360 C   0  0  0  0  0  0  0  0  0  0  0  0
    9.4590   -0.8370   23.3300 C   0  0  2  0  0  0  0  0  0  0  0  0
    9.3100   -1.8880   24.2420 C   0  0  0  0  0  0  0  0  0  0  0  0
    8.5230   -2.7560   23.5920 C   0  0  0  0  0  0  0  0  0  0  0  0
    8.0860   -2.2140   22.5110 C   0  0  0  0  0  0  0  0  0  0  0  0
    7.2440   -3.0700   21.7930 C   0  0  0  0  0  0  0  0  0  0  0  0
    6.7690   -2.4130   20.5990 C   0  0  0  0  0  0  0  0  0  0  0  0
    7.3290   -1.2120   20.1300 C   0  0  0  0  0  0  0  0  0  0  0  0
    6.8570   -0.5790   18.9970 C   0  0  0  0  0  0  0  0  0  0  0  0
    5.8160   -1.1950   18.3630 C   0  0  0  0  0  0  0  0  0  0  0  0
    5.3060   -2.3900   18.8700 C   0  0  0  0  0  0  0  0  0  0  0  0
    5.7590   -3.0050   19.9660 C   0  0  0  0  0  0  0  0  0  0  0  0
    5.2350   -4.1390   20.4030 F   0  0  0  0  0  0  0  0  0  0  0  0
    7.1590   -4.2300   22.4950 N   0  0  0  0  0  0  0  0  0  0  0  0
    6.2800   -5.6680   22.2000 S   0  0  0  0  0  0  0  0  0  0  0  0
    7.0020   -6.7430   22.8410 O   0  0  0  0  0  0  0  0  0  0  0  0
    5.9710   -5.7120   20.7890 O   0  0  0  0  0  0  0  0  0  0  0  0
    4.8180   -5.3760   23.1330 C   0  0  0  0  0  0  0  0  0  0  0  0
    3.5840   -6.2710   23.0060 C   0  0  0  0  0  0  0  0  0  0  0  0
    2.4460   -5.9890   23.7660 C   0  0  0  0  0  0  0  0  0  0  0  0
    2.4330   -4.7800   24.7350 C   0  0  0  0  0  0  0  0  0  0  0  0
    3.6330   -3.9190   24.8540 N   0  0  0  0  0  0  0  0  0  0  0  0
    4.7800   -4.3000   24.0070 C   0  0  0  0  0  0  0  0  0  0  0  0
    7.9710   -4.0560   23.6220 C   0  0  0  0  0  0  0  0  0  0  0  0
   10.6800   -0.4470   23.0910 N   0  0  0  0  0  0  0  0  0  0  0  0
   11.5930   -1.3680   23.4830 C   0  0  0  0  0  0  0  0  0  0  0  0
   12.6740   -1.2740   22.6620 C   0  0  0  0  0  0  0  0  0  0  0  0
   13.2910   -0.0530   22.6780 C   0  0  0  0  0  0  0  0  0  0  0  0
   12.4660    1.0520   22.8320 C   0  0  0  0  0  0  0  0  0  0  0  0
   12.9980    2.2410   22.7880 C   0  0  0  0  0  0  0  0  0  0  0  0
   12.2200    3.3660   22.9600 C   0  0  0  0  0  0  0  0  0  0  0  0
   10.8730    3.3330   23.1770 C   0  0  0  0  0  0  0  0  0  0  0  0
    9.9670    4.8290   23.4510 S   0  0  0  0  0  0  0  0  0  0  0  0
   10.9070    5.9800   22.6620 N   0  0  0  0  0  0  0  0  0  0  0  0
    9.9750    5.1060   24.8880 O   0  0  0  0  0  0  0  0  0  0  0  0
    8.6910    4.7890   22.7720 O   0  0  0  0  0  0  0  0  0  0  0  0
   10.2580    2.0230   23.1970 C   0  0  0  0  0  0  0  0  0  0  0  0
   11.1000    0.8920   23.0350 C   0  0  0  0  0  0  0  0  0  0  0  0
  2  1  1  1
  2  3  1  0
  3  4  1  0
  4  5  1  0
  5  6  2  0
  6  7  1  0
  7  8  2  0
  8  9  1  0
  9 10  2  0
 10 11  1  0
  7 12  1  0
 11 12  2  0
 12 13  1  0
  6 14  1  0
 14 15  1  0
 15 16  2  0
 15 17  2  0
 15 18  1  0
 18 19  2  0
 19 20  1  0
 20 21  2  0
 21 22  1  0
 18 23  1  0
 22 23  2  0
  4 24  2  0
 14 24  1  0
  2 25  1  0
 25 26  1  0
 26 27  1  0
 27 28  1  0
 28 29  1  0
 29 30  2  0
 30 31  1  0
 31 32  2  0
 32 33  1  0
 33 34  1  0
 33 35  2  0
 33 36  2  0
 32 37  1  0
 25 38  1  0
 29 38  1  0
 37 38  2  0
M  END
