MAK-UNK-27459e11-5
     RDKit          3D

 17 17  0  0  0  0  0  0  0  0999 V2000
    6.6010   -5.2030   26.2400 C   0  0  0  0  0  0  0  0  0  0  0  0
    8.0160   -4.1610   25.9560 S   0  0  0  0  0  0  0  0  0  0  0  0
    9.0970   -4.9890   25.4880 O   0  0  0  0  0  0  0  0  0  0  0  0
    8.1290   -3.2890   27.0960 O   0  0  0  0  0  0  0  0  0  0  0  0
    7.5100   -3.2160   24.6430 N   0  0  0  0  0  0  0  0  0  0  0  0
    8.3510   -2.9770   23.4390 C   0  0  1  0  0  0  0  0  0  0  0  0
    7.5900   -3.1560   22.3040 C   0  0  0  0  0  0  0  0  0  0  0  0
    7.3320   -2.0430   21.4800 C   0  0  0  0  0  0  0  0  0  0  0  0
    5.9380   -1.7640   21.1920 N   0  0  0  0  0  0  0  0  0  0  0  0
    8.3060   -1.2100   20.9540 N   0  0  0  0  0  0  0  0  0  0  0  0
    8.9050   -1.5330   23.4500 C   0  0  0  0  0  0  0  0  0  0  0  0
   10.3630   -1.2430   23.0050 C   0  0  0  0  0  0  0  0  0  0  0  0
   10.7800    0.1350   23.3840 C   0  0  0  0  0  0  0  0  0  0  0  0
   12.1680    0.6160   23.0960 C   0  0  0  0  0  0  0  0  0  0  0  0
   13.0120   -0.2820   22.4590 C   0  0  0  0  0  0  0  0  0  0  0  0
   12.6020   -1.5740   22.0830 C   0  0  0  0  0  0  0  0  0  0  0  0
   11.2930   -2.0550   22.3480 C   0  0  0  0  0  0  0  0  0  0  0  0
  1  2  1  0
  2  3  2  0
  2  4  2  0
  2  5  1  0
  5  6  1  0
  6  7  1  6
  7  8  1  0
  8  9  2  3
  8 10  1  0
  6 11  1  0
 11 12  1  0
 12 13  2  0
 13 14  1  0
 14 15  2  0
 15 16  1  0
 12 17  1  0
 16 17  2  0
M  END
