MAK-UNK-129dcd6f-12
     RDKit          3D

 26 28  0  0  0  0  0  0  0  0999 V2000
   17.0850    4.4230   24.3420 C   0  0  0  0  0  0  0  0  0  0  0  0
   18.4400    5.2090   24.1890 C   0  0  0  0  0  0  0  0  0  0  0  0
   19.0680    6.6110   24.3180 C   0  0  0  0  0  0  0  0  0  0  0  0
   20.2560    7.0540   24.4630 C   0  0  0  0  0  0  0  0  0  0  0  0
   20.9680    6.1420   24.6200 N   0  0  0  0  0  0  0  0  0  0  0  0
   20.2080    5.0270   24.4880 C   0  0  0  0  0  0  0  0  0  0  0  0
   18.6620    4.4270   24.1600 C   0  0  0  0  0  0  0  0  0  0  0  0
   17.0610    2.8280   23.7120 N   0  0  0  0  0  0  0  0  0  0  0  0
   15.2150    2.2300   22.2840 C   0  0  0  0  0  0  0  0  0  0  0  0
   15.1780    2.6520   21.1160 O   0  0  0  0  0  0  0  0  0  0  0  0
   13.8440    1.4660   22.4960 C   0  0  0  0  0  0  0  0  0  0  0  0
   12.6790    2.1770   23.0770 C   0  0  0  0  0  0  0  0  0  0  0  0
   11.4240    1.6650   23.2280 C   0  0  0  0  0  0  0  0  0  0  0  0
   11.0950    0.3000   22.8090 C   0  0  0  0  0  0  0  0  0  0  0  0
    9.7800   -0.2570   22.8400 N   0  0  0  0  0  0  0  0  0  0  0  0
    8.8510    0.3180   21.7820 C   0  0  0  0  0  0  0  0  0  0  0  0
    9.0280    1.4560   21.3290 O   0  0  0  0  0  0  0  0  0  0  0  0
    7.7960   -0.4830   21.3260 N   0  0  0  0  0  0  0  0  0  0  0  0
    6.8500    0.0020   20.3680 C   0  0  0  0  0  0  0  0  0  0  0  0
    5.7040    0.7290   20.7030 C   0  0  0  0  0  0  0  0  0  0  0  0
    4.7490    1.2310   19.6310 C   0  0  0  0  0  0  0  0  0  0  0  0
    5.1880    0.8600   18.2300 C   0  0  0  0  0  0  0  0  0  0  0  0
    6.2970    0.1560   17.9690 N   0  0  0  0  0  0  0  0  0  0  0  0
    7.0750   -0.2460   19.0070 C   0  0  0  0  0  0  0  0  0  0  0  0
   12.1510   -0.4450   22.3180 C   0  0  0  0  0  0  0  0  0  0  0  0
   13.4580    0.1000   22.1650 C   0  0  0  0  0  0  0  0  0  0  0  0
  1  2  1  0
  2  3  2  0
  3  4  1  0
  4  5  2  0
  5  6  1  0
  2  7  1  0
  6  7  2  0
  7  8  1  0
  8  9  1  0
  9 10  2  0
  9 11  1  0
 11 12  2  0
 12 13  1  0
 13 14  2  0
 14 15  1  0
 15 16  1  0
 16 17  2  0
 16 18  1  0
 18 19  1  0
 19 20  2  0
 20 21  1  0
 21 22  2  0
 22 23  1  0
 19 24  1  0
 23 24  2  0
 14 25  1  0
 11 26  1  0
 25 26  2  0
M  END
