MAK-UNK-f2409524-21
     RDKit          3D

 26 27  0  0  0  0  0  0  0  0999 V2000
    9.7990   -0.6560   22.5040 C   0  0  0  0  0  0  0  0  0  0  0  0
    8.8520    0.0960   21.5640 C   0  0  0  0  0  0  0  0  0  0  0  0
    9.0970    1.2820   21.2530 O   0  0  0  0  0  0  0  0  0  0  0  0
    7.7240   -0.5990   21.1020 N   0  0  0  0  0  0  0  0  0  0  0  0
    6.7500   -0.0160   20.1900 C   0  0  0  0  0  0  0  0  0  0  0  0
    7.0350   -0.1980   18.8410 C   0  0  0  0  0  0  0  0  0  0  0  0
    6.1870    0.3370   17.7620 N   0  0  0  0  0  0  0  0  0  0  0  0
    5.0010    1.0830   18.2170 C   0  0  0  0  0  0  0  0  0  0  0  0
    4.7860    1.2030   19.5740 C   0  0  0  0  0  0  0  0  0  0  0  0
    5.5940    0.6940   20.5830 C   0  0  0  0  0  0  0  0  0  0  0  0
    5.1980    0.9340   21.8900 C   0  0  0  0  0  0  0  0  0  0  0  0
    4.9110    1.7360   22.9960 C   0  0  1  0  0  0  0  0  0  0  0  0
    4.1510    2.9010   22.8180 C   0  0  0  0  0  0  0  0  0  0  0  0
    4.0000    3.1510   21.6220 O   0  0  0  0  0  0  0  0  0  0  0  0
    3.9790    4.4650   21.2760 C   0  0  0  0  0  0  0  0  0  0  0  0
    3.4880    5.5420   22.0860 O   0  0  0  0  0  0  0  0  0  0  0  0
    4.2640    1.0270   24.0680 O   0  0  0  0  0  0  0  0  0  0  0  0
    4.6300    1.3810   25.3330 C   0  0  0  0  0  0  0  0  0  0  0  0
    5.5350    2.1510   25.6130 O   0  0  0  0  0  0  0  0  0  0  0  0
    3.8310    0.7440   26.2270 N   0  0  0  0  0  0  0  0  0  0  0  0
    4.0260    1.0230   27.5480 C   0  0  0  0  0  0  0  0  0  0  0  0
    4.3350   -0.1060   28.3080 C   0  0  0  0  0  0  0  0  0  0  0  0
    3.3010   -1.0370   28.2610 C   0  0  0  0  0  0  0  0  0  0  0  0
    2.1840   -0.5660   28.9560 C   0  0  0  0  0  0  0  0  0  0  0  0
    1.6700    0.5940   28.4080 C   0  0  0  0  0  0  0  0  0  0  0  0
    2.7370    1.6490   28.1140 C   0  0  0  0  0  0  0  0  0  0  0  0
  1  2  1  0
  2  3  2  0
  2  4  1  0
  4  5  1  0
  5  6  2  0
  6  7  1  0
  7  8  2  0
  8  9  1  0
  5 10  1  0
  9 10  2  0
 10 11  1  0
 12 11  1  6
 12 13  1  0
 13 14  1  0
 14 15  1  0
 15 16  2  0
 12 17  1  0
 17 18  1  0
 18 19  2  0
 18 20  1  0
 20 21  1  0
 21 22  1  0
 22 23  1  0
 23 24  1  0
 24 25  1  0
 21 26  1  0
 25 26  1  0
M  END
