MAK-UNK-902cc841-4
     RDKit          3D

 30 33  0  0  0  0  0  0  0  0999 V2000
    6.0700   -1.8180   18.4560 C   0  0  0  0  0  0  0  0  0  0  0  0
    5.8150   -2.5930   19.7110 C   0  0  0  0  0  0  0  0  0  0  0  0
    5.3740   -3.7650   19.6760 O   0  0  0  0  0  0  0  0  0  0  0  0
    6.1470   -1.9330   20.8600 N   0  0  0  0  0  0  0  0  0  0  0  0
    5.8780   -2.4280   22.1980 C   0  0  0  0  0  0  0  0  0  0  0  0
    7.1830   -2.8490   22.8450 C   0  0  0  0  0  0  0  0  0  0  0  0
    8.1830   -1.7620   22.9010 N   0  0  0  0  0  0  0  0  0  0  0  0
    9.3090   -2.2280   23.6730 C   0  0  1  0  0  0  0  0  0  0  0  0
    9.1930   -3.7250   23.7660 C   0  0  0  0  0  0  0  0  0  0  0  0
    8.6600   -4.3150   22.8300 O   0  0  0  0  0  0  0  0  0  0  0  0
    9.6530   -4.3500   24.9200 N   0  0  0  0  0  0  0  0  0  0  0  0
    8.6990   -4.6890   25.9420 C   0  0  0  0  0  0  0  0  0  0  0  0
    8.9860   -5.6640   26.8990 C   0  0  0  0  0  0  0  0  0  0  0  0
    8.0320   -5.9550   27.8730 C   0  0  0  0  0  0  0  0  0  0  0  0
    6.7660   -5.2390   27.8610 C   0  0  0  0  0  0  0  0  0  0  0  0
    6.4480   -4.2780   26.9350 C   0  0  0  0  0  0  0  0  0  0  0  0
    5.2430   -3.6520   26.9830 N   0  0  0  0  0  0  0  0  0  0  0  0
    4.9350   -2.7750   25.9990 C   0  0  0  0  0  0  0  0  0  0  0  0
    3.4770   -2.7340   25.8020 C   0  0  0  0  0  0  0  0  0  0  0  0
    2.9680   -3.6250   26.7100 C   0  0  0  0  0  0  0  0  0  0  0  0
    4.0090   -4.2240   27.4500 C   0  0  0  0  0  0  0  0  0  0  0  0
    3.8080   -5.0680   28.3230 O   0  0  0  0  0  0  0  0  0  0  0  0
    7.4490   -4.0090   25.9630 C   0  0  0  0  0  0  0  0  0  0  0  0
   10.4660   -1.5080   23.3020 C   0  0  0  0  0  0  0  0  0  0  0  0
   11.7310   -1.9860   22.6030 C   0  0  0  0  0  0  0  0  0  0  0  0
   12.7380   -0.9030   22.4150 C   0  0  0  0  0  0  0  0  0  0  0  0
   12.1700    0.5630   23.0340 S   0  0  0  0  0  0  0  0  0  0  0  0
   10.6530   -0.1420   23.5400 C   0  0  0  0  0  0  0  0  0  0  0  0
    8.5180   -1.3840   21.5290 C   0  0  0  0  0  0  0  0  0  0  0  0
    7.2710   -0.9760   20.7640 C   0  0  0  0  0  0  0  0  0  0  0  0
  1  2  1  0
  2  3  2  0
  2  4  1  0
  4  5  1  0
  5  6  1  0
  6  7  1  0
  7  8  1  0
  8  9  1  6
  9 10  2  0
  9 11  1  0
 11 12  1  0
 12 13  2  0
 13 14  1  0
 14 15  2  0
 15 16  1  0
 16 17  1  0
 17 18  1  0
 18 19  1  0
 19 20  1  0
 17 21  1  0
 20 21  1  0
 21 22  2  0
 12 23  1  0
 16 23  2  0
  8 24  1  0
 24 25  1  0
 25 26  2  0
 26 27  1  0
 24 28  2  0
 27 28  1  0
  7 29  1  0
  4 30  1  0
 29 30  1  0
M  END
