MAK-UNK-198e6d85-15
     RDKit          3D

 24 26  0  0  0  0  0  0  0  0999 V2000
   13.6100   -2.6360   25.7800 N   0  0  0  0  0  0  0  0  0  0  0  0
   12.5090   -1.9100   25.0710 C   0  0  0  0  0  0  0  0  0  0  0  0
   11.7820   -2.3690   24.0350 C   0  0  1  0  0  0  0  0  0  0  0  0
   10.6930   -3.2390   24.1090 O   0  0  0  0  0  0  0  0  0  0  0  0
    9.5240   -3.1320   23.1220 C   0  0  1  0  0  0  0  0  0  0  0  0
    8.2290   -3.9650   23.0460 C   0  0  2  0  0  0  0  0  0  0  0  0
    7.2000   -3.3070   22.2100 C   0  0  2  0  0  0  0  0  0  0  0  0
    6.5990   -2.3550   22.7020 O   0  0  0  0  0  0  0  0  0  0  0  0
    6.4930   -4.3840   21.7020 C   0  0  2  0  0  0  0  0  0  0  0  0
    5.6130   -3.9280   20.6680 O   0  0  0  0  0  0  0  0  0  0  0  0
    5.8280   -5.1250   22.6580 C   0  0  0  0  0  0  0  0  0  0  0  0
    6.5830   -5.5190   23.7740 C   0  0  2  0  0  0  0  0  0  0  0  0
    5.7090   -5.5940   24.9140 O   0  0  0  0  0  0  0  0  0  0  0  0
    7.6620   -4.6600   24.0990 C   0  0  1  0  0  0  0  0  0  0  0  0
    8.5820   -5.5150   24.7270 O   0  0  0  0  0  0  0  0  0  0  0  0
    9.3030   -1.7400   23.3280 C   0  0  0  0  0  0  0  0  0  0  0  0
   10.5780   -1.8320   23.6390 C   0  0  0  0  0  0  0  0  0  0  0  0
   11.5120   -1.0140   23.3580 C   0  0  0  0  0  0  0  0  0  0  0  0
   12.8520   -0.8030   23.5110 C   0  0  0  0  0  0  0  0  0  0  0  0
   13.3630   -1.8510   24.2450 C   0  0  0  0  0  0  0  0  0  0  0  0
   12.5690   -2.8900   24.6970 C   0  0  0  0  0  0  0  0  0  0  0  0
   13.2740   -3.7930   25.4260 O   0  0  0  0  0  0  0  0  0  0  0  0
   11.1600   -2.9350   24.4020 C   0  0  0  0  0  0  0  0  0  0  0  0
   10.4340   -4.0100   24.8680 O   0  0  0  0  0  0  0  0  0  0  0  0
  1  2  1  0
  3  2  1  1
  3  4  1  0
  4  5  1  0
  6  5  1  1
  6  7  1  0
  7  8  1  1
  7  9  1  0
  9 10  1  6
  9 11  1  0
 11 12  1  0
 12 13  1  1
  6 14  1  0
 12 14  1  0
 14 15  1  6
  5 16  1  1
 16 17  1  0
  3 18  1  0
 17 18  2  0
 18 19  1  0
 19 20  2  0
 20 21  1  0
 21 22  1  0
 17 23  1  0
 21 23  2  0
 23 24  1  0
M  END
