MAK-UNK-9e4a73aa-28
     RDKit          3D

 27 30  0  0  0  0  0  0  0  0999 V2000
    5.1340   -1.9100   19.4510 C   0  0  0  0  0  0  0  0  0  0  0  0
    6.1610   -2.1420   20.5790 C   0  0  0  0  0  0  0  0  0  0  0  0
    5.9330   -3.0120   21.5590 C   0  0  0  0  0  0  0  0  0  0  0  0
    6.8160   -3.2470   22.5440 C   0  0  0  0  0  0  0  0  0  0  0  0
    8.0850   -2.6770   22.7480 C   0  0  0  0  0  0  0  0  0  0  0  0
    7.6470   -3.6730   23.7390 N   0  0  0  0  0  0  0  0  0  0  0  0
    7.1200   -4.8830   23.3060 C   0  0  0  0  0  0  0  0  0  0  0  0
    7.5520   -5.5630   22.3540 O   0  0  0  0  0  0  0  0  0  0  0  0
    5.9000   -5.4200   24.0750 C   0  0  0  0  0  0  0  0  0  0  0  0
    5.0950   -6.4660   23.5920 C   0  0  0  0  0  0  0  0  0  0  0  0
    3.9910   -6.9180   24.3360 C   0  0  0  0  0  0  0  0  0  0  0  0
    3.2290   -7.9120   23.8730 F   0  0  0  0  0  0  0  0  0  0  0  0
    3.6790   -6.3440   25.5550 C   0  0  0  0  0  0  0  0  0  0  0  0
    2.3320   -6.8990   26.4690 Cl  0  0  0  0  0  0  0  0  0  0  0  0
    4.4590   -5.3110   26.0450 C   0  0  0  0  0  0  0  0  0  0  0  0
    5.5660   -4.8320   25.3270 C   0  0  0  0  0  0  0  0  0  0  0  0
    6.3660   -3.7750   25.7880 N   0  0  0  0  0  0  0  0  0  0  0  0
    5.8040   -2.9680   26.8290 C   0  0  0  0  0  0  0  0  0  0  0  0
    4.6170   -2.0750   26.5310 C   0  0  0  0  0  0  0  0  0  0  0  0
    4.0540   -1.2700   27.5350 C   0  0  0  0  0  0  0  0  0  0  0  0
    4.5540   -1.1920   29.0190 C   0  0  0  0  0  0  0  0  0  0  0  0
    5.7720   -2.1760   29.1290 C   0  0  0  0  0  0  0  0  0  0  0  0
    6.3070   -2.9630   28.1170 C   0  0  0  0  0  0  0  0  0  0  0  0
    7.0320   -3.0150   24.8350 C   0  0  0  0  0  0  0  0  0  0  0  0
    7.0710   -1.7830   24.9480 O   0  0  0  0  0  0  0  0  0  0  0  0
    8.1280   -1.7900   21.6110 C   0  0  0  0  0  0  0  0  0  0  0  0
    7.2790   -1.5030   20.5960 N   0  0  0  0  0  0  0  0  0  0  0  0
  1  2  1  0
  2  3  2  0
  3  4  1  0
  4  5  2  0
  5  6  1  0
  6  7  1  0
  7  8  2  0
  7  9  1  0
  9 10  2  0
 10 11  1  0
 11 12  1  0
 11 13  2  0
 13 14  1  0
 13 15  1  0
  9 16  1  0
 15 16  2  0
 16 17  1  0
 17 18  1  0
 18 19  2  0
 19 20  1  0
 20 21  2  0
 21 22  1  0
 18 23  1  0
 22 23  2  0
  6 24  1  0
 17 24  1  0
 24 25  2  0
  5 26  1  0
  2 27  1  0
 26 27  2  0
M  END
