MAK-UNK-2084232d-23
     RDKit          3D

 22 24  0  0  0  0  0  0  0  0999 V2000
   13.4200   -1.8240   25.4010 N   0  0  0  0  0  0  0  0  0  0  0  0
   11.9970   -2.0970   25.1170 C   0  0  0  0  0  0  0  0  0  0  0  0
   11.5750   -1.9990   23.7390 C   0  0  1  0  0  0  0  0  0  0  0  0
   10.5860   -2.9060   23.4040 O   0  0  0  0  0  0  0  0  0  0  0  0
    9.3370   -2.6690   22.5540 C   0  0  1  0  0  0  0  0  0  0  0  0
    8.1260   -3.6180   22.6030 C   0  0  1  0  0  0  0  0  0  0  0  0
    7.7750   -4.3910   23.6980 C   0  0  0  0  0  0  0  0  0  0  0  0
    7.0130   -5.6990   23.4250 C   0  0  0  0  0  0  0  0  0  0  0  0
    6.1870   -5.5290   22.1570 C   0  0  0  0  0  0  0  0  0  0  0  0
    5.8010   -4.0990   21.9220 C   0  0  2  0  0  0  0  0  0  0  0  0
    5.9240   -3.5230   20.6500 C   0  0  0  0  0  0  0  0  0  0  0  0
    6.6460   -2.2640   20.5870 O   0  0  0  0  0  0  0  0  0  0  0  0
    6.8640   -3.0130   21.9830 C   0  0  0  0  0  0  0  0  0  0  0  0
    9.1060   -1.3060   23.0230 C   0  0  0  0  0  0  0  0  0  0  0  0
   10.4920   -1.4120   23.3980 C   0  0  0  0  0  0  0  0  0  0  0  0
   11.4540   -0.6220   23.2920 C   0  0  0  0  0  0  0  0  0  0  0  0
   12.7820   -0.4780   23.5440 C   0  0  0  0  0  0  0  0  0  0  0  0
   13.3480   -1.6720   24.2200 C   0  0  0  0  0  0  0  0  0  0  0  0
   12.4210   -2.6720   24.4600 C   0  0  0  0  0  0  0  0  0  0  0  0
   12.8920   -3.6190   25.0500 O   0  0  0  0  0  0  0  0  0  0  0  0
   11.0140   -2.5730   24.0500 C   0  0  0  0  0  0  0  0  0  0  0  0
   10.2800   -3.6440   24.3520 O   0  0  0  0  0  0  0  0  0  0  0  0
  1  2  1  0
  3  2  1  1
  3  4  1  0
  4  5  1  0
  5  6  1  0
  6  7  1  1
  7  8  1  0
  8  9  1  0
  9 10  1  0
 10 11  1  6
 11 12  2  0
  6 13  1  0
 10 13  1  0
  5 14  1  1
 14 15  1  0
  3 16  1  0
 15 16  2  0
 16 17  1  0
 17 18  2  0
 18 19  1  0
 19 20  1  0
 15 21  1  0
 19 21  2  0
 21 22  1  0
M  END
