MAK-UNK-de9577cf-10
     RDKit          3D

 37 40  0  0  0  0  0  0  0  0999 V2000
    8.6570    4.1720   22.2700 N   0  0  0  0  0  0  0  0  0  0  0  0
    9.9070    4.5110   23.3280 S   0  0  0  0  0  0  0  0  0  0  0  0
   10.7040    5.5600   22.7140 O   0  0  0  0  0  0  0  0  0  0  0  0
    9.2420    4.8040   24.5760 O   0  0  0  0  0  0  0  0  0  0  0  0
   10.8420    2.9840   23.3790 C   0  0  0  0  0  0  0  0  0  0  0  0
   10.0290    1.9610   24.1680 C   0  0  0  0  0  0  0  0  0  0  0  0
   10.7650    0.5900   24.3720 C   0  0  0  0  0  0  0  0  0  0  0  0
   12.0640    0.3170   23.8610 C   0  0  0  0  0  0  0  0  0  0  0  0
   12.7560   -0.9730   24.1010 C   0  0  0  0  0  0  0  0  0  0  0  0
   12.8430   -1.7550   23.2100 O   0  0  0  0  0  0  0  0  0  0  0  0
   13.3370   -1.2640   25.5000 O   0  0  0  0  0  0  0  0  0  0  0  0
   14.5400   -2.2150   25.7820 C   0  0  0  0  0  0  0  0  0  0  0  0
   16.0630   -1.6110   26.2420 N   0  0  0  0  0  0  0  0  0  0  0  0
   17.6480   -1.8650   25.7110 C   0  0  0  0  0  0  0  0  0  0  0  0
   18.8360   -1.1980   25.1540 C   0  0  0  0  0  0  0  0  0  0  0  0
   19.3070   -1.4410   23.7440 C   0  0  0  0  0  0  0  0  0  0  0  0
   20.4770   -0.7370   23.6240 C   0  0  0  0  0  0  0  0  0  0  0  0
   21.2440   -0.7560   22.4270 C   0  0  0  0  0  0  0  0  0  0  0  0
   22.5600   -0.2650   22.4730 C   0  0  0  0  0  0  0  0  0  0  0  0
   23.3410   -0.2610   21.3150 C   0  0  0  0  0  0  0  0  0  0  0  0
   22.8300   -0.7380   20.1200 C   0  0  0  0  0  0  0  0  0  0  0  0
   21.5370   -1.2350   20.0390 C   0  0  0  0  0  0  0  0  0  0  0  0
   20.7740   -1.2390   21.2110 C   0  0  0  0  0  0  0  0  0  0  0  0
   19.5430   -1.7420   21.1180 F   0  0  0  0  0  0  0  0  0  0  0  0
   20.7980   -0.0520   24.7760 N   0  0  0  0  0  0  0  0  0  0  0  0
   22.1680    0.9450   25.0030 S   0  0  0  0  0  0  0  0  0  0  0  0
   22.9840    0.8040   23.8260 O   0  0  0  0  0  0  0  0  0  0  0  0
   21.6570    2.2310   25.3380 O   0  0  0  0  0  0  0  0  0  0  0  0
   23.0710    0.2950   26.3600 C   0  0  0  0  0  0  0  0  0  0  0  0
   24.4090    0.6400   26.6930 C   0  0  0  0  0  0  0  0  0  0  0  0
   25.2870    0.4620   27.4270 C   0  0  0  0  0  0  0  0  0  0  0  0
   24.8630   -0.4740   28.3710 C   0  0  0  0  0  0  0  0  0  0  0  0
   23.4890   -1.0510   28.3050 N   0  0  0  0  0  0  0  0  0  0  0  0
   22.6320   -0.6360   27.2860 C   0  0  0  0  0  0  0  0  0  0  0  0
   19.7330   -0.3460   25.8120 C   0  0  0  0  0  0  0  0  0  0  0  0
   12.6490    1.3910   23.0910 C   0  0  0  0  0  0  0  0  0  0  0  0
   12.0700    2.6760   22.8680 C   0  0  0  0  0  0  0  0  0  0  0  0
  2  1  1  0
  2  3  2  0
  2  4  2  0
  2  5  1  0
  5  6  2  0
  6  7  1  0
  7  8  2  0
  8  9  1  0
  9 10  2  0
  9 11  1  0
 11 12  1  0
 12 13  1  0
 13 14  1  0
 14 15  1  0
 15 16  1  0
 16 17  2  0
 17 18  1  0
 18 19  2  0
 19 20  1  0
 20 21  2  0
 21 22  1  0
 18 23  1  0
 22 23  2  0
 23 24  1  0
 17 25  1  0
 25 26  1  0
 26 27  2  0
 26 28  2  0
 26 29  1  0
 29 30  2  0
 30 31  1  0
 31 32  2  0
 32 33  1  0
 29 34  1  0
 33 34  2  0
 15 35  2  0
 25 35  1  0
  8 36  1  0
  5 37  1  0
 36 37  2  0
M  END
