MAK-UNK-9e4a73aa-35
     RDKit          3D

 27 30  0  0  0  0  0  0  0  0999 V2000
   10.1050   -1.2290   21.7210 C   0  0  0  0  0  0  0  0  0  0  0  0
    9.2400   -2.4560   21.8030 C   0  0  0  0  0  0  0  0  0  0  0  0
    9.7420   -3.5450   22.7370 C   0  0  0  0  0  0  0  0  0  0  0  0
   10.8750   -3.3810   23.4400 F   0  0  0  0  0  0  0  0  0  0  0  0
    8.9220   -4.8140   22.8380 C   0  0  0  0  0  0  0  0  0  0  0  0
    9.3130   -6.1760   23.7570 Cl  0  0  0  0  0  0  0  0  0  0  0  0
    7.7690   -4.9880   22.1860 C   0  0  0  0  0  0  0  0  0  0  0  0
    7.2110   -3.9560   21.2940 C   0  0  0  0  0  0  0  0  0  0  0  0
    8.0150   -2.6560   21.0860 C   0  0  0  0  0  0  0  0  0  0  0  0
    7.2670   -1.7450   20.0750 C   0  0  0  0  0  0  0  0  0  0  0  0
    7.7650   -1.0440   19.2110 O   0  0  0  0  0  0  0  0  0  0  0  0
    5.9740   -1.9110   20.3790 N   0  0  0  0  0  0  0  0  0  0  0  0
    6.4700   -1.8600   21.6890 C   0  0  0  0  0  0  0  0  0  0  0  0
    7.3700   -0.8010   21.8560 C   0  0  0  0  0  0  0  0  0  0  0  0
    7.9970   -0.6130   23.0440 C   0  0  0  0  0  0  0  0  0  0  0  0
    7.6550   -1.5760   24.1040 C   0  0  0  0  0  0  0  0  0  0  0  0
    6.7830   -2.5780   23.9330 N   0  0  0  0  0  0  0  0  0  0  0  0
    6.2150   -2.7000   22.7420 C   0  0  0  0  0  0  0  0  0  0  0  0
    5.5340   -3.1530   19.9120 C   0  0  0  0  0  0  0  0  0  0  0  0
    4.8720   -3.3520   18.9120 O   0  0  0  0  0  0  0  0  0  0  0  0
    5.9830   -4.2050   20.7000 N   0  0  0  0  0  0  0  0  0  0  0  0
    5.1440   -4.6730   21.7730 C   0  0  0  0  0  0  0  0  0  0  0  0
    4.3610   -3.7780   22.5280 C   0  0  0  0  0  0  0  0  0  0  0  0
    3.5560   -4.2270   23.5740 C   0  0  0  0  0  0  0  0  0  0  0  0
    3.5170   -5.5780   23.8870 C   0  0  0  0  0  0  0  0  0  0  0  0
    4.2800   -6.4780   23.1590 C   0  0  0  0  0  0  0  0  0  0  0  0
    5.0910   -6.0370   22.1070 C   0  0  0  0  0  0  0  0  0  0  0  0
  1  2  1  0
  2  3  2  0
  3  4  1  0
  3  5  1  0
  5  6  1  0
  5  7  2  0
  7  8  1  0
  2  9  1  0
  8  9  2  0
  9 10  1  0
 10 11  2  0
 10 12  1  0
 12 13  1  0
 13 14  2  0
 14 15  1  0
 15 16  2  0
 16 17  1  0
 13 18  1  0
 17 18  2  0
 12 19  1  0
 19 20  2  0
  8 21  1  0
 19 21  1  0
 21 22  1  0
 22 23  2  0
 23 24  1  0
 24 25  2  0
 25 26  1  0
 22 27  1  0
 26 27  2  0
M  END
