MAK-UNK-de8f6d00-4
     RDKit          3D

 34 38  0  0  0  0  0  0  0  0999 V2000
   10.0070   -0.1290   27.0650 O   0  0  0  0  0  0  0  0  0  0  0  0
    9.9820   -0.2990   25.8490 C   0  0  0  0  0  0  0  0  0  0  0  0
    8.7360   -0.5350   25.0970 N   0  0  0  0  0  0  0  0  0  0  0  0
    7.6360   -0.9730   25.9890 C   0  0  0  0  0  0  0  0  0  0  0  0
    7.5840   -0.2990   27.1630 C   0  0  0  0  0  0  0  0  0  0  0  0
    6.5780   -0.5340   28.2760 C   0  0  0  0  0  0  0  0  0  0  0  0
    5.5290   -1.6270   28.0510 C   0  0  0  0  0  0  0  0  0  0  0  0
    5.6260   -2.3570   26.7100 C   0  0  0  0  0  0  0  0  0  0  0  0
    6.7220   -1.9910   25.6790 C   0  0  0  0  0  0  0  0  0  0  0  0
   11.1140   -0.2630   25.0020 N   0  0  0  0  0  0  0  0  0  0  0  0
   12.0520   -1.2110   24.5690 C   0  0  0  0  0  0  0  0  0  0  0  0
   12.7910   -2.1360   25.2140 C   0  0  0  0  0  0  0  0  0  0  0  0
   13.7270   -3.0930   24.7310 C   0  0  0  0  0  0  0  0  0  0  0  0
   13.9000   -3.0300   23.3010 C   0  0  0  0  0  0  0  0  0  0  0  0
   13.2670   -2.1870   22.5430 N   0  0  0  0  0  0  0  0  0  0  0  0
   12.3640   -1.3050   23.2150 C   0  0  0  0  0  0  0  0  0  0  0  0
   11.7070   -0.4420   22.3870 N   0  0  0  0  0  0  0  0  0  0  0  0
   10.7240   -1.2280   21.9560 C   0  0  0  0  0  0  0  0  0  0  0  0
    9.7140   -1.2710   22.8540 C   0  0  0  0  0  0  0  0  0  0  0  0
    9.1390   -0.0530   22.7800 N   0  0  0  0  0  0  0  0  0  0  0  0
    8.5170    0.2250   21.5790 C   0  0  0  0  0  0  0  0  0  0  0  0
    8.5980    1.3660   21.0690 O   0  0  0  0  0  0  0  0  0  0  0  0
    7.8450   -0.8330   21.0170 C   0  0  0  0  0  0  0  0  0  0  0  0
    6.9450   -0.2430   20.0120 C   0  0  0  0  0  0  0  0  0  0  0  0
    7.2240   -0.4600   18.5810 C   0  0  0  0  0  0  0  0  0  0  0  0
    6.2860    0.1890   17.8820 N   0  0  0  0  0  0  0  0  0  0  0  0
    5.4080    0.8110   18.7720 C   0  0  0  0  0  0  0  0  0  0  0  0
    4.3710    1.5340   18.3780 N   0  0  0  0  0  0  0  0  0  0  0  0
    3.6290    2.0520   19.3700 C   0  0  0  0  0  0  0  0  0  0  0  0
    3.8540    1.9000   20.8770 C   0  0  0  0  0  0  0  0  0  0  0  0
    5.0730    1.0590   21.1870 C   0  0  0  0  0  0  0  0  0  0  0  0
    5.7990    0.5480   20.1030 C   0  0  0  0  0  0  0  0  0  0  0  0
    9.9260    0.9780   23.3870 C   0  0  0  0  0  0  0  0  0  0  0  0
   11.4250    0.7470   23.2190 C   0  0  0  0  0  0  0  0  0  0  0  0
  1  2  2  0
  2  3  1  0
  3  4  1  0
  4  5  2  0
  5  6  1  0
  6  7  2  0
  7  8  1  0
  4  9  1  0
  8  9  2  0
  2 10  1  0
 10 11  1  0
 11 12  2  0
 12 13  1  0
 13 14  2  0
 14 15  1  0
 11 16  1  0
 15 16  2  0
 16 17  1  0
 17 18  1  0
 18 19  1  0
 19 20  1  0
 20 21  1  0
 21 22  2  0
 21 23  1  0
 23 24  1  0
 24 25  2  0
 25 26  1  0
 26 27  1  0
 27 28  1  0
 28 29  2  0
 29 30  1  0
 30 31  2  0
 24 32  1  0
 27 32  2  0
 31 32  1  0
 20 33  1  0
 17 34  1  0
 33 34  1  0
M  END
