MAK-UNK-902cc841-12
     RDKit          3D

 29 31  0  0  0  0  0  0  0  0999 V2000
    1.7530   -7.9150   22.8190 C   0  0  0  0  0  0  0  0  0  0  0  0
    2.7690   -7.3620   23.6500 O   0  0  0  0  0  0  0  0  0  0  0  0
    3.1690   -6.0920   23.3430 C   0  0  0  0  0  0  0  0  0  0  0  0
    2.3430   -5.2710   23.0010 O   0  0  0  0  0  0  0  0  0  0  0  0
    4.5060   -5.7100   23.4180 C   0  0  0  0  0  0  0  0  0  0  0  0
    5.4900   -6.3100   22.6090 C   0  0  0  0  0  0  0  0  0  0  0  0
    6.8070   -5.9440   22.6970 C   0  0  0  0  0  0  0  0  0  0  0  0
    7.2380   -4.9670   23.5700 C   0  0  0  0  0  0  0  0  0  0  0  0
    6.1890   -4.2950   24.4410 C   0  0  0  0  0  0  0  0  0  0  0  0
    6.6570   -3.3160   25.2990 N   0  0  0  0  0  0  0  0  0  0  0  0
    7.4390   -1.8750   24.8200 S   0  0  0  0  0  0  0  0  0  0  0  0
    7.6900   -1.3820   26.1370 O   0  0  0  0  0  0  0  0  0  0  0  0
    6.5150   -1.1920   23.9480 O   0  0  0  0  0  0  0  0  0  0  0  0
    8.9860   -2.3810   23.8130 C   0  0  2  0  0  0  0  0  0  0  0  0
   10.3000   -1.5840   23.7240 C   0  0  0  0  0  0  0  0  0  0  0  0
   10.6070   -0.4570   22.7770 C   0  0  0  0  0  0  0  0  0  0  0  0
   11.9930    0.0970   22.9200 C   0  0  0  0  0  0  0  0  0  0  0  0
   12.6910   -0.5610   23.9000 C   0  0  0  0  0  0  0  0  0  0  0  0
   11.7450   -1.8020   24.6410 S   0  0  0  0  0  0  0  0  0  0  0  0
    8.5850   -2.6540   22.4410 N   0  0  0  0  0  0  0  0  0  0  0  0
    7.5370   -3.5450   22.3110 C   0  0  0  0  0  0  0  0  0  0  0  0
    6.1390   -3.0320   22.0380 C   0  0  0  0  0  0  0  0  0  0  0  0
    6.1390   -2.1460   20.9250 N   0  0  0  0  0  0  0  0  0  0  0  0
    5.8070   -2.6980   19.7180 C   0  0  0  0  0  0  0  0  0  0  0  0
    6.0750   -1.8420   18.5160 C   0  0  0  0  0  0  0  0  0  0  0  0
    5.3470   -3.8480   19.6090 O   0  0  0  0  0  0  0  0  0  0  0  0
    7.0910   -1.0270   21.0510 C   0  0  0  0  0  0  0  0  0  0  0  0
    8.4580   -1.4190   21.6490 C   0  0  0  0  0  0  0  0  0  0  0  0
    4.8550   -4.6930   24.3390 C   0  0  0  0  0  0  0  0  0  0  0  0
  1  2  1  0
  2  3  1  0
  3  4  2  0
  3  5  1  0
  5  6  2  0
  6  7  1  0
  7  8  2  0
  8  9  1  0
  9 10  1  0
 11 10  1  0
 11 12  2  0
 11 13  2  0
 14 11  1  6
 14 15  1  0
 15 16  2  0
 16 17  1  0
 17 18  2  0
 15 19  1  0
 18 19  1  0
 14 20  1  0
 20 21  1  0
 21 22  1  0
 22 23  1  0
 23 24  1  0
 24 25  1  0
 24 26  2  0
 23 27  1  0
 20 28  1  0
 27 28  1  0
  5 29  1  0
  9 29  2  0
M  END
