MAK-UNK-9a6be56d-2
     RDKit          3D

 38 42  0  0  0  0  0  0  0  0999 V2000
    6.5560    0.1550   31.0170 C   0  0  0  0  0  0  0  0  0  0  0  0
    6.5180   -0.8950   30.0150 N   0  0  0  0  0  0  0  0  0  0  0  0
    7.7880   -0.9650   29.2880 C   0  0  0  0  0  0  0  0  0  0  0  0
    7.7780   -1.8010   28.1660 C   0  0  0  0  0  0  0  0  0  0  0  0
    7.6150   -1.3790   26.8660 C   0  0  0  0  0  0  0  0  0  0  0  0
    7.6300   -2.2810   25.9100 C   0  0  0  0  0  0  0  0  0  0  0  0
    7.4700   -2.0010   24.4750 C   0  0  0  0  0  0  0  0  0  0  0  0
    6.4150   -2.4950   23.6930 C   0  0  0  0  0  0  0  0  0  0  0  0
    6.2280   -2.2530   22.3360 C   0  0  0  0  0  0  0  0  0  0  0  0
    7.1260   -1.4590   21.6220 C   0  0  0  0  0  0  0  0  0  0  0  0
    8.2210   -0.9090   22.3050 C   0  0  0  0  0  0  0  0  0  0  0  0
    8.4490   -1.1250   23.6750 C   0  0  0  0  0  0  0  0  0  0  0  0
    9.5050   -0.6160   24.4260 C   0  0  0  0  0  0  0  0  0  0  0  0
   10.6470   -0.3150   23.7150 N   0  0  0  0  0  0  0  0  0  0  0  0
   11.0780   -1.2150   22.7940 C   0  0  0  0  0  0  0  0  0  0  0  0
   12.4540   -1.2660   22.4660 C   0  0  0  0  0  0  0  0  0  0  0  0
   13.1710   -0.1150   22.8780 C   0  0  0  0  0  0  0  0  0  0  0  0
   12.4660    1.0750   23.0730 C   0  0  0  0  0  0  0  0  0  0  0  0
   12.9640    2.3180   22.8630 C   0  0  0  0  0  0  0  0  0  0  0  0
   12.2360    3.5480   23.0420 C   0  0  0  0  0  0  0  0  0  0  0  0
   10.9090    3.4490   23.4810 C   0  0  0  0  0  0  0  0  0  0  0  0
    9.9610    4.9460   23.7160 S   0  0  0  0  0  0  0  0  0  0  0  0
   11.1710    6.1420   23.5580 N   0  0  0  0  0  0  0  0  0  0  0  0
    9.3540    5.0690   25.0320 O   0  0  0  0  0  0  0  0  0  0  0  0
    9.0750    5.1160   22.5960 O   0  0  0  0  0  0  0  0  0  0  0  0
   10.3670    2.1540   23.7190 C   0  0  0  0  0  0  0  0  0  0  0  0
   11.1740    1.0150   23.5000 C   0  0  0  0  0  0  0  0  0  0  0  0
    7.8290   -3.4600   26.6390 N   0  0  0  0  0  0  0  0  0  0  0  0
    7.9680   -5.0560   26.0650 S   0  0  0  0  0  0  0  0  0  0  0  0
    9.2700   -5.1350   25.4530 O   0  0  0  0  0  0  0  0  0  0  0  0
    7.6120   -5.8590   27.2060 O   0  0  0  0  0  0  0  0  0  0  0  0
    6.7570   -5.2680   24.8110 C   0  0  0  0  0  0  0  0  0  0  0  0
    7.1380   -5.3220   23.4630 C   0  0  0  0  0  0  0  0  0  0  0  0
    6.0150   -5.5280   22.4490 C   0  0  0  0  0  0  0  0  0  0  0  0
    4.7220   -5.6360   22.9880 C   0  0  0  0  0  0  0  0  0  0  0  0
    4.4200   -5.5700   24.3060 N   0  0  0  0  0  0  0  0  0  0  0  0
    5.4310   -5.3900   25.1840 C   0  0  0  0  0  0  0  0  0  0  0  0
    7.9160   -3.1740   28.0070 C   0  0  0  0  0  0  0  0  0  0  0  0
  1  2  1  0
  2  3  1  0
  3  4  1  0
  4  5  1  0
  5  6  2  0
  6  7  1  0
  7  8  2  0
  8  9  1  0
  9 10  2  0
 10 11  1  0
  7 12  1  0
 11 12  2  0
 12 13  1  0
 13 14  1  0
 14 15  1  0
 15 16  1  0
 16 17  1  0
 17 18  1  0
 18 19  2  0
 19 20  1  0
 20 21  2  0
 21 22  1  0
 22 23  1  0
 22 24  2  0
 22 25  2  0
 21 26  1  0
 14 27  1  0
 18 27  1  0
 26 27  2  0
  6 28  1  0
 28 29  1  0
 29 30  2  0
 29 31  2  0
 29 32  1  0
 32 33  2  0
 33 34  1  0
 34 35  2  0
 35 36  1  0
 32 37  1  0
 36 37  2  0
  4 38  2  0
 28 38  1  0
M  END
