MAK-UNK-129dcd6f-14
     RDKit          3D

 26 28  0  0  0  0  0  0  0  0999 V2000
    2.8920    2.5760   19.4160 C   0  0  0  0  0  0  0  0  0  0  0  0
    2.6870    2.7550   20.8740 C   0  0  0  0  0  0  0  0  0  0  0  0
    1.6900    3.3550   21.2880 O   0  0  0  0  0  0  0  0  0  0  0  0
    3.6410    2.2190   21.7380 N   0  0  0  0  0  0  0  0  0  0  0  0
    4.9690    2.8040   22.0280 C   0  0  0  0  0  0  0  0  0  0  0  0
    5.0190    3.7300   23.0770 C   0  0  0  0  0  0  0  0  0  0  0  0
    6.3170    4.3280   23.3970 N   0  0  0  0  0  0  0  0  0  0  0  0
    7.4480    3.9660   22.6560 C   0  0  0  0  0  0  0  0  0  0  0  0
    7.3490    3.0390   21.6200 C   0  0  0  0  0  0  0  0  0  0  0  0
    6.1200    2.4510   21.2990 C   0  0  0  0  0  0  0  0  0  0  0  0
    6.0050    1.4750   20.2130 C   0  0  0  0  0  0  0  0  0  0  0  0
    5.3290    2.0120   19.1860 N   0  0  0  0  0  0  0  0  0  0  0  0
    5.1300    1.2620   18.1350 C   0  0  0  0  0  0  0  0  0  0  0  0
    5.5680   -0.1580   17.9670 C   0  0  0  0  0  0  0  0  0  0  0  0
    6.2520   -0.7000   19.0150 C   0  0  0  0  0  0  0  0  0  0  0  0
    6.4930    0.1810   20.2200 C   0  0  0  0  0  0  0  0  0  0  0  0
    7.2040   -0.3070   21.3230 N   0  0  0  0  0  0  0  0  0  0  0  0
    8.4660    0.1400   21.5990 C   0  0  0  0  0  0  0  0  0  0  0  0
    8.9350    1.2000   21.1640 O   0  0  0  0  0  0  0  0  0  0  0  0
    9.1730   -0.7220   22.3950 N   0  0  0  0  0  0  0  0  0  0  0  0
   10.5060   -0.4070   22.5740 C   0  0  0  0  0  0  0  0  0  0  0  0
   10.8360    0.8860   22.8950 C   0  0  0  0  0  0  0  0  0  0  0  0
   12.1600    1.2170   23.0490 C   0  0  0  0  0  0  0  0  0  0  0  0
   13.1400    0.2720   22.8900 C   0  0  0  0  0  0  0  0  0  0  0  0
   12.8100   -1.0290   22.5740 C   0  0  0  0  0  0  0  0  0  0  0  0
   11.4900   -1.3960   22.4080 C   0  0  0  0  0  0  0  0  0  0  0  0
  1  2  1  0
  2  3  2  0
  2  4  1  0
  4  5  1  0
  5  6  2  0
  6  7  1  0
  7  8  2  0
  8  9  1  0
  5 10  1  0
  9 10  2  0
 10 11  1  0
 11 12  2  0
 12 13  1  0
 13 14  2  0
 14 15  1  0
 11 16  1  0
 15 16  2  0
 16 17  1  0
 17 18  1  0
 18 19  2  0
 18 20  1  0
 20 21  1  0
 21 22  2  0
 22 23  1  0
 23 24  2  0
 24 25  1  0
 21 26  1  0
 25 26  2  0
M  END
