MAK-UNK-a7992eb3-22
     RDKit          3D

 21 23  0  0  0  0  0  0  0  0999 V2000
    4.5350    2.8100   27.0460 O   0  0  0  0  0  0  0  0  0  0  0  0
    4.5910    1.9180   25.9060 S   0  0  0  0  0  0  0  0  0  0  0  0
    4.5130    2.3950   24.5430 O   0  0  0  0  0  0  0  0  0  0  0  0
    3.5580    0.4970   26.1620 C   0  0  0  0  0  0  0  0  0  0  0  0
    4.8820   -0.2510   26.2960 C   0  0  0  0  0  0  0  0  0  0  0  0
    4.9780   -1.3790   25.3870 O   0  0  0  0  0  0  0  0  0  0  0  0
    5.3930   -2.5900   25.8960 C   0  0  0  0  0  0  0  0  0  0  0  0
    5.8320   -3.6050   25.0340 C   0  0  2  0  0  0  0  0  0  0  0  0
    6.6680   -3.2360   23.9750 C   0  0  0  0  0  0  0  0  0  0  0  0
    5.9570   -2.9350   22.7300 N   0  0  0  0  0  0  0  0  0  0  0  0
    6.7850   -3.1460   21.6810 C   0  0  0  0  0  0  0  0  0  0  0  0
    6.7600   -4.4420   21.8670 C   0  0  0  0  0  0  0  0  0  0  0  0
    5.8070   -5.1430   21.1790 C   0  0  0  0  0  0  0  0  0  0  0  0
    5.6850   -6.5750   21.4160 C   0  0  0  0  0  0  0  0  0  0  0  0
    6.5790   -7.1140   22.3290 C   0  0  0  0  0  0  0  0  0  0  0  0
    7.5160   -6.3600   22.9650 C   0  0  0  0  0  0  0  0  0  0  0  0
    7.6410   -5.0240   22.7670 C   0  0  0  0  0  0  0  0  0  0  0  0
    4.6700   -3.6620   22.6280 C   0  0  0  0  0  0  0  0  0  0  0  0
    4.6780   -4.7500   23.5000 C   0  0  0  0  0  0  0  0  0  0  0  0
    4.6570   -4.3620   24.6440 O   0  0  0  0  0  0  0  0  0  0  0  0
    5.8770    0.6880   26.1020 C   0  0  0  0  0  0  0  0  0  0  0  0
  1  2  2  0
  2  3  2  0
  2  4  1  0
  4  5  1  0
  5  6  1  0
  6  7  1  0
  8  7  1  6
  8  9  1  0
  9 10  1  0
 10 11  1  0
 11 12  1  0
 12 13  2  0
 13 14  1  0
 14 15  2  0
 15 16  1  0
 12 17  1  0
 16 17  2  0
 10 18  1  0
 18 19  1  0
  8 20  1  0
 19 20  1  0
  2 21  1  0
  5 21  1  0
M  END
