MAK-UNK-f2409524-33
     RDKit          3D

 27 28  0  0  0  0  0  0  0  0999 V2000
    1.7620    4.4600   15.1050 C   0  0  0  0  0  0  0  0  0  0  0  0
    1.0650    4.8340   16.3650 C   0  0  0  0  0  0  0  0  0  0  0  0
   -0.1230    5.1670   16.3860 O   0  0  0  0  0  0  0  0  0  0  0  0
    1.9460    4.7600   17.5360 N   0  0  0  0  0  0  0  0  0  0  0  0
    1.4500    3.9640   18.5760 C   0  0  0  0  0  0  0  0  0  0  0  0
    0.0020    4.1780   19.0700 C   0  0  0  0  0  0  0  0  0  0  0  0
   -0.5450    3.3450   20.1510 N   0  0  0  0  0  0  0  0  0  0  0  0
    0.3600    2.3200   20.7190 C   0  0  0  0  0  0  0  0  0  0  0  0
    1.6520    2.2020   20.2170 C   0  0  0  0  0  0  0  0  0  0  0  0
    2.2150    2.9500   19.2110 C   0  0  0  0  0  0  0  0  0  0  0  0
    3.6650    2.5290   18.9300 C   0  0  0  0  0  0  0  0  0  0  0  0
    4.3060    2.4800   20.1520 N   0  0  0  0  0  0  0  0  0  0  0  0
    5.2660    1.4900   20.2300 C   0  0  0  0  0  0  0  0  0  0  0  0
    6.0880    1.2130   19.3540 O   0  0  0  0  0  0  0  0  0  0  0  0
    5.2040    0.8130   21.4480 C   0  0  1  0  0  0  0  0  0  0  0  0
    6.4080    0.1630   21.5620 N   0  0  0  0  0  0  0  0  0  0  0  0
    5.0490    1.8050   22.4850 C   0  0  0  0  0  0  0  0  0  0  0  0
    3.8050    2.5810   22.4270 N   0  0  0  0  0  0  0  0  0  0  0  0
    2.8490    2.4970   23.4600 C   0  0  0  0  0  0  0  0  0  0  0  0
    2.9390    1.5710   24.5580 O   0  0  0  0  0  0  0  0  0  0  0  0
    1.8230    3.4160   23.2810 N   0  0  0  0  0  0  0  0  0  0  0  0
    0.5870    3.3900   24.0780 C   0  0  0  0  0  0  0  0  0  0  0  0
    0.4820    4.5600   24.8650 C   0  0  0  0  0  0  0  0  0  0  0  0
   -0.7430    5.2530   24.7590 C   0  0  0  0  0  0  0  0  0  0  0  0
   -1.8590    4.4300   24.6000 C   0  0  0  0  0  0  0  0  0  0  0  0
   -1.7770    3.3680   23.7220 C   0  0  0  0  0  0  0  0  0  0  0  0
   -0.5050    3.0710   23.2480 C   0  0  0  0  0  0  0  0  0  0  0  0
  1  2  1  0
  2  3  2  0
  2  4  1  0
  4  5  1  0
  5  6  2  0
  6  7  1  0
  7  8  2  0
  8  9  1  0
  5 10  1  0
  9 10  2  0
 10 11  1  0
 11 12  1  0
 12 13  1  0
 13 14  2  0
 13 15  1  0
 15 16  1  1
 15 17  1  0
 17 18  1  0
 18 19  1  0
 19 20  2  0
 19 21  1  0
 21 22  1  0
 22 23  1  0
 23 24  1  0
 24 25  1  0
 25 26  1  0
 22 27  1  0
 26 27  1  0
M  END
