MAK-UNK-9a6be56d-32
     RDKit          3D

 38 42  0  0  0  0  0  0  0  0999 V2000
   10.5490   -0.4360   21.9320 C   0  0  0  0  0  0  0  0  0  0  0  0
   11.1830    0.5410   22.9680 C   0  0  1  0  0  0  0  0  0  0  0  0
   10.0500    1.4330   23.2120 N   0  0  0  0  0  0  0  0  0  0  0  0
    8.7520    1.2760   22.6080 C   0  0  0  0  0  0  0  0  0  0  0  0
    7.8550    0.6240   23.4650 C   0  0  0  0  0  0  0  0  0  0  0  0
    7.1010    1.2980   24.3970 C   0  0  0  0  0  0  0  0  0  0  0  0
    6.3170    0.4520   25.0950 C   0  0  0  0  0  0  0  0  0  0  0  0
    5.4750    0.9530   26.0910 C   0  0  0  0  0  0  0  0  0  0  0  0
    5.6770    0.6110   27.4350 C   0  0  0  0  0  0  0  0  0  0  0  0
    4.9260    1.0300   28.5340 C   0  0  0  0  0  0  0  0  0  0  0  0
    3.8600    1.8830   28.2710 C   0  0  0  0  0  0  0  0  0  0  0  0
    3.5590    2.2920   26.9870 C   0  0  0  0  0  0  0  0  0  0  0  0
    4.3990    1.8160   25.8230 C   0  0  0  0  0  0  0  0  0  0  0  0
    4.1030    2.2210   24.5770 F   0  0  0  0  0  0  0  0  0  0  0  0
    6.5430   -0.8440   24.6260 N   0  0  0  0  0  0  0  0  0  0  0  0
    5.7820   -2.2650   25.2020 S   0  0  0  0  0  0  0  0  0  0  0  0
    6.6430   -2.7600   26.2490 O   0  0  0  0  0  0  0  0  0  0  0  0
    4.3930   -1.9940   25.4890 O   0  0  0  0  0  0  0  0  0  0  0  0
    5.8420   -3.4410   23.9030 C   0  0  0  0  0  0  0  0  0  0  0  0
    6.9930   -4.4220   23.7140 C   0  0  0  0  0  0  0  0  0  0  0  0
    6.8880   -5.3830   22.5540 C   0  0  0  0  0  0  0  0  0  0  0  0
    5.7630   -5.3140   21.7310 C   0  0  0  0  0  0  0  0  0  0  0  0
    4.7430   -4.4280   21.9040 N   0  0  0  0  0  0  0  0  0  0  0  0
    4.8010   -3.5140   22.9820 C   0  0  0  0  0  0  0  0  0  0  0  0
    7.5030   -0.7450   23.6100 C   0  0  0  0  0  0  0  0  0  0  0  0
   11.5650   -0.5950   23.8450 C   0  0  0  0  0  0  0  0  0  0  0  0
   12.1630   -1.8470   23.1230 C   0  0  0  0  0  0  0  0  0  0  0  0
   13.0120   -1.1840   22.3420 C   0  0  0  0  0  0  0  0  0  0  0  0
   12.3330    0.0990   22.6000 C   0  0  0  0  0  0  0  0  0  0  0  0
   10.9550    0.2080   22.9650 C   0  0  0  0  0  0  0  0  0  0  0  0
   10.2970    1.5040   23.2180 C   0  0  0  0  0  0  0  0  0  0  0  0
   10.9640    2.7650   23.1430 C   0  0  0  0  0  0  0  0  0  0  0  0
   10.1960    4.3610   23.4930 S   0  0  0  0  0  0  0  0  0  0  0  0
   11.1930    5.4900   22.7280 N   0  0  0  0  0  0  0  0  0  0  0  0
   10.2740    4.6220   24.9180 O   0  0  0  0  0  0  0  0  0  0  0  0
    8.9380    4.4710   22.7990 O   0  0  0  0  0  0  0  0  0  0  0  0
   12.2520    2.6230   22.7890 C   0  0  0  0  0  0  0  0  0  0  0  0
   12.6330    1.3040   22.5980 C   0  0  0  0  0  0  0  0  0  0  0  0
  2  1  1  6
  2  3  1  0
  3  4  1  0
  4  5  1  0
  5  6  1  0
  6  7  2  0
  7  8  1  0
  8  9  2  0
  9 10  1  0
 10 11  2  0
 11 12  1  0
  8 13  1  0
 12 13  2  0
 13 14  1  0
  7 15  1  0
 15 16  1  0
 16 17  2  0
 16 18  2  0
 16 19  1  0
 19 20  2  0
 20 21  1  0
 21 22  2  0
 22 23  1  0
 19 24  1  0
 23 24  2  0
  5 25  2  0
 15 25  1  0
  2 26  1  0
 26 27  1  0
 27 28  1  0
 28 29  1  0
 29 30  2  0
 30 31  1  0
 31 32  2  0
 32 33  1  0
 33 34  1  0
 33 35  2  0
 33 36  2  0
 32 37  1  0
  2 38  1  0
 29 38  1  0
 37 38  2  0
M  END
