MAK-UNK-0d6072ac-1
     RDKit          3D

 19 21  0  0  0  0  0  0  0  0999 V2000
    5.9080   -5.6870   21.5960 C   0  0  0  0  0  0  0  0  0  0  0  0
    6.4480   -5.9070   23.0210 C   0  0  2  0  0  0  0  0  0  0  0  0
    5.2260   -5.9210   23.9580 C   0  0  0  0  0  0  0  0  0  0  0  0
    4.9140   -4.9200   24.6220 O   0  0  0  0  0  0  0  0  0  0  0  0
    4.4730   -7.0690   24.0560 O   0  0  0  0  0  0  0  0  0  0  0  0
    7.5750   -5.2310   23.3640 C   0  0  0  0  0  0  0  0  0  0  0  0
    8.5440   -5.6540   24.2300 C   0  0  0  0  0  0  0  0  0  0  0  0
    9.6920   -5.0530   24.5940 C   0  0  0  0  0  0  0  0  0  0  0  0
   10.0700   -3.8470   24.1230 C   0  0  0  0  0  0  0  0  0  0  0  0
    9.2480   -3.1930   23.2360 C   0  0  0  0  0  0  0  0  0  0  0  0
    7.9460   -3.8410   22.7960 C   0  0  0  0  0  0  0  0  0  0  0  0
    9.8270   -1.9400   22.8770 N   0  0  0  0  0  0  0  0  0  0  0  0
   10.9860   -1.8710   23.5440 C   0  0  0  0  0  0  0  0  0  0  0  0
   11.9380   -0.8960   23.5600 C   0  0  0  0  0  0  0  0  0  0  0  0
   13.0870   -0.9980   24.3130 C   0  0  0  0  0  0  0  0  0  0  0  0
   13.2780   -2.1510   25.0980 C   0  0  0  0  0  0  0  0  0  0  0  0
   14.3470   -2.3550   25.8680 F   0  0  0  0  0  0  0  0  0  0  0  0
   12.3400   -3.1420   25.1020 C   0  0  0  0  0  0  0  0  0  0  0  0
   11.1950   -3.0150   24.3300 C   0  0  0  0  0  0  0  0  0  0  0  0
  2  1  1  6
  2  3  1  0
  3  4  2  0
  3  5  1  0
  2  6  1  0
  6  7  2  0
  7  8  1  0
  8  9  2  0
  9 10  1  0
  6 11  1  0
 10 11  2  0
 10 12  1  0
 12 13  1  0
 13 14  1  0
 14 15  2  0
 15 16  1  0
 16 17  1  0
 16 18  2  0
  9 19  1  0
 13 19  2  0
 18 19  1  0
M  END
