MAK-UNK-9a6be56d-25
     RDKit          3D

 38 42  0  0  0  0  0  0  0  0999 V2000
    9.1280   -0.6920   23.5860 C   0  0  0  0  0  0  0  0  0  0  0  0
   10.3710   -0.5210   23.0210 N   0  0  0  0  0  0  0  0  0  0  0  0
   11.2180   -1.6440   23.4160 C   0  0  0  0  0  0  0  0  0  0  0  0
   12.4540   -1.6000   22.5200 C   0  0  0  0  0  0  0  0  0  0  0  0
   13.1370   -0.4030   22.6970 C   0  0  0  0  0  0  0  0  0  0  0  0
   12.3860    0.7650   22.8380 C   0  0  0  0  0  0  0  0  0  0  0  0
   13.0170    1.9690   22.8250 C   0  0  0  0  0  0  0  0  0  0  0  0
   12.3850    3.1640   22.9740 C   0  0  0  0  0  0  0  0  0  0  0  0
   11.0230    3.2400   23.1550 C   0  0  0  0  0  0  0  0  0  0  0  0
   10.2700    4.7800   23.4000 S   0  0  2  0  0  0  0  0  0  0  0  0
   11.2360    6.1630   23.1490 N   0  0  0  0  0  0  0  0  0  0  0  0
   10.0620    4.7950   24.8410 O   0  0  0  0  0  0  0  0  0  0  0  0
    8.6470    4.9170   22.9150 C   0  0  0  0  0  0  0  0  0  0  0  0
    7.4700    5.7950   22.8710 N   0  0  0  0  0  0  0  0  0  0  0  0
    6.8970    5.8480   21.5300 C   0  0  0  0  0  0  0  0  0  0  0  0
    5.8230    6.7060   21.3030 C   0  0  0  0  0  0  0  0  0  0  0  0
    5.9710    7.9270   20.6690 C   0  0  0  0  0  0  0  0  0  0  0  0
    4.7530    8.5830   20.5600 C   0  0  0  0  0  0  0  0  0  0  0  0
    4.6100    9.8360   19.9570 C   0  0  0  0  0  0  0  0  0  0  0  0
    4.1620    9.9650   18.5930 C   0  0  0  0  0  0  0  0  0  0  0  0
    4.0170   11.2250   17.9610 C   0  0  0  0  0  0  0  0  0  0  0  0
    4.3270   12.4500   18.7050 C   0  0  0  0  0  0  0  0  0  0  0  0
    4.7280   11.9830   19.9850 C   0  0  0  0  0  0  0  0  0  0  0  0
    4.9060   11.0400   20.6620 C   0  0  0  0  0  0  0  0  0  0  0  0
    5.3340   11.1090   21.9360 F   0  0  0  0  0  0  0  0  0  0  0  0
    3.8260    7.7260   21.1540 N   0  0  0  0  0  0  0  0  0  0  0  0
    2.1340    7.9410   21.3460 S   0  0  0  0  0  0  0  0  0  0  0  0
    1.5370    7.5640   20.0790 O   0  0  0  0  0  0  0  0  0  0  0  0
    1.7860    7.2350   22.5680 O   0  0  0  0  0  0  0  0  0  0  0  0
    1.8560    9.6440   21.6400 C   0  0  0  0  0  0  0  0  0  0  0  0
    2.8340   10.4350   22.2400 C   0  0  0  0  0  0  0  0  0  0  0  0
    2.6340   11.7820   22.4820 C   0  0  0  0  0  0  0  0  0  0  0  0
    1.2690   12.3350   22.0490 C   0  0  0  0  0  0  0  0  0  0  0  0
    0.3290   11.5470   21.4670 N   0  0  0  0  0  0  0  0  0  0  0  0
    0.6410   10.2290   21.2760 C   0  0  0  0  0  0  0  0  0  0  0  0
    4.4760    6.5850   21.6060 C   0  0  0  0  0  0  0  0  0  0  0  0
   10.3030    2.0060   23.1510 C   0  0  0  0  0  0  0  0  0  0  0  0
   10.9850    0.7440   23.0010 C   0  0  0  0  0  0  0  0  0  0  0  0
  1  2  1  0
  2  3  1  0
  3  4  1  0
  4  5  1  0
  5  6  1  0
  6  7  1  0
  7  8  2  0
  8  9  1  0
  9 10  1  0
 10 11  1  1
 10 12  2  0
 10 13  2  0
 13 14  1  0
 14 15  1  0
 15 16  1  0
 16 17  1  0
 17 18  2  0
 18 19  1  0
 19 20  2  0
 20 21  1  0
 21 22  2  0
 22 23  1  0
 19 24  1  0
 23 24  2  0
 24 25  1  0
 18 26  1  0
 26 27  1  0
 27 28  2  0
 27 29  2  0
 27 30  1  0
 30 31  2  0
 31 32  1  0
 32 33  2  0
 33 34  1  0
 30 35  1  0
 34 35  2  0
 16 36  2  0
 26 36  1  0
  9 37  2  0
  2 38  1  0
  6 38  2  0
 37 38  1  0
M  END
