MAK-UNK-acefcb18-30
     RDKit          3D

 45 50  0  0  0  0  0  0  0  0999 V2000
   -4.7830   -8.6830   42.3500 C   0  0  0  0  0  0  0  0  0  0  0  0
   -3.4980   -8.3710   41.9300 N   0  0  0  0  0  0  0  0  0  0  0  0
   -3.4340   -8.2470   40.4700 C   0  0  0  0  0  0  0  0  0  0  0  0
   -2.3070   -9.1500   39.9300 C   0  0  0  0  0  0  0  0  0  0  0  0
   -1.0700   -9.1680   40.4720 N   0  0  0  0  0  0  0  0  0  0  0  0
   -0.1210   -9.7450   39.7120 C   0  0  0  0  0  0  0  0  0  0  0  0
    0.4470  -10.9590   39.9950 O   0  0  0  0  0  0  0  0  0  0  0  0
    0.3280   -9.0770   38.5660 C   0  0  0  0  0  0  0  0  0  0  0  0
   -0.1370   -7.9680   38.3030 O   0  0  0  0  0  0  0  0  0  0  0  0
    0.3670   -7.2620   37.2420 C   0  0  0  0  0  0  0  0  0  0  0  0
    0.0940   -5.9230   36.9750 C   0  0  0  0  0  0  0  0  0  0  0  0
    0.6090   -5.2060   35.8940 C   0  0  0  0  0  0  0  0  0  0  0  0
    1.5210   -5.9600   34.9640 C   0  0  0  0  0  0  0  0  0  0  0  0
    2.0420   -5.2550   33.8830 C   0  0  0  0  0  0  0  0  0  0  0  0
    3.1280   -4.3700   34.0750 C   0  0  0  0  0  0  0  0  0  0  0  0
    3.6410   -3.6660   32.9700 C   0  0  0  0  0  0  0  0  0  0  0  0
    3.1330   -3.8000   31.6850 C   0  0  0  0  0  0  0  0  0  0  0  0
    2.0970   -4.6560   31.5510 C   0  0  0  0  0  0  0  0  0  0  0  0
    1.5100   -5.4000   32.5720 C   0  0  0  0  0  0  0  0  0  0  0  0
    1.6930   -4.6810   30.1470 C   0  0  0  0  0  0  0  0  0  0  0  0
    0.5410   -4.7660   29.7220 O   0  0  0  0  0  0  0  0  0  0  0  0
    2.7130   -4.5960   29.0770 C   0  0  0  0  0  0  0  0  0  0  0  0
    3.9260   -3.7370   29.1390 C   0  0  0  0  0  0  0  0  0  0  0  0
    4.9060   -3.0430   29.1900 C   0  0  0  0  0  0  0  0  0  0  0  0
    5.9830   -3.6040   28.5010 C   0  0  0  0  0  0  0  0  0  0  0  0
    6.3220   -3.2010   27.2010 C   0  0  0  0  0  0  0  0  0  0  0  0
    7.2750   -3.7010   26.6310 O   0  0  0  0  0  0  0  0  0  0  0  0
    7.2040   -3.8390   25.1670 C   0  0  0  0  0  0  0  0  0  0  0  0
    8.4800   -4.2110   24.3000 C   0  0  0  0  0  0  0  0  0  0  0  0
    9.6040   -3.3730   24.2800 C   0  0  0  0  0  0  0  0  0  0  0  0
    9.2650   -1.9750   24.4850 N   0  0  0  0  0  0  0  0  0  0  0  0
    9.6280   -1.0440   23.4500 C   0  0  0  0  0  0  0  0  0  0  0  0
   10.9740   -0.9700   23.1240 C   0  0  0  0  0  0  0  0  0  0  0  0
   11.7050    0.1870   23.3150 C   0  0  0  0  0  0  0  0  0  0  0  0
   13.0370    0.1370   22.9470 C   0  0  0  0  0  0  0  0  0  0  0  0
   13.4170   -1.4080   22.3260 S   0  0  0  0  0  0  0  0  0  0  0  0
   11.7690   -1.9580   22.5820 C   0  0  0  0  0  0  0  0  0  0  0  0
    7.9770   -1.6670   25.1120 C   0  0  0  0  0  0  0  0  0  0  0  0
    6.9230   -2.4590   24.7300 C   0  0  0  0  0  0  0  0  0  0  0  0
    3.6350   -3.0740   30.4860 C   0  0  0  0  0  0  0  0  0  0  0  0
    3.8090   -1.8660   30.5980 O   0  0  0  0  0  0  0  0  0  0  0  0
    1.7860   -7.3140   35.2510 C   0  0  0  0  0  0  0  0  0  0  0  0
    1.2180   -7.9530   36.3690 C   0  0  0  0  0  0  0  0  0  0  0  0
   -1.0650   -9.1490   41.9340 C   0  0  0  0  0  0  0  0  0  0  0  0
   -2.4890   -9.2890   42.5010 C   0  0  0  0  0  0  0  0  0  0  0  0
  1  2  1  0
  2  3  1  0
  3  4  1  0
  4  5  1  0
  5  6  1  0
  6  7  2  0
  6  8  1  0
  8  9  1  0
  9 10  1  0
 10 11  2  0
 11 12  1  0
 12 13  2  0
 13 14  1  0
 14 15  2  0
 15 16  1  0
 16 17  2  0
 17 18  1  0
 14 19  1  0
 18 19  2  0
 18 20  1  0
 20 21  2  0
 20 22  1  0
 22 23  2  0
 23 24  1  0
 24 25  1  0
 25 26  2  3
 26 27  1  0
 27 28  1  0
 28 29  1  0
 29 30  1  0
 30 31  1  0
 31 32  1  0
 32 33  1  0
 33 34  1  0
 34 35  2  0
 35 36  1  0
 33 37  2  0
 36 37  1  0
 31 38  1  0
 28 39  1  0
 38 39  1  0
 17 40  1  0
 23 40  1  0
 40 41  2  0
 13 42  1  0
 10 43  1  0
 42 43  2  0
  5 44  1  0
  2 45  1  0
 44 45  1  0
M  END
