MAK-UNK-194150d3-14
     RDKit          3D

 33 37  0  0  0  0  0  0  0  0999 V2000
    6.5750    0.1350   23.9490 O   0  0  0  0  0  0  0  0  0  0  0  0
    6.0610   -0.7270   22.9140 S   0  0  0  0  0  0  0  0  0  0  0  0
    4.6470   -0.3860   22.5290 O   0  0  0  0  0  0  0  0  0  0  0  0
    7.1170   -0.6600   21.5810 N   0  0  0  0  0  0  0  0  0  0  0  0
    8.5220   -0.2040   21.7100 C   0  0  0  0  0  0  0  0  0  0  0  0
    9.0940   -0.3870   23.0880 C   0  0  0  0  0  0  0  0  0  0  0  0
   10.4840   -0.9550   23.2250 C   0  0  0  0  0  0  0  0  0  0  0  0
   11.2860   -1.2220   22.0110 C   0  0  0  0  0  0  0  0  0  0  0  0
   12.5750   -1.7280   22.0510 C   0  0  0  0  0  0  0  0  0  0  0  0
   13.3280   -2.0730   23.3180 C   0  0  0  0  0  0  0  0  0  0  0  0
   12.5770   -1.8410   24.6100 C   0  0  0  0  0  0  0  0  0  0  0  0
   11.1770   -1.3010   24.5550 C   0  0  0  0  0  0  0  0  0  0  0  0
    6.1020   -2.3510   23.3890 N   0  0  0  0  0  0  0  0  0  0  0  0
    7.3150   -2.8280   23.8880 C   0  0  0  0  0  0  0  0  0  0  0  0
    7.8180   -3.9510   23.2480 C   0  0  0  0  0  0  0  0  0  0  0  0
    6.9560   -5.0540   23.0820 C   0  0  0  0  0  0  0  0  0  0  0  0
    7.4630   -6.1870   22.5210 N   0  0  0  0  0  0  0  0  0  0  0  0
    6.4740   -7.0760   22.4660 N   0  0  0  0  0  0  0  0  0  0  0  0
    5.3660   -6.5080   22.9850 C   0  0  0  0  0  0  0  0  0  0  0  0
    5.6190   -5.2260   23.3930 N   0  0  0  0  0  0  0  0  0  0  0  0
    4.7090   -4.3250   23.9830 C   0  0  0  0  0  0  0  0  0  0  0  0
    3.5730   -4.8490   24.5800 C   0  0  0  0  0  0  0  0  0  0  0  0
    2.5760   -3.9470   25.2260 C   0  0  0  0  0  0  0  0  0  0  0  0
    1.4970   -4.6660   25.7920 C   0  0  0  0  0  0  0  0  0  0  0  0
    0.5300   -5.3280   25.0070 C   0  0  0  0  0  0  0  0  0  0  0  0
   -0.4940   -4.4760   24.5820 C   0  0  0  0  0  0  0  0  0  0  0  0
   -1.3960   -5.0730   23.6980 C   0  0  0  0  0  0  0  0  0  0  0  0
   -0.9230   -5.7140   22.5500 C   0  0  0  0  0  0  0  0  0  0  0  0
    0.3480   -6.4610   22.8590 C   0  0  0  0  0  0  0  0  0  0  0  0
    1.2500   -5.8930   23.7600 C   0  0  0  0  0  0  0  0  0  0  0  0
    2.8030   -2.5740   25.2130 C   0  0  0  0  0  0  0  0  0  0  0  0
    3.9670   -2.0700   24.5960 C   0  0  0  0  0  0  0  0  0  0  0  0
    4.9150   -2.9290   23.9880 C   0  0  0  0  0  0  0  0  0  0  0  0
  1  2  2  0
  2  3  2  0
  2  4  1  0
  4  5  1  0
  5  6  1  0
  6  7  1  0
  7  8  2  0
  8  9  1  0
  9 10  2  0
 10 11  1  0
  7 12  1  0
 11 12  2  0
  2 13  1  0
 13 14  1  0
 14 15  1  0
 15 16  1  0
 16 17  2  0
 17 18  1  0
 18 19  2  0
 16 20  1  0
 19 20  1  0
 20 21  1  0
 21 22  1  0
 22 23  2  0
 23 24  1  0
 24 25  1  0
 25 26  1  0
 26 27  1  0
 27 28  1  0
 28 29  1  0
 25 30  1  0
 29 30  1  0
 23 31  1  0
 31 32  2  0
 13 33  1  0
 21 33  2  0
 32 33  1  0
M  END
