MAK-UNK-60abb798-7
     RDKit          3D

 24 26  0  0  0  0  0  0  0  0999 V2000
   13.2350   -3.0240   25.1930 N   0  0  0  0  0  0  0  0  0  0  0  0
   12.9270   -2.4400   24.0630 C   0  0  0  0  0  0  0  0  0  0  0  0
   11.4350   -2.0080   23.8620 C   0  0  1  0  0  0  0  0  0  0  0  0
   10.4150   -2.9760   23.9140 O   0  0  0  0  0  0  0  0  0  0  0  0
    8.8730   -2.7150   24.0170 C   0  0  2  0  0  0  0  0  0  0  0  0
    7.8290   -3.5220   23.4250 C   0  0  2  0  0  0  0  0  0  0  0  0
    7.5140   -4.8450   23.8120 C   0  0  0  0  0  0  0  0  0  0  0  0
    6.9550   -5.7750   22.9330 C   0  0  0  0  0  0  0  0  0  0  0  0
    6.4630   -5.3110   21.7200 C   0  0  0  0  0  0  0  0  0  0  0  0
    6.3910   -3.9260   21.5260 C   0  0  2  0  0  0  0  0  0  0  0  0
    5.9240   -3.4160   20.3070 C   0  0  0  0  0  0  0  0  0  0  0  0
    6.3500   -2.1190   19.9530 C   0  0  0  0  0  0  0  0  0  0  0  0
    6.2910   -1.7030   18.6330 C   0  0  0  0  0  0  0  0  0  0  0  0
    6.3390   -0.5230   18.2650 O   0  0  0  0  0  0  0  0  0  0  0  0
    7.6000   -3.3330   21.9310 C   0  0  0  0  0  0  0  0  0  0  0  0
    8.8490   -1.2730   23.7020 C   0  0  0  0  0  0  0  0  0  0  0  0
   10.2610   -1.4540   23.9110 C   0  0  0  0  0  0  0  0  0  0  0  0
   11.1110   -0.8730   24.8550 C   0  0  0  0  0  0  0  0  0  0  0  0
   12.4220   -0.9030   25.2310 C   0  0  0  0  0  0  0  0  0  0  0  0
   13.2450   -1.8040   24.4220 C   0  0  0  0  0  0  0  0  0  0  0  0
   12.5860   -2.4700   23.3770 C   0  0  0  0  0  0  0  0  0  0  0  0
   13.3260   -3.2780   22.5550 O   0  0  0  0  0  0  0  0  0  0  0  0
   11.0440   -2.2940   23.1190 C   0  0  0  0  0  0  0  0  0  0  0  0
   10.4840   -2.9700   22.0720 O   0  0  0  0  0  0  0  0  0  0  0  0
  1  2  1  0
  3  2  1  1
  3  4  1  0
  4  5  1  0
  5  6  1  0
  6  7  1  6
  7  8  1  0
  8  9  1  0
  9 10  1  0
 10 11  1  6
 11 12  1  0
 12 13  1  0
 13 14  2  0
  6 15  1  0
 10 15  1  0
  5 16  1  6
 16 17  1  0
  3 18  1  0
 17 18  2  0
 18 19  1  0
 19 20  2  0
 20 21  1  0
 21 22  1  0
 17 23  1  0
 21 23  2  0
 23 24  1  0
M  END
