MAK-UNK-a7992eb3-24
     RDKit          3D

 27 30  0  0  0  0  0  0  0  0999 V2000
    8.6130   -0.3460   21.4280 C   0  0  0  0  0  0  0  0  0  0  0  0
    7.3190   -0.4000   20.6900 C   0  0  0  0  0  0  0  0  0  0  0  0
    6.5640   -1.5610   20.7080 C   0  0  0  0  0  0  0  0  0  0  0  0
    6.9980   -2.6770   21.4020 C   0  0  0  0  0  0  0  0  0  0  0  0
    6.0960   -3.8800   21.3560 C   0  0  0  0  0  0  0  0  0  0  0  0
    6.5420   -5.0780   21.9650 N   0  0  0  0  0  0  0  0  0  0  0  0
    7.1510   -4.8280   23.2820 C   0  0  0  0  0  0  0  0  0  0  0  0
    6.2000   -4.2590   24.1550 C   0  0  0  0  0  0  0  0  0  0  0  0
    5.3020   -5.0690   24.4150 O   0  0  0  0  0  0  0  0  0  0  0  0
    4.4660   -5.3870   23.2800 C   0  0  2  0  0  0  0  0  0  0  0  0
    3.3170   -6.3460   23.5000 C   0  0  0  0  0  0  0  0  0  0  0  0
    2.2420   -5.8980   23.0620 O   0  0  0  0  0  0  0  0  0  0  0  0
    1.2930   -5.6130   24.1080 C   0  0  0  0  0  0  0  0  0  0  0  0
   -0.0840   -5.8510   23.9490 C   0  0  0  0  0  0  0  0  0  0  0  0
   -0.5530   -6.0450   22.6390 C   0  0  0  0  0  0  0  0  0  0  0  0
   -0.2960   -7.1830   21.8390 C   0  0  0  0  0  0  0  0  0  0  0  0
   -0.8060   -7.2970   20.5460 C   0  0  0  0  0  0  0  0  0  0  0  0
   -1.5710   -6.3180   19.9960 C   0  0  0  0  0  0  0  0  0  0  0  0
   -1.8720   -5.1760   20.6970 C   0  0  0  0  0  0  0  0  0  0  0  0
   -1.3460   -5.0380   22.0680 N   0  0  0  0  0  0  0  0  0  0  0  0
   -0.9100   -4.7850   24.7580 C   0  0  0  0  0  0  0  0  0  0  0  0
   -1.9230   -5.6890   24.3660 C   0  0  0  0  0  0  0  0  0  0  0  0
   -1.6730   -6.9430   24.8320 C   0  0  0  0  0  0  0  0  0  0  0  0
   -0.3490   -7.1540   24.7580 C   0  0  0  0  0  0  0  0  0  0  0  0
    5.4050   -5.9720   22.2020 C   0  0  0  0  0  0  0  0  0  0  0  0
    8.2330   -2.6400   22.1070 C   0  0  0  0  0  0  0  0  0  0  0  0
    9.0330   -1.4810   22.1190 C   0  0  0  0  0  0  0  0  0  0  0  0
  1  2  2  0
  2  3  1  0
  3  4  2  0
  4  5  1  0
  5  6  1  0
  6  7  1  0
  7  8  1  0
  8  9  1  0
  9 10  1  0
 10 11  1  1
 11 12  1  0
 12 13  1  0
 14 13  1  0
 14 15  1  0
 15 16  2  0
 16 17  1  0
 17 18  2  0
 18 19  1  0
 15 20  1  0
 19 20  2  0
 14 21  1  0
 21 22  1  0
 22 23  1  0
 14 24  1  0
 23 24  1  0
  6 25  1  0
 10 25  1  0
  4 26  1  0
  1 27  1  0
 26 27  2  0
M  END
