MAK-UNK-de9577cf-4
     RDKit          3D

 37 40  0  0  0  0  0  0  0  0999 V2000
    5.0990   11.3100   22.2810 C   0  0  0  0  0  0  0  0  0  0  0  0
    5.0880    9.8850   22.5210 N   0  0  0  0  0  0  0  0  0  0  0  0
    6.1150    9.0520   22.1610 C   0  0  0  0  0  0  0  0  0  0  0  0
    5.7090    7.6530   22.3870 C   0  0  0  0  0  0  0  0  0  0  0  0
    6.5690    6.4900   21.9480 C   0  0  0  0  0  0  0  0  0  0  0  0
    6.0180    5.3130   22.2520 C   0  0  0  0  0  0  0  0  0  0  0  0
    6.6440    4.1050   21.9390 C   0  0  0  0  0  0  0  0  0  0  0  0
    5.8720    3.0080   21.4950 C   0  0  0  0  0  0  0  0  0  0  0  0
    6.6170    1.7100   21.1580 C   0  0  0  0  0  0  0  0  0  0  0  0
    8.1090    1.6360   21.3020 C   0  0  0  0  0  0  0  0  0  0  0  0
    8.7790    2.8830   21.7820 C   0  0  0  0  0  0  0  0  0  0  0  0
    8.0510    4.0410   22.0800 C   0  0  0  0  0  0  0  0  0  0  0  0
    8.7290    5.1340   22.5110 N   0  0  0  0  0  0  0  0  0  0  0  0
   10.1530    5.0530   23.4640 S   0  0  0  0  0  0  0  0  0  0  0  0
   11.0670    6.0210   22.8960 O   0  0  0  0  0  0  0  0  0  0  0  0
    9.7260    5.1920   24.8420 O   0  0  0  0  0  0  0  0  0  0  0  0
   10.8350    3.4490   23.2390 C   0  0  0  0  0  0  0  0  0  0  0  0
   10.0160    2.3040   23.2580 C   0  0  0  0  0  0  0  0  0  0  0  0
   10.5670    1.0080   23.1300 C   0  0  0  0  0  0  0  0  0  0  0  0
   12.0620    0.8910   22.9870 C   0  0  0  0  0  0  0  0  0  0  0  0
   12.7330   -0.3360   22.9320 C   0  0  0  0  0  0  0  0  0  0  0  0
   13.4840   -0.7050   21.8210 O   0  0  0  0  0  0  0  0  0  0  0  0
   12.6070   -1.0930   24.0780 O   0  0  0  0  0  0  0  0  0  0  0  0
   13.3490   -2.3160   24.1550 C   0  0  0  0  0  0  0  0  0  0  0  0
   12.8060    2.0580   22.9340 C   0  0  0  0  0  0  0  0  0  0  0  0
   12.2170    3.3230   23.0550 C   0  0  0  0  0  0  0  0  0  0  0  0
    4.8130    5.5840   22.8770 N   0  0  0  0  0  0  0  0  0  0  0  0
    3.6870    4.4410   23.4710 S   0  0  0  0  0  0  0  0  0  0  0  0
    2.7760    5.1940   24.3010 O   0  0  0  0  0  0  0  0  0  0  0  0
    4.4630    3.3350   23.9800 O   0  0  0  0  0  0  0  0  0  0  0  0
    2.8530    3.9030   22.0310 C   0  0  0  0  0  0  0  0  0  0  0  0
    3.2910    4.2840   20.7450 C   0  0  0  0  0  0  0  0  0  0  0  0
    2.6020    3.8390   19.6170 C   0  0  0  0  0  0  0  0  0  0  0  0
    1.4810    3.0200   19.7630 C   0  0  0  0  0  0  0  0  0  0  0  0
    0.9940    2.6070   20.9570 N   0  0  0  0  0  0  0  0  0  0  0  0
    1.7420    3.0900   22.1480 C   0  0  0  0  0  0  0  0  0  0  0  0
    4.6110    6.9920   22.9670 C   0  0  0  0  0  0  0  0  0  0  0  0
  1  2  1  0
  2  3  1  0
  3  4  1  0
  4  5  1  0
  5  6  2  0
  6  7  1  0
  7  8  2  0
  8  9  1  0
  9 10  2  0
 10 11  1  0
  7 12  1  0
 11 12  2  0
 12 13  1  0
 14 13  1  0
 14 15  2  0
 14 16  2  0
 14 17  1  0
 17 18  2  0
 18 19  1  0
 19 20  2  0
 20 21  1  0
 21 22  2  0
 21 23  1  0
 23 24  1  0
 20 25  1  0
 17 26  1  0
 25 26  2  0
  6 27  1  0
 27 28  1  0
 28 29  2  0
 28 30  2  0
 28 31  1  0
 31 32  2  0
 32 33  1  0
 33 34  2  0
 34 35  1  0
 31 36  1  0
 35 36  2  0
  4 37  2  0
 27 37  1  0
M  END
