MAK-UNK-0d6072ac-34
     RDKit          3D

 19 21  0  0  0  0  0  0  0  0999 V2000
    6.6960   -2.8830   21.8510 C   0  0  0  0  0  0  0  0  0  0  0  0
    6.2310   -4.1780   21.9510 C   0  0  1  0  0  0  0  0  0  0  0  0
    5.8650   -4.7560   20.7260 C   0  0  0  0  0  0  0  0  0  0  0  0
    5.6640   -5.9240   20.5090 O   0  0  0  0  0  0  0  0  0  0  0  0
    5.7170   -3.8680   19.6970 O   0  0  0  0  0  0  0  0  0  0  0  0
    7.2650   -4.8160   22.8700 C   0  0  0  0  0  0  0  0  0  0  0  0
    7.5950   -5.8710   23.5740 N   0  0  0  0  0  0  0  0  0  0  0  0
    8.4940   -4.7390   23.5850 N   0  0  0  0  0  0  0  0  0  0  0  0
    9.6800   -4.0480   23.9760 C   0  0  0  0  0  0  0  0  0  0  0  0
    8.9260   -3.0760   23.0450 C   0  0  0  0  0  0  0  0  0  0  0  0
    8.4850   -4.2760   23.3540 N   0  0  0  0  0  0  0  0  0  0  0  0
    9.7370   -2.0210   23.0270 N   0  0  0  0  0  0  0  0  0  0  0  0
   10.8800   -2.0330   23.7160 C   0  0  0  0  0  0  0  0  0  0  0  0
   11.7210   -0.9390   23.6670 C   0  0  0  0  0  0  0  0  0  0  0  0
   12.8430   -1.1220   24.4070 C   0  0  0  0  0  0  0  0  0  0  0  0
   12.9510   -2.4540   25.1510 C   0  0  0  0  0  0  0  0  0  0  0  0
   14.3940   -2.6300   26.0770 Cl  0  0  0  0  0  0  0  0  0  0  0  0
   12.0140   -3.4330   25.1080 C   0  0  0  0  0  0  0  0  0  0  0  0
   10.8910   -3.2450   24.3280 C   0  0  0  0  0  0  0  0  0  0  0  0
  2  1  1  6
  2  3  1  0
  3  4  2  0
  3  5  1  0
  2  6  1  0
  6  7  2  0
  7  8  1  0
  8  9  2  0
  9 10  1  0
  6 11  1  0
 10 11  2  0
 10 12  1  0
 12 13  1  0
 13 14  1  0
 14 15  2  0
 15 16  1  0
 16 17  1  0
 16 18  2  0
  9 19  1  0
 13 19  2  0
 18 19  1  0
M  END
