MAK-UNK-0cb6a3ad-10
     RDKit          3D

 34 35  0  0  0  0  0  0  0  0999 V2000
    8.6520   -5.7920   23.7330 N   0  0  0  0  0  0  0  0  0  0  0  0
    7.5390   -4.8800   23.4480 C   0  0  0  0  0  0  0  0  0  0  0  0
    6.3000   -5.3650   23.3010 N   0  0  0  0  0  0  0  0  0  0  0  0
    5.5930   -5.0410   22.1050 C   0  0  0  0  0  0  0  0  0  0  0  0
    6.1850   -3.9500   21.4420 C   0  0  0  0  0  0  0  0  0  0  0  0
    5.3650   -3.4000   20.4650 C   0  0  0  0  0  0  0  0  0  0  0  0
    5.6160   -2.1730   19.8800 C   0  0  0  0  0  0  0  0  0  0  0  0
    6.8700   -2.1470   19.0800 C   0  0  0  0  0  0  0  0  0  0  0  0
    7.9010   -2.5320   20.0850 C   0  0  0  0  0  0  0  0  0  0  0  0
    8.8360   -3.5200   19.5830 N   0  0  0  0  0  0  0  0  0  0  0  0
    9.0570   -3.9400   18.3100 C   0  0  0  0  0  0  0  0  0  0  0  0
    8.4690   -3.2130   17.3650 N   0  0  0  0  0  0  0  0  0  0  0  0
    9.9280   -5.0470   18.0700 N   0  0  0  0  0  0  0  0  0  0  0  0
   11.3300   -5.1390   18.2240 C   0  0  0  0  0  0  0  0  0  0  0  0
   11.8880   -4.9860   19.2680 N   0  0  0  0  0  0  0  0  0  0  0  0
   12.0490   -5.2410   16.8720 N   0  0  0  0  0  0  0  0  0  0  0  0
   13.1150   -5.3330   15.9630 C   0  0  0  0  0  0  0  0  0  0  0  0
   13.7200   -6.3690   15.8860 C   0  0  0  0  0  0  0  0  0  0  0  0
   14.4350   -6.8930   15.3560 C   0  0  0  0  0  0  0  0  0  0  0  0
   14.9680   -6.4940   14.2630 C   0  0  0  0  0  0  0  0  0  0  0  0
   16.0360   -7.3620   12.7840 Cl  0  0  0  0  0  0  0  0  0  0  0  0
   14.3290   -5.0500   14.2950 C   0  0  0  0  0  0  0  0  0  0  0  0
   13.5350   -4.5560   15.0710 C   0  0  0  0  0  0  0  0  0  0  0  0
    7.6700   -3.4930   23.2970 N   0  0  0  0  0  0  0  0  0  0  0  0
    8.7640   -2.7690   23.6390 C   0  0  0  0  0  0  0  0  0  0  0  0
    9.5980   -3.3810   24.2850 N   0  0  0  0  0  0  0  0  0  0  0  0
    9.1220   -1.4410   23.3620 N   0  0  0  0  0  0  0  0  0  0  0  0
   10.4970   -1.2680   23.7340 C   0  0  0  0  0  0  0  0  0  0  0  0
   11.5170   -0.3520   23.5010 C   0  0  0  0  0  0  0  0  0  0  0  0
   12.7990   -0.5910   24.0760 C   0  0  0  0  0  0  0  0  0  0  0  0
   12.9910   -1.7510   24.8540 C   0  0  0  0  0  0  0  0  0  0  0  0
   14.3100   -2.3950   25.7040 Cl  0  0  0  0  0  0  0  0  0  0  0  0
   12.0020   -2.5590   25.0100 C   0  0  0  0  0  0  0  0  0  0  0  0
   10.7990   -2.3110   24.4810 C   0  0  0  0  0  0  0  0  0  0  0  0
  1  2  2  3
  2  3  1  0
  3  4  1  0
  4  5  1  0
  5  6  1  0
  6  7  1  0
  7  8  1  0
  8  9  1  0
  9 10  1  0
 10 11  1  0
 11 12  2  3
 11 13  1  0
 13 14  1  0
 14 15  2  3
 14 16  1  0
 16 17  1  0
 17 18  2  0
 18 19  1  0
 19 20  2  0
 20 21  1  0
 20 22  1  0
 17 23  1  0
 22 23  2  0
  2 24  1  0
 24 25  1  0
 25 26  2  3
 25 27  1  0
 27 28  1  0
 28 29  2  0
 29 30  1  0
 30 31  2  0
 31 32  1  0
 31 33  1  0
 28 34  1  0
 33 34  2  0
M  END
