MAK-UNK-de9577cf-2
     RDKit          3D

 37 40  0  0  0  0  0  0  0  0999 V2000
   13.3140   -2.1130   24.3940 C   0  0  0  0  0  0  0  0  0  0  0  0
   12.9300   -0.9470   24.5490 O   0  0  0  0  0  0  0  0  0  0  0  0
   12.9410   -0.1520   23.4350 C   0  0  0  0  0  0  0  0  0  0  0  0
   13.5240   -0.4770   22.4150 O   0  0  0  0  0  0  0  0  0  0  0  0
   12.2540    1.0860   23.4890 C   0  0  0  0  0  0  0  0  0  0  0  0
   10.9940    1.1860   24.0620 C   0  0  0  0  0  0  0  0  0  0  0  0
   10.3780    2.4250   24.0950 C   0  0  0  0  0  0  0  0  0  0  0  0
   10.9110    3.5890   23.5970 C   0  0  0  0  0  0  0  0  0  0  0  0
   10.0120    5.1280   23.7110 S   0  0  0  0  0  0  0  0  0  0  0  0
   10.6870    6.0950   22.8700 O   0  0  0  0  0  0  0  0  0  0  0  0
    9.7690    5.4650   25.0960 O   0  0  0  0  0  0  0  0  0  0  0  0
    8.5170    4.6950   23.0350 N   0  0  0  0  0  0  0  0  0  0  0  0
    7.9680    5.6510   22.2050 C   0  0  0  0  0  0  0  0  0  0  0  0
    7.6850    3.7930   23.8860 C   0  0  0  0  0  0  0  0  0  0  0  0
    7.7020    2.4310   23.4770 C   0  0  0  0  0  0  0  0  0  0  0  0
    6.9790    1.8700   22.4430 C   0  0  0  0  0  0  0  0  0  0  0  0
    7.1970    0.5300   22.2830 C   0  0  0  0  0  0  0  0  0  0  0  0
    6.5460   -0.3480   21.2440 C   0  0  0  0  0  0  0  0  0  0  0  0
    6.0440   -1.7040   21.7290 C   0  0  0  0  0  0  0  0  0  0  0  0
    5.3860   -2.6610   20.7730 C   0  0  0  0  0  0  0  0  0  0  0  0
    5.2840   -2.1500   19.3580 C   0  0  0  0  0  0  0  0  0  0  0  0
    5.7370   -0.9030   18.8960 C   0  0  0  0  0  0  0  0  0  0  0  0
    6.3910    0.0150   19.9060 C   0  0  0  0  0  0  0  0  0  0  0  0
    6.8300    1.2080   19.4950 F   0  0  0  0  0  0  0  0  0  0  0  0
    8.0710    0.1810   23.2040 N   0  0  0  0  0  0  0  0  0  0  0  0
    8.7880   -1.4320   23.5050 S   0  0  0  0  0  0  0  0  0  0  0  0
    9.6810   -1.2460   24.6240 O   0  0  0  0  0  0  0  0  0  0  0  0
    9.2770   -1.9070   22.2300 O   0  0  0  0  0  0  0  0  0  0  0  0
    7.5620   -2.5510   24.0640 C   0  0  0  0  0  0  0  0  0  0  0  0
    6.6150   -2.2100   25.2040 C   0  0  0  0  0  0  0  0  0  0  0  0
    5.6260   -3.3300   25.5430 C   0  0  0  0  0  0  0  0  0  0  0  0
    5.6820   -4.5110   24.8060 C   0  0  0  0  0  0  0  0  0  0  0  0
    6.5570   -4.7470   23.7940 N   0  0  0  0  0  0  0  0  0  0  0  0
    7.4620   -3.7880   23.4480 C   0  0  0  0  0  0  0  0  0  0  0  0
    8.4010    1.3150   23.9680 C   0  0  0  0  0  0  0  0  0  0  0  0
   12.1700    3.5110   23.0120 C   0  0  0  0  0  0  0  0  0  0  0  0
   12.8220    2.2660   22.9710 C   0  0  0  0  0  0  0  0  0  0  0  0
  1  2  1  0
  2  3  1  0
  3  4  2  0
  3  5  1  0
  5  6  2  0
  6  7  1  0
  7  8  2  0
  8  9  1  0
  9 10  2  0
  9 11  2  0
  9 12  1  0
 12 13  1  0
 12 14  1  0
 14 15  1  0
 15 16  1  0
 16 17  2  0
 17 18  1  0
 18 19  2  0
 19 20  1  0
 20 21  2  0
 21 22  1  0
 18 23  1  0
 22 23  2  0
 23 24  1  0
 17 25  1  0
 25 26  1  0
 26 27  2  0
 26 28  2  0
 26 29  1  0
 29 30  2  0
 30 31  1  0
 31 32  2  0
 32 33  1  0
 29 34  1  0
 33 34  2  0
 15 35  2  0
 25 35  1  0
  8 36  1  0
  5 37  1  0
 36 37  2  0
M  END
