MAK-UNK-27459e11-7
     RDKit          3D

 17 17  0  0  0  0  0  0  0  0999 V2000
    6.3860   -5.1050   26.4730 C   0  0  0  0  0  0  0  0  0  0  0  0
    7.9120   -4.1970   26.3740 S   0  0  0  0  0  0  0  0  0  0  0  0
    8.8770   -5.0250   25.6880 O   0  0  0  0  0  0  0  0  0  0  0  0
    8.1690   -3.6130   27.6640 O   0  0  0  0  0  0  0  0  0  0  0  0
    7.5200   -2.9230   25.3270 N   0  0  0  0  0  0  0  0  0  0  0  0
    8.4610   -2.5910   24.2340 C   0  0  0  0  0  0  0  0  0  0  0  0
    8.7030   -1.2310   23.9820 C   0  0  0  0  0  0  0  0  0  0  0  0
   10.0070   -0.8870   23.6040 C   0  0  0  0  0  0  0  0  0  0  0  0
   10.6750    0.1360   24.2670 C   0  0  0  0  0  0  0  0  0  0  0  0
   12.1060    0.5760   23.9440 C   0  0  0  0  0  0  0  0  0  0  0  0
   12.7710   -0.2140   22.8220 C   0  0  0  0  0  0  0  0  0  0  0  0
   11.9730   -1.3030   22.1530 C   0  0  0  0  0  0  0  0  0  0  0  0
   10.6400   -1.5860   22.5580 C   0  0  0  0  0  0  0  0  0  0  0  0
    9.9090   -2.5670   21.9170 C   0  0  0  0  0  0  0  0  0  0  0  0
    9.1830   -3.4690   22.7060 C   0  0  0  0  0  0  0  0  0  0  0  0
    8.0100   -3.9590   22.4200 N   0  0  0  0  0  0  0  0  0  0  0  0
    9.8330   -3.8760   23.9340 N   0  0  0  0  0  0  0  0  0  0  0  0
  1  2  1  0
  2  3  2  0
  2  4  2  0
  2  5  1  0
  5  6  1  0
  6  7  1  0
  7  8  1  0
  8  9  2  0
  9 10  1  0
 10 11  2  0
 11 12  1  0
  8 13  1  0
 12 13  2  0
 13 14  1  0
 14 15  1  0
 15 16  2  3
 15 17  1  0
M  END
