MAK-UNK-0d6072ac-18
     RDKit          3D

 20 22  0  0  0  0  0  0  0  0999 V2000
   13.4440   -3.6610   25.7350 C   0  0  0  0  0  0  0  0  0  0  0  0
   12.4510   -2.8690   24.9780 C   0  0  0  0  0  0  0  0  0  0  0  0
   13.1990   -1.8010   24.9000 C   0  0  0  0  0  0  0  0  0  0  0  0
   14.4320   -2.4460   25.8980 Cl  0  0  0  0  0  0  0  0  0  0  0  0
   12.7660   -0.5930   24.1000 C   0  0  0  0  0  0  0  0  0  0  0  0
   11.4970   -0.6380   23.4350 C   0  0  0  0  0  0  0  0  0  0  0  0
   10.6020   -1.9040   23.5610 C   0  0  0  0  0  0  0  0  0  0  0  0
    9.3510   -2.3460   23.0720 N   0  0  0  0  0  0  0  0  0  0  0  0
    9.1430   -3.6750   23.6130 C   0  0  0  0  0  0  0  0  0  0  0  0
    8.0700   -4.5570   23.4000 C   0  0  0  0  0  0  0  0  0  0  0  0
    7.5750   -3.7620   22.5030 C   0  0  0  0  0  0  0  0  0  0  0  0
    6.4320   -4.0810   21.7400 C   0  0  2  0  0  0  0  0  0  0  0  0
    5.8180   -3.1400   20.9060 C   0  0  0  0  0  0  0  0  0  0  0  0
    5.4750   -4.6490   22.5360 C   0  0  0  0  0  0  0  0  0  0  0  0
    5.8310   -5.7220   23.3140 O   0  0  0  0  0  0  0  0  0  0  0  0
    4.3670   -4.1230   22.4480 O   0  0  0  0  0  0  0  0  0  0  0  0
    8.5060   -2.5960   22.4980 C   0  0  0  0  0  0  0  0  0  0  0  0
    9.8160   -2.4890   23.3440 C   0  0  0  0  0  0  0  0  0  0  0  0
   10.1960   -3.7210   24.2560 C   0  0  0  0  0  0  0  0  0  0  0  0
   11.2680   -2.9300   24.4190 C   0  0  0  0  0  0  0  0  0  0  0  0
  1  2  1  0
  2  3  2  0
  3  4  1  0
  3  5  1  0
  5  6  2  0
  6  7  1  0
  7  8  1  0
  8  9  1  0
  9 10  1  0
 10 11  2  0
 11 12  1  0
 12 13  1  1
 12 14  1  0
 14 15  2  0
 14 16  1  0
 11 17  1  0
 17 18  2  0
  9 19  2  0
 18 19  1  0
  2 20  1  0
  7 20  2  0
 19 20  1  0
M  END
