MAK-UNK-01147c51-9
     RDKit          3D

 22 24  0  0  0  0  0  0  0  0999 V2000
    5.8960   -2.5540   19.6250 C   0  0  0  0  0  0  0  0  0  0  0  0
    5.8520   -3.9130   20.1520 N   0  0  0  0  0  0  0  0  0  0  0  0
    6.2970   -4.1610   21.5240 C   0  0  1  0  0  0  0  0  0  0  0  0
    6.4440   -5.6180   21.8120 C   0  0  0  0  0  0  0  0  0  0  0  0
    6.9420   -5.8980   23.1880 C   0  0  0  0  0  0  0  0  0  0  0  0
    7.4770   -4.8700   23.9660 C   0  0  0  0  0  0  0  0  0  0  0  0
    7.7530   -3.4410   23.4430 C   0  0  1  0  0  0  0  0  0  0  0  0
    8.9050   -2.5570   24.0490 C   0  0  2  0  0  0  0  0  0  0  0  0
    9.1750   -1.3470   23.3450 C   0  0  0  0  0  0  0  0  0  0  0  0
   10.4640   -1.3760   23.6830 C   0  0  0  0  0  0  0  0  0  0  0  0
   11.3910   -0.5310   23.5660 C   0  0  0  0  0  0  0  0  0  0  0  0
   12.7270   -0.3500   23.8320 C   0  0  0  0  0  0  0  0  0  0  0  0
   13.2880   -1.5440   24.4980 C   0  0  0  0  0  0  0  0  0  0  0  0
   12.4260   -2.5670   24.7300 C   0  0  0  0  0  0  0  0  0  0  0  0
   12.9850   -3.6120   25.3510 O   0  0  0  0  0  0  0  0  0  0  0  0
   11.0530   -2.5090   24.3350 C   0  0  0  0  0  0  0  0  0  0  0  0
   10.4290   -3.5050   24.6080 O   0  0  0  0  0  0  0  0  0  0  0  0
   11.5880   -1.9410   24.1530 C   0  0  2  0  0  0  0  0  0  0  0  0
   12.7140   -2.4530   23.4550 C   0  0  0  0  0  0  0  0  0  0  0  0
   12.7800   -2.0670   22.0300 N   0  0  0  0  0  0  0  0  0  0  0  0
   10.3690   -2.9790   24.0660 O   0  0  0  0  0  0  0  0  0  0  0  0
    7.5290   -3.3230   21.9430 C   0  0  0  0  0  0  0  0  0  0  0  0
  1  2  1  0
  3  2  1  6
  3  4  1  0
  4  5  1  0
  5  6  1  0
  7  6  1  6
  7  8  1  0
  8  9  1  6
  9 10  1  0
 10 11  2  0
 11 12  1  0
 12 13  2  0
 13 14  1  0
 14 15  1  0
 10 16  1  0
 14 16  2  0
 16 17  1  0
 11 18  1  0
 18 19  1  6
 19 20  1  0
  8 21  1  0
 18 21  1  0
  3 22  1  0
  7 22  1  0
M  END
