MAK-UNK-7264f48c-5
     RDKit          3D

 24 26  0  0  0  0  0  0  0  0999 V2000
    8.8040   -2.2950   22.1850 C   0  0  0  0  0  0  0  0  0  0  0  0
    7.7880   -1.4100   21.5800 C   0  0  0  0  0  0  0  0  0  0  0  0
    8.1360   -0.1260   21.1730 C   0  0  0  0  0  0  0  0  0  0  0  0
    7.2870    0.8170   20.5880 C   0  0  0  0  0  0  0  0  0  0  0  0
    5.9860    0.5690   20.3460 N   0  0  0  0  0  0  0  0  0  0  0  0
    5.5760   -0.6740   20.7210 C   0  0  0  0  0  0  0  0  0  0  0  0
    6.4350   -1.7360   21.3570 C   0  0  0  0  0  0  0  0  0  0  0  0
    5.7570   -3.0200   21.6920 N   0  0  0  0  0  0  0  0  0  0  0  0
    5.7780   -4.2280   21.0190 C   0  0  0  0  0  0  0  0  0  0  0  0
    5.3620   -4.4280   19.8770 O   0  0  0  0  0  0  0  0  0  0  0  0
    6.3250   -5.2140   21.8110 N   0  0  0  0  0  0  0  0  0  0  0  0
    7.0940   -4.7010   22.8250 C   0  0  0  0  0  0  0  0  0  0  0  0
    6.2560   -4.2430   23.9730 C   0  0  0  0  0  0  0  0  0  0  0  0
    5.3760   -5.2170   24.2820 N   0  0  0  0  0  0  0  0  0  0  0  0
    4.6410   -5.1310   25.7610 S   0  0  0  0  0  0  0  0  0  0  0  0
    3.8390   -6.3230   25.9210 O   0  0  0  0  0  0  0  0  0  0  0  0
    5.6540   -4.7450   26.7170 O   0  0  0  0  0  0  0  0  0  0  0  0
    3.4630   -3.7960   25.7990 C   0  0  0  0  0  0  0  0  0  0  0  0
    2.1320   -3.9130   25.4140 C   0  0  0  0  0  0  0  0  0  0  0  0
    1.3530   -2.7630   25.5220 C   0  0  0  0  0  0  0  0  0  0  0  0
    2.2450   -1.4320   26.1170 S   0  0  0  0  0  0  0  0  0  0  0  0
    3.7080   -2.4390   26.2300 C   0  0  0  0  0  0  0  0  0  0  0  0
    4.6240   -5.7690   23.1510 C   0  0  0  0  0  0  0  0  0  0  0  0
    5.5020   -6.2020   22.1790 C   0  0  0  0  0  0  0  0  0  0  0  0
  1  2  1  0
  2  3  2  0
  3  4  1  0
  4  5  2  0
  5  6  1  0
  2  7  1  0
  6  7  2  0
  7  8  1  0
  8  9  1  0
  9 10  2  0
  9 11  1  0
 11 12  1  0
 12 13  1  0
 13 14  1  0
 14 15  1  0
 15 16  2  0
 15 17  2  0
 15 18  1  0
 18 19  1  0
 19 20  2  0
 20 21  1  0
 18 22  2  0
 21 22  1  0
 14 23  1  0
 11 24  1  0
 23 24  1  0
M  END
