MAK-UNK-0d6072ac-20
     RDKit          3D

 20 22  0  0  0  0  0  0  0  0999 V2000
    6.5660   -2.3920   21.7020 C   0  0  0  0  0  0  0  0  0  0  0  0
    7.4720   -2.9910   22.5300 C   0  0  0  0  0  0  0  0  0  0  0  0
    7.1320   -4.3190   23.0680 C   0  0  0  0  0  0  0  0  0  0  0  0
    6.0290   -5.3130   22.9940 C   0  0  2  0  0  0  0  0  0  0  0  0
    5.6860   -5.8270   21.6280 C   0  0  0  0  0  0  0  0  0  0  0  0
    4.7520   -4.8640   23.7150 C   0  0  0  0  0  0  0  0  0  0  0  0
    3.9190   -3.8630   23.3530 O   0  0  0  0  0  0  0  0  0  0  0  0
    4.5010   -5.5710   24.8100 O   0  0  0  0  0  0  0  0  0  0  0  0
    8.2930   -4.6680   23.8800 C   0  0  0  0  0  0  0  0  0  0  0  0
    9.4120   -3.9250   24.0650 C   0  0  0  0  0  0  0  0  0  0  0  0
    9.6440   -2.8510   23.6060 C   0  0  0  0  0  0  0  0  0  0  0  0
    8.7640   -2.1660   22.7720 C   0  0  0  0  0  0  0  0  0  0  0  0
    9.4550   -0.9870   22.4990 N   0  0  0  0  0  0  0  0  0  0  0  0
   10.7150   -1.0390   23.1700 C   0  0  0  0  0  0  0  0  0  0  0  0
   11.8550   -0.2770   23.3320 C   0  0  0  0  0  0  0  0  0  0  0  0
   12.9000   -0.7560   24.1250 C   0  0  0  0  0  0  0  0  0  0  0  0
   12.8730   -1.9890   24.7960 C   0  0  0  0  0  0  0  0  0  0  0  0
   14.0930   -2.6300   25.7810 Cl  0  0  0  0  0  0  0  0  0  0  0  0
   11.7510   -2.7290   24.6250 C   0  0  0  0  0  0  0  0  0  0  0  0
   10.7610   -2.2070   23.8320 C   0  0  0  0  0  0  0  0  0  0  0  0
  1  2  1  0
  2  3  2  0
  3  4  1  0
  4  5  1  6
  4  6  1  0
  6  7  2  0
  6  8  1  0
  3  9  1  0
  9 10  2  0
 10 11  1  0
  2 12  1  0
 11 12  2  0
 12 13  1  0
 13 14  1  0
 14 15  1  0
 15 16  2  0
 16 17  1  0
 17 18  1  0
 17 19  2  0
 11 20  1  0
 14 20  2  0
 19 20  1  0
M  END
