MAK-UNK-9159f8ed-3
     RDKit          3D

 27 29  0  0  0  0  0  0  0  0999 V2000
   13.3350   -2.4660   24.7080 C   0  0  0  0  0  0  0  0  0  0  0  0
   12.2660   -2.8910   24.3000 O   0  0  0  0  0  0  0  0  0  0  0  0
   11.7900   -2.2490   23.2060 C   0  0  0  0  0  0  0  0  0  0  0  0
   12.5060   -1.8460   22.3000 O   0  0  0  0  0  0  0  0  0  0  0  0
   10.4090   -2.0560   23.1650 C   0  0  0  0  0  0  0  0  0  0  0  0
    9.6560   -1.6010   24.2280 C   0  0  0  0  0  0  0  0  0  0  0  0
    8.2910   -1.4620   24.0440 C   0  0  0  0  0  0  0  0  0  0  0  0
    7.6250   -1.7440   22.8680 C   0  0  0  0  0  0  0  0  0  0  0  0
    8.3130   -2.2070   21.7490 C   0  0  0  0  0  0  0  0  0  0  0  0
    7.6270   -2.4870   20.5790 N   0  0  0  0  0  0  0  0  0  0  0  0
    6.5740   -3.7940   20.6800 S   0  0  0  0  0  0  0  0  0  0  0  0
    5.8010   -3.8860   19.4600 O   0  0  0  0  0  0  0  0  0  0  0  0
    7.2300   -4.9520   21.2660 O   0  0  0  0  0  0  0  0  0  0  0  0
    5.6280   -3.1400   21.8230 N   0  0  0  0  0  0  0  0  0  0  0  0
    5.0410   -3.9770   22.8240 C   0  0  0  0  0  0  0  0  0  0  0  0
    4.9890   -5.3470   22.4980 C   0  0  0  0  0  0  0  0  0  0  0  0
    4.4160   -6.1940   23.4500 C   0  0  0  0  0  0  0  0  0  0  0  0
    3.9290   -5.7110   24.6510 C   0  0  0  0  0  0  0  0  0  0  0  0
    4.0320   -4.2310   24.9160 C   0  0  0  0  0  0  0  0  0  0  0  0
    3.5590   -3.7690   26.1060 N   0  0  0  0  0  0  0  0  0  0  0  0
    2.2550   -3.6800   25.9680 C   0  0  0  0  0  0  0  0  0  0  0  0
    1.7120   -2.5170   26.7810 C   0  0  0  0  0  0  0  0  0  0  0  0
    2.9780   -1.8800   27.3040 C   0  0  0  0  0  0  0  0  0  0  0  0
    4.0520   -2.4940   26.6440 C   0  0  0  0  0  0  0  0  0  0  0  0
    5.1640   -1.9970   26.5570 O   0  0  0  0  0  0  0  0  0  0  0  0
    4.5860   -3.4250   23.9820 C   0  0  0  0  0  0  0  0  0  0  0  0
    9.6920   -2.3780   21.8440 C   0  0  0  0  0  0  0  0  0  0  0  0
  1  2  1  0
  2  3  1  0
  3  4  2  0
  3  5  1  0
  5  6  2  0
  6  7  1  0
  7  8  2  0
  8  9  1  0
  9 10  1  0
 11 10  1  0
 11 12  2  0
 11 13  2  0
 11 14  1  0
 14 15  1  0
 15 16  2  0
 16 17  1  0
 17 18  2  0
 18 19  1  0
 19 20  1  0
 20 21  1  0
 21 22  1  0
 22 23  1  0
 20 24  1  0
 23 24  1  0
 24 25  2  0
 15 26  1  0
 19 26  2  0
  5 27  1  0
  9 27  2  0
M  END
