MAK-UNK-a7992eb3-21
     RDKit          3D

 29 30  0  0  0  0  0  0  0  0999 V2000
    2.5860   -2.5310   25.5730 C   0  0  0  0  0  0  0  0  0  0  0  0
    2.6040   -1.1120   26.2100 C   0  0  0  0  0  0  0  0  0  0  0  0
    1.5190   -0.9430   27.1510 O   0  0  0  0  0  0  0  0  0  0  0  0
    3.5820   -0.2160   25.8310 N   0  0  0  0  0  0  0  0  0  0  0  0
    4.8260   -0.0760   26.5750 C   0  0  2  0  0  0  0  0  0  0  0  0
    5.2440    1.2590   26.5260 C   0  0  0  0  0  0  0  0  0  0  0  0
    4.3510    2.1230   25.8310 O   0  0  0  0  0  0  0  0  0  0  0  0
    6.5100    1.6300   27.1800 N   0  0  0  0  0  0  0  0  0  0  0  0
    6.5340    3.0640   27.5050 C   0  0  0  0  0  0  0  0  0  0  0  0
    7.8150    3.7310   27.0040 C   0  0  0  0  0  0  0  0  0  0  0  0
    8.6820    4.2310   28.1540 C   0  0  0  0  0  0  0  0  0  0  0  0
    9.7840    4.8350   29.5930 Br  0  0  0  0  0  0  0  0  0  0  0  0
    5.7460   -1.0380   26.0920 C   0  0  1  0  0  0  0  0  0  0  0  0
    6.3940   -1.6440   27.1730 C   0  0  0  0  0  0  0  0  0  0  0  0
    5.0910   -1.9270   25.5510 O   0  0  0  0  0  0  0  0  0  0  0  0
    5.8480   -3.0940   25.1730 C   0  0  0  0  0  0  0  0  0  0  0  0
    5.4160   -3.8050   24.0450 C   0  0  2  0  0  0  0  0  0  0  0  0
    5.0990   -3.0490   22.8790 C   0  0  0  0  0  0  0  0  0  0  0  0
    4.8330   -3.8940   21.7990 N   0  0  0  0  0  0  0  0  0  0  0  0
    5.7430   -4.0280   20.8300 C   0  0  0  0  0  0  0  0  0  0  0  0
    6.5820   -4.6900   21.7780 C   0  0  0  0  0  0  0  0  0  0  0  0
    7.3720   -3.8570   22.5380 C   0  0  0  0  0  0  0  0  0  0  0  0
    8.2290   -4.3470   23.6850 C   0  0  0  0  0  0  0  0  0  0  0  0
    7.9450   -5.8940   23.7020 C   0  0  0  0  0  0  0  0  0  0  0  0
    7.1490   -6.6120   22.8470 C   0  0  0  0  0  0  0  0  0  0  0  0
    6.4770   -6.0170   21.8950 C   0  0  0  0  0  0  0  0  0  0  0  0
    4.6680   -5.2310   22.4490 C   0  0  0  0  0  0  0  0  0  0  0  0
    3.7650   -5.1430   23.4940 C   0  0  0  0  0  0  0  0  0  0  0  0
    4.2610   -4.5350   24.4360 O   0  0  0  0  0  0  0  0  0  0  0  0
  1  2  1  0
  2  3  2  0
  2  4  1  0
  5  4  1  6
  5  6  1  0
  6  7  2  0
  6  8  1  0
  8  9  1  0
  9 10  1  0
 10 11  3  0
 11 12  1  0
  5 13  1  0
 13 14  1  1
 13 15  1  0
 15 16  1  0
 17 16  1  1
 17 18  1  0
 18 19  1  0
 19 20  1  0
 20 21  1  0
 21 22  2  0
 22 23  1  0
 23 24  2  0
 24 25  1  0
 21 26  1  0
 25 26  2  0
 19 27  1  0
 27 28  1  0
 17 29  1  0
 28 29  1  0
M  END
