MAK-UNK-07311286-3
     RDKit          3D

 23 24  0  0  0  0  0  0  0  0999 V2000
    1.7780   -5.2830   24.2750 N   0  0  0  0  0  0  0  0  0  0  0  0
    3.1570   -5.9090   23.5520 S   0  0  0  0  0  0  0  0  0  0  0  0
    2.8160   -7.2730   23.2450 O   0  0  0  0  0  0  0  0  0  0  0  0
    3.5230   -4.9450   22.5390 O   0  0  0  0  0  0  0  0  0  0  0  0
    4.3350   -5.8270   24.8890 C   0  0  0  0  0  0  0  0  0  0  0  0
    3.9040   -6.5170   26.1350 C   0  0  0  0  0  0  0  0  0  0  0  0
    4.6610   -6.5500   27.2470 C   0  0  0  0  0  0  0  0  0  0  0  0
    6.0060   -5.8090   27.1040 C   0  0  0  0  0  0  0  0  0  0  0  0
    7.0620   -5.8410   28.6570 Br  0  0  0  0  0  0  0  0  0  0  0  0
    6.4570   -5.1340   25.9100 C   0  0  0  0  0  0  0  0  0  0  0  0
    7.9960   -4.3830   25.9690 S   0  0  0  0  0  0  0  0  0  0  0  0
    8.9960   -5.4190   25.8440 O   0  0  0  0  0  0  0  0  0  0  0  0
    8.0220   -3.4400   27.0620 O   0  0  0  0  0  0  0  0  0  0  0  0
    8.0700   -3.5060   24.5300 N   0  0  0  0  0  0  0  0  0  0  0  0
    9.2210   -2.7610   24.2130 C   0  0  0  0  0  0  0  0  0  0  0  0
    9.1410   -1.8900   23.1260 C   0  0  0  0  0  0  0  0  0  0  0  0
   10.5330   -1.3070   22.8850 C   0  0  0  0  0  0  0  0  0  0  0  0
   10.6940    0.1600   23.2060 C   0  0  0  0  0  0  0  0  0  0  0  0
   11.9090    0.8200   23.0390 C   0  0  0  0  0  0  0  0  0  0  0  0
   12.9960    0.0420   22.5590 C   0  0  0  0  0  0  0  0  0  0  0  0
   12.8840   -1.3960   22.2220 C   0  0  0  0  0  0  0  0  0  0  0  0
   11.6030   -2.0350   22.4040 C   0  0  0  0  0  0  0  0  0  0  0  0
    5.6280   -5.1300   24.7800 C   0  0  0  0  0  0  0  0  0  0  0  0
  2  1  1  0
  2  3  2  0
  2  4  2  0
  2  5  1  0
  5  6  2  0
  6  7  1  0
  7  8  2  0
  8  9  1  0
  8 10  1  0
 10 11  1  0
 11 12  2  0
 11 13  2  0
 11 14  1  0
 14 15  1  0
 15 16  1  0
 16 17  1  0
 17 18  2  0
 18 19  1  0
 19 20  2  0
 20 21  1  0
 17 22  1  0
 21 22  2  0
  5 23  1  0
 10 23  2  0
M  END
