MAK-UNK-8fdbca50-34
     RDKit          3D

 40 43  0  0  0  0  0  0  0  0999 V2000
   11.8680    4.0180   21.4110 C   0  0  0  0  0  0  0  0  0  0  0  0
   10.9820    3.4600   22.2790 C   0  0  0  0  0  0  0  0  0  0  0  0
   11.6380    2.8240   23.3410 C   0  0  0  0  0  0  0  0  0  0  0  0
    9.9030    2.4930   21.8460 N   0  0  0  0  0  0  0  0  0  0  0  0
    8.7320    3.1770   21.8300 C   0  0  0  0  0  0  0  0  0  0  0  0
    9.7570    1.0740   21.8270 C   0  0  0  0  0  0  0  0  0  0  0  0
    8.7610    0.6460   21.2310 O   0  0  0  0  0  0  0  0  0  0  0  0
   10.6030    0.0480   22.4220 C   0  0  0  0  0  0  0  0  0  0  0  0
   10.5360   -1.3500   22.2120 C   0  0  0  0  0  0  0  0  0  0  0  0
   11.0080   -1.8620   23.5640 C   0  0  0  0  0  0  0  0  0  0  0  0
   10.9780   -0.6430   24.1060 N   0  0  0  0  0  0  0  0  0  0  0  0
    9.7020   -0.2090   23.5310 C   0  0  0  0  0  0  0  0  0  0  0  0
    8.9250    1.1540   23.5020 C   0  0  0  0  0  0  0  0  0  0  0  0
    9.1880    2.3970   24.0100 N   0  0  0  0  0  0  0  0  0  0  0  0
    8.1500    3.1370   24.5120 C   0  0  0  0  0  0  0  0  0  0  0  0
    8.4600    4.1200   25.4580 C   0  0  0  0  0  0  0  0  0  0  0  0
    8.5250    5.4840   25.1980 C   0  0  0  0  0  0  0  0  0  0  0  0
    8.8520    6.1790   26.3340 C   0  0  0  0  0  0  0  0  0  0  0  0
    8.9850    7.6920   26.3390 C   0  0  0  0  0  0  0  0  0  0  0  0
    9.0680    8.3690   27.5720 C   0  0  0  0  0  0  0  0  0  0  0  0
    9.1930    9.7570   27.6220 C   0  0  0  0  0  0  0  0  0  0  0  0
    9.2360   10.5190   26.3010 C   0  0  0  0  0  0  0  0  0  0  0  0
    9.1510    9.8120   25.1190 C   0  0  0  0  0  0  0  0  0  0  0  0
    9.0270    8.4230   25.1200 C   0  0  0  0  0  0  0  0  0  0  0  0
    8.9490    7.7990   23.9380 F   0  0  0  0  0  0  0  0  0  0  0  0
    9.0140    5.3200   27.3530 N   0  0  0  0  0  0  0  0  0  0  0  0
    9.4340    5.5880   28.9920 S   0  0  0  0  0  0  0  0  0  0  0  0
    8.3530    6.3590   29.5600 O   0  0  0  0  0  0  0  0  0  0  0  0
    9.8210    4.3030   29.5210 O   0  0  0  0  0  0  0  0  0  0  0  0
   10.8970    6.6060   28.9550 C   0  0  0  0  0  0  0  0  0  0  0  0
   11.3480    7.1500   27.7520 C   0  0  0  0  0  0  0  0  0  0  0  0
   12.4790    7.9540   27.7150 C   0  0  0  0  0  0  0  0  0  0  0  0
   13.1500    8.1620   29.0650 C   0  0  0  0  0  0  0  0  0  0  0  0
   12.6980    7.6210   30.2160 N   0  0  0  0  0  0  0  0  0  0  0  0
   11.5820    6.8550   30.1380 C   0  0  0  0  0  0  0  0  0  0  0  0
    8.7650    4.0190   26.8270 C   0  0  0  0  0  0  0  0  0  0  0  0
    8.8990   -1.3180   22.8080 C   0  0  0  0  0  0  0  0  0  0  0  0
    7.9150   -2.2820   23.9470 Cl  0  0  0  0  0  0  0  0  0  0  0  0
   12.3230   -0.0800   23.7230 C   0  0  0  0  0  0  0  0  0  0  0  0
   12.1120    0.2760   22.4620 C   0  0  0  0  0  0  0  0  0  0  0  0
  1  2  1  0
  2  3  1  0
  2  4  1  0
  4  5  1  0
  4  6  1  0
  6  7  2  0
  6  8  1  0
  8  9  1  0
  9 10  1  0
 10 11  1  0
 11 12  1  0
 12 13  2  3
 13 14  1  0
 14 15  1  0
 15 16  1  0
 16 17  1  0
 17 18  2  0
 18 19  1  0
 19 20  2  0
 20 21  1  0
 21 22  2  0
 22 23  1  0
 19 24  1  0
 23 24  2  0
 24 25  1  0
 18 26  1  0
 26 27  1  0
 27 28  2  0
 27 29  2  0
 27 30  1  0
 30 31  2  0
 31 32  1  0
 32 33  2  0
 33 34  1  0
 30 35  1  0
 34 35  2  0
 16 36  2  0
 26 36  1  0
 12 37  1  0
 37 38  1  0
 11 39  1  0
  8 40  1  0
 39 40  1  0
M  END
