MAK-UNK-198e6d85-16
     RDKit          3D

 21 23  0  0  0  0  0  0  0  0999 V2000
   13.5990   -2.5710   25.6230 N   0  0  0  0  0  0  0  0  0  0  0  0
   12.4430   -1.8430   25.0230 C   0  0  0  0  0  0  0  0  0  0  0  0
   11.7280   -2.2230   23.9390 C   0  0  1  0  0  0  0  0  0  0  0  0
   10.6150   -3.0630   23.9770 O   0  0  0  0  0  0  0  0  0  0  0  0
    9.4720   -2.9470   22.9620 C   0  0  1  0  0  0  0  0  0  0  0  0
    8.1530   -3.7430   22.9380 C   0  0  2  0  0  0  0  0  0  0  0  0
    6.9690   -3.0960   22.3390 C   0  0  0  0  0  0  0  0  0  0  0  0
    6.1270   -4.1280   21.8890 C   0  0  0  0  0  0  0  0  0  0  0  0
    6.3680   -5.4560   22.2900 C   0  0  0  0  0  0  0  0  0  0  0  0
    7.0540   -5.7050   23.4940 C   0  0  0  0  0  0  0  0  0  0  0  0
    7.7760   -4.5920   23.9420 C   0  0  2  0  0  0  0  0  0  0  0  0
    7.1530   -3.9060   24.7660 O   0  0  0  0  0  0  0  0  0  0  0  0
    9.3050   -1.5420   23.1390 C   0  0  0  0  0  0  0  0  0  0  0  0
   10.5700   -1.6470   23.4920 C   0  0  0  0  0  0  0  0  0  0  0  0
   11.5180   -0.8440   23.2690 C   0  0  0  0  0  0  0  0  0  0  0  0
   12.8520   -0.6490   23.4720 C   0  0  0  0  0  0  0  0  0  0  0  0
   13.3320   -1.7100   24.1960 C   0  0  0  0  0  0  0  0  0  0  0  0
   12.5270   -2.7490   24.6030 C   0  0  0  0  0  0  0  0  0  0  0  0
   13.1770   -3.7630   25.3840 O   0  0  0  0  0  0  0  0  0  0  0  0
   11.1260   -2.7570   24.2480 C   0  0  0  0  0  0  0  0  0  0  0  0
   10.4240   -3.8450   24.6800 O   0  0  0  0  0  0  0  0  0  0  0  0
  1  2  1  0
  3  2  1  1
  3  4  1  0
  4  5  1  0
  5  6  1  0
  6  7  1  1
  7  8  1  0
  8  9  1  0
  9 10  1  0
  6 11  1  0
 10 11  1  0
 11 12  1  1
  5 13  1  1
 13 14  1  0
  3 15  1  0
 14 15  2  0
 15 16  1  0
 16 17  2  0
 17 18  1  0
 18 19  1  0
 14 20  1  0
 18 20  2  0
 20 21  1  0
M  END
