MAK-UNK-01147c51-2
     RDKit          3D

 23 25  0  0  0  0  0  0  0  0999 V2000
    5.2580   -6.0020   23.8930 N   0  0  0  0  0  0  0  0  0  0  0  0
    5.3150   -5.2720   24.9540 C   0  0  0  0  0  0  0  0  0  0  0  0
    5.9980   -3.9150   24.7500 C   0  0  1  0  0  0  0  0  0  0  0  0
    5.7250   -3.2340   23.7580 O   0  0  0  0  0  0  0  0  0  0  0  0
    6.4170   -1.9760   23.6600 C   0  0  2  0  0  0  0  0  0  0  0  0
    7.7600   -2.1250   24.0380 C   0  0  0  0  0  0  0  0  0  0  0  0
    8.7350   -2.2190   23.0650 C   0  0  0  0  0  0  0  0  0  0  0  0
    9.6910   -1.2140   22.9880 C   0  0  0  0  0  0  0  0  0  0  0  0
   10.9590   -1.4380   23.5370 C   0  0  0  0  0  0  0  0  0  0  0  0
   11.3440   -0.5720   24.5490 C   0  0  0  0  0  0  0  0  0  0  0  0
   12.6600   -0.6680   24.9670 C   0  0  0  0  0  0  0  0  0  0  0  0
   13.2950   -1.8850   25.0290 C   0  0  0  0  0  0  0  0  0  0  0  0
   12.6250   -2.9470   24.5310 C   0  0  0  0  0  0  0  0  0  0  0  0
   11.3090   -2.7320   23.8440 C   0  0  0  0  0  0  0  0  0  0  0  0
    5.6650   -1.0210   24.5840 C   0  0  0  0  0  0  0  0  0  0  0  0
    5.7240   -1.5940   25.9870 C   0  0  0  0  0  0  0  0  0  0  0  0
    5.8970   -3.0930   26.0480 C   0  0  0  0  0  0  0  0  0  0  0  0
    5.9690   -3.7480   27.2890 C   0  0  0  0  0  0  0  0  0  0  0  0
    5.8710   -2.9350   28.5550 C   0  0  0  0  0  0  0  0  0  0  0  0
    5.7090   -1.5580   28.5070 C   0  0  0  0  0  0  0  0  0  0  0  0
    5.6200   -0.8390   29.6700 O   0  0  0  0  0  0  0  0  0  0  0  0
    5.6320   -0.8510   27.1620 C   0  0  0  0  0  0  0  0  0  0  0  0
    5.4640    0.5750   27.2200 O   0  0  0  0  0  0  0  0  0  0  0  0
  1  2  1  0
  3  2  1  1
  3  4  1  0
  4  5  1  0
  5  6  1  1
  6  7  1  0
  7  8  1  0
  8  9  1  0
  9 10  1  0
 10 11  1  0
 11 12  1  0
 12 13  1  0
  9 14  1  0
 13 14  1  0
  5 15  1  0
 15 16  1  0
  3 17  1  0
 16 17  2  0
 17 18  1  0
 18 19  2  0
 19 20  1  0
 20 21  1  0
 16 22  1  0
 20 22  2  0
 22 23  1  0
M  END
