MAK-UNK-de9577cf-17
     RDKit          3D

 37 40  0  0  0  0  0  0  0  0999 V2000
    6.6740   -2.6320   28.4270 C   0  0  0  0  0  0  0  0  0  0  0  0
    5.7190   -1.6540   27.9430 N   0  0  0  0  0  0  0  0  0  0  0  0
    5.1490   -1.6830   26.6930 C   0  0  0  0  0  0  0  0  0  0  0  0
    6.2230   -1.9320   25.7080 C   0  0  0  0  0  0  0  0  0  0  0  0
    7.1300   -0.8210   25.2080 C   0  0  0  0  0  0  0  0  0  0  0  0
    8.0520   -1.2220   24.3220 C   0  0  0  0  0  0  0  0  0  0  0  0
    9.0040   -0.3650   23.7270 C   0  0  0  0  0  0  0  0  0  0  0  0
    8.5700    0.5870   22.7730 C   0  0  0  0  0  0  0  0  0  0  0  0
    9.6330    1.5020   22.1460 C   0  0  0  0  0  0  0  0  0  0  0  0
   11.0860    1.3800   22.5370 C   0  0  0  0  0  0  0  0  0  0  0  0
   11.3970    0.3330   23.5490 C   0  0  0  0  0  0  0  0  0  0  0  0
   10.3810   -0.4700   24.0920 C   0  0  0  0  0  0  0  0  0  0  0  0
   10.8040   -1.4000   25.0350 F   0  0  0  0  0  0  0  0  0  0  0  0
    7.7820   -2.6700   24.1910 N   0  0  0  0  0  0  0  0  0  0  0  0
    8.6130   -3.8010   23.2140 S   0  0  0  0  0  0  0  0  0  0  0  0
    9.0680   -4.7530   24.1880 O   0  0  0  0  0  0  0  0  0  0  0  0
    7.7090   -4.1590   22.1480 O   0  0  0  0  0  0  0  0  0  0  0  0
    9.9890   -2.9000   22.6020 C   0  0  0  0  0  0  0  0  0  0  0  0
   10.5340   -3.1100   21.3800 C   0  0  0  0  0  0  0  0  0  0  0  0
   11.5490   -2.3710   21.0040 N   0  0  0  0  0  0  0  0  0  0  0  0
   11.9900   -1.4150   21.8580 C   0  0  0  0  0  0  0  0  0  0  0  0
   11.5600   -0.9780   23.2770 C   0  0  0  0  0  0  0  0  0  0  0  0
   12.4800   -0.2820   22.9020 O   0  0  0  0  0  0  0  0  0  0  0  0
   13.3760    0.1700   23.8150 C   0  0  0  0  0  0  0  0  0  0  0  0
   14.1100    0.8510   24.7080 O   0  0  0  0  0  0  0  0  0  0  0  0
   12.5540    1.3940   23.7690 C   0  0  0  0  0  0  0  0  0  0  0  0
   11.3690    0.6680   23.9830 C   0  0  0  0  0  0  0  0  0  0  0  0
   10.6200    1.8830   23.9770 C   0  0  0  0  0  0  0  0  0  0  0  0
   11.3990    3.1720   23.7680 C   0  0  0  0  0  0  0  0  0  0  0  0
   10.4810    4.7300   23.7810 S   0  0  0  0  0  0  0  0  0  0  0  0
    9.1730    4.4570   22.7600 N   0  0  0  0  0  0  0  0  0  0  0  0
   11.2740    5.7590   23.1450 O   0  0  0  0  0  0  0  0  0  0  0  0
    9.9230    4.9400   25.0990 O   0  0  0  0  0  0  0  0  0  0  0  0
   12.9050    3.2670   23.5570 C   0  0  0  0  0  0  0  0  0  0  0  0
   13.6320    2.0540   23.5740 C   0  0  0  0  0  0  0  0  0  0  0  0
   10.4990   -1.9280   23.4440 C   0  0  0  0  0  0  0  0  0  0  0  0
    6.6980   -3.0540   25.0210 C   0  0  0  0  0  0  0  0  0  0  0  0
  1  2  1  0
  2  3  1  0
  3  4  1  0
  4  5  1  0
  5  6  2  0
  6  7  1  0
  7  8  2  0
  8  9  1  0
  9 10  2  0
 10 11  1  0
  7 12  1  0
 11 12  2  0
 12 13  1  0
  6 14  1  0
 14 15  1  0
 15 16  2  0
 15 17  2  0
 15 18  1  0
 18 19  2  0
 19 20  1  0
 20 21  2  0
 21 22  1  0
 22 23  1  0
 23 24  1  0
 24 25  2  0
 24 26  1  0
 26 27  2  0
 27 28  1  0
 28 29  2  0
 29 30  1  0
 30 31  1  0
 30 32  2  0
 30 33  2  0
 29 34  1  0
 26 35  1  0
 34 35  2  0
 18 36  1  0
 22 36  2  0
  4 37  2  0
 14 37  1  0
M  END
