MAK-UNK-0d6072ac-13
     RDKit          3D

 19 21  0  0  0  0  0  0  0  0999 V2000
    7.0750   -2.4960   21.3990 C   0  0  0  0  0  0  0  0  0  0  0  0
    6.0480   -3.3700   21.7330 N   0  0  0  0  0  0  0  0  0  0  0  0
    5.5140   -3.9570   20.5440 C   0  0  0  0  0  0  0  0  0  0  0  0
    5.5260   -3.5870   19.3900 O   0  0  0  0  0  0  0  0  0  0  0  0
    4.9600   -4.9730   20.8690 O   0  0  0  0  0  0  0  0  0  0  0  0
    6.4220   -4.4050   22.6330 C   0  0  0  0  0  0  0  0  0  0  0  0
    7.1980   -5.0890   23.5400 C   0  0  0  0  0  0  0  0  0  0  0  0
    8.4010   -4.8050   24.0710 C   0  0  0  0  0  0  0  0  0  0  0  0
    9.1730   -3.6980   23.8260 C   0  0  0  0  0  0  0  0  0  0  0  0
    8.5750   -2.8690   22.9900 C   0  0  0  0  0  0  0  0  0  0  0  0
    7.3020   -3.2520   22.4640 C   0  0  0  0  0  0  0  0  0  0  0  0
    9.2500   -1.7200   22.7060 N   0  0  0  0  0  0  0  0  0  0  0  0
   10.4580   -1.7380   23.3800 C   0  0  0  0  0  0  0  0  0  0  0  0
   11.5410   -0.8780   23.4780 C   0  0  0  0  0  0  0  0  0  0  0  0
   12.6570   -1.1610   24.2320 C   0  0  0  0  0  0  0  0  0  0  0  0
   12.7520   -2.3500   24.9440 C   0  0  0  0  0  0  0  0  0  0  0  0
   14.1130   -2.7170   25.8700 Cl  0  0  0  0  0  0  0  0  0  0  0  0
   11.6910   -3.2660   24.8920 C   0  0  0  0  0  0  0  0  0  0  0  0
   10.5400   -3.0270   24.1590 C   0  0  0  0  0  0  0  0  0  0  0  0
  1  2  1  0
  2  3  1  0
  3  4  2  0
  3  5  1  0
  2  6  1  0
  6  7  2  0
  7  8  1  0
  8  9  2  0
  9 10  1  0
  6 11  1  0
 10 11  2  0
 10 12  1  0
 12 13  1  0
 13 14  1  0
 14 15  2  0
 15 16  1  0
 16 17  1  0
 16 18  2  0
  9 19  1  0
 13 19  2  0
 18 19  1  0
M  END
