MAK-UNK-9e4a73aa-23
     RDKit          3D

 26 29  0  0  0  0  0  0  0  0999 V2000
    4.2110   -3.8680   21.9760 O   0  0  0  0  0  0  0  0  0  0  0  0
    4.7570   -4.4480   22.8910 C   0  0  0  0  0  0  0  0  0  0  0  0
    3.9840   -5.2350   23.9960 C   0  0  0  0  0  0  0  0  0  0  0  0
    2.4660   -5.3680   24.0140 C   0  0  0  0  0  0  0  0  0  0  0  0
    1.9820   -6.1090   25.1070 C   0  0  0  0  0  0  0  0  0  0  0  0
    0.6570   -6.2760   25.2110 F   0  0  0  0  0  0  0  0  0  0  0  0
    2.8330   -6.6750   26.0860 C   0  0  0  0  0  0  0  0  0  0  0  0
    2.1120   -7.5530   27.3760 Cl  0  0  0  0  0  0  0  0  0  0  0  0
    4.2300   -6.5470   26.0480 C   0  0  0  0  0  0  0  0  0  0  0  0
    4.8330   -5.8380   25.0170 C   0  0  0  0  0  0  0  0  0  0  0  0
    6.2480   -5.6870   24.9210 N   0  0  0  0  0  0  0  0  0  0  0  0
    6.9430   -5.3260   26.1260 C   0  0  0  0  0  0  0  0  0  0  0  0
    8.3650   -5.7810   26.2130 C   0  0  0  0  0  0  0  0  0  0  0  0
    9.0220   -5.4500   27.3560 C   0  0  0  0  0  0  0  0  0  0  0  0
    8.4010   -4.7210   28.3610 C   0  0  0  0  0  0  0  0  0  0  0  0
    7.0710   -4.2930   28.2760 C   0  0  0  0  0  0  0  0  0  0  0  0
    6.3320   -4.6020   27.1430 C   0  0  0  0  0  0  0  0  0  0  0  0
    6.8410   -5.4430   23.6340 C   0  0  0  0  0  0  0  0  0  0  0  0
    7.7950   -6.0590   23.1750 O   0  0  0  0  0  0  0  0  0  0  0  0
    6.1410   -4.4280   22.9870 N   0  0  0  0  0  0  0  0  0  0  0  0
    6.8570   -3.3020   22.4090 C   0  0  0  0  0  0  0  0  0  0  0  0
    8.1930   -3.1460   22.7730 C   0  0  0  0  0  0  0  0  0  0  0  0
    8.9390   -2.0050   22.1910 C   0  0  0  0  0  0  0  0  0  0  0  0
    8.1510   -1.1760   21.2900 C   0  0  0  0  0  0  0  0  0  0  0  0
    6.8350   -1.3660   20.9560 N   0  0  0  0  0  0  0  0  0  0  0  0
    6.2340   -2.4400   21.5410 C   0  0  0  0  0  0  0  0  0  0  0  0
  1  2  2  0
  2  3  1  0
  3  4  2  0
  4  5  1  0
  5  6  1  0
  5  7  2  0
  7  8  1  0
  7  9  1  0
  3 10  1  0
  9 10  2  0
 10 11  1  0
 11 12  1  0
 12 13  2  0
 13 14  1  0
 14 15  2  0
 15 16  1  0
 12 17  1  0
 16 17  2  0
 11 18  1  0
 18 19  2  0
  2 20  1  0
 18 20  1  0
 20 21  1  0
 21 22  2  0
 22 23  1  0
 23 24  2  0
 24 25  1  0
 21 26  1  0
 25 26  2  0
M  END
