MAK-UNK-f2409524-10
     RDKit          3D

 19 20  0  0  0  0  0  0  0  0999 V2000
    4.1220    1.6800   19.4440 O   0  0  0  0  0  0  0  0  0  0  0  0
    4.5840    1.0330   20.3840 C   0  0  0  0  0  0  0  0  0  0  0  0
    4.0220    0.9750   21.6500 C   0  0  0  0  0  0  0  0  0  0  0  0
    4.7200    1.5770   22.6930 C   0  0  0  0  0  0  0  0  0  0  0  0
    4.0690    2.8230   23.1020 N   0  0  0  0  0  0  0  0  0  0  0  0
    2.7340    2.5670   23.6010 C   0  0  0  0  0  0  0  0  0  0  0  0
    1.6440    3.1960   22.8960 N   0  0  0  0  0  0  0  0  0  0  0  0
    0.4650    3.5080   23.5580 C   0  0  0  0  0  0  0  0  0  0  0  0
    0.2510    4.5810   24.5690 C   0  0  0  0  0  0  0  0  0  0  0  0
   -0.5340    5.2230   25.3880 N   0  0  0  0  0  0  0  0  0  0  0  0
   -1.7370    4.4970   25.1410 C   0  0  0  0  0  0  0  0  0  0  0  0
   -1.8850    3.4360   24.2540 N   0  0  0  0  0  0  0  0  0  0  0  0
   -0.8080    2.9620   23.4890 C   0  0  0  0  0  0  0  0  0  0  0  0
    5.8330    0.2080   20.2780 C   0  0  0  0  0  0  0  0  0  0  0  0
    6.2650   -0.0400   19.0010 C   0  0  0  0  0  0  0  0  0  0  0  0
    7.1860   -1.0580   19.0710 C   0  0  0  0  0  0  0  0  0  0  0  0
    7.6420   -1.3090   20.3810 C   0  0  0  0  0  0  0  0  0  0  0  0
    7.8770   -0.2310   21.2360 C   0  0  0  0  0  0  0  0  0  0  0  0
    6.9780    0.7920   21.0870 C   0  0  0  0  0  0  0  0  0  0  0  0
  1  2  2  0
  2  3  1  0
  3  4  1  0
  4  5  1  0
  5  6  1  0
  6  7  1  0
  7  8  1  0
  8  9  2  0
  9 10  1  0
 10 11  2  0
 11 12  1  0
  8 13  1  0
 12 13  2  0
  2 14  1  0
 14 15  1  0
 15 16  1  0
 16 17  1  0
 17 18  1  0
 14 19  1  0
 18 19  1  0
M  END
