MAK-UNK-198e6d85-1
     RDKit          3D

 20 22  0  0  0  0  0  0  0  0999 V2000
   12.8580   -2.6120   22.0760 N   0  0  0  0  0  0  0  0  0  0  0  0
   12.8650   -2.5550   23.3630 C   0  0  0  0  0  0  0  0  0  0  0  0
   11.5590   -2.0410   24.0820 C   0  0  2  0  0  0  0  0  0  0  0  0
   10.5010   -2.9500   24.1390 O   0  0  0  0  0  0  0  0  0  0  0  0
    9.0610   -2.7390   23.9480 C   0  0  2  0  0  0  0  0  0  0  0  0
    8.2060   -3.6110   23.1940 C   0  0  2  0  0  0  0  0  0  0  0  0
    7.1350   -3.0570   22.5100 C   0  0  0  0  0  0  0  0  0  0  0  0
    6.1320   -3.9140   22.0400 C   0  0  0  0  0  0  0  0  0  0  0  0
    6.2820   -5.2850   22.2090 C   0  0  0  0  0  0  0  0  0  0  0  0
    7.2720   -5.7980   22.9610 N   0  0  0  0  0  0  0  0  0  0  0  0
    7.6840   -4.7830   23.8070 C   0  0  0  0  0  0  0  0  0  0  0  0
    9.1760   -1.6590   23.2450 C   0  0  0  0  0  0  0  0  0  0  0  0
   10.4380   -1.6430   23.6430 C   0  0  0  0  0  0  0  0  0  0  0  0
   11.2830   -0.7240   23.5760 C   0  0  0  0  0  0  0  0  0  0  0  0
   12.5910   -0.4330   23.8860 C   0  0  0  0  0  0  0  0  0  0  0  0
   13.2080   -1.5070   24.5010 C   0  0  0  0  0  0  0  0  0  0  0  0
   12.4890   -2.6410   24.7180 C   0  0  0  0  0  0  0  0  0  0  0  0
   13.0820   -3.5460   25.2840 O   0  0  0  0  0  0  0  0  0  0  0  0
   11.1200   -2.7440   24.3010 C   0  0  0  0  0  0  0  0  0  0  0  0
   10.5020   -3.9340   24.5730 O   0  0  0  0  0  0  0  0  0  0  0  0
  1  2  1  0
  3  2  1  6
  3  4  1  0
  4  5  1  0
  5  6  1  0
  6  7  1  1
  7  8  1  0
  8  9  1  0
  9 10  1  0
  6 11  1  0
 10 11  1  0
  5 12  1  6
 12 13  1  0
  3 14  1  0
 13 14  2  0
 14 15  1  0
 15 16  2  0
 16 17  1  0
 17 18  1  0
 13 19  1  0
 17 19  2  0
 19 20  1  0
M  END
