MAN-SYN-45e45961-2
     RDKit          3D

 18 19  0  0  0  0  0  0  0  0999 V2000
   13.7110   -1.4290   20.5750 C   0  0  0  0  0  0  0  0  0  0  0  0
   12.6680   -2.3580   20.8870 C   0  0  0  0  0  0  0  0  0  0  0  0
   13.4570   -3.3400   21.5370 O   0  0  0  0  0  0  0  0  0  0  0  0
   13.5330   -3.0160   22.8820 C   0  0  0  0  0  0  0  0  0  0  0  0
   14.4580   -3.3270   23.7800 O   0  0  0  0  0  0  0  0  0  0  0  0
   12.4800   -2.3060   23.2530 C   0  0  0  0  0  0  0  0  0  0  0  0
   11.2300   -2.8240   23.7180 N   0  0  0  0  0  0  0  0  0  0  0  0
   10.1630   -1.9280   23.3310 C   0  0  0  0  0  0  0  0  0  0  0  0
    8.7690   -2.1360   23.6080 N   0  0  0  0  0  0  0  0  0  0  0  0
    8.4320   -3.3130   24.2290 C   0  0  0  0  0  0  0  0  0  0  0  0
    7.7920   -1.7380   22.6110 C   0  0  0  0  0  0  0  0  0  0  0  0
   10.9280   -0.9030   22.5550 C   0  0  0  0  0  0  0  0  0  0  0  0
   12.4110   -0.2260   22.3460 C   0  0  0  0  0  0  0  0  0  0  0  0
   13.1740   -0.9380   23.3890 C   0  0  0  0  0  0  0  0  0  0  0  0
   12.5460   -1.7900   24.1040 C   0  0  0  0  0  0  0  0  0  0  0  0
   13.3720   -2.7940   25.4650 Br  0  0  0  0  0  0  0  0  0  0  0  0
   11.4680   -1.5980   23.5340 N   0  0  0  0  0  0  0  0  0  0  0  0
   12.5400   -1.0050   23.1560 N   0  0  0  0  0  0  0  0  0  0  0  0
  1  2  1  0
  2  3  1  0
  3  4  1  0
  4  5  2  0
  4  6  1  0
  6  7  1  0
  7  8  2  0
  8  9  1  0
  9 10  1  0
  9 11  1  0
  8 12  1  0
 12 13  2  0
 13 14  1  0
 14 15  2  0
 15 16  1  0
 12 17  1  0
 15 17  1  0
  6 18  2  0
 17 18  1  0
M  END
