MAN-SYN-45e45961-6
     RDKit          3D

 20 21  0  0  0  0  0  0  0  0999 V2000
   14.3720    1.6670   21.3190 C   0  0  0  0  0  0  0  0  0  0  0  0
   14.5450    1.0210   20.1020 N   0  0  0  0  0  0  0  0  0  0  0  0
   15.1470    1.6210   18.9870 C   0  0  0  0  0  0  0  0  0  0  0  0
   15.1590    2.9410   18.8700 C   0  0  0  0  0  0  0  0  0  0  0  0
   14.2310    3.5810   19.3150 O   0  0  0  0  0  0  0  0  0  0  0  0
   14.0330   -0.4390   20.1350 C   0  0  0  0  0  0  0  0  0  0  0  0
   13.4450   -0.9630   21.4130 C   0  0  0  0  0  0  0  0  0  0  0  0
   13.2030   -2.3420   21.8040 C   0  0  0  0  0  0  0  0  0  0  0  0
   13.5340   -2.5860   23.0810 C   0  0  0  0  0  0  0  0  0  0  0  0
   12.5260   -2.6510   24.0370 N   0  0  0  0  0  0  0  0  0  0  0  0
   11.3190   -2.0080   23.6350 C   0  0  0  0  0  0  0  0  0  0  0  0
   10.1950   -1.7060   24.4000 N   0  0  0  0  0  0  0  0  0  0  0  0
    9.0590   -1.0650   23.6880 C   0  0  0  0  0  0  0  0  0  0  0  0
    8.9910   -0.7420   22.3650 N   0  0  0  0  0  0  0  0  0  0  0  0
   10.2290   -1.1750   21.8680 N   0  0  0  0  0  0  0  0  0  0  0  0
   10.5950   -1.6040   23.4160 C   0  0  0  0  0  0  0  0  0  0  0  0
   11.6660   -2.1650   24.0020 F   0  0  0  0  0  0  0  0  0  0  0  0
    9.5040   -1.2290   23.8860 C   0  0  0  0  0  0  0  0  0  0  0  0
    9.6910   -1.0840   22.6570 C   0  0  0  0  0  0  0  0  0  0  0  0
   11.1090   -1.6460   22.3390 C   0  0  0  0  0  0  0  0  0  0  0  0
  1  2  1  0
  2  3  1  0
  3  4  1  0
  4  5  1  0
  2  6  1  0
  6  7  1  0
  7  8  1  0
  8  9  1  0
  9 10  1  0
 10 11  1  0
 11 12  2  0
 12 13  1  0
 13 14  2  0
 14 15  1  0
 15 16  1  0
 16 17  1  0
 16 18  2  0
 18 19  1  0
 11 20  1  0
 15 20  1  0
 19 20  2  0
M  END
