MAN-SYN-45e45961-10
     RDKit          3D

 14 15  0  0  0  0  0  0  0  0999 V2000
   14.1040   -3.1520   24.6040 N   0  0  0  0  0  0  0  0  0  0  0  0
   13.3560   -2.1300   24.7830 C   0  0  0  0  0  0  0  0  0  0  0  0
   13.4730   -1.5380   25.8150 O   0  0  0  0  0  0  0  0  0  0  0  0
   12.3610   -1.6500   23.7850 C   0  0  0  0  0  0  0  0  0  0  0  0
   11.2060   -2.4510   23.4320 N   0  0  0  0  0  0  0  0  0  0  0  0
   10.1920   -1.5210   23.3610 C   0  0  0  0  0  0  0  0  0  0  0  0
    8.9980   -1.6080   23.0990 O   0  0  0  0  0  0  0  0  0  0  0  0
   10.9740   -0.3900   23.7450 C   0  0  0  0  0  0  0  0  0  0  0  0
   12.3560    0.3780   23.5950 C   0  0  0  0  0  0  0  0  0  0  0  0
   13.1610   -0.2060   22.7310 C   0  0  0  0  0  0  0  0  0  0  0  0
   12.6060   -1.3440   22.0980 C   0  0  0  0  0  0  0  0  0  0  0  0
   13.0370   -2.4380   20.9460 Cl  0  0  0  0  0  0  0  0  0  0  0  0
   11.5040   -1.1940   22.7830 N   0  0  0  0  0  0  0  0  0  0  0  0
   12.4120   -0.4570   23.1590 N   0  0  0  0  0  0  0  0  0  0  0  0
  1  2  1  0
  2  3  2  0
  2  4  1  0
  4  5  1  0
  5  6  2  0
  6  7  1  0
  6  8  1  0
  8  9  2  0
  9 10  1  0
 10 11  2  0
 11 12  1  0
  8 13  1  0
 11 13  1  0
  4 14  2  0
 13 14  1  0
M  END
