MAN-SYN-45e45961-7
     RDKit          3D

 18 19  0  0  0  0  0  0  0  0999 V2000
   12.6710    4.9960   21.9740 C   0  0  0  0  0  0  0  0  0  0  0  0
   12.2070    3.9390   22.6610 C   0  0  0  0  0  0  0  0  0  0  0  0
   11.5000    3.1020   22.0970 O   0  0  0  0  0  0  0  0  0  0  0  0
   10.5770    2.5900   22.9680 C   0  0  0  0  0  0  0  0  0  0  0  0
    9.8900    3.2670   23.7320 O   0  0  0  0  0  0  0  0  0  0  0  0
   10.4510    1.1550   22.9270 C   0  0  0  0  0  0  0  0  0  0  0  0
    9.1310    0.5630   22.8370 N   0  0  0  0  0  0  0  0  0  0  0  0
    9.5920   -0.5870   23.1270 C   0  0  0  0  0  0  0  0  0  0  0  0
    9.0690   -1.9280   23.2790 N   0  0  0  0  0  0  0  0  0  0  0  0
    8.5380   -3.0300   23.9000 C   0  0  0  0  0  0  0  0  0  0  0  0
    9.2420   -2.3520   21.9930 C   0  0  0  0  0  0  0  0  0  0  0  0
   10.7260    0.1060   23.1270 C   0  0  0  0  0  0  0  0  0  0  0  0
   12.1270    0.7640   23.0970 C   0  0  0  0  0  0  0  0  0  0  0  0
   13.2430    0.0520   22.8850 C   0  0  0  0  0  0  0  0  0  0  0  0
   12.7830   -1.2840   22.7540 C   0  0  0  0  0  0  0  0  0  0  0  0
   13.4000   -2.4490   22.5520 F   0  0  0  0  0  0  0  0  0  0  0  0
   11.4730   -0.9410   22.9240 N   0  0  0  0  0  0  0  0  0  0  0  0
   11.7130    0.4140   23.0110 N   0  0  0  0  0  0  0  0  0  0  0  0
  1  2  1  0
  2  3  1  0
  3  4  1  0
  4  5  2  0
  4  6  1  0
  6  7  1  0
  7  8  2  0
  8  9  1  0
  9 10  1  0
  9 11  1  0
  8 12  1  0
 12 13  2  0
 13 14  1  0
 14 15  2  0
 15 16  1  0
 12 17  1  0
 15 17  1  0
  6 18  2  0
 17 18  1  0
M  END
