MAN-SYN-45e45961-5
     RDKit          3D

 14 15  0  0  0  0  0  0  0  0999 V2000
    9.4800    2.4670   23.9250 N   0  0  0  0  0  0  0  0  0  0  0  0
   10.5720    1.9420   23.4590 C   0  0  0  0  0  0  0  0  0  0  0  0
   11.5370    2.6710   23.2640 O   0  0  0  0  0  0  0  0  0  0  0  0
   10.7090    0.4700   23.1520 C   0  0  0  0  0  0  0  0  0  0  0  0
    9.5640   -0.2840   22.6290 N   0  0  0  0  0  0  0  0  0  0  0  0
    9.7170   -1.2040   23.5490 C   0  0  0  0  0  0  0  0  0  0  0  0
    9.1830   -2.2450   23.8950 O   0  0  0  0  0  0  0  0  0  0  0  0
   10.7870   -0.4070   23.9770 C   0  0  0  0  0  0  0  0  0  0  0  0
   12.2430    0.2140   23.9820 C   0  0  0  0  0  0  0  0  0  0  0  0
   13.0490   -0.2760   23.0390 C   0  0  0  0  0  0  0  0  0  0  0  0
   12.4690   -1.2900   22.2560 C   0  0  0  0  0  0  0  0  0  0  0  0
   12.9810   -2.0320   21.2650 F   0  0  0  0  0  0  0  0  0  0  0  0
   11.3270   -1.1850   22.9250 N   0  0  0  0  0  0  0  0  0  0  0  0
   11.9030   -0.1910   23.4340 N   0  0  0  0  0  0  0  0  0  0  0  0
  1  2  1  0
  2  3  2  0
  2  4  1  0
  4  5  1  0
  5  6  2  0
  6  7  1  0
  6  8  1  0
  8  9  2  0
  9 10  1  0
 10 11  2  0
 11 12  1  0
  8 13  1  0
 11 13  1  0
  4 14  2  0
 13 14  1  0
M  END
