MAN-SYN-45e45961-3
     RDKit          3D

 19 20  0  0  0  0  0  0  0  0999 V2000
   13.3610    0.3210   22.9070 C   0  0  0  0  0  0  0  0  0  0  0  0
   13.5300   -1.1210   23.0210 C   0  0  0  0  0  0  0  0  0  0  0  0
   14.0320   -1.5930   24.3100 O   0  0  0  0  0  0  0  0  0  0  0  0
   13.2030   -2.5120   24.7880 C   0  0  0  0  0  0  0  0  0  0  0  0
   13.4050   -3.3920   25.5950 O   0  0  0  0  0  0  0  0  0  0  0  0
   12.0560   -2.1240   24.0010 C   0  0  0  0  0  0  0  0  0  0  0  0
   10.7350   -2.8970   23.8430 N   0  0  0  0  0  0  0  0  0  0  0  0
    9.9310   -1.8520   23.8770 C   0  0  0  0  0  0  0  0  0  0  0  0
    8.5140   -1.6510   23.7610 N   0  0  0  0  0  0  0  0  0  0  0  0
    7.7460   -2.6980   24.2180 C   0  0  0  0  0  0  0  0  0  0  0  0
    7.8330   -3.9390   23.6260 C   0  0  0  0  0  0  0  0  0  0  0  0
    6.9130   -2.4250   25.2630 O   0  0  0  0  0  0  0  0  0  0  0  0
   10.9080   -0.9700   24.1110 C   0  0  0  0  0  0  0  0  0  0  0  0
   12.2430   -0.3310   23.8260 C   0  0  0  0  0  0  0  0  0  0  0  0
   12.9770   -0.7240   22.7840 C   0  0  0  0  0  0  0  0  0  0  0  0
   12.1820   -1.6540   22.2290 C   0  0  0  0  0  0  0  0  0  0  0  0
   12.7830   -2.4230   20.7920 Br  0  0  0  0  0  0  0  0  0  0  0  0
   11.1690   -1.6370   23.0030 N   0  0  0  0  0  0  0  0  0  0  0  0
   12.1290   -0.9900   23.3460 N   0  0  0  0  0  0  0  0  0  0  0  0
  1  2  1  0
  2  3  1  0
  3  4  1  0
  4  5  2  0
  4  6  1  0
  6  7  1  0
  7  8  2  0
  8  9  1  0
  9 10  1  0
 10 11  1  0
 10 12  2  0
  8 13  1  0
 13 14  2  0
 14 15  1  0
 15 16  2  0
 16 17  1  0
 13 18  1  0
 16 18  1  0
  6 19  2  0
 18 19  1  0
M  END
