MAN-SYN-45e45961-8
     RDKit          3D

 19 20  0  0  0  0  0  0  0  0999 V2000
   11.8740   -2.1970   21.5160 C   0  0  0  0  0  0  0  0  0  0  0  0
   13.2840   -1.8920   21.7060 C   0  0  0  0  0  0  0  0  0  0  0  0
   13.8340   -2.6900   22.7990 O   0  0  0  0  0  0  0  0  0  0  0  0
   13.3820   -2.3090   24.0920 C   0  0  0  0  0  0  0  0  0  0  0  0
   13.9470   -2.5930   25.2950 O   0  0  0  0  0  0  0  0  0  0  0  0
   12.2040   -1.5690   24.0110 C   0  0  0  0  0  0  0  0  0  0  0  0
   10.8860   -2.0920   24.0750 N   0  0  0  0  0  0  0  0  0  0  0  0
    9.8150   -1.0870   23.9380 C   0  0  0  0  0  0  0  0  0  0  0  0
    8.4460   -1.5460   23.9400 N   0  0  0  0  0  0  0  0  0  0  0  0
    8.2250   -2.9060   24.0610 C   0  0  0  0  0  0  0  0  0  0  0  0
    6.9120   -3.3560   24.6650 C   0  0  0  0  0  0  0  0  0  0  0  0
    9.0690   -3.6960   23.6970 O   0  0  0  0  0  0  0  0  0  0  0  0
   10.4530    0.3310   23.8160 C   0  0  0  0  0  0  0  0  0  0  0  0
   11.9170    1.0160   23.6960 C   0  0  0  0  0  0  0  0  0  0  0  0
   12.7490   -0.2840   23.7270 C   0  0  0  0  0  0  0  0  0  0  0  0
   12.0490   -1.4240   23.8310 C   0  0  0  0  0  0  0  0  0  0  0  0
   12.4110   -2.7220   23.8880 F   0  0  0  0  0  0  0  0  0  0  0  0
   11.0170   -0.7970   23.8490 N   0  0  0  0  0  0  0  0  0  0  0  0
   12.2100   -0.2710   23.7760 N   0  0  0  0  0  0  0  0  0  0  0  0
  1  2  1  0
  2  3  1  0
  3  4  1  0
  4  5  2  0
  4  6  1  0
  6  7  1  0
  7  8  2  0
  8  9  1  0
  9 10  1  0
 10 11  1  0
 10 12  2  0
  8 13  1  0
 13 14  2  0
 14 15  1  0
 15 16  2  0
 16 17  1  0
 13 18  1  0
 16 18  1  0
  6 19  2  0
 18 19  1  0
M  END
