MAN-SYN-45e45961-4
     RDKit          3D

 18 19  0  0  0  0  0  0  0  0999 V2000
   12.9300    4.7360   21.5500 C   0  0  0  0  0  0  0  0  0  0  0  0
   13.2210    3.7330   22.6210 C   0  0  0  0  0  0  0  0  0  0  0  0
   12.2570    2.5830   22.7310 C   0  0  2  0  0  0  0  0  0  0  0  0
   10.8140    3.0400   22.7940 C   0  0  0  0  0  0  0  0  0  0  0  0
   12.4210    1.7420   23.6150 O   0  0  0  0  0  0  0  0  0  0  0  0
   12.5730    0.3500   23.5310 C   0  0  0  0  0  0  0  0  0  0  0  0
   13.4100   -0.5060   23.3410 N   0  0  0  0  0  0  0  0  0  0  0  0
   12.4550   -1.5610   23.7530 C   0  0  0  0  0  0  0  0  0  0  0  0
   12.8270   -2.8060   24.3810 C   0  0  0  0  0  0  0  0  0  0  0  0
   14.1260   -3.0630   24.7990 N   0  0  0  0  0  0  0  0  0  0  0  0
   11.7690   -3.6310   24.5770 O   0  0  0  0  0  0  0  0  0  0  0  0
   10.9020   -1.5690   23.7890 N   0  0  0  0  0  0  0  0  0  0  0  0
   10.5040   -0.4050   23.3280 N   0  0  0  0  0  0  0  0  0  0  0  0
   10.5800    0.7540   22.9670 C   0  0  0  0  0  0  0  0  0  0  0  0
    9.9870    1.8490   22.4760 F   0  0  0  0  0  0  0  0  0  0  0  0
    9.3160   -0.1470   22.9880 C   0  0  0  0  0  0  0  0  0  0  0  0
   10.3440   -1.2260   23.5860 C   0  0  0  0  0  0  0  0  0  0  0  0
   11.6770   -0.6140   23.6750 C   0  0  0  0  0  0  0  0  0  0  0  0
  1  2  1  0
  2  3  1  0
  3  4  1  1
  3  5  1  0
  5  6  1  0
  6  7  2  0
  7  8  1  0
  8  9  1  0
  9 10  1  0
  9 11  2  0
  8 12  2  0
 12 13  1  0
 13 14  1  0
 14 15  1  0
 14 16  2  0
 16 17  1  0
  6 18  1  0
 13 18  1  0
 17 18  2  0
M  END
