MAR-SOS-82e3a7c7-6
     RDKit          3D

 29 31  0  0  0  0  0  0  0  0999 V2000
    2.2880   -2.4300   27.0120 C   0  0  0  0  0  0  0  0  0  0  0  0
    3.5760   -2.9490   26.9780 N   0  0  0  0  0  0  0  0  0  0  0  0
    4.4340   -3.2180   27.9710 C   0  0  0  0  0  0  0  0  0  0  0  0
    5.6720   -3.7510   27.5150 C   0  0  0  0  0  0  0  0  0  0  0  0
    5.5090   -3.7920   26.1240 C   0  0  0  0  0  0  0  0  0  0  0  0
    6.4610   -4.2440   25.2030 C   0  0  0  0  0  0  0  0  0  0  0  0
    6.6010   -5.4390   24.9280 O   0  0  0  0  0  0  0  0  0  0  0  0
    7.3230   -3.2110   24.6340 N   0  0  0  0  0  0  0  0  0  0  0  0
    8.3890   -2.6250   23.9770 C   0  0  2  0  0  0  0  0  0  0  0  0
    8.7880   -1.3400   24.3620 C   0  0  0  0  0  0  0  0  0  0  0  0
   10.2000   -0.9000   23.9500 C   0  0  0  0  0  0  0  0  0  0  0  0
   10.6360    0.5300   24.1870 C   0  0  0  0  0  0  0  0  0  0  0  0
   11.8660    1.0450   23.8460 C   0  0  0  0  0  0  0  0  0  0  0  0
   12.9270    0.2470   23.2030 C   0  0  0  0  0  0  0  0  0  0  0  0
   12.5900   -1.2120   22.9270 C   0  0  0  0  0  0  0  0  0  0  0  0
   11.2880   -1.7510   23.2870 C   0  0  0  0  0  0  0  0  0  0  0  0
    8.0410   -2.6730   22.6460 C   0  0  0  0  0  0  0  0  0  0  0  0
    6.9750   -3.0730   22.1720 O   0  0  0  0  0  0  0  0  0  0  0  0
    9.1750   -2.1400   21.7630 C   0  0  0  0  0  0  0  0  0  0  0  0
    9.9310   -2.9140   21.2640 O   0  0  0  0  0  0  0  0  0  0  0  0
    9.2310   -0.7860   21.7010 N   0  0  0  0  0  0  0  0  0  0  0  0
   10.2700   -0.1290   22.5170 C   0  0  0  0  0  0  0  0  0  0  0  0
   11.3510   -0.9820   22.9110 C   0  0  0  0  0  0  0  0  0  0  0  0
   11.8000   -1.1710   24.2650 C   0  0  0  0  0  0  0  0  0  0  0  0
   12.8760   -2.0240   24.5280 C   0  0  0  0  0  0  0  0  0  0  0  0
   13.4640   -2.6550   23.4430 C   0  0  0  0  0  0  0  0  0  0  0  0
   13.0100   -2.4630   22.1250 C   0  0  0  0  0  0  0  0  0  0  0  0
   11.9900   -1.6690   21.7760 N   0  0  0  0  0  0  0  0  0  0  0  0
    4.2270   -3.3000   25.8010 N   0  0  0  0  0  0  0  0  0  0  0  0
  1  2  1  0
  2  3  1  0
  3  4  2  0
  4  5  1  0
  5  6  1  0
  6  7  2  0
  6  8  1  0
  8  9  1  0
  9 10  1  1
 10 11  1  0
 11 12  2  0
 12 13  1  0
 13 14  2  0
 14 15  1  0
 11 16  1  0
 15 16  2  0
  9 17  1  0
 17 18  2  0
 17 19  1  0
 19 20  2  0
 19 21  1  0
 21 22  1  0
 22 23  1  0
 23 24  2  0
 24 25  1  0
 25 26  2  0
 26 27  1  0
 23 28  1  0
 27 28  2  0
  2 29  1  0
  5 29  2  0
M  END
