MAR-UNI-c84db004-7
     RDKit          3D

 27 30  0  0  0  0  0  0  0  0999 V2000
   -2.2520   -3.4890   26.9910 C   0  0  0  0  0  0  0  0  0  0  0  0
   -1.7080   -2.9800   26.0170 O   0  0  0  0  0  0  0  0  0  0  0  0
   -0.8010   -3.7900   25.3970 C   0  0  0  0  0  0  0  0  0  0  0  0
   -1.3660   -4.8130   24.7530 C   0  0  0  0  0  0  0  0  0  0  0  0
   -0.5250   -5.7820   24.0280 C   0  0  0  0  0  0  0  0  0  0  0  0
    0.8730   -5.6110   24.0280 C   0  0  0  0  0  0  0  0  0  0  0  0
    1.8070   -6.5260   23.3300 C   0  0  0  0  0  0  0  0  0  0  0  0
    1.2240   -7.7260   22.8260 O   0  0  0  0  0  0  0  0  0  0  0  0
    3.0910   -6.2140   23.1940 C   0  0  0  0  0  0  0  0  0  0  0  0
    3.6050   -5.0530   23.9160 C   0  0  0  0  0  0  0  0  0  0  0  0
    5.0150   -4.6200   23.8000 C   0  0  0  0  0  0  0  0  0  0  0  0
    6.0030   -5.4910   23.3260 C   0  0  0  0  0  0  0  0  0  0  0  0
    7.3200   -5.1070   23.2080 C   0  0  0  0  0  0  0  0  0  0  0  0
    7.6810   -3.8030   23.5750 C   0  0  0  0  0  0  0  0  0  0  0  0
    8.9790   -3.3450   23.4810 O   0  0  0  0  0  0  0  0  0  0  0  0
    9.1420   -1.9130   23.4810 C   0  0  0  0  0  0  0  0  0  0  0  0
   10.4620   -1.3620   23.2760 C   0  0  0  0  0  0  0  0  0  0  0  0
   10.7130    0.0350   23.2830 C   0  0  0  0  0  0  0  0  0  0  0  0
   11.9700    0.6050   23.0890 C   0  0  0  0  0  0  0  0  0  0  0  0
   13.0220   -0.2210   22.8820 C   0  0  0  0  0  0  0  0  0  0  0  0
   12.8720   -1.6040   22.8580 C   0  0  0  0  0  0  0  0  0  0  0  0
   11.5900   -2.1890   23.0540 C   0  0  0  0  0  0  0  0  0  0  0  0
    6.7200   -2.9130   24.0510 C   0  0  0  0  0  0  0  0  0  0  0  0
    5.3920   -3.3160   24.1630 C   0  0  0  0  0  0  0  0  0  0  0  0
    2.7770   -4.2730   24.7620 O   0  0  0  0  0  0  0  0  0  0  0  0
    1.4230   -4.5240   24.7160 C   0  0  0  0  0  0  0  0  0  0  0  0
    0.5920   -3.6320   25.3900 C   0  0  0  0  0  0  0  0  0  0  0  0
  1  2  1  0
  2  3  1  0
  3  4  2  0
  4  5  1  0
  5  6  2  0
  6  7  1  0
  7  8  2  0
  7  9  1  0
  9 10  2  0
 10 11  1  0
 11 12  2  0
 12 13  1  0
 13 14  2  0
 14 15  1  0
 15 16  1  0
 16 17  1  0
 17 18  2  0
 18 19  1  0
 19 20  2  0
 20 21  1  0
 17 22  1  0
 21 22  2  0
 14 23  1  0
 11 24  1  0
 23 24  2  0
 10 25  1  0
  6 26  1  0
 25 26  1  0
  3 27  1  0
 26 27  2  0
M  END
