MAR-UNI-c84db004-12
     RDKit          3D

 23 26  0  0  0  0  0  0  0  0999 V2000
    9.2110   -3.3660   23.6200 C   0  0  0  0  0  0  0  0  0  0  0  0
    9.9120   -2.0970   23.4340 C   0  0  0  0  0  0  0  0  0  0  0  0
    8.9980   -0.9570   23.4680 C   0  0  0  0  0  0  0  0  0  0  0  0
    9.5490    0.3770   23.2900 C   0  0  0  0  0  0  0  0  0  0  0  0
    8.6910    1.2440   23.3360 O   0  0  0  0  0  0  0  0  0  0  0  0
   10.9700    0.6000   23.0860 C   0  0  0  0  0  0  0  0  0  0  0  0
   11.2680    1.8590   22.9420 C   0  0  0  0  0  0  0  0  0  0  0  0
   12.6150    2.2880   22.7350 C   0  0  0  0  0  0  0  0  0  0  0  0
   13.6120    1.1540   22.7220 C   0  0  0  0  0  0  0  0  0  0  0  0
   13.2120   -0.2600   22.8870 C   0  0  0  0  0  0  0  0  0  0  0  0
   11.7930   -0.5060   23.0740 C   0  0  0  0  0  0  0  0  0  0  0  0
   11.2800   -1.9010   23.2450 C   0  0  0  0  0  0  0  0  0  0  0  0
   12.9350    3.6540   22.5550 C   0  0  0  0  0  0  0  0  0  0  0  0
   14.0030    4.0490   22.1150 O   0  0  0  0  0  0  0  0  0  0  0  0
   11.9870    4.6330   22.8810 C   0  0  0  0  0  0  0  0  0  0  0  0
   12.4350    5.8540   22.9530 C   0  0  0  0  0  0  0  0  0  0  0  0
   13.7170    6.2250   22.7040 O   0  0  0  0  0  0  0  0  0  0  0  0
   11.4630    6.8850   23.3250 C   0  0  0  0  0  0  0  0  0  0  0  0
   10.1240    6.5690   23.5680 C   0  0  0  0  0  0  0  0  0  0  0  0
    9.6630    5.2720   23.4670 C   0  0  0  0  0  0  0  0  0  0  0  0
   10.6610    4.3390   23.1140 C   0  0  0  0  0  0  0  0  0  0  0  0
   10.2380    2.9470   22.9820 C   0  0  0  0  0  0  0  0  0  0  0  0
    9.0360    2.7380   22.8990 O   0  0  0  0  0  0  0  0  0  0  0  0
  1  2  1  0
  2  3  2  0
  3  4  1  0
  4  5  1  0
  4  6  2  0
  6  7  1  0
  7  8  2  0
  8  9  1  0
  9 10  2  0
  6 11  1  0
 10 11  1  0
  2 12  1  0
 11 12  2  0
  8 13  1  0
 13 14  2  0
 13 15  1  0
 15 16  2  0
 16 17  1  0
 16 18  1  0
 18 19  2  0
 19 20  1  0
 15 21  1  0
 20 21  2  0
  7 22  1  0
 21 22  1  0
 22 23  2  0
M  END
