MAR-SOS-c7881798-6
     RDKit          3D

 29 31  0  0  0  0  0  0  0  0999 V2000
   -1.5340    5.5480   18.5110 C   0  0  0  0  0  0  0  0  0  0  0  0
   -0.3680    4.8350   18.7310 N   0  0  0  0  0  0  0  0  0  0  0  0
    0.7530    5.0170   17.8500 C   0  0  0  0  0  0  0  0  0  0  0  0
    1.7630    4.0880   18.4260 C   0  0  0  0  0  0  0  0  0  0  0  0
    1.1950    3.4650   19.5380 C   0  0  0  0  0  0  0  0  0  0  0  0
    1.8350    2.5230   20.3440 C   0  0  0  0  0  0  0  0  0  0  0  0
    1.1370    1.4300   20.7730 O   0  0  0  0  0  0  0  0  0  0  0  0
    3.1520    2.8630   20.6300 N   0  0  0  0  0  0  0  0  0  0  0  0
    4.2450    2.0950   20.2540 C   0  0  1  0  0  0  0  0  0  0  0  0
    4.5650    2.0220   18.8900 C   0  0  0  0  0  0  0  0  0  0  0  0
    5.2730    0.8660   18.4700 C   0  0  0  0  0  0  0  0  0  0  0  0
    6.2300    0.9360   17.2880 C   0  0  0  0  0  0  0  0  0  0  0  0
    6.8830   -0.2400   16.9490 C   0  0  0  0  0  0  0  0  0  0  0  0
    6.7310   -1.4520   17.5860 C   0  0  0  0  0  0  0  0  0  0  0  0
    5.8400   -1.4830   18.6650 C   0  0  0  0  0  0  0  0  0  0  0  0
    5.1270   -0.3710   19.1060 C   0  0  0  0  0  0  0  0  0  0  0  0
    5.4190    2.6940   21.0310 C   0  0  0  0  0  0  0  0  0  0  0  0
    5.3590    3.7350   21.6950 O   0  0  0  0  0  0  0  0  0  0  0  0
    6.6290    1.9870   20.9920 C   0  0  0  0  0  0  0  0  0  0  0  0
    7.8650    2.6470   21.0430 O   0  0  0  0  0  0  0  0  0  0  0  0
    6.4340    0.5380   20.9180 N   0  0  0  0  0  0  0  0  0  0  0  0
    7.6750   -0.1680   20.6200 C   0  0  0  0  0  0  0  0  0  0  0  0
    7.7670   -1.3570   21.4780 C   0  0  0  0  0  0  0  0  0  0  0  0
    8.8250   -1.9210   22.2080 C   0  0  0  0  0  0  0  0  0  0  0  0
    9.1350   -2.7730   22.9110 C   0  0  0  0  0  0  0  0  0  0  0  0
    7.9810   -3.5520   23.1110 C   0  0  0  0  0  0  0  0  0  0  0  0
    6.7510   -3.1630   22.4490 C   0  0  0  0  0  0  0  0  0  0  0  0
    6.6150   -2.0600   21.6170 N   0  0  0  0  0  0  0  0  0  0  0  0
   -0.1090    3.9220   19.7260 N   0  0  0  0  0  0  0  0  0  0  0  0
  1  2  1  0
  2  3  1  0
  3  4  2  0
  4  5  1  0
  5  6  1  0
  6  7  2  0
  6  8  1  0
  8  9  1  0
  9 10  1  6
 10 11  1  0
 11 12  2  0
 12 13  1  0
 13 14  2  0
 14 15  1  0
 11 16  1  0
 15 16  2  0
  9 17  1  0
 17 18  2  0
 17 19  1  0
 19 20  2  0
 19 21  1  0
 21 22  1  0
 22 23  1  0
 23 24  2  0
 24 25  1  0
 25 26  2  0
 26 27  1  0
 23 28  1  0
 27 28  2  0
  2 29  1  0
  5 29  2  0
M  END
