MAR-SOS-82e3a7c7-7
     RDKit          3D

 33 36  0  0  0  0  0  0  0  0999 V2000
    7.1540    0.5240   26.1800 O   0  0  0  0  0  0  0  0  0  0  0  0
    8.0180   -0.0260   25.4980 C   0  0  0  0  0  0  0  0  0  0  0  0
    9.3630    0.3190   25.5070 N   0  0  0  0  0  0  0  0  0  0  0  0
   10.3690   -0.1810   24.6510 C   0  0  0  0  0  0  0  0  0  0  0  0
   11.2040   -1.2010   24.9680 C   0  0  0  0  0  0  0  0  0  0  0  0
   12.6750   -1.0880   24.9640 C   0  0  0  0  0  0  0  0  0  0  0  0
   13.4440   -2.2200   25.3070 C   0  0  0  0  0  0  0  0  0  0  0  0
   12.7710   -3.4620   25.6590 C   0  0  0  0  0  0  0  0  0  0  0  0
   11.4350   -3.5640   25.6510 C   0  0  0  0  0  0  0  0  0  0  0  0
   10.5700   -2.4770   25.3170 N   0  0  0  0  0  0  0  0  0  0  0  0
    7.6520   -1.1640   24.5300 C   0  0  0  0  0  0  0  0  0  0  0  0
    6.5730   -1.1550   23.9430 O   0  0  0  0  0  0  0  0  0  0  0  0
    8.6770   -2.2260   24.3580 C   0  0  2  0  0  0  0  0  0  0  0  0
    9.2900   -2.1240   23.0790 C   0  0  0  0  0  0  0  0  0  0  0  0
   10.4910   -1.3970   23.0000 C   0  0  0  0  0  0  0  0  0  0  0  0
   10.5870   -0.0370   23.3730 C   0  0  0  0  0  0  0  0  0  0  0  0
   11.7980    0.6900   23.2990 C   0  0  0  0  0  0  0  0  0  0  0  0
   12.9890    0.0990   22.8420 C   0  0  0  0  0  0  0  0  0  0  0  0
   12.9090   -1.2590   22.4590 C   0  0  0  0  0  0  0  0  0  0  0  0
   11.7040   -1.9890   22.5330 C   0  0  0  0  0  0  0  0  0  0  0  0
    7.8900   -3.4960   24.4500 N   0  0  0  0  0  0  0  0  0  0  0  0
    7.8750   -4.3280   25.6260 C   0  0  0  0  0  0  0  0  0  0  0  0
    8.9890   -5.1900   25.9830 O   0  0  0  0  0  0  0  0  0  0  0  0
    6.7890   -4.4030   26.5280 C   0  0  2  0  0  0  0  0  0  0  0  0
    7.1340   -4.5490   27.9230 C   0  0  0  0  0  0  0  0  0  0  0  0
    6.3100   -5.6680   28.5150 C   0  0  0  0  0  0  0  0  0  0  0  0
    5.5400   -6.1420   27.4800 C   0  0  0  0  0  0  0  0  0  0  0  0
    5.8440   -5.5410   26.3220 N   0  0  0  0  0  0  0  0  0  0  0  0
    4.9380   -5.6440   25.3120 C   0  0  0  0  0  0  0  0  0  0  0  0
    4.2600   -6.7870   24.9510 C   0  0  0  0  0  0  0  0  0  0  0  0
    3.3130   -6.6190   23.7880 C   0  0  0  0  0  0  0  0  0  0  0  0
    3.3790   -5.0060   23.2700 S   0  0  0  0  0  0  0  0  0  0  0  0
    4.5520   -4.5960   24.4760 C   0  0  0  0  0  0  0  0  0  0  0  0
  1  2  2  0
  2  3  1  0
  3  4  1  0
  4  5  1  0
  5  6  2  0
  6  7  1  0
  7  8  2  0
  8  9  1  0
  5 10  1  0
  9 10  2  0
  2 11  1  0
 11 12  2  0
 11 13  1  0
 13 14  1  6
 14 15  1  0
 15 16  2  0
 16 17  1  0
 17 18  2  0
 18 19  1  0
 15 20  1  0
 19 20  2  0
 13 21  1  0
 21 22  1  0
 22 23  2  0
 24 22  1  6
 24 25  1  0
 25 26  1  0
 26 27  1  0
 24 28  1  0
 27 28  1  0
 28 29  1  0
 29 30  1  0
 30 31  2  0
 31 32  1  0
 29 33  2  0
 32 33  1  0
M  END
