MAR-UNI-c84db004-14
     RDKit          3D

 36 41  0  0  0  0  0  0  0  0999 V2000
    6.0580   -6.6700   22.7150 C   0  0  0  0  0  0  0  0  0  0  0  0
    6.2580   -6.0870   23.7790 O   0  0  0  0  0  0  0  0  0  0  0  0
    6.4110   -4.7570   23.5800 C   0  0  0  0  0  0  0  0  0  0  0  0
    7.5450   -4.4490   22.9850 C   0  0  0  0  0  0  0  0  0  0  0  0
    7.8800   -3.0620   22.6570 C   0  0  0  0  0  0  0  0  0  0  0  0
    6.9260   -2.0460   22.9980 C   0  0  0  0  0  0  0  0  0  0  0  0
    5.6540   -2.3750   23.6930 C   0  0  0  0  0  0  0  0  0  0  0  0
    4.7880   -1.4280   24.0310 C   0  0  0  0  0  0  0  0  0  0  0  0
    3.5550   -1.8160   24.7190 C   0  0  0  0  0  0  0  0  0  0  0  0
    3.3430   -3.2520   24.9870 C   0  0  0  0  0  0  0  0  0  0  0  0
    4.2830   -4.2150   24.6070 C   0  0  0  0  0  0  0  0  0  0  0  0
    5.4400   -3.8170   23.9690 C   0  0  0  0  0  0  0  0  0  0  0  0
    7.0970   -0.8400   22.7330 O   0  0  0  0  0  0  0  0  0  0  0  0
    7.6580   -0.5900   21.4360 C   0  0  0  0  0  0  0  0  0  0  0  0
    6.9080   -0.8320   20.2490 C   0  0  0  0  0  0  0  0  0  0  0  0
    8.0460    0.8710   21.3620 C   0  0  0  0  0  0  0  0  0  0  0  0
    8.8830   -1.4780   21.2690 C   0  0  0  0  0  0  0  0  0  0  0  0
    9.0820   -2.6610   22.0000 C   0  0  1  0  0  0  0  0  0  0  0  0
   10.1520   -2.6440   22.7040 O   0  0  0  0  0  0  0  0  0  0  0  0
   10.3610   -1.3520   22.8760 C   0  0  0  0  0  0  0  0  0  0  0  0
   11.5480   -0.6170   22.6560 C   0  0  0  0  0  0  0  0  0  0  0  0
   11.5320    0.8110   22.8540 C   0  0  0  0  0  0  0  0  0  0  0  0
   10.2040    1.4200   23.2430 C   0  0  0  0  0  0  0  0  0  0  0  0
    9.1290    0.6650   23.4690 C   0  0  0  0  0  0  0  0  0  0  0  0
    9.2360   -0.7560   23.2990 C   0  0  0  0  0  0  0  0  0  0  0  0
    8.1450   -1.5340   23.5810 C   0  0  0  0  0  0  0  0  0  0  0  0
   10.0030    2.7830   23.4210 C   0  0  0  0  0  0  0  0  0  0  0  0
    8.9420    3.2320   23.8470 O   0  0  0  0  0  0  0  0  0  0  0  0
   11.1350    3.6750   23.0770 C   0  0  0  0  0  0  0  0  0  0  0  0
   10.8810    5.0610   23.1010 C   0  0  0  0  0  0  0  0  0  0  0  0
   11.9180    5.9420   22.7890 C   0  0  0  0  0  0  0  0  0  0  0  0
   13.1630    5.4280   22.4640 C   0  0  0  0  0  0  0  0  0  0  0  0
   13.3730    4.0530   22.4500 C   0  0  0  0  0  0  0  0  0  0  0  0
   12.3790    3.1550   22.7510 C   0  0  0  0  0  0  0  0  0  0  0  0
   12.6360    1.7490   22.7310 C   0  0  0  0  0  0  0  0  0  0  0  0
   13.7600    1.2980   22.6720 O   0  0  0  0  0  0  0  0  0  0  0  0
  1  2  1  0
  2  3  1  0
  3  4  2  0
  4  5  1  0
  5  6  2  0
  6  7  1  0
  7  8  1  0
  8  9  2  0
  9 10  1  0
 10 11  2  0
  3 12  1  0
  7 12  2  0
 11 12  1  0
  6 13  1  0
 13 14  1  0
 14 15  1  0
 14 16  1  0
 14 17  1  0
  5 18  1  0
 17 18  1  0
 18 19  1  1
 19 20  1  0
 20 21  2  0
 21 22  1  0
 22 23  2  0
 23 24  1  0
 20 25  1  0
 24 25  2  0
 25 26  1  0
 23 27  1  0
 27 28  2  0
 27 29  1  0
 29 30  2  0
 30 31  1  0
 31 32  2  0
 32 33  1  0
 29 34  1  0
 33 34  2  0
 22 35  1  0
 34 35  1  0
 35 36  2  0
M  END
