MAR-SOS-c7881798-10
     RDKit          3D

 28 30  0  0  0  0  0  0  0  0999 V2000
    9.3310   -1.4900   23.8910 C   0  0  0  0  0  0  0  0  0  0  0  0
    8.3480   -1.5010   22.9100 N   0  0  0  0  0  0  0  0  0  0  0  0
    7.0590   -2.0300   23.3780 C   0  0  0  0  0  0  0  0  0  0  0  0
    5.9730   -1.6400   22.3430 C   0  0  0  0  0  0  0  0  0  0  0  0
    6.2660   -1.0170   21.1780 N   0  0  0  0  0  0  0  0  0  0  0  0
    6.7810   -1.8230   20.2810 C   0  0  0  0  0  0  0  0  0  0  0  0
    6.1690   -2.4510   19.2140 O   0  0  0  0  0  0  0  0  0  0  0  0
    8.0950   -1.9660   20.6150 C   0  0  0  0  0  0  0  0  0  0  0  0
    8.8110   -0.9850   20.6520 O   0  0  0  0  0  0  0  0  0  0  0  0
    8.4350   -3.1910   21.0450 C   0  0  1  0  0  0  0  0  0  0  0  0
    7.0650   -3.6440   20.9740 C   0  0  0  0  0  0  0  0  0  0  0  0
    6.2300   -4.3310   21.9320 C   0  0  0  0  0  0  0  0  0  0  0  0
    5.0250   -3.5670   22.4460 C   0  0  0  0  0  0  0  0  0  0  0  0
    4.1720   -4.1770   23.3420 C   0  0  0  0  0  0  0  0  0  0  0  0
    4.3600   -5.4680   23.7960 C   0  0  0  0  0  0  0  0  0  0  0  0
    5.4540   -6.2170   23.3510 C   0  0  0  0  0  0  0  0  0  0  0  0
    6.3600   -5.6430   22.4440 C   0  0  0  0  0  0  0  0  0  0  0  0
    9.6530   -3.5290   20.2490 N   0  0  0  0  0  0  0  0  0  0  0  0
   10.6070   -4.6210   20.0430 C   0  0  0  0  0  0  0  0  0  0  0  0
   10.3410   -5.7420   19.8700 O   0  0  0  0  0  0  0  0  0  0  0  0
   11.9730   -4.6830   19.9630 C   0  0  0  0  0  0  0  0  0  0  0  0
   12.6230   -4.7810   18.8330 C   0  0  0  0  0  0  0  0  0  0  0  0
   14.0640   -4.9080   18.9040 C   0  0  0  0  0  0  0  0  0  0  0  0
   14.1590   -4.9070   20.1880 N   0  0  0  0  0  0  0  0  0  0  0  0
   15.3720   -5.0790   20.8170 C   0  0  0  0  0  0  0  0  0  0  0  0
   12.9530   -4.7450   20.8460 N   0  0  0  0  0  0  0  0  0  0  0  0
    7.1310    0.1210   21.4480 C   0  0  0  0  0  0  0  0  0  0  0  0
    8.2580   -0.1760   22.2560 C   0  0  0  0  0  0  0  0  0  0  0  0
  1  2  1  0
  2  3  1  0
  3  4  1  0
  4  5  1  0
  5  6  1  0
  6  7  2  0
  6  8  1  0
  8  9  2  0
  8 10  1  0
 10 11  1  6
 11 12  1  0
 12 13  2  0
 13 14  1  0
 14 15  2  0
 15 16  1  0
 12 17  1  0
 16 17  2  0
 10 18  1  0
 18 19  1  0
 19 20  2  0
 19 21  1  0
 21 22  1  0
 22 23  2  0
 23 24  1  0
 24 25  1  0
 21 26  2  0
 24 26  1  0
  5 27  1  0
  2 28  1  0
 27 28  1  0
M  END
