MAR-SOS-c7881798-2
     RDKit          3D

 36 39  0  0  0  0  0  0  0  0999 V2000
    1.4050    2.2290   20.1790 C   0  0  0  0  0  0  0  0  0  0  0  0
    1.2930    2.8510   21.4550 O   0  0  0  0  0  0  0  0  0  0  0  0
    2.3530    3.6290   21.7990 C   0  0  0  0  0  0  0  0  0  0  0  0
    2.1970    4.6100   22.5180 O   0  0  0  0  0  0  0  0  0  0  0  0
    3.6140    3.3290   21.3520 N   0  0  0  0  0  0  0  0  0  0  0  0
    4.5650    4.2550   21.6170 C   0  0  0  0  0  0  0  0  0  0  0  0
    5.7480    3.6820   22.2870 C   0  0  0  0  0  0  0  0  0  0  0  0
    5.5130    2.3270   22.3200 C   0  0  0  0  0  0  0  0  0  0  0  0
    4.2230    1.9840   21.5400 C   0  0  2  0  0  0  0  0  0  0  0  0
    4.5580    1.2060   20.2520 C   0  0  0  0  0  0  0  0  0  0  0  0
    3.5940    1.3970   19.2170 O   0  0  0  0  0  0  0  0  0  0  0  0
    5.7090    0.4340   20.1640 N   0  0  0  0  0  0  0  0  0  0  0  0
    5.4200   -0.8560   20.2170 C   0  0  2  0  0  0  0  0  0  0  0  0
    5.1320   -1.3220   21.5000 C   0  0  0  0  0  0  0  0  0  0  0  0
    5.0590   -2.7250   21.7200 C   0  0  0  0  0  0  0  0  0  0  0  0
    5.4230   -3.6830   20.7350 C   0  0  0  0  0  0  0  0  0  0  0  0
    5.3540   -5.1710   21.0500 C   0  0  0  0  0  0  0  0  0  0  0  0
    4.9210   -5.6340   22.2950 C   0  0  0  0  0  0  0  0  0  0  0  0
    4.5350   -4.7620   23.2980 C   0  0  0  0  0  0  0  0  0  0  0  0
    4.5830   -3.2760   23.0670 C   0  0  0  0  0  0  0  0  0  0  0  0
    6.6360   -1.5760   19.6640 C   0  0  0  0  0  0  0  0  0  0  0  0
    7.5000   -0.9900   18.7950 O   0  0  0  0  0  0  0  0  0  0  0  0
    6.7890   -2.8940   20.0890 C   0  0  0  0  0  0  0  0  0  0  0  0
    7.0680   -3.8820   20.7520 O   0  0  0  0  0  0  0  0  0  0  0  0
    7.3060   -2.2830   21.1880 N   0  0  0  0  0  0  0  0  0  0  0  0
    6.9690   -2.7550   22.4920 C   0  0  0  0  0  0  0  0  0  0  0  0
    8.0800   -3.0520   23.2800 C   0  0  0  0  0  0  0  0  0  0  0  0
    9.0050   -1.9130   23.4200 N   0  0  0  0  0  0  0  0  0  0  0  0
   10.3080   -2.2320   23.7690 C   0  0  0  0  0  0  0  0  0  0  0  0
   11.6090   -2.0150   23.9070 C   0  0  0  0  0  0  0  0  0  0  0  0
   12.2800   -1.0560   23.6480 C   0  0  0  0  0  0  0  0  0  0  0  0
   13.0850   -0.2030   23.4490 C   0  0  0  0  0  0  0  0  0  0  0  0
   11.7680    0.3250   23.0480 C   0  0  0  0  0  0  0  0  0  0  0  0
   10.6270   -0.7820   23.2780 C   0  0  0  0  0  0  0  0  0  0  0  0
    8.7800   -0.9000   22.3860 C   0  0  0  0  0  0  0  0  0  0  0  0
    8.5350   -1.5150   21.1900 C   0  0  0  0  0  0  0  0  0  0  0  0
  1  2  1  0
  2  3  1  0
  3  4  2  0
  3  5  1  0
  5  6  1  0
  6  7  1  0
  7  8  1  0
  5  9  1  0
  8  9  1  0
  9 10  1  6
 10 11  2  0
 10 12  1  0
 12 13  1  0
 13 14  1  1
 14 15  1  0
 15 16  2  0
 16 17  1  0
 17 18  2  0
 18 19  1  0
 15 20  1  0
 19 20  2  0
 13 21  1  0
 21 22  2  0
 21 23  1  0
 23 24  2  0
 23 25  1  0
 25 26  1  0
 26 27  1  0
 27 28  1  0
 28 29  1  0
 29 30  2  0
 30 31  1  0
 31 32  2  0
 32 33  1  0
 29 34  1  0
 33 34  2  0
 28 35  1  0
 25 36  1  0
 35 36  1  0
M  END
