MAR-KIN-1c1f987c-1
     RDKit          3D

 30 32  0  0  0  0  0  0  0  0999 V2000
    5.5910    2.0430   26.7200 C   0  0  0  0  0  0  0  0  0  0  0  0
    5.4160    3.4310   25.6150 S   0  0  0  0  0  0  0  0  0  0  0  0
    5.7470    4.6310   26.3470 O   0  0  0  0  0  0  0  0  0  0  0  0
    4.1350    3.3350   24.9410 O   0  0  0  0  0  0  0  0  0  0  0  0
    6.6850    3.1480   24.4030 C   0  0  0  0  0  0  0  0  0  0  0  0
    8.0000    2.8270   25.0420 C   0  0  0  0  0  0  0  0  0  0  0  0
    8.7990    1.8770   24.2630 N   0  0  0  0  0  0  0  0  0  0  0  0
   10.0290    2.4140   23.6210 C   0  0  0  0  0  0  0  0  0  0  0  0
   11.1030    1.3720   23.3510 C   0  0  0  0  0  0  0  0  0  0  0  0
   10.7330   -0.1310   23.5170 C   0  0  0  0  0  0  0  0  0  0  0  0
   12.0300   -1.0170   23.1340 C   0  0  0  0  0  0  0  0  0  0  0  0
   13.1690   -0.4140   22.7490 C   0  0  0  0  0  0  0  0  0  0  0  0
   12.5720    0.7810   22.9130 C   0  0  0  0  0  0  0  0  0  0  0  0
   11.2500    0.8890   23.3550 C   0  0  0  0  0  0  0  0  0  0  0  0
   10.6520    2.3950   23.5220 C   0  0  0  0  0  0  0  0  0  0  0  0
   11.5940    3.6310   23.1750 C   0  0  0  0  0  0  0  0  0  0  0  0
   11.0960    5.0660   23.3220 C   0  0  0  0  0  0  0  0  0  0  0  0
   11.5770    5.9120   22.2260 N   0  0  0  0  0  0  0  0  0  0  0  0
   12.7980    3.1580   22.7780 C   0  0  0  0  0  0  0  0  0  0  0  0
   12.4270    1.9080   22.9300 C   0  0  0  0  0  0  0  0  0  0  0  0
    8.3710    0.5540   24.2360 C   0  0  0  0  0  0  0  0  0  0  0  0
    7.6450   -0.0100   23.1430 O   0  0  0  0  0  0  0  0  0  0  0  0
    8.6190   -0.3320   25.2850 C   0  0  0  0  0  0  0  0  0  0  0  0
    7.5530   -1.0660   25.8380 C   0  0  0  0  0  0  0  0  0  0  0  0
    7.1370   -0.7450   27.1340 C   0  0  0  0  0  0  0  0  0  0  0  0
    6.1380   -1.3460   27.8300 N   0  0  0  0  0  0  0  0  0  0  0  0
    5.4690   -2.3500   27.2370 C   0  0  0  0  0  0  0  0  0  0  0  0
    5.7620   -2.8470   25.8420 C   0  0  0  0  0  0  0  0  0  0  0  0
    6.9020   -2.0990   25.1580 C   0  0  0  0  0  0  0  0  0  0  0  0
    7.2600   -2.4900   23.8510 N   0  0  0  0  0  0  0  0  0  0  0  0
  2  1  1  0
  2  3  2  0
  2  4  2  0
  2  5  1  0
  5  6  1  0
  6  7  1  0
  7  8  1  0
  8  9  1  0
  9 10  2  0
 10 11  1  0
 11 12  2  0
 12 13  1  0
 13 14  1  0
 14 15  2  0
 15 16  1  0
 16 17  1  0
 17 18  1  0
 16 19  2  0
  9 20  1  0
 13 20  2  0
 19 20  1  0
  7 21  1  0
 21 22  2  0
 21 23  1  0
 23 24  1  0
 24 25  2  0
 25 26  1  0
 26 27  2  0
 27 28  1  0
 24 29  1  0
 28 29  2  0
 29 30  1  0
M  END
