MAR-UNI-c84db004-9
     RDKit          3D

 25 28  0  0  0  0  0  0  0  0999 V2000
    1.8320   -7.9480   24.2780 O   0  0  0  0  0  0  0  0  0  0  0  0
    2.6840   -7.4710   25.0340 C   0  0  0  0  0  0  0  0  0  0  0  0
    3.8480   -6.7060   24.4990 C   0  0  0  0  0  0  0  0  0  0  0  0
    4.8480   -6.0890   25.4240 C   0  0  0  0  0  0  0  0  0  0  0  0
    6.0520   -5.2980   24.9570 C   0  0  0  0  0  0  0  0  0  0  0  0
    7.3390   -5.2160   25.7770 C   0  0  0  0  0  0  0  0  0  0  0  0
    8.2990   -4.4820   25.2370 C   0  0  0  0  0  0  0  0  0  0  0  0
    8.2160   -3.7740   23.9630 C   0  0  0  0  0  0  0  0  0  0  0  0
    9.3350   -3.0850   23.6230 O   0  0  0  0  0  0  0  0  0  0  0  0
    9.1840   -1.8590   22.9140 C   0  0  0  0  0  0  0  0  0  0  0  0
   10.5550   -1.2750   22.7800 C   0  0  0  0  0  0  0  0  0  0  0  0
   10.7920    0.0880   23.2830 C   0  0  0  0  0  0  0  0  0  0  0  0
   12.1670    0.6370   23.1490 C   0  0  0  0  0  0  0  0  0  0  0  0
   13.1430   -0.0740   22.5990 C   0  0  0  0  0  0  0  0  0  0  0  0
   12.8690   -1.4050   22.1100 C   0  0  0  0  0  0  0  0  0  0  0  0
   11.6310   -1.9420   22.2100 C   0  0  0  0  0  0  0  0  0  0  0  0
    7.0460   -3.8600   23.2310 C   0  0  0  0  0  0  0  0  0  0  0  0
    5.9790   -4.6150   23.7280 C   0  0  0  0  0  0  0  0  0  0  0  0
    4.7410   -6.2040   26.7950 O   0  0  0  0  0  0  0  0  0  0  0  0
    3.6990   -6.9390   27.3200 C   0  0  0  0  0  0  0  0  0  0  0  0
    3.6680   -7.0550   28.7170 C   0  0  0  0  0  0  0  0  0  0  0  0
    2.6040   -7.8140   29.4330 C   0  0  0  0  0  0  0  0  0  0  0  0
    1.5350   -8.4610   28.4600 C   0  0  0  0  0  0  0  0  0  0  0  0
    1.6060   -8.3230   27.0920 C   0  0  0  0  0  0  0  0  0  0  0  0
    2.6360   -7.5970   26.5030 C   0  0  0  0  0  0  0  0  0  0  0  0
  1  2  2  0
  2  3  1  0
  3  4  2  0
  4  5  1  0
  5  6  2  0
  6  7  1  0
  7  8  2  0
  8  9  1  0
  9 10  1  0
 10 11  1  0
 11 12  2  0
 12 13  1  0
 13 14  2  0
 14 15  1  0
 11 16  1  0
 15 16  2  0
  8 17  1  0
  5 18  1  0
 17 18  2  0
  4 19  1  0
 19 20  1  0
 20 21  1  0
 21 22  2  0
 22 23  1  0
 23 24  2  0
  2 25  1  0
 20 25  2  0
 24 25  1  0
M  END
