MAR-UNI-c84db004-17
     RDKit          3D

 28 31  0  0  0  0  0  0  0  0999 V2000
    7.5360    0.1140   24.2880 C   0  0  0  0  0  0  0  0  0  0  0  0
    8.9280    0.1290   24.0280 C   0  0  0  0  0  0  0  0  0  0  0  0
    9.6410    1.1670   23.8900 C   0  0  0  0  0  0  0  0  0  0  0  0
   11.0060    0.9960   23.6130 C   0  0  0  0  0  0  0  0  0  0  0  0
   11.5450   -0.3040   23.5110 C   0  0  0  0  0  0  0  0  0  0  0  0
   10.6380   -1.4560   23.7030 C   0  0  0  0  0  0  0  0  0  0  0  0
   11.0280   -2.7740   23.6360 O   0  0  0  0  0  0  0  0  0  0  0  0
    9.3500   -1.1150   23.9500 C   0  0  0  0  0  0  0  0  0  0  0  0
    8.0260   -1.7480   24.2000 C   0  0  0  0  0  0  0  0  0  0  0  0
    7.3340   -1.6230   25.5250 C   0  0  0  0  0  0  0  0  0  0  0  0
    7.8660   -0.8900   26.6080 C   0  0  0  0  0  0  0  0  0  0  0  0
    6.0830   -2.2230   25.7000 C   0  0  0  0  0  0  0  0  0  0  0  0
    5.4190   -2.8950   24.6810 C   0  0  0  0  0  0  0  0  0  0  0  0
    4.3150   -3.3900   24.8880 O   0  0  0  0  0  0  0  0  0  0  0  0
    6.0440   -2.9590   23.4040 C   0  0  0  0  0  0  0  0  0  0  0  0
    7.3490   -2.3960   23.1760 C   0  0  0  0  0  0  0  0  0  0  0  0
    7.8940   -2.4690   21.9040 C   0  0  0  0  0  0  0  0  0  0  0  0
    9.0710   -2.6220   21.6420 O   0  0  0  0  0  0  0  0  0  0  0  0
    6.9900   -2.3360   20.8700 C   0  0  0  0  0  0  0  0  0  0  0  0
    5.7450   -2.8900   21.0510 C   0  0  0  0  0  0  0  0  0  0  0  0
    5.4440   -3.5280   22.2630 C   0  0  0  0  0  0  0  0  0  0  0  0
    4.6500   -4.4690   22.2760 O   0  0  0  0  0  0  0  0  0  0  0  0
   12.9250   -0.4340   23.2150 C   0  0  0  0  0  0  0  0  0  0  0  0
   13.5100   -1.5050   23.3120 O   0  0  0  0  0  0  0  0  0  0  0  0
   13.5830    0.8380   22.7680 C   0  0  0  0  0  0  0  0  0  0  0  0
   13.0170    2.1000   22.8770 C   0  0  0  0  0  0  0  0  0  0  0  0
   11.7010    2.2340   23.4460 C   0  0  0  0  0  0  0  0  0  0  0  0
   11.2300    3.3270   23.7370 O   0  0  0  0  0  0  0  0  0  0  0  0
  1  2  1  0
  2  3  2  0
  3  4  1  0
  4  5  2  0
  5  6  1  0
  6  7  1  0
  2  8  1  0
  6  8  2  0
  8  9  1  0
  9 10  2  0
 10 11  1  0
 10 12  1  0
 12 13  2  0
 13 14  1  0
 13 15  1  0
  9 16  1  0
 15 16  2  0
 16 17  1  0
 17 18  2  0
 17 19  1  0
 19 20  2  0
 15 21  1  0
 20 21  1  0
 21 22  2  0
  5 23  1  0
 23 24  2  0
 23 25  1  0
 25 26  2  0
  4 27  1  0
 26 27  1  0
 27 28  2  0
M  END
