MAR-UNI-c84db004-10
     RDKit          3D

 28 30  0  0  0  0  0  0  0  0999 V2000
    8.8280    0.0520   25.8050 C   0  0  0  0  0  0  0  0  0  0  0  0
    7.8770    0.3540   24.9120 C   0  0  0  0  0  0  0  0  0  0  0  0
    7.7770    0.0170   23.4520 C   0  0  0  0  0  0  0  0  0  0  0  0
    8.7970   -0.7520   22.7980 C   0  0  0  0  0  0  0  0  0  0  0  0
   10.0370   -1.1920   23.3030 C   0  0  2  0  0  0  0  0  0  0  0  0
    9.9550   -2.3200   24.0720 C   0  0  0  0  0  0  0  0  0  0  0  0
   10.6990   -0.0550   24.1940 C   0  0  0  0  0  0  0  0  0  0  0  0
   11.8470    0.6960   23.5230 C   0  0  0  0  0  0  0  0  0  0  0  0
   12.8770   -0.2600   23.0060 C   0  0  0  0  0  0  0  0  0  0  0  0
   12.4560   -1.5500   22.7730 C   0  0  0  0  0  0  0  0  0  0  0  0
   12.7830   -2.5810   23.8140 C   0  0  0  0  0  0  0  0  0  0  0  0
   13.1370   -1.9190   21.5040 C   0  0  0  0  0  0  0  0  0  0  0  0
   10.9670   -1.5750   22.3620 C   0  0  0  0  0  0  0  0  0  0  0  0
    8.4670   -1.1280   21.4970 C   0  0  0  0  0  0  0  0  0  0  0  0
    7.1190   -0.6600   20.9020 C   0  0  0  0  0  0  0  0  0  0  0  0
    6.7500    0.5170   21.5060 C   0  0  2  0  0  0  0  0  0  0  0  0
    6.6120    0.4880   22.8600 C   0  0  2  0  0  0  0  0  0  0  0  0
    6.0860    1.7070   23.2480 C   0  0  1  0  0  0  0  0  0  0  0  0
    7.1300    2.6360   23.5790 O   0  0  0  0  0  0  0  0  0  0  0  0
    6.8980    3.9530   23.3250 C   0  0  0  0  0  0  0  0  0  0  0  0
    7.4010    4.2940   22.0730 C   0  0  0  0  0  0  0  0  0  0  0  0
    6.3360    4.7410   24.0750 O   0  0  0  0  0  0  0  0  0  0  0  0
    5.3970    2.1690   22.0560 O   0  0  0  0  0  0  0  0  0  0  0  0
    5.6550    1.2020   20.9840 C   0  0  1  0  0  0  0  0  0  0  0  0
    6.0300    1.8770   19.7870 O   0  0  0  0  0  0  0  0  0  0  0  0
    6.0480    1.1450   18.6470 C   0  0  0  0  0  0  0  0  0  0  0  0
    4.8000    1.1730   18.0390 C   0  0  0  0  0  0  0  0  0  0  0  0
    7.0060    0.5500   18.1920 O   0  0  0  0  0  0  0  0  0  0  0  0
  1  2  1  0
  2  3  2  3
  3  4  1  0
  4  5  1  0
  5  6  1  1
  5  7  1  0
  7  8  1  0
  8  9  1  0
  9 10  1  0
 10 11  1  0
 10 12  1  0
  5 13  1  0
 10 13  1  0
  4 14  2  0
 14 15  1  0
 16 15  1  6
 17  3  1  1
 16 17  1  0
 17 18  1  0
 18 19  1  6
 19 20  1  0
 20 21  1  0
 20 22  2  0
 18 23  1  0
 16 24  1  0
 23 24  1  0
 24 25  1  6
 25 26  1  0
 26 27  1  0
 26 28  2  0
M  END
