MAR-SOS-82e3a7c7-1
     RDKit          3D

 36 39  0  0  0  0  0  0  0  0999 V2000
    2.5040   -5.5410   23.1800 C   0  0  0  0  0  0  0  0  0  0  0  0
    3.5070   -5.0430   22.6700 O   0  0  0  0  0  0  0  0  0  0  0  0
    4.7140   -5.5180   23.1030 C   0  0  0  0  0  0  0  0  0  0  0  0
    5.5910   -5.6740   22.2610 O   0  0  0  0  0  0  0  0  0  0  0  0
    4.9480   -5.8260   24.4550 N   0  0  0  0  0  0  0  0  0  0  0  0
    4.0230   -6.7440   25.1410 C   0  0  0  0  0  0  0  0  0  0  0  0
    4.4120   -6.5410   26.5430 C   0  0  0  0  0  0  0  0  0  0  0  0
    5.5900   -5.6410   26.6100 C   0  0  0  0  0  0  0  0  0  0  0  0
    5.8030   -5.1010   25.3730 C   0  0  1  0  0  0  0  0  0  0  0  0
    7.1740   -4.8680   24.8230 C   0  0  0  0  0  0  0  0  0  0  0  0
    8.1680   -5.8760   25.0890 O   0  0  0  0  0  0  0  0  0  0  0  0
    7.4360   -3.6960   24.0720 N   0  0  0  0  0  0  0  0  0  0  0  0
    8.2310   -2.6530   24.7150 C   0  0  1  0  0  0  0  0  0  0  0  0
    8.5870   -1.5580   23.7260 C   0  0  0  0  0  0  0  0  0  0  0  0
   10.0860   -1.4900   23.4090 C   0  0  0  0  0  0  0  0  0  0  0  0
   11.0410   -1.3530   24.5310 C   0  0  0  0  0  0  0  0  0  0  0  0
   12.3910   -1.2600   24.4070 C   0  0  0  0  0  0  0  0  0  0  0  0
   12.9770   -1.2960   23.1020 C   0  0  0  0  0  0  0  0  0  0  0  0
   12.1730   -1.4360   22.0430 C   0  0  0  0  0  0  0  0  0  0  0  0
   10.6770   -1.5380   22.1620 C   0  0  0  0  0  0  0  0  0  0  0  0
    7.3010   -2.1620   25.8510 C   0  0  0  0  0  0  0  0  0  0  0  0
    6.6880   -0.8590   25.8090 O   0  0  0  0  0  0  0  0  0  0  0  0
    7.0390   -3.0110   26.9430 C   0  0  0  0  0  0  0  0  0  0  0  0
    6.2150   -2.5790   27.7490 O   0  0  0  0  0  0  0  0  0  0  0  0
    7.6530   -4.2230   27.1060 N   0  0  0  0  0  0  0  0  0  0  0  0
    8.4980   -4.6530   28.1240 C   0  0  0  0  0  0  0  0  0  0  0  0
    9.7600   -5.2080   27.5390 C   0  0  0  0  0  0  0  0  0  0  0  0
   10.0690   -4.6080   26.2120 N   0  0  0  0  0  0  0  0  0  0  0  0
   11.2410   -4.0490   25.7060 C   0  0  0  0  0  0  0  0  0  0  0  0
   12.4700   -4.0550   26.3320 C   0  0  0  0  0  0  0  0  0  0  0  0
   13.5620   -3.4600   25.7390 C   0  0  0  0  0  0  0  0  0  0  0  0
   13.5070   -2.8140   24.4290 C   0  0  0  0  0  0  0  0  0  0  0  0
   12.3020   -2.8080   23.7960 C   0  0  0  0  0  0  0  0  0  0  0  0
   11.1370   -3.4370   24.4540 C   0  0  0  0  0  0  0  0  0  0  0  0
    9.0250   -4.3230   25.4670 C   0  0  0  0  0  0  0  0  0  0  0  0
    7.9200   -4.9250   26.0350 C   0  0  0  0  0  0  0  0  0  0  0  0
  1  2  1  0
  2  3  1  0
  3  4  2  0
  3  5  1  0
  5  6  1  0
  6  7  1  0
  7  8  1  0
  5  9  1  0
  8  9  1  0
  9 10  1  6
 10 11  2  0
 10 12  1  0
 12 13  1  0
 13 14  1  6
 14 15  1  0
 15 16  2  0
 16 17  1  0
 17 18  2  0
 18 19  1  0
 15 20  1  0
 19 20  2  0
 13 21  1  0
 21 22  2  0
 21 23  1  0
 23 24  2  0
 23 25  1  0
 25 26  1  0
 26 27  1  0
 27 28  1  0
 28 29  1  0
 29 30  2  0
 30 31  1  0
 31 32  2  0
 32 33  1  0
 29 34  1  0
 33 34  2  0
 28 35  1  0
 25 36  1  0
 35 36  1  0
M  END
