MAR-SOS-c7881798-8
     RDKit          3D

 33 36  0  0  0  0  0  0  0  0999 V2000
    4.8190   -3.4900   19.0140 O   0  0  0  0  0  0  0  0  0  0  0  0
    5.5890   -2.5370   18.9740 C   0  0  0  0  0  0  0  0  0  0  0  0
    5.5140   -1.4930   19.9070 N   0  0  0  0  0  0  0  0  0  0  0  0
    5.4720   -2.1660   21.1560 C   0  0  0  0  0  0  0  0  0  0  0  0
    6.7520   -2.2090   21.6840 C   0  0  0  0  0  0  0  0  0  0  0  0
    7.7950   -1.4680   21.1490 C   0  0  0  0  0  0  0  0  0  0  0  0
    9.1130   -1.5960   21.8130 C   0  0  0  0  0  0  0  0  0  0  0  0
    9.2760   -2.4170   22.9090 C   0  0  0  0  0  0  0  0  0  0  0  0
    8.1450   -3.1150   23.3500 C   0  0  0  0  0  0  0  0  0  0  0  0
    6.8980   -3.0800   22.8300 N   0  0  0  0  0  0  0  0  0  0  0  0
    6.6930   -2.4430   17.9440 C   0  0  0  0  0  0  0  0  0  0  0  0
    8.0420   -2.9090   17.9920 O   0  0  0  0  0  0  0  0  0  0  0  0
    6.2940   -1.7080   16.7690 C   0  0  1  0  0  0  0  0  0  0  0  0
    6.6760   -0.4070   17.1240 C   0  0  0  0  0  0  0  0  0  0  0  0
    6.0720    0.1570   18.2470 C   0  0  0  0  0  0  0  0  0  0  0  0
    4.6970    0.2140   18.3280 C   0  0  0  0  0  0  0  0  0  0  0  0
    4.1370    0.7920   19.4570 C   0  0  0  0  0  0  0  0  0  0  0  0
    4.8970    1.3090   20.4920 C   0  0  0  0  0  0  0  0  0  0  0  0
    6.2720    1.2510   20.4050 C   0  0  0  0  0  0  0  0  0  0  0  0
    6.8690    0.6730   19.2770 C   0  0  0  0  0  0  0  0  0  0  0  0
    6.5970   -2.7080   15.5080 N   0  0  0  0  0  0  0  0  0  0  0  0
    6.1880   -2.5000   13.9870 C   0  0  0  0  0  0  0  0  0  0  0  0
    6.3660   -1.5160   13.6380 O   0  0  0  0  0  0  0  0  0  0  0  0
    5.9910   -2.9230   12.6570 C   0  0  2  0  0  0  0  0  0  0  0  0
    6.6690   -2.3810   11.6280 C   0  0  0  0  0  0  0  0  0  0  0  0
    6.2770   -2.4690   10.4780 C   0  0  0  0  0  0  0  0  0  0  0  0
    4.9810   -2.8220   10.5000 C   0  0  0  0  0  0  0  0  0  0  0  0
    4.9410   -3.3610   11.7900 N   0  0  0  0  0  0  0  0  0  0  0  0
    3.9370   -3.6280   12.1970 C   0  0  0  0  0  0  0  0  0  0  0  0
    3.1120   -2.6800   12.2150 C   0  0  0  0  0  0  0  0  0  0  0  0
    2.0550   -2.9240   12.6840 C   0  0  0  0  0  0  0  0  0  0  0  0
    2.0380   -4.5670   13.0940 S   0  0  0  0  0  0  0  0  0  0  0  0
    3.4870   -4.8410   12.7020 C   0  0  0  0  0  0  0  0  0  0  0  0
  1  2  2  0
  2  3  1  0
  3  4  1  0
  4  5  1  0
  5  6  2  0
  6  7  1  0
  7  8  2  0
  8  9  1  0
  5 10  1  0
  9 10  2  0
  2 11  1  0
 11 12  2  0
 11 13  1  0
 13 14  1  6
 14 15  1  0
 15 16  2  0
 16 17  1  0
 17 18  2  0
 18 19  1  0
 15 20  1  0
 19 20  2  0
 13 21  1  0
 21 22  1  0
 22 23  2  0
 24 22  1  1
 24 25  1  0
 25 26  1  0
 26 27  1  0
 24 28  1  0
 27 28  1  0
 28 29  1  0
 29 30  1  0
 30 31  2  0
 31 32  1  0
 29 33  2  0
 32 33  1  0
M  END
