MAR-SOS-82e3a7c7-10
     RDKit          3D

 28 30  0  0  0  0  0  0  0  0999 V2000
   12.2820   -1.3370   24.5550 N   0  0  0  0  0  0  0  0  0  0  0  0
   11.4010   -2.2840   24.1500 C   0  0  0  0  0  0  0  0  0  0  0  0
   11.7120   -3.1170   23.3470 O   0  0  0  0  0  0  0  0  0  0  0  0
   10.0350   -2.2500   24.7780 C   0  0  0  0  0  0  0  0  0  0  0  0
    9.8390   -1.8530   25.9120 O   0  0  0  0  0  0  0  0  0  0  0  0
    8.9900   -2.7800   23.8430 C   0  0  2  0  0  0  0  0  0  0  0  0
    8.9890   -1.7540   22.7130 C   0  0  0  0  0  0  0  0  0  0  0  0
   10.4170   -1.1890   22.6200 C   0  0  0  0  0  0  0  0  0  0  0  0
   10.5430    0.2330   23.1520 C   0  0  0  0  0  0  0  0  0  0  0  0
   11.9800    0.7900   23.0790 C   0  0  0  0  0  0  0  0  0  0  0  0
   13.0740   -0.0590   22.5360 C   0  0  0  0  0  0  0  0  0  0  0  0
   12.8100   -1.4600   22.0310 C   0  0  0  0  0  0  0  0  0  0  0  0
   11.5030   -1.9220   22.1050 C   0  0  0  0  0  0  0  0  0  0  0  0
    7.6630   -3.0420   24.4910 N   0  0  0  0  0  0  0  0  0  0  0  0
    7.2010   -4.3150   24.8950 C   0  0  0  0  0  0  0  0  0  0  0  0
    7.8610   -5.3440   24.7590 O   0  0  0  0  0  0  0  0  0  0  0  0
    5.9070   -4.2990   25.4200 C   0  0  1  0  0  0  0  0  0  0  0  0
    5.2630   -5.4880   25.7130 C   0  0  0  0  0  0  0  0  0  0  0  0
    4.1510   -5.2310   26.4850 C   0  0  0  0  0  0  0  0  0  0  0  0
    4.2120   -3.9160   26.9710 C   0  0  0  0  0  0  0  0  0  0  0  0
    5.6350   -3.6280   26.7230 N   0  0  0  0  0  0  0  0  0  0  0  0
    6.5050   -4.0070   27.8530 C   0  0  0  0  0  0  0  0  0  0  0  0
    5.9590   -5.1810   28.6700 C   0  0  0  0  0  0  0  0  0  0  0  0
    4.6470   -4.9530   29.2500 C   0  0  0  0  0  0  0  0  0  0  0  0
    4.0110   -5.9430   30.0250 C   0  0  0  0  0  0  0  0  0  0  0  0
    4.6450   -7.3110   30.3120 C   0  0  0  0  0  0  0  0  0  0  0  0
    5.9800   -7.4390   29.6780 C   0  0  0  0  0  0  0  0  0  0  0  0
    6.6510   -6.3640   28.8450 C   0  0  0  0  0  0  0  0  0  0  0  0
  1  2  1  0
  2  3  2  0
  2  4  1  0
  4  5  2  0
  4  6  1  0
  6  7  1  6
  7  8  1  0
  8  9  2  0
  9 10  1  0
 10 11  2  0
 11 12  1  0
  8 13  1  0
 12 13  2  0
  6 14  1  0
 14 15  1  0
 15 16  2  0
 17 15  1  1
 17 18  1  0
 18 19  1  0
 19 20  1  0
 17 21  1  0
 20 21  1  0
 21 22  1  0
 22 23  1  0
 23 24  2  0
 24 25  1  0
 25 26  2  0
 26 27  1  0
 23 28  1  0
 27 28  2  0
M  END
