MAR-UNI-c84db004-8
     RDKit          3D

 26 28  0  0  0  0  0  0  0  0999 V2000
   13.4620    0.8870   22.9660 C   0  0  0  0  0  0  0  0  0  0  0  0
   12.9480   -0.3910   22.8110 C   0  0  0  0  0  0  0  0  0  0  0  0
   13.3870   -1.3150   21.7880 C   0  0  0  0  0  0  0  0  0  0  0  0
   12.4320   -2.3830   21.4730 C   0  0  0  0  0  0  0  0  0  0  0  0
   11.1710   -2.3230   22.1100 C   0  0  0  0  0  0  0  0  0  0  0  0
   10.9400   -1.2080   22.8620 C   0  0  2  0  0  0  0  0  0  0  0  0
   12.0100   -0.8590   23.6000 C   0  0  1  0  0  0  0  0  0  0  0  0
   12.6690   -1.8950   24.2700 C   0  0  0  0  0  0  0  0  0  0  0  0
   11.7430    0.2290   24.3670 C   0  0  0  0  0  0  0  0  0  0  0  0
   10.9130    1.1760   23.7980 C   0  0  0  0  0  0  0  0  0  0  0  0
    9.6950    0.5510   23.2860 C   0  0  2  0  0  0  0  0  0  0  0  0
    8.4510    1.0600   23.6610 C   0  0  0  0  0  0  0  0  0  0  0  0
    9.8210   -0.9320   23.6090 C   0  0  2  0  0  0  0  0  0  0  0  0
   10.0290   -0.9290   24.9620 C   0  0  0  0  0  0  0  0  0  0  0  0
    8.7540   -1.6920   23.2000 C   0  0  0  0  0  0  0  0  0  0  0  0
    7.8560   -2.1550   24.1810 C   0  0  0  0  0  0  0  0  0  0  0  0
    7.4070   -1.3200   25.3860 C   0  0  0  0  0  0  0  0  0  0  0  0
    7.8020   -0.0190   25.6690 O   0  0  0  0  0  0  0  0  0  0  0  0
    6.4300   -1.9560   26.3890 C   0  0  0  0  0  0  0  0  0  0  0  0
    5.8960   -1.2660   27.2540 O   0  0  0  0  0  0  0  0  0  0  0  0
    6.1530   -3.4070   26.2670 C   0  0  0  0  0  0  0  0  0  0  0  0
    6.5120   -4.1150   25.2180 C   0  0  0  0  0  0  0  0  0  0  0  0
    6.1440   -5.4560   25.3040 O   0  0  0  0  0  0  0  0  0  0  0  0
    5.5900   -5.9210   26.5390 C   0  0  0  0  0  0  0  0  0  0  0  0
    7.2790   -3.5430   24.0520 C   0  0  0  0  0  0  0  0  0  0  0  0
    7.4280   -4.1830   23.0160 O   0  0  0  0  0  0  0  0  0  0  0  0
  1  2  2  3
  2  3  1  0
  3  4  1  0
  4  5  1  0
  6  5  1  1
  2  7  1  0
  6  7  1  0
  7  8  1  1
  7  9  1  0
  9 10  1  0
 10 11  1  0
 11 12  1  1
  6 13  1  0
 11 13  1  0
 13 14  1  1
 13 15  1  0
 15 16  1  0
 16 17  2  0
 17 18  1  0
 17 19  1  0
 19 20  2  0
 19 21  1  0
 21 22  2  0
 22 23  1  0
 23 24  1  0
 16 25  1  0
 22 25  1  0
 25 26  2  0
M  END
