MAR-SOS-82e3a7c7-9
     RDKit          3D

 35 38  0  0  0  0  0  0  0  0999 V2000
   10.9420   -2.2110   23.5330 O   0  0  0  0  0  0  0  0  0  0  0  0
   10.4420   -1.7780   22.5020 C   0  0  0  0  0  0  0  0  0  0  0  0
   11.2140   -1.5440   21.3700 N   0  0  0  0  0  0  0  0  0  0  0  0
   12.6140   -1.8380   21.4320 C   0  0  0  0  0  0  0  0  0  0  0  0
   12.8960   -1.7590   22.6880 C   0  0  0  0  0  0  0  0  0  0  0  0
   13.6210   -2.7670   23.4230 C   0  0  0  0  0  0  0  0  0  0  0  0
   13.8170   -2.6230   24.7920 C   0  0  0  0  0  0  0  0  0  0  0  0
   13.3160   -1.4540   25.4400 C   0  0  0  0  0  0  0  0  0  0  0  0
   12.6630   -0.5050   24.8030 C   0  0  0  0  0  0  0  0  0  0  0  0
   12.4290   -0.6380   23.3640 C   0  0  0  0  0  0  0  0  0  0  0  0
    8.9220   -1.6690   22.5750 C   0  0  0  0  0  0  0  0  0  0  0  0
    8.0950   -1.2360   21.4800 O   0  0  0  0  0  0  0  0  0  0  0  0
    8.5730   -2.0610   23.8780 C   0  0  1  0  0  0  0  0  0  0  0  0
    8.9450   -0.9610   24.6150 C   0  0  0  0  0  0  0  0  0  0  0  0
   10.2050   -0.4670   24.1960 C   0  0  0  0  0  0  0  0  0  0  0  0
   10.4470    0.9030   23.9660 C   0  0  0  0  0  0  0  0  0  0  0  0
   11.6750    1.4730   23.5350 C   0  0  0  0  0  0  0  0  0  0  0  0
   12.7610    0.6150   23.3070 C   0  0  0  0  0  0  0  0  0  0  0  0
   12.6170   -0.7580   23.5170 C   0  0  0  0  0  0  0  0  0  0  0  0
   11.3640   -1.2770   23.9550 C   0  0  0  0  0  0  0  0  0  0  0  0
    7.2810   -2.3660   24.2660 N   0  0  0  0  0  0  0  0  0  0  0  0
    6.8320   -3.6740   24.8170 C   0  0  0  0  0  0  0  0  0  0  0  0
    7.2970   -4.8550   24.2840 O   0  0  0  0  0  0  0  0  0  0  0  0
    5.8730   -3.5780   25.8990 C   0  0  2  0  0  0  0  0  0  0  0  0
    6.0990   -4.4380   27.1660 C   0  0  0  0  0  0  0  0  0  0  0  0
    4.8890   -4.4660   27.8340 C   0  0  0  0  0  0  0  0  0  0  0  0
    3.9420   -4.0290   26.7950 C   0  0  0  0  0  0  0  0  0  0  0  0
    4.5750   -3.8970   25.6210 N   0  0  0  0  0  0  0  0  0  0  0  0
    3.9420   -3.2230   24.4930 C   0  0  0  0  0  0  0  0  0  0  0  0
    4.5180   -3.8600   23.2300 C   0  0  0  0  0  0  0  0  0  0  0  0
    4.9060   -3.0080   22.0420 C   0  0  0  0  0  0  0  0  0  0  0  0
    5.4290   -3.6800   20.9220 C   0  0  0  0  0  0  0  0  0  0  0  0
    5.5650   -5.0780   20.9660 C   0  0  0  0  0  0  0  0  0  0  0  0
    5.2130   -5.8530   22.0610 C   0  0  0  0  0  0  0  0  0  0  0  0
    4.6880   -5.2410   23.1880 C   0  0  0  0  0  0  0  0  0  0  0  0
  1  2  2  0
  2  3  1  0
  3  4  1  0
  4  5  1  0
  5  6  2  0
  6  7  1  0
  7  8  2  0
  8  9  1  0
  5 10  1  0
  9 10  2  0
  2 11  1  0
 11 12  2  0
 11 13  1  0
 13 14  1  1
 14 15  1  0
 15 16  2  0
 16 17  1  0
 17 18  2  0
 18 19  1  0
 15 20  1  0
 19 20  2  0
 13 21  1  0
 21 22  1  0
 22 23  2  0
 24 22  1  6
 24 25  1  0
 25 26  1  0
 26 27  1  0
 24 28  1  0
 27 28  1  0
 28 29  1  0
 29 30  1  0
 30 31  2  0
 31 32  1  0
 32 33  2  0
 33 34  1  0
 30 35  1  0
 34 35  2  0
M  END
