MAR-UNI-c84db004-6
     RDKit          3D

 24 28  0  0  0  0  0  0  0  0999 V2000
    9.7740    3.3930   23.0250 O   0  0  0  0  0  0  0  0  0  0  0  0
    9.3960    2.2390   23.1980 C   0  0  0  0  0  0  0  0  0  0  0  0
    7.9850    1.9540   23.6000 C   0  0  0  0  0  0  0  0  0  0  0  0
    7.5240    0.6970   23.8590 C   0  0  0  0  0  0  0  0  0  0  0  0
    8.4100   -0.5050   23.7560 C   0  0  0  0  0  0  0  0  0  0  0  0
    8.1400   -2.0100   24.0780 C   0  0  0  0  0  0  0  0  0  0  0  0
    7.3450   -3.1330   24.5170 C   0  0  0  0  0  0  0  0  0  0  0  0
    6.3150   -3.8130   24.8900 C   0  0  0  0  0  0  0  0  0  0  0  0
    7.1730   -4.9870   25.0090 C   0  0  0  0  0  0  0  0  0  0  0  0
    8.2700   -5.5350   24.9510 O   0  0  0  0  0  0  0  0  0  0  0  0
    7.7860   -3.6620   24.5150 C   0  0  0  0  0  0  0  0  0  0  0  0
    6.7930   -2.6600   24.6580 C   0  0  0  0  0  0  0  0  0  0  0  0
    5.5110   -2.8510   25.1350 O   0  0  0  0  0  0  0  0  0  0  0  0
    7.0700   -1.3670   24.3120 C   0  0  0  0  0  0  0  0  0  0  0  0
    8.3340   -1.0040   23.8250 C   0  0  0  0  0  0  0  0  0  0  0  0
    9.4420   -1.8820   23.6220 C   0  0  0  0  0  0  0  0  0  0  0  0
   10.5040   -1.1740   23.1830 C   0  0  0  0  0  0  0  0  0  0  0  0
   11.8360   -1.1500   22.7630 C   0  0  0  0  0  0  0  0  0  0  0  0
   12.4320    0.0770   22.5190 C   0  0  0  0  0  0  0  0  0  0  0  0
   11.6600    1.2110   22.6630 C   0  0  0  0  0  0  0  0  0  0  0  0
   12.2490    2.4210   22.4270 O   0  0  0  0  0  0  0  0  0  0  0  0
   10.3140    1.0870   23.0330 C   0  0  0  0  0  0  0  0  0  0  0  0
    9.7750   -0.1330   23.3000 C   0  0  0  0  0  0  0  0  0  0  0  0
    9.0510   -3.0900   23.9620 C   0  0  0  0  0  0  0  0  0  0  0  0
  1  2  2  0
  2  3  1  0
  3  4  2  0
  4  5  1  0
  5  6  1  0
  6  7  1  0
  7  8  2  0
  8  9  1  0
  9 10  2  0
  9 11  1  0
 11 12  2  0
 12 13  1  0
 12 14  1  0
 14 15  2  0
 15 16  1  0
 16 17  2  0
 17 18  1  0
 18 19  2  0
 19 20  1  0
 20 21  1  0
  2 22  1  0
 20 22  2  0
  5 23  2  0
 17 23  1  0
 22 23  1  0
  6 24  2  0
 11 24  1  0
 16 24  1  0
M  END
