MAR-UNI-c84db004-16
     RDKit          3D

 27 31  0  0  0  0  0  0  0  0999 V2000
    7.0140   -1.8120   23.1240 C   0  0  0  0  0  0  0  0  0  0  0  0
    8.1890   -1.3860   23.4180 C   0  0  0  0  0  0  0  0  0  0  0  0
    8.7260   -1.7170   24.6560 C   0  0  0  0  0  0  0  0  0  0  0  0
    9.9540   -1.3430   24.9580 C   0  0  0  0  0  0  0  0  0  0  0  0
   10.1510   -1.6970   26.0470 O   0  0  0  0  0  0  0  0  0  0  0  0
   10.8090   -0.6530   24.1150 C   0  0  0  0  0  0  0  0  0  0  0  0
   10.2080   -0.2760   22.9970 C   0  0  0  0  0  0  0  0  0  0  0  0
    8.9560   -0.6390   22.6430 C   0  0  0  0  0  0  0  0  0  0  0  0
   10.7310    0.4760   22.0630 C   0  0  1  0  0  0  0  0  0  0  0  0
    9.7500    0.8960   21.4380 O   0  0  0  0  0  0  0  0  0  0  0  0
   11.8800    1.2830   22.5490 C   0  0  0  0  0  0  0  0  0  0  0  0
   12.8590    0.4640   22.9030 C   0  0  1  0  0  0  0  0  0  0  0  0
   12.3710   -0.1390   24.0540 C   0  0  0  0  0  0  0  0  0  0  0  0
   13.2290   -0.2890   24.8590 O   0  0  0  0  0  0  0  0  0  0  0  0
   12.5810   -0.8650   22.3440 C   0  0  0  0  0  0  0  0  0  0  0  0
   11.3220   -0.8140   21.8980 C   0  0  0  0  0  0  0  0  0  0  0  0
   10.7840   -2.0640   21.4230 C   0  0  0  0  0  0  0  0  0  0  0  0
    9.5770   -2.2790   21.4830 O   0  0  0  0  0  0  0  0  0  0  0  0
   11.8380   -2.9880   20.9060 C   0  0  0  0  0  0  0  0  0  0  0  0
   11.5310   -3.8070   19.9450 C   0  0  0  0  0  0  0  0  0  0  0  0
   10.3060   -3.8750   19.3990 O   0  0  0  0  0  0  0  0  0  0  0  0
   12.3440   -4.6350   19.4410 C   0  0  0  0  0  0  0  0  0  0  0  0
   13.5800   -4.7540   19.9410 C   0  0  0  0  0  0  0  0  0  0  0  0
   13.9260   -3.9950   20.8750 C   0  0  0  0  0  0  0  0  0  0  0  0
   13.0790   -3.0160   21.3960 C   0  0  0  0  0  0  0  0  0  0  0  0
   13.3610   -2.0820   22.3540 C   0  0  0  0  0  0  0  0  0  0  0  0
   14.1690   -2.2310   23.1810 O   0  0  0  0  0  0  0  0  0  0  0  0
  1  2  1  0
  2  3  2  0
  3  4  1  0
  4  5  1  0
  4  6  2  0
  6  7  1  0
  2  8  1  0
  7  8  2  0
  7  9  1  0
  9 10  1  6
  9 11  1  0
 11 12  1  0
  6 13  1  0
 12 13  1  1
 13 14  2  0
 12 15  1  0
  9 16  1  0
 15 16  2  0
 16 17  1  0
 17 18  2  0
 17 19  1  0
 19 20  2  0
 20 21  1  0
 20 22  1  0
 22 23  2  0
 23 24  1  0
 19 25  1  0
 24 25  2  0
 15 26  1  0
 25 26  1  0
 26 27  2  0
M  END
