MAR-SOS-82e3a7c7-11
     RDKit          3D

 31 33  0  0  0  0  0  0  0  0999 V2000
   12.6790   -3.0050   24.7250 N   0  0  0  0  0  0  0  0  0  0  0  0
   11.5190   -3.0110   24.8120 C   0  0  0  0  0  0  0  0  0  0  0  0
   11.1550   -4.3450   25.0740 O   0  0  0  0  0  0  0  0  0  0  0  0
   10.2290   -2.4640   24.8630 C   0  0  0  0  0  0  0  0  0  0  0  0
   10.1590   -1.6050   25.8720 O   0  0  0  0  0  0  0  0  0  0  0  0
    9.1510   -2.8190   23.9060 C   0  0  2  0  0  0  0  0  0  0  0  0
    9.1430   -1.7910   22.8330 C   0  0  0  0  0  0  0  0  0  0  0  0
   10.4340   -1.2030   22.8020 C   0  0  0  0  0  0  0  0  0  0  0  0
   10.6600    0.1380   23.1280 C   0  0  0  0  0  0  0  0  0  0  0  0
   11.9560    0.6610   23.0830 C   0  0  0  0  0  0  0  0  0  0  0  0
   13.0310   -0.1140   22.7300 C   0  0  0  0  0  0  0  0  0  0  0  0
   12.8160   -1.4450   22.4030 C   0  0  0  0  0  0  0  0  0  0  0  0
   11.5370   -1.9810   22.4360 C   0  0  0  0  0  0  0  0  0  0  0  0
    7.8860   -2.9990   24.4840 N   0  0  0  0  0  0  0  0  0  0  0  0
    7.3980   -4.2390   24.9000 C   0  0  0  0  0  0  0  0  0  0  0  0
    8.1120   -5.2500   24.8830 O   0  0  0  0  0  0  0  0  0  0  0  0
    6.0290   -4.2770   25.3080 C   0  0  1  0  0  0  0  0  0  0  0  0
    5.7100   -5.4330   26.0270 C   0  0  0  0  0  0  0  0  0  0  0  0
    4.6960   -6.2460   25.5080 C   0  0  0  0  0  0  0  0  0  0  0  0
    3.9920   -7.0720   26.4180 C   0  0  0  0  0  0  0  0  0  0  0  0
    2.9710   -7.9120   25.9620 C   0  0  0  0  0  0  0  0  0  0  0  0
    2.5540   -8.0020   24.5350 C   0  0  0  0  0  0  0  0  0  0  0  0
    3.3100   -7.1130   23.5610 C   0  0  0  0  0  0  0  0  0  0  0  0
    4.3930   -6.2390   24.1130 C   0  0  0  0  0  0  0  0  0  0  0  0
    5.3700   -3.2070   25.9910 N   0  0  0  0  0  0  0  0  0  0  0  0
    4.0220   -3.2310   25.9490 C   0  0  0  0  0  0  0  0  0  0  0  0
    3.3140   -3.3930   27.2180 C   0  0  0  0  0  0  0  0  0  0  0  0
    4.1050   -3.5060   28.3380 C   0  0  0  0  0  0  0  0  0  0  0  0
    5.4390   -3.1350   28.2930 C   0  0  0  0  0  0  0  0  0  0  0  0
    5.9050   -2.6610   27.1170 C   0  0  0  0  0  0  0  0  0  0  0  0
    6.7310   -1.7590   27.1340 O   0  0  0  0  0  0  0  0  0  0  0  0
  1  2  1  0
  2  3  2  0
  2  4  1  0
  4  5  2  0
  4  6  1  0
  6  7  1  6
  7  8  1  0
  8  9  2  0
  9 10  1  0
 10 11  2  0
 11 12  1  0
  8 13  1  0
 12 13  2  0
  6 14  1  0
 14 15  1  0
 15 16  2  0
 15 17  1  0
 17 18  1  1
 18 19  1  0
 19 20  2  0
 20 21  1  0
 21 22  2  0
 22 23  1  0
 19 24  1  0
 23 24  2  0
 17 25  1  0
 25 26  1  0
 26 27  2  0
 27 28  1  0
 28 29  2  0
 25 30  1  0
 29 30  1  0
 30 31  2  0
M  END
