MAR-UNI-c84db004-5
     RDKit          3D

 27 30  0  0  0  0  0  0  0  0999 V2000
    3.1510    2.8770   23.2740 C   0  0  0  0  0  0  0  0  0  0  0  0
    3.8810    2.7960   24.4910 O   0  0  0  0  0  0  0  0  0  0  0  0
    5.2170    2.5230   24.3940 C   0  0  0  0  0  0  0  0  0  0  0  0
    6.2680    3.2290   25.2120 C   0  0  0  0  0  0  0  0  0  0  0  0
    7.6260    2.8780   25.0360 C   0  0  0  0  0  0  0  0  0  0  0  0
    8.0410    1.8920   24.1290 C   0  0  0  0  0  0  0  0  0  0  0  0
    9.2070    1.4720   23.8810 O   0  0  0  0  0  0  0  0  0  0  0  0
    9.2450    0.1870   23.1900 C   0  0  0  0  0  0  0  0  0  0  0  0
   10.5060   -0.3210   23.1440 C   0  0  0  0  0  0  0  0  0  0  0  0
   11.6240    0.6540   23.1590 C   0  0  0  0  0  0  0  0  0  0  0  0
   12.9880    0.1490   23.1240 C   0  0  0  0  0  0  0  0  0  0  0  0
   13.2430   -1.1950   23.0730 C   0  0  0  0  0  0  0  0  0  0  0  0
   12.1600   -2.2040   23.0500 C   0  0  0  0  0  0  0  0  0  0  0  0
   10.7300   -1.6930   23.0890 C   0  0  0  0  0  0  0  0  0  0  0  0
    7.1380    1.2570   23.4000 C   0  0  0  0  0  0  0  0  0  0  0  0
    5.6930    1.5470   23.5030 C   0  0  0  0  0  0  0  0  0  0  0  0
    5.0980    0.5990   22.4930 C   0  0  0  0  0  0  0  0  0  0  0  0
    5.3890   -0.7560   22.6060 C   0  0  0  0  0  0  0  0  0  0  0  0
    5.0190   -1.6260   21.6180 C   0  0  0  0  0  0  0  0  0  0  0  0
    4.7070   -2.8250   21.7700 O   0  0  0  0  0  0  0  0  0  0  0  0
    5.0830   -0.8940   20.4250 C   0  0  0  0  0  0  0  0  0  0  0  0
    5.4850   -1.5150   19.2730 C   0  0  0  0  0  0  0  0  0  0  0  0
    5.5940   -0.8220   18.0860 C   0  0  0  0  0  0  0  0  0  0  0  0
    5.3000    0.5340   17.9510 C   0  0  0  0  0  0  0  0  0  0  0  0
    4.8560    1.2340   19.1690 C   0  0  0  0  0  0  0  0  0  0  0  0
    4.7840    0.4650   20.3200 C   0  0  0  0  0  0  0  0  0  0  0  0
    4.4010    1.1240   21.4400 O   0  0  0  0  0  0  0  0  0  0  0  0
  1  2  1  0
  2  3  1  0
  3  4  2  0
  4  5  1  0
  5  6  2  0
  6  7  1  0
  7  8  1  0
  8  9  1  0
  9 10  2  0
 10 11  1  0
 11 12  2  0
 12 13  1  0
  9 14  1  0
 13 14  2  0
  6 15  1  0
  3 16  1  0
 15 16  2  0
 16 17  1  0
 17 18  2  0
 18 19  1  0
 19 20  2  0
 19 21  1  0
 21 22  2  0
 22 23  1  0
 23 24  2  0
 24 25  1  0
 21 26  1  0
 25 26  2  0
 17 27  1  0
 26 27  1  0
M  END
