MAR-UNI-c84db004-13
     RDKit          3D

 38 46  0  0  0  0  0  0  0  0999 V2000
   10.1580   -3.2590   23.7750 C   0  0  0  0  0  0  0  0  0  0  0  0
   11.2330   -2.2900   23.7410 C   0  0  1  0  0  0  0  0  0  0  0  0
   11.8020   -2.4030   22.3720 O   0  0  0  0  0  0  0  0  0  0  0  0
   12.4330   -1.3000   21.7030 C   0  0  2  0  0  0  0  0  0  0  0  0
   13.4810   -1.6400   20.7990 C   0  0  0  0  0  0  0  0  0  0  0  0
   12.9310   -0.2060   22.6860 C   0  0  1  0  0  0  0  0  0  0  0  0
   13.5750    0.9650   22.1770 O   0  0  0  0  0  0  0  0  0  0  0  0
   13.2580    2.4890   22.3270 C   0  0  0  0  0  0  0  0  0  0  0  0
   13.8480    3.9140   21.8760 C   0  0  0  0  0  0  0  0  0  0  0  0
   13.1900    5.2000   22.2350 C   0  0  0  0  0  0  0  0  0  0  0  0
   13.6370    6.4160   21.8900 O   0  0  0  0  0  0  0  0  0  0  0  0
   11.9830    4.8250   23.0470 C   0  0  0  0  0  0  0  0  0  0  0  0
   11.3480    6.1410   23.3520 C   0  0  0  0  0  0  0  0  0  0  0  0
   11.8510    7.2090   22.9770 O   0  0  0  0  0  0  0  0  0  0  0  0
   10.1290    5.9580   24.0950 C   0  0  0  0  0  0  0  0  0  0  0  0
    9.7250    4.5790   24.5180 C   0  0  0  0  0  0  0  0  0  0  0  0
   10.5300    3.5020   24.0690 C   0  0  0  0  0  0  0  0  0  0  0  0
    9.7920    2.4240   24.5620 C   0  0  0  0  0  0  0  0  0  0  0  0
    9.1150    1.3300   25.0150 C   0  0  0  0  0  0  0  0  0  0  0  0
   10.2170    0.5970   24.4390 C   0  0  0  0  0  0  0  0  0  0  0  0
   10.6890   -0.7720   24.2250 C   0  0  0  0  0  0  0  0  0  0  0  0
   11.5500   -1.4100   23.6830 O   0  0  0  0  0  0  0  0  0  0  0  0
   11.1250    0.3920   23.8330 C   0  0  0  0  0  0  0  0  0  0  0  0
   10.1670    0.1470   24.5640 C   0  0  0  0  0  0  0  0  0  0  0  0
    9.0990    0.6390   25.3260 O   0  0  0  0  0  0  0  0  0  0  0  0
   10.6600   -0.9820   24.1830 C   0  0  0  0  0  0  0  0  0  0  0  0
   11.6840    0.0240   23.4690 C   0  0  0  0  0  0  0  0  0  0  0  0
   11.9580    1.3660   23.2340 C   0  0  0  0  0  0  0  0  0  0  0  0
   12.2020    2.6070   23.0230 C   0  0  0  0  0  0  0  0  0  0  0  0
   11.5600    3.6680   23.3950 C   0  0  0  0  0  0  0  0  0  0  0  0
   10.8670    1.5880   23.9180 C   0  0  0  0  0  0  0  0  0  0  0  0
    8.3150    2.5350   25.3860 O   0  0  0  0  0  0  0  0  0  0  0  0
    8.5910    4.0730   25.3100 C   0  0  2  0  0  0  0  0  0  0  0  0
    7.5420    4.9350   24.9580 C   0  0  1  0  0  0  0  0  0  0  0  0
    6.3190    4.7240   25.6460 C   0  0  0  0  0  0  0  0  0  0  0  0
    7.9210    6.3460   25.1510 O   0  0  0  0  0  0  0  0  0  0  0  0
    9.1550    6.9860   24.5290 C   0  0  2  0  0  0  0  0  0  0  0  0
    8.7500    7.9560   23.3690 C   0  0  0  0  0  0  0  0  0  0  0  0
  2  1  1  6
  2  3  1  0
  3  4  1  0
  4  5  1  1
  4  6  1  0
  6  7  1  6
  7  8  1  0
  8  9  1  0
  9 10  2  0
 10 11  1  0
 10 12  1  0
 12 13  1  0
 13 14  2  0
 13 15  1  0
 15 16  2  0
 16 17  1  0
 17 18  2  0
 18 19  1  0
 19 20  2  0
 20 21  1  0
 21 22  2  0
 21 23  1  0
 23 24  1  0
 24 25  1  0
  2 26  1  0
 24 26  2  0
  6 27  1  0
 26 27  1  0
 27 28  2  0
  8 29  2  0
 28 29  1  0
 12 30  2  0
 17 30  1  0
 29 30  1  0
 18 31  1  0
 23 31  2  0
 28 31  1  0
 19 32  1  0
 16 33  1  0
 33 32  1  6
 33 34  1  0
 34 35  1  1
 34 36  1  0
 15 37  1  0
 36 37  1  0
 37 38  1  6
M  END
