MAR-SOS-82e3a7c7-4
     RDKit          3D

 33 35  0  0  0  0  0  0  0  0999 V2000
    5.3640   -2.7630   19.7960 C   0  0  0  0  0  0  0  0  0  0  0  0
    5.1470   -3.4700   20.9920 N   0  0  0  0  0  0  0  0  0  0  0  0
    5.6750   -2.7750   22.1500 C   0  0  0  0  0  0  0  0  0  0  0  0
    7.0240   -2.9440   22.2130 C   0  0  0  0  0  0  0  0  0  0  0  0
    7.4300   -4.3530   22.3350 N   0  0  0  0  0  0  0  0  0  0  0  0
    8.2510   -4.8540   23.3270 C   0  0  0  0  0  0  0  0  0  0  0  0
    8.1860   -6.0320   23.6690 O   0  0  0  0  0  0  0  0  0  0  0  0
    9.2590   -3.9750   24.0210 C   0  0  0  0  0  0  0  0  0  0  0  0
   10.3310   -4.4280   24.4030 O   0  0  0  0  0  0  0  0  0  0  0  0
    8.9600   -2.6760   24.2600 C   0  0  1  0  0  0  0  0  0  0  0  0
    9.1950   -1.7620   23.0570 C   0  0  0  0  0  0  0  0  0  0  0  0
   10.4660   -1.2200   23.0190 C   0  0  0  0  0  0  0  0  0  0  0  0
   10.3780    0.3030   23.2740 C   0  0  0  0  0  0  0  0  0  0  0  0
   11.8740    0.6450   23.1730 C   0  0  0  0  0  0  0  0  0  0  0  0
   13.0080   -0.1140   22.9350 C   0  0  0  0  0  0  0  0  0  0  0  0
   12.9720   -1.5870   22.7020 C   0  0  0  0  0  0  0  0  0  0  0  0
   11.5530   -2.0410   22.7740 C   0  0  0  0  0  0  0  0  0  0  0  0
    7.5660   -2.7320   24.7410 N   0  0  0  0  0  0  0  0  0  0  0  0
    6.9580   -3.9770   25.2490 C   0  0  0  0  0  0  0  0  0  0  0  0
    7.4520   -5.0820   25.0700 O   0  0  0  0  0  0  0  0  0  0  0  0
    5.7640   -3.7990   25.9790 C   0  0  2  0  0  0  0  0  0  0  0  0
    4.6010   -3.5170   25.2520 C   0  0  0  0  0  0  0  0  0  0  0  0
    3.5530   -2.8300   25.8590 C   0  0  0  0  0  0  0  0  0  0  0  0
    2.6380   -3.5090   26.6690 C   0  0  0  0  0  0  0  0  0  0  0  0
    1.5770   -2.8280   27.2820 C   0  0  0  0  0  0  0  0  0  0  0  0
    1.4460   -1.4650   27.0770 C   0  0  0  0  0  0  0  0  0  0  0  0
    2.3450   -0.7900   26.2820 C   0  0  0  0  0  0  0  0  0  0  0  0
    3.4100   -1.4370   25.6560 C   0  0  0  0  0  0  0  0  0  0  0  0
    6.1070   -2.9100   27.1330 N   0  0  0  0  0  0  0  0  0  0  0  0
    5.5630   -3.3470   28.4190 C   0  0  0  0  0  0  0  0  0  0  0  0
    5.9130   -1.4830   26.9100 C   0  0  0  0  0  0  0  0  0  0  0  0
    6.5800   -5.3650   21.7270 C   0  0  0  0  0  0  0  0  0  0  0  0
    5.5160   -4.9130   20.9660 C   0  0  0  0  0  0  0  0  0  0  0  0
  1  2  1  0
  2  3  1  0
  3  4  1  0
  4  5  1  0
  5  6  1  0
  6  7  2  0
  6  8  1  0
  8  9  2  0
  8 10  1  0
 10 11  1  6
 11 12  1  0
 12 13  2  0
 13 14  1  0
 14 15  2  0
 15 16  1  0
 12 17  1  0
 16 17  2  0
 10 18  1  0
 18 19  1  0
 19 20  2  0
 19 21  1  0
 21 22  1  6
 22 23  1  0
 23 24  2  0
 24 25  1  0
 25 26  2  0
 26 27  1  0
 23 28  1  0
 27 28  2  0
 21 29  1  0
 29 30  1  0
 29 31  1  0
  5 32  1  0
  2 33  1  0
 32 33  1  0
M  END
