MAR-UNI-c84db004-1
     RDKit          3D

 27 30  0  0  0  0  0  0  0  0999 V2000
    8.7480   -5.7970   27.6120 C   0  0  0  0  0  0  0  0  0  0  0  0
    7.3090   -5.6130   27.8730 C   0  0  0  0  0  0  0  0  0  0  0  0
    6.8720   -6.1220   29.1530 O   0  0  0  0  0  0  0  0  0  0  0  0
    6.5970   -4.9490   26.8110 O   0  0  0  0  0  0  0  0  0  0  0  0
    6.7380   -3.5270   26.8520 C   0  0  2  0  0  0  0  0  0  0  0  0
    5.5450   -2.9040   26.3200 O   0  0  0  0  0  0  0  0  0  0  0  0
    5.8550   -2.4620   24.9890 C   0  0  1  0  0  0  0  0  0  0  0  0
    5.8490   -1.0560   24.7840 O   0  0  0  0  0  0  0  0  0  0  0  0
    6.1940   -0.6420   23.5330 C   0  0  0  0  0  0  0  0  0  0  0  0
    5.7430    0.4050   23.0680 O   0  0  0  0  0  0  0  0  0  0  0  0
    7.0660   -1.4250   22.8000 C   0  0  2  0  0  0  0  0  0  0  0  0
    6.2900   -2.4210   21.9330 C   0  0  0  0  0  0  0  0  0  0  0  0
    8.0120   -2.1740   23.7650 C   0  0  0  0  0  0  0  0  0  0  0  0
    9.4880   -2.3380   24.1020 C   0  0  0  0  0  0  0  0  0  0  0  0
    9.9290   -1.4130   23.0100 C   0  0  1  0  0  0  0  0  0  0  0  0
    9.1500   -1.3900   21.8740 C   0  0  0  0  0  0  0  0  0  0  0  0
   10.1400    0.0430   23.4290 C   0  0  0  0  0  0  0  0  0  0  0  0
   11.2700    0.1860   24.4390 C   0  0  0  0  0  0  0  0  0  0  0  0
   12.3400   -0.8380   24.3230 C   0  0  0  0  0  0  0  0  0  0  0  0
   12.6150   -1.3670   23.0920 C   0  0  0  0  0  0  0  0  0  0  0  0
   13.2570   -0.5360   22.2150 C   0  0  0  0  0  0  0  0  0  0  0  0
   13.3820   -2.6460   23.3670 C   0  0  0  0  0  0  0  0  0  0  0  0
   11.3220   -1.8340   22.4110 C   0  0  0  0  0  0  0  0  0  0  0  0
   10.1250   -3.2060   25.2000 C   0  0  0  0  0  0  0  0  0  0  0  0
    9.1110   -3.7160   26.0250 C   0  0  0  0  0  0  0  0  0  0  0  0
    7.8670   -3.0620   25.9390 C   0  0  1  0  0  0  0  0  0  0  0  0
    7.2260   -3.0340   24.7040 C   0  0  1  0  0  0  0  0  0  0  0  0
  1  2  1  0
  2  3  2  0
  2  4  1  0
  5  4  1  6
  5  6  1  0
  7  6  1  1
  7  8  1  0
  8  9  1  0
  9 10  2  0
  9 11  1  0
 11 12  1  1
 11 13  1  0
 13 14  2  0
 14 15  1  0
 15 16  1  6
 15 17  1  0
 17 18  1  0
 18 19  1  0
 19 20  1  0
 20 21  1  0
 20 22  1  0
 15 23  1  0
 20 23  1  0
 14 24  1  0
 24 25  1  0
  5 26  1  0
 26 25  1  6
  7 27  1  0
 27 13  1  6
 26 27  1  0
M  END
