MAR-SOS-82e3a7c7-3
     RDKit          3D

 38 41  0  0  0  0  0  0  0  0999 V2000
    7.6350   -3.8040   24.9900 C   0  0  0  0  0  0  0  0  0  0  0  0
    7.6830   -3.1700   23.7100 N   0  0  0  0  0  0  0  0  0  0  0  0
    6.3470   -2.8740   23.1730 C   0  0  0  0  0  0  0  0  0  0  0  0
    8.9210   -2.4090   23.3290 C   0  0  2  0  0  0  0  0  0  0  0  0
    9.1240   -1.2830   24.0260 C   0  0  0  0  0  0  0  0  0  0  0  0
   10.3200   -0.5670   23.6440 C   0  0  0  0  0  0  0  0  0  0  0  0
   10.3360    0.6410   23.1390 C   0  0  0  0  0  0  0  0  0  0  0  0
   11.6660    1.1520   22.8200 C   0  0  0  0  0  0  0  0  0  0  0  0
   12.7700    0.4240   23.0170 C   0  0  0  0  0  0  0  0  0  0  0  0
   12.8890   -1.0030   23.5970 C   0  0  0  0  0  0  0  0  0  0  0  0
   11.4380   -1.3290   23.8640 C   0  0  0  0  0  0  0  0  0  0  0  0
    9.0580   -1.9280   21.8210 C   0  0  0  0  0  0  0  0  0  0  0  0
    7.9580   -1.5470   21.1160 O   0  0  0  0  0  0  0  0  0  0  0  0
   10.3790   -1.8510   21.2310 N   0  0  0  0  0  0  0  0  0  0  0  0
   11.4550   -2.7560   21.4620 C   0  0  2  0  0  0  0  0  0  0  0  0
   12.1680   -2.4720   22.7460 C   0  0  0  0  0  0  0  0  0  0  0  0
   13.3230   -3.2420   22.2850 C   0  0  0  0  0  0  0  0  0  0  0  0
   13.2610   -3.6640   20.9520 C   0  0  0  0  0  0  0  0  0  0  0  0
   14.2500   -4.4210   20.3160 C   0  0  0  0  0  0  0  0  0  0  0  0
   15.4050   -4.8190   20.9590 C   0  0  0  0  0  0  0  0  0  0  0  0
   15.5970   -4.4610   22.2750 C   0  0  0  0  0  0  0  0  0  0  0  0
   14.4170   -3.5740   23.0570 C   0  0  0  0  0  0  0  0  0  0  0  0
   12.7300   -2.9100   20.5060 C   0  0  0  0  0  0  0  0  0  0  0  0
   13.4340   -1.9220   20.3820 O   0  0  0  0  0  0  0  0  0  0  0  0
   13.1360   -4.1920   19.7670 C   0  0  0  0  0  0  0  0  0  0  0  0
   12.2050   -4.9520   19.5710 O   0  0  0  0  0  0  0  0  0  0  0  0
   14.5530   -4.4540   19.1200 N   0  0  0  0  0  0  0  0  0  0  0  0
   15.0360   -4.0750   17.7550 C   0  0  0  0  0  0  0  0  0  0  0  0
   14.0960   -4.6350   16.6750 C   0  0  0  0  0  0  0  0  0  0  0  0
   14.5330   -5.8400   16.3910 N   0  0  0  0  0  0  0  0  0  0  0  0
   14.7640   -5.6570   14.9500 C   0  0  0  0  0  0  0  0  0  0  0  0
   15.4500   -6.6560   14.2560 C   0  0  0  0  0  0  0  0  0  0  0  0
   16.0340   -7.0960   12.8010 C   0  0  0  0  0  0  0  0  0  0  0  0
   15.7560   -6.0460   11.7670 C   0  0  0  0  0  0  0  0  0  0  0  0
   14.9030   -4.6870   12.5690 C   0  0  0  0  0  0  0  0  0  0  0  0
   14.3990   -4.5850   14.2040 C   0  0  0  0  0  0  0  0  0  0  0  0
   15.6230   -5.9460   17.3800 C   0  0  0  0  0  0  0  0  0  0  0  0
   15.3570   -5.6060   18.9220 C   0  0  0  0  0  0  0  0  0  0  0  0
  1  2  1  0
  2  3  1  0
  2  4  1  0
  4  5  1  1
  5  6  1  0
  6  7  2  0
  7  8  1  0
  8  9  2  0
  9 10  1  0
  6 11  1  0
 10 11  2  0
  4 12  1  0
 12 13  2  0
 12 14  1  0
 14 15  1  0
 15 16  1  1
 16 17  1  0
 17 18  2  0
 18 19  1  0
 19 20  2  0
 20 21  1  0
 17 22  1  0
 21 22  2  0
 15 23  1  0
 23 24  2  0
 23 25  1  0
 25 26  2  0
 25 27  1  0
 27 28  1  0
 28 29  1  0
 29 30  1  0
 30 31  1  0
 31 32  2  0
 32 33  1  0
 33 34  2  0
 34 35  1  0
 31 36  1  0
 35 36  2  0
 30 37  1  0
 27 38  1  0
 37 38  1  0
M  END
