MAR-SOS-82e3a7c7-5
     RDKit          3D

 28 30  0  0  0  0  0  0  0  0999 V2000
   13.3050   -2.3660   22.7470 C   0  0  0  0  0  0  0  0  0  0  0  0
   13.5040   -1.9240   24.0490 N   0  0  0  0  0  0  0  0  0  0  0  0
   13.1240   -0.5390   24.2900 C   0  0  0  0  0  0  0  0  0  0  0  0
   11.8130   -0.2660   24.1930 C   0  0  0  0  0  0  0  0  0  0  0  0
   11.0520   -1.2050   24.9560 N   0  0  0  0  0  0  0  0  0  0  0  0
    9.8150   -0.8450   25.5000 C   0  0  0  0  0  0  0  0  0  0  0  0
    9.6620   -0.0560   26.4300 O   0  0  0  0  0  0  0  0  0  0  0  0
    8.5790   -1.4460   24.9350 C   0  0  0  0  0  0  0  0  0  0  0  0
    7.4700   -1.0180   25.2660 O   0  0  0  0  0  0  0  0  0  0  0  0
    8.7290   -2.4710   24.0430 C   0  0  2  0  0  0  0  0  0  0  0  0
    9.0530   -1.8540   22.6800 C   0  0  0  0  0  0  0  0  0  0  0  0
   10.2670   -1.1560   22.6750 C   0  0  0  0  0  0  0  0  0  0  0  0
   10.1060    0.2290   23.3960 C   0  0  0  0  0  0  0  0  0  0  0  0
   11.5570    0.7580   23.2560 C   0  0  0  0  0  0  0  0  0  0  0  0
   12.7170    0.2240   22.6760 C   0  0  0  0  0  0  0  0  0  0  0  0
   12.7540   -1.1210   22.0040 C   0  0  0  0  0  0  0  0  0  0  0  0
   11.3800   -1.7390   22.0770 C   0  0  0  0  0  0  0  0  0  0  0  0
    7.4900   -3.2680   24.1280 N   0  0  0  0  0  0  0  0  0  0  0  0
    7.4870   -4.6310   24.6760 C   0  0  0  0  0  0  0  0  0  0  0  0
    8.5110   -5.2860   24.8070 O   0  0  0  0  0  0  0  0  0  0  0  0
    6.2050   -5.1290   25.0150 C   0  0  0  0  0  0  0  0  0  0  0  0
    5.0700   -5.0510   24.2270 C   0  0  0  0  0  0  0  0  0  0  0  0
    4.0310   -5.6490   24.8540 C   0  0  0  0  0  0  0  0  0  0  0  0
    4.4710   -6.1040   26.0150 N   0  0  0  0  0  0  0  0  0  0  0  0
    3.7240   -6.7670   26.9140 C   0  0  0  0  0  0  0  0  0  0  0  0
    5.8460   -5.7970   26.1740 N   0  0  0  0  0  0  0  0  0  0  0  0
   11.4320   -2.6010   24.6440 C   0  0  0  0  0  0  0  0  0  0  0  0
   12.7760   -2.7290   24.9600 C   0  0  0  0  0  0  0  0  0  0  0  0
  1  2  1  0
  2  3  1  0
  3  4  1  0
  4  5  1  0
  5  6  1  0
  6  7  2  0
  6  8  1  0
  8  9  2  0
  8 10  1  0
 10 11  1  6
 11 12  1  0
 12 13  2  0
 13 14  1  0
 14 15  2  0
 15 16  1  0
 12 17  1  0
 16 17  2  0
 10 18  1  0
 18 19  1  0
 19 20  2  0
 19 21  1  0
 21 22  1  0
 22 23  2  0
 23 24  1  0
 24 25  1  0
 21 26  2  0
 24 26  1  0
  5 27  1  0
  2 28  1  0
 27 28  1  0
M  END
