MAR-SOS-82e3a7c7-8
     RDKit          3D

 35 38  0  0  0  0  0  0  0  0999 V2000
   10.6550   -4.5340   24.8990 O   0  0  0  0  0  0  0  0  0  0  0  0
   10.9030   -3.3800   25.0340 C   0  0  0  0  0  0  0  0  0  0  0  0
   12.1060   -2.8390   25.3790 N   0  0  0  0  0  0  0  0  0  0  0  0
   13.3610   -3.3370   24.9190 C   0  0  0  0  0  0  0  0  0  0  0  0
   13.9860   -4.3080   25.9720 C   0  0  0  0  0  0  0  0  0  0  0  0
   13.7560   -4.1800   27.0570 C   0  0  0  0  0  0  0  0  0  0  0  0
   14.3370   -4.8620   28.3530 C   0  0  0  0  0  0  0  0  0  0  0  0
   15.0660   -5.6640   28.3180 C   0  0  0  0  0  0  0  0  0  0  0  0
   15.4230   -5.9960   27.2770 C   0  0  0  0  0  0  0  0  0  0  0  0
   14.7990   -5.2630   26.0610 N   0  0  0  0  0  0  0  0  0  0  0  0
    9.8000   -2.4440   24.7830 C   0  0  0  0  0  0  0  0  0  0  0  0
    9.6120   -1.3500   25.2970 O   0  0  0  0  0  0  0  0  0  0  0  0
    8.8180   -2.8460   23.7850 C   0  0  2  0  0  0  0  0  0  0  0  0
    8.8410   -1.6870   22.8320 C   0  0  0  0  0  0  0  0  0  0  0  0
   10.2730   -1.1630   22.9150 C   0  0  0  0  0  0  0  0  0  0  0  0
   10.5660   -0.0820   23.7030 C   0  0  0  0  0  0  0  0  0  0  0  0
   11.9220    0.4080   23.7730 C   0  0  0  0  0  0  0  0  0  0  0  0
   12.9200   -0.1490   23.1010 C   0  0  0  0  0  0  0  0  0  0  0  0
   12.6380   -1.3170   22.2510 C   0  0  0  0  0  0  0  0  0  0  0  0
   11.3290   -1.7750   22.1910 C   0  0  0  0  0  0  0  0  0  0  0  0
    7.6080   -3.0910   24.5130 N   0  0  0  0  0  0  0  0  0  0  0  0
    7.5630   -4.0150   25.6080 C   0  0  0  0  0  0  0  0  0  0  0  0
    8.3990   -5.0930   25.7460 O   0  0  0  0  0  0  0  0  0  0  0  0
    6.5940   -3.7940   26.5980 C   0  0  1  0  0  0  0  0  0  0  0  0
    5.5620   -2.8860   26.0540 C   0  0  0  0  0  0  0  0  0  0  0  0
    4.6940   -4.0000   25.3710 C   0  0  0  0  0  0  0  0  0  0  0  0
    5.1470   -5.2680   25.6950 C   0  0  0  0  0  0  0  0  0  0  0  0
    5.7430   -4.9970   26.8120 N   0  0  0  0  0  0  0  0  0  0  0  0
    4.7660   -4.7560   27.8960 C   0  0  0  0  0  0  0  0  0  0  0  0
    4.9130   -5.6710   29.0650 C   0  0  0  0  0  0  0  0  0  0  0  0
    5.8030   -6.7280   28.9510 C   0  0  0  0  0  0  0  0  0  0  0  0
    5.9670   -7.6560   30.0950 C   0  0  0  0  0  0  0  0  0  0  0  0
    5.1350   -7.3560   31.3060 C   0  0  0  0  0  0  0  0  0  0  0  0
    4.2950   -6.2450   31.2340 C   0  0  0  0  0  0  0  0  0  0  0  0
    4.1590   -5.4120   30.1790 N   0  0  0  0  0  0  0  0  0  0  0  0
  1  2  2  0
  2  3  1  0
  3  4  1  0
  4  5  1  0
  5  6  2  0
  6  7  1  0
  7  8  2  0
  8  9  1  0
  5 10  1  0
  9 10  2  0
  2 11  1  0
 11 12  2  0
 11 13  1  0
 13 14  1  6
 14 15  1  0
 15 16  2  0
 16 17  1  0
 17 18  2  0
 18 19  1  0
 15 20  1  0
 19 20  2  0
 13 21  1  0
 21 22  1  0
 22 23  2  0
 24 22  1  6
 24 25  1  0
 25 26  1  0
 26 27  1  0
 24 28  1  0
 27 28  1  0
 28 29  1  0
 29 30  1  0
 30 31  2  0
 31 32  1  0
 32 33  2  0
 33 34  1  0
 30 35  1  0
 34 35  2  0
M  END
