MAR-SOS-c7881798-3
     RDKit          3D

 32 35  0  0  0  0  0  0  0  0999 V2000
    6.7530    1.3230   16.9150 O   0  0  0  0  0  0  0  0  0  0  0  0
    6.7000    0.2070   17.3710 C   0  0  0  0  0  0  0  0  0  0  0  0
    5.5600   -0.2620   17.9780 N   0  0  0  0  0  0  0  0  0  0  0  0
    5.4790   -0.7230   19.2820 C   0  0  2  0  0  0  0  0  0  0  0  0
    5.7640    0.2510   20.2530 C   0  0  0  0  0  0  0  0  0  0  0  0
    4.9930    1.4120   20.3200 C   0  0  0  0  0  0  0  0  0  0  0  0
    3.6320    1.2420   20.0600 C   0  0  0  0  0  0  0  0  0  0  0  0
    2.7200    2.4640   20.1180 C   0  0  0  0  0  0  0  0  0  0  0  0
    3.3820    3.7710   20.4580 C   0  0  0  0  0  0  0  0  0  0  0  0
    4.7430    3.8360   20.6990 C   0  0  0  0  0  0  0  0  0  0  0  0
    5.5380    2.6920   20.6340 C   0  0  0  0  0  0  0  0  0  0  0  0
    6.3230   -1.8420   19.2670 C   0  0  0  0  0  0  0  0  0  0  0  0
    7.3540   -2.1280   18.4520 O   0  0  0  0  0  0  0  0  0  0  0  0
    6.1210   -2.7920   20.2300 C   0  0  0  0  0  0  0  0  0  0  0  0
    5.4480   -3.9670   19.9800 O   0  0  0  0  0  0  0  0  0  0  0  0
    6.6540   -2.4400   21.3840 N   0  0  0  0  0  0  0  0  0  0  0  0
    6.9390   -3.4930   22.3880 C   0  0  0  0  0  0  0  0  0  0  0  0
    8.0160   -3.1030   23.4330 C   0  0  0  0  0  0  0  0  0  0  0  0
    8.9420   -2.2110   23.0260 N   0  0  0  0  0  0  0  0  0  0  0  0
   10.2690   -2.2180   23.4590 C   0  0  0  0  0  0  0  0  0  0  0  0
   11.3760   -1.6370   23.6420 C   0  0  0  0  0  0  0  0  0  0  0  0
   12.5990   -2.1340   24.1540 C   0  0  0  0  0  0  0  0  0  0  0  0
   12.7380   -0.6750   23.7530 C   0  0  0  0  0  0  0  0  0  0  0  0
   11.6260    0.1240   23.1820 C   0  0  0  0  0  0  0  0  0  0  0  0
   10.4350   -0.8310   23.1040 C   0  0  0  0  0  0  0  0  0  0  0  0
    8.8380   -1.8280   21.6290 C   0  0  0  0  0  0  0  0  0  0  0  0
    7.5920   -1.3290   21.3980 C   0  0  0  0  0  0  0  0  0  0  0  0
    7.9220   -0.7370   17.2630 C   0  0  2  0  0  0  0  0  0  0  0  0
    8.4660   -0.4670   16.0940 C   0  0  0  0  0  0  0  0  0  0  0  0
    7.3690   -0.7860   15.4200 C   0  0  0  0  0  0  0  0  0  0  0  0
    6.7450   -1.8600   15.9020 C   0  0  0  0  0  0  0  0  0  0  0  0
    7.6260   -2.0370   16.9890 N   0  0  0  0  0  0  0  0  0  0  0  0
  1  2  2  0
  2  3  1  0
  3  4  1  0
  4  5  1  1
  5  6  1  0
  6  7  2  0
  7  8  1  0
  8  9  2  0
  9 10  1  0
  6 11  1  0
 10 11  2  0
  4 12  1  0
 12 13  2  0
 12 14  1  0
 14 15  2  0
 14 16  1  0
 16 17  1  0
 17 18  1  0
 18 19  1  0
 19 20  1  0
 20 21  2  0
 21 22  1  0
 22 23  2  0
 23 24  1  0
 20 25  1  0
 24 25  2  0
 19 26  1  0
 16 27  1  0
 26 27  1  0
 28  2  1  6
 28 29  1  0
 29 30  1  0
 30 31  1  0
 28 32  1  0
 31 32  1  0
M  END
