MAR-UNI-9d4da90d-5
     RDKit          3D

 16 17  0  0  0  0  0  0  0  0999 V2000
   13.1510   -1.8570   21.2760 C   0  0  0  0  0  0  0  0  0  0  0  0
   12.3060   -1.2850   22.3490 C   0  0  0  0  0  0  0  0  0  0  0  0
   12.7310   -0.1430   23.1400 C   0  0  0  0  0  0  0  0  0  0  0  0
   11.9840    0.3990   24.1140 N   0  0  0  0  0  0  0  0  0  0  0  0
   10.7860   -0.1860   24.3300 C   0  0  0  0  0  0  0  0  0  0  0  0
    9.9490    0.2810   25.2880 N   0  0  0  0  0  0  0  0  0  0  0  0
   10.3160   -1.2860   23.6070 C   0  0  0  0  0  0  0  0  0  0  0  0
    9.0810   -1.8390   23.8740 C   0  0  0  0  0  0  0  0  0  0  0  0
    9.1200   -3.0810   24.4620 N   0  0  0  0  0  0  0  0  0  0  0  0
    7.9640   -3.3560   25.2660 C   0  0  0  0  0  0  0  0  0  0  0  0
    7.7630   -4.7120   26.0180 C   0  0  0  0  0  0  0  0  0  0  0  0
    9.0900   -5.1300   26.6640 C   0  0  0  0  0  0  0  0  0  0  0  0
    9.2820   -6.5250   26.5520 O   0  0  0  0  0  0  0  0  0  0  0  0
   10.1090   -4.4010   25.9170 C   0  0  0  0  0  0  0  0  0  0  0  0
   10.3620   -3.3350   25.0140 C   0  0  0  0  0  0  0  0  0  0  0  0
   11.0650   -1.8190   22.6380 C   0  0  0  0  0  0  0  0  0  0  0  0
  1  2  1  0
  2  3  2  0
  3  4  1  0
  4  5  2  0
  5  6  1  0
  5  7  1  0
  7  8  1  0
  8  9  1  0
  9 10  1  0
 10 11  1  0
 11 12  1  0
 12 13  1  0
 12 14  1  0
  9 15  1  0
 14 15  1  0
  2 16  1  0
  7 16  2  0
M  END
