MAR-SOS-82e3a7c7-12
     RDKit          3D

 38 41  0  0  0  0  0  0  0  0999 V2000
   10.8470   -1.5010   23.1160 O   0  0  0  0  0  0  0  0  0  0  0  0
   10.3810   -2.2630   22.2920 C   0  0  0  0  0  0  0  0  0  0  0  0
   11.1820   -2.6800   21.1980 N   0  0  0  0  0  0  0  0  0  0  0  0
   12.6540   -2.4790   21.3880 C   0  0  0  0  0  0  0  0  0  0  0  0
   12.8840   -2.0670   22.6740 C   0  0  0  0  0  0  0  0  0  0  0  0
   12.3490   -0.8180   22.9460 C   0  0  0  0  0  0  0  0  0  0  0  0
   12.4200   -0.1460   24.2430 C   0  0  0  0  0  0  0  0  0  0  0  0
   13.0490   -0.7780   25.2550 C   0  0  0  0  0  0  0  0  0  0  0  0
   13.6560   -2.1450   24.9750 C   0  0  0  0  0  0  0  0  0  0  0  0
   13.5480   -2.7020   23.7220 C   0  0  0  0  0  0  0  0  0  0  0  0
    8.8910   -2.7130   22.4850 C   0  0  0  0  0  0  0  0  0  0  0  0
    8.4100   -3.7610   22.0770 O   0  0  0  0  0  0  0  0  0  0  0  0
    8.0550   -1.7650   23.2650 C   0  0  1  0  0  0  0  0  0  0  0  0
    8.1360   -0.6200   22.5380 C   0  0  0  0  0  0  0  0  0  0  0  0
    9.6510   -0.2010   22.7180 C   0  0  0  0  0  0  0  0  0  0  0  0
    9.9240    1.0130   23.6160 C   0  0  0  0  0  0  0  0  0  0  0  0
   11.3960    1.3690   23.7470 C   0  0  0  0  0  0  0  0  0  0  0  0
   12.4180    0.6460   23.1180 C   0  0  0  0  0  0  0  0  0  0  0  0
   12.1040   -0.4490   22.3300 C   0  0  0  0  0  0  0  0  0  0  0  0
   10.7580   -0.8610   22.1260 C   0  0  0  0  0  0  0  0  0  0  0  0
    6.9000   -2.6710   23.5570 N   0  0  0  0  0  0  0  0  0  0  0  0
    7.0390   -3.8330   24.5490 C   0  0  0  0  0  0  0  0  0  0  0  0
    7.9630   -4.6660   24.5460 O   0  0  0  0  0  0  0  0  0  0  0  0
    5.9870   -3.9220   25.4730 C   0  0  2  0  0  0  0  0  0  0  0  0
    5.7490   -2.8480   26.3240 C   0  0  0  0  0  0  0  0  0  0  0  0
    4.4510   -2.3410   26.3800 C   0  0  0  0  0  0  0  0  0  0  0  0
    3.3690   -3.0700   25.8400 C   0  0  0  0  0  0  0  0  0  0  0  0
    1.9910   -2.4950   25.9210 C   0  0  0  0  0  0  0  0  0  0  0  0
    1.8200   -1.1590   26.5770 C   0  0  0  0  0  0  0  0  0  0  0  0
    2.9510   -0.5090   27.0820 C   0  0  0  0  0  0  0  0  0  0  0  0
    4.2240   -1.0840   26.9850 C   0  0  0  0  0  0  0  0  0  0  0  0
    6.0830   -5.2420   26.1540 N   0  0  0  0  0  0  0  0  0  0  0  0
    7.2450   -5.5880   26.7690 C   0  0  0  0  0  0  0  0  0  0  0  0
    7.2900   -5.9850   28.1070 C   0  0  0  0  0  0  0  0  0  0  0  0
    6.1120   -6.0500   28.8460 C   0  0  0  0  0  0  0  0  0  0  0  0
    4.7960   -5.9540   28.0830 C   0  0  0  0  0  0  0  0  0  0  0  0
    4.8770   -5.7910   26.6100 C   0  0  0  0  0  0  0  0  0  0  0  0
    3.9300   -6.1320   25.8980 O   0  0  0  0  0  0  0  0  0  0  0  0
  1  2  2  0
  2  3  1  0
  3  4  1  0
  4  5  1  0
  5  6  2  0
  6  7  1  0
  7  8  2  0
  8  9  1  0
  5 10  1  0
  9 10  2  0
  2 11  1  0
 11 12  2  0
 11 13  1  0
 13 14  1  6
 14 15  1  0
 15 16  2  0
 16 17  1  0
 17 18  2  0
 18 19  1  0
 15 20  1  0
 19 20  2  0
 13 21  1  0
 21 22  1  0
 22 23  2  0
 22 24  1  0
 24 25  1  1
 25 26  1  0
 26 27  2  0
 27 28  1  0
 28 29  2  0
 29 30  1  0
 26 31  1  0
 30 31  2  0
 24 32  1  0
 32 33  1  0
 33 34  2  0
 34 35  1  0
 35 36  2  0
 32 37  1  0
 36 37  1  0
 37 38  2  0
M  END
