MAR-SOS-c7881798-12
     RDKit          3D

 38 41  0  0  0  0  0  0  0  0999 V2000
    8.1310    0.8770   14.7280 C   0  0  0  0  0  0  0  0  0  0  0  0
    7.4520    0.3660   15.6710 N   0  0  0  0  0  0  0  0  0  0  0  0
    7.4410    0.9840   16.8400 C   0  0  0  0  0  0  0  0  0  0  0  0
    8.4230   -0.5400   15.5360 C   0  0  1  0  0  0  0  0  0  0  0  0
    9.8200   -0.0540   14.7540 C   0  0  0  0  0  0  0  0  0  0  0  0
   10.7270    0.9560   15.4040 C   0  0  0  0  0  0  0  0  0  0  0  0
   10.2460    2.5080   15.5100 C   0  0  0  0  0  0  0  0  0  0  0  0
   11.6510    4.0270   16.5000 C   0  0  0  0  0  0  0  0  0  0  0  0
   12.5830    3.7270   17.1460 C   0  0  0  0  0  0  0  0  0  0  0  0
   12.9810    2.4980   17.2090 C   0  0  0  0  0  0  0  0  0  0  0  0
   12.7370    1.2960   16.7490 C   0  0  0  0  0  0  0  0  0  0  0  0
    8.3590   -1.5840   16.6140 C   0  0  0  0  0  0  0  0  0  0  0  0
    8.6490   -2.7340   16.4320 O   0  0  0  0  0  0  0  0  0  0  0  0
    7.9030   -1.1290   17.8050 N   0  0  0  0  0  0  0  0  0  0  0  0
    6.5280   -1.3090   18.2090 C   0  0  2  0  0  0  0  0  0  0  0  0
    5.6560   -0.2650   17.8210 C   0  0  0  0  0  0  0  0  0  0  0  0
    5.1670    0.6550   18.7580 C   0  0  0  0  0  0  0  0  0  0  0  0
    4.9740    0.3300   20.1020 C   0  0  0  0  0  0  0  0  0  0  0  0
    4.4810    1.2650   21.0180 C   0  0  0  0  0  0  0  0  0  0  0  0
    4.1610    2.5580   20.5990 C   0  0  0  0  0  0  0  0  0  0  0  0
    4.3450    2.9020   19.2440 C   0  0  0  0  0  0  0  0  0  0  0  0
    4.8390    1.9530   18.3630 C   0  0  0  0  0  0  0  0  0  0  0  0
    6.6610   -1.3120   19.6860 C   0  0  0  0  0  0  0  0  0  0  0  0
    7.3030   -0.4340   20.2490 O   0  0  0  0  0  0  0  0  0  0  0  0
    6.0560   -2.3310   20.4370 C   0  0  0  0  0  0  0  0  0  0  0  0
    5.3850   -3.2290   19.9100 O   0  0  0  0  0  0  0  0  0  0  0  0
    6.2990   -2.1970   21.7870 N   0  0  0  0  0  0  0  0  0  0  0  0
    6.7440   -3.3330   22.6000 C   0  0  0  0  0  0  0  0  0  0  0  0
    8.1310   -3.3410   22.8770 C   0  0  0  0  0  0  0  0  0  0  0  0
    8.6700   -2.0240   23.3080 N   0  0  0  0  0  0  0  0  0  0  0  0
   10.1200   -2.1530   23.4750 C   0  0  0  0  0  0  0  0  0  0  0  0
   11.2810   -1.6060   23.5060 C   0  0  0  0  0  0  0  0  0  0  0  0
   12.6840   -1.9630   23.6840 C   0  0  0  0  0  0  0  0  0  0  0  0
   12.9730   -0.6830   23.5070 C   0  0  0  0  0  0  0  0  0  0  0  0
   11.5950    0.0370   23.2690 C   0  0  0  0  0  0  0  0  0  0  0  0
   10.2800   -0.7050   23.2660 C   0  0  0  0  0  0  0  0  0  0  0  0
    8.2540   -0.8970   22.4820 C   0  0  0  0  0  0  0  0  0  0  0  0
    6.7440   -0.9250   22.3210 C   0  0  0  0  0  0  0  0  0  0  0  0
  1  2  1  0
  2  3  1  0
  2  4  1  0
  4  5  1  1
  5  6  1  0
  6  7  2  0
  7  8  1  0
  8  9  2  0
  9 10  1  0
  6 11  1  0
 10 11  2  0
  4 12  1  0
 12 13  2  0
 12 14  1  0
 14 15  1  0
 15 16  1  1
 16 17  1  0
 17 18  2  0
 18 19  1  0
 19 20  2  0
 20 21  1  0
 17 22  1  0
 21 22  2  0
 15 23  1  0
 23 24  2  0
 23 25  1  0
 25 26  2  0
 25 27  1  0
 27 28  1  0
 28 29  1  0
 29 30  1  0
 30 31  1  0
 31 32  2  0
 32 33  1  0
 33 34  2  0
 34 35  1  0
 31 36  1  0
 35 36  2  0
 30 37  1  0
 27 38  1  0
 37 38  1  0
M  END
