MAR-SOS-c7881798-1
     RDKit          3D

 31 33  0  0  0  0  0  0  0  0999 V2000
    3.9080    3.3400   20.6320 N   0  0  0  0  0  0  0  0  0  0  0  0
    3.9660    1.8860   20.4250 C   0  0  0  0  0  0  0  0  0  0  0  0
    2.8710    1.1720   19.8790 O   0  0  0  0  0  0  0  0  0  0  0  0
    5.0980    1.2390   20.7910 C   0  0  0  0  0  0  0  0  0  0  0  0
    5.2750    1.1810   21.9990 O   0  0  0  0  0  0  0  0  0  0  0  0
    6.0400    0.6880   19.7880 C   0  0  2  0  0  0  0  0  0  0  0  0
    5.2650   -0.1440   18.7300 C   0  0  0  0  0  0  0  0  0  0  0  0
    6.1650   -0.2660   17.7210 C   0  0  0  0  0  0  0  0  0  0  0  0
    6.6870    0.9370   17.2440 C   0  0  0  0  0  0  0  0  0  0  0  0
    7.6500    1.0560   16.2380 C   0  0  0  0  0  0  0  0  0  0  0  0
    8.1710   -0.2200   15.6090 C   0  0  0  0  0  0  0  0  0  0  0  0
    7.5860   -1.5170   16.1310 C   0  0  0  0  0  0  0  0  0  0  0  0
    6.5690   -1.4820   17.2020 C   0  0  0  0  0  0  0  0  0  0  0  0
    7.2100    0.0190   20.1510 N   0  0  0  0  0  0  0  0  0  0  0  0
    7.6770   -1.2730   19.7020 C   0  0  0  0  0  0  0  0  0  0  0  0
    7.4970   -0.7170   18.4850 O   0  0  0  0  0  0  0  0  0  0  0  0
    7.7410   -1.4760   21.0720 C   0  0  2  0  0  0  0  0  0  0  0  0
    8.6030   -2.4170   21.7170 C   0  0  0  0  0  0  0  0  0  0  0  0
    7.9010   -3.1730   22.6930 C   0  0  0  0  0  0  0  0  0  0  0  0
    7.3900   -4.5850   22.4450 C   0  0  0  0  0  0  0  0  0  0  0  0
    6.6790   -5.3340   23.3830 C   0  0  0  0  0  0  0  0  0  0  0  0
    6.4090   -4.7700   24.6210 C   0  0  0  0  0  0  0  0  0  0  0  0
    6.9210   -3.3430   24.9050 C   0  0  0  0  0  0  0  0  0  0  0  0
    7.6390   -2.6070   23.9590 C   0  0  0  0  0  0  0  0  0  0  0  0
    6.5760   -1.7190   21.7600 N   0  0  0  0  0  0  0  0  0  0  0  0
    6.6170   -1.2540   23.0510 C   0  0  0  0  0  0  0  0  0  0  0  0
    5.4320   -1.1960   23.7830 C   0  0  0  0  0  0  0  0  0  0  0  0
    5.2460   -1.5880   22.4840 C   0  0  0  0  0  0  0  0  0  0  0  0
    5.8850   -2.7420   22.9480 C   0  0  0  0  0  0  0  0  0  0  0  0
    5.6940   -2.7990   21.4640 C   0  0  0  0  0  0  0  0  0  0  0  0
    4.8180   -3.9160   21.7240 O   0  0  0  0  0  0  0  0  0  0  0  0
  1  2  1  0
  2  3  2  0
  2  4  1  0
  4  5  2  0
  4  6  1  0
  6  7  1  1
  7  8  1  0
  8  9  2  0
  9 10  1  0
 10 11  2  0
 11 12  1  0
  8 13  1  0
 12 13  2  0
  6 14  1  0
 14 15  1  0
 15 16  2  0
 15 17  1  0
 17 18  1  6
 18 19  1  0
 19 20  2  0
 20 21  1  0
 21 22  2  0
 22 23  1  0
 19 24  1  0
 23 24  2  0
 17 25  1  0
 25 26  1  0
 26 27  2  0
 27 28  1  0
 28 29  2  0
 25 30  1  0
 29 30  1  0
 30 31  2  0
M  END
