MAR-UNI-9ca61fdc-1
     RDKit          3D

 18 19  0  0  0  0  0  0  0  0999 V2000
   13.4560   -2.7220   24.4560 C   0  0  0  0  0  0  0  0  0  0  0  0
   13.4730   -1.9930   23.2320 O   0  0  0  0  0  0  0  0  0  0  0  0
   12.6430   -0.9670   23.3790 C   0  0  0  0  0  0  0  0  0  0  0  0
   11.4300   -1.2660   23.9560 C   0  0  0  0  0  0  0  0  0  0  0  0
   10.4320   -0.3510   24.2200 C   0  0  0  0  0  0  0  0  0  0  0  0
   10.6470    0.9940   23.8780 C   0  0  0  0  0  0  0  0  0  0  0  0
    9.7200    1.9720   24.1010 N   0  0  0  0  0  0  0  0  0  0  0  0
   10.3680    3.0350   23.6160 C   0  0  0  0  0  0  0  0  0  0  0  0
   11.7510    2.8190   23.0500 C   0  0  0  0  0  0  0  0  0  0  0  0
   12.5760    3.9440   22.4680 C   0  0  0  0  0  0  0  0  0  0  0  0
   12.7160    5.1980   23.2550 C   0  0  0  0  0  0  0  0  0  0  0  0
   11.5210    5.8970   23.3040 N   0  0  0  0  0  0  0  0  0  0  0  0
   11.4490    7.2650   24.3140 S   0  0  0  0  0  0  0  0  0  0  0  0
   11.7980    6.6140   25.9260 C   0  0  0  0  0  0  0  0  0  0  0  0
   12.5480    8.1090   23.9040 O   0  0  0  0  0  0  0  0  0  0  0  0
   10.0780    7.7300   24.2660 O   0  0  0  0  0  0  0  0  0  0  0  0
   11.9190    1.3890   23.2490 C   0  0  0  0  0  0  0  0  0  0  0  0
   12.9310    0.4640   22.9850 C   0  0  0  0  0  0  0  0  0  0  0  0
  1  2  1  0
  2  3  1  0
  3  4  2  0
  4  5  1  0
  5  6  2  0
  6  7  1  0
  7  8  1  0
  8  9  2  0
  9 10  1  0
 10 11  1  0
 11 12  1  0
 13 12  1  0
 13 14  1  0
 13 15  2  0
 13 16  2  0
  6 17  1  0
  9 17  1  0
  3 18  1  0
 17 18  2  0
M  END
