MAR-UNI-c84db004-15
     RDKit          3D

 35 40  0  0  0  0  0  0  0  0999 V2000
    7.7980   -2.2470   22.8200 C   0  0  0  0  0  0  0  0  0  0  0  0
    7.4210   -1.0970   22.1250 C   0  0  0  0  0  0  0  0  0  0  0  0
    6.1340   -1.3230   21.3690 C   0  0  0  0  0  0  0  0  0  0  0  0
    6.9960   -0.1850   22.8250 O   0  0  0  0  0  0  0  0  0  0  0  0
    8.4200   -0.3360   21.1110 C   0  0  0  0  0  0  0  0  0  0  0  0
    9.6260    0.1300   21.6960 C   0  0  1  0  0  0  0  0  0  0  0  0
    9.1640    0.2060   22.8870 C   0  0  0  0  0  0  0  0  0  0  0  0
    9.3510   -1.0390   23.5690 C   0  0  0  0  0  0  0  0  0  0  0  0
   10.2370   -1.9090   23.1080 O   0  0  0  0  0  0  0  0  0  0  0  0
   11.3160   -0.8820   22.9660 C   0  0  0  0  0  0  0  0  0  0  0  0
   10.1350   -0.8580   22.3840 C   0  0  0  0  0  0  0  0  0  0  0  0
    9.3430   -1.9700   22.5670 C   0  0  0  0  0  0  0  0  0  0  0  0
    9.8310   -3.0620   23.4300 C   0  0  0  0  0  0  0  0  0  0  0  0
   11.2810   -2.7340   23.9590 C   0  0  0  0  0  0  0  0  0  0  0  0
   11.8730   -3.6060   24.7080 C   0  0  0  0  0  0  0  0  0  0  0  0
   13.2470   -3.4350   25.2870 C   0  0  0  0  0  0  0  0  0  0  0  0
   13.9050   -2.2280   24.9630 C   0  0  0  0  0  0  0  0  0  0  0  0
   13.2610   -1.3440   24.1670 C   0  0  0  0  0  0  0  0  0  0  0  0
   12.0000   -1.6170   23.7020 C   0  0  0  0  0  0  0  0  0  0  0  0
    9.1330   -4.1090   23.6820 O   0  0  0  0  0  0  0  0  0  0  0  0
    7.6780   -4.2600   23.3530 C   0  0  0  0  0  0  0  0  0  0  0  0
    6.8430   -4.0280   24.4380 C   0  0  0  0  0  0  0  0  0  0  0  0
    7.3990   -5.6940   22.8740 C   0  0  0  0  0  0  0  0  0  0  0  0
    7.1800   -3.3150   22.3290 C   0  0  0  0  0  0  0  0  0  0  0  0
    8.0280   -2.1430   21.9530 C   0  0  0  0  0  0  0  0  0  0  0  0
    8.3870   -1.0340   24.6380 C   0  0  0  0  0  0  0  0  0  0  0  0
    7.8850   -1.9410   25.5340 O   0  0  0  0  0  0  0  0  0  0  0  0
    8.0100    0.2540   24.4380 C   0  0  0  0  0  0  0  0  0  0  0  0
    7.0920    0.1840   25.4930 C   0  0  0  0  0  0  0  0  0  0  0  0
    6.3250    1.3160   25.8240 C   0  0  0  0  0  0  0  0  0  0  0  0
    6.4160    2.5530   25.1340 C   0  0  0  0  0  0  0  0  0  0  0  0
    7.2950    2.7450   24.0370 C   0  0  0  0  0  0  0  0  0  0  0  0
    7.5260    1.4420   24.4150 C   0  0  0  0  0  0  0  0  0  0  0  0
    8.4530    1.4420   23.2840 C   0  0  0  0  0  0  0  0  0  0  0  0
    8.6480    2.4870   22.6640 O   0  0  0  0  0  0  0  0  0  0  0  0
  1  2  1  0
  2  3  1  0
  2  4  1  0
  2  5  1  0
  6  5  1  6
  6  7  1  0
  7  8  2  0
  8  9  1  0
  9 10  1  0
  6 11  1  0
 10 11  2  0
 11 12  1  0
 12 13  2  0
 13 14  1  0
 14 15  1  0
 15 16  2  0
 16 17  1  0
 17 18  2  0
 10 19  1  0
 14 19  2  0
 18 19  1  0
 13 20  1  0
 20 21  1  0
 21 22  1  0
 21 23  1  0
 21 24  1  0
 12 25  1  0
 24 25  2  0
  8 26  1  0
 26 27  2  0
 26 28  1  0
 28 29  2  0
 29 30  1  0
 30 31  2  0
 31 32  1  0
 28 33  1  0
 32 33  2  0
  7 34  1  0
 33 34  1  0
 34 35  2  0
M  END
