MAR-UNI-c84db004-3
     RDKit          3D

 24 27  0  0  0  0  0  0  0  0999 V2000
    7.9660   -6.2180   28.2490 C   0  0  0  0  0  0  0  0  0  0  0  0
    6.8640   -5.5170   27.9330 N   0  0  0  0  0  0  0  0  0  0  0  0
    6.6660   -4.8370   26.7930 C   0  0  0  0  0  0  0  0  0  0  0  0
    7.2690   -4.5890   25.7410 C   0  0  0  0  0  0  0  0  0  0  0  0
    7.1000   -4.1770   24.4070 C   0  0  0  0  0  0  0  0  0  0  0  0
    8.2240   -4.0130   23.6440 N   0  0  0  0  0  0  0  0  0  0  0  0
    8.3510   -3.0370   22.5190 C   0  0  0  0  0  0  0  0  0  0  0  0
    8.6290   -1.5840   22.8090 C   0  0  0  0  0  0  0  0  0  0  0  0
    9.9390   -1.1920   22.8080 C   0  0  0  0  0  0  0  0  0  0  0  0
   10.3070    0.1800   23.1210 C   0  0  0  0  0  0  0  0  0  0  0  0
   11.7100    0.5800   23.0930 C   0  0  0  0  0  0  0  0  0  0  0  0
   12.7010   -0.3110   22.7860 C   0  0  0  0  0  0  0  0  0  0  0  0
   13.9840    0.0530   22.7550 O   0  0  0  0  0  0  0  0  0  0  0  0
   12.3310   -1.6050   22.5000 C   0  0  0  0  0  0  0  0  0  0  0  0
   11.0020   -2.0800   22.4960 C   0  0  0  0  0  0  0  0  0  0  0  0
    5.7820   -3.9510   23.8920 C   0  0  0  0  0  0  0  0  0  0  0  0
    6.5280   -4.1800   22.7680 O   0  0  0  0  0  0  0  0  0  0  0  0
    5.1440   -3.7290   25.2400 C   0  0  0  0  0  0  0  0  0  0  0  0
    3.9440   -3.0400   25.4710 N   0  0  0  0  0  0  0  0  0  0  0  0
    3.6250   -3.0320   26.8260 C   0  0  0  0  0  0  0  0  0  0  0  0
    4.6330   -3.7220   27.4380 C   0  0  0  0  0  0  0  0  0  0  0  0
    5.5350   -4.1340   26.5210 C   0  0  0  0  0  0  0  0  0  0  0  0
    5.0460   -4.1650   28.8730 C   0  0  0  0  0  0  0  0  0  0  0  0
    5.6980   -5.4500   28.9300 C   0  0  0  0  0  0  0  0  0  0  0  0
  1  2  1  0
  2  3  2  0
  3  4  1  0
  4  5  2  0
  5  6  1  0
  6  7  1  0
  7  8  1  0
  8  9  1  0
  9 10  2  0
 10 11  1  0
 11 12  2  0
 12 13  1  0
 12 14  1  0
  9 15  1  0
 14 15  2  0
  5 16  1  0
 16 17  2  0
 16 18  1  0
 18 19  1  0
 19 20  1  0
 20 21  2  0
  3 22  1  0
 18 22  2  0
 21 22  1  0
 21 23  1  0
  2 24  1  0
 23 24  1  0
M  CHG  1   2   1
M  END
