MAR-UNI-c84db004-19
     RDKit          3D

 27 31  0  0  0  0  0  0  0  0999 V2000
    9.9090   -0.1490   25.5660 C   0  0  0  0  0  0  0  0  0  0  0  0
   10.8060   -0.2700   24.4530 C   0  0  1  0  0  0  0  0  0  0  0  0
   12.0080    0.2650   24.3240 C   0  0  0  0  0  0  0  0  0  0  0  0
   12.6430    0.0110   22.9990 C   0  0  0  0  0  0  0  0  0  0  0  0
   12.2610   -1.1980   22.3360 C   0  0  0  0  0  0  0  0  0  0  0  0
   11.0140   -1.6250   22.9410 C   0  0  1  0  0  0  0  0  0  0  0  0
   11.1410   -1.4570   24.2540 O   0  0  0  0  0  0  0  0  0  0  0  0
    9.6740   -1.7250   22.8860 C   0  0  0  0  0  0  0  0  0  0  0  0
    8.9980   -0.5800   23.2720 C   0  0  0  0  0  0  0  0  0  0  0  0
    7.5420   -0.6190   23.3650 C   0  0  0  0  0  0  0  0  0  0  0  0
    6.8480   -1.7950   23.0780 C   0  0  0  0  0  0  0  0  0  0  0  0
    7.5630   -2.8960   22.6630 C   0  0  0  0  0  0  0  0  0  0  0  0
    8.9360   -2.8210   22.5680 C   0  0  0  0  0  0  0  0  0  0  0  0
    9.5420   -3.7060   22.2300 O   0  0  0  0  0  0  0  0  0  0  0  0
    6.8840   -4.1770   22.3470 C   0  0  0  0  0  0  0  0  0  0  0  0
    7.4410   -5.0860   21.7390 O   0  0  0  0  0  0  0  0  0  0  0  0
    5.5690   -4.4000   22.8300 C   0  0  0  0  0  0  0  0  0  0  0  0
    4.9940   -5.6940   22.8860 C   0  0  0  0  0  0  0  0  0  0  0  0
    5.6910   -6.7940   22.4620 O   0  0  0  0  0  0  0  0  0  0  0  0
    3.7090   -5.9030   23.3730 C   0  0  0  0  0  0  0  0  0  0  0  0
    2.9740   -4.8200   23.8180 C   0  0  0  0  0  0  0  0  0  0  0  0
    1.7440   -5.0910   24.2730 O   0  0  0  0  0  0  0  0  0  0  0  0
    3.5100   -3.5200   23.7780 C   0  0  0  0  0  0  0  0  0  0  0  0
    4.8140   -3.2990   23.2780 C   0  0  0  0  0  0  0  0  0  0  0  0
    5.3990   -1.8860   23.2310 C   0  0  0  0  0  0  0  0  0  0  0  0
    4.7310   -0.8790   23.3560 O   0  0  0  0  0  0  0  0  0  0  0  0
    9.8710    0.3970   23.5330 O   0  0  0  0  0  0  0  0  0  0  0  0
  2  1  1  1
  2  3  1  0
  3  4  1  0
  4  5  1  0
  6  5  1  6
  2  7  1  0
  6  7  1  0
  6  8  1  0
  8  9  2  0
  9 10  1  0
 10 11  2  0
 11 12  1  0
  8 13  1  0
 12 13  2  0
 13 14  1  0
 12 15  1  0
 15 16  2  0
 15 17  1  0
 17 18  2  0
 18 19  1  0
 18 20  1  0
 20 21  2  0
 21 22  1  0
 21 23  1  0
 17 24  1  0
 23 24  2  0
 11 25  1  0
 24 25  1  0
 25 26  2  0
  2 27  1  0
  9 27  1  0
M  END
