MAT-POS-916a2c5a-3
     RDKit          3D

 32 35  0  0  0  0  0  0  0  0999 V2000
   10.4430   -3.1710   24.3010 C   0  0  0  0  0  0  0  0  0  0  0  0
   10.7380   -1.7730   24.0370 C   0  0  0  0  0  0  0  0  0  0  0  0
   11.9600   -1.2340   23.5740 C   0  0  0  0  0  0  0  0  0  0  0  0
   11.9830    0.1720   23.3790 C   0  0  0  0  0  0  0  0  0  0  0  0
   13.1080    0.9630   22.8840 C   0  0  0  0  0  0  0  0  0  0  0  0
   10.7820    1.0280   23.6630 C   0  0  0  0  0  0  0  0  0  0  0  0
   10.7080    2.5320   23.4750 C   0  0  0  0  0  0  0  0  0  0  0  0
    9.5340    0.3410   24.1650 C   0  0  0  0  0  0  0  0  0  0  0  0
    8.0430    1.1290   24.5630 S   0  0  0  0  0  0  0  0  0  0  0  0
    7.5260    0.5450   25.7850 O   0  0  0  0  0  0  0  0  0  0  0  0
    8.2160    2.5630   24.4680 O   0  0  0  0  0  0  0  0  0  0  0  0
    6.9180    0.7340   23.3990 N   0  0  0  0  0  0  0  0  0  0  0  0
    6.7600    1.5950   22.1860 C   0  0  0  0  0  0  0  0  0  0  0  0
    7.2130    0.7790   21.0170 C   0  0  0  0  0  0  0  0  0  0  0  0
    8.0670   -0.2350   21.6410 N   0  0  0  0  0  0  0  0  0  0  0  0
    9.1850    0.4290   22.3870 C   0  0  0  0  0  0  0  0  0  0  0  0
    9.1280    1.6120   22.6850 O   0  0  0  0  0  0  0  0  0  0  0  0
   10.4150   -0.5000   22.6280 C   0  0  0  0  0  0  0  0  0  0  0  0
   10.5620   -1.2180   21.4160 C   0  0  0  0  0  0  0  0  0  0  0  0
   11.7330   -2.1300   21.2820 C   0  0  0  0  0  0  0  0  0  0  0  0
   12.5220   -2.1620   20.3900 O   0  0  0  0  0  0  0  0  0  0  0  0
   11.8770   -2.8370   22.3220 N   0  0  0  0  0  0  0  0  0  0  0  0
   12.2180   -2.1460   23.4210 C   0  0  0  0  0  0  0  0  0  0  0  0
   13.1950   -2.6030   24.2570 C   0  0  0  0  0  0  0  0  0  0  0  0
   13.5300   -1.9070   25.3300 C   0  0  0  0  0  0  0  0  0  0  0  0
   12.8670   -0.7250   25.5420 C   0  0  0  0  0  0  0  0  0  0  0  0
   11.8740   -0.2140   24.7340 C   0  0  0  0  0  0  0  0  0  0  0  0
   11.5170   -0.9160   23.6480 C   0  0  0  0  0  0  0  0  0  0  0  0
    7.2850   -1.2860   22.2850 C   0  0  0  0  0  0  0  0  0  0  0  0
    6.4510   -0.6790   23.2370 C   0  0  0  0  0  0  0  0  0  0  0  0
    9.5980   -1.0390   24.3150 C   0  0  0  0  0  0  0  0  0  0  0  0
    8.4090   -1.8290   24.7960 C   0  0  0  0  0  0  0  0  0  0  0  0
  1  2  1  0
  2  3  2  0
  3  4  1  0
  4  5  1  0
  4  6  2  0
  6  7  1  0
  6  8  1  0
  9  8  1  0
  9 10  2  0
  9 11  2  0
  9 12  1  0
 12 13  1  0
 13 14  1  0
 14 15  1  0
 15 16  1  0
 16 17  2  0
 16 18  1  0
 18 19  2  0
 19 20  1  0
 20 21  2  0
 20 22  1  0
 22 23  1  0
 23 24  1  0
 24 25  2  0
 25 26  1  0
 26 27  2  0
 18 28  1  0
 23 28  2  0
 27 28  1  0
 15 29  1  0
 12 30  1  0
 29 30  1  0
  2 31  1  0
  8 31  2  0
 31 32  1  0
M  END
