MAT-CRI-83f800fc-2
     RDKit          3D

 34 35  0  0  0  0  0  0  0  0999 V2000
    3.5620   -7.3080   26.0980 C   0  0  0  0  0  0  0  0  0  0  0  0
    2.7980   -7.9610   24.9780 C   0  0  0  0  0  0  0  0  0  0  0  0
    2.4390   -8.2890   23.8560 O   0  0  0  0  0  0  0  0  0  0  0  0
    3.7710   -7.2040   24.3390 N   0  0  0  0  0  0  0  0  0  0  0  0
    3.4910   -6.3990   23.1200 C   0  0  2  0  0  0  0  0  0  0  0  0
    4.7900   -5.7230   22.4620 C   0  0  0  0  0  0  0  0  0  0  0  0
    5.2480   -6.1150   21.4020 O   0  0  0  0  0  0  0  0  0  0  0  0
    5.4200   -4.6640   23.1030 N   0  0  0  0  0  0  0  0  0  0  0  0
    6.4060   -3.7030   22.5510 C   0  0  2  0  0  0  0  0  0  0  0  0
    6.5200   -2.7980   23.6970 C   0  0  0  0  0  0  0  0  0  0  0  0
    6.4990   -2.1300   24.6940 C   0  0  0  0  0  0  0  0  0  0  0  0
    6.3460   -1.1440   26.3190 Br  0  0  0  0  0  0  0  0  0  0  0  0
    5.8820   -2.9800   21.3680 N   0  0  0  0  0  0  0  0  0  0  0  0
    6.8190   -2.0140   20.7000 C   0  0  0  0  0  0  0  0  0  0  0  0
    6.8840   -0.7310   21.3690 N   0  0  0  0  0  0  0  0  0  0  0  0
    5.8800    0.1670   20.8010 C   0  0  0  0  0  0  0  0  0  0  0  0
    5.6030   -0.1800   19.3500 C   0  0  1  0  0  0  0  0  0  0  0  0
    5.7220    0.7870   18.3930 C   0  0  0  0  0  0  0  0  0  0  0  0
    4.9660    1.6610   18.1140 C   0  0  0  0  0  0  0  0  0  0  0  0
    3.8050    1.5840   19.0080 C   0  0  0  0  0  0  0  0  0  0  0  0
    6.3190    1.0870   17.7450 C   0  0  0  0  0  0  0  0  0  0  0  0
    6.7900   -0.0360   18.4990 N   0  0  0  0  0  0  0  0  0  0  0  0
    8.1780   -0.2210   21.6050 C   0  0  0  0  0  0  0  0  0  0  0  0
    8.4820    0.8830   21.1390 O   0  0  0  0  0  0  0  0  0  0  0  0
    9.0600   -0.9620   22.3550 N   0  0  0  0  0  0  0  0  0  0  0  0
   10.4150   -0.6110   22.5180 C   0  0  0  0  0  0  0  0  0  0  0  0
   10.6660    0.7210   22.8460 C   0  0  0  0  0  0  0  0  0  0  0  0
   11.9730    1.1830   23.0120 C   0  0  0  0  0  0  0  0  0  0  0  0
   13.0330    0.3220   22.8630 C   0  0  0  0  0  0  0  0  0  0  0  0
   12.8080   -1.0030   22.5440 C   0  0  0  0  0  0  0  0  0  0  0  0
   11.5010   -1.4740   22.3680 C   0  0  0  0  0  0  0  0  0  0  0  0
    2.3140   -5.4360   23.3300 C   0  0  1  0  0  0  0  0  0  0  0  0
    0.9380   -5.8670   22.7530 C   0  0  0  0  0  0  0  0  0  0  0  0
    2.0830   -5.2290   24.7300 O   0  0  0  0  0  0  0  0  0  0  0  0
  1  2  1  0
  2  3  2  0
  2  4  1  0
  5  4  1  1
  5  6  1  0
  6  7  2  0
  6  8  1  0
  8  9  1  0
  9 10  1  1
 10 11  3  0
 11 12  1  0
  9 13  1  0
 13 14  1  0
 14 15  1  0
 15 16  1  0
 17 16  1  1
 17 18  1  0
 18 19  2  0
 19 20  1  0
 19 21  1  0
 17 22  1  0
 21 22  2  0
 15 23  1  0
 23 24  2  0
 23 25  1  0
 25 26  1  0
 26 27  2  0
 27 28  1  0
 28 29  2  0
 29 30  1  0
 26 31  1  0
 30 31  2  0
  5 32  1  0
 32 33  1  1
 32 34  1  0
M  END
