MAT-POS-916a2c5a-4
     RDKit          3D

 25 28  0  0  0  0  0  0  0  0999 V2000
    9.0440   -3.1660   23.8970 O   0  0  0  0  0  0  0  0  0  0  0  0
    9.0110   -1.9890   23.5260 C   0  0  0  0  0  0  0  0  0  0  0  0
   10.2810   -1.3110   23.1040 C   0  0  0  0  0  0  0  0  0  0  0  0
   11.4360   -2.0920   22.3540 C   0  0  0  0  0  0  0  0  0  0  0  0
   12.8170   -1.4660   21.8650 C   0  0  0  0  0  0  0  0  0  0  0  0
   13.5160   -1.8160   20.9250 O   0  0  0  0  0  0  0  0  0  0  0  0
   12.9210   -0.4580   22.7760 N   0  0  0  0  0  0  0  0  0  0  0  0
   11.7020   -0.7240   23.0030 C   0  0  0  0  0  0  0  0  0  0  0  0
   11.4990   -1.9660   22.9880 C   0  0  0  0  0  0  0  0  0  0  0  0
   12.9290   -1.6160   22.7980 C   0  0  0  0  0  0  0  0  0  0  0  0
   13.1760   -0.0720   22.8520 C   0  0  0  0  0  0  0  0  0  0  0  0
   12.0340    0.9080   23.0750 C   0  0  0  0  0  0  0  0  0  0  0  0
   10.7630    0.1360   23.1890 C   0  0  0  0  0  0  0  0  0  0  0  0
    7.8420   -1.2420   23.4570 N   0  0  0  0  0  0  0  0  0  0  0  0
    6.4910   -1.8090   23.3810 C   0  0  0  0  0  0  0  0  0  0  0  0
    5.9770   -1.6380   22.1450 C   0  0  0  0  0  0  0  0  0  0  0  0
    5.7610   -0.1910   21.9340 N   0  0  0  0  0  0  0  0  0  0  0  0
    5.4910    0.3330   20.5970 C   0  0  0  0  0  0  0  0  0  0  0  0
    5.6650   -0.5140   19.5990 C   0  0  0  0  0  0  0  0  0  0  0  0
    5.4120   -0.0170   18.2320 C   0  0  0  0  0  0  0  0  0  0  0  0
    5.0060    1.3040   18.0480 C   0  0  0  0  0  0  0  0  0  0  0  0
    4.8180    2.1840   19.0850 C   0  0  0  0  0  0  0  0  0  0  0  0
    5.0750    1.6560   20.3620 C   0  0  0  0  0  0  0  0  0  0  0  0
    6.4630    0.7030   22.8640 C   0  0  0  0  0  0  0  0  0  0  0  0
    7.9260    0.1680   23.0840 C   0  0  0  0  0  0  0  0  0  0  0  0
  1  2  2  0
  2  3  1  0
  3  4  2  0
  4  5  1  0
  5  6  2  0
  5  7  1  0
  7  8  1  0
  8  9  1  0
  9 10  2  0
 10 11  1  0
 11 12  2  0
  3 13  1  0
  8 13  2  0
 12 13  1  0
  2 14  1  0
 14 15  1  0
 15 16  1  0
 16 17  1  0
 17 18  1  0
 18 19  2  0
 19 20  1  0
 20 21  2  0
 21 22  1  0
 18 23  1  0
 22 23  2  0
 17 24  1  0
 14 25  1  0
 24 25  1  0
M  END
