MAX-MCD-16e3709a-1
     RDKit          3D

 13 13  0  0  0  0  0  0  0  0999 V2000
    4.9180    0.5290   20.5430 C   0  0  0  0  0  0  0  0  0  0  0  0
    6.0210   -0.4550   20.2820 C   0  0  1  0  0  0  0  0  0  0  0  0
    6.9060    0.2440   18.7270 Br  0  0  0  0  0  0  0  0  0  0  0  0
    6.9170   -0.7200   21.3080 N   0  0  0  0  0  0  0  0  0  0  0  0
    8.1120   -0.0840   21.4840 C   0  0  0  0  0  0  0  0  0  0  0  0
    8.3790    0.9980   20.9720 O   0  0  0  0  0  0  0  0  0  0  0  0
    8.9790   -0.8770   22.3790 N   0  0  0  0  0  0  0  0  0  0  0  0
   10.3180   -0.5280   22.5360 C   0  0  0  0  0  0  0  0  0  0  0  0
   10.5360    0.7930   22.9060 C   0  0  0  0  0  0  0  0  0  0  0  0
   11.9000    1.4110   23.1260 C   0  0  0  0  0  0  0  0  0  0  0  0
   13.0250    0.4370   22.9130 C   0  0  0  0  0  0  0  0  0  0  0  0
   12.6370   -0.9530   22.5210 C   0  0  0  0  0  0  0  0  0  0  0  0
   11.3200   -1.4120   22.3380 C   0  0  0  0  0  0  0  0  0  0  0  0
  2  1  1  1
  2  3  1  0
  2  4  1  0
  4  5  1  0
  5  6  2  0
  5  7  1  0
  7  8  1  0
  8  9  2  0
  9 10  1  0
 10 11  2  0
 11 12  1  0
  8 13  1  0
 12 13  2  0
M  END
