MED-UNK-7e7dab56-11
     RDKit          3D

 27 29  0  0  0  0  0  0  0  0999 V2000
    9.2980    5.3740   23.0150 N   0  0  0  0  0  0  0  0  0  0  0  0
   10.4620    5.1630   24.1840 S   0  0  0  0  0  0  0  0  0  0  0  0
    9.7240    5.0220   25.4280 O   0  0  0  0  0  0  0  0  0  0  0  0
   11.4640    6.1920   23.9850 O   0  0  0  0  0  0  0  0  0  0  0  0
   11.1100    3.6100   23.7660 C   0  0  0  0  0  0  0  0  0  0  0  0
   10.4050    2.4700   24.0460 C   0  0  0  0  0  0  0  0  0  0  0  0
   10.8170    1.1650   23.7430 C   0  0  0  0  0  0  0  0  0  0  0  0
    9.9720   -0.0350   24.0890 C   0  0  0  0  0  0  0  0  0  0  0  0
    8.7590    0.0940   23.9770 O   0  0  0  0  0  0  0  0  0  0  0  0
   10.5830   -1.2520   24.5180 N   0  0  0  0  0  0  0  0  0  0  0  0
    9.8960   -2.4350   24.5930 C   0  0  0  0  0  0  0  0  0  0  0  0
   10.6380   -3.4510   25.2220 C   0  0  0  0  0  0  0  0  0  0  0  0
   10.0010   -4.4520   25.9720 C   0  0  0  0  0  0  0  0  0  0  0  0
    8.6860   -4.7110   25.6140 C   0  0  0  0  0  0  0  0  0  0  0  0
    7.9340   -3.5530   25.7180 C   0  0  0  0  0  0  0  0  0  0  0  0
    8.6020   -2.2950   25.1160 C   0  0  0  0  0  0  0  0  0  0  0  0
   12.1610    0.9470   23.0160 C   0  0  0  0  0  0  0  0  0  0  0  0
   12.7840   -0.8050   22.5720 Br  0  0  0  0  0  0  0  0  0  0  0  0
   12.9090    2.1110   22.6860 C   0  0  0  0  0  0  0  0  0  0  0  0
   14.1630    2.0310   21.9380 C   0  0  0  0  0  0  0  0  0  0  0  0
   14.6300    1.0510   22.2700 O   0  0  0  0  0  0  0  0  0  0  0  0
   14.7110    2.9360   20.9140 N   0  0  0  0  0  0  0  0  0  0  0  0
   15.7100    2.8150   19.7890 C   0  0  1  0  0  0  0  0  0  0  0  0
   16.1640    1.9260   19.1380 C   0  0  0  0  0  0  0  0  0  0  0  0
   15.5300    2.9700   18.3860 C   0  0  1  0  0  0  0  0  0  0  0  0
   15.6230    2.2230   17.3200 F   0  0  0  0  0  0  0  0  0  0  0  0
   12.3370    3.5100   23.1320 C   0  0  0  0  0  0  0  0  0  0  0  0
  2  1  1  0
  2  3  2  0
  2  4  2  0
  2  5  1  0
  5  6  2  0
  6  7  1  0
  7  8  1  0
  8  9  2  0
  8 10  1  0
 10 11  1  0
 11 12  1  0
 12 13  1  0
 13 14  1  0
 14 15  1  0
 11 16  1  0
 15 16  1  0
  7 17  2  0
 17 18  1  0
 17 19  1  0
 19 20  1  0
 20 21  2  0
 20 22  1  0
 23 22  1  1
 23 24  1  0
 23 25  1  0
 24 25  1  0
 25 26  1  1
  5 27  1  0
 19 27  2  0
M  END
