MED-UNK-40f14d64-1
     RDKit          3D

 32 35  0  0  0  0  0  0  0  0999 V2000
    7.0700   -6.1140   22.2980 N   0  0  0  0  0  0  0  0  0  0  0  0
    5.8740   -6.1030   23.1460 C   0  0  2  0  0  0  0  0  0  0  0  0
    4.5810   -5.7880   22.5090 C   0  0  0  0  0  0  0  0  0  0  0  0
    3.5090   -5.5980   23.3750 C   0  0  0  0  0  0  0  0  0  0  0  0
    3.6840   -4.6220   24.3300 C   0  0  0  0  0  0  0  0  0  0  0  0
    4.9090   -4.8190   25.1850 C   0  0  2  0  0  0  0  0  0  0  0  0
    5.2810   -3.8550   26.1300 C   0  0  0  0  0  0  0  0  0  0  0  0
    5.8100   -4.4610   27.3100 O   0  0  0  0  0  0  0  0  0  0  0  0
    5.1370   -2.4550   25.9470 N   0  0  0  0  0  0  0  0  0  0  0  0
    6.1440   -1.5040   26.0220 C   0  0  0  0  0  0  0  0  0  0  0  0
    6.9490   -1.3230   24.7330 C   0  0  2  0  0  0  0  0  0  0  0  0
    7.0910   -0.0920   24.1710 C   0  0  0  0  0  0  0  0  0  0  0  0
    6.1110   -0.8830   23.4190 C   0  0  1  0  0  0  0  0  0  0  0  0
    6.3240   -1.4320   22.1400 C   0  0  0  0  0  0  0  0  0  0  0  0
    5.9150   -2.5710   21.9380 O   0  0  0  0  0  0  0  0  0  0  0  0
    7.0030   -0.5750   21.1570 N   0  0  0  0  0  0  0  0  0  0  0  0
    8.2940   -0.0070   21.5160 C   0  0  0  0  0  0  0  0  0  0  0  0
    8.6590    1.2910   21.0820 O   0  0  0  0  0  0  0  0  0  0  0  0
    9.1000   -0.8330   22.2730 N   0  0  0  0  0  0  0  0  0  0  0  0
   10.4630   -0.4710   22.5090 C   0  0  0  0  0  0  0  0  0  0  0  0
   10.8120    0.7850   22.9660 C   0  0  0  0  0  0  0  0  0  0  0  0
   12.0780    1.1910   23.1810 C   0  0  0  0  0  0  0  0  0  0  0  0
   13.0860    0.3150   22.9430 C   0  0  0  0  0  0  0  0  0  0  0  0
   12.8360   -0.9650   22.4920 C   0  0  0  0  0  0  0  0  0  0  0  0
   11.5480   -1.4690   22.2370 C   0  0  0  0  0  0  0  0  0  0  0  0
    6.3420    0.0780   20.0740 C   0  0  0  0  0  0  0  0  0  0  0  0
    5.1530    0.7800   20.2500 C   0  0  0  0  0  0  0  0  0  0  0  0
    4.5490    1.4250   19.1500 C   0  0  0  0  0  0  0  0  0  0  0  0
    5.1750    1.3350   17.9120 C   0  0  0  0  0  0  0  0  0  0  0  0
    6.3120    0.6580   17.7260 N   0  0  0  0  0  0  0  0  0  0  0  0
    6.8630    0.0510   18.7960 C   0  0  0  0  0  0  0  0  0  0  0  0
    6.1470   -5.1320   24.3080 C   0  0  0  0  0  0  0  0  0  0  0  0
  2  1  1  6
  2  3  1  0
  3  4  1  0
  4  5  1  0
  5  6  1  0
  6  7  1  6
  7  8  2  0
  7  9  1  0
  9 10  1  0
 11 10  1  1
 11 12  1  0
 11 13  1  0
 12 13  1  0
 13 14  1  6
 14 15  2  0
 14 16  1  0
 16 17  1  0
 17 18  2  0
 17 19  1  0
 19 20  1  0
 20 21  2  0
 21 22  1  0
 22 23  2  0
 23 24  1  0
 20 25  1  0
 24 25  2  0
 16 26  1  0
 26 27  2  0
 27 28  1  0
 28 29  2  0
 29 30  1  0
 26 31  1  0
 30 31  2  0
  2 32  1  0
  6 32  1  0
M  END
