MED-UNK-55e26634-1
     RDKit          3D

 33 36  0  0  0  0  0  0  0  0999 V2000
    1.7430   -6.8260   28.9820 N   0  0  0  0  0  0  0  0  0  0  0  0
    3.1510   -7.0330   28.6110 C   0  0  2  0  0  0  0  0  0  0  0  0
    4.0110   -7.0860   29.6490 C   0  0  0  0  0  0  0  0  0  0  0  0
    5.4710   -6.9230   29.4850 C   0  0  0  0  0  0  0  0  0  0  0  0
    5.8950   -5.9280   28.3690 C   0  0  0  0  0  0  0  0  0  0  0  0
    5.0980   -5.9700   27.2460 C   0  0  2  0  0  0  0  0  0  0  0  0
    5.4540   -5.1160   26.2000 C   0  0  0  0  0  0  0  0  0  0  0  0
    6.0750   -5.5270   25.2130 O   0  0  0  0  0  0  0  0  0  0  0  0
    5.1060   -3.7420   26.2440 N   0  0  0  0  0  0  0  0  0  0  0  0
    5.9340   -2.6980   25.8800 C   0  0  0  0  0  0  0  0  0  0  0  0
    6.1430   -2.7640   24.3590 C   0  0  2  0  0  0  0  0  0  0  0  0
    7.5020   -2.5100   23.9760 C   0  0  0  0  0  0  0  0  0  0  0  0
    6.6700   -1.5290   23.3500 C   0  0  1  0  0  0  0  0  0  0  0  0
    6.4060   -1.5900   21.9750 C   0  0  0  0  0  0  0  0  0  0  0  0
    5.5550   -2.3520   21.4900 O   0  0  0  0  0  0  0  0  0  0  0  0
    7.0820   -0.8050   21.1130 N   0  0  0  0  0  0  0  0  0  0  0  0
    8.2180   -0.2140   21.5130 C   0  0  0  0  0  0  0  0  0  0  0  0
    8.5040    1.0460   21.1860 O   0  0  0  0  0  0  0  0  0  0  0  0
    9.0840   -0.9760   22.2730 N   0  0  0  0  0  0  0  0  0  0  0  0
   10.3950   -0.5440   22.4870 C   0  0  0  0  0  0  0  0  0  0  0  0
   10.6660    0.7660   22.8640 C   0  0  0  0  0  0  0  0  0  0  0  0
   12.0870    1.1820   23.0480 C   0  0  0  0  0  0  0  0  0  0  0  0
   13.1370    0.3250   22.8730 C   0  0  0  0  0  0  0  0  0  0  0  0
   12.8870   -0.9890   22.5070 C   0  0  0  0  0  0  0  0  0  0  0  0
   11.4340   -1.4510   22.3000 C   0  0  0  0  0  0  0  0  0  0  0  0
    6.3950   -0.0900   20.0700 C   0  0  0  0  0  0  0  0  0  0  0  0
    5.1960    0.5920   20.2960 C   0  0  0  0  0  0  0  0  0  0  0  0
    4.5770    1.2920   19.2390 C   0  0  0  0  0  0  0  0  0  0  0  0
    5.1870    1.2800   17.9910 C   0  0  0  0  0  0  0  0  0  0  0  0
    6.3320    0.6260   17.7580 N   0  0  0  0  0  0  0  0  0  0  0  0
    6.9010   -0.0370   18.7850 C   0  0  0  0  0  0  0  0  0  0  0  0
    3.5910   -5.9640   27.5840 C   0  0  2  0  0  0  0  0  0  0  0  0
    3.0790   -4.6870   27.9920 O   0  0  0  0  0  0  0  0  0  0  0  0
  2  1  1  1
  2  3  1  0
  3  4  1  0
  4  5  1  0
  5  6  1  0
  6  7  1  6
  7  8  2  0
  7  9  1  0
  9 10  1  0
 11 10  1  1
 11 12  1  0
 11 13  1  0
 12 13  1  0
 13 14  1  6
 14 15  2  0
 14 16  1  0
 16 17  1  0
 17 18  2  0
 17 19  1  0
 19 20  1  0
 20 21  2  0
 21 22  1  0
 22 23  2  0
 23 24  1  0
 20 25  1  0
 24 25  2  0
 16 26  1  0
 26 27  2  0
 27 28  1  0
 28 29  2  0
 29 30  1  0
 26 31  1  0
 30 31  2  0
  2 32  1  0
  6 32  1  0
 32 33  1  1
M  END
