MED-UNK-28939ac5-2
     RDKit          3D

 20 22  0  0  0  0  0  0  0  0999 V2000
    9.1560    3.0120   22.5070 N   0  0  0  0  0  0  0  0  0  0  0  0
    8.8110    1.8240   22.1440 C   0  0  0  0  0  0  0  0  0  0  0  0
    8.6880    1.5720   20.9580 O   0  0  0  0  0  0  0  0  0  0  0  0
    8.5620    0.7790   23.2580 C   0  0  1  0  0  0  0  0  0  0  0  0
    7.2400    0.3600   23.1170 C   0  0  0  0  0  0  0  0  0  0  0  0
    7.2820   -0.8740   22.4510 C   0  0  2  0  0  0  0  0  0  0  0  0
    6.5590   -1.8490   23.1860 O   0  0  0  0  0  0  0  0  0  0  0  0
    8.6170   -1.2510   22.3700 C   0  0  0  0  0  0  0  0  0  0  0  0
    9.3340   -0.4080   23.1760 C   0  0  1  0  0  0  0  0  0  0  0  0
   10.6580   -0.0510   22.9830 C   0  0  0  0  0  0  0  0  0  0  0  0
   11.8030   -0.8260   22.7730 C   0  0  0  0  0  0  0  0  0  0  0  0
   13.2070    0.1640   22.6350 S   0  0  0  0  0  0  0  0  0  0  0  0
   12.2970    1.6240   22.8410 C   0  0  0  0  0  0  0  0  0  0  0  0
   12.4480    3.0600   22.9010 C   0  0  0  0  0  0  0  0  0  0  0  0
   11.3180    3.7280   23.4740 C   0  0  0  0  0  0  0  0  0  0  0  0
   11.2070    5.0600   23.6340 N   0  0  0  0  0  0  0  0  0  0  0  0
   12.3260    5.6540   23.1640 C   0  0  0  0  0  0  0  0  0  0  0  0
   13.5240    5.0100   22.5610 C   0  0  0  0  0  0  0  0  0  0  0  0
   13.5490    3.6160   22.4430 N   0  0  0  0  0  0  0  0  0  0  0  0
   10.9930    1.3030   23.0020 C   0  0  0  0  0  0  0  0  0  0  0  0
  1  2  1  0
  2  3  2  0
  4  2  1  6
  4  5  1  0
  5  6  1  0
  6  7  1  1
  6  8  1  0
  4  9  1  0
  8  9  1  0
  9 10  1  6
 10 11  2  0
 11 12  1  0
 12 13  1  0
 13 14  1  0
 14 15  2  0
 15 16  1  0
 16 17  2  0
 17 18  1  0
 14 19  1  0
 18 19  2  0
 10 20  1  0
 13 20  2  0
M  END
