MED-UNK-28939ac5-4
     RDKit          3D

 20 22  0  0  0  0  0  0  0  0999 V2000
    9.3250    3.1970   22.3140 N   0  0  0  0  0  0  0  0  0  0  0  0
    8.6040    1.9330   22.0180 C   0  0  0  0  0  0  0  0  0  0  0  0
    8.6590    1.4840   20.8930 O   0  0  0  0  0  0  0  0  0  0  0  0
    7.7770    1.2670   23.1890 C   0  0  1  0  0  0  0  0  0  0  0  0
    6.4330    1.3260   22.8950 C   0  0  0  0  0  0  0  0  0  0  0  0
    5.9030    0.0540   22.7810 C   0  0  2  0  0  0  0  0  0  0  0  0
    4.8840   -0.1170   23.7570 O   0  0  0  0  0  0  0  0  0  0  0  0
    6.8950   -0.8550   22.9770 C   0  0  0  0  0  0  0  0  0  0  0  0
    8.0750   -0.0860   23.5110 C   0  0  1  0  0  0  0  0  0  0  0  0
    9.2990   -0.7060   23.0000 C   0  0  0  0  0  0  0  0  0  0  0  0
    9.6760   -0.9180   21.6830 C   0  0  0  0  0  0  0  0  0  0  0  0
   11.1970   -1.6470   21.5900 S   0  0  0  0  0  0  0  0  0  0  0  0
   11.2500   -1.6340   23.2380 C   0  0  0  0  0  0  0  0  0  0  0  0
   12.2440   -2.0840   23.7510 C   0  0  0  0  0  0  0  0  0  0  0  0
   12.4140   -1.9450   25.0710 C   0  0  0  0  0  0  0  0  0  0  0  0
   13.5260   -2.4470   25.6570 C   0  0  0  0  0  0  0  0  0  0  0  0
   14.4320   -3.0960   24.9430 N   0  0  0  0  0  0  0  0  0  0  0  0
   14.1830   -3.1930   23.5670 C   0  0  0  0  0  0  0  0  0  0  0  0
   13.0490   -2.6670   22.9130 C   0  0  0  0  0  0  0  0  0  0  0  0
   10.2340   -1.1560   23.8760 C   0  0  0  0  0  0  0  0  0  0  0  0
  1  2  1  0
  2  3  2  0
  4  2  1  6
  4  5  1  0
  5  6  1  0
  6  7  1  1
  6  8  1  0
  4  9  1  0
  8  9  1  0
  9 10  1  6
 10 11  2  0
 11 12  1  0
 12 13  1  0
 13 14  1  0
 14 15  2  0
 15 16  1  0
 16 17  2  0
 17 18  1  0
 14 19  1  0
 18 19  2  0
 10 20  1  0
 13 20  2  0
M  END
