MED-UNK-7e7dab56-5
     RDKit          3D

 25 26  0  0  0  0  0  0  0  0999 V2000
   10.2280   -4.1590   25.6250 C   0  0  0  0  0  0  0  0  0  0  0  0
   10.7570   -2.7830   25.1170 C   0  0  0  0  0  0  0  0  0  0  0  0
   12.1230   -2.7970   24.7890 C   0  0  0  0  0  0  0  0  0  0  0  0
    9.9620   -2.2230   23.9180 C   0  0  0  0  0  0  0  0  0  0  0  0
   10.4160   -1.0050   23.5000 N   0  0  0  0  0  0  0  0  0  0  0  0
   10.0940    0.1220   24.1690 C   0  0  0  0  0  0  0  0  0  0  0  0
    9.2340    0.0840   25.0400 O   0  0  0  0  0  0  0  0  0  0  0  0
   10.8000    1.4180   23.7460 C   0  0  0  0  0  0  0  0  0  0  0  0
   10.0210    2.6730   23.9100 C   0  0  0  0  0  0  0  0  0  0  0  0
   10.5830    3.8780   23.5490 C   0  0  0  0  0  0  0  0  0  0  0  0
    9.7130    5.2910   23.8100 S   0  0  0  0  0  0  0  0  0  0  0  0
    8.5720    5.3780   22.5950 N   0  0  0  0  0  0  0  0  0  0  0  0
    8.9750    5.1060   25.0490 O   0  0  0  0  0  0  0  0  0  0  0  0
   10.6380    6.3910   23.6080 O   0  0  0  0  0  0  0  0  0  0  0  0
   11.8230    3.9290   23.0070 C   0  0  0  0  0  0  0  0  0  0  0  0
   12.5870    2.8170   22.8260 C   0  0  0  0  0  0  0  0  0  0  0  0
   13.7780    3.2900   22.2670 C   0  0  0  0  0  0  0  0  0  0  0  0
   14.1250    4.4620   22.9940 O   0  0  0  0  0  0  0  0  0  0  0  0
   14.4750    2.8990   21.2380 N   0  0  0  0  0  0  0  0  0  0  0  0
   14.8320    3.8480   20.0850 C   0  0  1  0  0  0  0  0  0  0  0  0
   15.9350    3.1720   19.5790 C   0  0  0  0  0  0  0  0  0  0  0  0
   15.3170    3.5240   18.4360 C   0  0  1  0  0  0  0  0  0  0  0  0
   15.4700    2.4210   17.7450 F   0  0  0  0  0  0  0  0  0  0  0  0
   12.0900    1.4880   23.2340 C   0  0  0  0  0  0  0  0  0  0  0  0
   12.8580   -0.2190   23.2330 Br  0  0  0  0  0  0  0  0  0  0  0  0
  1  2  1  0
  2  3  1  0
  2  4  1  0
  4  5  1  0
  5  6  1  0
  6  7  2  0
  6  8  1  0
  8  9  2  0
  9 10  1  0
 10 11  1  0
 11 12  1  0
 11 13  2  0
 11 14  2  0
 10 15  2  0
 15 16  1  0
 16 17  1  0
 17 18  2  0
 17 19  1  0
 20 19  1  1
 20 21  1  0
 20 22  1  0
 21 22  1  0
 22 23  1  1
  8 24  1  0
 16 24  2  0
 24 25  1  0
M  END
