MED-UNK-7e7dab56-9
     RDKit          3D

 30 32  0  0  0  0  0  0  0  0999 V2000
    8.8690    7.1360   23.6890 N   0  0  0  0  0  0  0  0  0  0  0  0
   10.1370    6.8170   24.7020 S   0  0  0  0  0  0  0  0  0  0  0  0
    9.6980    6.7240   26.0710 O   0  0  0  0  0  0  0  0  0  0  0  0
   11.3160    7.5240   24.2640 O   0  0  0  0  0  0  0  0  0  0  0  0
   10.3020    5.2550   24.2000 C   0  0  0  0  0  0  0  0  0  0  0  0
    9.2930    4.4090   24.3430 C   0  0  0  0  0  0  0  0  0  0  0  0
    9.3520    3.1570   23.9320 C   0  0  0  0  0  0  0  0  0  0  0  0
    8.1820    2.2090   24.0970 C   0  0  0  0  0  0  0  0  0  0  0  0
    8.3170    1.0090   23.9180 O   0  0  0  0  0  0  0  0  0  0  0  0
    6.9380    2.7920   24.5000 N   0  0  0  0  0  0  0  0  0  0  0  0
    6.6790    3.1860   25.7780 C   0  0  1  0  0  0  0  0  0  0  0  0
    5.5680    3.7010   26.1020 C   0  0  0  0  0  0  0  0  0  0  0  0
    5.6430    2.4040   26.7080 C   0  0  1  0  0  0  0  0  0  0  0  0
    4.8710    1.3790   26.1870 F   0  0  0  0  0  0  0  0  0  0  0  0
   10.6230    2.6720   23.2750 C   0  0  0  0  0  0  0  0  0  0  0  0
   10.0410    0.9240   22.9480 Br  0  0  0  0  0  0  0  0  0  0  0  0
   11.6990    3.7080   23.1860 C   0  0  0  0  0  0  0  0  0  0  0  0
   13.1460    4.1610   22.7760 C   0  0  0  0  0  0  0  0  0  0  0  0
   13.9720    4.4290   23.6130 O   0  0  0  0  0  0  0  0  0  0  0  0
   13.4020    4.4960   21.4880 N   0  0  0  0  0  0  0  0  0  0  0  0
   13.2920    3.4280   20.7300 C   0  0  1  0  0  0  0  0  0  0  0  0
   12.9590    3.6970   19.4870 C   0  0  0  0  0  0  0  0  0  0  0  0
   14.0880    3.6420   18.9110 C   0  0  0  0  0  0  0  0  0  0  0  0
   14.8710    2.6540   18.8520 C   0  0  1  0  0  0  0  0  0  0  0  0
   15.4700    2.7840   17.8110 C   0  0  0  0  0  0  0  0  0  0  0  0
   15.9970    2.1030   17.1400 O   0  0  0  0  0  0  0  0  0  0  0  0
   15.4810    4.0390   17.4630 O   0  0  0  0  0  0  0  0  0  0  0  0
   15.4980    3.2390   19.7860 C   0  0  0  0  0  0  0  0  0  0  0  0
   14.6870    2.7550   20.6980 C   0  0  0  0  0  0  0  0  0  0  0  0
   11.4540    4.9300   23.6570 C   0  0  0  0  0  0  0  0  0  0  0  0
  2  1  1  0
  2  3  2  0
  2  4  2  0
  2  5  1  0
  5  6  2  0
  6  7  1  0
  7  8  1  0
  8  9  2  0
  8 10  1  0
 11 10  1  6
 11 12  1  0
 11 13  1  0
 12 13  1  0
 13 14  1  6
  7 15  2  0
 15 16  1  0
 15 17  1  0
 17 18  1  0
 18 19  2  0
 18 20  1  0
 21 20  1  1
 21 22  1  0
 22 23  1  0
 23 24  1  0
 24 25  1  6
 25 26  2  0
 25 27  1  0
 24 28  1  0
 21 29  1  0
 28 29  1  0
  5 30  1  0
 17 30  2  0
M  END
