MED-UNK-cd1acb4a-1
     RDKit          3D

 33 36  0  0  0  0  0  0  0  0999 V2000
    6.3130   -4.3550   23.5350 C   0  0  0  0  0  0  0  0  0  0  0  0
    6.1180   -2.8490   23.7370 C   0  0  2  0  0  0  0  0  0  0  0  0
    6.8360   -2.2470   24.7770 C   0  0  0  0  0  0  0  0  0  0  0  0
    8.2060   -1.9450   24.4110 N   0  0  0  0  0  0  0  0  0  0  0  0
    8.9980   -2.8840   23.7750 C   0  0  0  0  0  0  0  0  0  0  0  0
    8.5360   -3.9690   23.4320 O   0  0  0  0  0  0  0  0  0  0  0  0
   10.3550   -2.5630   23.5510 C   0  0  1  0  0  0  0  0  0  0  0  0
   10.8460   -2.2910   22.1540 C   0  0  0  0  0  0  0  0  0  0  0  0
   12.3780   -2.2430   22.0650 C   0  0  0  0  0  0  0  0  0  0  0  0
   12.8350   -2.6240   23.4870 C   0  0  0  0  0  0  0  0  0  0  0  0
   12.4630   -1.5480   24.4660 C   0  0  1  0  0  0  0  0  0  0  0  0
   13.0960   -0.3180   24.0710 N   0  0  0  0  0  0  0  0  0  0  0  0
   10.9370   -1.4430   24.4160 C   0  0  0  0  0  0  0  0  0  0  0  0
    4.7490   -2.3460   23.3360 C   0  0  0  0  0  0  0  0  0  0  0  0
    5.8200   -2.0540   22.4660 C   0  0  1  0  0  0  0  0  0  0  0  0
    6.1750   -0.7200   22.3130 C   0  0  0  0  0  0  0  0  0  0  0  0
    5.7510    0.1030   23.1240 O   0  0  0  0  0  0  0  0  0  0  0  0
    6.9870   -0.3900   21.2200 N   0  0  0  0  0  0  0  0  0  0  0  0
    8.2260    0.2290   21.4580 C   0  0  0  0  0  0  0  0  0  0  0  0
    8.4890    1.3340   20.9600 O   0  0  0  0  0  0  0  0  0  0  0  0
    9.0930   -0.4750   22.2670 N   0  0  0  0  0  0  0  0  0  0  0  0
   10.4370   -0.0990   22.4200 C   0  0  0  0  0  0  0  0  0  0  0  0
   10.6590    1.2070   22.8320 C   0  0  0  0  0  0  0  0  0  0  0  0
   11.9590    1.6890   23.0010 C   0  0  0  0  0  0  0  0  0  0  0  0
   13.0370    0.8670   22.7690 C   0  0  0  0  0  0  0  0  0  0  0  0
   12.8430   -0.4310   22.3630 C   0  0  0  0  0  0  0  0  0  0  0  0
   11.5440   -0.9190   22.1850 C   0  0  0  0  0  0  0  0  0  0  0  0
    6.3430    0.1850   20.0880 C   0  0  0  0  0  0  0  0  0  0  0  0
    5.1470    0.9040   20.2120 C   0  0  0  0  0  0  0  0  0  0  0  0
    4.5470    1.4770   19.0970 C   0  0  0  0  0  0  0  0  0  0  0  0
    5.1600    1.3170   17.8780 C   0  0  0  0  0  0  0  0  0  0  0  0
    6.2980    0.6300   17.7130 N   0  0  0  0  0  0  0  0  0  0  0  0
    6.8570    0.0830   18.8070 C   0  0  0  0  0  0  0  0  0  0  0  0
  2  1  1  6
  2  3  1  0
  3  4  1  0
  4  5  1  0
  5  6  2  0
  7  5  1  6
  7  8  1  0
  8  9  1  0
  9 10  1  0
 10 11  1  0
 11 12  1  6
  7 13  1  0
 11 13  1  0
  2 14  1  0
  2 15  1  0
 14 15  1  0
 15 16  1  1
 16 17  2  0
 16 18  1  0
 18 19  1  0
 19 20  2  0
 19 21  1  0
 21 22  1  0
 22 23  2  0
 23 24  1  0
 24 25  2  0
 25 26  1  0
 22 27  1  0
 26 27  2  0
 18 28  1  0
 28 29  2  0
 29 30  1  0
 30 31  2  0
 31 32  1  0
 28 33  1  0
 32 33  2  0
M  END
