MED-UNK-28939ac5-6
     RDKit          3D

 19 21  0  0  0  0  0  0  0  0999 V2000
   10.2630    3.2900   22.3340 N   0  0  0  0  0  0  0  0  0  0  0  0
    9.3250    2.1570   22.2730 C   0  0  0  0  0  0  0  0  0  0  0  0
    8.9060    1.7380   21.1920 O   0  0  0  0  0  0  0  0  0  0  0  0
    8.9150    1.5880   23.6670 C   0  0  1  0  0  0  0  0  0  0  0  0
    7.5380    1.3570   23.6700 C   0  0  0  0  0  0  0  0  0  0  0  0
    7.2880    0.0040   23.6510 C   0  0  2  0  0  0  0  0  0  0  0  0
    6.4560   -0.3350   24.7560 O   0  0  0  0  0  0  0  0  0  0  0  0
    8.4950   -0.6410   23.7380 C   0  0  0  0  0  0  0  0  0  0  0  0
    9.5850    0.4040   24.0480 C   0  0  1  0  0  0  0  0  0  0  0  0
   10.9230    0.0360   23.4060 C   0  0  0  0  0  0  0  0  0  0  0  0
   12.1310    0.7230   23.3050 C   0  0  0  0  0  0  0  0  0  0  0  0
   13.1630    0.0760   22.6550 C   0  0  0  0  0  0  0  0  0  0  0  0
   12.7550   -1.5270   22.0620 S   0  0  0  0  0  0  0  0  0  0  0  0
   11.0910   -1.3030   22.7350 C   0  0  0  0  0  0  0  0  0  0  0  0
   10.0400   -2.1980   22.6960 C   0  0  0  0  0  0  0  0  0  0  0  0
    9.7930   -3.2160   23.5600 C   0  0  0  0  0  0  0  0  0  0  0  0
    8.5470   -3.8850   23.1700 C   0  0  0  0  0  0  0  0  0  0  0  0
    8.0180   -3.3020   22.0690 O   0  0  0  0  0  0  0  0  0  0  0  0
    8.9340   -2.2620   21.7680 C   0  0  0  0  0  0  0  0  0  0  0  0
  1  2  1  0
  2  3  2  0
  4  2  1  6
  4  5  1  0
  5  6  1  0
  6  7  1  1
  6  8  1  0
  4  9  1  0
  8  9  1  0
  9 10  1  6
 10 11  1  0
 11 12  2  0
 12 13  1  0
 10 14  2  0
 13 14  1  0
 14 15  1  0
 15 16  1  0
 16 17  2  0
 17 18  1  0
 15 19  2  0
 18 19  1  0
M  END
