MED-UNK-e6e8ef8a-5
     RDKit          3D

 17 18  0  0  0  0  0  0  0  0999 V2000
    9.2130    1.5320   21.3220 O   0  0  0  0  0  0  0  0  0  0  0  0
    8.7220    0.5380   21.8670 C   0  0  0  0  0  0  0  0  0  0  0  0
    9.2050    0.1120   23.2410 C   0  0  0  0  0  0  0  0  0  0  0  0
   10.2050   -0.8830   23.2900 C   0  0  1  0  0  0  0  0  0  0  0  0
   11.0800   -0.9590   22.2290 C   0  0  0  0  0  0  0  0  0  0  0  0
   12.3290   -1.6650   22.6350 C   0  0  0  0  0  0  0  0  0  0  0  0
   13.1450   -0.9870   23.5110 C   0  0  0  0  0  0  0  0  0  0  0  0
   12.4060   -0.3240   24.4890 C   0  0  0  0  0  0  0  0  0  0  0  0
   10.9600   -0.7820   24.6420 C   0  0  1  0  0  0  0  0  0  0  0  0
   10.0970   -0.1090   25.5740 O   0  0  0  0  0  0  0  0  0  0  0  0
    7.6760   -0.2290   21.2770 N   0  0  0  0  0  0  0  0  0  0  0  0
    6.9140    0.1890   20.2400 C   0  0  0  0  0  0  0  0  0  0  0  0
    5.8480    1.0530   20.4170 C   0  0  0  0  0  0  0  0  0  0  0  0
    5.0420    1.5220   19.3950 C   0  0  0  0  0  0  0  0  0  0  0  0
    5.2930    1.1200   18.0890 C   0  0  0  0  0  0  0  0  0  0  0  0
    6.3420    0.2530   17.8460 N   0  0  0  0  0  0  0  0  0  0  0  0
    7.1060   -0.1780   18.9270 C   0  0  0  0  0  0  0  0  0  0  0  0
  1  2  2  0
  2  3  1  0
  4  3  1  6
  4  5  1  0
  5  6  1  0
  6  7  1  0
  7  8  1  0
  4  9  1  0
  8  9  1  0
  9 10  1  1
  2 11  1  0
 11 12  1  0
 12 13  2  0
 13 14  1  0
 14 15  2  0
 15 16  1  0
 12 17  1  0
 16 17  2  0
M  END
