MED-UNK-28939ac5-11
     RDKit          3D

 23 26  0  0  0  0  0  0  0  0999 V2000
    9.8160    2.8250   22.7980 N   0  0  0  0  0  0  0  0  0  0  0  0
    8.7240    1.8940   22.4320 C   0  0  0  0  0  0  0  0  0  0  0  0
    8.6660    1.4680   21.2710 O   0  0  0  0  0  0  0  0  0  0  0  0
    7.6650    1.6090   23.5880 C   0  0  1  0  0  0  0  0  0  0  0  0
    6.4810    2.1360   23.1310 C   0  0  0  0  0  0  0  0  0  0  0  0
    5.6320    1.1170   22.7390 C   0  0  2  0  0  0  0  0  0  0  0  0
    4.4250    1.2380   23.4940 O   0  0  0  0  0  0  0  0  0  0  0  0
    6.2320   -0.0690   22.9960 C   0  0  0  0  0  0  0  0  0  0  0  0
    7.3060    0.2770   23.9860 C   0  0  1  0  0  0  0  0  0  0  0  0
    8.2860   -0.7530   23.8920 C   0  0  0  0  0  0  0  0  0  0  0  0
    8.1750   -2.1390   24.0730 C   0  0  0  0  0  0  0  0  0  0  0  0
    9.6420   -2.9420   23.8360 S   0  0  0  0  0  0  0  0  0  0  0  0
   10.1860   -1.4270   23.5460 C   0  0  0  0  0  0  0  0  0  0  0  0
   11.1470   -1.1580   23.2270 C   0  0  0  0  0  0  0  0  0  0  0  0
   11.3460   -2.0920   22.3470 C   0  0  0  0  0  0  0  0  0  0  0  0
   12.3060   -1.7910   21.7680 C   0  0  0  0  0  0  0  0  0  0  0  0
   12.9710   -2.3600   20.6990 C   0  0  0  0  0  0  0  0  0  0  0  0
   14.0170   -1.4580   20.4100 C   0  0  0  0  0  0  0  0  0  0  0  0
   13.8630   -0.5240   21.3330 N   0  0  0  0  0  0  0  0  0  0  0  0
   12.9270   -0.6680   22.1350 C   0  0  0  0  0  0  0  0  0  0  0  0
   12.7050    0.3240   23.1840 C   0  0  0  0  0  0  0  0  0  0  0  0
   11.6760   -0.0400   23.7380 N   0  0  0  0  0  0  0  0  0  0  0  0
    9.4770   -0.3900   23.5900 C   0  0  0  0  0  0  0  0  0  0  0  0
  1  2  1  0
  2  3  2  0
  4  2  1  6
  4  5  1  0
  5  6  1  0
  6  7  1  1
  6  8  1  0
  4  9  1  0
  8  9  1  0
  9 10  1  6
 10 11  2  0
 11 12  1  0
 12 13  1  0
 13 14  1  0
 14 15  2  0
 15 16  1  0
 16 17  1  0
 17 18  2  0
 18 19  1  0
 16 20  2  0
 19 20  1  0
 20 21  1  0
 14 22  1  0
 21 22  2  0
 10 23  1  0
 13 23  2  0
M  END
