MED-UNK-28939ac5-1
     RDKit          3D

 14 15  0  0  0  0  0  0  0  0999 V2000
   10.2240    3.1440   22.3770 N   0  0  0  0  0  0  0  0  0  0  0  0
    9.3650    1.9550   22.2990 C   0  0  0  0  0  0  0  0  0  0  0  0
    8.8160    1.5920   21.0420 O   0  0  0  0  0  0  0  0  0  0  0  0
    9.0040    1.1390   23.5250 C   0  0  1  0  0  0  0  0  0  0  0  0
    7.6000    0.9630   23.6180 C   0  0  0  0  0  0  0  0  0  0  0  0
    7.3020   -0.3830   23.3950 C   0  0  2  0  0  0  0  0  0  0  0  0
    6.5690   -0.8760   24.5090 O   0  0  0  0  0  0  0  0  0  0  0  0
    8.6550   -1.0010   23.4190 C   0  0  0  0  0  0  0  0  0  0  0  0
    9.6280   -0.1070   23.8270 C   0  0  1  0  0  0  0  0  0  0  0  0
   10.8990   -0.3060   23.2510 C   0  0  0  0  0  0  0  0  0  0  0  0
   12.0360    0.6600   23.3630 C   0  0  0  0  0  0  0  0  0  0  0  0
   13.2540    0.2030   22.6830 C   0  0  0  0  0  0  0  0  0  0  0  0
   13.0120   -1.3260   21.9650 S   0  0  0  0  0  0  0  0  0  0  0  0
   11.3520   -1.4140   22.4970 C   0  0  0  0  0  0  0  0  0  0  0  0
  1  2  1  0
  2  3  2  0
  4  2  1  6
  4  5  1  0
  5  6  1  0
  6  7  1  1
  6  8  1  0
  4  9  1  0
  8  9  1  0
  9 10  1  6
 10 11  1  0
 11 12  2  0
 12 13  1  0
 10 14  2  0
 13 14  1  0
M  END
