MED-UNK-28939ac5-10
     RDKit          3D

 23 26  0  0  0  0  0  0  0  0999 V2000
    9.6540    2.8320   22.6070 N   0  0  0  0  0  0  0  0  0  0  0  0
    8.7700    1.9060   22.4020 C   0  0  0  0  0  0  0  0  0  0  0  0
    8.6440    1.4320   21.0670 O   0  0  0  0  0  0  0  0  0  0  0  0
    7.8100    1.4030   23.5810 C   0  0  1  0  0  0  0  0  0  0  0  0
    6.4170    1.7070   23.0720 C   0  0  0  0  0  0  0  0  0  0  0  0
    5.8280    0.4590   22.9570 C   0  0  2  0  0  0  0  0  0  0  0  0
    4.7650    0.3460   23.9000 O   0  0  0  0  0  0  0  0  0  0  0  0
    6.7290   -0.5300   23.2500 C   0  0  0  0  0  0  0  0  0  0  0  0
    7.7050   -0.0510   24.0790 C   0  0  1  0  0  0  0  0  0  0  0  0
    8.8060   -0.7560   24.0810 C   0  0  0  0  0  0  0  0  0  0  0  0
    8.9540   -2.1180   24.4470 C   0  0  0  0  0  0  0  0  0  0  0  0
   10.5550   -2.6450   24.2870 S   0  0  0  0  0  0  0  0  0  0  0  0
   10.8720   -1.1280   23.7720 C   0  0  0  0  0  0  0  0  0  0  0  0
   11.7690   -0.6090   23.3890 C   0  0  0  0  0  0  0  0  0  0  0  0
   12.0440    0.5670   23.9030 C   0  0  0  0  0  0  0  0  0  0  0  0
   13.0640    1.0880   23.3570 C   0  0  0  0  0  0  0  0  0  0  0  0
   13.7230    0.4440   22.4000 C   0  0  0  0  0  0  0  0  0  0  0  0
   13.3850   -0.7700   21.8330 C   0  0  0  0  0  0  0  0  0  0  0  0
   13.7920   -1.5980   20.8250 C   0  0  0  0  0  0  0  0  0  0  0  0
   13.0320   -2.7240   20.7810 C   0  0  0  0  0  0  0  0  0  0  0  0
   12.0960   -2.5140   21.8140 N   0  0  0  0  0  0  0  0  0  0  0  0
   12.3740   -1.3380   22.3650 C   0  0  0  0  0  0  0  0  0  0  0  0
    9.8500   -0.1220   23.6940 C   0  0  0  0  0  0  0  0  0  0  0  0
  1  2  1  0
  2  3  2  0
  4  2  1  6
  4  5  1  0
  5  6  1  0
  6  7  1  1
  6  8  1  0
  4  9  1  0
  8  9  1  0
  9 10  1  6
 10 11  2  0
 11 12  1  0
 12 13  1  0
 13 14  1  0
 14 15  2  0
 15 16  1  0
 16 17  2  0
 17 18  1  0
 18 19  1  0
 19 20  2  0
 20 21  1  0
 14 22  1  0
 18 22  2  0
 21 22  1  0
 10 23  1  0
 13 23  2  0
M  END
