MED-UNK-28939ac5-5
     RDKit          3D

 20 22  0  0  0  0  0  0  0  0999 V2000
    9.1140    3.2670   22.5710 N   0  0  0  0  0  0  0  0  0  0  0  0
    8.7920    1.8630   22.2730 C   0  0  0  0  0  0  0  0  0  0  0  0
    8.7040    1.4850   20.9180 O   0  0  0  0  0  0  0  0  0  0  0  0
    8.5220    0.8100   23.3440 C   0  0  1  0  0  0  0  0  0  0  0  0
    7.1830    0.4100   23.3170 C   0  0  0  0  0  0  0  0  0  0  0  0
    7.1320   -0.7980   22.6160 C   0  0  2  0  0  0  0  0  0  0  0  0
    6.4590   -1.7670   23.4090 O   0  0  0  0  0  0  0  0  0  0  0  0
    8.5810   -1.1760   22.5330 C   0  0  0  0  0  0  0  0  0  0  0  0
    9.3140   -0.3790   23.3690 C   0  0  1  0  0  0  0  0  0  0  0  0
   10.6040    0.0200   23.0730 C   0  0  0  0  0  0  0  0  0  0  0  0
   11.8290   -0.8150   22.7780 C   0  0  0  0  0  0  0  0  0  0  0  0
   13.2510    0.0920   22.5140 S   0  0  0  0  0  0  0  0  0  0  0  0
   12.3440    1.5680   22.7200 C   0  0  0  0  0  0  0  0  0  0  0  0
   12.5560    2.9920   22.6670 C   0  0  0  0  0  0  0  0  0  0  0  0
   11.3580    3.6910   22.6600 C   0  0  0  0  0  0  0  0  0  0  0  0
   11.2590    5.0730   22.6090 C   0  0  0  0  0  0  0  0  0  0  0  0
   12.3820    5.8390   22.5610 N   0  0  0  0  0  0  0  0  0  0  0  0
   13.5350    5.0790   22.5720 C   0  0  0  0  0  0  0  0  0  0  0  0
   13.6750    3.7270   22.6200 N   0  0  0  0  0  0  0  0  0  0  0  0
   11.0360    1.3210   23.0000 C   0  0  0  0  0  0  0  0  0  0  0  0
  1  2  1  0
  2  3  2  0
  4  2  1  6
  4  5  1  0
  5  6  1  0
  6  7  1  1
  6  8  1  0
  4  9  1  0
  8  9  1  0
  9 10  1  6
 10 11  2  0
 11 12  1  0
 12 13  1  0
 13 14  1  0
 14 15  2  0
 15 16  1  0
 16 17  2  0
 17 18  1  0
 14 19  1  0
 18 19  2  0
 10 20  1  0
 13 20  2  0
M  END
