MED-UNK-7e7dab56-8
     RDKit          3D

 23 24  0  0  0  0  0  0  0  0999 V2000
    9.1470   -2.4370   22.7210 C   0  0  0  0  0  0  0  0  0  0  0  0
    9.2450   -1.0170   22.8420 N   0  0  0  0  0  0  0  0  0  0  0  0
    9.0930   -0.4850   21.5240 C   0  0  0  0  0  0  0  0  0  0  0  0
   10.4230   -0.6660   23.6030 C   0  0  0  0  0  0  0  0  0  0  0  0
   11.0010   -1.3920   24.4100 O   0  0  0  0  0  0  0  0  0  0  0  0
   11.0460    0.5740   23.4490 C   0  0  0  0  0  0  0  0  0  0  0  0
   10.3320    1.8350   23.9490 C   0  0  0  0  0  0  0  0  0  0  0  0
   10.8890    3.1020   23.8550 C   0  0  0  0  0  0  0  0  0  0  0  0
   10.3030    4.6870   24.2970 S   0  0  0  0  0  0  0  0  0  0  0  0
    9.1270    4.9440   23.1450 N   0  0  0  0  0  0  0  0  0  0  0  0
    9.6880    4.6690   25.5950 O   0  0  0  0  0  0  0  0  0  0  0  0
   11.3420    5.6530   23.9690 O   0  0  0  0  0  0  0  0  0  0  0  0
   12.1060    3.1580   23.2940 C   0  0  0  0  0  0  0  0  0  0  0  0
   12.9500    2.0550   22.7000 C   0  0  0  0  0  0  0  0  0  0  0  0
   14.2120    2.6660   22.0960 C   0  0  0  0  0  0  0  0  0  0  0  0
   14.3370    3.7990   22.5570 O   0  0  0  0  0  0  0  0  0  0  0  0
   15.0710    2.1110   21.0310 N   0  0  0  0  0  0  0  0  0  0  0  0
   15.6420    2.7020   19.7100 C   0  0  1  0  0  0  0  0  0  0  0  0
   16.2570    1.7930   19.0920 C   0  0  0  0  0  0  0  0  0  0  0  0
   15.4190    2.0190   18.2060 C   0  0  1  0  0  0  0  0  0  0  0  0
   14.7870    0.8370   18.1740 F   0  0  0  0  0  0  0  0  0  0  0  0
   12.3160    0.6310   22.8370 C   0  0  0  0  0  0  0  0  0  0  0  0
   13.0530   -1.0130   22.2620 Br  0  0  0  0  0  0  0  0  0  0  0  0
  1  2  1  0
  2  3  1  0
  2  4  1  0
  4  5  2  0
  4  6  1  0
  6  7  2  0
  7  8  1  0
  8  9  1  0
  9 10  1  0
  9 11  2  0
  9 12  2  0
  8 13  2  0
 13 14  1  0
 14 15  1  0
 15 16  2  0
 15 17  1  0
 18 17  1  1
 18 19  1  0
 18 20  1  0
 19 20  1  0
 20 21  1  1
  6 22  1  0
 14 22  2  0
 22 23  1  0
M  END
