MED-UNK-e6e8ef8a-6
     RDKit          3D

 17 18  0  0  0  0  0  0  0  0999 V2000
   11.9150    0.4890   22.8830 C   0  0  0  0  0  0  0  0  0  0  0  0
   10.9240   -0.4350   22.9780 C   0  0  0  0  0  0  0  0  0  0  0  0
    9.5330    0.1190   23.0340 C   0  0  0  0  0  0  0  0  0  0  0  0
    8.7750    0.4540   21.7010 C   0  0  0  0  0  0  0  0  0  0  0  0
    9.0950    1.5530   21.2140 O   0  0  0  0  0  0  0  0  0  0  0  0
    7.8350   -0.3710   21.1720 N   0  0  0  0  0  0  0  0  0  0  0  0
    6.9530    0.1890   20.2980 C   0  0  0  0  0  0  0  0  0  0  0  0
    5.9080    1.0780   20.5470 C   0  0  0  0  0  0  0  0  0  0  0  0
    5.0710    1.5820   19.5380 C   0  0  0  0  0  0  0  0  0  0  0  0
    5.3820    1.0890   18.1270 C   0  0  0  0  0  0  0  0  0  0  0  0
    6.4080    0.2130   17.9020 N   0  0  0  0  0  0  0  0  0  0  0  0
    7.1520   -0.2080   18.9840 C   0  0  0  0  0  0  0  0  0  0  0  0
   11.1940   -1.5730   22.0650 C   0  0  0  0  0  0  0  0  0  0  0  0
   12.5630   -1.9230   22.0840 C   0  0  0  0  0  0  0  0  0  0  0  0
   13.2860   -1.5750   23.2380 C   0  0  0  0  0  0  0  0  0  0  0  0
   12.5740   -1.4270   24.4170 C   0  0  0  0  0  0  0  0  0  0  0  0
   11.2210   -1.2240   24.2240 C   0  0  0  0  0  0  0  0  0  0  0  0
  2  1  1  0
  2  3  1  0
  3  4  1  0
  4  5  2  0
  4  6  1  0
  6  7  1  0
  7  8  2  0
  8  9  1  0
  9 10  2  0
 10 11  1  0
  7 12  1  0
 11 12  2  0
  2 13  1  0
 13 14  1  0
 14 15  1  0
 15 16  1  0
  2 17  1  0
 16 17  1  0
M  END
