MED-UNK-e6e8ef8a-2
     RDKit          3D

 17 18  0  0  0  0  0  0  0  0999 V2000
    9.2170    1.5190   21.3530 O   0  0  0  0  0  0  0  0  0  0  0  0
    8.7030    0.5320   21.8840 C   0  0  0  0  0  0  0  0  0  0  0  0
    9.0430   -0.0150   23.2500 C   0  0  0  0  0  0  0  0  0  0  0  0
   10.1730   -0.9990   23.4070 C   0  0  1  0  0  0  0  0  0  0  0  0
   11.0710   -1.0030   22.2330 C   0  0  0  0  0  0  0  0  0  0  0  0
   12.1740   -1.7910   22.5070 C   0  0  0  0  0  0  0  0  0  0  0  0
   13.1370   -1.1020   23.4370 C   0  0  1  0  0  0  0  0  0  0  0  0
   13.6590   -0.1050   22.6770 F   0  0  0  0  0  0  0  0  0  0  0  0
   12.3940   -0.3820   24.5570 C   0  0  0  0  0  0  0  0  0  0  0  0
   11.0320   -1.0020   24.6970 C   0  0  0  0  0  0  0  0  0  0  0  0
    7.6460   -0.2500   21.2730 N   0  0  0  0  0  0  0  0  0  0  0  0
    6.8250    0.2220   20.1910 C   0  0  0  0  0  0  0  0  0  0  0  0
    5.7250    1.0520   20.4510 C   0  0  0  0  0  0  0  0  0  0  0  0
    4.9310    1.5240   19.4100 C   0  0  0  0  0  0  0  0  0  0  0  0
    5.3150    1.1050   18.0410 C   0  0  0  0  0  0  0  0  0  0  0  0
    6.3470    0.3190   17.7900 N   0  0  0  0  0  0  0  0  0  0  0  0
    7.0710   -0.1040   18.8540 C   0  0  0  0  0  0  0  0  0  0  0  0
  1  2  2  0
  2  3  1  0
  4  3  1  6
  4  5  1  0
  5  6  1  0
  6  7  1  0
  7  8  1  6
  7  9  1  0
  4 10  1  0
  9 10  1  0
  2 11  1  0
 11 12  1  0
 12 13  2  0
 13 14  1  0
 14 15  2  0
 15 16  1  0
 12 17  1  0
 16 17  2  0
M  END
