MED-UNK-7e7dab56-7
     RDKit          3D

 26 27  0  0  0  0  0  0  0  0999 V2000
    7.9730   -2.8980   28.0960 C   0  0  0  0  0  0  0  0  0  0  0  0
    7.8720   -2.5240   26.9260 O   0  0  0  0  0  0  0  0  0  0  0  0
    8.5530   -1.3880   26.6210 C   0  0  0  0  0  0  0  0  0  0  0  0
    8.8760   -0.5740   27.4700 O   0  0  0  0  0  0  0  0  0  0  0  0
    8.8900   -1.1680   25.2740 C   0  0  0  0  0  0  0  0  0  0  0  0
    9.6580   -0.0370   25.0000 N   0  0  0  0  0  0  0  0  0  0  0  0
   10.3140    0.2470   23.7110 C   0  0  0  0  0  0  0  0  0  0  0  0
   10.4610   -0.5590   22.8060 O   0  0  0  0  0  0  0  0  0  0  0  0
   10.7750    1.5560   23.5850 C   0  0  0  0  0  0  0  0  0  0  0  0
    9.9310    2.6310   23.8860 C   0  0  0  0  0  0  0  0  0  0  0  0
   10.4290    3.9270   23.7500 C   0  0  0  0  0  0  0  0  0  0  0  0
    9.6300    5.4480   24.0450 S   0  0  0  0  0  0  0  0  0  0  0  0
    8.4840    5.5380   22.8230 N   0  0  0  0  0  0  0  0  0  0  0  0
    9.1090    5.5280   25.3840 O   0  0  0  0  0  0  0  0  0  0  0  0
   10.5970    6.5200   23.8500 O   0  0  0  0  0  0  0  0  0  0  0  0
   11.6690    4.1040   23.3510 C   0  0  0  0  0  0  0  0  0  0  0  0
   12.5230    3.1590   23.0570 C   0  0  0  0  0  0  0  0  0  0  0  0
   13.6650    3.8500   22.7420 C   0  0  0  0  0  0  0  0  0  0  0  0
   14.0180    3.9950   21.5840 O   0  0  0  0  0  0  0  0  0  0  0  0
   14.2270    4.3600   23.9210 N   0  0  0  0  0  0  0  0  0  0  0  0
   15.5050    4.9160   23.8650 C   0  0  1  0  0  0  0  0  0  0  0  0
   16.6630    4.8630   24.7400 C   0  0  0  0  0  0  0  0  0  0  0  0
   17.5260    4.4960   24.2930 C   0  0  1  0  0  0  0  0  0  0  0  0
   18.0170    3.4280   24.8640 F   0  0  0  0  0  0  0  0  0  0  0  0
   12.1150    1.7640   23.1530 C   0  0  0  0  0  0  0  0  0  0  0  0
   13.0940    0.1580   22.8110 Br  0  0  0  0  0  0  0  0  0  0  0  0
  1  2  1  0
  2  3  1  0
  3  4  2  0
  3  5  1  0
  5  6  1  0
  6  7  1  0
  7  8  2  0
  7  9  1  0
  9 10  2  0
 10 11  1  0
 11 12  1  0
 12 13  1  0
 12 14  2  0
 12 15  2  0
 11 16  2  0
 16 17  1  0
 17 18  1  0
 18 19  2  0
 18 20  1  0
 21 20  1  1
 21 22  1  0
 21 23  1  0
 22 23  1  0
 23 24  1  1
  9 25  1  0
 17 25  2  0
 25 26  1  0
M  END
