MED-UNK-28939ac5-9
     RDKit          3D

 23 26  0  0  0  0  0  0  0  0999 V2000
    9.2200    3.0010   22.3460 N   0  0  0  0  0  0  0  0  0  0  0  0
    8.8030    1.8210   22.0550 C   0  0  0  0  0  0  0  0  0  0  0  0
    8.6030    1.5390   20.8890 O   0  0  0  0  0  0  0  0  0  0  0  0
    8.5740    0.8130   23.2160 C   0  0  1  0  0  0  0  0  0  0  0  0
    7.2520    0.3840   23.1120 C   0  0  0  0  0  0  0  0  0  0  0  0
    7.2900   -0.8780   22.4950 C   0  0  2  0  0  0  0  0  0  0  0  0
    6.6140   -1.8310   23.3020 O   0  0  0  0  0  0  0  0  0  0  0  0
    8.6300   -1.2340   22.3840 C   0  0  0  0  0  0  0  0  0  0  0  0
    9.3420   -0.3730   23.1670 C   0  0  1  0  0  0  0  0  0  0  0  0
   10.6720   -0.0410   22.9870 C   0  0  0  0  0  0  0  0  0  0  0  0
   11.7880   -0.8400   22.7790 C   0  0  0  0  0  0  0  0  0  0  0  0
   13.1780    0.1760   22.6690 S   0  0  0  0  0  0  0  0  0  0  0  0
   12.2310    1.6240   22.8900 C   0  0  0  0  0  0  0  0  0  0  0  0
   12.3790    3.0580   22.9640 C   0  0  0  0  0  0  0  0  0  0  0  0
   13.4880    3.7250   22.5310 C   0  0  0  0  0  0  0  0  0  0  0  0
   13.4520    5.4020   22.6650 S   0  0  0  0  0  0  0  0  0  0  0  0
   11.9110    5.3320   23.3700 C   0  0  0  0  0  0  0  0  0  0  0  0
   11.1100    6.5380   23.8390 C   0  0  0  0  0  0  0  0  0  0  0  0
    9.7420    6.3730   24.4600 C   0  0  0  0  0  0  0  0  0  0  0  0
    9.2880    4.9340   24.5550 C   0  0  0  0  0  0  0  0  0  0  0  0
   10.0270    3.8210   24.1210 C   0  0  0  0  0  0  0  0  0  0  0  0
   11.3960    4.0330   23.5010 C   0  0  0  0  0  0  0  0  0  0  0  0
   10.9330    1.2770   23.0330 C   0  0  0  0  0  0  0  0  0  0  0  0
  1  2  1  0
  2  3  2  0
  4  2  1  6
  4  5  1  0
  5  6  1  0
  6  7  1  1
  6  8  1  0
  4  9  1  0
  8  9  1  0
  9 10  1  6
 10 11  2  0
 11 12  1  0
 12 13  1  0
 13 14  1  0
 14 15  2  0
 15 16  1  0
 16 17  1  0
 17 18  1  0
 18 19  2  0
 19 20  1  0
 20 21  2  0
 14 22  1  0
 17 22  2  0
 21 22  1  0
 10 23  1  0
 13 23  2  0
M  END
