MED-UNK-e6e8ef8a-4
     RDKit          3D

 17 18  0  0  0  0  0  0  0  0999 V2000
   10.0570   -0.2890   25.5740 C   0  0  0  0  0  0  0  0  0  0  0  0
   10.8960   -0.8240   24.6620 C   0  0  2  0  0  0  0  0  0  0  0  0
   12.3110   -0.3780   24.6330 C   0  0  0  0  0  0  0  0  0  0  0  0
   13.1320   -0.9820   23.4690 C   0  0  0  0  0  0  0  0  0  0  0  0
   12.3710   -1.5030   22.4620 C   0  0  0  0  0  0  0  0  0  0  0  0
   11.1260   -0.8930   22.3120 C   0  0  0  0  0  0  0  0  0  0  0  0
   10.2890   -0.8340   23.4170 C   0  0  2  0  0  0  0  0  0  0  0  0
    9.1810    0.2290   23.2520 C   0  0  0  0  0  0  0  0  0  0  0  0
    8.7030    0.5530   21.8410 C   0  0  0  0  0  0  0  0  0  0  0  0
    9.1440    1.5270   21.2220 O   0  0  0  0  0  0  0  0  0  0  0  0
    7.7030   -0.2140   21.2130 N   0  0  0  0  0  0  0  0  0  0  0  0
    6.9140    0.1980   20.1620 C   0  0  0  0  0  0  0  0  0  0  0  0
    5.8540    1.0890   20.4030 C   0  0  0  0  0  0  0  0  0  0  0  0
    5.0190    1.5600   19.3800 C   0  0  0  0  0  0  0  0  0  0  0  0
    5.2890    1.1050   18.1020 C   0  0  0  0  0  0  0  0  0  0  0  0
    6.3340    0.2190   17.8590 N   0  0  0  0  0  0  0  0  0  0  0  0
    7.1250   -0.2260   18.8630 C   0  0  0  0  0  0  0  0  0  0  0  0
  2  1  1  1
  2  3  1  0
  3  4  1  0
  4  5  1  0
  5  6  1  0
  2  7  1  0
  6  7  1  0
  7  8  1  6
  8  9  1  0
  9 10  2  0
  9 11  1  0
 11 12  1  0
 12 13  2  0
 13 14  1  0
 14 15  2  0
 15 16  1  0
 12 17  1  0
 16 17  2  0
M  END
