MED-UNK-8b115213-1
     RDKit          3D

 37 41  0  0  0  0  0  0  0  0999 V2000
    0.7740   -6.3150   28.8730 N   0  0  0  0  0  0  0  0  0  0  0  0
    1.0230   -5.1200   28.0490 C   0  0  2  0  0  0  0  0  0  0  0  0
   -0.2490   -4.4670   27.5990 C   0  0  0  0  0  0  0  0  0  0  0  0
   -0.2120   -3.9400   26.1970 C   0  0  0  0  0  0  0  0  0  0  0  0
    1.1590   -3.4430   25.8290 C   0  0  0  0  0  0  0  0  0  0  0  0
    2.2700   -4.2850   25.9810 C   0  0  2  0  0  0  0  0  0  0  0  0
    2.9810   -4.7690   24.7090 C   0  0  0  0  0  0  0  0  0  0  0  0
    2.3520   -5.2180   23.7560 O   0  0  0  0  0  0  0  0  0  0  0  0
    4.4240   -4.6790   24.6720 N   0  0  0  0  0  0  0  0  0  0  0  0
    5.0120   -4.1280   23.5290 C   0  0  0  0  0  0  0  0  0  0  0  0
    5.6450   -2.7620   23.6890 C   0  0  2  0  0  0  0  0  0  0  0  0
    4.8710   -1.7250   23.8230 C   0  0  0  0  0  0  0  0  0  0  0  0
    5.4030   -1.4750   22.6560 C   0  0  1  0  0  0  0  0  0  0  0  0
    6.2710   -0.3770   22.5660 C   0  0  0  0  0  0  0  0  0  0  0  0
    6.3420    0.4070   23.5130 O   0  0  0  0  0  0  0  0  0  0  0  0
    7.0000   -0.2190   21.3990 N   0  0  0  0  0  0  0  0  0  0  0  0
    8.2040    0.4040   21.7010 C   0  0  0  0  0  0  0  0  0  0  0  0
    8.6660    1.5030   20.9280 O   0  0  0  0  0  0  0  0  0  0  0  0
    8.8920   -0.0480   22.7510 N   0  0  0  0  0  0  0  0  0  0  0  0
   10.2760    0.1350   22.8580 C   0  0  0  0  0  0  0  0  0  0  0  0
   10.8750    1.3670   22.8050 C   0  0  0  0  0  0  0  0  0  0  0  0
   12.3710    1.4760   22.9120 C   0  0  0  0  0  0  0  0  0  0  0  0
   13.0110    0.2470   23.0530 C   0  0  0  0  0  0  0  0  0  0  0  0
   12.3740   -0.9830   23.1090 C   0  0  0  0  0  0  0  0  0  0  0  0
   10.9960   -1.0040   23.0170 C   0  0  0  0  0  0  0  0  0  0  0  0
   10.1700   -2.0840   23.0880 C   0  0  0  0  0  0  0  0  0  0  0  0
   10.3690   -3.1060   23.9700 C   0  0  0  0  0  0  0  0  0  0  0  0
    9.3190   -3.9580   23.7960 O   0  0  0  0  0  0  0  0  0  0  0  0
    8.5740   -3.3890   22.8060 C   0  0  0  0  0  0  0  0  0  0  0  0
    9.0400   -2.2670   22.3380 N   0  0  0  0  0  0  0  0  0  0  0  0
    6.3390    0.2540   20.2280 C   0  0  0  0  0  0  0  0  0  0  0  0
    5.1350    0.9560   20.3010 C   0  0  0  0  0  0  0  0  0  0  0  0
    4.5390    1.4240   19.1360 C   0  0  0  0  0  0  0  0  0  0  0  0
    5.1580    1.1810   17.9270 C   0  0  0  0  0  0  0  0  0  0  0  0
    6.3080    0.5020   17.8170 N   0  0  0  0  0  0  0  0  0  0  0  0
    6.8670    0.0550   18.9580 C   0  0  0  0  0  0  0  0  0  0  0  0
    1.8780   -5.5140   26.8280 C   0  0  0  0  0  0  0  0  0  0  0  0
  2  1  1  6
  2  3  1  0
  3  4  1  0
  4  5  1  0
  5  6  1  0
  6  7  1  6
  7  8  2  0
  7  9  1  0
  9 10  1  0
 11 10  1  6
 11 12  1  0
 11 13  1  0
 12 13  1  0
 13 14  1  1
 14 15  2  0
 14 16  1  0
 16 17  1  0
 17 18  2  0
 17 19  1  0
 19 20  1  0
 20 21  2  0
 21 22  1  0
 22 23  2  0
 23 24  1  0
 20 25  1  0
 24 25  2  0
 25 26  1  0
 26 27  2  0
 27 28  1  0
 28 29  1  0
 26 30  1  0
 29 30  2  0
 16 31  1  0
 31 32  2  0
 32 33  1  0
 33 34  2  0
 34 35  1  0
 31 36  1  0
 35 36  2  0
  2 37  1  0
  6 37  1  0
M  END
