MED-UNK-e6e8ef8a-7
     RDKit          3D

 17 18  0  0  0  0  0  0  0  0999 V2000
    8.9520    1.4690   21.2000 O   0  0  0  0  0  0  0  0  0  0  0  0
    8.5730    0.4440   21.7910 C   0  0  0  0  0  0  0  0  0  0  0  0
    7.4910   -0.3920   21.3690 N   0  0  0  0  0  0  0  0  0  0  0  0
    6.8060    0.1390   20.2130 C   0  0  0  0  0  0  0  0  0  0  0  0
    5.7740    1.0220   20.5440 C   0  0  0  0  0  0  0  0  0  0  0  0
    5.0260    1.6080   19.5400 C   0  0  0  0  0  0  0  0  0  0  0  0
    5.3110    1.3110   18.1010 C   0  0  0  0  0  0  0  0  0  0  0  0
    6.4000    0.3800   17.7690 N   0  0  0  0  0  0  0  0  0  0  0  0
    7.1300   -0.1920   18.9030 C   0  0  0  0  0  0  0  0  0  0  0  0
    9.2500   -0.0090   23.0720 C   0  0  1  0  0  0  0  0  0  0  0  0
    8.5870   -1.1580   23.4910 O   0  0  0  0  0  0  0  0  0  0  0  0
   10.7630   -0.1660   22.9480 C   0  0  0  0  0  0  0  0  0  0  0  0
   11.2400   -1.4400   22.2800 C   0  0  0  0  0  0  0  0  0  0  0  0
   12.5640   -1.8530   22.5970 C   0  0  0  0  0  0  0  0  0  0  0  0
   13.2070   -1.1450   23.6240 C   0  0  0  0  0  0  0  0  0  0  0  0
   12.4530   -0.8400   24.7430 C   0  0  0  0  0  0  0  0  0  0  0  0
   11.3830   -0.0980   24.3460 C   0  0  0  0  0  0  0  0  0  0  0  0
  1  2  2  0
  2  3  1  0
  3  4  1  0
  4  5  2  0
  5  6  1  0
  6  7  2  0
  7  8  1  0
  4  9  1  0
  8  9  2  0
  2 10  1  0
 10 11  1  6
 10 12  1  0
 12 13  1  0
 13 14  1  0
 14 15  1  0
 15 16  1  0
 12 17  1  0
 16 17  1  0
M  END
