MED-UNK-91aaf3ac-1
     RDKit          3D

 33 36  0  0  0  0  0  0  0  0999 V2000
   12.6630    1.6040   22.9890 N   0  0  0  0  0  0  0  0  0  0  0  0
   12.5400    0.2030   23.3830 C   0  0  2  0  0  0  0  0  0  0  0  0
   13.3520   -0.5780   22.7430 C   0  0  0  0  0  0  0  0  0  0  0  0
   13.0230   -1.9550   22.4460 C   0  0  0  0  0  0  0  0  0  0  0  0
   11.9860   -2.5300   23.1420 C   0  0  0  0  0  0  0  0  0  0  0  0
   11.0400   -1.7880   23.8090 C   0  0  2  0  0  0  0  0  0  0  0  0
    9.6750   -2.4110   23.7500 C   0  0  0  0  0  0  0  0  0  0  0  0
    9.4220   -3.5500   24.1040 O   0  0  0  0  0  0  0  0  0  0  0  0
    8.7250   -1.6280   23.2040 N   0  0  0  0  0  0  0  0  0  0  0  0
    8.7670   -1.6400   21.7840 C   0  0  0  0  0  0  0  0  0  0  0  0
    7.8560   -0.5950   21.2170 C   0  0  2  0  0  0  0  0  0  0  0  0
    6.6750   -1.1250   20.6440 C   0  0  0  0  0  0  0  0  0  0  0  0
    7.3630   -0.6650   19.6120 C   0  0  1  0  0  0  0  0  0  0  0  0
    7.0940    0.6670   18.9570 C   0  0  0  0  0  0  0  0  0  0  0  0
    7.7090    1.0180   17.9930 O   0  0  0  0  0  0  0  0  0  0  0  0
    6.1090    1.4390   19.6220 N   0  0  0  0  0  0  0  0  0  0  0  0
    6.7520    2.0240   20.8480 C   0  0  0  0  0  0  0  0  0  0  0  0
    7.9920    2.0810   20.9710 O   0  0  0  0  0  0  0  0  0  0  0  0
    5.8420    2.4840   21.8020 N   0  0  0  0  0  0  0  0  0  0  0  0
    5.8390    3.7030   22.5070 C   0  0  0  0  0  0  0  0  0  0  0  0
    4.8180    4.0690   23.3950 C   0  0  0  0  0  0  0  0  0  0  0  0
    4.9050    5.4160   24.1180 C   0  0  0  0  0  0  0  0  0  0  0  0
    5.9930    6.2470   23.8800 C   0  0  0  0  0  0  0  0  0  0  0  0
    6.9840    5.8410   22.9880 C   0  0  0  0  0  0  0  0  0  0  0  0
    8.4540    6.9850   22.6840 Br  0  0  0  0  0  0  0  0  0  0  0  0
    6.9150    4.6060   22.3180 C   0  0  0  0  0  0  0  0  0  0  0  0
    5.2360    2.2620   18.8350 C   0  0  0  0  0  0  0  0  0  0  0  0
    4.2880    2.2550   19.9950 C   0  0  0  0  0  0  0  0  0  0  0  0
    4.7700    1.2240   20.6350 C   0  0  0  0  0  0  0  0  0  0  0  0
    3.3560    1.1080   20.2020 C   0  0  0  0  0  0  0  0  0  0  0  0
    2.9680    2.1400   19.2770 N   0  0  0  0  0  0  0  0  0  0  0  0
    4.0210    2.8170   18.5370 C   0  0  0  0  0  0  0  0  0  0  0  0
   11.0940   -0.3280   23.3170 C   0  0  0  0  0  0  0  0  0  0  0  0
  2  1  1  6
  2  3  1  0
  3  4  1  0
  4  5  1  0
  5  6  1  0
  6  7  1  6
  7  8  2  0
  7  9  1  0
  9 10  1  0
 11 10  1  6
 11 12  1  0
 11 13  1  0
 12 13  1  0
 13 14  1  1
 14 15  2  0
 14 16  1  0
 16 17  1  0
 17 18  2  0
 17 19  1  0
 19 20  1  0
 20 21  2  0
 21 22  1  0
 22 23  2  0
 23 24  1  0
 24 25  1  0
 20 26  1  0
 24 26  2  0
 16 27  1  0
 27 28  2  0
 28 29  1  0
 29 30  2  0
 30 31  1  0
 27 32  1  0
 31 32  2  0
  2 33  1  0
  6 33  1  0
M  END
