MEV-UNK-0bf23af6-1
     RDKit          3D

 26 29  0  0  0  0  0  0  0  0999 V2000
   10.2170   -3.4000   24.1850 O   0  0  0  0  0  0  0  0  0  0  0  0
    9.1160   -3.0940   23.7490 C   0  0  0  0  0  0  0  0  0  0  0  0
    8.8890   -1.7970   23.3190 N   0  0  0  0  0  0  0  0  0  0  0  0
   10.2100   -1.1890   23.1330 C   0  0  0  0  0  0  0  0  0  0  0  0
   10.2770    0.1750   23.2330 C   0  0  0  0  0  0  0  0  0  0  0  0
   11.5810    0.6360   23.0420 C   0  0  0  0  0  0  0  0  0  0  0  0
   12.8280   -0.0560   22.7730 C   0  0  0  0  0  0  0  0  0  0  0  0
   13.9180    0.6500   22.6400 F   0  0  0  0  0  0  0  0  0  0  0  0
   12.8370   -1.4060   22.6590 C   0  0  0  0  0  0  0  0  0  0  0  0
   11.4700   -2.0550   22.8400 C   0  0  0  0  0  0  0  0  0  0  0  0
    8.1920   -4.0920   23.6910 N   0  0  0  0  0  0  0  0  0  0  0  0
    6.7490   -4.2930   23.6890 C   0  0  0  0  0  0  0  0  0  0  0  0
    6.0170   -3.7240   22.6810 N   0  0  0  0  0  0  0  0  0  0  0  0
    4.6580   -3.9290   22.6650 N   0  0  0  0  0  0  0  0  0  0  0  0
    4.3840   -4.7590   23.8130 C   0  0  0  0  0  0  0  0  0  0  0  0
    2.9650   -5.1750   24.0600 C   0  0  0  0  0  0  0  0  0  0  0  0
    2.3950   -4.5980   25.2850 N   0  0  0  0  0  0  0  0  0  0  0  0
    2.2390   -3.2470   25.5480 C   0  0  0  0  0  0  0  0  0  0  0  0
    1.5280   -3.0990   26.8670 C   0  0  0  0  0  0  0  0  0  0  0  0
    1.3270   -4.5430   27.2670 C   0  0  1  0  0  0  0  0  0  0  0  0
   -0.1100   -4.7630   27.6780 C   0  0  0  0  0  0  0  0  0  0  0  0
   -0.9340   -5.6760   27.0240 C   0  0  0  0  0  0  0  0  0  0  0  0
   -0.4240   -6.4130   25.9570 C   0  0  0  0  0  0  0  0  0  0  0  0
    0.9210   -6.2810   25.5890 C   0  0  0  0  0  0  0  0  0  0  0  0
    1.8120   -5.4250   26.2530 C   0  0  1  0  0  0  0  0  0  0  0  0
    5.8480   -5.1990   24.8190 S   0  0  0  0  0  0  0  0  0  0  0  0
  1  2  2  0
  2  3  1  0
  3  4  1  0
  4  5  2  0
  5  6  1  0
  6  7  2  0
  7  8  1  0
  7  9  1  0
  4 10  1  0
  9 10  2  0
  2 11  1  0
 11 12  1  0
 12 13  2  0
 13 14  1  0
 14 15  2  0
 15 16  1  0
 16 17  1  0
 17 18  1  0
 18 19  2  0
 20 19  1  6
 20 21  1  0
 21 22  2  0
 22 23  1  0
 23 24  2  0
 17 25  1  0
 20 25  1  0
 25 24  1  6
 12 26  1  0
 15 26  1  0
M  END
