MIC-SGC-657978c3-7
     RDKit          3D

 22 24  0  0  0  0  0  0  0  0999 V2000
    8.3530    0.4730   21.1960 O   0  0  0  0  0  0  0  0  0  0  0  0
    8.1000   -0.5850   21.7800 C   0  0  0  0  0  0  0  0  0  0  0  0
    6.6990   -1.0550   21.7800 C   0  0  0  0  0  0  0  0  0  0  0  0
    5.8840   -0.6890   22.8560 C   0  0  0  0  0  0  0  0  0  0  0  0
    5.3200   -1.6970   23.6510 C   0  0  0  0  0  0  0  0  0  0  0  0
    4.4880   -1.4180   24.7530 C   0  0  0  0  0  0  0  0  0  0  0  0
    4.1530   -0.0040   25.1470 C   0  0  0  0  0  0  0  0  0  0  0  0
    4.7710    1.1070   24.2760 C   0  0  0  0  0  0  0  0  0  0  0  0
    5.6430    0.6670   23.1250 C   0  0  0  0  0  0  0  0  0  0  0  0
    9.0570   -1.3540   22.4400 N   0  0  0  0  0  0  0  0  0  0  0  0
    8.6670   -2.3800   23.3190 C   0  0  0  0  0  0  0  0  0  0  0  0
    8.9340   -2.3630   24.5200 O   0  0  0  0  0  0  0  0  0  0  0  0
    7.9570   -3.4090   22.7170 N   0  0  0  0  0  0  0  0  0  0  0  0
    7.6630   -4.6360   23.3950 C   0  0  0  0  0  0  0  0  0  0  0  0
    7.2460   -5.6960   22.7470 C   0  0  0  0  0  0  0  0  0  0  0  0
    6.1500   -5.2980   23.3480 C   0  0  0  0  0  0  0  0  0  0  0  0
   10.3770   -0.8190   22.5630 C   0  0  0  0  0  0  0  0  0  0  0  0
   10.6720    0.4760   22.9720 C   0  0  0  0  0  0  0  0  0  0  0  0
   12.0330    0.8550   23.0330 C   0  0  0  0  0  0  0  0  0  0  0  0
   13.0900   -0.0390   22.6950 C   0  0  0  0  0  0  0  0  0  0  0  0
   12.8810   -1.3140   22.2890 N   0  0  0  0  0  0  0  0  0  0  0  0
   11.5690   -1.4050   22.3180 C   0  0  0  0  0  0  0  0  0  0  0  0
  1  2  2  0
  2  3  1  0
  3  4  1  0
  4  5  2  0
  5  6  1  0
  6  7  2  0
  7  8  1  0
  4  9  1  0
  8  9  2  0
  2 10  1  0
 10 11  1  0
 11 12  2  0
 11 13  1  0
 13 14  1  0
 14 15  1  0
 14 16  1  0
 15 16  1  0
 10 17  1  0
 17 18  2  0
 18 19  1  0
 19 20  2  0
 20 21  1  0
 17 22  1  0
 21 22  2  0
M  END
