MIC-SGC-657978c3-4
     RDKit          3D

 23 25  0  0  0  0  0  0  0  0999 V2000
    1.3910    3.5360   21.2480 O   0  0  0  0  0  0  0  0  0  0  0  0
    2.7980    3.7050   21.1610 C   0  0  0  0  0  0  0  0  0  0  0  0
    3.4050    4.9310   21.3100 N   0  0  0  0  0  0  0  0  0  0  0  0
    3.1280    5.7810   22.4480 C   0  0  0  0  0  0  0  0  0  0  0  0
    2.8030    7.1010   22.0950 C   0  0  0  0  0  0  0  0  0  0  0  0
    3.7630    7.9430   21.9720 C   0  0  0  0  0  0  0  0  0  0  0  0
    3.5070    7.7790   20.7370 C   0  0  0  0  0  0  0  0  0  0  0  0
    3.7090    2.6810   20.9200 N   0  0  0  0  0  0  0  0  0  0  0  0
    3.5020    1.9620   19.7750 C   0  0  0  0  0  0  0  0  0  0  0  0
    4.6810    1.1470   19.4590 C   0  0  0  0  0  0  0  0  0  0  0  0
    5.2050    0.2540   20.3620 C   0  0  0  0  0  0  0  0  0  0  0  0
    6.3780   -0.5190   19.9870 C   0  0  0  0  0  0  0  0  0  0  0  0
    6.9390   -0.3840   18.8010 C   0  0  0  0  0  0  0  0  0  0  0  0
    6.4290    0.4870   17.9090 N   0  0  0  0  0  0  0  0  0  0  0  0
    5.3090    1.2550   18.2120 C   0  0  0  0  0  0  0  0  0  0  0  0
    4.9260    2.4560   21.6170 C   0  0  0  0  0  0  0  0  0  0  0  0
    6.0090    2.8320   21.1880 O   0  0  0  0  0  0  0  0  0  0  0  0
    4.8340    1.7130   22.9650 C   0  0  0  0  0  0  0  0  0  0  0  0
    3.7750    1.9050   23.8660 C   0  0  0  0  0  0  0  0  0  0  0  0
    3.6210    1.2150   25.2040 C   0  0  0  0  0  0  0  0  0  0  0  0
    4.7290    0.2520   25.5420 C   0  0  0  0  0  0  0  0  0  0  0  0
    5.7820    0.0460   24.6710 C   0  0  0  0  0  0  0  0  0  0  0  0
    5.9210    0.6920   23.4320 C   0  0  0  0  0  0  0  0  0  0  0  0
  1  2  2  0
  2  3  1  0
  3  4  1  0
  4  5  1  0
  5  6  1  0
  5  7  1  0
  6  7  1  0
  2  8  1  0
  8  9  1  0
  9 10  1  0
 10 11  2  0
 11 12  1  0
 12 13  2  0
 13 14  1  0
 10 15  1  0
 14 15  2  0
  8 16  1  0
 16 17  2  0
 16 18  1  0
 18 19  2  0
 19 20  1  0
 20 21  2  0
 21 22  1  0
 18 23  1  0
 22 23  2  0
M  END
