MIC-SGC-657978c3-8
     RDKit          3D

 21 23  0  0  0  0  0  0  0  0999 V2000
    9.0010   -3.3560   23.5360 O   0  0  0  0  0  0  0  0  0  0  0  0
    8.3800   -2.4260   23.0440 C   0  0  0  0  0  0  0  0  0  0  0  0
    6.9960   -2.6080   22.6580 N   0  0  0  0  0  0  0  0  0  0  0  0
    6.3410   -3.7690   22.9130 C   0  0  0  0  0  0  0  0  0  0  0  0
    5.5280   -4.4840   22.1360 C   0  0  0  0  0  0  0  0  0  0  0  0
    4.8080   -3.6170   23.1210 C   0  0  0  0  0  0  0  0  0  0  0  0
    8.9710   -1.1940   22.8530 N   0  0  0  0  0  0  0  0  0  0  0  0
    8.5450   -0.2020   21.8480 C   0  0  0  0  0  0  0  0  0  0  0  0
    9.3810    0.4810   21.2920 O   0  0  0  0  0  0  0  0  0  0  0  0
    7.1450    0.1450   21.4800 C   0  0  0  0  0  0  0  0  0  0  0  0
    6.3680    0.0790   20.2870 C   0  0  0  0  0  0  0  0  0  0  0  0
    5.0420    0.4870   20.0320 C   0  0  0  0  0  0  0  0  0  0  0  0
    4.6910    0.2730   18.7860 C   0  0  0  0  0  0  0  0  0  0  0  0
    6.2890   -0.3020   18.8550 C   0  0  0  0  0  0  0  0  0  0  0  0
    7.1070   -0.2400   20.0880 C   0  0  0  0  0  0  0  0  0  0  0  0
   10.3290   -0.9680   23.0220 C   0  0  0  0  0  0  0  0  0  0  0  0
   10.7400    0.3660   22.9710 C   0  0  0  0  0  0  0  0  0  0  0  0
   12.0640    0.7240   23.1030 C   0  0  0  0  0  0  0  0  0  0  0  0
   12.9790   -0.2760   23.2930 C   0  0  0  0  0  0  0  0  0  0  0  0
   12.7130   -1.5920   23.3710 N   0  0  0  0  0  0  0  0  0  0  0  0
   11.3020   -1.9390   23.2210 C   0  0  0  0  0  0  0  0  0  0  0  0
  1  2  2  0
  2  3  1  0
  3  4  1  0
  4  5  1  0
  4  6  1  0
  5  6  1  0
  2  7  1  0
  7  8  1  0
  8  9  2  0
  8 10  1  0
 10 11  2  0
 11 12  1  0
 12 13  2  0
 13 14  1  0
 10 15  1  0
 14 15  2  0
  7 16  1  0
 16 17  2  0
 17 18  1  0
 18 19  2  0
 19 20  1  0
 16 21  1  0
 20 21  2  0
M  END
