MIC-SGC-657978c3-6
     RDKit          3D

 22 24  0  0  0  0  0  0  0  0999 V2000
    9.1380   -3.2210   22.1400 O   0  0  0  0  0  0  0  0  0  0  0  0
    8.4920   -2.3430   22.6830 C   0  0  0  0  0  0  0  0  0  0  0  0
    7.2070   -2.5880   23.3340 N   0  0  0  0  0  0  0  0  0  0  0  0
    6.8500   -3.8510   23.8030 C   0  0  0  0  0  0  0  0  0  0  0  0
    6.1090   -4.6390   22.7650 C   0  0  0  0  0  0  0  0  0  0  0  0
    5.4750   -5.9210   22.9890 C   0  0  0  0  0  0  0  0  0  0  0  0
    6.7190   -6.1170   22.3460 C   0  0  0  0  0  0  0  0  0  0  0  0
    8.9460   -1.0080   22.7600 N   0  0  0  0  0  0  0  0  0  0  0  0
    8.5800    0.0230   21.8030 C   0  0  0  0  0  0  0  0  0  0  0  0
    9.3940    0.7930   21.3360 O   0  0  0  0  0  0  0  0  0  0  0  0
    7.2030    0.2830   21.3790 C   0  0  0  0  0  0  0  0  0  0  0  0
    6.3130    0.1870   20.3710 C   0  0  0  0  0  0  0  0  0  0  0  0
    4.9740    0.5470   20.1210 C   0  0  0  0  0  0  0  0  0  0  0  0
    4.6500    0.1710   18.8260 C   0  0  0  0  0  0  0  0  0  0  0  0
    6.1810   -0.3970   18.7720 C   0  0  0  0  0  0  0  0  0  0  0  0
    7.1770   -0.2660   19.9660 C   0  0  0  0  0  0  0  0  0  0  0  0
   10.3260   -0.7780   22.9770 C   0  0  0  0  0  0  0  0  0  0  0  0
   10.8350    0.6540   23.0460 C   0  0  0  0  0  0  0  0  0  0  0  0
   12.1750    0.8640   23.2370 C   0  0  0  0  0  0  0  0  0  0  0  0
   12.9930   -0.2310   23.3580 C   0  0  0  0  0  0  0  0  0  0  0  0
   12.6020   -1.5180   23.3090 N   0  0  0  0  0  0  0  0  0  0  0  0
   11.2910   -1.7690   23.1210 C   0  0  0  0  0  0  0  0  0  0  0  0
  1  2  2  0
  2  3  1  0
  3  4  1  0
  4  5  1  0
  5  6  1  0
  5  7  1  0
  6  7  1  0
  2  8  1  0
  8  9  1  0
  9 10  2  0
  9 11  1  0
 11 12  2  0
 12 13  1  0
 13 14  2  0
 14 15  1  0
 11 16  1  0
 15 16  2  0
  8 17  1  0
 17 18  2  0
 18 19  1  0
 19 20  2  0
 20 21  1  0
 17 22  1  0
 21 22  2  0
M  END
