MIC-SGC-657978c3-5
     RDKit          3D

 23 25  0  0  0  0  0  0  0  0999 V2000
    8.9900    1.3470   21.2320 O   0  0  0  0  0  0  0  0  0  0  0  0
    8.3770    0.4550   21.8330 C   0  0  0  0  0  0  0  0  0  0  0  0
    6.9070    0.4240   21.8810 C   0  0  0  0  0  0  0  0  0  0  0  0
    6.2890    0.3280   20.7180 C   0  0  0  0  0  0  0  0  0  0  0  0
    5.8210    1.5370   19.9700 C   0  0  0  0  0  0  0  0  0  0  0  0
    5.1920    1.3610   18.7690 C   0  0  0  0  0  0  0  0  0  0  0  0
    4.9230    0.0250   18.1170 C   0  0  0  0  0  0  0  0  0  0  0  0
    5.4010   -1.2200   18.8750 C   0  0  0  0  0  0  0  0  0  0  0  0
    6.0950   -0.9640   20.2100 C   0  0  0  0  0  0  0  0  0  0  0  0
    8.9730   -0.6030   22.5110 N   0  0  0  0  0  0  0  0  0  0  0  0
    8.2090   -1.4720   23.3290 C   0  0  0  0  0  0  0  0  0  0  0  0
    7.7460   -1.1650   24.4320 O   0  0  0  0  0  0  0  0  0  0  0  0
    7.9850   -2.7400   22.8130 N   0  0  0  0  0  0  0  0  0  0  0  0
    7.4620   -3.8320   23.6070 C   0  0  0  0  0  0  0  0  0  0  0  0
    6.6670   -4.6390   22.7810 C   0  0  0  0  0  0  0  0  0  0  0  0
    6.8500   -5.9310   22.7270 C   0  0  0  0  0  0  0  0  0  0  0  0
    5.7290   -5.8510   23.3900 C   0  0  0  0  0  0  0  0  0  0  0  0
   10.3400   -0.3650   22.7950 C   0  0  0  0  0  0  0  0  0  0  0  0
   10.8170    0.8580   23.3320 C   0  0  0  0  0  0  0  0  0  0  0  0
   12.3270    0.9250   23.5570 C   0  0  0  0  0  0  0  0  0  0  0  0
   12.9500   -0.3910   23.1360 C   0  0  0  0  0  0  0  0  0  0  0  0
   12.7010   -1.5870   22.6430 N   0  0  0  0  0  0  0  0  0  0  0  0
   11.3890   -1.2860   22.5820 C   0  0  0  0  0  0  0  0  0  0  0  0
  1  2  2  0
  2  3  1  0
  3  4  1  0
  4  5  2  0
  5  6  1  0
  6  7  2  0
  7  8  1  0
  4  9  1  0
  8  9  2  0
  2 10  1  0
 10 11  1  0
 11 12  2  0
 11 13  1  0
 13 14  1  0
 14 15  1  0
 15 16  1  0
 15 17  1  0
 16 17  1  0
 10 18  1  0
 18 19  2  0
 19 20  1  0
 20 21  2  0
 21 22  1  0
 18 23  1  0
 22 23  2  0
M  END
