MIC-IOC-304754b1-2
     RDKit          3D

 23 25  0  0  0  0  0  0  0  0999 V2000
    6.7640   -3.3570   21.1810 C   0  0  0  0  0  0  0  0  0  0  0  0
    5.9370   -4.5930   20.8960 C   0  0  0  0  0  0  0  0  0  0  0  0
    5.6770   -5.0170   19.7720 O   0  0  0  0  0  0  0  0  0  0  0  0
    5.4370   -5.1700   21.9970 N   0  0  0  0  0  0  0  0  0  0  0  0
    4.6550   -4.2860   22.5980 C   0  0  0  0  0  0  0  0  0  0  0  0
    5.3300   -3.8070   23.9400 C   0  0  0  0  0  0  0  0  0  0  0  0
    6.0130   -4.8560   24.6630 C   0  0  0  0  0  0  0  0  0  0  0  0
    5.1750   -5.9020   24.0830 C   0  0  0  0  0  0  0  0  0  0  0  0
    4.9700   -6.2960   25.6800 C   0  0  0  0  0  0  0  0  0  0  0  0
    4.0590   -7.2760   25.3820 C   0  0  0  0  0  0  0  0  0  0  0  0
    3.1660   -8.2920   25.7140 N   0  0  0  0  0  0  0  0  0  0  0  0
    1.8550   -8.4730   25.2240 C   0  0  0  0  0  0  0  0  0  0  0  0
    1.1010   -9.4940   25.8110 C   0  0  0  0  0  0  0  0  0  0  0  0
    1.6120  -10.7780   25.9670 C   0  0  0  0  0  0  0  0  0  0  0  0
    0.8500  -11.9030   26.5880 C   0  0  0  0  0  0  0  0  0  0  0  0
   -0.4500  -11.7310   27.0600 C   0  0  0  0  0  0  0  0  0  0  0  0
   -1.1230  -12.8010   27.6300 F   0  0  0  0  0  0  0  0  0  0  0  0
   -1.0360  -10.4670   26.9400 C   0  0  0  0  0  0  0  0  0  0  0  0
   -0.3250   -9.2730   26.3210 C   0  0  0  0  0  0  0  0  0  0  0  0
   -1.1160   -7.7500   26.2140 Cl  0  0  0  0  0  0  0  0  0  0  0  0
    4.4980   -6.6290   24.1520 C   0  0  0  0  0  0  0  0  0  0  0  0
    5.5720   -5.5410   24.4230 C   0  0  0  0  0  0  0  0  0  0  0  0
    5.8800   -5.0170   23.2710 C   0  0  0  0  0  0  0  0  0  0  0  0
  1  2  1  0
  2  3  2  0
  2  4  1  0
  4  5  1  0
  5  6  1  0
  6  7  1  0
  7  8  1  0
  8  9  1  0
  9 10  2  0
 10 11  1  0
 11 12  1  0
 12 13  1  0
 13 14  2  0
 14 15  1  0
 15 16  2  0
 16 17  1  0
 16 18  1  0
 13 19  1  0
 18 19  2  0
 19 20  1  0
 10 21  1  0
 21 22  2  0
  4 23  1  0
  8 23  2  0
 22 23  1  0
M  END
