MIC-SGC-657978c3-1
     RDKit          3D

 23 25  0  0  0  0  0  0  0  0999 V2000
    8.9960    1.6010   21.1710 O   0  0  0  0  0  0  0  0  0  0  0  0
    8.6050    0.5190   21.6370 C   0  0  0  0  0  0  0  0  0  0  0  0
    7.8170   -0.4160   20.9390 C   0  0  0  0  0  0  0  0  0  0  0  0
    6.7380    0.1160   20.2450 C   0  0  0  0  0  0  0  0  0  0  0  0
    6.2500    0.3200   18.9590 C   0  0  0  0  0  0  0  0  0  0  0  0
    4.8740    1.0430   18.9090 C   0  0  0  0  0  0  0  0  0  0  0  0
    3.9890    1.5640   20.2460 C   0  0  0  0  0  0  0  0  0  0  0  0
    4.8080    1.1800   21.4450 C   0  0  0  0  0  0  0  0  0  0  0  0
    5.6770    0.6850   20.5240 C   0  0  0  0  0  0  0  0  0  0  0  0
    8.9490    0.1520   23.0080 N   0  0  0  0  0  0  0  0  0  0  0  0
    9.5280   -1.1530   23.1460 C   0  0  0  0  0  0  0  0  0  0  0  0
   10.8040   -1.2010   22.6570 C   0  0  0  0  0  0  0  0  0  0  0  0
   11.7500   -0.2550   23.0490 C   0  0  0  0  0  0  0  0  0  0  0  0
   13.0080   -0.3410   22.5160 C   0  0  0  0  0  0  0  0  0  0  0  0
   13.2690   -1.3690   21.6140 C   0  0  0  0  0  0  0  0  0  0  0  0
   12.3910   -2.2880   21.2340 N   0  0  0  0  0  0  0  0  0  0  0  0
   11.1690   -2.1780   21.7660 C   0  0  0  0  0  0  0  0  0  0  0  0
    8.9230    1.0830   24.0270 C   0  0  0  0  0  0  0  0  0  0  0  0
    9.5880    2.1190   24.0330 O   0  0  0  0  0  0  0  0  0  0  0  0
    8.0590    0.7540   25.0650 N   0  0  0  0  0  0  0  0  0  0  0  0
    8.5470    0.3050   26.3370 C   0  0  0  0  0  0  0  0  0  0  0  0
    8.1870   -0.8450   26.8550 C   0  0  0  0  0  0  0  0  0  0  0  0
    7.5000    0.0020   27.5730 C   0  0  0  0  0  0  0  0  0  0  0  0
  1  2  2  0
  2  3  1  0
  3  4  1  0
  4  5  2  0
  5  6  1  0
  6  7  2  0
  7  8  1  0
  4  9  1  0
  8  9  2  0
  2 10  1  0
 10 11  1  0
 11 12  1  0
 12 13  2  0
 13 14  1  0
 14 15  2  0
 15 16  1  0
 12 17  1  0
 16 17  2  0
 10 18  1  0
 18 19  2  0
 18 20  1  0
 20 21  1  0
 21 22  1  0
 21 23  1  0
 22 23  1  0
M  END
