MIH-UNI-3396182e-8
     RDKit          3D

 30 33  0  0  0  0  0  0  0  0999 V2000
    5.3230   -2.3310   19.5790 C   0  0  0  0  0  0  0  0  0  0  0  0
    5.6050   -3.4480   20.9390 S   0  0  0  0  0  0  0  0  0  0  0  0
    5.8810   -4.7320   20.3170 O   0  0  0  0  0  0  0  0  0  0  0  0
    4.4660   -3.4250   21.8240 O   0  0  0  0  0  0  0  0  0  0  0  0
    6.9530   -2.7320   21.7920 N   0  0  0  0  0  0  0  0  0  0  0  0
    6.8290   -1.4330   22.2890 C   0  0  0  0  0  0  0  0  0  0  0  0
    7.7860   -0.5280   22.8160 C   0  0  0  0  0  0  0  0  0  0  0  0
    8.3090   -0.6540   24.2000 C   0  0  0  0  0  0  0  0  0  0  0  0
    9.2640    0.4200   24.5570 C   0  0  0  0  0  0  0  0  0  0  0  0
    9.5340    1.4430   23.4930 C   0  0  0  0  0  0  0  0  0  0  0  0
    8.7080    0.8760   22.3560 C   0  0  0  0  0  0  0  0  0  0  0  0
    8.4710   -0.2390   23.2660 C   0  0  0  0  0  0  0  0  0  0  0  0
    7.8640   -1.5790   23.6280 N   0  0  0  0  0  0  0  0  0  0  0  0
    8.9410   -2.5980   23.5940 C   0  0  0  0  0  0  0  0  0  0  0  0
    8.3550   -4.0180   23.6190 C   0  0  0  0  0  0  0  0  0  0  0  0
    6.9400   -4.0930   24.0710 N   0  0  0  0  0  0  0  0  0  0  0  0
    6.7050   -5.4190   24.6240 O   0  0  0  0  0  0  0  0  0  0  0  0
    6.6130   -3.1050   25.1260 C   0  0  0  0  0  0  0  0  0  0  0  0
    7.0820   -1.6950   24.8140 C   0  0  0  0  0  0  0  0  0  0  0  0
    7.9750    0.0190   21.8420 C   0  0  0  0  0  0  0  0  0  0  0  0
    7.1300   -0.7510   21.0310 C   0  0  0  0  0  0  0  0  0  0  0  0
    6.3010    0.0280   20.2100 C   0  0  0  0  0  0  0  0  0  0  0  0
    6.5720    0.2250   18.8740 C   0  0  0  0  0  0  0  0  0  0  0  0
    5.7510    1.0080   18.0790 C   0  0  0  0  0  0  0  0  0  0  0  0
    4.6370    1.6070   18.6300 C   0  0  0  0  0  0  0  0  0  0  0  0
    4.3080    1.4580   19.9030 N   0  0  0  0  0  0  0  0  0  0  0  0
    5.1430    0.6760   20.6640 C   0  0  0  0  0  0  0  0  0  0  0  0
    8.4880    1.3580   21.1560 N   0  0  0  0  0  0  0  0  0  0  0  0
    9.2210    1.7740   22.2100 C   0  0  0  0  0  0  0  0  0  0  0  0
    8.3070    0.6140   22.0510 C   0  0  0  0  0  0  0  0  0  0  0  0
  1  2  1  0
  2  3  2  0
  2  4  2  0
  2  5  1  0
  5  6  1  0
  6  7  1  0
  7  8  2  0
  8  9  1  0
  9 10  2  0
 10 11  1  0
 11 12  2  0
 12 13  1  0
 13 14  1  0
 14 15  1  0
 15 16  1  0
 16 17  1  0
 16 18  1  0
 13 19  1  0
 18 19  1  0
 12 20  1  0
 20 21  1  0
 21 22  1  0
 22 23  2  0
 23 24  1  0
 24 25  2  0
 25 26  1  0
 22 27  1  0
 26 27  2  0
 20 28  2  0
 10 29  1  0
 28 29  1  0
  7 30  1  0
 29 30  2  0
M  END
