MIH-UNI-3396182e-5
     RDKit          3D

 23 25  0  0  0  0  0  0  0  0999 V2000
   13.1150    0.0600   22.7840 C   0  0  0  0  0  0  0  0  0  0  0  0
   13.2020   -1.5660   22.0580 S   0  0  0  0  0  0  0  0  0  0  0  0
   13.7050   -1.4660   20.7130 O   0  0  0  0  0  0  0  0  0  0  0  0
   13.7200   -2.4890   23.0370 O   0  0  0  0  0  0  0  0  0  0  0  0
   11.6030   -1.9300   21.9210 N   0  0  0  0  0  0  0  0  0  0  0  0
   10.8390   -1.3670   23.0230 C   0  0  0  0  0  0  0  0  0  0  0  0
    9.4210   -1.4850   22.7790 C   0  0  0  0  0  0  0  0  0  0  0  0
    9.5610   -2.5750   23.4030 C   0  0  0  0  0  0  0  0  0  0  0  0
    8.2590   -2.3470   22.9930 C   0  0  0  0  0  0  0  0  0  0  0  0
    8.6120   -0.9110   22.2840 C   0  0  0  0  0  0  0  0  0  0  0  0
    8.2530    0.3170   21.5400 C   0  0  0  0  0  0  0  0  0  0  0  0
    7.2080    0.3300   20.4150 C   0  0  0  0  0  0  0  0  0  0  0  0
    7.2460   -0.4950   19.1530 C   0  0  0  0  0  0  0  0  0  0  0  0
    6.1440   -0.1780   18.3280 N   0  0  0  0  0  0  0  0  0  0  0  0
    5.5120    0.9810   18.7170 C   0  0  1  0  0  0  0  0  0  0  0  0
    4.0650    1.0700   18.6010 N   0  0  0  0  0  0  0  0  0  0  0  0
    3.6710    1.9190   19.5920 C   0  0  0  0  0  0  0  0  0  0  0  0
    3.9370    2.4380   20.7930 C   0  0  0  0  0  0  0  0  0  0  0  0
    5.2330    1.7990   21.2570 C   0  0  0  0  0  0  0  0  0  0  0  0
    5.9690    1.0850   20.2560 C   0  0  0  0  0  0  0  0  0  0  0  0
    7.3670   -1.2200   22.1900 N   0  0  0  0  0  0  0  0  0  0  0  0
    8.0700   -2.0710   22.8020 C   0  0  0  0  0  0  0  0  0  0  0  0
    7.5670   -3.2690   23.3370 N   0  0  0  0  0  0  0  0  0  0  0  0
  1  2  1  0
  2  3  2  0
  2  4  2  0
  2  5  1  0
  5  6  1  0
  6  7  1  0
  7  8  2  0
  8  9  1  0
  9 10  2  0
 10 11  1  0
 11 12  1  0
 12 13  2  0
 13 14  1  0
 15 14  1  1
 15 16  1  0
 16 17  1  0
 17 18  2  0
 18 19  1  0
 12 20  1  0
 15 20  1  0
 19 20  2  0
 10 21  1  0
  7 22  1  0
 21 22  2  0
 22 23  1  0
M  END
