MIH-UNI-3396182e-7
     RDKit          3D

 27 29  0  0  0  0  0  0  0  0999 V2000
    7.2380    1.6630   20.8350 N   0  0  0  0  0  0  0  0  0  0  0  0
    7.7510    0.8420   21.8500 C   0  0  0  0  0  0  0  0  0  0  0  0
    7.1710   -0.4840   22.1160 N   0  0  0  0  0  0  0  0  0  0  0  0
    7.4520   -1.6190   23.1100 C   0  0  0  0  0  0  0  0  0  0  0  0
    6.3720   -1.9210   22.2500 C   0  0  0  0  0  0  0  0  0  0  0  0
    6.1550   -3.3010   22.1000 C   0  0  0  0  0  0  0  0  0  0  0  0
    5.7260   -3.8580   20.9210 C   0  0  0  0  0  0  0  0  0  0  0  0
    5.5460   -5.2110   20.7940 C   0  0  0  0  0  0  0  0  0  0  0  0
    5.7780   -6.0590   21.8530 C   0  0  0  0  0  0  0  0  0  0  0  0
    6.1870   -5.5800   23.0430 N   0  0  0  0  0  0  0  0  0  0  0  0
    6.3660   -4.2250   23.1340 C   0  0  0  0  0  0  0  0  0  0  0  0
    8.6040   -1.1460   23.9300 C   0  0  0  0  0  0  0  0  0  0  0  0
    8.5360   -2.3810   24.6680 N   0  0  0  0  0  0  0  0  0  0  0  0
    9.0450   -3.6510   24.1060 C   0  0  0  0  0  0  0  0  0  0  0  0
    9.1070   -4.6420   25.1100 C   0  0  0  0  0  0  0  0  0  0  0  0
    8.4950   -4.3370   26.4170 N   0  0  0  0  0  0  0  0  0  0  0  0
    8.2700   -5.6280   27.0440 O   0  0  0  0  0  0  0  0  0  0  0  0
    7.1680   -3.7790   26.1960 C   0  0  0  0  0  0  0  0  0  0  0  0
    7.2040   -2.5240   25.3280 C   0  0  0  0  0  0  0  0  0  0  0  0
    8.2720   -0.1710   22.9820 C   0  0  0  0  0  0  0  0  0  0  0  0
    8.7070    1.0210   22.6730 C   0  0  0  0  0  0  0  0  0  0  0  0
    9.6670    1.9580   23.0450 C   0  0  0  0  0  0  0  0  0  0  0  0
    9.5830    3.1550   22.3540 C   0  0  0  0  0  0  0  0  0  0  0  0
    9.4430    4.5670   23.4540 S   0  0  0  0  0  0  0  0  0  0  0  0
   10.4030    5.7180   22.6990 N   0  0  0  0  0  0  0  0  0  0  0  0
    8.1050    5.1090   23.3700 O   0  0  0  0  0  0  0  0  0  0  0  0
   10.0900    4.3130   24.7210 O   0  0  0  0  0  0  0  0  0  0  0  0
  1  2  1  0
  2  3  2  0
  3  4  1  0
  4  5  1  0
  5  6  1  0
  6  7  2  0
  7  8  1  0
  8  9  2  0
  9 10  1  0
  6 11  1  0
 10 11  2  0
  4 12  2  0
 12 13  1  0
 13 14  1  0
 14 15  1  0
 15 16  1  0
 16 17  1  0
 16 18  1  0
 13 19  1  0
 18 19  1  0
 12 20  1  0
  2 21  1  0
 20 21  2  0
 21 22  1  0
 22 23  1  0
 23 24  1  0
 24 25  1  0
 24 26  2  0
 24 27  2  0
M  END
