MIH-UNI-6b9ca91a-6
     RDKit          3D

 17 18  0  0  0  0  0  0  0  0999 V2000
    9.1060   -5.0800   25.7560 O   0  0  0  0  0  0  0  0  0  0  0  0
    8.0630   -4.1440   26.0890 S   0  0  0  0  0  0  0  0  0  0  0  0
    8.0780   -3.4080   27.3340 O   0  0  0  0  0  0  0  0  0  0  0  0
    7.8670   -2.9920   24.8490 N   0  0  0  0  0  0  0  0  0  0  0  0
    8.8120   -3.0290   23.6880 C   0  0  0  0  0  0  0  0  0  0  0  0
    8.9960   -1.6800   22.9990 C   0  0  0  0  0  0  0  0  0  0  0  0
   10.3560   -1.1280   22.8620 C   0  0  0  0  0  0  0  0  0  0  0  0
   10.6710    0.1750   23.2870 C   0  0  0  0  0  0  0  0  0  0  0  0
   11.9580    0.7510   23.1890 C   0  0  0  0  0  0  0  0  0  0  0  0
   13.0270    0.0690   22.6590 C   0  0  0  0  0  0  0  0  0  0  0  0
   12.8830   -1.2370   22.1790 C   0  0  0  0  0  0  0  0  0  0  0  0
   11.5250   -1.9090   22.2530 C   0  0  0  0  0  0  0  0  0  0  0  0
    6.6480   -5.0950   26.2080 C   0  0  0  0  0  0  0  0  0  0  0  0
    5.5150   -5.2930   25.4160 C   0  0  0  0  0  0  0  0  0  0  0  0
    4.4740   -6.1150   25.6830 C   0  0  0  0  0  0  0  0  0  0  0  0
    4.8310   -6.5960   26.7740 O   0  0  0  0  0  0  0  0  0  0  0  0
    6.1350   -6.0280   27.1600 C   0  0  0  0  0  0  0  0  0  0  0  0
  1  2  2  0
  2  3  2  0
  2  4  1  0
  4  5  1  0
  5  6  1  0
  6  7  1  0
  7  8  2  0
  8  9  1  0
  9 10  2  0
 10 11  1  0
  7 12  1  0
 11 12  2  0
  2 13  1  0
 13 14  1  0
 14 15  2  0
 15 16  1  0
 13 17  2  0
 16 17  1  0
M  END
