MIH-UNI-6b9ca91a-2
     RDKit          3D

 23 25  0  0  0  0  0  0  0  0999 V2000
    5.0610    0.8470   21.8020 C   0  0  0  0  0  0  0  0  0  0  0  0
    5.4290    0.7920   20.3690 C   0  0  0  0  0  0  0  0  0  0  0  0
    4.7070    1.4620   19.4510 C   0  0  0  0  0  0  0  0  0  0  0  0
    5.1560    1.3560   18.0000 C   0  0  0  0  0  0  0  0  0  0  0  0
    6.2960    0.5650   17.6300 N   0  0  0  0  0  0  0  0  0  0  0  0
    7.0100   -0.1230   18.6870 C   0  0  0  0  0  0  0  0  0  0  0  0
    6.5590    0.0210   19.9820 C   0  0  0  0  0  0  0  0  0  0  0  0
    7.3390   -0.6770   20.9110 N   0  0  0  0  0  0  0  0  0  0  0  0
    8.2070   -0.0540   21.8290 C   0  0  0  0  0  0  0  0  0  0  0  0
    9.3290    0.3310   21.5390 O   0  0  0  0  0  0  0  0  0  0  0  0
    7.7030    0.1520   23.2400 C   0  0  2  0  0  0  0  0  0  0  0  0
    6.4970   -0.7880   23.4620 C   0  0  0  0  0  0  0  0  0  0  0  0
    5.4760   -0.6010   24.3840 C   0  0  0  0  0  0  0  0  0  0  0  0
    4.5440   -1.6800   24.2960 C   0  0  0  0  0  0  0  0  0  0  0  0
    4.9290   -2.8540   23.1290 S   0  0  0  0  0  0  0  0  0  0  0  0
    6.3300   -1.9710   22.7160 C   0  0  0  0  0  0  0  0  0  0  0  0
    7.4060    1.5030   23.3360 N   0  0  0  0  0  0  0  0  0  0  0  0
    6.5290    1.8860   24.4660 C   0  0  0  0  0  0  0  0  0  0  0  0
    6.5900    3.2070   24.9240 C   0  0  0  0  0  0  0  0  0  0  0  0
    7.4430    4.0660   24.2400 C   0  0  0  0  0  0  0  0  0  0  0  0
    7.7210    5.1110   25.1710 O   0  0  0  0  0  0  0  0  0  0  0  0
    8.6560    3.4670   23.9560 C   0  0  0  0  0  0  0  0  0  0  0  0
    8.5780    2.2950   23.1960 C   0  0  0  0  0  0  0  0  0  0  0  0
  1  2  1  0
  2  3  2  0
  3  4  1  0
  4  5  2  0
  5  6  1  0
  2  7  1  0
  6  7  2  0
  7  8  1  0
  8  9  1  0
  9 10  2  0
 11  9  1  6
 11 12  1  0
 12 13  1  0
 13 14  2  0
 14 15  1  0
 12 16  2  0
 15 16  1  0
 11 17  1  0
 17 18  1  0
 18 19  1  0
 19 20  1  0
 20 21  1  0
 20 22  1  0
 17 23  1  0
 22 23  1  0
M  END
