MIH-UNI-6b9ca91a-4
     RDKit          3D

 19 21  0  0  0  0  0  0  0  0999 V2000
    8.9620   -0.9420   22.8250 N   0  0  0  0  0  0  0  0  0  0  0  0
    9.8450    0.1240   23.2800 C   0  0  2  0  0  0  0  0  0  0  0  0
    9.1720    1.4750   23.1680 C   0  0  0  0  0  0  0  0  0  0  0  0
   10.1270    2.5630   23.6810 C   0  0  2  0  0  0  0  0  0  0  0  0
    9.6120    3.9700   23.4540 C   0  0  0  0  0  0  0  0  0  0  0  0
   10.3280    5.1710   23.7980 C   0  0  0  0  0  0  0  0  0  0  0  0
    9.6370    6.3190   23.4750 C   0  0  0  0  0  0  0  0  0  0  0  0
    8.1280    5.9780   22.7570 S   0  0  0  0  0  0  0  0  0  0  0  0
    8.3950    4.2900   22.8780 C   0  0  0  0  0  0  0  0  0  0  0  0
   11.4870    2.4680   23.0160 C   0  0  0  0  0  0  0  0  0  0  0  0
   11.9850    1.0620   22.9730 C   0  0  1  0  0  0  0  0  0  0  0  0
   12.4170    0.5730   24.2340 N   0  0  0  0  0  0  0  0  0  0  0  0
   12.8480   -0.6370   23.9120 C   0  0  0  0  0  0  0  0  0  0  0  0
   13.2120   -1.6050   24.8100 C   0  0  0  0  0  0  0  0  0  0  0  0
   13.6190   -2.8020   24.3050 C   0  0  0  0  0  0  0  0  0  0  0  0
   13.6330   -2.9230   22.9270 C   0  0  0  0  0  0  0  0  0  0  0  0
   13.2970   -2.0190   22.0450 N   0  0  0  0  0  0  0  0  0  0  0  0
   12.9190   -0.9090   22.5810 C   0  0  0  0  0  0  0  0  0  0  0  0
   11.0120    0.1260   22.5010 O   0  0  0  0  0  0  0  0  0  0  0  0
  2  1  1  6
  2  3  1  0
  3  4  1  0
  4  5  1  6
  5  6  1  0
  6  7  2  0
  7  8  1  0
  5  9  2  0
  8  9  1  0
  4 10  1  0
 10 11  1  0
 11 12  1  1
 12 13  1  0
 13 14  2  0
 14 15  1  0
 15 16  2  0
 16 17  1  0
 13 18  1  0
 17 18  2  0
  2 19  1  0
 11 19  1  0
M  END
