MIH-UNI-6b9ca91a-9
     RDKit          3D

 25 27  0  0  0  0  0  0  0  0999 V2000
    8.7690   -1.2040   26.7240 C   0  0  0  0  0  0  0  0  0  0  0  0
    7.6920   -0.1730   26.4230 C   0  0  0  0  0  0  0  0  0  0  0  0
    7.4250    0.6990   27.2520 O   0  0  0  0  0  0  0  0  0  0  0  0
    7.0550   -0.2890   25.1970 N   0  0  0  0  0  0  0  0  0  0  0  0
    7.2280   -1.4590   24.3410 C   0  0  0  0  0  0  0  0  0  0  0  0
    5.9940   -1.8120   23.7780 C   0  0  0  0  0  0  0  0  0  0  0  0
    5.7600   -1.2750   22.5140 C   0  0  0  0  0  0  0  0  0  0  0  0
    5.5960    0.0850   22.4130 N   0  0  0  0  0  0  0  0  0  0  0  0
    6.6490    0.5960   21.6630 C   0  0  0  0  0  0  0  0  0  0  0  0
    7.9460    0.0840   21.7090 C   0  0  0  0  0  0  0  0  0  0  0  0
    9.2920    0.1260   21.8000 C   0  0  0  0  0  0  0  0  0  0  0  0
   10.4850   -0.8930   21.8090 C   0  0  0  0  0  0  0  0  0  0  0  0
   11.2280   -0.0050   21.9050 C   0  0  0  0  0  0  0  0  0  0  0  0
   12.6330    0.7720   22.0280 C   0  0  0  0  0  0  0  0  0  0  0  0
   12.3970    2.5420   22.1750 C   0  0  0  0  0  0  0  0  0  0  0  0
   10.7940    3.0880   22.1890 C   0  0  0  0  0  0  0  0  0  0  0  0
   10.5580    4.8600   22.6270 S   0  0  0  0  0  0  0  0  0  0  0  0
    8.9530    5.2180   22.2840 N   0  0  0  0  0  0  0  0  0  0  0  0
   11.4370    5.7740   21.9420 O   0  0  0  0  0  0  0  0  0  0  0  0
   10.5310    4.9880   24.0800 O   0  0  0  0  0  0  0  0  0  0  0  0
    9.6090    2.0500   21.9710 C   0  0  0  0  0  0  0  0  0  0  0  0
    9.8800    0.4720   21.8500 C   0  0  0  0  0  0  0  0  0  0  0  0
    8.8240   -0.7550   21.6980 C   0  0  0  0  0  0  0  0  0  0  0  0
    5.4690    0.8440   23.6690 C   0  0  0  0  0  0  0  0  0  0  0  0
    6.7320    0.9670   24.5180 C   0  0  0  0  0  0  0  0  0  0  0  0
  1  2  1  0
  2  3  2  0
  2  4  1  0
  4  5  1  0
  5  6  1  0
  6  7  1  0
  7  8  1  0
  8  9  1  0
  9 10  1  0
 10 11  2  0
 11 12  1  0
 12 13  2  0
 13 14  1  0
 14 15  2  0
 15 16  1  0
 16 17  1  0
 17 18  1  0
 17 19  2  0
 17 20  2  0
 16 21  2  0
 13 22  1  0
 21 22  1  0
 10 23  1  0
 22 23  2  0
  8 24  1  0
  4 25  1  0
 24 25  1  0
M  END
