MIH-UNI-3396182e-10
     RDKit          3D

 21 23  0  0  0  0  0  0  0  0999 V2000
    5.4780    2.0600   21.5360 C   0  0  0  0  0  0  0  0  0  0  0  0
    5.8080    1.2810   20.2710 C   0  0  0  0  0  0  0  0  0  0  0  0
    4.8000    1.2090   19.3210 C   0  0  0  0  0  0  0  0  0  0  0  0
    5.0310    0.5190   18.1570 C   0  0  0  0  0  0  0  0  0  0  0  0
    6.1680   -0.1070   17.8550 N   0  0  0  0  0  0  0  0  0  0  0  0
    7.1160   -0.0250   18.7890 C   0  0  0  0  0  0  0  0  0  0  0  0
    7.0540    0.6380   20.0050 C   0  0  0  0  0  0  0  0  0  0  0  0
    8.1170    0.7000   20.9420 N   0  0  0  0  0  0  0  0  0  0  0  0
    7.6570    1.0370   22.2650 C   0  0  1  0  0  0  0  0  0  0  0  0
    7.1200   -0.0850   22.6060 C   0  0  0  0  0  0  0  0  0  0  0  0
    6.6980   -0.8970   23.5430 C   0  0  1  0  0  0  0  0  0  0  0  0
    7.3470   -2.0960   23.6900 C   0  0  0  0  0  0  0  0  0  0  0  0
    8.6820   -2.2530   23.7350 C   0  0  0  0  0  0  0  0  0  0  0  0
    9.1520   -3.6650   23.8500 C   0  0  0  0  0  0  0  0  0  0  0  0
    8.2620   -4.9630   23.9320 C   0  0  0  0  0  0  0  0  0  0  0  0
    6.9920   -4.4260   23.8860 C   0  0  0  0  0  0  0  0  0  0  0  0
    6.5290   -3.1650   23.7760 C   0  0  0  0  0  0  0  0  0  0  0  0
    6.4850   -0.0750   24.8150 C   0  0  0  0  0  0  0  0  0  0  0  0
    6.9510    1.1640   24.2530 C   0  0  1  0  0  0  0  0  0  0  0  0
    7.1800    2.2170   25.0680 N   0  0  0  0  0  0  0  0  0  0  0  0
    8.1200    1.1520   23.3830 O   0  0  0  0  0  0  0  0  0  0  0  0
  1  2  1  0
  2  3  2  0
  3  4  1  0
  4  5  2  0
  5  6  1  0
  2  7  1  0
  6  7  2  0
  7  8  1  0
  9  8  1  6
  9 10  1  0
 10 11  1  0
 11 12  1  1
 12 13  2  0
 13 14  1  0
 14 15  2  0
 15 16  1  0
 12 17  1  0
 16 17  2  0
 11 18  1  0
 18 19  1  0
 19 20  1  1
  9 21  1  0
 19 21  1  0
M  END
