MIH-UNI-3396182e-9
     RDKit          3D

 28 30  0  0  0  0  0  0  0  0999 V2000
   10.6310    2.4710   22.3310 C   0  0  0  0  0  0  0  0  0  0  0  0
    8.9420    1.9790   22.2100 S   0  0  0  0  0  0  0  0  0  0  0  0
    8.2380    2.6430   23.2830 O   0  0  0  0  0  0  0  0  0  0  0  0
    8.5090    2.1110   20.8490 O   0  0  0  0  0  0  0  0  0  0  0  0
    8.7730    0.3090   22.4820 N   0  0  0  0  0  0  0  0  0  0  0  0
    8.5250   -0.5610   21.3400 C   0  0  0  0  0  0  0  0  0  0  0  0
    7.3410   -0.2730   20.6330 C   0  0  0  0  0  0  0  0  0  0  0  0
    6.4620    0.7190   20.8130 C   0  0  0  0  0  0  0  0  0  0  0  0
    5.2580    1.0890   20.2010 C   0  0  0  0  0  0  0  0  0  0  0  0
    4.8040    2.2440   20.9000 C   0  0  0  0  0  0  0  0  0  0  0  0
    3.5810    2.9720   20.6080 C   0  0  0  0  0  0  0  0  0  0  0  0
    2.9170    2.4750   19.6200 C   0  0  0  0  0  0  0  0  0  0  0  0
    1.6510    2.9730   19.1030 C   0  0  0  0  0  0  0  0  0  0  0  0
    1.5840    4.7290   18.7590 S   0  0  0  0  0  0  0  0  0  0  0  0
    2.1180    4.7520   17.1590 N   0  0  0  0  0  0  0  0  0  0  0  0
    2.5190    5.4680   19.5660 O   0  0  0  0  0  0  0  0  0  0  0  0
    0.1880    5.1040   18.6780 O   0  0  0  0  0  0  0  0  0  0  0  0
    3.5740    1.3890   19.1370 C   0  0  0  0  0  0  0  0  0  0  0  0
    4.5880    0.3720   19.0130 C   0  0  0  0  0  0  0  0  0  0  0  0
    5.5730   -0.6170   18.8930 N   0  0  0  0  0  0  0  0  0  0  0  0
    6.7970   -1.0710   19.4960 C   0  0  0  0  0  0  0  0  0  0  0  0
    7.3580   -2.3200   18.9330 C   0  0  0  0  0  0  0  0  0  0  0  0
    6.9820   -3.4320   19.7100 C   0  0  0  0  0  0  0  0  0  0  0  0
    5.7010   -4.2130   19.6070 C   0  0  0  0  0  0  0  0  0  0  0  0
    5.5900   -5.3700   20.5590 C   0  0  0  0  0  0  0  0  0  0  0  0
    6.5720   -5.7110   21.4740 C   0  0  0  0  0  0  0  0  0  0  0  0
    7.7250   -5.0360   21.5910 N   0  0  0  0  0  0  0  0  0  0  0  0
    7.9530   -3.9520   20.7860 C   0  0  0  0  0  0  0  0  0  0  0  0
  1  2  1  0
  2  3  2  0
  2  4  2  0
  2  5  1  0
  5  6  1  0
  6  7  1  0
  7  8  2  0
  8  9  1  0
  9 10  2  0
 10 11  1  0
 11 12  2  0
 12 13  1  0
 13 14  1  0
 14 15  1  0
 14 16  2  0
 14 17  2  0
 12 18  1  0
  9 19  1  0
 18 19  2  0
 19 20  1  0
  7 21  1  0
 20 21  2  0
 21 22  1  0
 22 23  1  0
 23 24  2  0
 24 25  1  0
 25 26  2  0
 26 27  1  0
 23 28  1  0
 27 28  2  0
M  END
