MIH-UNI-3396182e-6
     RDKit          3D

 30 33  0  0  0  0  0  0  0  0999 V2000
    8.1520    3.2610   24.6720 N   0  0  0  0  0  0  0  0  0  0  0  0
    8.2890    1.8520   24.4630 C   0  0  0  0  0  0  0  0  0  0  0  0
    6.9120    1.0130   24.2900 N   0  0  0  0  0  0  0  0  0  0  0  0
    7.2550   -0.4360   24.1770 C   0  0  0  0  0  0  0  0  0  0  0  0
    6.7690   -1.8280   24.0050 C   0  0  0  0  0  0  0  0  0  0  0  0
    8.1840   -2.5620   23.8330 C   0  0  0  0  0  0  0  0  0  0  0  0
    8.8420   -2.7140   22.6300 C   0  0  0  0  0  0  0  0  0  0  0  0
   10.1590   -3.2760   22.7180 N   0  0  0  0  0  0  0  0  0  0  0  0
   10.5890   -3.1260   24.1120 C   0  0  2  0  0  0  0  0  0  0  0  0
   11.5130   -3.8910   24.6900 N   0  0  0  0  0  0  0  0  0  0  0  0
   11.5630   -4.1650   26.0050 C   0  0  0  0  0  0  0  0  0  0  0  0
   10.3250   -4.0360   26.9190 C   0  0  0  0  0  0  0  0  0  0  0  0
    9.0100   -3.5010   26.2150 C   0  0  0  0  0  0  0  0  0  0  0  0
    9.2180   -3.0580   24.7520 C   0  0  0  0  0  0  0  0  0  0  0  0
    8.6210   -0.6560   24.2050 C   0  0  0  0  0  0  0  0  0  0  0  0
    8.7340   -2.1090   24.1000 N   0  0  0  0  0  0  0  0  0  0  0  0
    9.1280   -2.9260   25.2590 C   0  0  0  0  0  0  0  0  0  0  0  0
    9.4310   -4.4360   24.8210 C   0  0  0  0  0  0  0  0  0  0  0  0
    8.1180   -5.1360   24.5580 N   0  0  0  0  0  0  0  0  0  0  0  0
    7.8290   -5.5160   25.9510 O   0  0  0  0  0  0  0  0  0  0  0  0
    7.0690   -4.1510   24.1480 C   0  0  0  0  0  0  0  0  0  0  0  0
    7.6860   -2.8670   23.3770 C   0  0  0  0  0  0  0  0  0  0  0  0
    7.8220    0.5400   24.3410 C   0  0  0  0  0  0  0  0  0  0  0  0
    9.3550    0.7930   24.3530 C   0  0  0  0  0  0  0  0  0  0  0  0
   10.5200    0.9850   24.3620 C   0  0  0  0  0  0  0  0  0  0  0  0
   11.3270    0.0480   23.3770 C   0  0  0  0  0  0  0  0  0  0  0  0
   12.7690    1.0100   23.4350 S   0  0  0  0  0  0  0  0  0  0  0  0
   12.8640    1.6600   21.9780 N   0  0  0  0  0  0  0  0  0  0  0  0
   13.8920    0.2780   23.8000 O   0  0  0  0  0  0  0  0  0  0  0  0
   12.2590    2.0830   24.2720 O   0  0  0  0  0  0  0  0  0  0  0  0
  1  2  1  0
  2  3  2  0
  3  4  1  0
  4  5  1  0
  5  6  1  0
  6  7  2  0
  7  8  1  0
  9  8  1  6
  9 10  1  0
 10 11  1  0
 11 12  2  0
 12 13  1  0
  6 14  1  0
  9 14  1  0
 13 14  2  0
  4 15  2  0
 15 16  1  0
 16 17  1  0
 17 18  1  0
 18 19  1  0
 19 20  1  0
 19 21  1  0
 16 22  1  0
 21 22  1  0
 15 23  1  0
  2 24  1  0
 23 24  2  0
 24 25  1  0
 25 26  1  0
 26 27  1  0
 27 28  1  0
 27 29  2  0
 27 30  2  0
M  END
