MIH-UNI-3396182e-2
     RDKit          3D

 21 23  0  0  0  0  0  0  0  0999 V2000
    4.9740    1.5100   21.8760 C   0  0  0  0  0  0  0  0  0  0  0  0
    5.6180    0.9860   20.6170 C   0  0  0  0  0  0  0  0  0  0  0  0
    5.0820    1.5120   19.3490 C   0  0  0  0  0  0  0  0  0  0  0  0
    5.6170    1.0790   18.1360 C   0  0  0  0  0  0  0  0  0  0  0  0
    6.6490    0.1550   18.2040 N   0  0  0  0  0  0  0  0  0  0  0  0
    7.1760   -0.3630   19.3810 C   0  0  0  0  0  0  0  0  0  0  0  0
    6.6860    0.0320   20.6200 C   0  0  0  0  0  0  0  0  0  0  0  0
    7.2820   -0.5590   21.7770 N   0  0  0  0  0  0  0  0  0  0  0  0
    8.3400    0.1660   22.3650 C   0  0  0  0  0  0  0  0  0  0  0  0
    9.3390    1.0430   23.0030 C   0  0  0  0  0  0  0  0  0  0  0  0
    9.4880   -0.3990   22.4490 C   0  0  0  0  0  0  0  0  0  0  0  0
   10.7920   -1.1070   22.4890 C   0  0  0  0  0  0  0  0  0  0  0  0
   11.9060   -1.9160   21.8870 C   0  0  0  0  0  0  0  0  0  0  0  0
   13.0980   -2.3940   22.5400 C   0  0  0  0  0  0  0  0  0  0  0  0
   13.4510   -2.1480   23.9990 C   0  0  0  0  0  0  0  0  0  0  0  0
   12.3190   -1.3810   24.4020 C   0  0  0  0  0  0  0  0  0  0  0  0
   11.0710   -0.8460   23.8470 C   0  0  0  0  0  0  0  0  0  0  0  0
    8.3180   -1.1170   21.9010 C   0  0  0  0  0  0  0  0  0  0  0  0
    6.9310   -0.3530   21.9140 C   0  0  0  0  0  0  0  0  0  0  0  0
    5.6320   -0.8190   21.4810 N   0  0  0  0  0  0  0  0  0  0  0  0
    7.2330    0.8330   22.4330 N   0  0  0  0  0  0  0  0  0  0  0  0
  1  2  1  0
  2  3  2  0
  3  4  1  0
  4  5  2  0
  5  6  1  0
  2  7  1  0
  6  7  2  0
  7  8  1  0
  8  9  1  0
  9 10  2  0
 10 11  1  0
 11 12  1  0
 12 13  2  0
 13 14  1  0
 14 15  2  0
 15 16  1  0
 12 17  1  0
 16 17  2  0
 11 18  2  0
 18 19  1  0
 19 20  1  0
  9 21  1  0
 19 21  2  0
M  END
