MIH-UNI-3396182e-1
     RDKit          3D

 15 16  0  0  0  0  0  0  0  0999 V2000
    5.1690    0.6580   21.9440 C   0  0  0  0  0  0  0  0  0  0  0  0
    5.6050    0.5440   20.4860 C   0  0  0  0  0  0  0  0  0  0  0  0
    4.8810    1.2450   19.5240 C   0  0  0  0  0  0  0  0  0  0  0  0
    5.2650    1.1550   18.1950 C   0  0  0  0  0  0  0  0  0  0  0  0
    6.3030    0.4260   17.7530 N   0  0  0  0  0  0  0  0  0  0  0  0
    6.9710   -0.2340   18.7180 C   0  0  0  0  0  0  0  0  0  0  0  0
    6.7060   -0.2350   20.0650 C   0  0  0  0  0  0  0  0  0  0  0  0
    7.4790   -0.9570   20.9750 N   0  0  0  0  0  0  0  0  0  0  0  0
    8.4860   -0.1460   21.6240 C   0  0  0  0  0  0  0  0  0  0  0  0
    9.1150    0.8090   22.5550 C   0  0  0  0  0  0  0  0  0  0  0  0
    9.0460    1.8030   23.5770 C   0  0  0  0  0  0  0  0  0  0  0  0
    7.9600    1.5520   23.0660 C   0  0  0  0  0  0  0  0  0  0  0  0
    7.9680    0.0830   23.3480 C   0  0  0  0  0  0  0  0  0  0  0  0
    7.3230   -1.1030   23.3110 N   0  0  0  0  0  0  0  0  0  0  0  0
    7.4000   -0.4340   22.3960 N   0  0  0  0  0  0  0  0  0  0  0  0
  1  2  1  0
  2  3  2  0
  3  4  1  0
  4  5  2  0
  5  6  1  0
  2  7  1  0
  6  7  2  0
  7  8  1  0
  8  9  1  0
  9 10  2  0
 10 11  1  0
 11 12  2  0
 12 13  1  0
 13 14  1  0
  9 15  1  0
 13 15  2  0
M  END
