MIK-CHE-f7b1aeed-1
     RDKit          3D

 20 21  0  0  0  0  0  0  0  0999 V2000
   13.3010   -1.6130   21.0050 C   0  0  0  0  0  0  0  0  0  0  0  0
   12.5780   -1.3710   22.3160 C   0  0  2  0  0  0  0  0  0  0  0  0
   11.4530   -2.1210   22.1200 C   0  0  0  0  0  0  0  0  0  0  0  0
   10.6750   -2.3710   22.9730 O   0  0  0  0  0  0  0  0  0  0  0  0
    9.6400   -1.4580   22.8640 C   0  0  1  0  0  0  0  0  0  0  0  0
    8.3730   -1.9610   23.0340 C   0  0  0  0  0  0  0  0  0  0  0  0
    8.2920   -3.1320   24.0170 C   0  0  0  0  0  0  0  0  0  0  0  0
    6.8950   -3.6920   24.1640 C   0  0  0  0  0  0  0  0  0  0  0  0
    5.7930   -3.1910   23.4770 C   0  0  0  0  0  0  0  0  0  0  0  0
    4.3050   -3.9640   23.7710 S   0  0  2  0  0  0  0  0  0  0  0  0
    3.5860   -2.7000   24.6730 C   0  0  0  0  0  0  0  0  0  0  0  0
    4.5140   -5.2430   24.6040 N   0  0  0  0  0  0  0  0  0  0  0  0
    3.5680   -4.2730   22.5650 O   0  0  0  0  0  0  0  0  0  0  0  0
    5.9650   -2.0250   22.5330 C   0  0  0  0  0  0  0  0  0  0  0  0
    7.2350   -1.4630   22.3520 C   0  0  0  0  0  0  0  0  0  0  0  0
   10.0310   -0.2740   23.7260 C   0  0  0  0  0  0  0  0  0  0  0  0
   10.9760    0.5450   23.0490 N   0  0  0  0  0  0  0  0  0  0  0  0
   10.4310    1.8360   22.7240 C   0  0  0  0  0  0  0  0  0  0  0  0
   12.2750    0.0860   22.7430 C   0  0  0  0  0  0  0  0  0  0  0  0
   13.3700    1.0020   22.8180 O   0  0  0  0  0  0  0  0  0  0  0  0
  2  1  1  6
  2  3  1  0
  3  4  1  0
  4  5  1  0
  5  6  1  1
  6  7  2  0
  7  8  1  0
  8  9  2  0
  9 10  1  0
 10 11  1  1
 10 12  2  0
 10 13  2  0
  9 14  1  0
  6 15  1  0
 14 15  2  0
  5 16  1  0
 16 17  1  0
 17 18  1  0
  2 19  1  0
 17 19  1  0
 19 20  2  0
M  END
