MUS-SCH-c2f96c06-7
     RDKit          3D

 22 24  0  0  0  0  0  0  0  0999 V2000
    2.2920    8.1830   21.1890 C   0  0  0  0  0  0  0  0  0  0  0  0
    1.8360    6.9860   20.4210 C   0  0  0  0  0  0  0  0  0  0  0  0
    0.6200    6.8760   19.8280 N   0  0  0  0  0  0  0  0  0  0  0  0
    0.5630    5.6420   19.2210 C   0  0  0  0  0  0  0  0  0  0  0  0
   -0.6820    5.2530   18.4870 C   0  0  0  0  0  0  0  0  0  0  0  0
   -0.5770    5.6830   16.7620 Cl  0  0  0  0  0  0  0  0  0  0  0  0
    1.7930    4.9890   19.4590 C   0  0  0  0  0  0  0  0  0  0  0  0
    2.2890    3.5910   19.0230 C   0  0  0  0  0  0  0  0  0  0  0  0
    2.3630    2.6200   20.0260 C   0  0  0  0  0  0  0  0  0  0  0  0
    1.3650    2.5830   21.0050 N   0  0  0  0  0  0  0  0  0  0  0  0
    1.6620    1.6060   21.8170 C   0  0  0  0  0  0  0  0  0  0  0  0
    2.8850    0.9140   21.4410 N   0  0  0  0  0  0  0  0  0  0  0  0
    3.3320    1.6060   20.2380 C   0  0  0  0  0  0  0  0  0  0  0  0
    4.5220    1.0420   19.7340 C   0  0  0  0  0  0  0  0  0  0  0  0
    4.9190    1.1080   18.3990 C   0  0  0  0  0  0  0  0  0  0  0  0
    6.0490    0.5710   17.8320 N   0  0  0  0  0  0  0  0  0  0  0  0
    6.8520   -0.1030   18.7540 C   0  0  0  0  0  0  0  0  0  0  0  0
    6.6270   -0.2630   20.1050 C   0  0  0  0  0  0  0  0  0  0  0  0
    5.4220    0.3410   20.5720 C   0  0  0  0  0  0  0  0  0  0  0  0
    5.2810    0.1370   21.9280 C   0  0  0  0  0  0  0  0  0  0  0  0
    3.9630   -0.3000   22.2350 O   0  0  0  0  0  0  0  0  0  0  0  0
    2.5650    5.8580   20.2130 N   0  0  0  0  0  0  0  0  0  0  0  0
  1  2  1  0
  2  3  2  0
  3  4  1  0
  4  5  1  0
  5  6  1  0
  4  7  2  0
  7  8  1  0
  8  9  1  0
  9 10  1  0
 10 11  1  0
 11 12  2  0
  9 13  2  0
 12 13  1  0
 13 14  1  0
 14 15  2  0
 15 16  1  0
 16 17  2  0
 17 18  1  0
 14 19  1  0
 18 19  2  0
 19 20  1  0
 20 21  1  0
  2 22  1  0
  7 22  1  0
M  END
