MUS-SCH-c2f96c06-3
     RDKit          3D

 22 24  0  0  0  0  0  0  0  0999 V2000
    9.6120    2.8930   21.1850 O   0  0  0  0  0  0  0  0  0  0  0  0
    8.9180    2.1760   21.8600 C   0  0  0  0  0  0  0  0  0  0  0  0
    9.1100    0.6800   21.8450 C   0  0  0  0  0  0  0  0  0  0  0  0
   10.2470    0.1520   22.6930 C   0  0  0  0  0  0  0  0  0  0  0  0
   10.5300   -1.3410   22.7790 C   0  0  0  0  0  0  0  0  0  0  0  0
    9.7140   -2.1610   22.0710 N   0  0  0  0  0  0  0  0  0  0  0  0
    8.6910   -1.7000   21.3010 C   0  0  0  0  0  0  0  0  0  0  0  0
    8.3260   -0.2460   21.1250 C   0  0  0  0  0  0  0  0  0  0  0  0
    7.2490    0.2020   20.3310 C   0  0  0  0  0  0  0  0  0  0  0  0
    6.3150    0.6120   21.1700 C   0  0  0  0  0  0  0  0  0  0  0  0
    5.1250    1.1450   20.7800 C   0  0  0  0  0  0  0  0  0  0  0  0
    4.2930    1.5040   21.9010 C   0  0  0  0  0  0  0  0  0  0  0  0
    4.6100    2.4740   22.8080 C   0  0  0  0  0  0  0  0  0  0  0  0
    5.2540    1.9020   23.8930 C   0  0  0  0  0  0  0  0  0  0  0  0
    4.7240    0.7070   24.5910 C   0  0  0  0  0  0  0  0  0  0  0  0
    5.5980    0.3240   25.6670 N   0  0  0  0  0  0  0  0  0  0  0  0
    6.5720    1.2620   25.5740 N   0  0  0  0  0  0  0  0  0  0  0  0
    6.4060    2.1810   24.5810 C   0  0  0  0  0  0  0  0  0  0  0  0
    7.6000    3.4080   24.4120 Cl  0  0  0  0  0  0  0  0  0  0  0  0
    4.8920    1.2530   19.4060 C   0  0  0  0  0  0  0  0  0  0  0  0
    5.8840    0.8070   18.5140 C   0  0  0  0  0  0  0  0  0  0  0  0
    7.0950    0.2640   18.9520 N   0  0  0  0  0  0  0  0  0  0  0  0
  1  2  1  0
  2  3  1  0
  3  4  2  0
  4  5  1  0
  5  6  2  0
  6  7  1  0
  3  8  1  0
  7  8  2  0
  8  9  1  0
  9 10  2  0
 10 11  1  0
 11 12  1  0
 12 13  1  0
 13 14  1  0
 14 15  1  0
 15 16  2  0
 16 17  1  0
 14 18  2  0
 17 18  1  0
 18 19  1  0
 11 20  2  0
 20 21  1  0
  9 22  1  0
 21 22  2  0
M  END
