MUS-SCH-c2f96c06-12
     RDKit          3D

 17 18  0  0  0  0  0  0  0  0999 V2000
    6.4640    4.0160   21.9170 C   0  0  0  0  0  0  0  0  0  0  0  0
    5.1290    4.7070   22.0530 C   0  0  1  0  0  0  0  0  0  0  0  0
    5.2010    5.8180   22.5660 O   0  0  0  0  0  0  0  0  0  0  0  0
    4.3460    4.5320   20.8300 C   0  0  0  0  0  0  0  0  0  0  0  0
    3.4570    3.4510   20.7670 C   0  0  0  0  0  0  0  0  0  0  0  0
    2.1310    3.5530   21.1600 N   0  0  0  0  0  0  0  0  0  0  0  0
    1.4670    2.3950   21.0150 C   0  0  0  0  0  0  0  0  0  0  0  0
    2.2620    1.4150   20.5200 N   0  0  0  0  0  0  0  0  0  0  0  0
    3.4890    2.0840   20.3700 C   0  0  0  0  0  0  0  0  0  0  0  0
    4.5310    1.2680   19.8530 C   0  0  0  0  0  0  0  0  0  0  0  0
    5.0650    1.3460   18.3700 C   0  0  0  0  0  0  0  0  0  0  0  0
    6.1880    0.4860   17.7830 N   0  0  0  0  0  0  0  0  0  0  0  0
    6.7020   -0.3890   18.7120 C   0  0  0  0  0  0  0  0  0  0  0  0
    6.0790   -0.3040   19.9980 C   0  0  0  0  0  0  0  0  0  0  0  0
    5.0960    0.3560   20.7370 C   0  0  0  0  0  0  0  0  0  0  0  0
    4.7950    0.1050   22.0840 C   0  0  0  0  0  0  0  0  0  0  0  0
    5.4410   -0.7160   22.7240 O   0  0  0  0  0  0  0  0  0  0  0  0
  2  1  1  6
  2  3  1  0
  2  4  1  0
  4  5  1  0
  5  6  1  0
  6  7  1  0
  7  8  2  0
  5  9  2  0
  8  9  1  0
  9 10  1  0
 10 11  2  0
 11 12  1  0
 12 13  2  0
 13 14  1  0
 10 15  1  0
 14 15  2  0
 15 16  1  0
 16 17  1  0
M  END
