MUS-SCH-c2f96c06-11
     RDKit          3D

 21 23  0  0  0  0  0  0  0  0999 V2000
    5.6860   -0.9330   22.5540 O   0  0  0  0  0  0  0  0  0  0  0  0
    5.4810    0.3950   22.0580 C   0  0  0  0  0  0  0  0  0  0  0  0
    5.5950    0.4410   20.5630 C   0  0  0  0  0  0  0  0  0  0  0  0
    6.1430   -0.6590   19.9020 C   0  0  0  0  0  0  0  0  0  0  0  0
    6.2650   -0.6260   18.5350 C   0  0  0  0  0  0  0  0  0  0  0  0
    5.8820    0.4120   17.7710 N   0  0  0  0  0  0  0  0  0  0  0  0
    5.3370    1.4870   18.4120 C   0  0  0  0  0  0  0  0  0  0  0  0
    5.1810    1.5460   19.8020 C   0  0  0  0  0  0  0  0  0  0  0  0
    4.6160    2.7400   20.3750 C   0  0  0  0  0  0  0  0  0  0  0  0
    5.3340    3.4800   21.2880 N   0  0  0  0  0  0  0  0  0  0  0  0
    4.5680    4.4900   21.6180 C   0  0  0  0  0  0  0  0  0  0  0  0
    3.3770    4.4470   20.9640 N   0  0  0  0  0  0  0  0  0  0  0  0
    3.3770    3.3340   20.1570 C   0  0  0  0  0  0  0  0  0  0  0  0
    2.2820    3.0290   19.3610 C   0  0  0  0  0  0  0  0  0  0  0  0
    1.6070    4.1450   18.8620 C   0  0  0  0  0  0  0  0  0  0  0  0
    0.2450    4.2360   19.1950 C   0  0  0  0  0  0  0  0  0  0  0  0
   -0.2690    3.6160   20.3190 N   0  0  0  0  0  0  0  0  0  0  0  0
   -1.5540    3.8990   20.3270 C   0  0  0  0  0  0  0  0  0  0  0  0
   -1.9040    4.6780   19.2590 N   0  0  0  0  0  0  0  0  0  0  0  0
   -0.7700    4.8920   18.5430 C   0  0  0  0  0  0  0  0  0  0  0  0
   -0.8550    5.8310   17.1400 Cl  0  0  0  0  0  0  0  0  0  0  0  0
  1  2  1  0
  2  3  1  0
  3  4  2  0
  4  5  1  0
  5  6  2  0
  6  7  1  0
  3  8  1  0
  7  8  2  0
  8  9  1  0
  9 10  1  0
 10 11  2  0
 11 12  1  0
  9 13  2  0
 12 13  1  0
 13 14  1  0
 14 15  1  0
 15 16  1  0
 16 17  1  0
 17 18  2  0
 18 19  1  0
 16 20  2  0
 19 20  1  0
 20 21  1  0
M  END
