MUS-SCH-c2f96c06-1
     RDKit          3D

 25 27  0  0  0  0  0  0  0  0999 V2000
    3.3230   -0.2740   25.9910 O   0  0  0  0  0  0  0  0  0  0  0  0
    2.5310    0.5350   25.5280 C   0  0  0  0  0  0  0  0  0  0  0  0
    1.1970    0.3530   25.5750 O   0  0  0  0  0  0  0  0  0  0  0  0
    2.9430    1.8400   24.8550 C   0  0  0  0  0  0  0  0  0  0  0  0
    2.1580    3.0850   24.9420 N   0  0  0  0  0  0  0  0  0  0  0  0
    2.9150    4.0050   24.1870 N   0  0  0  0  0  0  0  0  0  0  0  0
    4.0400    3.4520   23.6720 C   0  0  0  0  0  0  0  0  0  0  0  0
    5.0880    4.4060   22.7370 Cl  0  0  0  0  0  0  0  0  0  0  0  0
    4.1880    2.0090   24.0330 C   0  0  0  0  0  0  0  0  0  0  0  0
    5.3620    1.1050   23.5980 C   0  0  0  0  0  0  0  0  0  0  0  0
    4.7270   -0.1440   22.9950 C   0  0  0  0  0  0  0  0  0  0  0  0
    4.8430    0.0540   21.4890 C   0  0  0  0  0  0  0  0  0  0  0  0
    5.6970   -0.9360   20.6810 C   0  0  0  0  0  0  0  0  0  0  0  0
    5.8780   -0.8590   19.3450 C   0  0  0  0  0  0  0  0  0  0  0  0
    5.2620    0.1640   18.7240 N   0  0  0  0  0  0  0  0  0  0  0  0
    4.4760    1.0950   19.4200 C   0  0  0  0  0  0  0  0  0  0  0  0
    3.9620    2.0650   18.6630 C   0  0  0  0  0  0  0  0  0  0  0  0
    2.7310    2.9820   18.8160 C   0  0  0  0  0  0  0  0  0  0  0  0
    2.3720    3.9490   17.8600 N   0  0  0  0  0  0  0  0  0  0  0  0
    3.3180    4.0160   16.6450 C   0  0  0  0  0  0  0  0  0  0  0  0
    4.4780    3.0600   16.6570 C   0  0  0  0  0  0  0  0  0  0  0  0
    4.7430    2.1530   17.6230 C   0  0  0  0  0  0  0  0  0  0  0  0
    5.8280    1.3010   17.5160 C   0  0  0  0  0  0  0  0  0  0  0  0
    6.6120    1.3860   18.7030 O   0  0  0  0  0  0  0  0  0  0  0  0
    4.2460    1.0680   20.7760 C   0  0  0  0  0  0  0  0  0  0  0  0
  1  2  2  0
  2  3  1  0
  2  4  1  0
  4  5  2  0
  5  6  1  0
  6  7  1  0
  7  8  1  0
  4  9  1  0
  7  9  2  0
  9 10  1  0
 10 11  1  0
 11 12  1  0
 12 13  2  0
 13 14  1  0
 14 15  2  0
 15 16  1  0
 16 17  1  0
 17 18  2  0
 18 19  1  0
 19 20  2  0
 20 21  1  0
 17 22  1  0
 21 22  2  0
 22 23  1  0
 23 24  1  0
 12 25  1  0
 16 25  2  0
M  END
