MUS-SCH-c2f96c06-6
     RDKit          3D

 18 19  0  0  0  0  0  0  0  0999 V2000
    4.4880   -1.0240   22.2040 O   0  0  0  0  0  0  0  0  0  0  0  0
    5.0390    0.0460   21.9830 C   0  0  0  0  0  0  0  0  0  0  0  0
    5.3040    0.3340   20.5240 C   0  0  0  0  0  0  0  0  0  0  0  0
    6.5390   -0.2630   20.0090 C   0  0  0  0  0  0  0  0  0  0  0  0
    6.8880   -0.0670   18.6870 C   0  0  0  0  0  0  0  0  0  0  0  0
    6.0320    0.7030   17.9200 N   0  0  0  0  0  0  0  0  0  0  0  0
    4.8530    1.2830   18.3850 C   0  0  0  0  0  0  0  0  0  0  0  0
    4.4350    1.1200   19.7010 C   0  0  0  0  0  0  0  0  0  0  0  0
    3.2290    1.6580   20.2700 C   0  0  0  0  0  0  0  0  0  0  0  0
    2.7670    1.0840   21.4110 N   0  0  0  0  0  0  0  0  0  0  0  0
    1.6640    1.6540   21.8220 C   0  0  0  0  0  0  0  0  0  0  0  0
    1.3550    2.7050   20.8850 N   0  0  0  0  0  0  0  0  0  0  0  0
    2.3290    2.7310   19.9000 C   0  0  0  0  0  0  0  0  0  0  0  0
    2.1720    3.7770   18.8330 C   0  0  0  0  0  0  0  0  0  0  0  0
    1.7420    5.0430   18.2300 C   0  0  2  0  0  0  0  0  0  0  0  0
    0.6560    5.5120   18.5660 O   0  0  0  0  0  0  0  0  0  0  0  0
    1.6990    5.1000   16.8290 C   0  0  0  0  0  0  0  0  0  0  0  0
    0.1800    5.2500   16.0350 Cl  0  0  0  0  0  0  0  0  0  0  0  0
  1  2  1  0
  2  3  1  0
  3  4  2  0
  4  5  1  0
  5  6  2  0
  6  7  1  0
  3  8  1  0
  7  8  2  0
  8  9  1  0
  9 10  1  0
 10 11  2  0
 11 12  1  0
  9 13  2  0
 12 13  1  0
 13 14  1  0
 14 15  1  0
 15 16  1  1
 15 17  1  0
 17 18  1  0
M  END
