MUS-SCH-c2f96c06-14
     RDKit          3D

 15 16  0  0  0  0  0  0  0  0999 V2000
    5.6990    0.4060   22.7650 O   0  0  0  0  0  0  0  0  0  0  0  0
    4.9050   -0.0420   21.9440 C   0  0  0  0  0  0  0  0  0  0  0  0
    5.2530    0.2410   20.5030 C   0  0  0  0  0  0  0  0  0  0  0  0
    6.4420   -0.4510   19.9920 C   0  0  0  0  0  0  0  0  0  0  0  0
    6.8400   -0.2570   18.6790 C   0  0  0  0  0  0  0  0  0  0  0  0
    6.0730    0.6040   17.9120 N   0  0  0  0  0  0  0  0  0  0  0  0
    4.9450    1.2730   18.3690 C   0  0  0  0  0  0  0  0  0  0  0  0
    4.4950    1.1160   19.6750 C   0  0  0  0  0  0  0  0  0  0  0  0
    3.3400    1.7850   20.1710 C   0  0  0  0  0  0  0  0  0  0  0  0
    2.1940    1.1310   20.5000 N   0  0  0  0  0  0  0  0  0  0  0  0
    1.2880    1.9760   20.9290 C   0  0  0  0  0  0  0  0  0  0  0  0
    1.8780    3.2960   20.8900 N   0  0  0  0  0  0  0  0  0  0  0  0
    3.1730    3.1720   20.4150 C   0  0  0  0  0  0  0  0  0  0  0  0
    4.0430    4.3730   20.2690 C   0  0  0  0  0  0  0  0  0  0  0  0
    4.4970    5.3200   21.6450 Cl  0  0  0  0  0  0  0  0  0  0  0  0
  1  2  1  0
  2  3  1  0
  3  4  2  0
  4  5  1  0
  5  6  2  0
  6  7  1  0
  3  8  1  0
  7  8  2  0
  8  9  1  0
  9 10  1  0
 10 11  2  0
 11 12  1  0
  9 13  2  0
 12 13  1  0
 13 14  1  0
 14 15  1  0
M  END
