NAA-THE-6df3c070-1
     RDKit          3D

 12 12  0  0  0  0  0  0  0  0999 V2000
   13.4210   -0.5870   22.6200 O   0  0  0  0  0  0  0  0  0  0  0  0
   12.7260   -0.1480   23.5240 C   0  0  0  0  0  0  0  0  0  0  0  0
   12.4780   -0.8600   24.6470 O   0  0  0  0  0  0  0  0  0  0  0  0
   12.0160    1.2440   23.4510 C   0  0  0  0  0  0  0  0  0  0  0  0
   12.8100    2.4190   22.9100 C   0  0  0  0  0  0  0  0  0  0  0  0
   12.1390    3.6450   22.8330 C   0  0  1  0  0  0  0  0  0  0  0  0
   12.0430    3.9630   21.4390 O   0  0  0  0  0  0  0  0  0  0  0  0
   10.9010    3.7890   23.4410 C   0  0  1  0  0  0  0  0  0  0  0  0
   10.1760    4.7320   22.6400 O   0  0  0  0  0  0  0  0  0  0  0  0
   10.0870    2.6370   23.4840 C   0  0  2  0  0  0  0  0  0  0  0  0
    8.9660    2.9360   24.3250 O   0  0  0  0  0  0  0  0  0  0  0  0
   10.5930    1.3850   23.8860 C   0  0  0  0  0  0  0  0  0  0  0  0
  1  2  2  0
  2  3  1  0
  2  4  1  0
  4  5  2  0
  5  6  1  0
  6  7  1  6
  6  8  1  0
  8  9  1  6
  8 10  1  0
 10 11  1  1
  4 12  1  0
 10 12  1  0
M  END
