NAU-LAT-ec9c7557-1
     RDKit          3D

 22 24  0  0  0  0  0  0  0  0999 V2000
    7.0620    0.8240   18.3770 C   0  0  0  0  0  0  0  0  0  0  0  0
    6.7130   -0.6810   18.3060 C   0  0  0  0  0  0  0  0  0  0  0  0
    7.8190   -1.5830   18.1880 O   0  0  0  0  0  0  0  0  0  0  0  0
    5.4210   -0.8520   18.4220 N   0  0  0  0  0  0  0  0  0  0  0  0
    5.3090   -0.0020   19.5550 C   0  0  0  0  0  0  0  0  0  0  0  0
    4.2530    0.9300   19.4770 C   0  0  0  0  0  0  0  0  0  0  0  0
    4.0080    1.8280   20.4670 C   0  0  0  0  0  0  0  0  0  0  0  0
    4.7930    1.9550   21.7470 C   0  0  0  0  0  0  0  0  0  0  0  0
    5.8270    1.4850   22.5190 O   0  0  0  0  0  0  0  0  0  0  0  0
    5.6720    0.1130   22.2500 C   0  0  0  0  0  0  0  0  0  0  0  0
    5.9530   -0.6380   23.3780 C   0  0  0  0  0  0  0  0  0  0  0  0
    4.9540   -1.0190   24.2820 C   0  0  0  0  0  0  0  0  0  0  0  0
    5.2460   -1.7910   25.4110 C   0  0  0  0  0  0  0  0  0  0  0  0
    6.5540   -2.2160   25.6850 C   0  0  0  0  0  0  0  0  0  0  0  0
    7.5980   -1.8660   24.8160 C   0  0  0  0  0  0  0  0  0  0  0  0
    7.2560   -1.0410   23.6210 C   0  0  0  0  0  0  0  0  0  0  0  0
    5.2710   -0.6720   21.0610 C   0  0  0  0  0  0  0  0  0  0  0  0
    4.8700   -1.2910   19.8340 O   0  0  0  0  0  0  0  0  0  0  0  0
    5.1130    0.4870   20.1660 C   0  0  0  0  0  0  0  0  0  0  0  0
    4.6690   -0.3040   19.3690 O   0  0  0  0  0  0  0  0  0  0  0  0
    5.6720    0.9290   21.4150 C   0  0  0  0  0  0  0  0  0  0  0  0
    6.2870   -0.2090   20.5690 C   0  0  0  0  0  0  0  0  0  0  0  0
  1  2  1  0
  2  3  2  0
  2  4  1  0
  4  5  1  0
  5  6  2  0
  6  7  1  0
  7  8  2  0
  8  9  1  0
  9 10  1  0
 10 11  1  0
 11 12  2  0
 12 13  1  0
 13 14  2  0
 14 15  1  0
 11 16  1  0
 15 16  2  0
 10 17  2  0
 17 18  1  0
 17 19  1  0
 19 20  2  0
  8 21  1  0
 19 21  1  0
  5 22  1  0
 21 22  2  0
M  END
