NAU-LAT-81109c57-1
     RDKit          3D

 20 21  0  0  0  0  0  0  0  0999 V2000
    7.1280    5.6040   23.5480 C   0  0  0  0  0  0  0  0  0  0  0  0
    8.0260    6.0770   22.3990 C   0  0  0  0  0  0  0  0  0  0  0  0
    7.3240    6.7070   21.3610 C   0  0  0  0  0  0  0  0  0  0  0  0
    9.2330    6.8740   22.8720 C   0  0  1  0  0  0  0  0  0  0  0  0
    9.0410    7.9230   23.4990 O   0  0  0  0  0  0  0  0  0  0  0  0
   10.2380    6.1340   23.4890 C   0  0  0  0  0  0  0  0  0  0  0  0
   10.2790    5.9660   24.7080 O   0  0  0  0  0  0  0  0  0  0  0  0
   11.2310    5.5940   22.5430 N   0  0  0  0  0  0  0  0  0  0  0  0
   12.3700    4.8580   23.1590 C   0  0  0  0  0  0  0  0  0  0  0  0
   12.4660    3.5030   22.7780 C   0  0  0  0  0  0  0  0  0  0  0  0
   11.5670    2.5720   23.3380 C   0  0  0  0  0  0  0  0  0  0  0  0
   10.3910    2.8550   24.0520 C   0  0  0  0  0  0  0  0  0  0  0  0
    9.6660    1.6080   24.4860 N   0  0  0  0  0  0  0  0  0  0  0  0
   10.4670    0.4810   23.9910 C   0  0  0  0  0  0  0  0  0  0  0  0
   10.3720   -0.8860   24.0250 C   0  0  0  0  0  0  0  0  0  0  0  0
   11.4950   -1.6650   23.3190 C   0  0  0  0  0  0  0  0  0  0  0  0
   12.6830   -0.9170   22.6200 C   0  0  0  0  0  0  0  0  0  0  0  0
   13.6540   -1.6420   21.9940 F   0  0  0  0  0  0  0  0  0  0  0  0
   12.6910    0.6160   22.6750 C   0  0  0  0  0  0  0  0  0  0  0  0
   11.4960    1.0430   23.3850 C   0  0  0  0  0  0  0  0  0  0  0  0
  1  2  1  0
  2  3  1  0
  2  4  1  0
  4  5  1  1
  4  6  1  0
  6  7  2  0
  6  8  1  0
  8  9  1  0
  9 10  1  0
 10 11  1  0
 11 12  2  0
 12 13  1  0
 13 14  1  0
 14 15  1  0
 15 16  2  0
 16 17  1  0
 17 18  1  0
 17 19  2  0
 11 20  1  0
 14 20  2  0
 19 20  1  0
M  END
