NAU-LAT-f723e322-6
     RDKit          3D

 26 28  0  0  0  0  0  0  0  0999 V2000
    3.7830    2.9510   18.9820 C   0  0  0  0  0  0  0  0  0  0  0  0
    4.6870    1.9490   19.5810 C   0  0  0  0  0  0  0  0  0  0  0  0
    4.4500    0.6500   19.8070 C   0  0  0  0  0  0  0  0  0  0  0  0
    5.5050    0.0050   20.3720 C   0  0  0  0  0  0  0  0  0  0  0  0
    5.4610   -1.3440   20.6770 C   0  0  0  0  0  0  0  0  0  0  0  0
    6.0010   -2.3870   19.9340 C   0  0  0  0  0  0  0  0  0  0  0  0
    5.9110   -3.7530   20.2350 C   0  0  0  0  0  0  0  0  0  0  0  0
    5.3300   -3.7190   19.1710 O   0  0  0  0  0  0  0  0  0  0  0  0
    6.6060   -3.4380   21.3830 N   0  0  0  0  0  0  0  0  0  0  0  0
    7.6370   -2.3880   21.4720 C   0  0  0  0  0  0  0  0  0  0  0  0
    7.8000   -1.9910   22.9310 C   0  0  0  0  0  0  0  0  0  0  0  0
    6.6440   -2.5350   23.7350 N   0  0  0  0  0  0  0  0  0  0  0  0
    6.6030   -1.9350   25.3180 S   0  0  0  0  0  0  0  0  0  0  0  0
    7.9440   -1.4830   25.4790 O   0  0  0  0  0  0  0  0  0  0  0  0
    5.4660   -1.0670   25.4890 O   0  0  0  0  0  0  0  0  0  0  0  0
    6.3760   -3.3430   26.3630 C   0  0  0  0  0  0  0  0  0  0  0  0
    5.8920   -4.5480   25.9030 C   0  0  0  0  0  0  0  0  0  0  0  0
    5.7400   -5.7650   26.8220 C   0  0  0  0  0  0  0  0  0  0  0  0
    6.0930   -5.6460   28.1470 C   0  0  0  0  0  0  0  0  0  0  0  0
    5.9400   -6.9630   29.2350 Cl  0  0  0  0  0  0  0  0  0  0  0  0
    6.6010   -4.3400   28.6460 C   0  0  0  0  0  0  0  0  0  0  0  0
    6.7410   -3.2370   27.8440 C   0  0  0  0  0  0  0  0  0  0  0  0
    6.5110   -4.0160   23.6520 C   0  0  0  0  0  0  0  0  0  0  0  0
    6.8110   -4.4740   22.3900 C   0  0  0  0  0  0  0  0  0  0  0  0
    6.4830    0.9380   20.5230 N   0  0  0  0  0  0  0  0  0  0  0  0
    5.9670    2.1660   20.0220 O   0  0  0  0  0  0  0  0  0  0  0  0
  1  2  1  0
  2  3  2  0
  3  4  1  0
  4  5  1  0
  5  6  2  3
  6  7  1  0
  7  8  2  0
  7  9  1  0
  9 10  1  0
 10 11  1  0
 11 12  1  0
 12 13  1  0
 13 14  2  0
 13 15  2  0
 13 16  1  0
 16 17  2  0
 17 18  1  0
 18 19  2  0
 19 20  1  0
 19 21  1  0
 16 22  1  0
 21 22  2  0
 12 23  1  0
  9 24  1  0
 23 24  1  0
  4 25  2  0
  2 26  1  0
 25 26  1  0
M  END
