NAU-LAT-c9bfe74c-1
     RDKit          3D

 33 37  0  0  0  0  0  0  0  0999 V2000
   11.5990   14.6870   24.6510 N   0  0  0  0  0  0  0  0  0  0  0  0
   11.2280   13.3870   25.0100 C   0  0  0  0  0  0  0  0  0  0  0  0
   12.2670   12.4820   25.6820 C   0  0  0  0  0  0  0  0  0  0  0  0
   13.5600   13.1100   25.8710 O   0  0  0  0  0  0  0  0  0  0  0  0
   11.7900   11.0840   26.0400 C   0  0  0  0  0  0  0  0  0  0  0  0
   10.3610   10.6690   25.7280 C   0  0  0  0  0  0  0  0  0  0  0  0
    9.9190    9.0020   26.1960 S   0  0  0  0  0  0  0  0  0  0  0  0
    8.4900    8.8090   26.1260 O   0  0  0  0  0  0  0  0  0  0  0  0
   10.6750    8.6890   27.3880 O   0  0  0  0  0  0  0  0  0  0  0  0
   10.5560    8.0580   24.9030 N   0  0  0  0  0  0  0  0  0  0  0  0
    9.5550    7.5080   23.9260 C   0  0  0  0  0  0  0  0  0  0  0  0
   10.1430    6.5550   23.1190 C   0  0  0  0  0  0  0  0  0  0  0  0
   10.5040    5.3580   23.8860 N   0  0  0  0  0  0  0  0  0  0  0  0
    9.7920    4.2100   23.5320 C   0  0  0  0  0  0  0  0  0  0  0  0
    8.5670    4.2840   23.4090 O   0  0  0  0  0  0  0  0  0  0  0  0
   10.4180    2.9300   23.3130 C   0  0  0  0  0  0  0  0  0  0  0  0
   11.7080    2.6400   23.0560 C   0  0  0  0  0  0  0  0  0  0  0  0
   11.7650    1.1210   22.9240 C   0  0  0  0  0  0  0  0  0  0  0  0
   12.9360    0.1920   22.6390 C   0  0  0  0  0  0  0  0  0  0  0  0
   12.6370   -1.2070   22.5670 C   0  0  0  0  0  0  0  0  0  0  0  0
   13.6130   -2.0470   22.3090 F   0  0  0  0  0  0  0  0  0  0  0  0
   11.3650   -1.7630   22.7490 C   0  0  0  0  0  0  0  0  0  0  0  0
   10.2250   -0.8680   23.0350 C   0  0  0  0  0  0  0  0  0  0  0  0
   10.4970    0.6310   23.1100 C   0  0  0  0  0  0  0  0  0  0  0  0
    9.6920    1.7280   23.3460 N   0  0  0  0  0  0  0  0  0  0  0  0
   10.9060    5.6430   25.2440 C   0  0  0  0  0  0  0  0  0  0  0  0
   11.5380    7.0120   25.3280 C   0  0  0  0  0  0  0  0  0  0  0  0
    9.4590   11.5790   25.0990 C   0  0  0  0  0  0  0  0  0  0  0  0
    8.1400   11.2750   24.7790 C   0  0  0  0  0  0  0  0  0  0  0  0
    7.2330   12.1290   24.1660 C   0  0  0  0  0  0  0  0  0  0  0  0
    7.6600   13.4080   23.8330 C   0  0  0  0  0  0  0  0  0  0  0  0
    8.9710   13.7860   24.1250 C   0  0  0  0  0  0  0  0  0  0  0  0
    9.9040   12.9140   24.7530 C   0  0  0  0  0  0  0  0  0  0  0  0
  1  2  1  0
  2  3  2  0
  3  4  1  0
  3  5  1  0
  5  6  2  0
  7  6  1  0
  7  8  2  0
  7  9  2  0
  7 10  1  0
 10 11  1  0
 11 12  1  0
 12 13  1  0
 13 14  1  0
 14 15  2  0
 14 16  1  0
 16 17  2  0
 17 18  1  0
 18 19  2  0
 19 20  1  0
 20 21  1  0
 20 22  2  0
 22 23  1  0
 18 24  1  0
 23 24  2  0
 16 25  1  0
 24 25  1  0
 13 26  1  0
 10 27  1  0
 26 27  1  0
  6 28  1  0
 28 29  1  0
 29 30  2  0
 30 31  1  0
 31 32  2  0
  2 33  1  0
 28 33  2  0
 32 33  1  0
M  END
