NAU-LAT-42d4957e-3
     RDKit          3D

 23 25  0  0  0  0  0  0  0  0999 V2000
   14.1270   -3.1530   23.9940 N   0  0  0  0  0  0  0  0  0  0  0  0
   13.4720   -3.1650   25.5180 S   0  0  0  0  0  0  0  0  0  0  0  0
   13.6490   -4.4050   26.1610 O   0  0  0  0  0  0  0  0  0  0  0  0
   14.0170   -2.0060   26.1350 O   0  0  0  0  0  0  0  0  0  0  0  0
   11.8060   -2.9300   25.1220 C   0  0  0  0  0  0  0  0  0  0  0  0
   11.2870   -4.0020   26.0620 C   0  0  0  0  0  0  0  0  0  0  0  0
    9.9220   -4.1540   26.1180 C   0  0  0  0  0  0  0  0  0  0  0  0
    8.9050   -3.3290   25.2740 C   0  0  0  0  0  0  0  0  0  0  0  0
    9.6420   -2.3090   24.3380 C   0  0  0  0  0  0  0  0  0  0  0  0
   10.5010   -3.1060   25.1590 C   0  0  0  0  0  0  0  0  0  0  0  0
    8.3720   -1.8730   23.8260 N   0  0  0  0  0  0  0  0  0  0  0  0
    8.6090   -1.0980   22.7060 C   0  0  0  0  0  0  0  0  0  0  0  0
    7.8120   -0.8640   21.7970 O   0  0  0  0  0  0  0  0  0  0  0  0
   10.0260   -0.5710   22.7680 N   0  0  0  0  0  0  0  0  0  0  0  0
   10.4610    0.3960   23.6910 C   0  0  0  0  0  0  0  0  0  0  0  0
   11.5020    1.1820   23.2620 C   0  0  0  0  0  0  0  0  0  0  0  0
   12.7040    0.2290   23.2760 C   0  0  0  0  0  0  0  0  0  0  0  0
   12.7270   -0.3090   24.5920 O   0  0  0  0  0  0  0  0  0  0  0  0
   12.5370   -0.8670   22.4510 C   0  0  0  0  0  0  0  0  0  0  0  0
   11.1220   -1.4730   22.3420 C   0  0  0  0  0  0  0  0  0  0  0  0
    7.4280   -1.2860   24.7880 C   0  0  0  0  0  0  0  0  0  0  0  0
    6.8870   -2.3090   25.5310 C   0  0  0  0  0  0  0  0  0  0  0  0
    7.5490   -3.5080   25.3950 C   0  0  0  0  0  0  0  0  0  0  0  0
  2  1  1  0
  2  3  2  0
  2  4  2  0
  2  5  1  0
  5  6  2  0
  6  7  1  0
  7  8  2  0
  8  9  1  0
  5 10  1  0
  9 10  2  0
  9 11  1  0
 11 12  1  0
 12 13  2  0
 12 14  1  0
 14 15  1  0
 15 16  1  0
 16 17  1  0
 17 18  1  0
 17 19  1  0
 14 20  1  0
 19 20  1  0
 11 21  1  0
 21 22  1  0
  8 23  1  0
 22 23  1  0
M  END
