NAU-LAT-c9bfe74c-4
     RDKit          3D

 31 34  0  0  0  0  0  0  0  0999 V2000
   12.7580   12.0330   25.5500 N   0  0  0  0  0  0  0  0  0  0  0  0
   11.4180   11.6570   25.4380 C   0  0  0  0  0  0  0  0  0  0  0  0
   10.3610   12.7500   25.2320 C   0  0  0  0  0  0  0  0  0  0  0  0
    8.9400   12.2210   25.1270 C   0  0  0  0  0  0  0  0  0  0  0  0
    8.5990   10.7350   25.2180 C   0  0  0  0  0  0  0  0  0  0  0  0
    7.2900   10.3580   25.1130 O   0  0  0  0  0  0  0  0  0  0  0  0
    9.7560    9.7970   25.4190 C   0  0  0  0  0  0  0  0  0  0  0  0
    9.5920    8.4240   25.5130 C   0  0  0  0  0  0  0  0  0  0  0  0
    8.7460    7.9320   26.2590 O   0  0  0  0  0  0  0  0  0  0  0  0
   10.4650    7.7560   24.6960 N   0  0  0  0  0  0  0  0  0  0  0  0
   11.2950    6.9020   25.3870 C   0  0  0  0  0  0  0  0  0  0  0  0
   11.6990    5.5790   24.9780 C   0  0  0  0  0  0  0  0  0  0  0  0
   11.4040    5.2920   23.5270 N   0  0  0  0  0  0  0  0  0  0  0  0
   12.5420    4.3500   22.6980 S   0  0  0  0  0  0  0  0  0  0  0  0
   12.4560    4.7280   21.3070 O   0  0  0  0  0  0  0  0  0  0  0  0
   13.7860    4.5040   23.4200 O   0  0  0  0  0  0  0  0  0  0  0  0
   11.7550    2.7380   22.8770 C   0  0  0  0  0  0  0  0  0  0  0  0
   10.3470    2.4900   23.1230 C   0  0  0  0  0  0  0  0  0  0  0  0
   10.2920    0.8980   23.1700 C   0  0  0  0  0  0  0  0  0  0  0  0
    9.0700    0.3160   23.4140 O   0  0  0  0  0  0  0  0  0  0  0  0
   11.5460    0.0100   22.9730 C   0  0  0  0  0  0  0  0  0  0  0  0
   11.2860   -1.3980   23.0530 N   0  0  0  0  0  0  0  0  0  0  0  0
   12.9070    0.4850   22.7270 C   0  0  0  0  0  0  0  0  0  0  0  0
   13.1510   -0.9510   22.7120 C   0  0  0  0  0  0  0  0  0  0  0  0
   11.9040   -1.7570   22.9470 C   0  0  0  0  0  0  0  0  0  0  0  0
   10.7480   -0.9890   23.1350 C   0  0  0  0  0  0  0  0  0  0  0  0
   10.7890    0.5640   23.0940 C   0  0  0  0  0  0  0  0  0  0  0  0
   11.9570    1.3640   22.8740 C   0  0  0  0  0  0  0  0  0  0  0  0
   11.0680    6.5720   22.8420 C   0  0  0  0  0  0  0  0  0  0  0  0
    9.9660    7.1350   23.4730 C   0  0  0  0  0  0  0  0  0  0  0  0
   11.0740   10.2930   25.5180 C   0  0  0  0  0  0  0  0  0  0  0  0
  1  2  1  0
  2  3  2  0
  3  4  1  0
  4  5  2  0
  5  6  1  0
  5  7  1  0
  7  8  1  0
  8  9  2  0
  8 10  1  0
 10 11  1  0
 11 12  1  0
 12 13  1  0
 13 14  1  0
 14 15  2  0
 14 16  2  0
 14 17  1  0
 17 18  2  0
 18 19  1  0
 19 20  1  0
 19 21  2  0
 21 22  1  0
 21 23  1  0
 23 24  1  0
 24 25  2  0
 25 26  1  0
 26 27  2  0
 17 28  1  0
 23 28  2  0
 27 28  1  0
 13 29  1  0
 10 30  1  0
 29 30  1  0
  2 31  1  0
  7 31  2  0
M  END
