NAU-LAT-42d4957e-4
     RDKit          3D

 21 23  0  0  0  0  0  0  0  0999 V2000
    5.8520   -1.4210   20.0360 C   0  0  0  0  0  0  0  0  0  0  0  0
    6.6670   -1.3940   21.3120 C   0  0  0  0  0  0  0  0  0  0  0  0
    6.2640   -2.3040   22.2630 N   0  0  0  0  0  0  0  0  0  0  0  0
    7.1210   -2.0820   23.2900 N   0  0  0  0  0  0  0  0  0  0  0  0
    8.0800   -1.0960   23.1190 C   0  0  0  0  0  0  0  0  0  0  0  0
    9.0430   -0.7310   24.0790 C   0  0  0  0  0  0  0  0  0  0  0  0
   10.3310   -0.4700   23.6410 N   0  0  0  0  0  0  0  0  0  0  0  0
   11.3250   -1.5570   23.7740 C   0  0  0  0  0  0  0  0  0  0  0  0
   12.1940   -1.4690   22.6870 C   0  0  0  0  0  0  0  0  0  0  0  0
   13.0950   -0.4060   22.8360 C   0  0  0  0  0  0  0  0  0  0  0  0
   12.3200    0.8680   23.0460 C   0  0  0  0  0  0  0  0  0  0  0  0
   12.9950    2.2120   22.8330 C   0  0  0  0  0  0  0  0  0  0  0  0
   12.0100    3.2150   23.0910 C   0  0  0  0  0  0  0  0  0  0  0  0
   10.6890    3.4510   23.4640 C   0  0  0  0  0  0  0  0  0  0  0  0
   10.0810    5.0440   23.6040 S   0  0  0  0  0  0  0  0  0  0  0  0
   11.1240    5.9380   22.6400 N   0  0  0  0  0  0  0  0  0  0  0  0
   10.2230    5.5410   24.9440 O   0  0  0  0  0  0  0  0  0  0  0  0
    8.8120    5.1010   22.9230 O   0  0  0  0  0  0  0  0  0  0  0  0
   10.1400    2.1640   23.6510 C   0  0  0  0  0  0  0  0  0  0  0  0
   10.9690    0.8370   23.4360 C   0  0  0  0  0  0  0  0  0  0  0  0
    7.9650   -0.3420   21.5700 S   0  0  0  0  0  0  0  0  0  0  0  0
  1  2  1  0
  2  3  2  0
  3  4  1  0
  4  5  2  0
  5  6  1  0
  6  7  1  0
  7  8  1  0
  8  9  1  0
  9 10  1  0
 10 11  1  0
 11 12  2  0
 12 13  1  0
 13 14  2  0
 14 15  1  0
 15 16  1  0
 15 17  2  0
 15 18  2  0
 14 19  1  0
  7 20  1  0
 11 20  1  0
 19 20  2  0
  2 21  1  0
  5 21  1  0
M  END
