NAU-LAT-81109c57-7
     RDKit          3D

 30 33  0  0  0  0  0  0  0  0999 V2000
    9.0340    6.6160   22.5200 C   0  0  0  0  0  0  0  0  0  0  0  0
   10.2330    6.2410   23.3510 C   0  0  0  0  0  0  0  0  0  0  0  0
   10.2090    6.2650   24.5850 O   0  0  0  0  0  0  0  0  0  0  0  0
   11.3200    5.8780   22.6130 N   0  0  0  0  0  0  0  0  0  0  0  0
   12.2490    5.0720   23.1770 C   0  0  0  0  0  0  0  0  0  0  0  0
   12.5930    3.7280   22.6090 C   0  0  0  0  0  0  0  0  0  0  0  0
   11.7200    2.6720   22.8470 C   0  0  0  0  0  0  0  0  0  0  0  0
   10.2780    2.8340   23.2190 C   0  0  0  0  0  0  0  0  0  0  0  0
    9.6430    1.5890   23.3820 N   0  0  0  0  0  0  0  0  0  0  0  0
   10.6060    0.6080   23.1320 C   0  0  0  0  0  0  0  0  0  0  0  0
   10.3240   -0.8710   23.1980 C   0  0  0  0  0  0  0  0  0  0  0  0
    9.0740   -1.4250   23.5180 C   0  0  0  0  0  0  0  0  0  0  0  0
    8.0170   -0.5000   23.1210 N   0  0  0  0  0  0  0  0  0  0  0  0
    6.7050   -0.7940   23.4580 C   0  0  0  0  0  0  0  0  0  0  0  0
    6.2540   -0.8970   24.8110 O   0  0  0  0  0  0  0  0  0  0  0  0
    5.8940   -0.9620   22.3310 C   0  0  0  0  0  0  0  0  0  0  0  0
    5.8320   -2.3650   21.7940 C   0  0  0  0  0  0  0  0  0  0  0  0
    5.3480   -2.6440   20.5260 C   0  0  0  0  0  0  0  0  0  0  0  0
    5.3820   -3.9710   20.2610 N   0  0  0  0  0  0  0  0  0  0  0  0
    5.8970   -4.6120   21.3510 C   0  0  0  0  0  0  0  0  0  0  0  0
    6.0730   -5.9470   21.4190 N   0  0  0  0  0  0  0  0  0  0  0  0
    6.6010   -6.3150   22.5950 C   0  0  0  0  0  0  0  0  0  0  0  0
    6.9360   -5.4540   23.6310 C   0  0  0  0  0  0  0  0  0  0  0  0
    6.7460   -4.0800   23.5430 C   0  0  0  0  0  0  0  0  0  0  0  0
    6.1990   -3.6010   22.3500 C   0  0  0  0  0  0  0  0  0  0  0  0
   11.4140   -1.6990   22.9120 C   0  0  0  0  0  0  0  0  0  0  0  0
   12.6680   -1.1870   22.5950 C   0  0  0  0  0  0  0  0  0  0  0  0
   13.6470   -2.0240   22.3300 F   0  0  0  0  0  0  0  0  0  0  0  0
   12.8850    0.3110   22.5600 C   0  0  0  0  0  0  0  0  0  0  0  0
   11.8600    1.2130   22.8170 C   0  0  0  0  0  0  0  0  0  0  0  0
  1  2  1  0
  2  3  2  0
  2  4  1  0
  4  5  1  0
  5  6  1  0
  6  7  1  0
  7  8  2  0
  8  9  1  0
  9 10  1  0
 10 11  1  0
 11 12  1  0
 12 13  1  0
 13 14  1  0
 14 15  2  0
 14 16  1  0
 16 17  1  0
 17 18  2  0
 18 19  1  0
 19 20  1  0
 20 21  1  0
 21 22  2  0
 22 23  1  0
 23 24  2  0
 17 25  1  0
 20 25  2  0
 24 25  1  0
 11 26  2  0
 26 27  1  0
 27 28  1  0
 27 29  2  0
  7 30  1  0
 10 30  2  0
 29 30  1  0
M  END
