NAU-LAT-81109c57-5
     RDKit          3D

 24 26  0  0  0  0  0  0  0  0999 V2000
    9.0010    6.6750   22.5250 C   0  0  0  0  0  0  0  0  0  0  0  0
   10.1770    6.2360   23.4100 C   0  0  0  0  0  0  0  0  0  0  0  0
   10.1950    6.3520   24.6300 O   0  0  0  0  0  0  0  0  0  0  0  0
   11.2440    5.6730   22.6330 N   0  0  0  0  0  0  0  0  0  0  0  0
   12.4500    5.1570   23.1850 C   0  0  0  0  0  0  0  0  0  0  0  0
   12.7060    3.8650   22.7250 C   0  0  0  0  0  0  0  0  0  0  0  0
   11.7760    2.8600   22.9400 C   0  0  0  0  0  0  0  0  0  0  0  0
   10.4540    3.0410   23.3100 C   0  0  0  0  0  0  0  0  0  0  0  0
    9.8550    1.7990   23.3890 N   0  0  0  0  0  0  0  0  0  0  0  0
   10.7730    0.8320   23.0780 C   0  0  0  0  0  0  0  0  0  0  0  0
   10.5090   -0.5080   23.0440 C   0  0  0  0  0  0  0  0  0  0  0  0
    9.1420   -0.5150   23.4310 O   0  0  0  0  0  0  0  0  0  0  0  0
    8.1780   -1.0040   22.4930 C   0  0  0  0  0  0  0  0  0  0  0  0
    7.6100   -2.0940   23.1490 C   0  0  0  0  0  0  0  0  0  0  0  0
    6.7020   -1.8910   24.1750 C   0  0  0  0  0  0  0  0  0  0  0  0
    6.0660   -3.0430   24.9250 C   0  0  0  0  0  0  0  0  0  0  0  0
    6.4570   -4.4730   24.5130 C   0  0  0  0  0  0  0  0  0  0  0  0
    7.4580   -4.6470   23.3770 C   0  0  0  0  0  0  0  0  0  0  0  0
    7.9880   -3.3790   22.7480 C   0  0  0  0  0  0  0  0  0  0  0  0
   11.2710   -1.7140   22.7350 C   0  0  0  0  0  0  0  0  0  0  0  0
   12.6030   -0.9880   22.4650 C   0  0  0  0  0  0  0  0  0  0  0  0
   13.5960   -1.7980   22.1450 F   0  0  0  0  0  0  0  0  0  0  0  0
   12.9260    0.3700   22.5020 C   0  0  0  0  0  0  0  0  0  0  0  0
   11.9430    1.4390   22.8170 C   0  0  0  0  0  0  0  0  0  0  0  0
  1  2  1  0
  2  3  2  0
  2  4  1  0
  4  5  1  0
  5  6  1  0
  6  7  1  0
  7  8  2  0
  8  9  1  0
  9 10  1  0
 10 11  1  0
 11 12  1  0
 12 13  1  0
 13 14  1  0
 14 15  2  0
 15 16  1  0
 16 17  2  0
 17 18  1  0
 14 19  1  0
 18 19  2  0
 11 20  2  0
 20 21  1  0
 21 22  1  0
 21 23  2  0
  7 24  1  0
 10 24  2  0
 23 24  1  0
M  END
