NAU-LAT-81109c57-3
     RDKit          3D

 26 28  0  0  0  0  0  0  0  0999 V2000
    8.9860    6.6160   22.5490 C   0  0  0  0  0  0  0  0  0  0  0  0
   10.2360    6.1930   23.3710 C   0  0  0  0  0  0  0  0  0  0  0  0
   10.2840    6.2820   24.5960 O   0  0  0  0  0  0  0  0  0  0  0  0
   11.2650    5.7120   22.5970 N   0  0  0  0  0  0  0  0  0  0  0  0
   12.3980    5.0170   23.2180 C   0  0  0  0  0  0  0  0  0  0  0  0
   12.5790    3.7180   22.7160 C   0  0  0  0  0  0  0  0  0  0  0  0
   11.7720    2.6640   23.1760 C   0  0  0  0  0  0  0  0  0  0  0  0
   10.5680    2.8610   23.8310 C   0  0  0  0  0  0  0  0  0  0  0  0
    9.8920    1.6460   24.1950 N   0  0  0  0  0  0  0  0  0  0  0  0
   10.7830    0.6260   23.7050 C   0  0  0  0  0  0  0  0  0  0  0  0
   10.4040   -0.7190   23.8870 C   0  0  0  0  0  0  0  0  0  0  0  0
    9.2360   -1.1280   24.5030 N   0  0  0  0  0  0  0  0  0  0  0  0
    8.2100   -2.3120   23.8000 S   0  0  0  0  0  0  0  0  0  0  0  0
    7.1870   -2.6120   24.7800 O   0  0  0  0  0  0  0  0  0  0  0  0
    9.0630   -3.3550   23.2740 O   0  0  0  0  0  0  0  0  0  0  0  0
    7.4420   -1.5130   22.4970 C   0  0  0  0  0  0  0  0  0  0  0  0
    7.9760   -1.4180   21.2110 C   0  0  0  0  0  0  0  0  0  0  0  0
    7.3730   -0.7790   20.1100 C   0  0  0  0  0  0  0  0  0  0  0  0
    6.1260   -0.1490   20.2220 C   0  0  0  0  0  0  0  0  0  0  0  0
    5.5310   -0.1990   21.4760 C   0  0  0  0  0  0  0  0  0  0  0  0
    6.0760   -0.8160   22.5940 C   0  0  0  0  0  0  0  0  0  0  0  0
   11.4390   -1.7170   23.3130 C   0  0  0  0  0  0  0  0  0  0  0  0
   12.5860   -1.1940   22.7180 C   0  0  0  0  0  0  0  0  0  0  0  0
   13.4760   -2.0490   22.2230 F   0  0  0  0  0  0  0  0  0  0  0  0
   12.8840    0.2510   22.5970 C   0  0  0  0  0  0  0  0  0  0  0  0
   11.9160    1.2050   23.1080 C   0  0  0  0  0  0  0  0  0  0  0  0
  1  2  1  0
  2  3  2  0
  2  4  1  0
  4  5  1  0
  5  6  1  0
  6  7  1  0
  7  8  2  0
  8  9  1  0
  9 10  1  0
 10 11  1  0
 11 12  1  0
 13 12  1  0
 13 14  2  0
 13 15  2  0
 13 16  1  0
 16 17  2  0
 17 18  1  0
 18 19  2  0
 19 20  1  0
 16 21  1  0
 20 21  2  0
 11 22  2  0
 22 23  1  0
 23 24  1  0
 23 25  2  0
  7 26  1  0
 10 26  2  0
 25 26  1  0
M  END
