NAU-LAT-c9bfe74c-2
     RDKit          3D

 32 36  0  0  0  0  0  0  0  0999 V2000
   10.1860    4.6330   24.8900 O   0  0  0  0  0  0  0  0  0  0  0  0
   10.0460    4.2210   23.7370 C   0  0  0  0  0  0  0  0  0  0  0  0
   10.6390    2.9390   23.3990 C   0  0  0  0  0  0  0  0  0  0  0  0
   11.9380    2.5370   23.1060 C   0  0  0  0  0  0  0  0  0  0  0  0
   11.9410    1.1290   22.8980 C   0  0  0  0  0  0  0  0  0  0  0  0
   12.9400    0.1940   22.5970 C   0  0  0  0  0  0  0  0  0  0  0  0
   12.5790   -1.1390   22.4510 C   0  0  0  0  0  0  0  0  0  0  0  0
   13.5090   -2.0320   22.1540 F   0  0  0  0  0  0  0  0  0  0  0  0
   11.2780   -1.5780   22.6010 C   0  0  0  0  0  0  0  0  0  0  0  0
   10.2650   -0.6690   22.9080 C   0  0  0  0  0  0  0  0  0  0  0  0
   10.6310    0.6760   23.0470 C   0  0  0  0  0  0  0  0  0  0  0  0
    9.8640    1.7860   23.3440 N   0  0  0  0  0  0  0  0  0  0  0  0
    9.3360    4.9930   22.8370 N   0  0  0  0  0  0  0  0  0  0  0  0
    9.7460    6.3970   22.8100 C   0  0  0  0  0  0  0  0  0  0  0  0
    8.5880    7.3500   22.5160 C   0  0  0  0  0  0  0  0  0  0  0  0
    7.3420    7.0780   23.3110 N   0  0  0  0  0  0  0  0  0  0  0  0
    6.0320    8.1290   22.9270 S   0  0  0  0  0  0  0  0  0  0  0  0
    5.7510    8.9200   24.1030 O   0  0  0  0  0  0  0  0  0  0  0  0
    6.4050    8.7530   21.6790 O   0  0  0  0  0  0  0  0  0  0  0  0
    4.6240    7.0690   22.6540 C   0  0  0  0  0  0  0  0  0  0  0  0
    4.6710    6.2570   21.5100 C   0  0  0  0  0  0  0  0  0  0  0  0
    3.6180    5.4050   21.2260 C   0  0  0  0  0  0  0  0  0  0  0  0
    2.5210    5.3690   22.0850 C   0  0  0  0  0  0  0  0  0  0  0  0
    1.4850    4.5150   21.7800 O   0  0  0  0  0  0  0  0  0  0  0  0
    2.4310    6.1650   23.2380 C   0  0  0  0  0  0  0  0  0  0  0  0
    1.3330    6.0740   24.0220 N   0  0  0  0  0  0  0  0  0  0  0  0
    1.2420    6.8360   25.1290 C   0  0  0  0  0  0  0  0  0  0  0  0
    2.2200    7.7210   25.5150 C   0  0  0  0  0  0  0  0  0  0  0  0
    3.3520    7.8220   24.7170 C   0  0  0  0  0  0  0  0  0  0  0  0
    3.5050    7.0430   23.5400 C   0  0  0  0  0  0  0  0  0  0  0  0
    6.9800    5.6180   23.3680 C   0  0  0  0  0  0  0  0  0  0  0  0
    7.9240    4.7660   22.5070 C   0  0  0  0  0  0  0  0  0  0  0  0
  1  2  2  0
  2  3  1  0
  3  4  2  0
  4  5  1  0
  5  6  2  0
  6  7  1  0
  7  8  1  0
  7  9  2  0
  9 10  1  0
  5 11  1  0
 10 11  2  0
  3 12  1  0
 11 12  1  0
  2 13  1  0
 13 14  1  0
 14 15  1  0
 15 16  1  0
 16 17  1  0
 17 18  2  0
 17 19  2  0
 17 20  1  0
 20 21  2  0
 21 22  1  0
 22 23  2  0
 23 24  1  0
 23 25  1  0
 25 26  1  0
 26 27  2  0
 27 28  1  0
 28 29  2  0
 20 30  1  0
 25 30  2  0
 29 30  1  0
 16 31  1  0
 13 32  1  0
 31 32  1  0
M  END
