NAU-LAT-ec9c7557-2
     RDKit          3D

 21 23  0  0  0  0  0  0  0  0999 V2000
    4.1030    0.1980   18.2420 O   0  0  0  0  0  0  0  0  0  0  0  0
    5.0230    0.4730   19.0050 C   0  0  0  0  0  0  0  0  0  0  0  0
    6.4260    0.3010   18.7770 N   0  0  0  0  0  0  0  0  0  0  0  0
    6.6610    0.2270   20.1480 C   0  0  0  0  0  0  0  0  0  0  0  0
    5.8840    0.6010   21.4240 C   0  0  0  0  0  0  0  0  0  0  0  0
    4.8180    1.0960   22.3270 C   0  0  0  0  0  0  0  0  0  0  0  0
    4.4540    1.2150   21.2370 C   0  0  0  0  0  0  0  0  0  0  0  0
    4.8270    0.9900   19.8250 C   0  0  0  0  0  0  0  0  0  0  0  0
    4.7190    2.2220   18.9130 C   0  0  0  0  0  0  0  0  0  0  0  0
    5.1170    1.9250   17.5230 C   0  0  0  0  0  0  0  0  0  0  0  0
    5.5280    0.6830   17.1860 N   0  0  0  0  0  0  0  0  0  0  0  0
    5.6090   -0.4180   18.0370 C   0  0  0  0  0  0  0  0  0  0  0  0
    5.2580   -0.2890   19.3680 C   0  0  0  0  0  0  0  0  0  0  0  0
    5.8750    0.6120   21.8770 C   0  0  0  0  0  0  0  0  0  0  0  0
    7.2510   -0.0110   21.2690 C   0  0  0  0  0  0  0  0  0  0  0  0
    8.4460   -0.5310   21.7880 C   0  0  0  0  0  0  0  0  0  0  0  0
    9.5610    0.2860   21.7550 F   0  0  0  0  0  0  0  0  0  0  0  0
    8.3030   -0.8430   23.1040 F   0  0  0  0  0  0  0  0  0  0  0  0
    8.8150   -1.6930   21.2130 F   0  0  0  0  0  0  0  0  0  0  0  0
    4.8910    1.0330   20.3360 C   0  0  0  0  0  0  0  0  0  0  0  0
    3.9820    1.8430   20.6270 O   0  0  0  0  0  0  0  0  0  0  0  0
  1  2  2  0
  2  3  1  0
  3  4  1  0
  4  5  2  0
  5  6  1  0
  6  7  2  0
  7  8  1  0
  8  9  2  0
  9 10  1  0
 10 11  2  0
 11 12  1  0
  8 13  1  0
 12 13  2  0
  7 14  1  0
  4 15  1  0
 14 15  2  0
 15 16  1  0
 16 17  1  0
 16 18  1  0
 16 19  1  0
  2 20  1  0
  5 20  1  0
 20 21  2  0
M  END
