NAU-LAT-ec9c7557-6
     RDKit          3D

 31 35  0  0  0  0  0  0  0  0999 V2000
   -0.7480    8.1760   15.4010 O   0  0  0  0  0  0  0  0  0  0  0  0
   -1.2310    7.0650   15.5060 C   0  0  0  0  0  0  0  0  0  0  0  0
   -1.9500    6.4840   14.5250 O   0  0  0  0  0  0  0  0  0  0  0  0
   -1.0900    6.2910   16.6530 C   0  0  0  0  0  0  0  0  0  0  0  0
   -2.1770    5.6210   17.2390 C   0  0  0  0  0  0  0  0  0  0  0  0
   -1.9930    4.8100   18.4530 C   0  0  0  0  0  0  0  0  0  0  0  0
   -0.6350    4.7030   19.0620 C   0  0  0  0  0  0  0  0  0  0  0  0
   -0.5530    3.9120   20.2130 C   0  0  0  0  0  0  0  0  0  0  0  0
    0.6520    3.0590   20.1780 N   0  0  0  0  0  0  0  0  0  0  0  0
    1.8400    3.4370   19.4590 C   0  0  0  0  0  0  0  0  0  0  0  0
    2.7210    2.4060   19.6820 C   0  0  0  0  0  0  0  0  0  0  0  0
    4.0170    2.4610   19.1170 C   0  0  0  0  0  0  0  0  0  0  0  0
    5.0200    1.4970   19.3720 N   0  0  0  0  0  0  0  0  0  0  0  0
    5.3820    0.8540   18.2260 N   0  0  0  0  0  0  0  0  0  0  0  0
    5.6080    0.9440   19.5140 C   0  0  0  0  0  0  0  0  0  0  0  0
    4.9190    1.8860   20.3570 C   0  0  0  0  0  0  0  0  0  0  0  0
    4.7000    3.2470   20.0080 C   0  0  0  0  0  0  0  0  0  0  0  0
    4.0410    4.1320   20.8820 C   0  0  0  0  0  0  0  0  0  0  0  0
    3.5850    3.6800   22.1220 C   0  0  0  0  0  0  0  0  0  0  0  0
    3.7840    2.3490   22.4950 C   0  0  0  0  0  0  0  0  0  0  0  0
    4.4440    1.4570   21.6300 C   0  0  0  0  0  0  0  0  0  0  0  0
    6.3720    0.2900   20.0180 C   0  0  0  0  0  0  0  0  0  0  0  0
    7.1420   -0.5780   19.6490 C   0  0  0  0  0  0  0  0  0  0  0  0
    6.1770    0.1700   18.7490 C   0  0  0  0  0  0  0  0  0  0  0  0
    5.1120    1.3330   19.1360 C   0  0  0  0  0  0  0  0  0  0  0  0
    4.9200    1.8820   20.5690 C   0  0  0  0  0  0  0  0  0  0  0  0
    5.7690    1.0910   20.8150 C   0  0  0  0  0  0  0  0  0  0  0  0
    2.0990    1.4700   20.4760 N   0  0  0  0  0  0  0  0  0  0  0  0
    0.8380    1.8690   20.7770 N   0  0  0  0  0  0  0  0  0  0  0  0
    0.4110    5.4060   18.4240 C   0  0  0  0  0  0  0  0  0  0  0  0
    0.1880    6.1730   17.2570 C   0  0  0  0  0  0  0  0  0  0  0  0
  1  2  2  0
  2  3  1  0
  2  4  1  0
  4  5  2  0
  5  6  1  0
  6  7  2  0
  7  8  1  0
  8  9  1  0
  9 10  1  0
 10 11  2  0
 11 12  1  0
 12 13  1  0
 13 14  1  0
 14 15  2  0
 15 16  1  0
 16 17  2  0
 17 18  1  0
 18 19  2  0
 19 20  1  0
 16 21  1  0
 20 21  2  0
 15 22  1  0
 22 23  1  0
 23 24  2  0
 24 25  1  0
 25 26  2  0
 13 27  1  0
 22 27  2  0
 26 27  1  0
 11 28  1  0
  9 29  1  0
 28 29  2  0
  7 30  1  0
  4 31  1  0
 30 31  2  0
M  END
