NAU-LAT-ec9c7557-3
     RDKit          3D

 26 29  0  0  0  0  0  0  0  0999 V2000
   13.3410   -1.5860   23.6210 C   0  0  0  0  0  0  0  0  0  0  0  0
   11.9970   -1.1000   23.7610 N   0  0  0  0  0  0  0  0  0  0  0  0
   11.0090   -1.9590   23.1150 C   0  0  0  0  0  0  0  0  0  0  0  0
    9.6250   -1.4030   23.0990 C   0  0  0  0  0  0  0  0  0  0  0  0
    9.6300   -0.0010   22.6610 N   0  0  0  0  0  0  0  0  0  0  0  0
    8.8250    0.3720   21.5870 C   0  0  0  0  0  0  0  0  0  0  0  0
    8.8390    1.5360   21.1410 O   0  0  0  0  0  0  0  0  0  0  0  0
    8.0070   -0.6270   21.0330 C   0  0  0  0  0  0  0  0  0  0  0  0
    7.3220   -0.1800   19.8500 O   0  0  0  0  0  0  0  0  0  0  0  0
    6.1230    0.5350   19.9750 C   0  0  0  0  0  0  0  0  0  0  0  0
    5.2840    0.6750   21.2850 C   0  0  0  0  0  0  0  0  0  0  0  0
    4.0110    1.5060   21.2270 C   0  0  0  0  0  0  0  0  0  0  0  0
    3.6870    2.0720   20.0280 C   0  0  0  0  0  0  0  0  0  0  0  0
    4.5760    1.8080   19.0450 C   0  0  0  0  0  0  0  0  0  0  0  0
    5.5620    1.2600   18.7720 C   0  0  0  0  0  0  0  0  0  0  0  0
    6.3770    1.0510   17.7910 C   0  0  0  0  0  0  0  0  0  0  0  0
    6.8280    0.4270   18.7840 N   0  0  0  0  0  0  0  0  0  0  0  0
    5.6660    0.8800   19.6860 N   0  0  0  0  0  0  0  0  0  0  0  0
    5.7360    0.3540   21.0240 C   0  0  0  0  0  0  0  0  0  0  0  0
    6.1770    1.0950   22.1560 C   0  0  0  0  0  0  0  0  0  0  0  0
    6.2150    0.4340   23.5320 C   0  0  0  0  0  0  0  0  0  0  0  0
    5.7930   -0.9040   23.5410 C   0  0  0  0  0  0  0  0  0  0  0  0
    5.3630   -1.6270   22.4270 C   0  0  0  0  0  0  0  0  0  0  0  0
    5.3360   -1.0030   21.1810 C   0  0  0  0  0  0  0  0  0  0  0  0
   10.6090    0.8650   23.3290 C   0  0  0  0  0  0  0  0  0  0  0  0
   11.9000    0.3200   23.3480 C   0  0  0  0  0  0  0  0  0  0  0  0
  1  2  1  0
  2  3  1  0
  3  4  1  0
  4  5  1  0
  5  6  1  0
  6  7  2  0
  6  8  1  0
  8  9  1  0
  9 10  1  0
 10 11  2  0
 11 12  1  0
 12 13  2  0
 13 14  1  0
 10 15  1  0
 14 15  2  0
 15 16  1  0
 16 17  2  0
 14 18  1  0
 17 18  1  0
 18 19  1  0
 19 20  2  0
 20 21  1  0
 21 22  2  0
 22 23  1  0
 19 24  1  0
 23 24  2  0
  5 25  1  0
  2 26  1  0
 25 26  1  0
M  END
