NEA-WAB-7f018ee1-1
     RDKit          3D

 32 35  0  0  0  0  0  0  0  0999 V2000
    5.7540   -3.8810   20.5960 C   0  0  0  0  0  0  0  0  0  0  0  0
    6.5240   -4.8780   21.4660 C   0  0  0  0  0  0  0  0  0  0  0  0
    7.2550   -5.7620   21.0340 O   0  0  0  0  0  0  0  0  0  0  0  0
    6.3220   -4.7000   22.8680 N   0  0  0  0  0  0  0  0  0  0  0  0
    6.2680   -5.8820   23.6900 C   0  0  0  0  0  0  0  0  0  0  0  0
    5.1680   -6.8130   23.2300 C   0  0  0  0  0  0  0  0  0  0  0  0
    3.8600   -6.7220   24.0640 C   0  0  1  0  0  0  0  0  0  0  0  0
    2.6540   -7.2720   23.3430 C   0  0  0  0  0  0  0  0  0  0  0  0
    2.1490   -8.2830   24.3770 C   0  0  0  0  0  0  0  0  0  0  0  0
    3.0740   -8.6370   25.1140 O   0  0  0  0  0  0  0  0  0  0  0  0
    3.9740   -7.4790   25.3060 N   0  0  0  0  0  0  0  0  0  0  0  0
    5.6340   -3.6500   23.3260 C   0  0  2  0  0  0  0  0  0  0  0  0
    6.1750   -3.1270   24.4800 C   0  0  0  0  0  0  0  0  0  0  0  0
    5.3430   -1.9300   24.9490 C   0  0  2  0  0  0  0  0  0  0  0  0
    5.7160   -1.5310   26.2160 C   0  0  0  0  0  0  0  0  0  0  0  0
    6.2240   -2.5210   27.2210 C   0  0  0  0  0  0  0  0  0  0  0  0
    6.5840   -2.1040   28.4790 C   0  0  0  0  0  0  0  0  0  0  0  0
    6.4890   -0.7730   28.8590 C   0  0  0  0  0  0  0  0  0  0  0  0
    6.0220    0.1940   27.9570 C   0  0  0  0  0  0  0  0  0  0  0  0
    5.6410   -0.1830   26.6520 C   0  0  0  0  0  0  0  0  0  0  0  0
    5.9300    1.4900   28.3260 N   0  0  0  0  0  0  0  0  0  0  0  0
    6.0890    2.5230   27.2760 C   0  0  0  0  0  0  0  0  0  0  0  0
    6.5130    1.8900   29.6240 C   0  0  0  0  0  0  0  0  0  0  0  0
    6.1330    0.9150   30.5940 C   0  0  0  0  0  0  0  0  0  0  0  0
    6.8880   -0.3710   30.2500 C   0  0  0  0  0  0  0  0  0  0  0  0
    3.8750   -2.3380   24.9840 C   0  0  0  0  0  0  0  0  0  0  0  0
    3.7110   -3.8210   24.7920 C   0  0  1  0  0  0  0  0  0  0  0  0
    2.0270   -4.2340   25.2250 S   0  0  0  0  0  0  0  0  0  0  0  0
    0.9000   -2.9940   25.4870 N   0  0  0  0  0  0  0  0  0  0  0  0
    2.1650   -4.8640   26.5240 O   0  0  0  0  0  0  0  0  0  0  0  0
    1.5210   -5.0210   24.1290 O   0  0  0  0  0  0  0  0  0  0  0  0
    4.1380   -4.0370   23.4960 C   0  0  0  0  0  0  0  0  0  0  0  0
  1  2  1  0
  2  3  2  0
  2  4  1  0
  4  5  1  0
  5  6  1  0
  7  6  1  6
  7  8  1  0
  8  9  1  0
  9 10  1  0
  7 11  1  0
 10 11  1  0
 12  4  1  1
 12 13  1  0
 13 14  1  0
 14 15  1  1
 15 16  2  0
 16 17  1  0
 17 18  2  0
 18 19  1  0
 15 20  1  0
 19 20  2  0
 19 21  1  0
 21 22  1  0
 21 23  1  0
 23 24  1  0
 18 25  1  0
 24 25  1  0
 14 26  1  0
 26 27  1  0
 27 28  1  6
 28 29  1  0
 28 30  1  0
 28 31  1  0
 12 32  1  0
 27 32  1  0
M  END
