NEL-UNI-1464a899-4
     RDKit          3D

 16 16  0  0  0  0  0  0  0  0999 V2000
    4.8700    2.3090   25.9610 O   0  0  0  0  0  0  0  0  0  0  0  0
    5.0360    1.3850   25.1710 C   0  0  0  0  0  0  0  0  0  0  0  0
    3.9730    0.3340   25.0290 C   0  0  0  0  0  0  0  0  0  0  0  0
    3.6600   -0.3180   26.2360 C   0  0  0  0  0  0  0  0  0  0  0  0
    3.0850   -1.4080   26.1950 O   0  0  0  0  0  0  0  0  0  0  0  0
    2.8120    0.5810   26.9070 O   0  0  0  0  0  0  0  0  0  0  0  0
    6.2020    1.2530   24.3700 N   0  0  0  0  0  0  0  0  0  0  0  0
    7.5310    1.1630   23.8190 C   0  0  0  0  0  0  0  0  0  0  0  0
    8.4100    0.4160   24.7660 C   0  0  0  0  0  0  0  0  0  0  0  0
    9.7330    0.7210   25.0100 C   0  0  0  0  0  0  0  0  0  0  0  0
   10.7040    0.2000   24.1530 C   0  0  0  0  0  0  0  0  0  0  0  0
   11.8800    1.0790   23.7490 C   0  0  0  0  0  0  0  0  0  0  0  0
   12.8250    0.3760   22.8400 C   0  0  0  0  0  0  0  0  0  0  0  0
   12.6220   -0.9290   22.4320 C   0  0  0  0  0  0  0  0  0  0  0  0
   11.5240   -1.6880   22.8300 C   0  0  0  0  0  0  0  0  0  0  0  0
   10.5650   -1.1270   23.6970 C   0  0  0  0  0  0  0  0  0  0  0  0
  1  2  2  0
  2  3  1  0
  3  4  1  0
  4  5  1  0
  4  6  1  0
  2  7  1  0
  7  8  1  0
  8  9  1  0
  9 10  1  0
 10 11  1  0
 11 12  2  0
 12 13  1  0
 13 14  2  0
 14 15  1  0
 11 16  1  0
 15 16  2  0
M  END
