NEL-UNI-1464a899-6
     RDKit          3D

 18 18  0  0  0  0  0  0  0  0999 V2000
    3.9980    0.3980   24.7960 C   0  0  0  0  0  0  0  0  0  0  0  0
    3.5040    1.6380   24.0880 C   0  0  0  0  0  0  0  0  0  0  0  0
    2.6240    2.3460   24.5900 O   0  0  0  0  0  0  0  0  0  0  0  0
    4.1030    2.0020   22.7500 C   0  0  0  0  0  0  0  0  0  0  0  0
    5.5280    1.5580   22.6130 C   0  0  0  0  0  0  0  0  0  0  0  0
    6.1010    1.5230   21.5260 O   0  0  0  0  0  0  0  0  0  0  0  0
    6.1240    1.2070   23.7960 N   0  0  0  0  0  0  0  0  0  0  0  0
    7.5030    1.5190   24.0550 C   0  0  0  0  0  0  0  0  0  0  0  0
    8.1240    0.4630   24.9450 C   0  0  0  0  0  0  0  0  0  0  0  0
    9.5740    0.7820   25.2280 C   0  0  0  0  0  0  0  0  0  0  0  0
   10.5380    0.1780   24.2690 C   0  0  0  0  0  0  0  0  0  0  0  0
   11.6770    0.8730   23.8260 C   0  0  0  0  0  0  0  0  0  0  0  0
   12.5540    0.2670   22.9340 C   0  0  0  0  0  0  0  0  0  0  0  0
   12.2810   -1.0300   22.4890 C   0  0  0  0  0  0  0  0  0  0  0  0
   13.1610   -1.7440   21.5460 C   0  0  0  0  0  0  0  0  0  0  0  0
   12.3970   -2.4260   20.5780 O   0  0  0  0  0  0  0  0  0  0  0  0
   11.1560   -1.7050   22.9270 C   0  0  0  0  0  0  0  0  0  0  0  0
   10.2890   -1.1090   23.8130 C   0  0  0  0  0  0  0  0  0  0  0  0
  1  2  1  0
  2  3  2  0
  2  4  1  0
  4  5  1  0
  5  6  2  0
  5  7  1  0
  7  8  1  0
  8  9  1  0
  9 10  1  0
 10 11  1  0
 11 12  2  0
 12 13  1  0
 13 14  2  0
 14 15  1  0
 15 16  1  0
 14 17  1  0
 11 18  1  0
 17 18  2  0
M  END
