NEL-UNI-1464a899-5
     RDKit          3D

 18 18  0  0  0  0  0  0  0  0999 V2000
    3.3540    2.7880   24.3750 O   0  0  0  0  0  0  0  0  0  0  0  0
    3.7770    1.7360   23.9130 C   0  0  0  0  0  0  0  0  0  0  0  0
    3.6640    0.5740   24.5770 O   0  0  0  0  0  0  0  0  0  0  0  0
    4.4790    1.5820   22.5350 C   0  0  0  0  0  0  0  0  0  0  0  0
    5.8020    1.9570   22.6150 C   0  0  0  0  0  0  0  0  0  0  0  0
    6.4120    2.5210   21.7100 O   0  0  0  0  0  0  0  0  0  0  0  0
    6.3390    1.5820   23.9050 N   0  0  0  0  0  0  0  0  0  0  0  0
    7.6950    1.5880   24.2110 C   0  0  0  0  0  0  0  0  0  0  0  0
    8.1840    0.4500   24.7940 C   0  0  0  0  0  0  0  0  0  0  0  0
    9.5800    0.6420   25.3310 C   0  0  0  0  0  0  0  0  0  0  0  0
   10.5080    0.0490   24.3090 C   0  0  0  0  0  0  0  0  0  0  0  0
   11.6750    0.7260   23.8510 C   0  0  0  0  0  0  0  0  0  0  0  0
   12.5330    0.1540   22.8980 C   0  0  0  0  0  0  0  0  0  0  0  0
   12.3230   -1.0920   22.3290 C   0  0  0  0  0  0  0  0  0  0  0  0
   13.0460   -1.7900   21.3970 C   0  0  0  0  0  0  0  0  0  0  0  0
   13.4560   -2.9580   22.0750 O   0  0  0  0  0  0  0  0  0  0  0  0
   11.0980   -1.8070   22.8050 C   0  0  0  0  0  0  0  0  0  0  0  0
   10.1870   -1.2080   23.8180 C   0  0  0  0  0  0  0  0  0  0  0  0
  1  2  2  0
  2  3  1  0
  2  4  1  0
  4  5  1  0
  5  6  2  0
  5  7  1  0
  7  8  1  0
  8  9  1  0
  9 10  1  0
 10 11  1  0
 11 12  2  0
 12 13  1  0
 13 14  2  0
 14 15  1  0
 15 16  1  0
 14 17  1  0
 11 18  1  0
 17 18  2  0
M  END
