NIC-BIO-29f4a211-2
     RDKit          3D

 21 23  0  0  0  0  0  0  0  0999 V2000
    7.8570   -1.4700   24.3230 C   0  0  0  0  0  0  0  0  0  0  0  0
    9.2370   -1.9980   24.0510 C   0  0  0  0  0  0  0  0  0  0  0  0
    9.8610   -1.6500   22.7440 C   0  0  2  0  0  0  0  0  0  0  0  0
   11.3190   -1.9420   22.7730 C   0  0  0  0  0  0  0  0  0  0  0  0
   12.0030   -1.1450   23.6410 N   0  0  0  0  0  0  0  0  0  0  0  0
   13.2400   -1.5850   24.1980 C   0  0  0  0  0  0  0  0  0  0  0  0
   11.9470    0.2040   23.1330 C   0  0  0  0  0  0  0  0  0  0  0  0
   10.5220    0.7050   22.8880 C   0  0  0  0  0  0  0  0  0  0  0  0
    9.6410   -0.2380   22.4320 N   0  0  0  0  0  0  0  0  0  0  0  0
    8.8250    0.2390   21.5490 C   0  0  0  0  0  0  0  0  0  0  0  0
    8.8630    1.4310   21.1880 O   0  0  0  0  0  0  0  0  0  0  0  0
    7.9210   -0.6980   21.0460 C   0  0  0  0  0  0  0  0  0  0  0  0
    7.0870   -0.2290   20.0610 C   0  0  0  0  0  0  0  0  0  0  0  0
    7.2970   -0.4780   18.7040 C   0  0  0  0  0  0  0  0  0  0  0  0
    6.3350    0.1200   17.9540 N   0  0  0  0  0  0  0  0  0  0  0  0
    5.5190    0.7320   18.8570 C   0  0  0  0  0  0  0  0  0  0  0  0
    4.4710    1.4100   18.4300 N   0  0  0  0  0  0  0  0  0  0  0  0
    3.6470    2.0220   19.3690 C   0  0  0  0  0  0  0  0  0  0  0  0
    3.9600    1.9000   20.7190 C   0  0  0  0  0  0  0  0  0  0  0  0
    5.1640    1.1320   21.2490 C   0  0  0  0  0  0  0  0  0  0  0  0
    5.9040    0.5660   20.1890 C   0  0  0  0  0  0  0  0  0  0  0  0
  1  2  1  0
  3  2  1  1
  3  4  1  0
  4  5  1  0
  5  6  1  0
  5  7  1  0
  7  8  1  0
  3  9  1  0
  8  9  1  0
  9 10  1  0
 10 11  2  0
 10 12  1  0
 12 13  1  0
 13 14  2  0
 14 15  1  0
 15 16  1  0
 16 17  1  0
 17 18  2  0
 18 19  1  0
 19 20  2  0
 13 21  1  0
 16 21  2  0
 20 21  1  0
M  END
