NIC-BIO-f814dd3d-1
     RDKit          3D

 26 29  0  0  0  0  0  0  0  0999 V2000
   13.1850   -1.4400   24.0120 C   0  0  0  0  0  0  0  0  0  0  0  0
   11.8850   -0.9340   23.8100 N   0  0  0  0  0  0  0  0  0  0  0  0
   11.2150   -1.8370   22.9080 C   0  0  0  0  0  0  0  0  0  0  0  0
    9.8700   -1.4580   22.8910 C   0  0  0  0  0  0  0  0  0  0  0  0
    9.5390   -0.0520   22.7280 N   0  0  0  0  0  0  0  0  0  0  0  0
    8.6670    0.2280   21.6280 C   0  0  0  0  0  0  0  0  0  0  0  0
    8.6450    1.4950   21.0960 O   0  0  0  0  0  0  0  0  0  0  0  0
    7.8300   -0.8590   21.0750 C   0  0  0  0  0  0  0  0  0  0  0  0
    7.0470   -0.3990   20.0420 C   0  0  0  0  0  0  0  0  0  0  0  0
    7.2620   -0.6390   18.7040 C   0  0  0  0  0  0  0  0  0  0  0  0
    6.3320   -0.0110   17.9750 N   0  0  0  0  0  0  0  0  0  0  0  0
    5.4570    0.6630   18.7940 C   0  0  0  0  0  0  0  0  0  0  0  0
    4.4060    1.3990   18.3940 N   0  0  0  0  0  0  0  0  0  0  0  0
    3.6720    1.9750   19.4040 C   0  0  0  0  0  0  0  0  0  0  0  0
    4.0540    1.7700   20.7310 C   0  0  0  0  0  0  0  0  0  0  0  0
    5.1430    1.0130   21.1140 C   0  0  0  0  0  0  0  0  0  0  0  0
    5.8900    0.4250   20.1120 C   0  0  0  0  0  0  0  0  0  0  0  0
   10.4900    0.9210   22.8490 C   0  0  1  0  0  0  0  0  0  0  0  0
   10.0670    2.2010   23.2930 C   0  0  0  0  0  0  0  0  0  0  0  0
   10.9490    3.2620   23.2230 C   0  0  0  0  0  0  0  0  0  0  0  0
   10.6300    4.5200   23.7570 C   0  0  0  0  0  0  0  0  0  0  0  0
   11.4860    5.6120   23.6920 C   0  0  0  0  0  0  0  0  0  0  0  0
   12.7160    5.4820   23.0780 C   0  0  0  0  0  0  0  0  0  0  0  0
   13.0460    4.2480   22.5520 C   0  0  0  0  0  0  0  0  0  0  0  0
   12.2060    3.1440   22.6090 C   0  0  0  0  0  0  0  0  0  0  0  0
   11.9310    0.4120   23.2040 C   0  0  0  0  0  0  0  0  0  0  0  0
  1  2  1  0
  2  3  1  0
  3  4  1  0
  4  5  1  0
  5  6  1  0
  6  7  2  0
  6  8  1  0
  8  9  1  0
  9 10  2  0
 10 11  1  0
 11 12  1  0
 12 13  1  0
 13 14  2  0
 14 15  1  0
 15 16  2  0
  9 17  1  0
 12 17  2  0
 16 17  1  0
  5 18  1  0
 18 19  1  1
 19 20  1  0
 20 21  2  0
 21 22  1  0
 22 23  2  0
 23 24  1  0
 20 25  1  0
 24 25  2  0
  2 26  1  0
 18 26  1  0
M  END
