NIC-BIO-3276ca7f-4
     RDKit          3D

 25 27  0  0  0  0  0  0  0  0999 V2000
    7.3130    5.2250   22.2430 C   0  0  0  0  0  0  0  0  0  0  0  0
    7.0120    3.9090   23.0070 C   0  0  0  0  0  0  0  0  0  0  0  0
    6.0080    3.7530   23.6960 O   0  0  0  0  0  0  0  0  0  0  0  0
    7.9710    2.9500   22.8470 N   0  0  0  0  0  0  0  0  0  0  0  0
    7.7740    1.5850   23.3040 C   0  0  1  0  0  0  0  0  0  0  0  0
    6.4990    1.0860   23.0190 C   0  0  0  0  0  0  0  0  0  0  0  0
    6.3510    0.4490   21.8150 C   0  0  0  0  0  0  0  0  0  0  0  0
    6.6370   -0.7880   21.6660 C   0  0  0  0  0  0  0  0  0  0  0  0
    6.3890   -1.0550   20.3970 N   0  0  0  0  0  0  0  0  0  0  0  0
    5.9010    0.0920   19.6310 C   0  0  0  0  0  0  0  0  0  0  0  0
    5.9820   -0.9460   18.8530 N   0  0  0  0  0  0  0  0  0  0  0  0
    5.5720   -0.2660   17.8810 C   0  0  0  0  0  0  0  0  0  0  0  0
    5.2350    1.1660   18.0640 C   0  0  0  0  0  0  0  0  0  0  0  0
    5.3820    1.7690   19.3320 C   0  0  0  0  0  0  0  0  0  0  0  0
    5.8340    1.2530   20.5970 C   0  0  0  0  0  0  0  0  0  0  0  0
    8.8470    0.7860   22.5430 C   0  0  0  0  0  0  0  0  0  0  0  0
    9.6090    1.3560   21.7760 O   0  0  0  0  0  0  0  0  0  0  0  0
    8.9070   -0.6480   22.7920 N   0  0  0  0  0  0  0  0  0  0  0  0
    9.9000   -1.4360   22.1050 C   0  0  0  0  0  0  0  0  0  0  0  0
   11.0070   -1.6560   22.9140 C   0  0  0  0  0  0  0  0  0  0  0  0
   11.0040   -2.7810   23.8000 C   0  0  0  0  0  0  0  0  0  0  0  0
   12.1210   -3.0320   24.6360 C   0  0  0  0  0  0  0  0  0  0  0  0
   13.2700   -2.1340   24.5860 C   0  0  0  0  0  0  0  0  0  0  0  0
   12.9370   -1.1580   23.6280 C   0  0  0  0  0  0  0  0  0  0  0  0
   12.1320   -0.7960   22.8820 C   0  0  0  0  0  0  0  0  0  0  0  0
  1  2  1  0
  2  3  2  0
  2  4  1  0
  4  5  1  0
  5  6  1  6
  6  7  1  0
  7  8  2  0
  8  9  1  0
  9 10  1  0
 10 11  1  0
 11 12  2  0
 12 13  1  0
 13 14  2  0
  7 15  1  0
 10 15  2  0
 14 15  1  0
  5 16  1  0
 16 17  2  0
 16 18  1  0
 18 19  1  0
 19 20  1  0
 20 21  2  0
 21 22  1  0
 22 23  2  0
 23 24  1  0
 20 25  1  0
 24 25  2  0
M  END
