NIC-BIO-a68395b7-4
     RDKit          3D

 24 25  0  0  0  0  0  0  0  0999 V2000
    7.2270    4.9960   22.2750 C   0  0  0  0  0  0  0  0  0  0  0  0
    6.9860    3.7850   22.9160 C   0  0  0  0  0  0  0  0  0  0  0  0
    6.0460    3.6070   23.6850 O   0  0  0  0  0  0  0  0  0  0  0  0
    7.9830    2.7600   22.5760 N   0  0  0  0  0  0  0  0  0  0  0  0
    7.6790    1.4140   23.0730 C   0  0  1  0  0  0  0  0  0  0  0  0
    6.3520    0.8830   22.6550 C   0  0  0  0  0  0  0  0  0  0  0  0
    6.2130    0.7370   21.1730 C   0  0  0  0  0  0  0  0  0  0  0  0
    5.3310    1.6280   20.5730 C   0  0  0  0  0  0  0  0  0  0  0  0
    5.1350    1.6000   19.1950 C   0  0  0  0  0  0  0  0  0  0  0  0
    5.8030    0.6900   18.3800 C   0  0  0  0  0  0  0  0  0  0  0  0
    5.6290    0.6640   17.0700 O   0  0  0  0  0  0  0  0  0  0  0  0
    6.6880   -0.2240   18.9370 C   0  0  0  0  0  0  0  0  0  0  0  0
    6.9140   -0.2040   20.4420 C   0  0  0  0  0  0  0  0  0  0  0  0
    8.7950    0.4520   22.6580 C   0  0  0  0  0  0  0  0  0  0  0  0
    9.7740    0.8300   21.7830 O   0  0  0  0  0  0  0  0  0  0  0  0
    8.7410   -0.7790   23.2390 N   0  0  0  0  0  0  0  0  0  0  0  0
    9.4060   -1.8830   22.5830 C   0  0  0  0  0  0  0  0  0  0  0  0
   10.6980   -1.7930   23.0240 C   0  0  0  0  0  0  0  0  0  0  0  0
   11.5880   -0.9190   22.6350 C   0  0  0  0  0  0  0  0  0  0  0  0
   12.4130   -1.4540   23.4500 C   0  0  0  0  0  0  0  0  0  0  0  0
   13.5760   -1.2710   23.7900 C   0  0  0  0  0  0  0  0  0  0  0  0
   12.8400   -2.3090   24.3910 C   0  0  0  0  0  0  0  0  0  0  0  0
   13.6770   -3.1960   25.5530 Cl  0  0  0  0  0  0  0  0  0  0  0  0
   11.3970   -2.5960   24.0230 C   0  0  0  0  0  0  0  0  0  0  0  0
  1  2  1  0
  2  3  2  0
  2  4  1  0
  4  5  1  0
  5  6  1  6
  6  7  1  0
  7  8  2  0
  8  9  1  0
  9 10  2  0
 10 11  1  0
 10 12  1  0
  7 13  1  0
 12 13  2  0
  5 14  1  0
 14 15  2  0
 14 16  1  0
 16 17  1  0
 17 18  1  0
 18 19  2  0
 19 20  1  0
 20 21  2  0
 21 22  1  0
 22 23  1  0
 18 24  1  0
 22 24  2  0
M  END
