NIC-BIO-3276ca7f-1
     RDKit          3D

 22 23  0  0  0  0  0  0  0  0999 V2000
    7.6180    4.6980   22.4270 C   0  0  0  0  0  0  0  0  0  0  0  0
    7.3100    3.4190   22.8880 C   0  0  0  0  0  0  0  0  0  0  0  0
    6.3890    3.2100   23.6760 O   0  0  0  0  0  0  0  0  0  0  0  0
    8.2080    2.3700   22.3280 N   0  0  0  0  0  0  0  0  0  0  0  0
    8.0260    0.9890   22.8360 C   0  0  1  0  0  0  0  0  0  0  0  0
    6.7510    0.3770   22.3750 C   0  0  0  0  0  0  0  0  0  0  0  0
    5.7680    1.3360   21.8270 C   0  0  0  0  0  0  0  0  0  0  0  0
    4.8540    2.1750   21.0710 C   0  0  0  0  0  0  0  0  0  0  0  0
    5.4110    1.3980   20.3640 N   0  0  0  0  0  0  0  0  0  0  0  0
    5.9390    0.6520   19.6470 C   0  0  0  0  0  0  0  0  0  0  0  0
    5.4190    1.0200   18.6960 N   0  0  0  0  0  0  0  0  0  0  0  0
    4.6590    1.7280   18.0320 C   0  0  0  0  0  0  0  0  0  0  0  0
    5.6180    0.6020   17.8990 C   0  0  0  0  0  0  0  0  0  0  0  0
    6.5190   -0.0920   19.2560 C   0  0  0  0  0  0  0  0  0  0  0  0
    6.4160    0.3600   20.7130 C   0  0  0  0  0  0  0  0  0  0  0  0
    9.2380    0.3710   22.7050 C   0  0  0  0  0  0  0  0  0  0  0  0
   10.3690    1.0290   22.3370 O   0  0  0  0  0  0  0  0  0  0  0  0
    9.2140   -0.9820   22.9790 N   0  0  0  0  0  0  0  0  0  0  0  0
    9.8630   -1.8980   22.0730 C   0  0  0  0  0  0  0  0  0  0  0  0
   11.1990   -1.5090   21.9960 C   0  0  0  0  0  0  0  0  0  0  0  0
   12.0850   -1.8250   23.0130 C   0  0  0  0  0  0  0  0  0  0  0  0
   13.2720   -2.2730   24.4220 Br  0  0  0  0  0  0  0  0  0  0  0  0
  1  2  1  0
  2  3  2  0
  2  4  1  0
  4  5  1  0
  5  6  1  6
  6  7  1  0
  7  8  2  0
  8  9  1  0
  9 10  1  0
 10 11  1  0
 11 12  2  0
 12 13  1  0
 13 14  2  0
  7 15  1  0
 10 15  2  0
 14 15  1  0
  5 16  1  0
 16 17  2  0
 16 18  1  0
 18 19  1  0
 19 20  1  0
 20 21  3  0
 21 22  1  0
M  END
