NIC-UNI-80385019-1
     RDKit          3D

 27 30  0  0  0  0  0  0  0  0999 V2000
    7.7590   -0.4390   20.8270 C   0  0  0  0  0  0  0  0  0  0  0  0
    7.2670   -0.3500   19.4520 N   0  0  0  0  0  0  0  0  0  0  0  0
    7.9390   -0.9510   18.3710 C   0  0  0  0  0  0  0  0  0  0  0  0
    7.9730   -2.1390   18.1660 O   0  0  0  0  0  0  0  0  0  0  0  0
    8.6090   -0.0150   17.4130 N   0  0  0  0  0  0  0  0  0  0  0  0
   10.2380   -0.1080   16.0750 C   0  0  0  0  0  0  0  0  0  0  0  0
   11.0290    0.4420   14.9770 C   0  0  0  0  0  0  0  0  0  0  0  0
   12.2050    0.6940   16.2370 C   0  0  0  0  0  0  0  0  0  0  0  0
    6.1910    0.5620   19.1540 C   0  0  0  0  0  0  0  0  0  0  0  0
    6.1520    0.9200   17.8060 N   0  0  0  0  0  0  0  0  0  0  0  0
    5.1760    1.6820   17.8540 C   0  0  0  0  0  0  0  0  0  0  0  0
    4.9530    1.5380   19.1450 C   0  0  0  0  0  0  0  0  0  0  0  0
    5.7150    0.6880   20.0900 C   0  0  0  0  0  0  0  0  0  0  0  0
    5.4070    0.5950   21.4870 C   0  0  0  0  0  0  0  0  0  0  0  0
    4.2840    1.2920   22.3660 C   0  0  0  0  0  0  0  0  0  0  0  0
    3.1880    2.0500   22.9030 N   0  0  0  0  0  0  0  0  0  0  0  0
    2.2270    1.5600   23.7840 C   0  0  0  0  0  0  0  0  0  0  0  0
    2.0790    0.2170   24.2210 O   0  0  0  0  0  0  0  0  0  0  0  0
    1.1600    2.4580   24.4380 C   0  0  0  0  0  0  0  0  0  0  0  0
    1.5950    3.7740   25.0730 C   0  0  0  0  0  0  0  0  0  0  0  0
    0.6090    4.5680   25.6700 C   0  0  0  0  0  0  0  0  0  0  0  0
   -0.7300    4.1530   25.6760 C   0  0  0  0  0  0  0  0  0  0  0  0
   -1.1320    2.9400   25.0910 C   0  0  0  0  0  0  0  0  0  0  0  0
   -0.1870    2.0900   24.4690 C   0  0  0  0  0  0  0  0  0  0  0  0
    3.7570    1.9830   21.2400 C   0  0  0  0  0  0  0  0  0  0  0  0
    4.1730    1.9700   19.9260 C   0  0  0  0  0  0  0  0  0  0  0  0
    5.2360    1.0520   20.2220 N   0  0  0  0  0  0  0  0  0  0  0  0
  1  2  1  0
  2  3  1  0
  3  4  2  0
  3  5  1  0
  5  6  1  0
  6  7  1  0
  6  8  1  0
  7  8  1  0
  2  9  1  0
  9 10  2  0
 10 11  1  0
 11 12  2  0
 12 13  1  0
 13 14  2  0
 14 15  1  0
 15 16  1  0
 16 17  1  0
 17 18  2  0
 17 19  1  0
 19 20  2  0
 20 21  1  0
 21 22  2  0
 22 23  1  0
 19 24  1  0
 23 24  2  0
 15 25  2  0
 12 26  1  0
 25 26  1  0
  9 27  1  0
 26 27  2  0
M  END
