NIC-BIO-7d400292-1
     RDKit          3D

 21 21  0  0  0  0  0  0  0  0999 V2000
    7.4770    5.0470   22.2860 C   0  0  0  0  0  0  0  0  0  0  0  0
    7.0990    3.6700   22.8970 C   0  0  0  0  0  0  0  0  0  0  0  0
    6.1470    3.5280   23.6590 O   0  0  0  0  0  0  0  0  0  0  0  0
    7.9250    2.6420   22.5160 N   0  0  0  0  0  0  0  0  0  0  0  0
    7.7080    1.2970   23.0450 C   0  0  1  0  0  0  0  0  0  0  0  0
    6.5030    0.7380   22.6060 C   0  0  0  0  0  0  0  0  0  0  0  0
    6.2660    0.7190   21.2410 C   0  0  0  0  0  0  0  0  0  0  0  0
    5.5030    1.7090   20.6440 C   0  0  0  0  0  0  0  0  0  0  0  0
    5.2230    1.7770   19.2950 C   0  0  0  0  0  0  0  0  0  0  0  0
    5.7400    0.7790   18.4660 C   0  0  0  0  0  0  0  0  0  0  0  0
    5.4960    0.8150   17.1450 O   0  0  0  0  0  0  0  0  0  0  0  0
    6.5700   -0.3280   19.0640 C   0  0  0  0  0  0  0  0  0  0  0  0
    7.0690   -1.2960   18.3130 F   0  0  0  0  0  0  0  0  0  0  0  0
    6.7890   -0.2940   20.4260 C   0  0  0  0  0  0  0  0  0  0  0  0
    8.9030    0.4470   22.5540 C   0  0  0  0  0  0  0  0  0  0  0  0
    9.8360    0.9570   21.9470 O   0  0  0  0  0  0  0  0  0  0  0  0
    8.8510   -0.9850   22.8760 N   0  0  0  0  0  0  0  0  0  0  0  0
    9.7450   -1.8620   22.1220 C   0  0  0  0  0  0  0  0  0  0  0  0
   11.0510   -1.3460   22.1190 C   0  0  0  0  0  0  0  0  0  0  0  0
   11.9920   -1.7400   23.0630 C   0  0  0  0  0  0  0  0  0  0  0  0
   13.2550   -2.2790   24.3700 Br  0  0  0  0  0  0  0  0  0  0  0  0
  1  2  1  0
  2  3  2  0
  2  4  1  0
  4  5  1  0
  5  6  1  6
  6  7  1  0
  7  8  2  0
  8  9  1  0
  9 10  2  0
 10 11  1  0
 10 12  1  0
 12 13  1  0
  7 14  1  0
 12 14  2  0
  5 15  1  0
 15 16  2  0
 15 17  1  0
 17 18  1  0
 18 19  1  0
 19 20  3  0
 20 21  1  0
M  END
