NIC-BIO-a68395b7-1
     RDKit          3D

 24 25  0  0  0  0  0  0  0  0999 V2000
    7.4570    5.0910   22.3630 C   0  0  0  0  0  0  0  0  0  0  0  0
    7.0970    3.6740   22.8820 C   0  0  0  0  0  0  0  0  0  0  0  0
    6.0030    3.7140   23.8230 O   0  0  0  0  0  0  0  0  0  0  0  0
    7.8040    2.5930   22.4290 N   0  0  0  0  0  0  0  0  0  0  0  0
    7.5890    1.2780   23.0060 C   0  0  1  0  0  0  0  0  0  0  0  0
    6.4210    0.6820   22.5400 C   0  0  0  0  0  0  0  0  0  0  0  0
    6.2520    0.6460   21.1710 C   0  0  0  0  0  0  0  0  0  0  0  0
    5.2530    1.6670   20.6350 C   0  0  0  0  0  0  0  0  0  0  0  0
    5.1160    1.5880   19.1400 C   0  0  0  0  0  0  0  0  0  0  0  0
    5.8140    0.6910   18.3430 C   0  0  0  0  0  0  0  0  0  0  0  0
    5.6000    0.7500   17.1580 O   0  0  0  0  0  0  0  0  0  0  0  0
    6.7100   -0.2140   18.9150 C   0  0  0  0  0  0  0  0  0  0  0  0
    6.9200   -0.2340   20.2830 C   0  0  0  0  0  0  0  0  0  0  0  0
    8.7610    0.4470   22.6160 C   0  0  0  0  0  0  0  0  0  0  0  0
    9.7340    1.1370   21.9540 O   0  0  0  0  0  0  0  0  0  0  0  0
    8.9190   -0.8360   22.8480 N   0  0  0  0  0  0  0  0  0  0  0  0
    9.8120   -1.5330   21.9160 C   0  0  0  0  0  0  0  0  0  0  0  0
   11.1220   -2.0040   22.5270 C   0  0  0  0  0  0  0  0  0  0  0  0
   12.2320   -0.9590   22.3670 C   0  0  0  0  0  0  0  0  0  0  0  0
   12.9340   -0.7100   23.5370 C   0  0  0  0  0  0  0  0  0  0  0  0
   13.1540   -1.9180   24.0660 N   0  0  0  0  0  0  0  0  0  0  0  0
   13.5140   -2.6710   23.0340 C   0  0  0  0  0  0  0  0  0  0  0  0
   11.9660   -2.4680   24.6790 C   0  0  0  0  0  0  0  0  0  0  0  0
   10.8580   -2.2900   23.8700 C   0  0  0  0  0  0  0  0  0  0  0  0
  1  2  1  0
  2  3  2  0
  2  4  1  0
  4  5  1  0
  5  6  1  6
  6  7  1  0
  7  8  2  0
  8  9  1  0
  9 10  2  0
 10 11  1  0
 10 12  1  0
  7 13  1  0
 12 13  2  0
  5 14  1  0
 14 15  2  0
 14 16  1  0
 16 17  1  0
 17 18  1  0
 18 19  1  0
 19 20  1  0
 20 21  1  0
 21 22  1  0
 21 23  1  0
 18 24  1  0
 23 24  1  0
M  END
