NIC-BIO-174c9b04-2
     RDKit          3D

 21 24  0  0  0  0  0  0  0  0999 V2000
   13.3250   -1.4530   24.1860 C   0  0  0  0  0  0  0  0  0  0  0  0
   11.9940   -1.1860   23.7640 N   0  0  0  0  0  0  0  0  0  0  0  0
   11.3120   -2.0540   22.9720 C   0  0  0  0  0  0  0  0  0  0  0  0
    9.9500   -1.5540   22.8170 C   0  0  0  0  0  0  0  0  0  0  0  0
    9.6480   -0.2340   22.7690 N   0  0  0  0  0  0  0  0  0  0  0  0
    8.8170    0.3160   21.6860 C   0  0  0  0  0  0  0  0  0  0  0  0
    8.9810    1.4600   21.2060 O   0  0  0  0  0  0  0  0  0  0  0  0
    7.8090   -0.5350   21.2550 C   0  0  0  0  0  0  0  0  0  0  0  0
    7.0660   -0.1660   20.1520 C   0  0  0  0  0  0  0  0  0  0  0  0
    7.3160   -0.4910   18.8330 C   0  0  0  0  0  0  0  0  0  0  0  0
    6.3750    0.0750   18.0400 N   0  0  0  0  0  0  0  0  0  0  0  0
    5.4870    0.7670   18.8160 C   0  0  0  0  0  0  0  0  0  0  0  0
    4.4210    1.4500   18.3470 N   0  0  0  0  0  0  0  0  0  0  0  0
    3.6840    2.0440   19.3150 C   0  0  0  0  0  0  0  0  0  0  0  0
    4.0080    1.9670   20.7720 C   0  0  0  0  0  0  0  0  0  0  0  0
    5.1240    1.2460   21.1070 C   0  0  0  0  0  0  0  0  0  0  0  0
    5.8990    0.6220   20.1490 C   0  0  0  0  0  0  0  0  0  0  0  0
    7.0080   -0.9880   22.5270 C   0  0  0  0  0  0  0  0  0  0  0  0
    7.4240   -1.9750   21.8550 C   0  0  0  0  0  0  0  0  0  0  0  0
   10.5750    0.7310   23.3560 C   0  0  0  0  0  0  0  0  0  0  0  0
   11.8780    0.2250   23.3140 C   0  0  0  0  0  0  0  0  0  0  0  0
  1  2  1  0
  2  3  1  0
  3  4  1  0
  4  5  1  0
  5  6  1  0
  6  7  2  0
  8  6  1  0
  8  9  1  0
  9 10  2  0
 10 11  1  0
 11 12  1  0
 12 13  1  0
 13 14  2  0
 14 15  1  0
 15 16  2  0
  9 17  1  0
 12 17  2  0
 16 17  1  0
  8 18  1  0
  8 19  1  0
 18 19  1  0
  5 20  1  0
  2 21  1  0
 20 21  1  0
M  END
