NIC-BIO-3276ca7f-7
     RDKit          3D

 25 27  0  0  0  0  0  0  0  0999 V2000
    7.5330    5.0990   22.2780 C   0  0  0  0  0  0  0  0  0  0  0  0
    7.1170    3.7070   22.8260 C   0  0  0  0  0  0  0  0  0  0  0  0
    6.1830    3.5630   23.6110 O   0  0  0  0  0  0  0  0  0  0  0  0
    7.8830    2.6640   22.3650 N   0  0  0  0  0  0  0  0  0  0  0  0
    7.6390    1.3330   22.9090 C   0  0  1  0  0  0  0  0  0  0  0  0
    6.4050    0.8000   22.5050 C   0  0  0  0  0  0  0  0  0  0  0  0
    6.0650    0.6130   21.1570 C   0  0  0  0  0  0  0  0  0  0  0  0
    7.1110   -0.0510   20.4410 C   0  0  0  0  0  0  0  0  0  0  0  0
    6.1920   -0.3770   19.4350 N   0  0  0  0  0  0  0  0  0  0  0  0
    4.9460   -0.0560   19.9200 C   0  0  0  0  0  0  0  0  0  0  0  0
    5.2740   -1.1210   19.1170 C   0  0  0  0  0  0  0  0  0  0  0  0
    6.1840   -0.5780   18.2720 C   0  0  0  0  0  0  0  0  0  0  0  0
    6.0160    0.7700   18.2780 C   0  0  0  0  0  0  0  0  0  0  0  0
    5.2520    1.5130   19.2990 C   0  0  0  0  0  0  0  0  0  0  0  0
    4.8570    1.2380   20.7260 C   0  0  0  0  0  0  0  0  0  0  0  0
    8.8920    0.5370   22.5100 C   0  0  0  0  0  0  0  0  0  0  0  0
    9.7250    0.9840   21.7440 O   0  0  0  0  0  0  0  0  0  0  0  0
    9.0090   -0.6970   23.0990 N   0  0  0  0  0  0  0  0  0  0  0  0
    9.2180   -1.8360   22.3530 C   0  0  0  0  0  0  0  0  0  0  0  0
    8.1420   -2.7140   22.5120 C   0  0  0  0  0  0  0  0  0  0  0  0
    8.3490   -3.8040   23.4040 C   0  0  0  0  0  0  0  0  0  0  0  0
    7.2390   -4.7620   23.5920 C   0  0  0  0  0  0  0  0  0  0  0  0
    6.1850   -4.2990   22.7720 C   0  0  0  0  0  0  0  0  0  0  0  0
    5.8440   -3.4800   22.0230 C   0  0  0  0  0  0  0  0  0  0  0  0
    6.8700   -2.5420   21.8110 C   0  0  0  0  0  0  0  0  0  0  0  0
  1  2  1  0
  2  3  2  0
  2  4  1  0
  4  5  1  0
  5  6  1  6
  6  7  1  0
  7  8  2  0
  8  9  1  0
  9 10  1  0
 10 11  1  0
 11 12  2  0
 12 13  1  0
 13 14  2  0
  7 15  1  0
 10 15  2  0
 14 15  1  0
  5 16  1  0
 16 17  2  0
 16 18  1  0
 18 19  1  0
 19 20  1  0
 20 21  2  0
 21 22  1  0
 22 23  2  0
 23 24  1  0
 20 25  1  0
 24 25  2  0
M  END
