NIC-BIO-ec630548-3
     RDKit          3D

 23 25  0  0  0  0  0  0  0  0999 V2000
    7.7960   -3.7710   23.2200 C   0  0  0  0  0  0  0  0  0  0  0  0
    8.0780   -2.7660   24.1320 N   0  0  0  0  0  0  0  0  0  0  0  0
    9.0160   -1.7200   23.9830 C   0  0  0  0  0  0  0  0  0  0  0  0
    8.9020   -0.9240   24.9090 O   0  0  0  0  0  0  0  0  0  0  0  0
    9.9400   -1.5560   22.9400 C   0  0  2  0  0  0  0  0  0  0  0  0
   11.2730   -1.9160   23.1530 C   0  0  0  0  0  0  0  0  0  0  0  0
   12.0150   -1.0250   23.8780 N   0  0  0  0  0  0  0  0  0  0  0  0
   13.2080   -1.5350   24.0130 C   0  0  0  0  0  0  0  0  0  0  0  0
   11.9940    0.2490   23.4040 C   0  0  0  0  0  0  0  0  0  0  0  0
   10.7210    0.7910   23.2890 C   0  0  0  0  0  0  0  0  0  0  0  0
    9.8910   -0.1330   22.5170 N   0  0  0  0  0  0  0  0  0  0  0  0
    8.9020    0.2300   21.6160 C   0  0  0  0  0  0  0  0  0  0  0  0
    8.7520    1.5710   21.1330 O   0  0  0  0  0  0  0  0  0  0  0  0
    7.9720   -0.6690   21.0780 C   0  0  0  0  0  0  0  0  0  0  0  0
    7.1360   -0.2130   20.0840 C   0  0  0  0  0  0  0  0  0  0  0  0
    7.3180   -0.4560   18.7640 C   0  0  0  0  0  0  0  0  0  0  0  0
    6.3880    0.1100   18.0250 N   0  0  0  0  0  0  0  0  0  0  0  0
    5.5080    0.7670   18.8220 C   0  0  0  0  0  0  0  0  0  0  0  0
    4.4380    1.4490   18.3730 N   0  0  0  0  0  0  0  0  0  0  0  0
    3.7110    2.0050   19.3600 C   0  0  0  0  0  0  0  0  0  0  0  0
    3.9980    1.9250   20.8370 C   0  0  0  0  0  0  0  0  0  0  0  0
    5.2220    1.1440   21.2010 C   0  0  0  0  0  0  0  0  0  0  0  0
    5.9550    0.5750   20.1580 C   0  0  0  0  0  0  0  0  0  0  0  0
  1  2  1  0
  2  3  1  0
  3  4  2  0
  5  3  1  1
  5  6  1  0
  6  7  1  0
  7  8  1  0
  7  9  1  0
  9 10  1  0
  5 11  1  0
 10 11  1  0
 11 12  1  0
 12 13  2  0
 12 14  1  0
 14 15  1  0
 15 16  2  0
 16 17  1  0
 17 18  1  0
 18 19  1  0
 19 20  2  0
 20 21  1  0
 21 22  2  0
 15 23  1  0
 18 23  2  0
 22 23  1  0
M  END
