NIC-BIO-b40446ce-1
     RDKit          3D

 26 27  0  0  0  0  0  0  0  0999 V2000
    7.5700    5.1810   22.2980 C   0  0  0  0  0  0  0  0  0  0  0  0
    7.2110    3.7600   22.8110 C   0  0  0  0  0  0  0  0  0  0  0  0
    6.1910    3.8070   23.8340 O   0  0  0  0  0  0  0  0  0  0  0  0
    7.8570    2.6740   22.2820 N   0  0  0  0  0  0  0  0  0  0  0  0
    7.5950    1.3500   22.8170 C   0  0  1  0  0  0  0  0  0  0  0  0
    6.3770    0.8090   22.3570 C   0  0  0  0  0  0  0  0  0  0  0  0
    6.0200    0.8530   20.9900 C   0  0  0  0  0  0  0  0  0  0  0  0
    5.2680    2.0290   19.9370 C   0  0  0  0  0  0  0  0  0  0  0  0
    5.4370    2.2730   21.0080 N   0  0  0  0  0  0  0  0  0  0  0  0
    5.7180    1.0280   20.0900 C   0  0  0  0  0  0  0  0  0  0  0  0
    5.7640    1.6110   21.2260 C   0  0  0  0  0  0  0  0  0  0  0  0
    5.2350    2.2170   20.1120 C   0  0  0  0  0  0  0  0  0  0  0  0
    5.1290    1.6420   18.7620 C   0  0  0  0  0  0  0  0  0  0  0  0
    5.6790    0.2400   18.6860 C   0  0  0  0  0  0  0  0  0  0  0  0
    5.7310   -0.4960   17.7670 O   0  0  0  0  0  0  0  0  0  0  0  0
    6.1500   -1.6480   18.3510 C   0  0  0  0  0  0  0  0  0  0  0  0
    7.6170   -1.7760   18.5540 C   0  0  0  0  0  0  0  0  0  0  0  0
    5.3470   -2.6570   18.8100 O   0  0  0  0  0  0  0  0  0  0  0  0
    6.1630   -0.1130   19.9930 C   0  0  0  0  0  0  0  0  0  0  0  0
    8.8380    0.5110   22.4650 C   0  0  0  0  0  0  0  0  0  0  0  0
    9.6130    0.8520   21.6080 O   0  0  0  0  0  0  0  0  0  0  0  0
    9.0120   -0.6190   23.2170 N   0  0  0  0  0  0  0  0  0  0  0  0
    9.5990   -1.6300   22.4880 C   0  0  0  0  0  0  0  0  0  0  0  0
   11.0830   -1.2880   22.2050 C   0  0  0  0  0  0  0  0  0  0  0  0
   12.0370   -1.7040   23.1040 C   0  0  0  0  0  0  0  0  0  0  0  0
   13.2890   -2.3010   24.3940 Br  0  0  0  0  0  0  0  0  0  0  0  0
  1  2  1  0
  2  3  2  0
  2  4  1  0
  4  5  1  0
  5  6  1  6
  6  7  1  0
  7  8  2  0
  8  9  1  0
  9 10  1  0
 10 11  1  0
 11 12  2  0
 12 13  1  0
 13 14  2  0
 14 15  1  0
 15 16  1  0
 16 17  1  0
 16 18  2  0
  7 19  1  0
 10 19  2  0
 14 19  1  0
  5 20  1  0
 20 21  2  0
 20 22  1  0
 22 23  1  0
 23 24  1  0
 24 25  3  0
 25 26  1  0
M  END
