NIC-BIO-174c9b04-1
     RDKit          3D

 20 22  0  0  0  0  0  0  0  0999 V2000
    8.5570   -1.8190   21.1700 C   0  0  0  0  0  0  0  0  0  0  0  0
    7.9040   -0.4740   21.4580 C   0  0  1  0  0  0  0  0  0  0  0  0
    8.8530    0.5080   21.7610 C   0  0  0  0  0  0  0  0  0  0  0  0
    8.9680    1.6220   21.2230 O   0  0  0  0  0  0  0  0  0  0  0  0
    9.7120    0.0170   22.8310 N   0  0  0  0  0  0  0  0  0  0  0  0
    9.7690   -1.3080   23.2710 C   0  0  0  0  0  0  0  0  0  0  0  0
   11.0290   -1.8240   23.3190 C   0  0  0  0  0  0  0  0  0  0  0  0
   12.0140   -1.0610   23.8050 N   0  0  0  0  0  0  0  0  0  0  0  0
   13.1670   -1.7090   24.0300 C   0  0  0  0  0  0  0  0  0  0  0  0
   12.0340    0.2900   23.2440 C   0  0  0  0  0  0  0  0  0  0  0  0
   10.7450    0.8570   23.3670 C   0  0  0  0  0  0  0  0  0  0  0  0
    7.0890   -0.0990   20.2410 C   0  0  0  0  0  0  0  0  0  0  0  0
    7.3220   -0.4290   18.9560 C   0  0  0  0  0  0  0  0  0  0  0  0
    6.4010    0.0880   18.1030 N   0  0  0  0  0  0  0  0  0  0  0  0
    5.5750    0.7450   18.9380 C   0  0  0  0  0  0  0  0  0  0  0  0
    4.5240    1.3790   18.3640 N   0  0  0  0  0  0  0  0  0  0  0  0
    3.7260    2.0110   19.2650 C   0  0  0  0  0  0  0  0  0  0  0  0
    3.9560    2.0340   20.7670 C   0  0  0  0  0  0  0  0  0  0  0  0
    5.1860    1.2810   21.2470 C   0  0  0  0  0  0  0  0  0  0  0  0
    5.9740    0.6450   20.2960 C   0  0  0  0  0  0  0  0  0  0  0  0
  2  1  1  6
  2  3  1  0
  3  4  2  0
  3  5  1  0
  5  6  1  0
  6  7  1  0
  7  8  1  0
  8  9  1  0
  8 10  1  0
  5 11  1  0
 10 11  1  0
  2 12  1  0
 12 13  2  0
 13 14  1  0
 14 15  1  0
 15 16  1  0
 16 17  2  0
 17 18  1  0
 18 19  2  0
 12 20  1  0
 15 20  2  0
 19 20  1  0
M  END
