NIC-BIO-ec630548-4
     RDKit          3D

 22 24  0  0  0  0  0  0  0  0999 V2000
   13.2220   -1.7360   23.9890 C   0  0  0  0  0  0  0  0  0  0  0  0
   12.1570   -1.2670   23.2650 N   0  0  0  0  0  0  0  0  0  0  0  0
   10.9920   -1.9700   22.9030 C   0  0  0  0  0  0  0  0  0  0  0  0
    9.7180   -1.4250   23.0570 C   0  0  0  0  0  0  0  0  0  0  0  0
    9.6420   -0.0490   22.7190 N   0  0  0  0  0  0  0  0  0  0  0  0
    8.8090    0.4030   21.6230 C   0  0  0  0  0  0  0  0  0  0  0  0
    8.8420    1.5550   21.1500 O   0  0  0  0  0  0  0  0  0  0  0  0
    7.9440   -0.5800   21.1240 C   0  0  0  0  0  0  0  0  0  0  0  0
    7.1780   -0.2630   20.0100 C   0  0  0  0  0  0  0  0  0  0  0  0
    7.4180   -0.6440   18.7060 C   0  0  0  0  0  0  0  0  0  0  0  0
    6.3270   -0.0070   17.9860 N   0  0  0  0  0  0  0  0  0  0  0  0
    5.4790    0.7010   18.8490 C   0  0  0  0  0  0  0  0  0  0  0  0
    4.3670    1.4110   18.5510 N   0  0  0  0  0  0  0  0  0  0  0  0
    3.7130    2.0080   19.6020 C   0  0  0  0  0  0  0  0  0  0  0  0
    4.1390    1.9210   20.9500 C   0  0  0  0  0  0  0  0  0  0  0  0
    5.2690    1.2060   21.2450 C   0  0  0  0  0  0  0  0  0  0  0  0
    5.9720    0.5630   20.1260 C   0  0  0  0  0  0  0  0  0  0  0  0
   10.5590    0.7520   23.5340 C   0  0  2  0  0  0  0  0  0  0  0  0
   10.5740    2.2310   23.1420 C   0  0  0  0  0  0  0  0  0  0  0  0
    9.3820    2.7440   22.7050 N   0  0  0  0  0  0  0  0  0  0  0  0
   11.6410    3.0780   23.1930 O   0  0  0  0  0  0  0  0  0  0  0  0
   11.9990    0.2060   23.3830 C   0  0  0  0  0  0  0  0  0  0  0  0
  1  2  1  0
  2  3  1  0
  3  4  1  0
  4  5  1  0
  5  6  1  0
  6  7  2  0
  6  8  1  0
  8  9  1  0
  9 10  2  0
 10 11  1  0
 11 12  1  0
 12 13  1  0
 13 14  2  0
 14 15  1  0
 15 16  2  0
  9 17  1  0
 12 17  2  0
 16 17  1  0
  5 18  1  0
 18 19  1  6
 19 20  1  0
 19 21  2  0
  2 22  1  0
 18 22  1  0
M  END
