NIC-BIO-29f4a211-1
     RDKit          3D

 20 22  0  0  0  0  0  0  0  0999 V2000
    9.2430   -2.1600   24.0370 C   0  0  0  0  0  0  0  0  0  0  0  0
    9.8820   -1.5750   22.8160 C   0  0  2  0  0  0  0  0  0  0  0  0
   11.3290   -1.8740   22.6360 C   0  0  0  0  0  0  0  0  0  0  0  0
   12.1160   -1.2280   23.5440 N   0  0  0  0  0  0  0  0  0  0  0  0
   13.2430   -1.9260   24.0710 C   0  0  0  0  0  0  0  0  0  0  0  0
   12.1050    0.2090   23.3510 C   0  0  0  0  0  0  0  0  0  0  0  0
   10.6740    0.7420   23.2840 C   0  0  0  0  0  0  0  0  0  0  0  0
    9.6370   -0.1160   22.7570 N   0  0  0  0  0  0  0  0  0  0  0  0
    8.8840    0.3420   21.6920 C   0  0  0  0  0  0  0  0  0  0  0  0
    8.9100    1.4970   21.2240 O   0  0  0  0  0  0  0  0  0  0  0  0
    7.9610   -0.6770   21.0670 C   0  0  0  0  0  0  0  0  0  0  0  0
    7.1230   -0.2340   20.0570 C   0  0  0  0  0  0  0  0  0  0  0  0
    7.3310   -0.5210   18.7250 C   0  0  0  0  0  0  0  0  0  0  0  0
    6.3510    0.0750   17.9990 N   0  0  0  0  0  0  0  0  0  0  0  0
    5.4940    0.7380   18.8350 C   0  0  0  0  0  0  0  0  0  0  0  0
    4.4150    1.4310   18.4360 N   0  0  0  0  0  0  0  0  0  0  0  0
    3.7040    2.0000   19.4440 C   0  0  0  0  0  0  0  0  0  0  0  0
    4.0270    1.9110   20.7960 C   0  0  0  0  0  0  0  0  0  0  0  0
    5.1390    1.2060   21.2030 C   0  0  0  0  0  0  0  0  0  0  0  0
    5.9570    0.5530   20.1330 C   0  0  0  0  0  0  0  0  0  0  0  0
  2  1  1  1
  2  3  1  0
  3  4  1  0
  4  5  1  0
  4  6  1  0
  6  7  1  0
  2  8  1  0
  7  8  1  0
  8  9  1  0
  9 10  2  0
  9 11  1  0
 11 12  1  0
 12 13  2  0
 13 14  1  0
 14 15  1  0
 15 16  1  0
 16 17  2  0
 17 18  1  0
 18 19  2  0
 12 20  1  0
 15 20  2  0
 19 20  1  0
M  END
