NIC-BIO-96ee2ca4-2
     RDKit          3D

 29 32  0  0  0  0  0  0  0  0999 V2000
   13.3280   -1.5550   24.0050 C   0  0  0  0  0  0  0  0  0  0  0  0
   11.9770   -1.1800   23.7580 N   0  0  0  0  0  0  0  0  0  0  0  0
   11.1220   -1.9540   23.0220 C   0  0  0  0  0  0  0  0  0  0  0  0
    9.7890   -1.3400   23.0630 C   0  0  0  0  0  0  0  0  0  0  0  0
    9.6020   -0.0170   22.8050 N   0  0  0  0  0  0  0  0  0  0  0  0
    8.8100    0.3670   21.6260 C   0  0  0  0  0  0  0  0  0  0  0  0
    8.8660    1.5070   21.1290 O   0  0  0  0  0  0  0  0  0  0  0  0
    8.0000   -0.6280   21.1040 C   0  0  0  0  0  0  0  0  0  0  0  0
    7.1490   -0.2160   20.0890 C   0  0  0  0  0  0  0  0  0  0  0  0
    7.3240   -0.5150   18.7610 C   0  0  0  0  0  0  0  0  0  0  0  0
    6.3440    0.0510   18.0220 N   0  0  0  0  0  0  0  0  0  0  0  0
    5.4980    0.7230   18.8560 C   0  0  0  0  0  0  0  0  0  0  0  0
    4.4190    1.3940   18.4390 N   0  0  0  0  0  0  0  0  0  0  0  0
    3.7320    1.9690   19.4400 C   0  0  0  0  0  0  0  0  0  0  0  0
    4.1160    1.8880   20.8910 C   0  0  0  0  0  0  0  0  0  0  0  0
    5.2600    1.1700   21.2030 C   0  0  0  0  0  0  0  0  0  0  0  0
    5.9730    0.5710   20.1720 C   0  0  0  0  0  0  0  0  0  0  0  0
   10.4460    0.7960   23.5530 C   0  0  2  0  0  0  0  0  0  0  0  0
   10.4940    2.1970   23.4650 C   0  0  0  0  0  0  0  0  0  0  0  0
    9.4690    2.7790   24.2980 O   0  0  0  0  0  0  0  0  0  0  0  0
    9.1080    4.0440   23.9610 C   0  0  0  0  0  0  0  0  0  0  0  0
    9.8310    5.0280   23.9840 O   0  0  0  0  0  0  0  0  0  0  0  0
    7.7650    4.0790   23.5820 C   0  0  0  0  0  0  0  0  0  0  0  0
    7.3870    4.5100   22.3140 C   0  0  0  0  0  0  0  0  0  0  0  0
    5.8980    4.5290   21.9500 C   0  0  0  0  0  0  0  0  0  0  0  0
    4.9740    4.1130   22.9070 C   0  0  0  0  0  0  0  0  0  0  0  0
    5.4110    3.6890   24.1690 C   0  0  0  0  0  0  0  0  0  0  0  0
    6.7870    3.6720   24.5020 C   0  0  0  0  0  0  0  0  0  0  0  0
   11.8990    0.2540   23.4130 C   0  0  0  0  0  0  0  0  0  0  0  0
  1  2  1  0
  2  3  1  0
  3  4  1  0
  4  5  1  0
  5  6  1  0
  6  7  2  0
  6  8  1  0
  8  9  1  0
  9 10  2  0
 10 11  1  0
 11 12  1  0
 12 13  1  0
 13 14  2  0
 14 15  1  0
 15 16  2  0
  9 17  1  0
 12 17  2  0
 16 17  1  0
  5 18  1  0
 18 19  1  6
 19 20  1  0
 20 21  1  0
 21 22  2  0
 21 23  1  0
 23 24  2  0
 24 25  1  0
 25 26  2  0
 26 27  1  0
 23 28  1  0
 27 28  2  0
  2 29  1  0
 18 29  1  0
M  END
