NIC-BIO-3276ca7f-2
     RDKit          3D

 22 23  0  0  0  0  0  0  0  0999 V2000
    7.4690    4.9160   22.3630 C   0  0  0  0  0  0  0  0  0  0  0  0
    7.1910    3.5000   22.9430 C   0  0  0  0  0  0  0  0  0  0  0  0
    6.0720    3.5160   23.8540 O   0  0  0  0  0  0  0  0  0  0  0  0
    7.9870    2.4430   22.5590 N   0  0  0  0  0  0  0  0  0  0  0  0
    7.8440    1.1150   23.1490 C   0  0  1  0  0  0  0  0  0  0  0  0
    6.6240    0.5220   22.8300 C   0  0  0  0  0  0  0  0  0  0  0  0
    6.0870    0.8440   21.6170 C   0  0  0  0  0  0  0  0  0  0  0  0
    4.9040    1.8840   21.8170 C   0  0  0  0  0  0  0  0  0  0  0  0
    4.7450    1.8780   20.4980 N   0  0  0  0  0  0  0  0  0  0  0  0
    5.6230    1.0500   19.8440 C   0  0  0  0  0  0  0  0  0  0  0  0
    5.7340    0.8240   18.6240 C   0  0  0  0  0  0  0  0  0  0  0  0
    4.7750    1.6210   18.2770 C   0  0  0  0  0  0  0  0  0  0  0  0
    5.7060    0.7580   17.7680 C   0  0  0  0  0  0  0  0  0  0  0  0
    6.6090    0.0850   18.8040 C   0  0  0  0  0  0  0  0  0  0  0  0
    6.5390    0.3120   20.3190 C   0  0  0  0  0  0  0  0  0  0  0  0
    9.0600    0.3350   22.6590 C   0  0  0  0  0  0  0  0  0  0  0  0
   10.1310    0.9480   22.0910 O   0  0  0  0  0  0  0  0  0  0  0  0
    9.0060   -0.9880   22.8300 N   0  0  0  0  0  0  0  0  0  0  0  0
    9.8080   -1.8520   22.0690 C   0  0  0  0  0  0  0  0  0  0  0  0
   11.1680   -1.5280   21.9350 C   0  0  0  0  0  0  0  0  0  0  0  0
   12.1360   -1.8720   23.0740 C   0  0  0  0  0  0  0  0  0  0  0  0
   13.3110   -2.3130   24.4930 Br  0  0  0  0  0  0  0  0  0  0  0  0
  1  2  1  0
  2  3  2  0
  2  4  1  0
  4  5  1  0
  5  6  1  6
  6  7  1  0
  7  8  2  0
  8  9  1  0
  9 10  1  0
 10 11  1  0
 11 12  2  0
 12 13  1  0
 13 14  2  0
  7 15  1  0
 10 15  2  0
 14 15  1  0
  5 16  1  0
 16 17  2  0
 16 18  1  0
 18 19  1  0
 19 20  1  0
 20 21  3  0
 21 22  1  0
M  END
