NIC-BIO-7d400292-2
     RDKit          3D

 25 26  0  0  0  0  0  0  0  0999 V2000
    7.1780    4.8150   22.1680 C   0  0  0  0  0  0  0  0  0  0  0  0
    6.8970    3.7390   23.0030 C   0  0  0  0  0  0  0  0  0  0  0  0
    5.8340    3.6090   23.6000 O   0  0  0  0  0  0  0  0  0  0  0  0
    8.0180    2.7970   23.0940 N   0  0  0  0  0  0  0  0  0  0  0  0
    7.7020    1.3650   23.2030 C   0  0  1  0  0  0  0  0  0  0  0  0
    6.3510    0.9410   22.7210 C   0  0  0  0  0  0  0  0  0  0  0  0
    6.1800    0.7910   21.2450 C   0  0  0  0  0  0  0  0  0  0  0  0
    5.4550    1.8080   20.6250 C   0  0  0  0  0  0  0  0  0  0  0  0
    5.2290    1.7910   19.2510 C   0  0  0  0  0  0  0  0  0  0  0  0
    5.7140    0.7650   18.4470 C   0  0  0  0  0  0  0  0  0  0  0  0
    5.5120    0.7410   17.1350 O   0  0  0  0  0  0  0  0  0  0  0  0
    6.4340   -0.2650   19.0300 C   0  0  0  0  0  0  0  0  0  0  0  0
    6.9010   -1.2580   18.2890 F   0  0  0  0  0  0  0  0  0  0  0  0
    6.6960   -0.2670   20.5270 C   0  0  0  0  0  0  0  0  0  0  0  0
    8.8530    0.5940   22.5460 C   0  0  0  0  0  0  0  0  0  0  0  0
    9.8990    1.2780   22.0080 O   0  0  0  0  0  0  0  0  0  0  0  0
    8.8100   -0.7710   22.5190 N   0  0  0  0  0  0  0  0  0  0  0  0
    9.8660   -1.4120   21.7910 C   0  0  0  0  0  0  0  0  0  0  0  0
   10.9470   -1.4720   22.6420 C   0  0  0  0  0  0  0  0  0  0  0  0
   11.1770   -2.4810   23.4490 C   0  0  0  0  0  0  0  0  0  0  0  0
   11.9860   -2.9490   24.3650 C   0  0  0  0  0  0  0  0  0  0  0  0
   12.9940   -2.1200   24.6280 C   0  0  0  0  0  0  0  0  0  0  0  0
   14.1090   -2.6000   25.8070 Cl  0  0  0  0  0  0  0  0  0  0  0  0
   12.9870   -0.9030   23.8560 C   0  0  0  0  0  0  0  0  0  0  0  0
   11.9840   -0.5320   22.8490 C   0  0  0  0  0  0  0  0  0  0  0  0
  1  2  1  0
  2  3  2  0
  2  4  1  0
  4  5  1  0
  5  6  1  6
  6  7  1  0
  7  8  2  0
  8  9  1  0
  9 10  2  0
 10 11  1  0
 10 12  1  0
 12 13  1  0
  7 14  1  0
 12 14  2  0
  5 15  1  0
 15 16  2  0
 15 17  1  0
 17 18  1  0
 18 19  1  0
 19 20  2  0
 20 21  1  0
 21 22  2  0
 22 23  1  0
 22 24  1  0
 19 25  1  0
 24 25  2  0
M  END
