NIC-BIO-2722da07-1
     RDKit          3D

 24 26  0  0  0  0  0  0  0  0999 V2000
    7.3100   -4.9050   23.1520 C   0  0  0  0  0  0  0  0  0  0  0  0
    6.5350   -3.6760   22.7520 C   0  0  0  0  0  0  0  0  0  0  0  0
    5.3740   -3.7710   22.3340 O   0  0  0  0  0  0  0  0  0  0  0  0
    7.1640   -2.6300   22.8820 O   0  0  0  0  0  0  0  0  0  0  0  0
    7.7040   -2.1080   21.6480 C   0  0  0  0  0  0  0  0  0  0  0  0
    7.6600   -0.6140   21.6160 C   0  0  1  0  0  0  0  0  0  0  0  0
    8.8020    0.1870   21.6230 C   0  0  0  0  0  0  0  0  0  0  0  0
    8.7220    1.4970   21.0230 O   0  0  0  0  0  0  0  0  0  0  0  0
   10.0030   -0.3290   22.2800 N   0  0  0  0  0  0  0  0  0  0  0  0
    9.9100   -1.5880   22.9940 C   0  0  0  0  0  0  0  0  0  0  0  0
   11.3070   -2.1600   23.2040 C   0  0  0  0  0  0  0  0  0  0  0  0
   12.1370   -1.2350   23.7930 N   0  0  0  0  0  0  0  0  0  0  0  0
   13.2190   -1.8530   24.1790 C   0  0  0  0  0  0  0  0  0  0  0  0
   12.0590   -0.0040   23.1280 C   0  0  0  0  0  0  0  0  0  0  0  0
   10.8000    0.5660   22.9080 C   0  0  0  0  0  0  0  0  0  0  0  0
    6.9530   -0.1920   20.3180 C   0  0  0  0  0  0  0  0  0  0  0  0
    7.2730   -0.5100   18.9120 C   0  0  0  0  0  0  0  0  0  0  0  0
    6.4260    0.0660   18.1210 N   0  0  0  0  0  0  0  0  0  0  0  0
    5.5020    0.7720   18.8240 C   0  0  0  0  0  0  0  0  0  0  0  0
    4.4820    1.4830   18.2740 N   0  0  0  0  0  0  0  0  0  0  0  0
    3.7170    2.0800   19.2360 C   0  0  0  0  0  0  0  0  0  0  0  0
    3.9010    2.0210   20.7270 C   0  0  0  0  0  0  0  0  0  0  0  0
    4.9860    1.2620   21.1200 C   0  0  0  0  0  0  0  0  0  0  0  0
    5.8060    0.6240   20.2030 C   0  0  0  0  0  0  0  0  0  0  0  0
  1  2  1  0
  2  3  2  0
  2  4  1  0
  4  5  1  0
  6  5  1  6
  6  7  1  0
  7  8  2  0
  7  9  1  0
  9 10  1  0
 10 11  1  0
 11 12  1  0
 12 13  1  0
 12 14  1  0
  9 15  1  0
 14 15  1  0
  6 16  1  0
 16 17  2  0
 17 18  1  0
 18 19  1  0
 19 20  1  0
 20 21  2  0
 21 22  1  0
 22 23  2  0
 16 24  1  0
 19 24  2  0
 23 24  1  0
M  END
