NIC-BIO-7d400292-3
     RDKit          3D

 25 26  0  0  0  0  0  0  0  0999 V2000
    7.5140    4.9790   22.3720 C   0  0  0  0  0  0  0  0  0  0  0  0
    7.0670    3.6060   22.9420 C   0  0  0  0  0  0  0  0  0  0  0  0
    6.0830    3.4790   23.6660 O   0  0  0  0  0  0  0  0  0  0  0  0
    7.8760    2.5640   22.5640 N   0  0  0  0  0  0  0  0  0  0  0  0
    7.6300    1.2010   23.0370 C   0  0  1  0  0  0  0  0  0  0  0  0
    6.4090    0.6900   22.6000 C   0  0  0  0  0  0  0  0  0  0  0  0
    6.1900    0.6920   21.2330 C   0  0  0  0  0  0  0  0  0  0  0  0
    5.4390    1.6920   20.6330 C   0  0  0  0  0  0  0  0  0  0  0  0
    5.1860    1.7690   19.2770 C   0  0  0  0  0  0  0  0  0  0  0  0
    5.7150    0.7790   18.4530 C   0  0  0  0  0  0  0  0  0  0  0  0
    5.4990    0.8240   17.1310 O   0  0  0  0  0  0  0  0  0  0  0  0
    6.5300   -0.3370   19.0550 C   0  0  0  0  0  0  0  0  0  0  0  0
    7.0420   -1.2990   18.3070 F   0  0  0  0  0  0  0  0  0  0  0  0
    6.7240   -0.3130   20.4200 C   0  0  0  0  0  0  0  0  0  0  0  0
    8.7860    0.3700   22.4370 C   0  0  0  0  0  0  0  0  0  0  0  0
    9.5300    0.8550   21.5950 O   0  0  0  0  0  0  0  0  0  0  0  0
    8.9600   -0.9940   22.9520 N   0  0  0  0  0  0  0  0  0  0  0  0
    9.8230   -1.8850   22.1650 C   0  0  0  0  0  0  0  0  0  0  0  0
   11.1960   -1.5810   22.3210 C   0  0  0  0  0  0  0  0  0  0  0  0
   12.5910   -1.4000   22.6700 C   0  0  0  0  0  0  0  0  0  0  0  0
   13.1630   -1.9580   23.7610 C   0  0  0  0  0  0  0  0  0  0  0  0
   12.9300   -2.7210   24.8020 C   0  0  0  0  0  0  0  0  0  0  0  0
   11.5260   -3.0380   24.6490 C   0  0  0  0  0  0  0  0  0  0  0  0
   10.6930   -4.0430   25.7740 Cl  0  0  0  0  0  0  0  0  0  0  0  0
   10.7960   -2.4640   23.4630 C   0  0  0  0  0  0  0  0  0  0  0  0
  1  2  1  0
  2  3  2  0
  2  4  1  0
  4  5  1  0
  5  6  1  6
  6  7  1  0
  7  8  2  0
  8  9  1  0
  9 10  2  0
 10 11  1  0
 10 12  1  0
 12 13  1  0
  7 14  1  0
 12 14  2  0
  5 15  1  0
 15 16  2  0
 15 17  1  0
 17 18  1  0
 18 19  1  0
 19 20  2  0
 20 21  1  0
 21 22  2  0
 22 23  1  0
 23 24  1  0
 19 25  1  0
 23 25  2  0
M  END
