NIC-UNI-0cb6411b-1
     RDKit          3D

 29 32  0  0  0  0  0  0  0  0999 V2000
    8.8410    1.2130   21.2790 O   0  0  0  0  0  0  0  0  0  0  0  0
    8.3810   -0.1030   21.6470 C   0  0  0  0  0  0  0  0  0  0  0  0
    9.0180   -0.8640   22.5850 N   0  0  0  0  0  0  0  0  0  0  0  0
   10.4180   -0.6020   22.7220 C   0  0  0  0  0  0  0  0  0  0  0  0
   10.7600    0.7630   22.8610 C   0  0  0  0  0  0  0  0  0  0  0  0
   12.1020    1.0860   22.9840 C   0  0  0  0  0  0  0  0  0  0  0  0
   13.0720    0.1420   22.9760 C   0  0  0  0  0  0  0  0  0  0  0  0
   12.7710   -1.1950   22.8480 C   0  0  0  0  0  0  0  0  0  0  0  0
   11.3820   -1.6250   22.7110 C   0  0  0  0  0  0  0  0  0  0  0  0
    7.2730   -0.7210   21.0950 N   0  0  0  0  0  0  0  0  0  0  0  0
    6.7870   -0.1930   19.9490 C   0  0  0  0  0  0  0  0  0  0  0  0
    7.3390   -0.5770   18.6620 C   0  0  0  0  0  0  0  0  0  0  0  0
    6.6250    0.1790   17.9030 N   0  0  0  0  0  0  0  0  0  0  0  0
    5.6290    1.0780   18.1940 C   0  0  0  0  0  0  0  0  0  0  0  0
    4.7950    1.9440   17.5890 N   0  0  0  0  0  0  0  0  0  0  0  0
    4.8850    1.6630   18.9030 C   0  0  0  0  0  0  0  0  0  0  0  0
    4.0470    2.3280   19.6190 C   0  0  0  0  0  0  0  0  0  0  0  0
    2.9190    3.3660   19.5030 C   0  0  0  0  0  0  0  0  0  0  0  0
    1.6640    2.9770   19.8950 N   0  0  0  0  0  0  0  0  0  0  0  0
    0.9850    3.3130   21.0850 C   0  0  0  0  0  0  0  0  0  0  0  0
    1.4270    4.2080   21.8080 O   0  0  0  0  0  0  0  0  0  0  0  0
   -0.2880    2.6060   21.5150 C   0  0  0  0  0  0  0  0  0  0  0  0
   -0.6650    1.4330   20.6500 C   0  0  0  0  0  0  0  0  0  0  0  0
   -1.8190    0.7240   20.9670 C   0  0  0  0  0  0  0  0  0  0  0  0
   -2.5850    1.1230   22.0730 C   0  0  0  0  0  0  0  0  0  0  0  0
   -2.2210    2.2210   22.8730 C   0  0  0  0  0  0  0  0  0  0  0  0
   -1.0650    2.9800   22.6050 C   0  0  0  0  0  0  0  0  0  0  0  0
    4.7180    1.6040   20.5300 C   0  0  0  0  0  0  0  0  0  0  0  0
    5.6840    0.8300   19.7170 C   0  0  0  0  0  0  0  0  0  0  0  0
  1  2  2  0
  2  3  1  0
  3  4  1  0
  4  5  2  0
  5  6  1  0
  6  7  2  0
  7  8  1  0
  4  9  1  0
  8  9  2  0
  2 10  1  0
 10 11  1  0
 11 12  2  0
 12 13  1  0
 13 14  1  0
 14 15  1  0
 15 16  2  0
 16 17  1  0
 17 18  1  0
 18 19  1  0
 19 20  1  0
 20 21  2  0
 20 22  1  0
 22 23  2  0
 23 24  1  0
 24 25  2  0
 25 26  1  0
 22 27  1  0
 26 27  2  0
 17 28  2  0
 11 29  1  0
 14 29  2  0
 28 29  1  0
M  END
