NIM-UNI-0ea3b7bf-2
     RDKit          3D

 28 31  0  0  0  0  0  0  0  0999 V2000
    4.8130   -3.4140   20.0530 O   0  0  0  0  0  0  0  0  0  0  0  0
    5.6490   -2.5370   19.9260 C   0  0  0  0  0  0  0  0  0  0  0  0
    5.7980   -1.7410   18.6740 C   0  0  0  0  0  0  0  0  0  0  0  0
    6.9160   -0.4000   18.8820 Cl  0  0  0  0  0  0  0  0  0  0  0  0
    6.6710   -2.2950   20.9840 C   0  0  0  0  0  0  0  0  0  0  0  0
    7.1190   -3.5950   21.6200 C   0  0  0  0  0  0  0  0  0  0  0  0
    8.1390   -3.6300   22.5980 C   0  0  0  0  0  0  0  0  0  0  0  0
    8.7250   -2.4380   22.9710 C   0  0  0  0  0  0  0  0  0  0  0  0
    9.7420   -2.4810   23.8740 C   0  0  0  0  0  0  0  0  0  0  0  0
   10.7090   -1.3850   23.4570 C   0  0  0  0  0  0  0  0  0  0  0  0
    9.9820   -0.0970   23.4780 C   0  0  0  0  0  0  0  0  0  0  0  0
   10.5720    1.0790   23.1860 C   0  0  0  0  0  0  0  0  0  0  0  0
   11.9370    1.0540   22.8670 C   0  0  0  0  0  0  0  0  0  0  0  0
   12.4980    2.8480   22.6160 Br  0  0  0  0  0  0  0  0  0  0  0  0
   12.7790   -0.2090   22.7760 C   0  0  0  0  0  0  0  0  0  0  0  0
   12.0620   -1.4530   23.1020 C   0  0  0  0  0  0  0  0  0  0  0  0
    8.2660   -1.2380   22.4110 C   0  0  0  0  0  0  0  0  0  0  0  0
    8.7370    0.0330   22.7340 N   0  0  0  0  0  0  0  0  0  0  0  0
    8.3370    0.9140   21.6450 C   0  0  0  0  0  0  0  0  0  0  0  0
    9.0170    2.1010   21.2320 O   0  0  0  0  0  0  0  0  0  0  0  0
    7.1280    0.2960   21.1360 N   0  0  0  0  0  0  0  0  0  0  0  0
    5.9650    1.0730   20.9370 C   0  0  0  0  0  0  0  0  0  0  0  0
    4.8140    0.5690   20.3310 C   0  0  0  0  0  0  0  0  0  0  0  0
    3.6800    1.3750   20.1440 C   0  0  0  0  0  0  0  0  0  0  0  0
    3.7700    2.6430   20.5800 C   0  0  0  0  0  0  0  0  0  0  0  0
    4.8380    3.2030   21.1760 N   0  0  0  0  0  0  0  0  0  0  0  0
    5.9070    2.4010   21.3370 C   0  0  0  0  0  0  0  0  0  0  0  0
    7.2520   -1.1100   21.4240 C   0  0  0  0  0  0  0  0  0  0  0  0
  1  2  2  0
  2  3  1  0
  3  4  1  0
  2  5  1  0
  5  6  2  0
  6  7  1  0
  7  8  2  0
  8  9  1  0
  9 10  1  0
 10 11  2  0
 11 12  1  0
 12 13  2  0
 13 14  1  0
 13 15  1  0
 10 16  1  0
 15 16  2  0
  8 17  1  0
 17 18  1  0
 18 19  1  0
 19 20  2  0
 19 21  1  0
 21 22  1  0
 22 23  2  0
 23 24  1  0
 24 25  2  0
 25 26  1  0
 22 27  1  0
 26 27  2  0
  5 28  1  0
 17 28  2  0
 21 28  1  0
M  END
