NIM-UNI-b87c0f72-4
     RDKit          3D

 32 35  0  0  0  0  0  0  0  0999 V2000
    9.0320   -5.7920   26.9180 C   0  0  0  0  0  0  0  0  0  0  0  0
    8.3890   -4.5730   26.5040 O   0  0  0  0  0  0  0  0  0  0  0  0
    7.0270   -4.5970   26.6010 C   0  0  0  0  0  0  0  0  0  0  0  0
    6.3960   -5.4750   27.1700 O   0  0  0  0  0  0  0  0  0  0  0  0
    6.4550   -3.4880   25.9660 C   0  0  1  0  0  0  0  0  0  0  0  0
    7.0980   -2.2550   26.0040 C   0  0  0  0  0  0  0  0  0  0  0  0
    7.2410   -1.6300   27.0610 O   0  0  0  0  0  0  0  0  0  0  0  0
    7.5750   -1.7610   24.7730 C   0  0  0  0  0  0  0  0  0  0  0  0
    8.2580   -2.7970   23.9430 C   0  0  2  0  0  0  0  0  0  0  0  0
    8.9760   -2.2950   22.6670 C   0  0  0  0  0  0  0  0  0  0  0  0
   10.0000   -1.1630   22.7290 C   0  0  0  0  0  0  0  0  0  0  0  0
   11.4430   -1.4330   22.4810 C   0  0  0  0  0  0  0  0  0  0  0  0
   12.3300   -0.4150   22.5380 C   0  0  0  0  0  0  0  0  0  0  0  0
   11.9130    0.8990   22.8090 C   0  0  0  0  0  0  0  0  0  0  0  0
   12.8230    1.9500   22.8480 C   0  0  0  0  0  0  0  0  0  0  0  0
   12.4190    3.2610   23.1050 C   0  0  0  0  0  0  0  0  0  0  0  0
   11.0790    3.5470   23.3490 C   0  0  0  0  0  0  0  0  0  0  0  0
   10.5620    5.2050   23.7190 S   0  0  0  0  0  0  0  0  0  0  0  0
    9.1760    5.3420   22.7820 N   0  0  0  0  0  0  0  0  0  0  0  0
   10.1060    5.2390   25.0920 O   0  0  0  0  0  0  0  0  0  0  0  0
   11.5410    6.1380   23.2150 O   0  0  0  0  0  0  0  0  0  0  0  0
   10.1530    2.5190   23.3110 C   0  0  0  0  0  0  0  0  0  0  0  0
   10.5510    1.1850   23.0410 C   0  0  0  0  0  0  0  0  0  0  0  0
    9.6120    0.1470   23.0050 C   0  0  0  0  0  0  0  0  0  0  0  0
    7.3020   -3.8190   23.6470 O   0  0  0  0  0  0  0  0  0  0  0  0
    6.1140   -3.7470   24.4890 C   0  0  1  0  0  0  0  0  0  0  0  0
    5.2750   -4.7920   24.1220 C   0  0  0  0  0  0  0  0  0  0  0  0
    4.4420   -5.4360   25.0380 C   0  0  0  0  0  0  0  0  0  0  0  0
    3.6240   -6.4680   24.5970 C   0  0  0  0  0  0  0  0  0  0  0  0
    3.6670   -6.8180   23.2570 C   0  0  0  0  0  0  0  0  0  0  0  0
    4.4680   -6.2150   22.3520 N   0  0  0  0  0  0  0  0  0  0  0  0
    5.2470   -5.2210   22.8040 C   0  0  0  0  0  0  0  0  0  0  0  0
  1  2  1  0
  2  3  1  0
  3  4  2  0
  5  3  1  6
  5  6  1  0
  6  7  2  0
  6  8  1  0
  8  9  1  0
  9 10  1  6
 10 11  1  0
 11 12  2  0
 12 13  1  0
 13 14  2  0
 14 15  1  0
 15 16  2  0
 16 17  1  0
 17 18  1  0
 18 19  1  0
 18 20  2  0
 18 21  2  0
 17 22  2  0
 14 23  1  0
 22 23  1  0
 11 24  1  0
 23 24  2  0
  9 25  1  0
  5 26  1  0
 25 26  1  0
 26 27  1  1
 27 28  2  0
 28 29  1  0
 29 30  2  0
 30 31  1  0
 27 32  1  0
 31 32  2  0
M  END
