NIM-UNI-36e12f95-3
     RDKit          3D

 20 22  0  0  0  0  0  0  0  0999 V2000
    5.1990   -1.3930   21.1820 C   0  0  0  0  0  0  0  0  0  0  0  0
    5.9520   -2.4620   20.4710 C   0  0  0  0  0  0  0  0  0  0  0  0
    6.0990   -2.3630   19.2570 O   0  0  0  0  0  0  0  0  0  0  0  0
    6.4030   -3.5660   21.2430 C   0  0  0  0  0  0  0  0  0  0  0  0
    5.8240   -4.7630   21.0520 C   0  0  0  0  0  0  0  0  0  0  0  0
    6.8390   -4.3000   21.9090 C   0  0  0  0  0  0  0  0  0  0  0  0
    7.4500   -2.7220   21.9470 C   0  0  0  0  0  0  0  0  0  0  0  0
    7.1200   -1.0920   20.9750 Br  0  0  0  0  0  0  0  0  0  0  0  0
    8.2410   -3.0350   22.8470 C   0  0  0  0  0  0  0  0  0  0  0  0
    9.2190   -2.6630   23.6490 N   0  0  0  0  0  0  0  0  0  0  0  0
    9.0090   -1.7460   22.5880 C   0  0  0  0  0  0  0  0  0  0  0  0
    9.8130   -0.6360   22.0720 O   0  0  0  0  0  0  0  0  0  0  0  0
    7.7210   -2.2910   22.2280 N   0  0  0  0  0  0  0  0  0  0  0  0
    6.8150   -1.4500   23.1050 C   0  0  0  0  0  0  0  0  0  0  0  0
    5.5900   -2.1960   23.6360 C   0  0  0  0  0  0  0  0  0  0  0  0
    4.6970   -1.3560   24.5020 C   0  0  0  0  0  0  0  0  0  0  0  0
    5.0230   -0.0120   24.7580 C   0  0  0  0  0  0  0  0  0  0  0  0
    6.1310    0.6040   24.2620 N   0  0  0  0  0  0  0  0  0  0  0  0
    6.9760   -0.1080   23.4720 C   0  0  0  0  0  0  0  0  0  0  0  0
    7.4630   -3.7850   22.3280 C   0  0  0  0  0  0  0  0  0  0  0  0
  1  2  1  0
  2  3  2  0
  2  4  1  0
  4  5  2  0
  5  6  1  0
  6  7  2  0
  7  8  1  0
  7  9  1  0
  9 10  1  0
 10 11  1  0
 11 12  2  0
 11 13  1  0
 13 14  1  0
 14 15  2  0
 15 16  1  0
 16 17  2  0
 17 18  1  0
 14 19  1  0
 18 19  2  0
  4 20  1  0
  9 20  2  0
 13 20  1  0
M  END
