NIM-UNI-7f77122c-2
     RDKit          3D

 40 45  0  0  0  0  0  0  0  0999 V2000
    3.8600   -8.0510   24.6110 O   0  0  0  0  0  0  0  0  0  0  0  0
    3.3690   -6.9930   24.2440 C   0  0  0  0  0  0  0  0  0  0  0  0
    4.2440   -5.8130   24.3820 C   0  0  0  0  0  0  0  0  0  0  0  0
    5.2870   -5.5360   23.4760 C   0  0  0  0  0  0  0  0  0  0  0  0
    6.0950   -4.4000   23.6910 C   0  0  0  0  0  0  0  0  0  0  0  0
    5.8420   -3.5640   24.8110 C   0  0  0  0  0  0  0  0  0  0  0  0
    6.6190   -2.3350   25.1840 C   0  0  0  0  0  0  0  0  0  0  0  0
    7.6590   -2.0740   24.2570 O   0  0  0  0  0  0  0  0  0  0  0  0
    7.4780   -0.9620   23.5290 C   0  0  0  0  0  0  0  0  0  0  0  0
    6.6210   -0.0610   23.8870 N   0  0  0  0  0  0  0  0  0  0  0  0
    6.4950    1.0080   23.0380 C   0  0  0  0  0  0  0  0  0  0  0  0
    6.2820    2.1520   23.4280 O   0  0  0  0  0  0  0  0  0  0  0  0
    6.6500    0.6460   21.6080 C   0  0  0  0  0  0  0  0  0  0  0  0
    7.5520   -0.3180   21.3700 C   0  0  0  0  0  0  0  0  0  0  0  0
    7.5880   -0.5470   20.0340 N   0  0  0  0  0  0  0  0  0  0  0  0
    6.7560    0.4020   19.3990 C   0  0  0  0  0  0  0  0  0  0  0  0
    6.7080    0.5600   18.2010 O   0  0  0  0  0  0  0  0  0  0  0  0
    6.0440    1.0780   20.4410 N   0  0  0  0  0  0  0  0  0  0  0  0
    4.7390    1.6260   20.2320 C   0  0  0  0  0  0  0  0  0  0  0  0
    4.4100    2.3650   19.0960 C   0  0  0  0  0  0  0  0  0  0  0  0
    3.1260    2.8890   18.9290 C   0  0  0  0  0  0  0  0  0  0  0  0
    2.1820    2.6610   19.9050 C   0  0  0  0  0  0  0  0  0  0  0  0
    2.4360    1.9550   21.0210 N   0  0  0  0  0  0  0  0  0  0  0  0
    3.7000    1.4580   21.1560 C   0  0  0  0  0  0  0  0  0  0  0  0
    8.2510   -0.9020   22.3980 N   0  0  0  0  0  0  0  0  0  0  0  0
    9.2180   -1.9700   22.1610 C   0  0  0  0  0  0  0  0  0  0  0  0
   10.5300   -1.8220   22.9090 C   0  0  0  0  0  0  0  0  0  0  0  0
   10.9160   -2.8030   23.8210 C   0  0  0  0  0  0  0  0  0  0  0  0
   12.1180   -2.7130   24.5140 C   0  0  0  0  0  0  0  0  0  0  0  0
   12.9550   -1.6320   24.3100 C   0  0  0  0  0  0  0  0  0  0  0  0
   12.5940   -0.6360   23.4110 C   0  0  0  0  0  0  0  0  0  0  0  0
   11.3860   -0.7250   22.7110 C   0  0  0  0  0  0  0  0  0  0  0  0
    4.7970   -3.8720   25.6700 C   0  0  0  0  0  0  0  0  0  0  0  0
    4.0050   -4.9790   25.4660 C   0  0  0  0  0  0  0  0  0  0  0  0
    2.0700   -6.8710   23.7700 N   0  0  0  0  0  0  0  0  0  0  0  0
    1.5580   -5.5500   23.4530 C   0  0  0  0  0  0  0  0  0  0  0  0
    0.4490   -5.1110   24.4220 C   0  0  0  0  0  0  0  0  0  0  0  0
   -0.5710   -6.1000   24.6240 O   0  0  0  0  0  0  0  0  0  0  0  0
   -0.0600   -7.4030   24.9250 C   0  0  0  0  0  0  0  0  0  0  0  0
    1.0230   -7.8840   23.9480 C   0  0  0  0  0  0  0  0  0  0  0  0
  1  2  2  0
  2  3  1  0
  3  4  2  0
  4  5  1  0
  5  6  2  0
  6  7  1  0
  7  8  1  0
  8  9  1  0
  9 10  2  0
 10 11  1  0
 11 12  2  0
 11 13  1  0
 13 14  2  0
 14 15  1  0
 15 16  1  0
 16 17  2  0
 13 18  1  0
 16 18  1  0
 18 19  1  0
 19 20  2  0
 20 21  1  0
 21 22  2  0
 22 23  1  0
 19 24  1  0
 23 24  2  0
  9 25  1  0
 14 25  1  0
 25 26  1  0
 26 27  1  0
 27 28  2  0
 28 29  1  0
 29 30  2  0
 30 31  1  0
 27 32  1  0
 31 32  2  0
  6 33  1  0
  3 34  1  0
 33 34  2  0
  2 35  1  0
 35 36  1  0
 36 37  1  0
 37 38  1  0
 38 39  1  0
 35 40  1  0
 39 40  1  0
M  END
