NIM-UNI-534877e5-3
     RDKit          3D

 36 40  0  0  0  0  0  0  0  0999 V2000
    3.7470   -7.9880   24.7790 O   0  0  0  0  0  0  0  0  0  0  0  0
    3.3920   -6.9200   24.3000 C   0  0  0  0  0  0  0  0  0  0  0  0
    4.4100   -5.7680   24.1590 C   0  0  0  0  0  0  0  0  0  0  0  0
    5.3210   -5.7820   23.0980 C   0  0  0  0  0  0  0  0  0  0  0  0
    6.2790   -4.7670   22.9480 C   0  0  0  0  0  0  0  0  0  0  0  0
    6.3450   -3.7110   23.8620 C   0  0  0  0  0  0  0  0  0  0  0  0
    7.3320   -2.7310   23.6950 C   0  0  0  0  0  0  0  0  0  0  0  0
    7.0690   -1.8270   22.8940 O   0  0  0  0  0  0  0  0  0  0  0  0
    7.9630   -0.7800   22.8970 C   0  0  0  0  0  0  0  0  0  0  0  0
    9.4210   -0.9730   23.1030 N   0  0  0  0  0  0  0  0  0  0  0  0
   10.3330    0.1820   23.1580 C   0  0  0  0  0  0  0  0  0  0  0  0
    9.8440    1.3980   22.6840 C   0  0  0  0  0  0  0  0  0  0  0  0
   10.5940    2.5960   22.7280 C   0  0  0  0  0  0  0  0  0  0  0  0
   11.9850    2.5040   22.6760 C   0  0  0  0  0  0  0  0  0  0  0  0
   12.7790    3.8220   22.7290 C   0  0  0  0  0  0  0  0  0  0  0  0
   11.9370    5.0910   22.8420 C   0  0  0  0  0  0  0  0  0  0  0  0
   10.5590    5.0360   22.8880 C   0  0  0  0  0  0  0  0  0  0  0  0
    9.5720    6.6490   23.0340 Br  0  0  0  0  0  0  0  0  0  0  0  0
    9.8930    3.8220   22.8300 C   0  0  0  0  0  0  0  0  0  0  0  0
    8.3950    1.3960   22.0940 C   0  0  0  0  0  0  0  0  0  0  0  0
    8.1290    2.1890   20.9370 O   0  0  0  0  0  0  0  0  0  0  0  0
    7.5150    0.6180   22.7090 N   0  0  0  0  0  0  0  0  0  0  0  0
    6.9480    1.4550   23.7930 C   0  0  0  0  0  0  0  0  0  0  0  0
    7.8170    2.5560   24.3970 C   0  0  0  0  0  0  0  0  0  0  0  0
    7.1890    3.3940   25.5150 C   0  0  0  0  0  0  0  0  0  0  0  0
    5.8720    3.0940   25.9010 C   0  0  0  0  0  0  0  0  0  0  0  0
    5.0970    2.1250   25.3710 N   0  0  0  0  0  0  0  0  0  0  0  0
    5.6660    1.3010   24.2980 C   0  0  0  0  0  0  0  0  0  0  0  0
    5.4090   -3.6980   24.9260 C   0  0  0  0  0  0  0  0  0  0  0  0
    4.4580   -4.7050   25.0750 C   0  0  0  0  0  0  0  0  0  0  0  0
    2.0750   -6.7350   23.8890 N   0  0  0  0  0  0  0  0  0  0  0  0
    1.4950   -5.4630   23.5050 C   0  0  0  0  0  0  0  0  0  0  0  0
    0.4040   -5.1050   24.3110 C   0  0  0  0  0  0  0  0  0  0  0  0
   -0.5490   -6.1590   24.4700 O   0  0  0  0  0  0  0  0  0  0  0  0
    0.0330   -7.4080   24.8740 C   0  0  0  0  0  0  0  0  0  0  0  0
    1.1090   -7.8210   24.0860 C   0  0  0  0  0  0  0  0  0  0  0  0
  1  2  2  0
  2  3  1  0
  3  4  2  0
  4  5  1  0
  5  6  2  0
  6  7  1  0
  7  8  1  0
  8  9  1  0
  9 10  2  0
 10 11  1  0
 11 12  2  0
 12 13  1  0
 13 14  2  0
 14 15  1  0
 15 16  2  0
 16 17  1  0
 17 18  1  0
 13 19  1  0
 17 19  2  0
 12 20  1  0
 20 21  2  0
  9 22  1  0
 20 22  1  0
 22 23  1  0
 23 24  2  0
 24 25  1  0
 25 26  2  0
 26 27  1  0
 23 28  1  0
 27 28  2  0
  6 29  1  0
  3 30  1  0
 29 30  2  0
  2 31  1  0
 31 32  1  0
 32 33  1  0
 33 34  1  0
 34 35  1  0
 31 36  1  0
 35 36  1  0
M  END
