NIM-UNI-02269248-1
     RDKit          3D

 25 27  0  0  0  0  0  0  0  0999 V2000
    7.8240   -5.6370   24.0440 C   0  0  0  0  0  0  0  0  0  0  0  0
    6.6120   -5.1890   24.8210 C   0  0  0  0  0  0  0  0  0  0  0  0
    6.1180   -5.7970   25.7620 O   0  0  0  0  0  0  0  0  0  0  0  0
    6.1160   -4.0130   24.3610 N   0  0  0  0  0  0  0  0  0  0  0  0
    6.9610   -2.8500   24.4930 C   0  0  0  0  0  0  0  0  0  0  0  0
    7.3430   -2.4050   23.2510 C   0  0  0  0  0  0  0  0  0  0  0  0
    6.6030   -1.9790   22.2220 C   0  0  0  0  0  0  0  0  0  0  0  0
    7.2930   -1.6090   21.1530 N   0  0  0  0  0  0  0  0  0  0  0  0
    8.6240   -1.8420   21.5850 N   0  0  0  0  0  0  0  0  0  0  0  0
    8.6210   -2.3340   22.8820 N   0  0  0  0  0  0  0  0  0  0  0  0
    9.8790   -2.6430   23.5370 C   0  0  0  0  0  0  0  0  0  0  0  0
   10.6610   -1.4280   23.3300 C   0  0  0  0  0  0  0  0  0  0  0  0
    9.9870   -0.2710   23.2240 C   0  0  0  0  0  0  0  0  0  0  0  0
   10.6470    0.9750   23.0220 C   0  0  0  0  0  0  0  0  0  0  0  0
   11.9600    1.0310   22.9390 C   0  0  0  0  0  0  0  0  0  0  0  0
   12.6050    2.6040   22.7380 Cl  0  0  0  0  0  0  0  0  0  0  0  0
   12.7640   -0.2130   23.0370 C   0  0  0  0  0  0  0  0  0  0  0  0
   12.0750   -1.4270   23.2330 C   0  0  0  0  0  0  0  0  0  0  0  0
    5.1270   -3.9930   23.2620 C   0  0  2  0  0  0  0  0  0  0  0  0
    4.3140   -5.1130   23.3210 C   0  0  0  0  0  0  0  0  0  0  0  0
    4.7800   -6.3570   22.6160 C   0  0  0  0  0  0  0  0  0  0  0  0
    5.9250   -5.7500   21.3930 S   0  0  0  0  0  0  0  0  0  0  0  0
    7.2530   -6.2430   21.6790 O   0  0  0  0  0  0  0  0  0  0  0  0
    5.3640   -5.8190   20.0570 O   0  0  0  0  0  0  0  0  0  0  0  0
    5.8390   -4.0420   21.8880 C   0  0  0  0  0  0  0  0  0  0  0  0
  1  2  1  0
  2  3  2  0
  2  4  1  0
  4  5  1  0
  5  6  1  0
  6  7  2  0
  7  8  1  0
  8  9  2  0
  6 10  1  0
  9 10  1  0
 10 11  1  0
 11 12  1  0
 12 13  2  0
 13 14  1  0
 14 15  2  0
 15 16  1  0
 15 17  1  0
 12 18  1  0
 17 18  2  0
 19  4  1  1
 19 20  1  0
 20 21  1  0
 22 21  1  0
 22 23  2  0
 22 24  2  0
 19 25  1  0
 22 25  1  0
M  END
