NIM-UNI-b87c0f72-3
     RDKit          3D

 32 35  0  0  0  0  0  0  0  0999 V2000
    6.2700   -3.5220   28.1330 C   0  0  0  0  0  0  0  0  0  0  0  0
    6.1120   -3.6840   26.7180 O   0  0  0  0  0  0  0  0  0  0  0  0
    5.8050   -2.5380   26.0360 C   0  0  0  0  0  0  0  0  0  0  0  0
    4.8300   -1.8410   26.2780 O   0  0  0  0  0  0  0  0  0  0  0  0
    6.7540   -2.2800   25.0420 C   0  0  2  0  0  0  0  0  0  0  0  0
    7.3300   -1.0080   25.0210 C   0  0  0  0  0  0  0  0  0  0  0  0
    7.0040   -0.1490   25.8430 O   0  0  0  0  0  0  0  0  0  0  0  0
    8.2890   -0.7050   24.0410 C   0  0  0  0  0  0  0  0  0  0  0  0
    8.0090   -1.1710   22.6410 C   0  0  1  0  0  0  0  0  0  0  0  0
    9.2360   -1.2240   21.6990 C   0  0  0  0  0  0  0  0  0  0  0  0
   10.2200   -0.0620   21.8320 C   0  0  0  0  0  0  0  0  0  0  0  0
   11.7970   -0.4300   21.9510 C   0  0  0  0  0  0  0  0  0  0  0  0
   12.7910    0.7290   22.0760 C   0  0  0  0  0  0  0  0  0  0  0  0
   12.2670    2.3010   22.2130 C   0  0  0  0  0  0  0  0  0  0  0  0
   13.1060    3.3710   22.4710 C   0  0  0  0  0  0  0  0  0  0  0  0
   12.5590    4.5930   22.7440 C   0  0  0  0  0  0  0  0  0  0  0  0
   11.1780    4.7920   22.7410 C   0  0  0  0  0  0  0  0  0  0  0  0
   10.5440    6.3220   23.2520 S   0  0  0  0  0  0  0  0  0  0  0  0
    9.2240    6.5300   22.2480 N   0  0  0  0  0  0  0  0  0  0  0  0
    9.9900    6.0800   24.5790 O   0  0  0  0  0  0  0  0  0  0  0  0
   11.5790    7.2690   23.0510 O   0  0  0  0  0  0  0  0  0  0  0  0
   10.2620    3.8470   22.4070 C   0  0  0  0  0  0  0  0  0  0  0  0
   10.6960    2.6070   22.1520 C   0  0  0  0  0  0  0  0  0  0  0  0
    9.7030    1.4080   21.8970 C   0  0  0  0  0  0  0  0  0  0  0  0
    7.3380   -2.4390   22.6430 O   0  0  0  0  0  0  0  0  0  0  0  0
    6.2750   -2.6100   23.6150 C   0  0  1  0  0  0  0  0  0  0  0  0
    5.6940   -3.8520   23.3110 C   0  0  0  0  0  0  0  0  0  0  0  0
    6.4560   -4.9870   23.0160 C   0  0  0  0  0  0  0  0  0  0  0  0
    5.8080   -6.1820   22.7220 C   0  0  0  0  0  0  0  0  0  0  0  0
    4.4120   -6.2030   22.7370 C   0  0  0  0  0  0  0  0  0  0  0  0
    3.6430   -5.1330   23.0160 N   0  0  0  0  0  0  0  0  0  0  0  0
    4.3030   -3.9860   23.2930 C   0  0  0  0  0  0  0  0  0  0  0  0
  1  2  1  0
  2  3  1  0
  3  4  2  0
  5  3  1  1
  5  6  1  0
  6  7  2  0
  6  8  1  0
  8  9  1  0
  9 10  1  6
 10 11  1  0
 11 12  2  0
 12 13  1  0
 13 14  2  0
 14 15  1  0
 15 16  2  0
 16 17  1  0
 17 18  1  0
 18 19  1  0
 18 20  2  0
 18 21  2  0
 17 22  2  0
 14 23  1  0
 22 23  1  0
 11 24  1  0
 23 24  2  0
  9 25  1  0
  5 26  1  0
 25 26  1  0
 26 27  1  1
 27 28  2  0
 28 29  1  0
 29 30  2  0
 30 31  1  0
 27 32  1  0
 31 32  2  0
M  END
