NIM-UNI-534877e5-1
     RDKit          3D

 21 23  0  0  0  0  0  0  0  0999 V2000
    8.3110   -4.1900   23.6300 C   0  0  0  0  0  0  0  0  0  0  0  0
    7.7450   -2.9630   23.0170 C   0  0  0  0  0  0  0  0  0  0  0  0
    6.4570   -3.0750   22.5960 N   0  0  0  0  0  0  0  0  0  0  0  0
    5.8570   -2.1050   21.6990 C   0  0  0  0  0  0  0  0  0  0  0  0
    6.5900   -0.9850   21.3400 C   0  0  0  0  0  0  0  0  0  0  0  0
    5.9960   -0.0940   20.5220 C   0  0  0  0  0  0  0  0  0  0  0  0
    6.3110    0.2770   19.2650 C   0  0  0  0  0  0  0  0  0  0  0  0
    6.0560    1.0230   18.1730 C   0  0  0  0  0  0  0  0  0  0  0  0
    4.8290    1.8560   18.4600 C   0  0  0  0  0  0  0  0  0  0  0  0
    4.1730    1.6800   19.8760 C   0  0  0  0  0  0  0  0  0  0  0  0
    2.6320    2.6600   20.3700 Br  0  0  0  0  0  0  0  0  0  0  0  0
    4.8570    0.6510   20.8660 C   0  0  0  0  0  0  0  0  0  0  0  0
    7.9950   -0.8170   21.9010 C   0  0  0  0  0  0  0  0  0  0  0  0
    8.6610    0.1460   21.5040 O   0  0  0  0  0  0  0  0  0  0  0  0
    8.4620   -1.7630   22.8610 N   0  0  0  0  0  0  0  0  0  0  0  0
    9.8220   -1.6330   23.1870 C   0  0  0  0  0  0  0  0  0  0  0  0
   10.7730   -2.1700   22.3130 C   0  0  0  0  0  0  0  0  0  0  0  0
   12.1260   -2.0550   22.6110 C   0  0  0  0  0  0  0  0  0  0  0  0
   12.5070   -1.3980   23.7800 C   0  0  0  0  0  0  0  0  0  0  0  0
   11.6340   -0.8400   24.6810 N   0  0  0  0  0  0  0  0  0  0  0  0
   10.3020   -0.9930   24.3320 C   0  0  0  0  0  0  0  0  0  0  0  0
  1  2  2  3
  2  3  1  0
  3  4  1  0
  4  5  2  0
  5  6  1  0
  6  7  2  0
  7  8  1  0
  8  9  2  0
  9 10  1  0
 10 11  1  0
  6 12  1  0
 10 12  2  0
  5 13  1  0
 13 14  2  0
  2 15  1  0
 13 15  1  0
 15 16  1  0
 16 17  2  0
 17 18  1  0
 18 19  2  0
 19 20  1  0
 16 21  1  0
 20 21  2  0
M  END
