NIM-UNI-7f77122c-1
     RDKit          3D

 25 28  0  0  0  0  0  0  0  0999 V2000
    5.2730   -2.2620   20.9000 O   0  0  0  0  0  0  0  0  0  0  0  0
    6.2310   -2.2680   21.6560 C   0  0  0  0  0  0  0  0  0  0  0  0
    6.5270   -3.4190   22.5190 N   0  0  0  0  0  0  0  0  0  0  0  0
    7.3220   -3.0790   23.6870 C   0  0  0  0  0  0  0  0  0  0  0  0
    6.9920   -3.5770   24.7520 O   0  0  0  0  0  0  0  0  0  0  0  0
    8.4360   -2.1720   23.5610 N   0  0  0  0  0  0  0  0  0  0  0  0
    9.7190   -2.6660   23.5690 C   0  0  0  0  0  0  0  0  0  0  0  0
   10.8120   -1.5960   23.4280 C   0  0  0  0  0  0  0  0  0  0  0  0
   10.8860   -0.3440   24.1460 C   0  0  0  0  0  0  0  0  0  0  0  0
   11.9080    0.5880   23.9570 C   0  0  0  0  0  0  0  0  0  0  0  0
   12.9500    0.4060   23.0750 C   0  0  0  0  0  0  0  0  0  0  0  0
   12.9730   -0.8770   22.2770 C   0  0  0  0  0  0  0  0  0  0  0  0
   11.8380   -1.8480   22.5190 C   0  0  0  0  0  0  0  0  0  0  0  0
    8.1540   -1.0910   22.6280 C   0  0  0  0  0  0  0  0  0  0  0  0
    8.8010    0.0760   22.4880 N   0  0  0  0  0  0  0  0  0  0  0  0
    8.2980    0.8460   21.4940 C   0  0  0  0  0  0  0  0  0  0  0  0
    8.8300    2.0560   21.1380 O   0  0  0  0  0  0  0  0  0  0  0  0
    7.2300    0.1510   21.0060 N   0  0  0  0  0  0  0  0  0  0  0  0
    6.3420    0.8160   20.2500 C   0  0  0  0  0  0  0  0  0  0  0  0
    6.2670    0.7380   18.7840 C   0  0  0  0  0  0  0  0  0  0  0  0
    5.3340    1.4440   18.0030 C   0  0  0  0  0  0  0  0  0  0  0  0
    4.3980    2.2830   18.5960 C   0  0  0  0  0  0  0  0  0  0  0  0
    4.3630    2.4270   19.9460 N   0  0  0  0  0  0  0  0  0  0  0  0
    5.2690    1.7530   20.7570 C   0  0  0  0  0  0  0  0  0  0  0  0
    7.1590   -1.1040   21.7440 C   0  0  0  0  0  0  0  0  0  0  0  0
  1  2  2  0
  2  3  1  0
  3  4  1  0
  4  5  2  0
  4  6  1  0
  6  7  1  0
  7  8  1  0
  8  9  2  0
  9 10  1  0
 10 11  2  0
 11 12  1  0
  8 13  1  0
 12 13  2  0
  6 14  1  0
 14 15  1  0
 15 16  1  0
 16 17  2  0
 16 18  1  0
 18 19  1  0
 19 20  2  0
 20 21  1  0
 21 22  2  0
 22 23  1  0
 19 24  1  0
 23 24  2  0
  2 25  1  0
 14 25  2  0
 18 25  1  0
M  END
