NIM-UNI-02269248-3
     RDKit          3D

 25 27  0  0  0  0  0  0  0  0999 V2000
    5.8740   -2.2200   19.0510 C   0  0  0  0  0  0  0  0  0  0  0  0
    5.8470   -3.1800   20.1890 C   0  0  0  0  0  0  0  0  0  0  0  0
    5.4420   -4.3250   19.9320 O   0  0  0  0  0  0  0  0  0  0  0  0
    6.2720   -2.8420   21.3940 N   0  0  0  0  0  0  0  0  0  0  0  0
    6.7640   -3.9570   22.0770 C   0  0  0  0  0  0  0  0  0  0  0  0
    7.6960   -3.6790   23.2540 C   0  0  0  0  0  0  0  0  0  0  0  0
    8.5230   -2.4580   23.1870 N   0  0  0  0  0  0  0  0  0  0  0  0
    9.9770   -2.6520   23.4360 C   0  0  0  0  0  0  0  0  0  0  0  0
   10.5570   -1.2430   23.5900 C   0  0  0  0  0  0  0  0  0  0  0  0
   11.7020   -0.7480   22.6100 C   0  0  0  0  0  0  0  0  0  0  0  0
   11.5940    0.5080   23.2740 N   0  0  0  0  0  0  0  0  0  0  0  0
   12.2210    1.7450   23.0430 C   0  0  0  0  0  0  0  0  0  0  0  0
   12.9300    2.9180   22.7860 C   0  0  0  0  0  0  0  0  0  0  0  0
   11.7950    4.3630   23.1280 C   0  0  0  0  0  0  0  0  0  0  0  0
   10.7090    3.2520   23.5140 C   0  0  0  0  0  0  0  0  0  0  0  0
   11.7180    3.8930   23.1640 C   0  0  0  0  0  0  0  0  0  0  0  0
   10.4790    5.1280   23.5470 S   0  0  0  0  0  0  0  0  0  0  0  0
   10.9480    6.3770   22.5360 N   0  0  0  0  0  0  0  0  0  0  0  0
   10.6070    5.6130   24.8940 O   0  0  0  0  0  0  0  0  0  0  0  0
    9.1930    4.7180   23.0320 O   0  0  0  0  0  0  0  0  0  0  0  0
   12.2280    2.9390   23.0150 C   0  0  0  0  0  0  0  0  0  0  0  0
   10.7340    0.6490   24.3020 N   0  0  0  0  0  0  0  0  0  0  0  0
   10.0940   -0.4140   24.5130 N   0  0  0  0  0  0  0  0  0  0  0  0
    8.3230   -1.7360   21.9080 C   0  0  0  0  0  0  0  0  0  0  0  0
    6.9880   -1.5620   21.5600 C   0  0  0  0  0  0  0  0  0  0  0  0
  1  2  1  0
  2  3  2  0
  2  4  1  0
  4  5  1  0
  5  6  1  0
  6  7  1  0
  7  8  1  0
  8  9  1  0
  9 10  2  0
 10 11  1  0
 11 12  1  0
 12 13  2  0
 13 14  1  0
 14 15  2  0
 15 16  1  0
 16 17  1  0
 17 18  1  0
 17 19  2  0
 17 20  2  0
 12 21  1  0
 16 21  2  0
 11 22  1  0
  9 23  1  0
 22 23  2  0
  7 24  1  0
  4 25  1  0
 24 25  1  0
M  END
