NIM-UNI-b87c0f72-2
     RDKit          3D

 25 27  0  0  0  0  0  0  0  0999 V2000
    4.7840   -0.8510   29.1810 C   0  0  0  0  0  0  0  0  0  0  0  0
    4.7020   -0.0840   28.2300 O   0  0  0  0  0  0  0  0  0  0  0  0
    4.8670   -0.6120   26.9780 C   0  0  0  0  0  0  0  0  0  0  0  0
    4.5960   -1.9330   26.7690 O   0  0  0  0  0  0  0  0  0  0  0  0
    5.3110    0.1650   25.8900 C   0  0  1  0  0  0  0  0  0  0  0  0
    4.8490   -0.3100   24.6730 C   0  0  0  0  0  0  0  0  0  0  0  0
    5.4960   -1.0810   23.9590 O   0  0  0  0  0  0  0  0  0  0  0  0
    3.6320   -0.0040   24.0800 C   0  0  0  0  0  0  0  0  0  0  0  0
    2.7280    0.8630   24.7250 C   0  0  2  0  0  0  0  0  0  0  0  0
    2.0990    1.8880   23.8700 C   0  0  0  0  0  0  0  0  0  0  0  0
    1.1060    2.5700   24.5090 C   0  0  0  0  0  0  0  0  0  0  0  0
    1.4150    3.8290   25.1680 C   0  0  0  0  0  0  0  0  0  0  0  0
    0.4690    4.5420   25.8120 C   0  0  0  0  0  0  0  0  0  0  0  0
   -0.9400    4.0890   25.8880 C   0  0  0  0  0  0  0  0  0  0  0  0
   -1.2950    2.8860   25.2750 C   0  0  0  0  0  0  0  0  0  0  0  0
   -2.9160    2.3100   25.3360 Cl  0  0  0  0  0  0  0  0  0  0  0  0
   -0.2040    2.0960   24.5480 C   0  0  0  0  0  0  0  0  0  0  0  0
    3.2580    1.5430   25.8060 O   0  0  0  0  0  0  0  0  0  0  0  0
    4.6830    1.5610   26.0060 C   0  0  1  0  0  0  0  0  0  0  0  0
    5.0270    2.4400   27.2030 C   0  0  0  0  0  0  0  0  0  0  0  0
    6.5040    2.7960   27.3180 C   0  0  0  0  0  0  0  0  0  0  0  0
    6.9210    3.6000   28.3770 C   0  0  0  0  0  0  0  0  0  0  0  0
    5.9870    4.0700   29.3170 C   0  0  0  0  0  0  0  0  0  0  0  0
    4.6580    3.7950   29.2820 N   0  0  0  0  0  0  0  0  0  0  0  0
    4.1810    2.9510   28.1800 C   0  0  0  0  0  0  0  0  0  0  0  0
  1  2  1  0
  2  3  1  0
  3  4  2  0
  5  3  1  1
  5  6  1  0
  6  7  2  0
  6  8  1  0
  8  9  1  0
  9 10  1  6
 10 11  1  0
 11 12  2  0
 12 13  1  0
 13 14  2  0
 14 15  1  0
 15 16  1  0
 11 17  1  0
 15 17  2  0
  9 18  1  0
  5 19  1  0
 18 19  1  0
 19 20  1  1
 20 21  2  0
 21 22  1  0
 22 23  2  0
 23 24  1  0
 20 25  1  0
 24 25  2  0
M  END
