NIM-UNI-b87c0f72-1
     RDKit          3D

 25 27  0  0  0  0  0  0  0  0999 V2000
    5.3110    1.1100   17.9040 C   0  0  0  0  0  0  0  0  0  0  0  0
    4.2560    1.1540   18.8530 O   0  0  0  0  0  0  0  0  0  0  0  0
    4.4230    0.4700   20.0250 C   0  0  0  0  0  0  0  0  0  0  0  0
    5.0410   -0.5850   20.0420 O   0  0  0  0  0  0  0  0  0  0  0  0
    3.8940    0.9680   21.1460 C   0  0  2  0  0  0  0  0  0  0  0  0
    2.5040    1.5710   21.1150 C   0  0  0  0  0  0  0  0  0  0  0  0
    1.4610    1.0480   20.7220 O   0  0  0  0  0  0  0  0  0  0  0  0
    2.4070    2.9940   21.6640 C   0  0  0  0  0  0  0  0  0  0  0  0
    3.0360    2.9950   23.0450 C   0  0  1  0  0  0  0  0  0  0  0  0
    2.2740    1.9660   23.9140 C   0  0  0  0  0  0  0  0  0  0  0  0
    1.1540    2.7640   24.6560 C   0  0  0  0  0  0  0  0  0  0  0  0
    1.3600    3.9740   25.3260 C   0  0  0  0  0  0  0  0  0  0  0  0
    0.1780    4.6780   26.0200 C   0  0  0  0  0  0  0  0  0  0  0  0
   -1.0490    4.0980   25.9630 C   0  0  0  0  0  0  0  0  0  0  0  0
   -1.2540    2.7950   25.2390 C   0  0  0  0  0  0  0  0  0  0  0  0
   -2.8080    2.0580   25.1670 Cl  0  0  0  0  0  0  0  0  0  0  0  0
   -0.1440    2.2080   24.6320 C   0  0  0  0  0  0  0  0  0  0  0  0
    4.3980    2.5530   22.9720 O   0  0  0  0  0  0  0  0  0  0  0  0
    4.8320    2.1130   21.6680 C   0  0  1  0  0  0  0  0  0  0  0  0
    6.1830    1.7710   21.7760 C   0  0  0  0  0  0  0  0  0  0  0  0
    7.1630    2.7450   21.6570 C   0  0  0  0  0  0  0  0  0  0  0  0
    8.5010    2.4380   21.7640 C   0  0  0  0  0  0  0  0  0  0  0  0
    8.8690    1.1370   21.9940 C   0  0  0  0  0  0  0  0  0  0  0  0
    7.9840    0.1200   22.1230 N   0  0  0  0  0  0  0  0  0  0  0  0
    6.6580    0.4630   22.0100 C   0  0  0  0  0  0  0  0  0  0  0  0
  1  2  1  0
  2  3  1  0
  3  4  2  0
  5  3  1  6
  5  6  1  0
  6  7  2  0
  6  8  1  0
  8  9  1  0
  9 10  1  1
 10 11  1  0
 11 12  2  0
 12 13  1  0
 13 14  2  0
 14 15  1  0
 15 16  1  0
 11 17  1  0
 15 17  2  0
  9 18  1  0
  5 19  1  0
 18 19  1  0
 19 20  1  1
 20 21  2  0
 21 22  1  0
 22 23  2  0
 23 24  1  0
 20 25  1  0
 24 25  2  0
M  END
