OLE-CAR-5b17bec5-6
     RDKit          3D

 25 28  0  0  0  0  0  0  0  0999 V2000
    6.2560   -2.7420   22.4700 N   0  0  0  0  0  0  0  0  0  0  0  0
    7.4600   -3.3650   22.3060 C   0  0  0  0  0  0  0  0  0  0  0  0
    7.5220   -4.5630   22.0000 O   0  0  0  0  0  0  0  0  0  0  0  0
    8.6640   -2.5810   22.5140 C   0  0  0  0  0  0  0  0  0  0  0  0
    8.7510   -1.7120   23.4880 C   0  0  0  0  0  0  0  0  0  0  0  0
    9.8780   -1.0810   23.5470 C   0  0  0  0  0  0  0  0  0  0  0  0
   11.0310   -1.2350   22.6730 C   0  0  0  0  0  0  0  0  0  0  0  0
   10.9100   -2.1450   21.7840 C   0  0  0  0  0  0  0  0  0  0  0  0
    9.7360   -2.7720   21.6850 C   0  0  0  0  0  0  0  0  0  0  0  0
   12.1520   -2.2780   21.1100 C   0  0  0  0  0  0  0  0  0  0  0  0
   12.3920   -2.7500   20.1100 O   0  0  0  0  0  0  0  0  0  0  0  0
   13.0400   -1.7230   22.1420 C   0  0  0  0  0  0  0  0  0  0  0  0
   13.9920   -2.1550   22.5870 O   0  0  0  0  0  0  0  0  0  0  0  0
   12.3890   -0.5740   22.5560 N   0  0  0  0  0  0  0  0  0  0  0  0
   12.9200    0.8380   22.1540 C   0  0  0  0  0  0  0  0  0  0  0  0
   12.2000    2.4140   22.1790 C   0  0  0  0  0  0  0  0  0  0  0  0
   10.3960    2.6210   22.0020 C   0  0  0  0  0  0  0  0  0  0  0  0
   10.3000    3.9200   22.2890 C   0  0  0  0  0  0  0  0  0  0  0  0
   11.2450    4.9280   22.6320 C   0  0  0  0  0  0  0  0  0  0  0  0
   10.6570    6.0860   22.9160 C   0  0  0  0  0  0  0  0  0  0  0  0
   11.4040    7.1040   23.2720 C   0  0  0  0  0  0  0  0  0  0  0  0
   12.7730    6.9960   23.2900 C   0  0  0  0  0  0  0  0  0  0  0  0
   13.3560    5.7720   22.9820 C   0  0  0  0  0  0  0  0  0  0  0  0
   12.5640    4.7320   22.6840 C   0  0  0  0  0  0  0  0  0  0  0  0
   13.0530    3.4920   22.4630 C   0  0  0  0  0  0  0  0  0  0  0  0
  1  2  1  0
  2  3  2  0
  2  4  1  0
  4  5  2  0
  5  6  1  0
  6  7  2  0
  7  8  1  0
  4  9  1  0
  8  9  2  0
  8 10  1  0
 10 11  2  0
 10 12  1  0
 12 13  2  0
  7 14  1  0
 12 14  1  0
 14 15  1  0
 15 16  1  0
 16 17  2  0
 17 18  1  0
 18 19  2  0
 19 20  1  0
 20 21  2  0
 21 22  1  0
 22 23  2  0
 19 24  1  0
 23 24  1  0
 16 25  1  0
 24 25  2  0
M  END
