OLE-CAR-5b17bec5-4
     RDKit          3D

 19 21  0  0  0  0  0  0  0  0999 V2000
    7.7130   -2.2280   23.5220 O   0  0  0  0  0  0  0  0  0  0  0  0
    9.0810   -1.9170   23.7420 C   0  0  0  0  0  0  0  0  0  0  0  0
    8.7330   -0.6150   23.4580 O   0  0  0  0  0  0  0  0  0  0  0  0
    7.8890   -0.0070   24.4670 C   0  0  0  0  0  0  0  0  0  0  0  0
    7.1700   -0.7260   25.4540 C   0  0  0  0  0  0  0  0  0  0  0  0
    6.3850   -0.1420   26.3980 N   0  0  0  0  0  0  0  0  0  0  0  0
    6.3230    1.1970   26.3480 C   0  0  0  0  0  0  0  0  0  0  0  0
    6.9840    1.9800   25.4310 C   0  0  0  0  0  0  0  0  0  0  0  0
    6.8120    3.6890   25.4800 Cl  0  0  0  0  0  0  0  0  0  0  0  0
    7.7900    1.4010   24.4570 C   0  0  0  0  0  0  0  0  0  0  0  0
   10.3210   -1.0860   23.8470 C   0  0  0  0  0  0  0  0  0  0  0  0
   10.8790    0.0520   24.7010 C   0  0  0  0  0  0  0  0  0  0  0  0
   12.1210    0.1570   24.0340 C   0  0  0  0  0  0  0  0  0  0  0  0
   12.9950   -0.1990   23.1190 C   0  0  0  0  0  0  0  0  0  0  0  0
   12.9230   -1.2400   22.0930 C   0  0  0  0  0  0  0  0  0  0  0  0
   11.9170   -2.1510   21.7760 C   0  0  0  0  0  0  0  0  0  0  0  0
   10.9830   -1.6380   22.8820 C   0  0  0  0  0  0  0  0  0  0  0  0
   11.1280   -0.6270   23.8380 C   0  0  0  0  0  0  0  0  0  0  0  0
    9.8180   -0.2520   25.0450 S   0  0  0  0  0  0  0  0  0  0  0  0
  1  2  2  0
  2  3  1  0
  3  4  1  0
  4  5  2  0
  5  6  1  0
  6  7  2  0
  7  8  1  0
  8  9  1  0
  4 10  1  0
  8 10  2  0
  2 11  1  0
 11 12  2  0
 12 13  1  0
 13 14  2  0
 14 15  1  0
 15 16  2  0
 16 17  1  0
 13 18  1  0
 17 18  2  0
 11 19  1  0
 18 19  1  0
M  END
