OLE-CAR-5b17bec5-3
     RDKit          3D

 19 21  0  0  0  0  0  0  0  0999 V2000
    7.2760   -2.1220   22.5420 O   0  0  0  0  0  0  0  0  0  0  0  0
    8.4530   -1.8140   22.7220 C   0  0  0  0  0  0  0  0  0  0  0  0
    8.0940   -0.4700   22.4990 O   0  0  0  0  0  0  0  0  0  0  0  0
    7.2350   -0.1830   21.4170 C   0  0  0  0  0  0  0  0  0  0  0  0
    7.3710   -0.7200   20.1290 C   0  0  0  0  0  0  0  0  0  0  0  0
    6.6050   -0.4910   19.0880 N   0  0  0  0  0  0  0  0  0  0  0  0
    5.5640    0.3720   19.2880 C   0  0  0  0  0  0  0  0  0  0  0  0
    5.2480    1.0160   20.4800 C   0  0  0  0  0  0  0  0  0  0  0  0
    3.9100    2.0810   20.6160 Cl  0  0  0  0  0  0  0  0  0  0  0  0
    6.1610    0.7090   21.6340 C   0  0  0  0  0  0  0  0  0  0  0  0
    9.6850   -1.0660   22.8640 C   0  0  0  0  0  0  0  0  0  0  0  0
   10.3450    0.2990   23.3900 C   0  0  0  0  0  0  0  0  0  0  0  0
   11.7300    0.4720   23.2560 C   0  0  0  0  0  0  0  0  0  0  0  0
   12.9260   -0.0220   22.8360 C   0  0  0  0  0  0  0  0  0  0  0  0
   13.1490   -1.2420   22.2160 C   0  0  0  0  0  0  0  0  0  0  0  0
   12.1470   -2.1170   21.9520 C   0  0  0  0  0  0  0  0  0  0  0  0
   10.9200   -1.7390   22.3310 C   0  0  0  0  0  0  0  0  0  0  0  0
   10.7860   -0.4920   22.9470 C   0  0  0  0  0  0  0  0  0  0  0  0
    9.4060   -0.0200   23.3960 N   0  0  0  0  0  0  0  0  0  0  0  0
  1  2  2  0
  2  3  1  0
  3  4  1  0
  4  5  2  0
  5  6  1  0
  6  7  2  0
  7  8  1  0
  8  9  1  0
  4 10  1  0
  8 10  2  0
  2 11  1  0
 11 12  2  0
 12 13  1  0
 13 14  2  0
 14 15  1  0
 15 16  2  0
 16 17  1  0
 13 18  1  0
 17 18  2  0
 11 19  1  0
 18 19  1  0
M  END
