OLE-CAR-5b17bec5-9
     RDKit          3D

 45 46  0  0  0  0  0  0  0  0999 V2000
    5.6930    9.0880   19.5920 C   0  0  0  0  0  0  0  0  0  0  0  0
    4.7510   10.2030   19.2030 C   0  0  0  0  0  0  0  0  0  0  0  0
    3.7480   10.4240   19.8820 O   0  0  0  0  0  0  0  0  0  0  0  0
    3.8490   10.3960   21.2610 C   0  0  0  0  0  0  0  0  0  0  0  0
    3.2870   11.2280   21.9660 O   0  0  0  0  0  0  0  0  0  0  0  0
    4.5950    9.4040   21.9150 C   0  0  0  0  0  0  0  0  0  0  0  0
    4.1260    8.1160   22.2140 C   0  0  0  0  0  0  0  0  0  0  0  0
    4.8710    7.1350   22.8600 C   0  0  2  0  0  0  0  0  0  0  0  0
    6.2870    7.2150   22.7980 C   0  0  0  0  0  0  0  0  0  0  0  0
    6.9000    8.2110   23.7900 C   0  0  2  0  0  0  0  0  0  0  0  0
    8.4000    8.2790   23.4990 C   0  0  0  0  0  0  0  0  0  0  0  0
    9.1870    7.6150   24.5700 C   0  0  0  0  0  0  0  0  0  0  0  0
    8.2670    7.6720   25.6620 N   0  0  0  0  0  0  0  0  0  0  0  0
    6.9420    7.7390   25.2470 C   0  0  0  0  0  0  0  0  0  0  0  0
    5.9940    7.4640   25.9580 O   0  0  0  0  0  0  0  0  0  0  0  0
    4.4890    5.9510   22.2730 N   0  0  0  0  0  0  0  0  0  0  0  0
    3.4540    5.1560   22.7420 C   0  0  0  0  0  0  0  0  0  0  0  0
    2.6560    5.5080   23.6110 O   0  0  0  0  0  0  0  0  0  0  0  0
    3.3800    3.7730   22.0720 C   0  0  2  0  0  0  0  0  0  0  0  0
    1.9300    3.3040   21.9330 C   0  0  0  0  0  0  0  0  0  0  0  0
    1.6720    2.4100   20.7240 C   0  0  0  0  0  0  0  0  0  0  0  0
    0.2110    1.9800   20.6550 C   0  0  0  0  0  0  0  0  0  0  0  0
    2.1180    3.0100   19.3900 C   0  0  0  0  0  0  0  0  0  0  0  0
    4.1230    2.8350   22.9280 N   0  0  0  0  0  0  0  0  0  0  0  0
    5.0540    1.8690   22.3790 C   0  0  0  0  0  0  0  0  0  0  0  0
    5.4070    1.8080   21.2000 O   0  0  0  0  0  0  0  0  0  0  0  0
    5.5230    0.9370   23.5050 C   0  0  1  0  0  0  0  0  0  0  0  0
    6.6150    0.1040   23.0060 N   0  0  0  0  0  0  0  0  0  0  0  0
    7.0600   -1.0140   23.6400 C   0  0  0  0  0  0  0  0  0  0  0  0
    6.3680   -1.9830   23.9340 O   0  0  0  0  0  0  0  0  0  0  0  0
    8.3860   -0.8710   23.8880 O   0  0  0  0  0  0  0  0  0  0  0  0
    9.2090   -1.8690   23.2900 C   0  0  0  0  0  0  0  0  0  0  0  0
   10.6140   -1.2510   23.1380 C   0  0  0  0  0  0  0  0  0  0  0  0
   10.7870    0.1070   23.3220 C   0  0  0  0  0  0  0  0  0  0  0  0
   12.0310    0.7050   23.1930 C   0  0  0  0  0  0  0  0  0  0  0  0
   13.1250   -0.0840   22.8720 C   0  0  0  0  0  0  0  0  0  0  0  0
   12.9690   -1.4500   22.6840 C   0  0  0  0  0  0  0  0  0  0  0  0
   11.7130   -2.0350   22.8170 C   0  0  0  0  0  0  0  0  0  0  0  0
    5.8730    1.7200   24.8090 C   0  0  1  0  0  0  0  0  0  0  0  0
    5.5270    0.9410   26.0800 C   0  0  0  0  0  0  0  0  0  0  0  0
    7.2830    2.0210   24.8720 O   0  0  0  0  0  0  0  0  0  0  0  0
    7.6960    3.3540   25.2290 C   0  0  0  0  0  0  0  0  0  0  0  0
    9.0530    3.5620   24.5520 C   0  0  0  0  0  0  0  0  0  0  0  0
    7.8820    3.5280   26.7460 C   0  0  0  0  0  0  0  0  0  0  0  0
    6.7200    4.4000   24.6660 C   0  0  0  0  0  0  0  0  0  0  0  0
  1  2  1  0
  2  3  1  0
  3  4  1  0
  4  5  2  0
  4  6  1  0
  6  7  2  3
  8  7  1  6
  8  9  1  0
 10  9  1  6
 10 11  1  0
 11 12  1  0
 12 13  1  0
 10 14  1  0
 13 14  1  0
 14 15  2  0
  8 16  1  0
 16 17  1  0
 17 18  2  0
 17 19  1  0
 19 20  1  1
 20 21  1  0
 21 22  1  0
 21 23  1  0
 19 24  1  0
 24 25  1  0
 25 26  2  0
 25 27  1  0
 27 28  1  6
 28 29  1  0
 29 30  2  0
 29 31  1  0
 31 32  1  0
 32 33  1  0
 33 34  2  0
 34 35  1  0
 35 36  2  0
 36 37  1  0
 33 38  1  0
 37 38  2  0
 27 39  1  0
 39 40  1  1
 39 41  1  0
 42 41  1  0
 42 43  1  0
 42 44  1  0
 42 45  1  0
M  END
