OLE-CAR-5b17bec5-13
     RDKit          3D

 22 25  0  0  0  0  0  0  0  0999 V2000
   14.8660   -5.0080   20.6830 C   0  0  0  0  0  0  0  0  0  0  0  0
   13.8830   -3.9560   20.1630 C   0  0  1  0  0  0  0  0  0  0  0  0
   12.5850   -4.6020   19.7200 C   0  0  0  0  0  0  0  0  0  0  0  0
   11.3980   -4.0990   20.3360 O   0  0  0  0  0  0  0  0  0  0  0  0
   11.8580   -3.0030   20.9080 C   0  0  0  0  0  0  0  0  0  0  0  0
   13.2460   -2.8200   20.7760 C   0  0  0  0  0  0  0  0  0  0  0  0
   13.5850   -1.5810   21.1300 C   0  0  0  0  0  0  0  0  0  0  0  0
   14.1740   -0.9240   20.3100 O   0  0  0  0  0  0  0  0  0  0  0  0
   13.1220   -1.0750   22.2470 C   0  0  0  0  0  0  0  0  0  0  0  0
   13.8170   -0.5720   23.0830 O   0  0  0  0  0  0  0  0  0  0  0  0
   11.8030   -1.1720   22.3390 C   0  0  0  0  0  0  0  0  0  0  0  0
   11.0860   -2.1020   21.6500 C   0  0  0  0  0  0  0  0  0  0  0  0
    9.7170   -2.2380   21.6930 C   0  0  0  0  0  0  0  0  0  0  0  0
    8.9740   -1.3430   22.6020 C   0  0  0  0  0  0  0  0  0  0  0  0
    9.8000   -0.3740   23.3680 C   0  0  0  0  0  0  0  0  0  0  0  0
   11.2320   -0.3360   23.1450 C   0  0  0  0  0  0  0  0  0  0  0  0
   11.9540    0.6990   23.9030 C   0  0  0  0  0  0  0  0  0  0  0  0
   11.0830    1.9230   23.7130 C   0  0  0  0  0  0  0  0  0  0  0  0
    9.6770    1.7690   24.2930 C   0  0  0  0  0  0  0  0  0  0  0  0
    9.1390    0.4950   24.3200 C   0  0  0  0  0  0  0  0  0  0  0  0
    7.8040    0.2690   24.0460 C   0  0  0  0  0  0  0  0  0  0  0  0
    9.3620   -0.0640   25.7480 C   0  0  0  0  0  0  0  0  0  0  0  0
  2  1  1  1
  2  3  1  0
  3  4  1  0
  4  5  1  0
  2  6  1  0
  5  6  2  0
  6  7  1  0
  7  8  2  0
  7  9  1  0
  9 10  2  0
  9 11  1  0
  5 12  1  0
 11 12  2  0
 12 13  1  0
 13 14  2  0
 14 15  1  0
 11 16  1  0
 15 16  2  0
 16 17  1  0
 17 18  1  0
 18 19  1  0
 15 20  1  0
 19 20  1  0
 20 21  1  0
 20 22  1  0
M  END
