OLE-CAR-5b17bec5-11
     RDKit          3D

 41 42  0  0  0  0  0  0  0  0999 V2000
    3.3970    9.4210   17.6460 C   0  0  0  0  0  0  0  0  0  0  0  0
    3.8260    8.1950   18.4120 C   0  0  0  0  0  0  0  0  0  0  0  0
    2.9940    7.4700   18.9410 O   0  0  0  0  0  0  0  0  0  0  0  0
    3.3920    6.7270   20.0440 C   0  0  0  0  0  0  0  0  0  0  0  0
    3.5690    7.2540   21.1360 O   0  0  0  0  0  0  0  0  0  0  0  0
    3.5960    5.3370   19.9650 C   0  0  0  0  0  0  0  0  0  0  0  0
    2.6420    4.4280   19.4870 C   0  0  0  0  0  0  0  0  0  0  0  0
    2.7850    3.0460   19.4050 C   0  0  2  0  0  0  0  0  0  0  0  0
    2.0100    2.2990   20.3360 C   0  0  0  0  0  0  0  0  0  0  0  0
    0.5550    2.8020   20.3900 C   0  0  2  0  0  0  0  0  0  0  0  0
    0.4580    3.8370   21.5170 C   0  0  0  0  0  0  0  0  0  0  0  0
   -0.6980    3.5620   22.4200 C   0  0  0  0  0  0  0  0  0  0  0  0
   -1.3670    2.5120   21.7180 N   0  0  0  0  0  0  0  0  0  0  0  0
   -0.5030    1.8130   20.8890 C   0  0  0  0  0  0  0  0  0  0  0  0
   -0.6290    0.6240   20.6410 O   0  0  0  0  0  0  0  0  0  0  0  0
    4.1280    2.7080   19.5050 N   0  0  0  0  0  0  0  0  0  0  0  0
    4.5780    1.3870   19.3860 C   0  0  0  0  0  0  0  0  0  0  0  0
    3.9020    0.4320   19.7360 O   0  0  0  0  0  0  0  0  0  0  0  0
    6.0000    1.2110   18.7860 C   0  0  2  0  0  0  0  0  0  0  0  0
    5.9520    0.8320   17.2840 C   0  0  0  0  0  0  0  0  0  0  0  0
    7.0970    1.3620   16.3620 C   0  0  0  0  0  0  0  0  0  0  0  0
    6.7620    2.5560   15.5680 C   0  0  0  0  0  0  0  0  0  0  0  0
    7.6700    0.6840   15.1450 C   0  0  0  0  0  0  0  0  0  0  0  0
    6.6990    0.1870   19.5730 N   0  0  0  0  0  0  0  0  0  0  0  0
    7.6220    0.5190   20.6560 C   0  0  0  0  0  0  0  0  0  0  0  0
    8.3050    1.5510   20.7660 O   0  0  0  0  0  0  0  0  0  0  0  0
    7.6170   -0.6630   21.6330 C   0  0  1  0  0  0  0  0  0  0  0  0
    7.4480   -0.2110   23.0110 N   0  0  0  0  0  0  0  0  0  0  0  0
    7.3490   -1.0810   24.0540 C   0  0  0  0  0  0  0  0  0  0  0  0
    6.2990   -1.4330   24.5820 O   0  0  0  0  0  0  0  0  0  0  0  0
    8.5870   -1.4860   24.4120 O   0  0  0  0  0  0  0  0  0  0  0  0
    9.3450   -2.1640   23.4170 C   0  0  0  0  0  0  0  0  0  0  0  0
   10.6970   -1.4330   23.2350 C   0  0  0  0  0  0  0  0  0  0  0  0
   10.7810   -0.0530   23.2450 C   0  0  0  0  0  0  0  0  0  0  0  0
   11.9950    0.6030   23.0770 C   0  0  0  0  0  0  0  0  0  0  0  0
   13.1620   -0.1380   22.8970 C   0  0  0  0  0  0  0  0  0  0  0  0
   13.0910   -1.5200   22.8860 C   0  0  0  0  0  0  0  0  0  0  0  0
   11.8680   -2.1610   23.0530 C   0  0  0  0  0  0  0  0  0  0  0  0
    6.5680   -1.7220   21.2250 C   0  0  0  0  0  0  0  0  0  0  0  0
    6.6160   -3.0050   22.0640 C   0  0  0  0  0  0  0  0  0  0  0  0
    5.1550   -1.1810   21.2550 C   0  0  0  0  0  0  0  0  0  0  0  0
  1  2  1  0
  2  3  1  0
  3  4  1  0
  4  5  2  0
  4  6  1  0
  6  7  2  3
  8  7  1  1
  8  9  1  0
 10  9  1  1
 10 11  1  0
 11 12  1  0
 12 13  1  0
 10 14  1  0
 13 14  1  0
 14 15  2  0
  8 16  1  0
 16 17  1  0
 17 18  2  0
 17 19  1  0
 19 20  1  6
 20 21  1  0
 21 22  1  0
 21 23  1  0
 19 24  1  0
 24 25  1  0
 25 26  2  0
 25 27  1  0
 27 28  1  1
 28 29  1  0
 29 30  2  0
 29 31  1  0
 31 32  1  0
 32 33  1  0
 33 34  2  0
 34 35  1  0
 35 36  2  0
 36 37  1  0
 33 38  1  0
 37 38  2  0
 27 39  1  0
 39 40  1  0
 39 41  1  0
M  END
