OLE-CAR-5b17bec5-10
     RDKit          3D

 43 45  0  0  0  0  0  0  0  0999 V2000
    5.6820   -5.3660   26.5360 C   0  0  0  0  0  0  0  0  0  0  0  0
    5.6420   -4.8760   25.1390 C   0  0  2  0  0  0  0  0  0  0  0  0
    6.4970   -5.2980   24.3640 O   0  0  0  0  0  0  0  0  0  0  0  0
    6.0960   -6.1230   23.3440 C   0  0  0  0  0  0  0  0  0  0  0  0
    6.8400   -6.6730   22.3270 C   0  0  0  0  0  0  0  0  0  0  0  0
    6.0750   -5.4660   21.9710 C   0  0  0  0  0  0  0  0  0  0  0  0
    4.7590   -6.7880   23.6150 C   0  0  0  0  0  0  0  0  0  0  0  0
    5.5980   -3.4840   24.9700 C   0  0  2  0  0  0  0  0  0  0  0  0
    4.3950   -3.1160   24.6460 N   0  0  0  0  0  0  0  0  0  0  0  0
    3.6860   -3.8380   23.6950 C   0  0  0  0  0  0  0  0  0  0  0  0
    4.0330   -3.8030   22.5100 O   0  0  0  0  0  0  0  0  0  0  0  0
    2.7170   -4.4900   24.0980 O   0  0  0  0  0  0  0  0  0  0  0  0
    2.3500   -5.6670   23.3580 C   0  0  0  0  0  0  0  0  0  0  0  0
    2.1590   -6.8120   24.0350 C   0  0  0  0  0  0  0  0  0  0  0  0
    1.3030   -7.8090   23.5660 C   0  0  0  0  0  0  0  0  0  0  0  0
    1.0820   -9.0100   24.2380 C   0  0  0  0  0  0  0  0  0  0  0  0
    1.7320   -9.2680   25.4450 C   0  0  0  0  0  0  0  0  0  0  0  0
    2.5950   -8.2810   25.9360 C   0  0  0  0  0  0  0  0  0  0  0  0
    2.8000   -7.0960   25.2540 C   0  0  0  0  0  0  0  0  0  0  0  0
    6.4160   -3.0400   23.9780 C   0  0  0  0  0  0  0  0  0  0  0  0
    5.9950   -2.7540   22.8590 O   0  0  0  0  0  0  0  0  0  0  0  0
    7.7310   -2.9310   24.3090 N   0  0  0  0  0  0  0  0  0  0  0  0
    8.4140   -1.7740   24.0520 C   0  0  1  0  0  0  0  0  0  0  0  0
    9.2560   -1.8300   22.7960 C   0  0  0  0  0  0  0  0  0  0  0  0
   10.6240   -1.7220   23.1040 C   0  0  0  0  0  0  0  0  0  0  0  0
   11.0640   -0.6330   23.8130 C   0  0  0  0  0  0  0  0  0  0  0  0
   12.1890    0.0670   23.3300 C   0  0  0  0  0  0  0  0  0  0  0  0
   13.2200   -0.6490   22.7980 C   0  0  0  0  0  0  0  0  0  0  0  0
   12.8270   -1.7810   22.1220 C   0  0  0  0  0  0  0  0  0  0  0  0
   11.4170   -1.9620   22.0020 C   0  0  0  0  0  0  0  0  0  0  0  0
    7.4940   -0.7090   23.9410 C   0  0  0  0  0  0  0  0  0  0  0  0
    6.3650   -0.7530   24.4290 O   0  0  0  0  0  0  0  0  0  0  0  0
    7.9440    0.3840   23.2690 N   0  0  0  0  0  0  0  0  0  0  0  0
    7.1950    1.5060   23.5100 C   0  0  2  0  0  0  0  0  0  0  0  0
    5.8220    1.7160   22.8560 C   0  0  0  0  0  0  0  0  0  0  0  0
    5.5240    2.6360   22.0910 O   0  0  0  0  0  0  0  0  0  0  0  0
    8.0560    2.7520   23.1790 C   0  0  0  0  0  0  0  0  0  0  0  0
    8.5820    3.5360   24.3980 C   0  0  2  0  0  0  0  0  0  0  0  0
    7.6840    4.1900   25.2540 C   0  0  0  0  0  0  0  0  0  0  0  0
    8.0690    5.4600   25.6800 C   0  0  0  0  0  0  0  0  0  0  0  0
    9.0890    5.7960   24.7310 N   0  0  0  0  0  0  0  0  0  0  0  0
    9.5380    4.6710   24.0670 C   0  0  0  0  0  0  0  0  0  0  0  0
   10.5230    4.6050   23.3540 O   0  0  0  0  0  0  0  0  0  0  0  0
  2  1  1  1
  2  3  1  0
  4  3  1  0
  4  5  1  0
  4  6  1  0
  4  7  1  0
  2  8  1  0
  8  9  1  6
  9 10  1  0
 10 11  2  0
 10 12  1  0
 12 13  1  0
 13 14  1  0
 14 15  2  0
 15 16  1  0
 16 17  2  0
 17 18  1  0
 14 19  1  0
 18 19  2  0
  8 20  1  0
 20 21  2  0
 20 22  1  0
 22 23  1  0
 23 24  1  6
 24 25  1  0
 25 26  1  0
 26 27  1  0
 27 28  1  0
 28 29  1  0
 25 30  1  0
 29 30  1  0
 23 31  1  0
 31 32  2  0
 31 33  1  0
 33 34  1  0
 34 35  1  6
 35 36  2  0
 34 37  1  0
 38 37  1  6
 38 39  1  0
 39 40  1  0
 40 41  1  0
 38 42  1  0
 41 42  1  0
 42 43  2  0
M  END
