ORN-MSD-f9d8c68a-1
     RDKit          3D

 25 27  0  0  0  0  0  0  0  0999 V2000
    9.1090    6.1890   22.7070 N   0  0  0  0  0  0  0  0  0  0  0  0
   10.2360    6.0820   23.3250 C   0  0  0  0  0  0  0  0  0  0  0  0
   10.3080    6.3100   24.7330 O   0  0  0  0  0  0  0  0  0  0  0  0
   11.3210    5.7450   22.5740 N   0  0  0  0  0  0  0  0  0  0  0  0
   12.4780    5.0710   23.1500 C   0  0  0  0  0  0  0  0  0  0  0  0
   12.6750    3.8370   22.6370 C   0  0  0  0  0  0  0  0  0  0  0  0
   11.7840    2.6960   23.1810 C   0  0  0  0  0  0  0  0  0  0  0  0
   10.5750    2.7540   23.8990 C   0  0  0  0  0  0  0  0  0  0  0  0
   10.0610    1.5500   24.2090 N   0  0  0  0  0  0  0  0  0  0  0  0
   10.9000    0.5220   23.7910 C   0  0  1  0  0  0  0  0  0  0  0  0
   10.3710   -0.4640   22.9990 C   0  0  0  0  0  0  0  0  0  0  0  0
    8.8630   -0.4760   22.9280 C   0  0  0  0  0  0  0  0  0  0  0  0
    8.4980    0.6140   21.9110 C   0  0  0  0  0  0  0  0  0  0  0  0
    7.1870    0.3630   21.2580 N   0  0  0  0  0  0  0  0  0  0  0  0
    6.6400    1.4640   20.4510 C   0  0  0  0  0  0  0  0  0  0  0  0
    6.1470    1.0920   19.1590 C   0  0  0  0  0  0  0  0  0  0  0  0
    5.1340    0.0070   19.0520 C   0  0  0  0  0  0  0  0  0  0  0  0
    4.7920   -0.5730   20.0670 O   0  0  0  0  0  0  0  0  0  0  0  0
    5.8060   -1.3970   20.6390 C   0  0  0  0  0  0  0  0  0  0  0  0
    7.0960   -0.8500   20.6780 C   0  0  0  0  0  0  0  0  0  0  0  0
   11.2600   -1.3020   22.3310 C   0  0  0  0  0  0  0  0  0  0  0  0
   12.6150   -1.0340   22.5030 C   0  0  0  0  0  0  0  0  0  0  0  0
   13.5250   -1.9750   22.3010 F   0  0  0  0  0  0  0  0  0  0  0  0
   12.9300    0.2730   22.8790 C   0  0  0  0  0  0  0  0  0  0  0  0
   11.9170    1.2070   23.0580 C   0  0  2  0  0  0  0  0  0  0  0  0
  1  2  1  0
  2  3  2  0
  2  4  1  0
  4  5  1  0
  5  6  1  0
  6  7  1  0
  7  8  2  0
  8  9  1  0
 10  9  1  6
 10 11  1  0
 11 12  1  0
 12 13  1  0
 13 14  1  0
 14 15  1  0
 15 16  1  0
 16 17  1  0
 17 18  1  0
 18 19  1  0
 14 20  1  0
 19 20  1  0
 11 21  2  0
 21 22  1  0
 22 23  1  0
 22 24  2  0
  7 25  1  0
 10 25  1  0
 25 24  1  1
M  END
