ORN-MSD-5b974918-1
     RDKit          3D

 25 27  0  0  0  0  0  0  0  0999 V2000
    9.1440    6.3540   22.6020 N   0  0  0  0  0  0  0  0  0  0  0  0
   10.2440    6.2130   23.3950 C   0  0  0  0  0  0  0  0  0  0  0  0
   10.2080    6.3970   24.6060 O   0  0  0  0  0  0  0  0  0  0  0  0
   11.3510    5.8440   22.6490 N   0  0  0  0  0  0  0  0  0  0  0  0
   12.5310    5.2850   23.2950 C   0  0  0  0  0  0  0  0  0  0  0  0
   12.8310    3.9830   22.8680 C   0  0  0  0  0  0  0  0  0  0  0  0
   11.8920    2.9710   23.0290 C   0  0  0  0  0  0  0  0  0  0  0  0
   10.5800    3.2430   23.3350 C   0  0  0  0  0  0  0  0  0  0  0  0
    9.9290    2.0750   23.3550 N   0  0  0  0  0  0  0  0  0  0  0  0
   10.7220    1.0130   23.0860 C   0  0  0  0  0  0  0  0  0  0  0  0
   10.3220   -0.3670   22.9870 C   0  0  0  0  0  0  0  0  0  0  0  0
    9.0300   -0.6330   23.1170 C   0  0  0  0  0  0  0  0  0  0  0  0
    8.4370    0.0950   21.9890 C   0  0  0  0  0  0  0  0  0  0  0  0
    6.9750    0.3010   22.0700 N   0  0  0  0  0  0  0  0  0  0  0  0
    6.5330    0.8970   23.3390 C   0  0  0  0  0  0  0  0  0  0  0  0
    5.1580    1.4340   23.3620 C   0  0  0  0  0  0  0  0  0  0  0  0
    4.7820    2.4080   22.4270 C   0  0  0  0  0  0  0  0  0  0  0  0
    4.2900    1.9240   21.4140 O   0  0  0  0  0  0  0  0  0  0  0  0
    5.1050    1.0070   20.6610 C   0  0  0  0  0  0  0  0  0  0  0  0
    6.4910    0.9570   20.8410 C   0  0  0  0  0  0  0  0  0  0  0  0
   11.3040   -1.3190   22.7270 C   0  0  0  0  0  0  0  0  0  0  0  0
   12.7230   -0.8350   22.5550 C   0  0  0  0  0  0  0  0  0  0  0  0
   13.6720   -1.7150   22.3010 F   0  0  0  0  0  0  0  0  0  0  0  0
   12.9820    0.5410   22.6540 C   0  0  0  0  0  0  0  0  0  0  0  0
   12.0030    1.5110   22.9080 C   0  0  0  0  0  0  0  0  0  0  0  0
  1  2  1  0
  2  3  2  0
  2  4  1  0
  4  5  1  0
  5  6  1  0
  6  7  1  0
  7  8  2  0
  8  9  1  0
  9 10  1  0
 10 11  1  0
 11 12  1  0
 12 13  1  0
 13 14  1  0
 14 15  1  0
 15 16  1  0
 16 17  1  0
 17 18  1  0
 18 19  1  0
 14 20  1  0
 19 20  1  0
 11 21  2  0
 21 22  1  0
 22 23  1  0
 22 24  2  0
  7 25  1  0
 10 25  2  0
 24 25  1  0
M  END
