PAF-PIO-d312ccf6-3
     RDKit          3D

 22 24  0  0  0  0  0  0  0  0999 V2000
    4.6500   -4.9680   27.4910 O   0  0  0  0  0  0  0  0  0  0  0  0
    4.6130   -4.7650   26.2820 C   0  0  0  0  0  0  0  0  0  0  0  0
    5.8100   -5.4930   26.1220 C   0  0  0  0  0  0  0  0  0  0  0  0
    6.4970   -6.2220   26.8040 O   0  0  0  0  0  0  0  0  0  0  0  0
    5.5430   -4.9170   24.9100 C   0  0  0  0  0  0  0  0  0  0  0  0
    4.2870   -4.0580   25.2720 C   0  0  0  0  0  0  0  0  0  0  0  0
    4.4870   -2.7470   25.7390 C   0  0  0  0  0  0  0  0  0  0  0  0
    3.3150   -1.8540   26.1290 C   0  0  0  0  0  0  0  0  0  0  0  0
    1.9540   -2.5140   25.9630 C   0  0  0  0  0  0  0  0  0  0  0  0
    0.8650   -1.6440   26.3350 O   0  0  0  0  0  0  0  0  0  0  0  0
    1.9080   -3.9370   25.4470 C   0  0  0  0  0  0  0  0  0  0  0  0
    3.0790   -4.6770   25.1140 C   0  0  0  0  0  0  0  0  0  0  0  0
    5.9050   -4.8320   23.6690 O   0  0  0  0  0  0  0  0  0  0  0  0
    4.6000   -4.8540   23.3850 C   0  0  0  0  0  0  0  0  0  0  0  0
    5.4120   -4.8590   22.3910 C   0  0  0  0  0  0  0  0  0  0  0  0
    4.9110   -4.8930   21.1180 O   0  0  0  0  0  0  0  0  0  0  0  0
    7.0200   -4.8140   22.4010 C   0  0  0  0  0  0  0  0  0  0  0  0
    7.5460   -4.7570   23.6700 O   0  0  0  0  0  0  0  0  0  0  0  0
    5.8360   -4.8570   22.0480 C   0  0  0  0  0  0  0  0  0  0  0  0
    6.3970   -4.7910   23.6390 C   0  0  0  0  0  0  0  0  0  0  0  0
    7.3880   -4.7890   22.6630 O   0  0  0  0  0  0  0  0  0  0  0  0
    5.0540   -4.8020   24.6600 C   0  0  0  0  0  0  0  0  0  0  0  0
  1  2  2  0
  2  3  1  0
  3  4  1  0
  3  5  2  0
  5  6  1  0
  6  7  2  0
  7  8  1  0
  8  9  2  0
  9 10  1  0
  9 11  1  0
  6 12  1  0
 11 12  2  0
  5 13  1  0
 13 14  1  0
 14 15  1  0
 15 16  1  0
 15 17  2  0
 17 18  1  0
 17 19  1  0
 19 20  2  0
 20 21  1  0
  2 22  1  0
 14 22  2  0
 20 22  1  0
M  END
