PAF-PIO-d312ccf6-1
     RDKit          3D

 23 24  0  0  0  0  0  0  0  0999 V2000
    1.1580   -8.7770   21.1150 C   0  0  0  0  0  0  0  0  0  0  0  0
   -0.0380   -8.0860   21.3100 C   0  0  0  0  0  0  0  0  0  0  0  0
    0.1000   -6.9210   22.2080 N   0  0  0  0  0  0  0  0  0  0  0  0
   -0.9690   -5.9090   22.0860 C   0  0  0  0  0  0  0  0  0  0  0  0
   -1.7670   -5.9750   20.8150 C   0  0  0  0  0  0  0  0  0  0  0  0
   -3.1540   -6.1320   21.1290 O   0  0  0  0  0  0  0  0  0  0  0  0
    0.4210   -7.1590   23.5940 C   0  0  0  0  0  0  0  0  0  0  0  0
    1.6550   -6.7360   24.0960 C   0  0  0  0  0  0  0  0  0  0  0  0
    2.5120   -7.7040   24.6210 C   0  0  0  0  0  0  0  0  0  0  0  0
    3.7030   -7.2990   25.2190 C   0  0  2  0  0  0  0  0  0  0  0  0
    3.5290   -7.2480   26.6010 C   0  0  0  0  0  0  0  0  0  0  0  0
    4.3720   -6.1930   24.8250 N   0  0  0  0  0  0  0  0  0  0  0  0
    4.6110   -5.2520   25.7660 C   0  0  0  0  0  0  0  0  0  0  0  0
    5.7550   -5.2770   26.5450 C   0  0  0  0  0  0  0  0  0  0  0  0
    6.0270   -4.2990   27.5240 C   0  0  0  0  0  0  0  0  0  0  0  0
    5.0600   -3.2210   27.7110 N   0  0  0  0  0  0  0  0  0  0  0  0
    3.9150   -3.2410   26.9080 C   0  0  0  0  0  0  0  0  0  0  0  0
    2.9800   -2.2200   27.0890 C   0  0  0  0  0  0  0  0  0  0  0  0
    1.8070   -2.1870   26.3330 C   0  0  0  0  0  0  0  0  0  0  0  0
    0.6540   -0.9360   26.5680 Cl  0  0  0  0  0  0  0  0  0  0  0  0
    1.5570   -3.1660   25.3870 C   0  0  0  0  0  0  0  0  0  0  0  0
    2.4820   -4.1740   25.1940 C   0  0  0  0  0  0  0  0  0  0  0  0
    3.6660   -4.2240   25.9510 C   0  0  0  0  0  0  0  0  0  0  0  0
  1  2  1  0
  2  3  1  0
  3  4  1  0
  4  5  1  0
  5  6  1  0
  3  7  1  0
  7  8  1  0
  8  9  1  0
  9 10  1  0
 10 11  1  1
 10 12  1  0
 12 13  1  0
 13 14  2  0
 14 15  1  0
 15 16  2  0
 16 17  1  0
 17 18  1  0
 18 19  2  0
 19 20  1  0
 19 21  1  0
 21 22  2  0
 13 23  1  0
 17 23  2  0
 22 23  1  0
M  END
