PAT-GYR-de8eec61-2
     RDKit          3D

 32 34  0  0  0  0  0  0  0  0999 V2000
   13.5860   -2.7900   22.9690 O   0  0  0  0  0  0  0  0  0  0  0  0
   13.4330   -2.0870   23.9670 C   0  0  0  0  0  0  0  0  0  0  0  0
   13.8640   -2.5600   25.1530 C   0  0  0  0  0  0  0  0  0  0  0  0
   13.3630   -3.8530   25.6150 C   0  0  0  0  0  0  0  0  0  0  0  0
   14.2230   -4.8300   26.4990 C   0  0  0  0  0  0  0  0  0  0  0  0
   13.9860   -4.5990   27.4960 C   0  0  0  0  0  0  0  0  0  0  0  0
   14.5000   -5.0770   28.8020 C   0  0  0  0  0  0  0  0  0  0  0  0
   15.4120   -5.9880   29.2490 C   0  0  0  0  0  0  0  0  0  0  0  0
   16.5210   -6.2630   31.5020 C   0  0  0  0  0  0  0  0  0  0  0  0
   16.7110   -5.1620   32.3890 N   0  0  0  0  0  0  0  0  0  0  0  0
   17.3380   -5.2730   33.7100 C   0  0  0  0  0  0  0  0  0  0  0  0
   16.6320   -5.4180   34.8770 O   0  0  0  0  0  0  0  0  0  0  0  0
   18.7290   -5.2280   33.7120 N   0  0  0  0  0  0  0  0  0  0  0  0
   19.4430   -6.4500   33.8210 C   0  0  0  0  0  0  0  0  0  0  0  0
   20.6410   -6.2580   34.5100 C   0  0  0  0  0  0  0  0  0  0  0  0
   21.3660   -5.1330   34.2930 O   0  0  0  0  0  0  0  0  0  0  0  0
   20.6110   -4.0220   33.8610 C   0  0  0  0  0  0  0  0  0  0  0  0
   19.3350   -4.1710   34.4110 C   0  0  0  0  0  0  0  0  0  0  0  0
   15.7630   -6.4460   27.7480 C   0  0  0  0  0  0  0  0  0  0  0  0
   15.0280   -5.7490   26.5130 C   0  0  0  0  0  0  0  0  0  0  0  0
   12.8220   -0.8250   23.8740 N   0  0  0  0  0  0  0  0  0  0  0  0
   12.9110   -0.0250   22.7720 C   0  0  0  0  0  0  0  0  0  0  0  0
   12.1470    1.1440   22.8950 C   0  0  0  0  0  0  0  0  0  0  0  0
   10.6140    1.1780   23.0550 C   0  0  0  0  0  0  0  0  0  0  0  0
    9.9860    2.4400   23.2310 C   0  0  0  0  0  0  0  0  0  0  0  0
   10.7380    3.6360   23.2480 C   0  0  0  0  0  0  0  0  0  0  0  0
   10.1290    4.9080   23.4620 C   0  0  0  0  0  0  0  0  0  0  0  0
   10.7940    6.0070   23.0670 F   0  0  0  0  0  0  0  0  0  0  0  0
    9.9140    5.1460   24.7940 F   0  0  0  0  0  0  0  0  0  0  0  0
    8.8870    5.0090   22.9080 F   0  0  0  0  0  0  0  0  0  0  0  0
   12.1240    3.5760   23.0580 C   0  0  0  0  0  0  0  0  0  0  0  0
   12.7960    2.3650   22.8870 C   0  0  0  0  0  0  0  0  0  0  0  0
  1  2  2  0
  2  3  1  0
  3  4  3  0
  4  5  1  0
  5  6  2  0
  6  7  1  0
  7  8  2  0
  8  9  1  0
  9 10  1  0
 10 11  1  0
 11 12  2  0
 11 13  1  0
 13 14  1  0
 14 15  1  0
 15 16  1  0
 16 17  1  0
 13 18  1  0
 17 18  1  0
  8 19  1  0
  5 20  1  0
 19 20  2  0
  2 21  1  0
 21 22  1  0
 22 23  1  0
 23 24  2  0
 24 25  1  0
 25 26  2  0
 26 27  1  0
 27 28  1  0
 27 29  1  0
 27 30  1  0
 26 31  1  0
 23 32  1  0
 31 32  2  0
M  END
