PAT-GYR-359dbb24-1
     RDKit          3D

 18 19  0  0  0  0  0  0  0  0999 V2000
   13.6220   -1.4510   20.7420 C   0  0  0  0  0  0  0  0  0  0  0  0
   13.2300   -1.9230   21.8940 C   0  0  0  0  0  0  0  0  0  0  0  0
   12.2880   -1.2050   22.7130 C   0  0  0  0  0  0  0  0  0  0  0  0
   12.6020    0.2680   23.0640 C   0  0  0  0  0  0  0  0  0  0  0  0
   11.6700    0.9110   23.8560 C   0  0  0  0  0  0  0  0  0  0  0  0
   10.5220    0.2270   24.2980 C   0  0  0  0  0  0  0  0  0  0  0  0
    9.5950    0.8500   25.0950 C   0  0  0  0  0  0  0  0  0  0  0  0
    8.2830    0.5800   24.6030 N   0  0  0  0  0  0  0  0  0  0  0  0
    7.6440    1.5780   23.9540 C   0  0  0  0  0  0  0  0  0  0  0  0
    8.2260    2.5770   23.5290 O   0  0  0  0  0  0  0  0  0  0  0  0
    6.3020    1.4020   23.8030 N   0  0  0  0  0  0  0  0  0  0  0  0
    5.5880    0.8560   24.8690 C   0  0  0  0  0  0  0  0  0  0  0  0
    4.0920    0.6670   24.8100 C   0  0  0  0  0  0  0  0  0  0  0  0
    3.4930    1.3840   23.7230 O   0  0  0  0  0  0  0  0  0  0  0  0
    4.3630    1.5200   22.5860 C   0  0  0  0  0  0  0  0  0  0  0  0
    5.5180    2.2160   22.8770 C   0  0  0  0  0  0  0  0  0  0  0  0
   10.2830   -1.0990   23.9510 C   0  0  0  0  0  0  0  0  0  0  0  0
   11.1500   -1.8080   23.1680 C   0  0  0  0  0  0  0  0  0  0  0  0
  1  2  3  0
  2  3  1  0
  3  4  2  0
  4  5  1  0
  5  6  2  0
  6  7  1  0
  7  8  1  0
  8  9  1  0
  9 10  2  0
  9 11  1  0
 11 12  1  0
 12 13  1  0
 13 14  1  0
 14 15  1  0
 11 16  1  0
 15 16  1  0
  6 17  1  0
  3 18  1  0
 17 18  2  0
M  END
