PAT-GYR-de8eec61-1
     RDKit          3D

 28 30  0  0  0  0  0  0  0  0999 V2000
   13.7470   -1.5140   20.7610 O   0  0  0  0  0  0  0  0  0  0  0  0
   13.1750   -1.3230   21.8170 C   0  0  0  0  0  0  0  0  0  0  0  0
   13.4940   -0.0150   22.6760 C   0  0  0  0  0  0  0  0  0  0  0  0
   12.8870    1.1330   22.0900 C   0  0  0  0  0  0  0  0  0  0  0  0
   12.5030    2.6310   22.3140 C   0  0  0  0  0  0  0  0  0  0  0  0
   11.1560    3.1270   22.2490 C   0  0  0  0  0  0  0  0  0  0  0  0
   10.7830    4.5110   22.5740 C   0  0  0  0  0  0  0  0  0  0  0  0
   11.8760    5.4260   22.9400 C   0  0  0  0  0  0  0  0  0  0  0  0
   11.5070    6.7170   23.2550 C   0  0  0  0  0  0  0  0  0  0  0  0
   10.3060    7.0120   22.4690 N   0  0  0  0  0  0  0  0  0  0  0  0
    9.0570    7.4920   23.0660 C   0  0  0  0  0  0  0  0  0  0  0  0
    8.9050    8.4540   23.8130 O   0  0  0  0  0  0  0  0  0  0  0  0
    7.9530    6.7510   22.7310 N   0  0  0  0  0  0  0  0  0  0  0  0
    6.7430    7.5320   22.4070 C   0  0  0  0  0  0  0  0  0  0  0  0
    5.6750    7.2320   23.2540 C   0  0  0  0  0  0  0  0  0  0  0  0
    5.3190    5.9310   23.5230 O   0  0  0  0  0  0  0  0  0  0  0  0
    6.4890    5.4190   24.1790 C   0  0  0  0  0  0  0  0  0  0  0  0
    7.6710    5.4340   23.2180 C   0  0  0  0  0  0  0  0  0  0  0  0
   13.1720    4.9610   22.9360 C   0  0  0  0  0  0  0  0  0  0  0  0
   13.5060    3.6540   22.6440 C   0  0  0  0  0  0  0  0  0  0  0  0
   12.1800   -2.1940   22.2890 N   0  0  0  0  0  0  0  0  0  0  0  0
   11.1250   -1.5520   22.8410 C   0  0  0  0  0  0  0  0  0  0  0  0
    9.7310   -2.2030   22.8100 C   0  0  0  0  0  0  0  0  0  0  0  0
    8.7670   -1.6720   21.9570 C   0  0  0  0  0  0  0  0  0  0  0  0
    7.4750   -2.2090   21.8990 C   0  0  0  0  0  0  0  0  0  0  0  0
    7.1390   -3.2940   22.7010 C   0  0  0  0  0  0  0  0  0  0  0  0
    8.1120   -3.8010   23.5340 C   0  0  0  0  0  0  0  0  0  0  0  0
    9.4010   -3.2890   23.6190 C   0  0  0  0  0  0  0  0  0  0  0  0
  1  2  2  0
  2  3  1  0
  3  4  3  0
  4  5  1  0
  5  6  2  0
  6  7  1  0
  7  8  2  0
  8  9  1  0
  9 10  1  0
 10 11  1  0
 11 12  2  0
 11 13  1  0
 13 14  1  0
 14 15  1  0
 15 16  1  0
 16 17  1  0
 13 18  1  0
 17 18  1  0
  8 19  1  0
  5 20  1  0
 19 20  2  0
  2 21  1  0
 21 22  1  0
 22 23  1  0
 23 24  2  0
 24 25  1  0
 25 26  2  0
 26 27  1  0
 23 28  1  0
 27 28  2  0
M  END
