PAT-GYR-359dbb24-2
     RDKit          3D

 19 20  0  0  0  0  0  0  0  0999 V2000
    7.7030    3.2360   24.4490 O   0  0  0  0  0  0  0  0  0  0  0  0
    7.3800    2.1060   24.1510 C   0  0  0  0  0  0  0  0  0  0  0  0
    8.3200    1.2000   23.8640 N   0  0  0  0  0  0  0  0  0  0  0  0
    9.3900    1.4850   23.0420 C   0  0  0  0  0  0  0  0  0  0  0  0
   10.4810    0.7250   23.2050 C   0  0  0  0  0  0  0  0  0  0  0  0
   11.7790    1.2040   23.0310 C   0  0  0  0  0  0  0  0  0  0  0  0
   12.7820    0.3320   23.2540 C   0  0  0  0  0  0  0  0  0  0  0  0
   12.5900   -0.9680   23.6340 C   0  0  0  0  0  0  0  0  0  0  0  0
   13.6200   -1.7850   23.8090 C   0  0  0  0  0  0  0  0  0  0  0  0
   13.4800   -2.1780   22.5780 C   0  0  0  0  0  0  0  0  0  0  0  0
   12.8180   -2.3010   20.9110 Br  0  0  0  0  0  0  0  0  0  0  0  0
   11.3450   -1.5120   23.8140 C   0  0  0  0  0  0  0  0  0  0  0  0
   10.2670   -0.7230   23.6150 C   0  0  0  0  0  0  0  0  0  0  0  0
    6.0880    1.7800   24.0680 N   0  0  0  0  0  0  0  0  0  0  0  0
    5.3690    1.0710   25.0430 C   0  0  0  0  0  0  0  0  0  0  0  0
    3.9870    0.5310   24.8180 C   0  0  0  0  0  0  0  0  0  0  0  0
    3.3500    1.2700   23.7780 O   0  0  0  0  0  0  0  0  0  0  0  0
    4.2210    1.5520   22.6690 C   0  0  0  0  0  0  0  0  0  0  0  0
    5.3690    2.4410   23.0470 C   0  0  0  0  0  0  0  0  0  0  0  0
  1  2  2  0
  2  3  1  0
  3  4  1  0
  4  5  1  0
  5  6  2  0
  6  7  1  0
  7  8  2  0
  8  9  1  0
  9 10  3  0
 10 11  1  0
  8 12  1  0
  5 13  1  0
 12 13  2  0
  2 14  1  0
 14 15  1  0
 15 16  1  0
 16 17  1  0
 17 18  1  0
 14 19  1  0
 18 19  1  0
M  END
