PAT-GYR-de8eec61-6
     RDKit          3D

 27 29  0  0  0  0  0  0  0  0999 V2000
   12.0030   -3.1430   24.2550 O   0  0  0  0  0  0  0  0  0  0  0  0
   12.4450   -2.0540   24.5870 C   0  0  0  0  0  0  0  0  0  0  0  0
   12.7100   -0.7030   24.6480 N   0  0  0  0  0  0  0  0  0  0  0  0
   12.8120    0.1300   23.4440 C   0  0  0  0  0  0  0  0  0  0  0  0
   12.0440    1.2940   23.5140 C   0  0  0  0  0  0  0  0  0  0  0  0
   10.7680    1.2470   24.0880 C   0  0  0  0  0  0  0  0  0  0  0  0
    9.9940    2.3960   24.1690 C   0  0  0  0  0  0  0  0  0  0  0  0
   10.5540    3.6780   23.6310 C   0  0  0  0  0  0  0  0  0  0  0  0
    9.6190    4.8750   23.7890 C   0  0  0  0  0  0  0  0  0  0  0  0
   10.0310    5.9840   22.8160 C   0  0  0  0  0  0  0  0  0  0  0  0
    8.9480    7.0510   22.9300 C   0  0  0  0  0  0  0  0  0  0  0  0
    7.9250    6.9700   21.7840 C   0  0  0  0  0  0  0  0  0  0  0  0
    6.9040    7.9360   21.8750 C   0  0  0  0  0  0  0  0  0  0  0  0
    6.8500    8.8720   22.9240 C   0  0  0  0  0  0  0  0  0  0  0  0
    7.8220    8.8610   23.9090 C   0  0  0  0  0  0  0  0  0  0  0  0
    7.8710    9.7600   25.0310 C   0  0  0  0  0  0  0  0  0  0  0  0
    8.2520   11.0390   24.7000 C   0  0  0  0  0  0  0  0  0  0  0  0
    7.8060   11.9420   25.7050 O   0  0  0  0  0  0  0  0  0  0  0  0
    8.8700    7.9850   23.9470 C   0  0  0  0  0  0  0  0  0  0  0  0
   11.8210    3.6980   23.0590 C   0  0  0  0  0  0  0  0  0  0  0  0
   12.5510    2.5090   23.0080 C   0  0  0  0  0  0  0  0  0  0  0  0
   11.7010   -1.4960   23.5250 N   0  0  0  0  0  0  0  0  0  0  0  0
   12.1470   -0.1950   23.0920 C   0  0  0  0  0  0  0  0  0  0  0  0
   13.3820   -0.4280   22.5000 C   0  0  0  0  0  0  0  0  0  0  0  0
   13.3100   -1.1800   21.2950 O   0  0  0  0  0  0  0  0  0  0  0  0
   12.5340   -2.3540   21.4800 C   0  0  0  0  0  0  0  0  0  0  0  0
   11.3820   -2.2100   22.2920 C   0  0  0  0  0  0  0  0  0  0  0  0
  1  2  2  0
  2  3  1  0
  3  4  1  0
  4  5  1  0
  5  6  2  0
  6  7  1  0
  7  8  2  0
  8  9  1  0
  9 10  3  0
 10 11  1  0
 11 12  2  0
 12 13  1  0
 13 14  2  0
 14 15  1  0
 15 16  1  0
 16 17  1  0
 17 18  1  0
 11 19  1  0
 15 19  2  0
  8 20  1  0
  5 21  1  0
 20 21  2  0
  2 22  1  0
 22 23  1  0
 23 24  1  0
 24 25  1  0
 25 26  1  0
 22 27  1  0
 26 27  1  0
M  END
