PAT-GYR-de8eec61-5
     RDKit          3D

 25 27  0  0  0  0  0  0  0  0999 V2000
   13.0200   -0.1140   23.1060 C   0  0  0  0  0  0  0  0  0  0  0  0
   12.1690    0.9740   23.0370 C   0  0  0  0  0  0  0  0  0  0  0  0
   10.7780    0.7930   23.1930 C   0  0  0  0  0  0  0  0  0  0  0  0
    9.8950    1.9920   23.1220 C   0  0  0  0  0  0  0  0  0  0  0  0
   10.5020    3.3290   22.8760 C   0  0  0  0  0  0  0  0  0  0  0  0
   11.8710    3.4140   22.7200 C   0  0  0  0  0  0  0  0  0  0  0  0
   12.4250    4.6530   22.4700 C   0  0  0  0  0  0  0  0  0  0  0  0
   12.9900    5.3270   23.5160 C   0  0  0  0  0  0  0  0  0  0  0  0
   12.0600    5.9920   24.3150 C   0  0  0  0  0  0  0  0  0  0  0  0
   10.9490    5.2430   25.0890 C   0  0  0  0  0  0  0  0  0  0  0  0
   10.0690    5.9750   25.8660 C   0  0  0  0  0  0  0  0  0  0  0  0
   10.1740    7.3830   25.9570 C   0  0  0  0  0  0  0  0  0  0  0  0
    9.2790    8.1090   26.7440 C   0  0  0  0  0  0  0  0  0  0  0  0
    8.3950    8.7640   25.9130 N   0  0  0  0  0  0  0  0  0  0  0  0
    8.7840   10.1090   25.7200 C   0  0  0  0  0  0  0  0  0  0  0  0
   10.0990   10.4890   25.7300 O   0  0  0  0  0  0  0  0  0  0  0  0
    7.7470   11.0460   25.5130 N   0  0  0  0  0  0  0  0  0  0  0  0
    6.4550   10.7780   26.1340 C   0  0  0  0  0  0  0  0  0  0  0  0
    5.6040   11.8720   26.3400 C   0  0  0  0  0  0  0  0  0  0  0  0
    5.6130   12.7630   25.3040 O   0  0  0  0  0  0  0  0  0  0  0  0
    6.9320   13.1560   24.9090 C   0  0  0  0  0  0  0  0  0  0  0  0
    7.7420   12.0800   24.4640 C   0  0  0  0  0  0  0  0  0  0  0  0
   11.1960    8.0380   25.2380 C   0  0  0  0  0  0  0  0  0  0  0  0
   12.1070    7.3670   24.4430 C   0  0  0  0  0  0  0  0  0  0  0  0
   12.6770    2.2660   22.8080 C   0  0  0  0  0  0  0  0  0  0  0  0
  1  2  1  0
  2  3  2  0
  3  4  1  0
  4  5  2  0
  5  6  1  0
  6  7  1  0
  7  8  3  0
  8  9  1  0
  9 10  2  0
 10 11  1  0
 11 12  2  0
 12 13  1  0
 13 14  1  0
 14 15  1  0
 15 16  2  0
 15 17  1  0
 17 18  1  0
 18 19  1  0
 19 20  1  0
 20 21  1  0
 17 22  1  0
 21 22  1  0
 12 23  1  0
  9 24  1  0
 23 24  2  0
  2 25  1  0
  6 25  2  0
M  END
