PAT-UNK-b2d83456-2
     RDKit          3D

 19 20  0  0  0  0  0  0  0  0999 V2000
   12.3720    3.8560   22.5490 C   0  0  0  0  0  0  0  0  0  0  0  0
   11.0720    3.4540   23.1660 C   0  0  0  0  0  0  0  0  0  0  0  0
   10.9640    2.4250   24.0140 C   0  0  0  0  0  0  0  0  0  0  0  0
   11.1160    1.0280   23.5400 C   0  0  0  0  0  0  0  0  0  0  0  0
   12.4150    0.6730   22.8620 C   0  0  0  0  0  0  0  0  0  0  0  0
   12.5560   -0.7490   22.3570 C   0  0  0  0  0  0  0  0  0  0  0  0
   11.5200   -1.6740   22.5280 C   0  0  0  0  0  0  0  0  0  0  0  0
   10.3030   -1.3340   23.1930 C   0  0  0  0  0  0  0  0  0  0  0  0
    9.3550   -2.3540   23.3690 C   0  0  0  0  0  0  0  0  0  0  0  0
    8.2790   -2.4150   22.4070 N   0  0  0  0  0  0  0  0  0  0  0  0
    7.0400   -2.8980   23.0800 C   0  0  0  0  0  0  0  0  0  0  0  0
    5.9760   -2.9630   22.2010 C   0  0  0  0  0  0  0  0  0  0  0  0
    6.1150   -2.2040   21.0380 N   0  0  0  0  0  0  0  0  0  0  0  0
    5.7420   -2.8170   19.7540 C   0  0  0  0  0  0  0  0  0  0  0  0
    5.9610   -1.9840   18.6700 C   0  0  0  0  0  0  0  0  0  0  0  0
    5.3060   -3.9730   19.6340 O   0  0  0  0  0  0  0  0  0  0  0  0
    6.8710   -0.9450   21.1600 C   0  0  0  0  0  0  0  0  0  0  0  0
    8.1470   -1.1940   21.6120 C   0  0  0  0  0  0  0  0  0  0  0  0
   10.0630   -0.0300   23.6950 C   0  0  0  0  0  0  0  0  0  0  0  0
  1  2  1  0
  2  3  3  0
  3  4  1  0
  4  5  2  0
  5  6  1  0
  6  7  2  0
  7  8  1  0
  8  9  1  0
  9 10  1  0
 10 11  1  0
 11 12  1  0
 12 13  1  0
 13 14  1  0
 14 15  1  0
 14 16  2  0
 13 17  1  0
 10 18  1  0
 17 18  1  0
  4 19  1  0
  8 19  2  0
M  END
