PAT-GYR-359dbb24-4
     RDKit          3D

 21 22  0  0  0  0  0  0  0  0999 V2000
   13.7660   -1.2630   20.5640 N   0  0  0  0  0  0  0  0  0  0  0  0
   12.8570   -2.1150   21.2980 C   0  0  0  0  0  0  0  0  0  0  0  0
   11.4770   -2.2650   21.1000 O   0  0  0  0  0  0  0  0  0  0  0  0
   13.3950   -2.7860   22.3280 C   0  0  0  0  0  0  0  0  0  0  0  0
   13.5020   -1.9560   23.3800 C   0  0  0  0  0  0  0  0  0  0  0  0
   12.5460   -0.9910   23.3020 C   0  0  0  0  0  0  0  0  0  0  0  0
   12.8540    0.2830   23.0750 C   0  0  0  0  0  0  0  0  0  0  0  0
   11.7960    1.2580   23.0050 C   0  0  0  0  0  0  0  0  0  0  0  0
   10.4750    0.8320   23.1800 C   0  0  0  0  0  0  0  0  0  0  0  0
    9.4440    1.7380   23.1430 C   0  0  0  0  0  0  0  0  0  0  0  0
    8.4110    1.2510   23.8980 N   0  0  0  0  0  0  0  0  0  0  0  0
    7.2120    1.8350   23.9150 C   0  0  0  0  0  0  0  0  0  0  0  0
    7.1230    3.0540   23.9920 O   0  0  0  0  0  0  0  0  0  0  0  0
    6.1870    1.0360   23.8180 N   0  0  0  0  0  0  0  0  0  0  0  0
    5.4860    1.0150   25.0180 C   0  0  0  0  0  0  0  0  0  0  0  0
    4.1800    0.5550   24.8420 C   0  0  0  0  0  0  0  0  0  0  0  0
    3.4620    1.4150   23.9520 O   0  0  0  0  0  0  0  0  0  0  0  0
    4.2280    1.7880   22.7980 C   0  0  0  0  0  0  0  0  0  0  0  0
    5.4210    1.1020   22.5970 C   0  0  0  0  0  0  0  0  0  0  0  0
   10.1870   -0.5120   23.4080 C   0  0  0  0  0  0  0  0  0  0  0  0
   11.2310   -1.4190   23.4660 C   0  0  0  0  0  0  0  0  0  0  0  0
  1  2  1  0
  2  3  2  0
  2  4  1  0
  4  5  3  0
  5  6  1  0
  6  7  2  0
  7  8  1  0
  8  9  2  0
  9 10  1  0
 10 11  1  0
 11 12  1  0
 12 13  2  0
 12 14  1  0
 14 15  1  0
 15 16  1  0
 16 17  1  0
 17 18  1  0
 14 19  1  0
 18 19  1  0
  9 20  1  0
  6 21  1  0
 20 21  2  0
M  END
