PAT-GYR-359dbb24-3
     RDKit          3D

 22 23  0  0  0  0  0  0  0  0999 V2000
   14.9570   -5.0140   20.2450 C   0  0  0  0  0  0  0  0  0  0  0  0
   13.7260   -4.2710   20.1020 O   0  0  0  0  0  0  0  0  0  0  0  0
   13.4470   -3.2620   21.0080 C   0  0  0  0  0  0  0  0  0  0  0  0
   13.1380   -3.4490   22.1410 O   0  0  0  0  0  0  0  0  0  0  0  0
   13.5590   -1.8090   20.7190 C   0  0  0  0  0  0  0  0  0  0  0  0
   13.5850   -1.3360   22.0040 C   0  0  0  0  0  0  0  0  0  0  0  0
   12.5270   -0.6430   22.3980 C   0  0  0  0  0  0  0  0  0  0  0  0
   12.7610    0.6760   22.6880 C   0  0  0  0  0  0  0  0  0  0  0  0
   11.7320    1.4670   23.0570 C   0  0  0  0  0  0  0  0  0  0  0  0
   10.4520    0.9280   23.1500 C   0  0  0  0  0  0  0  0  0  0  0  0
    9.3010    1.7610   23.5370 C   0  0  0  0  0  0  0  0  0  0  0  0
    8.3160    1.0320   24.2620 N   0  0  0  0  0  0  0  0  0  0  0  0
    7.2510    1.7650   24.2200 C   0  0  0  0  0  0  0  0  0  0  0  0
    7.3830    3.0550   24.6160 O   0  0  0  0  0  0  0  0  0  0  0  0
    6.1230    1.3850   23.7690 N   0  0  0  0  0  0  0  0  0  0  0  0
    5.4150    0.9450   24.8530 C   0  0  0  0  0  0  0  0  0  0  0  0
    4.0500    0.7080   24.7660 C   0  0  0  0  0  0  0  0  0  0  0  0
    3.4040    1.3500   23.7440 O   0  0  0  0  0  0  0  0  0  0  0  0
    4.1970    1.6050   22.5610 C   0  0  0  0  0  0  0  0  0  0  0  0
    5.4000    2.2070   22.8250 C   0  0  0  0  0  0  0  0  0  0  0  0
   10.1970   -0.5420   22.8500 C   0  0  0  0  0  0  0  0  0  0  0  0
   11.2830   -1.2860   22.4690 C   0  0  0  0  0  0  0  0  0  0  0  0
  1  2  1  0
  2  3  1  0
  3  4  2  0
  3  5  1  0
  5  6  3  0
  6  7  1  0
  7  8  2  0
  8  9  1  0
  9 10  2  0
 10 11  1  0
 11 12  1  0
 12 13  1  0
 13 14  2  0
 13 15  1  0
 15 16  1  0
 16 17  1  0
 17 18  1  0
 18 19  1  0
 15 20  1  0
 19 20  1  0
 10 21  1  0
  7 22  1  0
 21 22  2  0
M  END
