PAT-GYR-de8eec61-7
     RDKit          3D

 26 28  0  0  0  0  0  0  0  0999 V2000
   15.4450    1.2140   18.3950 O   0  0  0  0  0  0  0  0  0  0  0  0
   15.6720    2.2500   17.8260 C   0  0  0  0  0  0  0  0  0  0  0  0
   15.3970    3.4690   18.4760 N   0  0  0  0  0  0  0  0  0  0  0  0
   16.1110    3.2440   19.6370 C   0  0  0  0  0  0  0  0  0  0  0  0
   15.3600    3.5810   20.6810 C   0  0  0  0  0  0  0  0  0  0  0  0
   15.2320    4.8820   20.8740 C   0  0  0  0  0  0  0  0  0  0  0  0
   14.3750    5.4390   22.0640 C   0  0  0  0  0  0  0  0  0  0  0  0
   13.7740    4.5620   22.7550 C   0  0  0  0  0  0  0  0  0  0  0  0
   12.9530    4.6600   23.6710 C   0  0  0  0  0  0  0  0  0  0  0  0
   12.8970    3.2130   23.1640 C   0  0  0  0  0  0  0  0  0  0  0  0
   11.6850    2.5140   23.1660 C   0  0  0  0  0  0  0  0  0  0  0  0
   10.6000    3.3330   23.2670 C   0  0  0  0  0  0  0  0  0  0  0  0
    9.3700    2.7800   23.2940 C   0  0  0  0  0  0  0  0  0  0  0  0
    9.2340    1.3980   23.2190 C   0  0  0  0  0  0  0  0  0  0  0  0
   10.3660    0.5740   23.1130 C   0  0  0  0  0  0  0  0  0  0  0  0
   11.6330    1.1110   23.0810 C   0  0  0  0  0  0  0  0  0  0  0  0
   12.7680    0.2970   22.9820 C   0  0  0  0  0  0  0  0  0  0  0  0
   12.7670   -0.7670   23.9360 O   0  0  0  0  0  0  0  0  0  0  0  0
   13.9410    3.2130   22.4810 C   0  0  0  0  0  0  0  0  0  0  0  0
   14.7190    2.6980   21.5190 C   0  0  0  0  0  0  0  0  0  0  0  0
   16.2150    2.7970   16.5650 N   0  0  0  0  0  0  0  0  0  0  0  0
   15.7180    4.5030   16.6260 C   0  0  0  0  0  0  0  0  0  0  0  0
   15.6280    5.3340   14.8560 C   0  0  0  0  0  0  0  0  0  0  0  0
   15.8040    4.6770   13.4510 O   0  0  0  0  0  0  0  0  0  0  0  0
   16.3430    3.3370   13.1920 C   0  0  0  0  0  0  0  0  0  0  0  0
   16.7520    2.5160   14.5730 C   0  0  0  0  0  0  0  0  0  0  0  0
  1  2  2  0
  2  3  1  0
  3  4  1  0
  4  5  1  0
  5  6  2  0
  6  7  1  0
  7  8  2  0
  8  9  1  0
  9 10  3  0
 10 11  1  0
 11 12  2  0
 12 13  1  0
 13 14  2  0
 14 15  1  0
 11 16  1  0
 15 16  2  0
 16 17  1  0
 17 18  1  0
  8 19  1  0
  5 20  1  0
 19 20  2  0
  2 21  1  0
 21 22  1  0
 22 23  1  0
 23 24  1  0
 24 25  1  0
 21 26  1  0
 25 26  1  0
M  END
