PAT-GYR-de8eec61-3
     RDKit          3D

 29 31  0  0  0  0  0  0  0  0999 V2000
   13.9890   -2.6070   25.7310 C   0  0  0  0  0  0  0  0  0  0  0  0
   12.7020   -2.9400   25.5240 N   0  0  0  0  0  0  0  0  0  0  0  0
   11.8890   -2.2380   24.4310 C   0  0  0  0  0  0  0  0  0  0  0  0
   11.7950   -0.8240   23.8710 C   0  0  0  0  0  0  0  0  0  0  0  0
   10.5020   -0.2530   23.6070 C   0  0  0  0  0  0  0  0  0  0  0  0
   10.2660    1.0550   23.0820 C   0  0  0  0  0  0  0  0  0  0  0  0
   11.3520    1.8630   22.7960 C   0  0  0  0  0  0  0  0  0  0  0  0
   12.6200    1.3660   23.0210 C   0  0  0  0  0  0  0  0  0  0  0  0
   12.8580    0.0620   23.5390 C   0  0  0  0  0  0  0  0  0  0  0  0
   12.2220   -4.0790   26.4010 C   0  0  0  0  0  0  0  0  0  0  0  0
   11.2170   -4.7130   26.0900 O   0  0  0  0  0  0  0  0  0  0  0  0
   12.9110   -4.4690   27.7890 C   0  0  0  0  0  0  0  0  0  0  0  0
   12.2750   -5.1250   29.7430 C   0  0  0  0  0  0  0  0  0  0  0  0
   12.3790   -6.8360   31.9820 C   0  0  0  0  0  0  0  0  0  0  0  0
   13.2890   -8.5530   31.8700 C   0  0  0  0  0  0  0  0  0  0  0  0
   13.5120   -9.4490   33.0910 C   0  0  0  0  0  0  0  0  0  0  0  0
   13.0430   -9.0580   34.4450 C   0  0  0  0  0  0  0  0  0  0  0  0
   13.2620   -9.9160   35.5270 C   0  0  0  0  0  0  0  0  0  0  0  0
   12.7420  -11.2220   35.1820 N   0  0  0  0  0  0  0  0  0  0  0  0
   13.2390  -12.3610   35.7570 C   0  0  0  0  0  0  0  0  0  0  0  0
   14.5330  -12.7680   35.5590 O   0  0  0  0  0  0  0  0  0  0  0  0
   12.3520  -13.0640   36.5340 N   0  0  0  0  0  0  0  0  0  0  0  0
   11.2440  -12.4020   36.9580 C   0  0  0  0  0  0  0  0  0  0  0  0
   10.8910  -12.8120   38.3880 C   0  0  0  0  0  0  0  0  0  0  0  0
   10.7180  -14.2270   38.5570 O   0  0  0  0  0  0  0  0  0  0  0  0
   11.3980  -14.9930   37.5570 C   0  0  0  0  0  0  0  0  0  0  0  0
   12.5780  -14.3990   37.1200 C   0  0  0  0  0  0  0  0  0  0  0  0
   12.3950   -7.8470   34.6400 C   0  0  0  0  0  0  0  0  0  0  0  0
   12.0890   -6.8540   33.6530 C   0  0  0  0  0  0  0  0  0  0  0  0
  1  2  1  0
  2  3  1  0
  3  4  1  0
  4  5  2  0
  5  6  1  0
  6  7  2  0
  7  8  1  0
  4  9  1  0
  8  9  2  0
  2 10  1  0
 10 11  2  0
 10 12  1  0
 12 13  3  0
 13 14  1  0
 14 15  2  0
 15 16  1  0
 16 17  2  0
 17 18  1  0
 18 19  1  0
 19 20  1  0
 20 21  2  0
 20 22  1  0
 22 23  1  0
 23 24  1  0
 24 25  1  0
 25 26  1  0
 22 27  1  0
 26 27  1  0
 17 28  1  0
 14 29  1  0
 28 29  2  0
M  END
