PAT-GYR-de8eec61-4
     RDKit          3D

 24 26  0  0  0  0  0  0  0  0999 V2000
   10.3900    0.6140   22.2260 O   0  0  0  0  0  0  0  0  0  0  0  0
   10.4450   -0.5700   22.5030 C   0  0  0  0  0  0  0  0  0  0  0  0
   11.6060   -1.2440   22.9010 N   0  0  0  0  0  0  0  0  0  0  0  0
   12.4830   -0.4490   23.7750 C   0  0  0  0  0  0  0  0  0  0  0  0
   12.0110    1.0000   23.6240 C   0  0  0  0  0  0  0  0  0  0  0  0
   10.7510    1.3490   24.1070 C   0  0  0  0  0  0  0  0  0  0  0  0
   10.2620    2.6570   23.9950 C   0  0  0  0  0  0  0  0  0  0  0  0
   11.0090    3.6760   23.3960 C   0  0  0  0  0  0  0  0  0  0  0  0
   10.5070    4.9740   23.2980 C   0  0  0  0  0  0  0  0  0  0  0  0
    9.3860    5.4000   24.0220 C   0  0  0  0  0  0  0  0  0  0  0  0
    8.5000    6.4550   23.3980 C   0  0  0  0  0  0  0  0  0  0  0  0
    8.2370    7.7140   23.9070 C   0  0  0  0  0  0  0  0  0  0  0  0
    7.3850    8.5810   23.2060 C   0  0  0  0  0  0  0  0  0  0  0  0
    6.7860    8.1910   21.9800 C   0  0  0  0  0  0  0  0  0  0  0  0
    7.0310    6.9260   21.4310 C   0  0  0  0  0  0  0  0  0  0  0  0
    7.8630    6.0270   22.0830 C   0  0  0  0  0  0  0  0  0  0  0  0
   12.2750    3.4140   22.8890 C   0  0  0  0  0  0  0  0  0  0  0  0
   12.7950    2.1320   22.9800 C   0  0  0  0  0  0  0  0  0  0  0  0
    9.2640   -1.2850   22.4260 N   0  0  0  0  0  0  0  0  0  0  0  0
    8.1630   -0.8800   21.7570 C   0  0  0  0  0  0  0  0  0  0  0  0
    6.9550   -1.2190   22.5220 C   0  0  0  0  0  0  0  0  0  0  0  0
    6.9640   -2.5840   22.9620 O   0  0  0  0  0  0  0  0  0  0  0  0
    8.2340   -3.0020   23.5000 C   0  0  0  0  0  0  0  0  0  0  0  0
    9.3190   -2.7120   22.6680 C   0  0  0  0  0  0  0  0  0  0  0  0
  1  2  2  0
  2  3  1  0
  3  4  1  0
  4  5  1  0
  5  6  2  0
  6  7  1  0
  7  8  2  0
  8  9  1  0
  9 10  3  0
 10 11  1  0
 11 12  2  0
 12 13  1  0
 13 14  2  0
 14 15  1  0
 11 16  1  0
 15 16  2  0
  8 17  1  0
  5 18  1  0
 17 18  2  0
  2 19  1  0
 19 20  1  0
 20 21  1  0
 21 22  1  0
 22 23  1  0
 19 24  1  0
 23 24  1  0
M  END
