PAU-UNI-6d15a9f5-5
     RDKit          3D

 42 44  0  0  0  0  0  0  0  0999 V2000
    4.7560    7.9880  -11.7400 C   0  0  0  0  0  0  0  0  0  0  0  0
    4.8430    6.7410  -12.2790 C   0  0  0  0  0  0  0  0  0  0  0  0
    4.4930    6.3370  -13.5910 C   0  0  0  0  0  0  0  0  0  0  0  0
    6.1640    6.1930  -11.9370 C   0  0  0  0  0  0  0  0  0  0  0  0
    7.3640    6.7660  -11.7240 C   0  0  1  0  0  0  0  0  0  0  0  0
    8.3220    7.6040  -12.9020 N   0  0  0  0  0  0  0  0  0  0  0  0
    9.7610    8.1530  -13.3640 C   0  0  2  0  0  0  0  0  0  0  0  0
   10.6000    8.9430  -12.6920 C   0  0  0  0  0  0  0  0  0  0  0  0
   11.2620    9.1960  -13.2980 C   0  0  0  0  0  0  0  0  0  0  0  0
   10.8830    9.3530  -14.5660 C   0  0  1  0  0  0  0  0  0  0  0  0
   11.6720    9.9630  -16.0240 C   0  0  0  0  0  0  0  0  0  0  0  0
   10.6160   10.8980  -16.4210 N   0  0  0  0  0  0  0  0  0  0  0  0
    9.1990   11.9920  -18.0580 C   0  0  0  0  0  0  0  0  0  0  0  0
    8.9480   12.5230  -17.7210 O   0  0  0  0  0  0  0  0  0  0  0  0
    8.6180   11.8020  -19.8100 C   0  0  0  0  0  0  0  0  0  0  0  0
    7.9560   12.5060  -20.8150 C   0  0  0  0  0  0  0  0  0  0  0  0
    7.8440   11.6520  -21.9280 C   0  0  0  0  0  0  0  0  0  0  0  0
    8.4500   10.5050  -21.5230 N   0  0  0  0  0  0  0  0  0  0  0  0
    8.8040    9.1650  -21.9090 C   0  0  0  0  0  0  0  0  0  0  0  0
    8.8480   10.6090  -20.4340 N   0  0  0  0  0  0  0  0  0  0  0  0
   10.5070    8.2760  -14.4120 O   0  0  0  0  0  0  0  0  0  0  0  0
    7.2470    6.8360  -10.2590 C   0  0  0  0  0  0  0  0  0  0  0  0
    7.3590    7.8480   -9.5710 O   0  0  0  0  0  0  0  0  0  0  0  0
    6.9330    5.5300   -9.6830 N   0  0  0  0  0  0  0  0  0  0  0  0
    6.4000    5.2530   -8.2990 C   0  0  1  0  0  0  0  0  0  0  0  0
    6.0890    3.8640   -7.9490 C   0  0  0  0  0  0  0  0  0  0  0  0
    5.3190    3.2080   -8.6040 O   0  0  0  0  0  0  0  0  0  0  0  0
    6.6450    3.3580   -6.7750 N   0  0  0  0  0  0  0  0  0  0  0  0
    6.1120    2.0890   -6.2440 C   0  0  1  0  0  0  0  0  0  0  0  0
    5.8290    1.2090   -7.2480 C   0  0  0  0  0  0  0  0  0  0  0  0
    6.3290   -0.0760   -7.2010 C   0  0  0  0  0  0  0  0  0  0  0  0
    5.7920   -1.2340   -6.6220 C   0  0  0  0  0  0  0  0  0  0  0  0
    6.3380   -2.4940   -6.6690 C   0  0  0  0  0  0  0  0  0  0  0  0
    7.6250   -2.6590   -7.3810 C   0  0  0  0  0  0  0  0  0  0  0  0
    8.1700   -1.5180   -7.8940 C   0  0  0  0  0  0  0  0  0  0  0  0
    7.5120   -0.1920   -7.8230 C   0  0  0  0  0  0  0  0  0  0  0  0
    7.0660    1.4970   -5.2060 C   0  0  0  0  0  0  0  0  0  0  0  0
    7.5730    1.1870   -4.1450 O   0  0  0  0  0  0  0  0  0  0  0  0
    6.1290    2.0680   -4.4340 O   0  0  0  0  0  0  0  0  0  0  0  0
    7.2830    5.9560   -7.3600 C   0  0  1  0  0  0  0  0  0  0  0  0
    7.5850    7.2450   -8.0950 C   0  0  0  0  0  0  0  0  0  0  0  0
    6.6070    6.1980   -6.1200 O   0  0  0  0  0  0  0  0  0  0  0  0
  1  2  1  0
  2  3  1  0
  2  4  1  0
  5  4  1  6
  5  6  1  0
  7  6  1  6
  7  8  1  0
  8  9  1  0
  9 10  1  0
 10 11  1  6
 11 12  1  0
 12 13  1  0
 13 14  2  0
 13 15  1  0
 15 16  1  0
 16 17  2  0
 17 18  1  0
 18 19  1  0
 15 20  2  0
 18 20  1  0
  7 21  1  0
 10 21  1  0
  5 22  1  0
 22 23  2  0
 22 24  1  0
 25 24  1  6
 25 26  1  0
 26 27  2  0
 26 28  1  0
 28 29  1  0
 29 30  1  6
 30 31  1  0
 31 32  2  0
 32 33  1  0
 33 34  2  0
 34 35  1  0
 31 36  1  0
 35 36  2  0
 29 37  1  0
 37 38  2  0
 37 39  1  0
 25 40  1  0
 40 41  1  6
 40 42  1  0
M  END
