PAU-UNI-d269d79c-1
     RDKit          3D

 28 31  0  0  0  0  0  0  0  0999 V2000
   -1.5350  -15.0540   23.1820 C   0  0  0  0  0  0  0  0  0  0  0  0
   -1.5520  -13.5030   23.1580 C   0  0  0  0  0  0  0  0  0  0  0  0
   -0.6270  -12.8500   23.9630 C   0  0  0  0  0  0  0  0  0  0  0  0
   -0.5210  -11.4720   24.0390 C   0  0  0  0  0  0  0  0  0  0  0  0
    0.3550  -11.0140   24.8060 O   0  0  0  0  0  0  0  0  0  0  0  0
    0.7650   -9.7540   24.5040 C   0  0  0  0  0  0  0  0  0  0  0  0
    0.0360   -8.7660   23.7380 C   0  0  0  0  0  0  0  0  0  0  0  0
   -1.3000   -9.2920   23.2820 C   0  0  0  0  0  0  0  0  0  0  0  0
   -2.2930   -8.6590   22.9520 O   0  0  0  0  0  0  0  0  0  0  0  0
   -1.4080  -10.6980   23.2420 C   0  0  0  0  0  0  0  0  0  0  0  0
   -2.3550  -11.3400   22.4330 C   0  0  0  0  0  0  0  0  0  0  0  0
   -2.4330  -12.7300   22.3850 C   0  0  0  0  0  0  0  0  0  0  0  0
   -3.6030  -13.4900   21.3770 Cl  0  0  0  0  0  0  0  0  0  0  0  0
    0.6840   -7.4240   23.4790 C   0  0  1  0  0  0  0  0  0  0  0  0
    0.1400   -6.3460   24.2120 C   0  0  0  0  0  0  0  0  0  0  0  0
   -0.5140   -5.1910   23.5250 C   0  0  0  0  0  0  0  0  0  0  0  0
   -1.0590   -4.0870   24.4090 C   0  0  0  0  0  0  0  0  0  0  0  0
   -0.9470   -4.1610   25.8130 C   0  0  0  0  0  0  0  0  0  0  0  0
   -1.6010   -2.8500   26.7170 Cl  0  0  0  0  0  0  0  0  0  0  0  0
   -0.2830   -5.3200   26.6430 C   0  0  0  0  0  0  0  0  0  0  0  0
    0.2360   -6.3900   25.6150 C   0  0  0  0  0  0  0  0  0  0  0  0
    2.0280   -7.8560   23.9820 N   0  0  0  0  0  0  0  0  0  0  0  0
    3.0540   -6.9780   24.2340 C   0  0  0  0  0  0  0  0  0  0  0  0
    3.0090   -5.7690   23.5130 C   0  0  0  0  0  0  0  0  0  0  0  0
    4.1940   -5.1340   23.0660 C   0  0  0  0  0  0  0  0  0  0  0  0
    4.9670   -5.8880   22.4800 O   0  0  0  0  0  0  0  0  0  0  0  0
    1.9950   -9.0160   24.8000 C   0  0  0  0  0  0  0  0  0  0  0  0
    2.8340   -9.3500   25.6100 O   0  0  0  0  0  0  0  0  0  0  0  0
  1  2  1  0
  2  3  2  0
  3  4  1  0
  4  5  1  0
  5  6  1  0
  6  7  2  0
  7  8  1  0
  8  9  2  0
  4 10  2  0
  8 10  1  0
 10 11  1  0
  2 12  1  0
 11 12  2  0
 12 13  1  0
  7 14  1  0
 14 15  1  1
 15 16  2  0
 16 17  1  0
 17 18  2  0
 18 19  1  0
 18 20  1  0
 15 21  1  0
 20 21  2  0
 14 22  1  0
 22 23  1  0
 23 24  1  0
 24 25  1  0
 25 26  1  0
  6 27  1  0
 22 27  1  0
 27 28  2  0
M  END
