PAU-UNI-6d15a9f5-1
     RDKit          3D

 24 26  0  0  0  0  0  0  0  0999 V2000
    7.7970    4.5820   -0.3770 C   0  0  0  0  0  0  0  0  0  0  0  0
    7.2700    4.5860   -1.7400 N   0  0  0  0  0  0  0  0  0  0  0  0
    7.4780    3.7220   -2.7740 C   0  0  0  0  0  0  0  0  0  0  0  0
    6.7130    4.0860   -3.9470 C   0  0  0  0  0  0  0  0  0  0  0  0
    6.7390    3.2270   -5.2970 C   0  0  0  0  0  0  0  0  0  0  0  0
    5.7650    2.2300   -5.4880 C   0  0  0  0  0  0  0  0  0  0  0  0
    5.7860    1.5150   -6.7100 C   0  0  0  0  0  0  0  0  0  0  0  0
    6.4330    0.3070   -6.5620 C   0  0  0  0  0  0  0  0  0  0  0  0
    5.7820   -1.0610   -6.2770 C   0  0  0  0  0  0  0  0  0  0  0  0
    6.7500   -2.1670   -6.1300 C   0  0  0  0  0  0  0  0  0  0  0  0
    8.1690   -1.7260   -6.2910 C   0  0  0  0  0  0  0  0  0  0  0  0
    8.6120   -0.4880   -6.5410 C   0  0  0  0  0  0  0  0  0  0  0  0
    7.7460    0.5000   -6.6770 C   0  0  0  0  0  0  0  0  0  0  0  0
    6.0870    5.2880   -3.4380 C   0  0  0  0  0  0  0  0  0  0  0  0
    5.2260    6.1240   -4.1020 C   0  0  0  0  0  0  0  0  0  0  0  0
    4.4520    6.9280   -3.5830 O   0  0  0  0  0  0  0  0  0  0  0  0
    5.3740    5.9120   -5.4250 N   0  0  0  0  0  0  0  0  0  0  0  0
    4.3920    6.2320   -6.4040 C   0  0  0  0  0  0  0  0  0  0  0  0
    4.6960    5.3960   -7.4490 C   0  0  2  0  0  0  0  0  0  0  0  0
    5.0260    4.0650   -7.2730 C   0  0  0  0  0  0  0  0  0  0  0  0
    6.2740    3.8520   -8.0760 C   0  0  0  0  0  0  0  0  0  0  0  0
    7.0010    5.0020   -7.9080 C   0  0  0  0  0  0  0  0  0  0  0  0
    5.9980    5.9820   -7.7180 O   0  0  0  0  0  0  0  0  0  0  0  0
    6.4270    5.5610   -2.1390 N   0  0  0  0  0  0  0  0  0  0  0  0
  1  2  1  0
  2  3  1  0
  3  4  2  0
  4  5  1  0
  5  6  1  0
  6  7  1  0
  7  8  1  0
  8  9  2  0
  9 10  1  0
 10 11  2  0
 11 12  1  0
  8 13  1  0
 12 13  2  0
  4 14  1  0
 14 15  1  0
 15 16  2  0
 15 17  1  0
 17 18  1  0
 19 18  1  1
 19 20  1  0
 20 21  1  0
 21 22  1  0
 19 23  1  0
 22 23  1  0
  2 24  1  0
 14 24  2  0
M  END
