PAU-UNI-589039f7-3
     RDKit          3D

 28 31  0  0  0  0  0  0  0  0999 V2000
    6.8760   -1.7760   24.3050 C   0  0  0  0  0  0  0  0  0  0  0  0
    7.3680   -0.5570   23.6850 C   0  0  0  0  0  0  0  0  0  0  0  0
    7.4070    0.6000   24.3450 C   0  0  0  0  0  0  0  0  0  0  0  0
    7.9600    1.8490   23.7990 C   0  0  0  0  0  0  0  0  0  0  0  0
    8.0270    3.0940   24.5030 O   0  0  0  0  0  0  0  0  0  0  0  0
    9.2130    3.6820   24.1670 C   0  0  0  0  0  0  0  0  0  0  0  0
    9.7700    3.5170   22.8560 C   0  0  0  0  0  0  0  0  0  0  0  0
    8.9940    2.8760   21.9720 C   0  0  0  0  0  0  0  0  0  0  0  0
    8.7530    3.1860   20.8600 O   0  0  0  0  0  0  0  0  0  0  0  0
    8.4040    1.7300   22.5290 C   0  0  0  0  0  0  0  0  0  0  0  0
    8.2830    0.5000   21.7730 C   0  0  0  0  0  0  0  0  0  0  0  0
    7.7810   -0.6200   22.3960 C   0  0  0  0  0  0  0  0  0  0  0  0
    7.6480   -2.1160   21.5860 Cl  0  0  0  0  0  0  0  0  0  0  0  0
   11.1760    3.9800   23.0080 C   0  0  1  0  0  0  0  0  0  0  0  0
   12.2260    3.6520   22.0880 C   0  0  0  0  0  0  0  0  0  0  0  0
   12.4450    4.1330   20.8140 C   0  0  0  0  0  0  0  0  0  0  0  0
   13.4710    3.6520   19.9790 C   0  0  0  0  0  0  0  0  0  0  0  0
   14.3330    2.7190   20.3850 C   0  0  0  0  0  0  0  0  0  0  0  0
   15.5330    2.2350   19.0300 Br  0  0  0  0  0  0  0  0  0  0  0  0
   14.2320    2.2290   21.6650 C   0  0  0  0  0  0  0  0  0  0  0  0
   13.1940    2.6850   22.4760 C   0  0  0  0  0  0  0  0  0  0  0  0
   11.0080    5.1120   23.8490 N   0  0  0  0  0  0  0  0  0  0  0  0
   12.2300    5.7940   24.0800 C   0  0  0  0  0  0  0  0  0  0  0  0
   13.2320    4.9640   23.5160 C   0  0  0  0  0  0  0  0  0  0  0  0
   13.8940    5.4640   22.2930 C   0  0  0  0  0  0  0  0  0  0  0  0
   13.2680    6.6570   21.8700 O   0  0  0  0  0  0  0  0  0  0  0  0
   10.1870    4.5620   24.8850 C   0  0  0  0  0  0  0  0  0  0  0  0
   10.2200    4.7820   26.0770 O   0  0  0  0  0  0  0  0  0  0  0  0
  1  2  1  0
  2  3  2  0
  3  4  1  0
  4  5  1  0
  5  6  1  0
  6  7  2  0
  7  8  1  0
  8  9  2  0
  4 10  2  0
  8 10  1  0
 10 11  1  0
  2 12  1  0
 11 12  2  0
 12 13  1  0
  7 14  1  0
 14 15  1  6
 15 16  2  0
 16 17  1  0
 17 18  2  0
 18 19  1  0
 18 20  1  0
 15 21  1  0
 20 21  2  0
 14 22  1  0
 22 23  1  0
 23 24  1  0
 24 25  1  0
 25 26  1  0
  6 27  1  0
 22 27  1  0
 27 28  2  0
M  END
