PAU-UNI-6d15a9f5-4
     RDKit          3D

 51 53  0  0  0  0  0  0  0  0999 V2000
    3.3510   10.9760   -3.5480 C   0  0  0  0  0  0  0  0  0  0  0  0
    3.0320    9.6450   -2.9270 C   0  0  0  0  0  0  0  0  0  0  0  0
    1.9430    8.8970   -3.6630 C   0  0  0  0  0  0  0  0  0  0  0  0
    4.3070    8.7540   -2.7580 C   0  0  0  0  0  0  0  0  0  0  0  0
    4.8010    8.2840   -1.5060 C   0  0  2  0  0  0  0  0  0  0  0  0
    5.7440    9.2740   -1.0660 N   0  0  0  0  0  0  0  0  0  0  0  0
    6.7340    9.1040   -2.0480 C   0  0  1  0  0  0  0  0  0  0  0  0
    6.0910    9.0470   -3.3940 C   0  0  0  0  0  0  0  0  0  0  0  0
    6.6700   10.1470   -4.0740 C   0  0  0  0  0  0  0  0  0  0  0  0
    7.8820   10.3710   -3.4630 C   0  0  1  0  0  0  0  0  0  0  0  0
    9.0360   10.9340   -4.1420 C   0  0  0  0  0  0  0  0  0  0  0  0
    9.7950   12.1620   -4.2340 N   0  0  0  0  0  0  0  0  0  0  0  0
    9.5770   13.9130   -4.7300 C   0  0  0  0  0  0  0  0  0  0  0  0
    8.6640   14.4840   -4.3540 O   0  0  0  0  0  0  0  0  0  0  0  0
   10.1420   15.2570   -5.2650 C   0  0  0  0  0  0  0  0  0  0  0  0
    9.7550   15.9900   -4.5520 C   0  0  0  0  0  0  0  0  0  0  0  0
    9.6940   17.0510   -5.0820 C   0  0  0  0  0  0  0  0  0  0  0  0
   10.3600   17.2080   -6.1820 N   0  0  0  0  0  0  0  0  0  0  0  0
   10.8410   18.4830   -6.5620 C   0  0  0  0  0  0  0  0  0  0  0  0
   10.6810   15.8330   -6.4910 N   0  0  0  0  0  0  0  0  0  0  0  0
    7.7270   10.1750   -2.0570 O   0  0  0  0  0  0  0  0  0  0  0  0
    5.6560    6.9850   -1.6550 C   0  0  0  0  0  0  0  0  0  0  0  0
    6.6020    6.7180   -0.9320 O   0  0  0  0  0  0  0  0  0  0  0  0
    5.2870    6.1160   -2.6540 N   0  0  0  0  0  0  0  0  0  0  0  0
    5.9340    5.9170   -3.9430 C   0  0  1  0  0  0  0  0  0  0  0  0
    6.3500    4.5690   -4.0420 C   0  0  0  0  0  0  0  0  0  0  0  0
    6.9970    4.0920   -3.1200 O   0  0  0  0  0  0  0  0  0  0  0  0
    6.0050    3.8420   -5.2100 N   0  0  0  0  0  0  0  0  0  0  0  0
    5.9270    2.3660   -5.2900 C   0  0  1  0  0  0  0  0  0  0  0  0
    6.1900    1.8090   -6.5240 C   0  0  0  0  0  0  0  0  0  0  0  0
    6.7950    0.4720   -6.3300 C   0  0  0  0  0  0  0  0  0  0  0  0
    5.9840   -0.5990   -6.1840 C   0  0  0  0  0  0  0  0  0  0  0  0
    6.3730   -1.8240   -6.0460 C   0  0  0  0  0  0  0  0  0  0  0  0
    7.5980   -2.0330   -6.0440 C   0  0  0  0  0  0  0  0  0  0  0  0
    8.5740   -1.0550   -6.1160 C   0  0  0  0  0  0  0  0  0  0  0  0
    8.1540    0.2660   -6.2730 C   0  0  0  0  0  0  0  0  0  0  0  0
    6.7480    1.7050   -4.1410 C   0  0  0  0  0  0  0  0  0  0  0  0
    6.8920    2.2250   -3.0380 O   0  0  0  0  0  0  0  0  0  0  0  0
    7.3390    0.4780   -4.3540 N   0  0  0  0  0  0  0  0  0  0  0  0
    8.5360    0.1950   -3.5560 C   0  0  2  0  0  0  0  0  0  0  0  0
    9.7000   -0.3880   -4.3710 C   0  0  0  0  0  0  0  0  0  0  0  0
   10.8690   -0.7760   -3.4570 C   0  0  0  0  0  0  0  0  0  0  0  0
   12.1290   -1.3440   -4.0770 C   0  0  0  0  0  0  0  0  0  0  0  0
   13.2290   -0.6040   -3.7610 N   0  0  0  0  0  0  0  0  0  0  0  0
   12.2210   -2.3740   -4.7370 O   0  0  0  0  0  0  0  0  0  0  0  0
    8.1210   -0.7770   -2.4280 C   0  0  0  0  0  0  0  0  0  0  0  0
    6.9760   -0.9250   -2.0210 O   0  0  0  0  0  0  0  0  0  0  0  0
    9.1300   -1.4780   -1.9030 O   0  0  0  0  0  0  0  0  0  0  0  0
    4.9250    6.3120   -5.0280 C   0  0  1  0  0  0  0  0  0  0  0  0
    4.8240    7.8060   -5.2490 C   0  0  0  0  0  0  0  0  0  0  0  0
    5.1440    5.6020   -6.2380 O   0  0  0  0  0  0  0  0  0  0  0  0
  1  2  1  0
  2  3  1  0
  2  4  1  0
  5  4  1  6
  5  6  1  0
  7  6  1  1
  7  8  1  0
  8  9  1  0
  9 10  1  0
 10 11  1  1
 11 12  1  0
 12 13  1  0
 13 14  2  0
 13 15  1  0
 15 16  1  0
 16 17  2  0
 17 18  1  0
 18 19  1  0
 15 20  2  0
 18 20  1  0
  7 21  1  0
 10 21  1  0
  5 22  1  0
 22 23  2  0
 22 24  1  0
 25 24  1  1
 25 26  1  0
 26 27  2  0
 26 28  1  0
 28 29  1  0
 29 30  1  6
 30 31  1  0
 31 32  2  0
 32 33  1  0
 33 34  2  0
 34 35  1  0
 31 36  1  0
 35 36  2  0
 29 37  1  0
 37 38  2  0
 37 39  1  0
 39 40  1  0
 40 41  1  6
 41 42  1  0
 42 43  1  0
 43 44  1  0
 43 45  2  0
 40 46  1  0
 46 47  2  0
 46 48  1  0
 25 49  1  0
 49 50  1  6
 49 51  1  0
M  END
