PAU-UNI-6d15a9f5-2
     RDKit          3D

 17 19  0  0  0  0  0  0  0  0999 V2000
   -1.7070   -4.4410  -10.4010 C   0  0  0  0  0  0  0  0  0  0  0  0
   -0.5020   -3.9120   -9.9800 N   0  0  0  0  0  0  0  0  0  0  0  0
    0.1840   -2.7740  -10.4030 C   0  0  0  0  0  0  0  0  0  0  0  0
    1.3440   -2.5640   -9.7520 C   0  0  0  0  0  0  0  0  0  0  0  0
    1.3500   -3.6290   -8.9040 C   0  0  0  0  0  0  0  0  0  0  0  0
    0.2580   -4.4950   -8.9860 N   0  0  0  0  0  0  0  0  0  0  0  0
    2.3530   -3.8690   -8.0080 C   0  0  0  0  0  0  0  0  0  0  0  0
    2.6100   -4.9850   -7.2620 O   0  0  0  0  0  0  0  0  0  0  0  0
    3.2080   -2.7900   -7.8900 N   0  0  0  0  0  0  0  0  0  0  0  0
    4.2860   -2.8320   -6.9070 C   0  0  0  0  0  0  0  0  0  0  0  0
    5.4640   -2.4080   -7.4790 C   0  0  2  0  0  0  0  0  0  0  0  0
    6.6280   -2.9240   -6.9410 C   0  0  0  0  0  0  0  0  0  0  0  0
    7.6240   -1.9880   -6.9520 C   0  0  0  0  0  0  0  0  0  0  0  0
    7.0130   -0.7810   -7.1900 C   0  0  0  0  0  0  0  0  0  0  0  0
    5.6690   -1.1660   -7.6060 O   0  0  0  0  0  0  0  0  0  0  0  0
    3.4470   -1.9290   -9.0470 C   0  0  0  0  0  0  0  0  0  0  0  0
    2.3250   -1.6540   -9.7750 N   0  0  0  0  0  0  0  0  0  0  0  0
  1  2  1  0
  2  3  1  0
  3  4  2  0
  4  5  1  0
  2  6  1  0
  5  6  2  0
  5  7  1  0
  7  8  2  0
  7  9  1  0
  9 10  1  0
 11 10  1  1
 11 12  1  0
 12 13  1  0
 13 14  1  0
 11 15  1  0
 14 15  1  0
  9 16  1  0
  4 17  1  0
 16 17  1  0
M  END
