PED-UNI-292b67d6-1
     RDKit          3D

 24 25  0  0  0  0  0  0  0  0999 V2000
   12.9230   -2.8870   24.9990 C   0  0  0  0  0  0  0  0  0  0  0  0
   12.5340   -2.6390   23.5620 C   0  0  0  0  0  0  0  0  0  0  0  0
   13.4490   -2.9600   22.6450 C   0  0  0  0  0  0  0  0  0  0  0  0
   13.1750   -2.7790   21.3040 C   0  0  0  0  0  0  0  0  0  0  0  0
   12.0540   -2.2970   20.8360 N   0  0  0  0  0  0  0  0  0  0  0  0
   11.1600   -1.9770   21.7680 C   0  0  0  0  0  0  0  0  0  0  0  0
   11.3220   -2.1160   23.1180 C   0  0  0  0  0  0  0  0  0  0  0  0
   10.3880   -1.7730   24.0350 N   0  0  0  0  0  0  0  0  0  0  0  0
   10.9490   -0.8930   25.0260 C   0  0  0  0  0  0  0  0  0  0  0  0
   10.3780   -0.1520   25.7970 O   0  0  0  0  0  0  0  0  0  0  0  0
   12.3520   -0.9310   25.1480 C   0  0  0  0  0  0  0  0  0  0  0  0
   13.1460   -0.6880   24.2500 O   0  0  0  0  0  0  0  0  0  0  0  0
   12.8620   -0.0130   23.1200 C   0  0  0  0  0  0  0  0  0  0  0  0
   13.2540   -0.4100   22.0340 O   0  0  0  0  0  0  0  0  0  0  0  0
   12.1360    1.1760   23.2940 C   0  0  0  0  0  0  0  0  0  0  0  0
   10.8380    1.1360   23.7910 C   0  0  0  0  0  0  0  0  0  0  0  0
   10.1690    2.5030   23.9320 C   0  0  0  0  0  0  0  0  0  0  0  0
   10.9370    3.7550   23.5340 C   0  0  0  0  0  0  0  0  0  0  0  0
   10.2020    5.3640   23.6980 S   0  0  0  0  0  0  0  0  0  0  0  0
    8.8610    5.2510   22.6960 N   0  0  0  0  0  0  0  0  0  0  0  0
   11.0760    6.3530   23.1080 O   0  0  0  0  0  0  0  0  0  0  0  0
    9.6810    5.5310   25.0350 O   0  0  0  0  0  0  0  0  0  0  0  0
   12.2170    3.6260   23.0480 C   0  0  0  0  0  0  0  0  0  0  0  0
   12.7900    2.3700   22.9390 C   0  0  0  0  0  0  0  0  0  0  0  0
  1  2  1  0
  2  3  2  0
  3  4  1  0
  4  5  2  0
  5  6  1  0
  2  7  1  0
  6  7  2  0
  7  8  1  0
  8  9  1  0
  9 10  2  0
  9 11  1  0
 11 12  1  0
 12 13  1  0
 13 14  2  0
 13 15  1  0
 15 16  2  0
 16 17  1  0
 17 18  2  0
 18 19  1  0
 19 20  1  0
 19 21  2  0
 19 22  2  0
 18 23  1  0
 15 24  1  0
 23 24  2  0
M  END
