PET-SGC-c429dc17-1
     RDKit          3D

 22 23  0  0  0  0  0  0  0  0999 V2000
    9.8090   -0.6390   22.4830 C   0  0  0  0  0  0  0  0  0  0  0  0
    8.8610    0.0330   21.5620 C   0  0  0  0  0  0  0  0  0  0  0  0
    9.0390    1.2300   21.2440 O   0  0  0  0  0  0  0  0  0  0  0  0
    7.7900   -0.7410   21.1110 N   0  0  0  0  0  0  0  0  0  0  0  0
    6.7800   -0.1370   20.2470 C   0  0  0  0  0  0  0  0  0  0  0  0
    7.0770   -0.1730   18.8050 C   0  0  0  0  0  0  0  0  0  0  0  0
    6.1820    0.4080   17.8210 N   0  0  0  0  0  0  0  0  0  0  0  0
    4.9470    1.0370   18.2910 C   0  0  0  0  0  0  0  0  0  0  0  0
    4.5790    1.0850   19.7770 C   0  0  0  0  0  0  0  0  0  0  0  0
    5.6020    0.4430   20.7260 C   0  0  0  0  0  0  0  0  0  0  0  0
    5.1800    0.5170   22.1970 C   0  0  0  0  0  0  0  0  0  0  0  0
    4.9180    1.9350   22.6190 C   0  0  0  0  0  0  0  0  0  0  0  0
    3.6100    2.3480   22.4060 N   0  0  0  0  0  0  0  0  0  0  0  0
    2.5670    2.4870   23.3570 C   0  0  0  0  0  0  0  0  0  0  0  0
    2.2500    1.6020   24.1380 O   0  0  0  0  0  0  0  0  0  0  0  0
    2.0170    3.7530   23.2560 N   0  0  0  0  0  0  0  0  0  0  0  0
    0.6580    3.9100   23.4800 C   0  0  0  0  0  0  0  0  0  0  0  0
    0.5010    4.4830   24.7450 C   0  0  0  0  0  0  0  0  0  0  0  0
   -0.8170    4.9180   24.9430 C   0  0  0  0  0  0  0  0  0  0  0  0
   -1.8660    4.3650   24.1940 C   0  0  0  0  0  0  0  0  0  0  0  0
   -1.6600    3.0630   23.7130 C   0  0  0  0  0  0  0  0  0  0  0  0
   -0.2270    2.6630   23.3580 C   0  0  0  0  0  0  0  0  0  0  0  0
  1  2  1  0
  2  3  2  0
  2  4  1  0
  4  5  1  0
  5  6  2  0
  6  7  1  0
  7  8  2  0
  8  9  1  0
  5 10  1  0
  9 10  2  0
 10 11  1  0
 11 12  1  0
 12 13  1  0
 13 14  1  0
 14 15  2  0
 14 16  1  0
 16 17  1  0
 17 18  1  0
 18 19  1  0
 19 20  1  0
 20 21  1  0
 17 22  1  0
 21 22  1  0
M  END
