PET-SGC-f913cec9-2
     RDKit          3D

 34 37  0  0  0  0  0  0  0  0999 V2000
    6.8220    6.2840   28.6100 N   0  0  0  0  0  0  0  0  0  0  0  0
    7.8190    4.9620   28.9320 S   0  0  0  0  0  0  0  0  0  0  0  0
    8.7480    5.4110   29.9480 O   0  0  0  0  0  0  0  0  0  0  0  0
    6.9720    3.8100   29.1500 O   0  0  0  0  0  0  0  0  0  0  0  0
    8.6840    4.7830   27.3950 C   0  0  0  0  0  0  0  0  0  0  0  0
    9.9330    5.5880   27.1930 C   0  0  0  0  0  0  0  0  0  0  0  0
   10.6090    5.3810   25.8590 C   0  0  0  0  0  0  0  0  0  0  0  0
   10.0870    4.4370   24.7820 C   0  0  0  0  0  0  0  0  0  0  0  0
    8.8000    3.6460   25.0670 C   0  0  0  0  0  0  0  0  0  0  0  0
    8.1570    3.8960   26.4370 C   0  0  0  0  0  0  0  0  0  0  0  0
    8.4070    2.8130   24.0170 N   0  0  0  0  0  0  0  0  0  0  0  0
    7.2170    2.1070   24.0150 C   0  0  0  0  0  0  0  0  0  0  0  0
    6.3090    2.3990   22.8180 C   0  0  0  0  0  0  0  0  0  0  0  0
    5.0510    1.5350   22.7980 C   0  0  2  0  0  0  0  0  0  0  0  0
    5.2980    0.4190   21.9980 C   0  0  0  0  0  0  0  0  0  0  0  0
    5.4810    0.5170   20.5930 C   0  0  0  0  0  0  0  0  0  0  0  0
    6.4560   -0.3110   20.0290 C   0  0  0  0  0  0  0  0  0  0  0  0
    6.7030   -0.2930   18.6890 C   0  0  0  0  0  0  0  0  0  0  0  0
    5.9920    0.5490   17.8360 N   0  0  0  0  0  0  0  0  0  0  0  0
    5.0140    1.3960   18.3230 C   0  0  0  0  0  0  0  0  0  0  0  0
    4.7560    1.3750   19.7230 C   0  0  0  0  0  0  0  0  0  0  0  0
    3.8520    2.3070   22.3920 N   0  0  0  0  0  0  0  0  0  0  0  0
    2.7730    2.5120   23.2570 C   0  0  0  0  0  0  0  0  0  0  0  0
    2.5570    1.8400   24.2640 O   0  0  0  0  0  0  0  0  0  0  0  0
    1.9780    3.5740   22.8370 N   0  0  0  0  0  0  0  0  0  0  0  0
    0.6040    3.9100   23.2830 C   0  0  0  0  0  0  0  0  0  0  0  0
    0.5970    4.7880   24.4380 C   0  0  0  0  0  0  0  0  0  0  0  0
   -0.6130    4.6870   25.1320 C   0  0  0  0  0  0  0  0  0  0  0  0
   -1.8160    4.6010   24.1900 C   0  0  0  0  0  0  0  0  0  0  0  0
   -1.7110    3.2100   23.6440 C   0  0  0  0  0  0  0  0  0  0  0  0
   -0.2700    2.8210   23.3110 C   0  0  0  0  0  0  0  0  0  0  0  0
    9.3810    2.4150   22.9940 C   0  0  0  0  0  0  0  0  0  0  0  0
   10.0450    3.6350   22.4770 C   0  0  0  0  0  0  0  0  0  0  0  0
   10.8550    4.3250   23.4940 C   0  0  0  0  0  0  0  0  0  0  0  0
  2  1  1  0
  2  3  2  0
  2  4  2  0
  2  5  1  0
  5  6  2  0
  6  7  1  0
  7  8  2  0
  8  9  1  0
  5 10  1  0
  9 10  2  0
  9 11  1  0
 11 12  1  0
 12 13  1  0
 14 13  1  6
 14 15  1  0
 15 16  1  0
 16 17  2  0
 17 18  1  0
 18 19  2  0
 19 20  1  0
 16 21  1  0
 20 21  2  0
 14 22  1  0
 22 23  1  0
 23 24  2  0
 23 25  1  0
 25 26  1  0
 26 27  1  0
 27 28  1  0
 28 29  1  0
 29 30  1  0
 26 31  1  0
 30 31  1  0
 11 32  1  0
 32 33  1  0
  8 34  1  0
 33 34  1  0
M  END
