PET-SGC-59809fea-1
     RDKit          3D

 26 28  0  0  0  0  0  0  0  0999 V2000
   11.4830    5.8930   23.0240 N   0  0  0  0  0  0  0  0  0  0  0  0
   10.2480    4.8880   23.5620 S   0  0  0  0  0  0  0  0  0  0  0  0
   10.2200    5.0360   25.0030 O   0  0  0  0  0  0  0  0  0  0  0  0
    9.0740    5.1510   22.7760 O   0  0  0  0  0  0  0  0  0  0  0  0
   10.8290    3.2410   23.2180 C   0  0  0  0  0  0  0  0  0  0  0  0
   12.2730    2.7390   23.1170 C   0  0  0  0  0  0  0  0  0  0  0  0
   12.7560    1.4050   22.8900 C   0  0  0  0  0  0  0  0  0  0  0  0
   11.9370    0.1110   22.6800 C   0  0  0  0  0  0  0  0  0  0  0  0
   11.1080    1.1800   22.8540 C   0  0  0  0  0  0  0  0  0  0  0  0
   10.0620    2.1750   23.0160 C   0  0  0  0  0  0  0  0  0  0  0  0
   10.2190    0.0310   22.6800 N   0  0  0  0  0  0  0  0  0  0  0  0
    8.9550    0.0100   21.8910 C   0  0  0  0  0  0  0  0  0  0  0  0
    7.8530   -0.3070   22.7020 C   0  0  0  0  0  0  0  0  0  0  0  0
    7.4640   -1.7510   22.6880 N   0  0  0  0  0  0  0  0  0  0  0  0
    6.1280   -2.0170   22.1060 C   0  0  0  0  0  0  0  0  0  0  0  0
    5.7420   -3.1590   21.8720 O   0  0  0  0  0  0  0  0  0  0  0  0
    5.4170   -0.8580   21.8940 N   0  0  0  0  0  0  0  0  0  0  0  0
    5.2290   -0.1790   20.6690 C   0  0  0  0  0  0  0  0  0  0  0  0
    4.4690    0.9770   20.5230 C   0  0  0  0  0  0  0  0  0  0  0  0
    4.3540    1.6070   19.1590 C   0  0  0  0  0  0  0  0  0  0  0  0
    5.0140    0.9920   18.1310 C   0  0  0  0  0  0  0  0  0  0  0  0
    5.7510   -0.1260   18.2530 N   0  0  0  0  0  0  0  0  0  0  0  0
    5.8420   -0.6820   19.4950 C   0  0  0  0  0  0  0  0  0  0  0  0
   10.7250   -1.2930   22.9410 C   0  0  0  0  0  0  0  0  0  0  0  0
   12.2030   -1.7740   22.5920 C   0  0  0  0  0  0  0  0  0  0  0  0
   13.1020   -0.7250   22.5450 C   0  0  0  0  0  0  0  0  0  0  0  0
  2  1  1  0
  2  3  2  0
  2  4  2  0
  2  5  1  0
  5  6  2  0
  6  7  1  0
  7  8  2  0
  8  9  1  0
  5 10  1  0
  9 10  2  0
  9 11  1  0
 11 12  1  0
 12 13  1  0
 13 14  1  0
 14 15  1  0
 15 16  2  0
 15 17  1  0
 17 18  1  0
 18 19  2  0
 19 20  1  0
 20 21  2  0
 21 22  1  0
 18 23  1  0
 22 23  2  0
 11 24  1  0
 24 25  1  0
  8 26  1  0
 25 26  1  0
M  END
