PET-SGC-2e937068-1
     RDKit          3D

 22 23  0  0  0  0  0  0  0  0999 V2000
    3.6490    2.8780   20.1390 C   0  0  0  0  0  0  0  0  0  0  0  0
    4.6770    1.9640   19.5140 C   0  0  0  0  0  0  0  0  0  0  0  0
    4.8650    2.1440   18.0960 C   0  0  0  0  0  0  0  0  0  0  0  0
    5.7920    1.3550   17.4410 C   0  0  0  0  0  0  0  0  0  0  0  0
    6.5010    0.4150   18.1320 N   0  0  0  0  0  0  0  0  0  0  0  0
    6.3570    0.2110   19.4700 C   0  0  0  0  0  0  0  0  0  0  0  0
    5.4580    0.9730   20.1660 C   0  0  0  0  0  0  0  0  0  0  0  0
    5.4280    0.6480   21.4660 N   0  0  0  0  0  0  0  0  0  0  0  0
    4.4540   -0.3010   21.5920 C   0  0  0  0  0  0  0  0  0  0  0  0
    5.4400   -1.0190   21.4750 O   0  0  0  0  0  0  0  0  0  0  0  0
    3.5420    0.9150   21.6950 C   0  0  0  0  0  0  0  0  0  0  0  0
    4.1530    1.8560   22.7350 C   0  0  0  0  0  0  0  0  0  0  0  0
    3.2470    2.5490   23.4240 N   0  0  0  0  0  0  0  0  0  0  0  0
    2.1200    1.8280   23.9560 C   0  0  0  0  0  0  0  0  0  0  0  0
    2.0040    0.6070   23.8820 O   0  0  0  0  0  0  0  0  0  0  0  0
    1.0990    2.6290   24.6060 C   0  0  0  0  0  0  0  0  0  0  0  0
   -0.2210    2.1590   24.6190 C   0  0  0  0  0  0  0  0  0  0  0  0
   -1.4150    2.8620   25.2540 C   0  0  0  0  0  0  0  0  0  0  0  0
   -1.1010    4.1860   25.9190 C   0  0  0  0  0  0  0  0  0  0  0  0
    0.3300    4.7060   25.9110 C   0  0  0  0  0  0  0  0  0  0  0  0
    1.4070    3.8610   25.2230 C   0  0  0  0  0  0  0  0  0  0  0  0
    2.6600    4.3390   25.2300 F   0  0  0  0  0  0  0  0  0  0  0  0
  1  2  1  0
  2  3  2  0
  3  4  1  0
  4  5  2  0
  5  6  1  0
  2  7  1  0
  6  7  2  0
  7  8  1  0
  8  9  1  0
  9 10  2  0
  9 11  1  0
 11 12  1  0
 12 13  1  0
 13 14  1  0
 14 15  2  0
 14 16  1  0
 16 17  2  0
 17 18  1  0
 18 19  2  0
 19 20  1  0
 16 21  1  0
 20 21  2  0
 21 22  1  0
M  END
