PET-SGC-481b48b7-2
     RDKit          3D

 21 23  0  0  0  0  0  0  0  0999 V2000
   13.7660   -2.4800   25.6050 N   0  0  0  0  0  0  0  0  0  0  0  0
   12.9120   -1.8150   24.7790 C   0  0  0  0  0  0  0  0  0  0  0  0
   11.9020   -1.2640   25.1780 O   0  0  0  0  0  0  0  0  0  0  0  0
   13.3470   -1.8460   23.3820 C   0  0  1  0  0  0  0  0  0  0  0  0
   12.6720   -2.7150   22.6390 C   0  0  0  0  0  0  0  0  0  0  0  0
   12.3850   -2.2020   21.2800 C   0  0  0  0  0  0  0  0  0  0  0  0
   13.2960   -1.2830   21.4040 C   0  0  0  0  0  0  0  0  0  0  0  0
   13.2760   -0.6050   22.7130 C   0  0  1  0  0  0  0  0  0  0  0  0
   11.9580   -0.0870   22.9940 C   0  0  0  0  0  0  0  0  0  0  0  0
   10.9980   -0.9710   23.1220 C   0  0  0  0  0  0  0  0  0  0  0  0
   10.5920    0.5470   23.3110 S   0  0  0  0  0  0  0  0  0  0  0  0
   12.1500    1.6900   23.0530 C   0  0  0  0  0  0  0  0  0  0  0  0
   12.1160    3.1000   23.1490 C   0  0  0  0  0  0  0  0  0  0  0  0
   10.8810    3.7380   23.4680 C   0  0  0  0  0  0  0  0  0  0  0  0
   10.6220    5.4490   23.6830 S   0  0  0  0  0  0  0  0  0  0  0  0
   11.2650    6.1610   22.3270 N   0  0  0  0  0  0  0  0  0  0  0  0
    9.2050    5.6640   23.7210 O   0  0  0  0  0  0  0  0  0  0  0  0
   11.4080    5.8900   24.7610 O   0  0  0  0  0  0  0  0  0  0  0  0
    9.7430    3.0000   23.6550 C   0  0  0  0  0  0  0  0  0  0  0  0
    9.8690    1.6740   23.5310 C   0  0  0  0  0  0  0  0  0  0  0  0
   11.1190    1.2440   23.2440 C   0  0  0  0  0  0  0  0  0  0  0  0
  1  2  1  0
  2  3  2  0
  4  2  1  1
  4  5  1  0
  5  6  1  0
  6  7  1  0
  4  8  1  0
  7  8  1  0
  8  9  1  1
  9 10  2  0
 10 11  1  0
 11 12  1  0
 12 13  1  0
 13 14  2  0
 14 15  1  0
 15 16  1  0
 15 17  2  0
 15 18  2  0
 14 19  1  0
 19 20  2  0
  9 21  1  0
 12 21  2  0
 20 21  1  0
M  END
