PET-SGC-1c3a473d-1
     RDKit          3D

 27 29  0  0  0  0  0  0  0  0999 V2000
    8.9500    6.6710   22.4820 C   0  0  0  0  0  0  0  0  0  0  0  0
   10.0520    6.2380   23.4090 C   0  0  0  0  0  0  0  0  0  0  0  0
    9.9720    6.3640   24.6280 O   0  0  0  0  0  0  0  0  0  0  0  0
   11.1360    5.7010   22.7700 N   0  0  0  0  0  0  0  0  0  0  0  0
   12.2480    5.0450   23.4950 C   0  0  0  0  0  0  0  0  0  0  0  0
   12.5590    3.6600   22.8890 C   0  0  0  0  0  0  0  0  0  0  0  0
   11.6270    2.6200   22.7950 C   0  0  0  0  0  0  0  0  0  0  0  0
   10.2300    2.8890   22.7510 C   0  0  0  0  0  0  0  0  0  0  0  0
    9.6000    1.6960   22.5900 N   0  0  0  0  0  0  0  0  0  0  0  0
   10.4730    0.6000   22.5220 C   0  0  0  0  0  0  0  0  0  0  0  0
   10.0030   -0.8240   22.3020 C   0  0  0  0  0  0  0  0  0  0  0  0
    8.8500   -0.0380   22.2380 C   0  0  0  0  0  0  0  0  0  0  0  0
    7.6280   -0.6730   21.4340 C   0  0  0  0  0  0  0  0  0  0  0  0
    7.1880   -1.7800   21.7560 O   0  0  0  0  0  0  0  0  0  0  0  0
    7.0620    0.0990   20.3390 N   0  0  0  0  0  0  0  0  0  0  0  0
    5.7980    0.8110   20.3950 C   0  0  0  0  0  0  0  0  0  0  0  0
    5.1180    1.1150   19.4260 C   0  0  0  0  0  0  0  0  0  0  0  0
    5.9470    0.5870   18.5570 N   0  0  0  0  0  0  0  0  0  0  0  0
    7.0600    0.0290   19.2940 C   0  0  0  0  0  0  0  0  0  0  0  0
    6.7470    0.3250   20.8460 C   0  0  0  0  0  0  0  0  0  0  0  0
    5.6200    1.0020   21.5630 C   0  0  0  0  0  0  0  0  0  0  0  0
    4.4060    1.6620   21.4300 C   0  0  0  0  0  0  0  0  0  0  0  0
   11.3040   -1.4410   22.3960 C   0  0  0  0  0  0  0  0  0  0  0  0
   12.5890   -0.9460   22.5700 C   0  0  0  0  0  0  0  0  0  0  0  0
   13.5840   -1.8250   22.5800 F   0  0  0  0  0  0  0  0  0  0  0  0
   12.8530    0.3730   22.7150 C   0  0  0  0  0  0  0  0  0  0  0  0
   11.7730    1.1850   22.6970 C   0  0  0  0  0  0  0  0  0  0  0  0
  1  2  1  0
  2  3  2  0
  2  4  1  0
  4  5  1  0
  5  6  1  0
  6  7  1  0
  7  8  2  0
  8  9  1  0
  9 10  1  0
 10 11  1  0
 11 12  1  0
 12 13  1  0
 13 14  2  0
 13 15  1  0
 15 16  1  0
 16 17  2  0
 17 18  1  0
 18 19  2  0
 19 20  1  0
 16 21  1  0
 20 21  2  0
 21 22  1  0
 11 23  2  0
 23 24  1  0
 24 25  1  0
 24 26  2  0
  7 27  1  0
 10 27  2  0
 26 27  1  0
M  END
