PET-SGC-01d224dd-1
     RDKit          3D

 24 26  0  0  0  0  0  0  0  0999 V2000
    7.4340   -5.2820   24.0750 C   0  0  0  0  0  0  0  0  0  0  0  0
    7.6980   -3.8090   24.0270 C   0  0  0  0  0  0  0  0  0  0  0  0
    7.4860   -2.8740   24.9520 N   0  0  0  0  0  0  0  0  0  0  0  0
    7.8090   -1.5960   24.4920 N   0  0  0  0  0  0  0  0  0  0  0  0
    8.2450   -1.6190   23.2330 C   0  0  0  0  0  0  0  0  0  0  0  0
    8.6410   -0.4830   22.2760 C   0  0  2  0  0  0  0  0  0  0  0  0
    7.6650   -0.8560   21.0570 C   0  0  0  0  0  0  0  0  0  0  0  0
    7.3420   -2.0210   20.9480 O   0  0  0  0  0  0  0  0  0  0  0  0
    7.1030    0.1350   20.1800 N   0  0  0  0  0  0  0  0  0  0  0  0
    5.7580    0.6610   20.3150 C   0  0  0  0  0  0  0  0  0  0  0  0
    5.0010    1.0130   19.2860 C   0  0  0  0  0  0  0  0  0  0  0  0
    5.8170    0.7370   18.3730 N   0  0  0  0  0  0  0  0  0  0  0  0
    6.8110    0.2980   19.2670 C   0  0  0  0  0  0  0  0  0  0  0  0
    6.7510    0.2470   20.8100 C   0  0  0  0  0  0  0  0  0  0  0  0
    5.5550    0.6750   21.5550 C   0  0  0  0  0  0  0  0  0  0  0  0
    4.1560    1.2200   21.4630 C   0  0  0  0  0  0  0  0  0  0  0  0
   10.1250   -0.3660   22.0160 N   0  0  0  0  0  0  0  0  0  0  0  0
   10.5610    0.7710   22.8330 C   0  0  0  0  0  0  0  0  0  0  0  0
   12.0690    1.0310   22.8880 C   0  0  0  0  0  0  0  0  0  0  0  0
   12.8810   -0.1880   23.2360 C   0  0  0  0  0  0  0  0  0  0  0  0
   12.4280   -1.4780   22.5620 C   0  0  2  0  0  0  0  0  0  0  0  0
   13.1030   -1.5790   21.3820 F   0  0  0  0  0  0  0  0  0  0  0  0
   10.9000   -1.6050   22.3320 C   0  0  0  0  0  0  0  0  0  0  0  0
    8.3350   -3.2010   22.5920 S   0  0  0  0  0  0  0  0  0  0  0  0
  1  2  1  0
  2  3  2  0
  3  4  1  0
  4  5  2  0
  5  6  1  0
  6  7  1  6
  7  8  2  0
  7  9  1  0
  9 10  1  0
 10 11  2  0
 11 12  1  0
 12 13  2  0
 13 14  1  0
 10 15  1  0
 14 15  2  0
 15 16  1  0
  6 17  1  0
 17 18  1  0
 18 19  1  0
 19 20  1  0
 20 21  1  0
 21 22  1  6
 17 23  1  0
 21 23  1  0
  2 24  1  0
  5 24  1  0
M  END
