PET-SGC-d5b502b1-1
     RDKit          3D

 24 25  0  0  0  0  0  0  0  0999 V2000
    3.9860   -1.5440   25.1620 C   0  0  0  0  0  0  0  0  0  0  0  0
    4.2680   -2.4770   24.0160 C   0  0  0  0  0  0  0  0  0  0  0  0
    3.7140   -3.7630   24.0600 C   0  0  0  0  0  0  0  0  0  0  0  0
    3.9560   -4.6370   23.0220 C   0  0  0  0  0  0  0  0  0  0  0  0
    4.7010   -4.3230   21.9530 N   0  0  0  0  0  0  0  0  0  0  0  0
    5.2360   -3.0750   21.9180 C   0  0  0  0  0  0  0  0  0  0  0  0
    5.0600   -2.1140   22.9080 C   0  0  0  0  0  0  0  0  0  0  0  0
    5.6270   -0.8150   22.8520 N   0  0  0  0  0  0  0  0  0  0  0  0
    6.9030   -0.4710   22.4400 C   0  0  0  0  0  0  0  0  0  0  0  0
    7.2110    0.0590   21.3770 O   0  0  0  0  0  0  0  0  0  0  0  0
    7.9800   -0.8010   23.4600 C   0  0  0  0  0  0  0  0  0  0  0  0
    9.0020   -1.8320   22.9390 C   0  0  2  0  0  0  0  0  0  0  0  0
    8.8330   -3.2360   23.6200 C   0  0  0  0  0  0  0  0  0  0  0  0
    8.0500   -3.1250   24.8800 N   0  0  0  0  0  0  0  0  0  0  0  0
    8.1050   -4.3140   26.0830 S   0  0  0  0  0  0  0  0  0  0  0  0
    6.4840   -5.0480   26.0100 C   0  0  0  0  0  0  0  0  0  0  0  0
    9.1010   -5.3050   25.7520 O   0  0  0  0  0  0  0  0  0  0  0  0
    8.1450   -3.5810   27.3250 O   0  0  0  0  0  0  0  0  0  0  0  0
   10.4270   -1.2470   22.8340 C   0  0  0  0  0  0  0  0  0  0  0  0
   10.7360    0.0010   23.3940 C   0  0  0  0  0  0  0  0  0  0  0  0
   12.0340    0.5360   23.3060 C   0  0  0  0  0  0  0  0  0  0  0  0
   13.0310   -0.1590   22.6700 C   0  0  0  0  0  0  0  0  0  0  0  0
   12.7520   -1.3900   22.1040 C   0  0  0  0  0  0  0  0  0  0  0  0
   11.4640   -1.9240   22.1850 C   0  0  0  0  0  0  0  0  0  0  0  0
  1  2  1  0
  2  3  2  0
  3  4  1  0
  4  5  2  0
  5  6  1  0
  2  7  1  0
  6  7  2  0
  7  8  1  0
  8  9  1  0
  9 10  2  0
  9 11  1  0
 12 11  1  1
 12 13  1  0
 13 14  1  0
 15 14  1  0
 15 16  1  0
 15 17  2  0
 15 18  2  0
 12 19  1  0
 19 20  2  0
 20 21  1  0
 21 22  2  0
 22 23  1  0
 19 24  1  0
 23 24  2  0
M  END
