PET-SGC-481b48b7-1
     RDKit          3D

 22 24  0  0  0  0  0  0  0  0999 V2000
    7.4420    2.8290   22.1090 N   0  0  0  0  0  0  0  0  0  0  0  0
    8.3420    1.8150   22.3120 C   0  0  0  0  0  0  0  0  0  0  0  0
    9.1940    1.4510   21.2490 O   0  0  0  0  0  0  0  0  0  0  0  0
    8.2760    1.1910   23.6790 C   0  0  1  0  0  0  0  0  0  0  0  0
    7.0130    0.5950   23.7820 C   0  0  0  0  0  0  0  0  0  0  0  0
    7.0820   -0.7720   23.1960 C   0  0  0  0  0  0  0  0  0  0  0  0
    8.3900   -1.1480   23.1690 C   0  0  0  0  0  0  0  0  0  0  0  0
    9.1470   -0.1100   23.9430 C   0  0  1  0  0  0  0  0  0  0  0  0
   10.4980   -0.0860   23.7690 N   0  0  0  0  0  0  0  0  0  0  0  0
   10.8980   -1.0830   22.9930 C   0  0  0  0  0  0  0  0  0  0  0  0
   12.3250   -1.2810   22.5650 C   0  0  0  0  0  0  0  0  0  0  0  0
   13.2040   -0.0680   22.8590 C   0  0  0  0  0  0  0  0  0  0  0  0
   12.3870    1.2060   23.0850 C   0  0  0  0  0  0  0  0  0  0  0  0
   13.0140    2.5330   22.8200 C   0  0  0  0  0  0  0  0  0  0  0  0
   12.2840    3.6970   23.0160 C   0  0  0  0  0  0  0  0  0  0  0  0
   10.9700    3.6310   23.4720 C   0  0  0  0  0  0  0  0  0  0  0  0
   10.0730    5.1010   23.7270 S   0  0  0  0  0  0  0  0  0  0  0  0
   11.2790    6.2770   23.6300 N   0  0  0  0  0  0  0  0  0  0  0  0
    9.4690    5.1720   25.0460 O   0  0  0  0  0  0  0  0  0  0  0  0
    9.2310    5.3380   22.5950 O   0  0  0  0  0  0  0  0  0  0  0  0
   10.3950    2.3790   23.7210 C   0  0  0  0  0  0  0  0  0  0  0  0
   11.0890    1.1710   23.5260 C   0  0  0  0  0  0  0  0  0  0  0  0
  1  2  1  0
  2  3  2  0
  4  2  1  6
  4  5  1  0
  5  6  1  0
  6  7  1  0
  4  8  1  0
  7  8  1  0
  8  9  1  6
  9 10  1  0
 10 11  1  0
 11 12  1  0
 12 13  1  0
 13 14  2  0
 14 15  1  0
 15 16  2  0
 16 17  1  0
 17 18  1  0
 17 19  2  0
 17 20  2  0
 16 21  1  0
  9 22  1  0
 13 22  1  0
 21 22  2  0
M  END
