PET-SGC-39d74636-1
     RDKit          3D

 16 17  0  0  0  0  0  0  0  0999 V2000
   13.4300    0.3930   22.7230 C   0  0  0  0  0  0  0  0  0  0  0  0
   12.4780    1.4810   22.9350 C   0  0  0  0  0  0  0  0  0  0  0  0
   11.1870    1.3740   22.8980 N   0  0  0  0  0  0  0  0  0  0  0  0
   10.4220    0.1610   23.0840 C   0  0  0  0  0  0  0  0  0  0  0  0
   11.7560   -0.1240   22.4350 N   0  0  0  0  0  0  0  0  0  0  0  0
   12.2200   -1.6450   21.9680 S   0  0  0  0  0  0  0  0  0  0  0  0
   10.7860   -2.1610   22.5510 C   0  0  0  0  0  0  0  0  0  0  0  0
    9.9530   -1.2310   23.0980 C   0  0  0  0  0  0  0  0  0  0  0  0
    8.6220   -1.6500   23.6640 C   0  0  0  0  0  0  0  0  0  0  0  0
    8.5260   -2.6700   24.5880 N   0  0  0  0  0  0  0  0  0  0  0  0
    9.0560   -3.9610   24.4780 C   0  0  0  0  0  0  0  0  0  0  0  0
    9.0430   -4.8950   25.6520 C   0  0  0  0  0  0  0  0  0  0  0  0
    8.1250   -4.3530   26.7060 C   0  0  0  0  0  0  0  0  0  0  0  0
    7.9350   -5.1270   27.6300 O   0  0  0  0  0  0  0  0  0  0  0  0
    6.8990   -3.9390   25.9460 C   0  0  0  0  0  0  0  0  0  0  0  0
    7.2320   -2.6720   25.1770 C   0  0  0  0  0  0  0  0  0  0  0  0
  1  2  1  0
  2  3  1  0
  3  4  1  0
  4  5  2  0
  5  6  1  0
  6  7  1  0
  4  8  1  0
  7  8  2  0
  8  9  1  0
  9 10  1  0
 10 11  1  0
 11 12  1  0
 12 13  1  0
 13 14  1  0
 13 15  1  0
 10 16  1  0
 15 16  1  0
M  END
