PET-SGC-a3e47117-1
     RDKit          3D

 24 26  0  0  0  0  0  0  0  0999 V2000
    3.1630    2.0920   20.9110 C   0  0  0  0  0  0  0  0  0  0  0  0
    4.0860    1.7100   19.9440 C   0  0  0  0  0  0  0  0  0  0  0  0
    4.1280    2.2650   18.5600 C   0  0  0  0  0  0  0  0  0  0  0  0
    5.1080    1.8860   17.4530 C   0  0  0  0  0  0  0  0  0  0  0  0
    6.0900    0.9400   17.6390 N   0  0  0  0  0  0  0  0  0  0  0  0
    5.3250    1.1670   18.6910 C   0  0  0  0  0  0  0  0  0  0  0  0
    5.0980    0.8190   20.0260 C   0  0  0  0  0  0  0  0  0  0  0  0
    5.8150   -0.1300   20.8800 N   0  0  0  0  0  0  0  0  0  0  0  0
    7.0550   -0.4700   20.3000 C   0  0  0  0  0  0  0  0  0  0  0  0
    7.2140   -0.4350   19.0820 O   0  0  0  0  0  0  0  0  0  0  0  0
    8.2570   -0.8940   21.1500 C   0  0  0  0  0  0  0  0  0  0  0  0
    8.0900   -0.8240   22.5310 C   0  0  2  0  0  0  0  0  0  0  0  0
    7.0660   -0.1000   23.1220 C   0  0  0  0  0  0  0  0  0  0  0  0
    7.5630    1.1530   23.4690 C   0  0  0  0  0  0  0  0  0  0  0  0
    8.9210    1.2860   23.2000 C   0  0  2  0  0  0  0  0  0  0  0  0
    9.2330    2.0410   22.0710 C   0  0  0  0  0  0  0  0  0  0  0  0
   10.0240    3.1400   22.2770 N   0  0  0  0  0  0  0  0  0  0  0  0
    8.8360    1.7890   20.9510 O   0  0  0  0  0  0  0  0  0  0  0  0
    9.3270   -0.2230   23.2100 C   0  0  2  0  0  0  0  0  0  0  0  0
   10.7380   -0.6740   22.7590 C   0  0  0  0  0  0  0  0  0  0  0  0
   11.6720    0.4940   22.9520 C   0  0  0  0  0  0  0  0  0  0  0  0
   12.9720    0.1680   22.6020 C   0  0  0  0  0  0  0  0  0  0  0  0
   13.0740   -1.4590   22.0440 S   0  0  0  0  0  0  0  0  0  0  0  0
   11.3870   -1.7800   22.2640 C   0  0  0  0  0  0  0  0  0  0  0  0
  1  2  1  0
  2  3  2  0
  3  4  1  0
  4  5  2  0
  5  6  1  0
  2  7  1  0
  6  7  2  0
  7  8  1  0
  8  9  1  0
  9 10  2  0
  9 11  1  0
 12 11  1  6
 12 13  1  0
 13 14  1  0
 14 15  1  0
 15 16  1  6
 16 17  1  0
 16 18  2  0
 12 19  1  0
 15 19  1  0
 19 20  1  6
 20 21  1  0
 21 22  2  0
 22 23  1  0
 20 24  2  0
 23 24  1  0
M  END
