PET-SGC-ae7b447e-1
     RDKit          3D

 29 32  0  0  0  0  0  0  0  0999 V2000
    1.2940    1.9960   27.0250 C   0  0  0  0  0  0  0  0  0  0  0  0
    2.7430    1.8340   26.5540 C   0  0  0  0  0  0  0  0  0  0  0  0
    2.9250    1.6440   25.1840 C   0  0  0  0  0  0  0  0  0  0  0  0
    4.2120    1.4790   24.6480 C   0  0  0  0  0  0  0  0  0  0  0  0
    5.3410    1.5010   25.4680 C   0  0  0  0  0  0  0  0  0  0  0  0
    6.5950    1.3410   24.9560 O   0  0  0  0  0  0  0  0  0  0  0  0
    7.0340    0.0180   24.6990 C   0  0  0  0  0  0  0  0  0  0  0  0
    8.3050   -0.2720   25.2060 C   0  0  0  0  0  0  0  0  0  0  0  0
    8.4530   -0.3810   26.4210 O   0  0  0  0  0  0  0  0  0  0  0  0
    9.3400   -0.4280   24.3240 N   0  0  0  0  0  0  0  0  0  0  0  0
    9.4490    0.2910   23.0410 C   0  0  0  0  0  0  0  0  0  0  0  0
   10.5710   -0.0470   22.2830 C   0  0  0  0  0  0  0  0  0  0  0  0
   11.5120   -0.9730   22.9110 N   0  0  0  0  0  0  0  0  0  0  0  0
   12.8730   -0.9900   22.4110 C   0  0  0  0  0  0  0  0  0  0  0  0
   13.5380    0.1120   22.8930 C   0  0  0  0  0  0  0  0  0  0  0  0
   12.7350    1.3150   23.1470 C   0  0  0  0  0  0  0  0  0  0  0  0
   13.0940    2.7290   22.7420 C   0  0  0  0  0  0  0  0  0  0  0  0
   12.1410    3.8230   23.0020 C   0  0  0  0  0  0  0  0  0  0  0  0
   10.8550    3.4990   23.6740 C   0  0  0  0  0  0  0  0  0  0  0  0
    9.7960    4.9220   23.8800 S   0  0  0  0  0  0  0  0  0  0  0  0
   10.8690    6.1560   23.4490 N   0  0  0  0  0  0  0  0  0  0  0  0
    9.4020    5.1650   25.2420 O   0  0  0  0  0  0  0  0  0  0  0  0
    8.8100    4.9170   22.8330 O   0  0  0  0  0  0  0  0  0  0  0  0
   10.5930    2.1310   24.0770 C   0  0  0  0  0  0  0  0  0  0  0  0
   11.6310    1.0240   23.7730 C   0  0  0  0  0  0  0  0  0  0  0  0
   11.6150   -0.3490   24.0570 C   0  0  1  0  0  0  0  0  0  0  0  0
   10.5570   -0.9230   24.8630 C   0  0  0  0  0  0  0  0  0  0  0  0
    5.1210    1.6960   26.8350 C   0  0  0  0  0  0  0  0  0  0  0  0
    3.8640    1.8610   27.3940 C   0  0  0  0  0  0  0  0  0  0  0  0
  1  2  1  0
  2  3  2  0
  3  4  1  0
  4  5  2  0
  5  6  1  0
  6  7  1  0
  7  8  1  0
  8  9  2  0
  8 10  1  0
 10 11  1  0
 11 12  1  0
 12 13  1  0
 13 14  1  0
 14 15  1  0
 15 16  1  0
 16 17  2  0
 17 18  1  0
 18 19  2  0
 19 20  1  0
 20 21  1  0
 20 22  2  0
 20 23  2  0
 19 24  1  0
 16 25  1  0
 24 25  2  0
 13 26  1  0
 25 26  1  0
 10 27  1  0
 26 27  1  1
  5 28  1  0
  2 29  1  0
 28 29  2  0
M  END
