PET-SGC-908c18f3-1
     RDKit          3D

 23 25  0  0  0  0  0  0  0  0999 V2000
   11.2490    6.1800   23.2870 N   0  0  0  0  0  0  0  0  0  0  0  0
   10.0440    5.0640   23.6780 S   0  0  0  0  0  0  0  0  0  0  0  0
    9.7390    5.3220   25.0590 O   0  0  0  0  0  0  0  0  0  0  0  0
    9.0160    5.1450   22.6830 O   0  0  0  0  0  0  0  0  0  0  0  0
   10.9100    3.5210   23.4710 C   0  0  0  0  0  0  0  0  0  0  0  0
   12.3030    3.5250   23.0040 C   0  0  0  0  0  0  0  0  0  0  0  0
   13.0060    2.4150   22.8310 C   0  0  0  0  0  0  0  0  0  0  0  0
   12.4690    1.0420   23.0760 C   0  0  0  0  0  0  0  0  0  0  0  0
   11.0500    0.9440   23.5580 C   0  0  0  0  0  0  0  0  0  0  0  0
   10.3130    2.2790   23.7390 C   0  0  0  0  0  0  0  0  0  0  0  0
   10.5460   -0.3240   23.7840 N   0  0  0  0  0  0  0  0  0  0  0  0
    9.2110   -0.4840   24.4000 C   0  0  0  0  0  0  0  0  0  0  0  0
    9.2540   -1.2350   25.5730 C   0  0  0  0  0  0  0  0  0  0  0  0
    7.9820   -1.2810   26.3400 N   0  0  0  0  0  0  0  0  0  0  0  0
    7.2300   -2.5170   26.0710 C   0  0  0  0  0  0  0  0  0  0  0  0
    5.9910   -2.2430   25.4900 C   0  0  0  0  0  0  0  0  0  0  0  0
    5.1280   -1.3470   26.1330 C   0  0  0  0  0  0  0  0  0  0  0  0
    4.4250   -2.0290   27.1710 O   0  0  0  0  0  0  0  0  0  0  0  0
    5.8900   -0.1640   26.7060 C   0  0  0  0  0  0  0  0  0  0  0  0
    7.1540   -0.0720   26.1550 C   0  0  0  0  0  0  0  0  0  0  0  0
   10.9540   -1.3790   22.8050 C   0  0  0  0  0  0  0  0  0  0  0  0
   12.2950   -1.3430   22.4570 C   0  0  0  0  0  0  0  0  0  0  0  0
   13.2510   -0.2110   22.8660 C   0  0  0  0  0  0  0  0  0  0  0  0
  2  1  1  0
  2  3  2  0
  2  4  2  0
  2  5  1  0
  5  6  2  0
  6  7  1  0
  7  8  2  0
  8  9  1  0
  5 10  1  0
  9 10  2  0
  9 11  1  0
 11 12  1  0
 12 13  1  0
 13 14  1  0
 14 15  1  0
 15 16  1  0
 16 17  1  0
 17 18  1  0
 17 19  1  0
 14 20  1  0
 19 20  1  0
 11 21  1  0
 21 22  1  0
  8 23  1  0
 22 23  1  0
M  END
