PET-SGC-f913cec9-1
     RDKit          3D

 34 37  0  0  0  0  0  0  0  0999 V2000
    2.4670    4.4060   15.2090 N   0  0  0  0  0  0  0  0  0  0  0  0
    0.8630    4.8360   14.9720 S   0  0  0  0  0  0  0  0  0  0  0  0
    0.8310    6.2720   14.8170 O   0  0  0  0  0  0  0  0  0  0  0  0
    0.3680    3.9320   13.9410 O   0  0  0  0  0  0  0  0  0  0  0  0
    0.1120    4.4200   16.5190 C   0  0  0  0  0  0  0  0  0  0  0  0
   -1.2560    4.6560   16.6960 C   0  0  0  0  0  0  0  0  0  0  0  0
   -1.8850    4.3300   17.9020 C   0  0  0  0  0  0  0  0  0  0  0  0
   -1.1730    3.7550   18.9640 C   0  0  0  0  0  0  0  0  0  0  0  0
    0.1890    3.4840   18.8780 C   0  0  0  0  0  0  0  0  0  0  0  0
    0.8750    3.8550   17.5550 C   0  0  0  0  0  0  0  0  0  0  0  0
    0.6810    2.9020   20.0270 N   0  0  0  0  0  0  0  0  0  0  0  0
    1.8220    3.2790   20.7910 C   0  0  0  0  0  0  0  0  0  0  0  0
    3.2610    3.0320   20.3200 C   0  0  0  0  0  0  0  0  0  0  0  0
    3.8170    1.8500   20.9150 C   0  0  2  0  0  0  0  0  0  0  0  0
    4.4960    1.8790   22.1390 C   0  0  0  0  0  0  0  0  0  0  0  0
    3.9530    2.8930   23.0190 N   0  0  0  0  0  0  0  0  0  0  0  0
    2.7970    2.6790   23.7430 C   0  0  0  0  0  0  0  0  0  0  0  0
    2.6120    1.7130   24.4770 O   0  0  0  0  0  0  0  0  0  0  0  0
    1.8980    3.7130   23.5220 N   0  0  0  0  0  0  0  0  0  0  0  0
    0.7260    3.5490   24.2390 C   0  0  0  0  0  0  0  0  0  0  0  0
    0.3870    4.7600   24.8530 C   0  0  0  0  0  0  0  0  0  0  0  0
   -0.9010    4.8840   25.3640 C   0  0  0  0  0  0  0  0  0  0  0  0
   -1.9770    4.8550   24.2630 C   0  0  0  0  0  0  0  0  0  0  0  0
   -1.6910    3.3870   23.9130 C   0  0  0  0  0  0  0  0  0  0  0  0
   -0.4420    3.0900   23.3480 C   0  0  0  0  0  0  0  0  0  0  0  0
    4.7350    1.2110   19.9160 C   0  0  0  0  0  0  0  0  0  0  0  0
    5.5510    0.0810   20.1150 C   0  0  0  0  0  0  0  0  0  0  0  0
    6.3550   -0.3820   19.0670 C   0  0  0  0  0  0  0  0  0  0  0  0
    6.4090    0.1870   17.8530 N   0  0  0  0  0  0  0  0  0  0  0  0
    5.6480    1.2550   17.6430 C   0  0  0  0  0  0  0  0  0  0  0  0
    4.7510    1.8270   18.6980 C   0  0  0  0  0  0  0  0  0  0  0  0
   -0.0740    1.8990   20.5550 C   0  0  0  0  0  0  0  0  0  0  0  0
   -1.4140    2.2430   20.7690 C   0  0  0  0  0  0  0  0  0  0  0  0
   -1.9130    3.4190   20.2230 C   0  0  0  0  0  0  0  0  0  0  0  0
  2  1  1  0
  2  3  2  0
  2  4  2  0
  2  5  1  0
  5  6  2  0
  6  7  1  0
  7  8  2  0
  8  9  1  0
  5 10  1  0
  9 10  2  0
  9 11  1  0
 11 12  1  0
 12 13  1  0
 14 13  1  6
 14 15  1  0
 15 16  1  0
 16 17  1  0
 17 18  2  0
 17 19  1  0
 19 20  1  0
 20 21  1  0
 21 22  1  0
 22 23  1  0
 23 24  1  0
 20 25  1  0
 24 25  1  0
 14 26  1  0
 26 27  2  0
 27 28  1  0
 28 29  2  0
 29 30  1  0
 26 31  1  0
 30 31  2  0
 11 32  1  0
 32 33  1  0
  8 34  1  0
 33 34  1  0
M  END
