PET-SGC-d0156db4-1
     RDKit          3D

 22 23  0  0  0  0  0  0  0  0999 V2000
    6.5420   -4.7280   25.7750 C   0  0  0  0  0  0  0  0  0  0  0  0
    8.1070   -3.8790   25.8230 S   0  0  0  0  0  0  0  0  0  0  0  0
    9.1130   -4.8820   25.5550 O   0  0  0  0  0  0  0  0  0  0  0  0
    8.1370   -3.1620   27.0770 O   0  0  0  0  0  0  0  0  0  0  0  0
    8.0010   -2.6960   24.5800 N   0  0  0  0  0  0  0  0  0  0  0  0
    8.8190   -2.8530   23.3360 C   0  0  0  0  0  0  0  0  0  0  0  0
    9.2200   -1.7580   22.4830 C   0  0  1  0  0  0  0  0  0  0  0  0
    8.4350   -0.6750   21.9780 C   0  0  0  0  0  0  0  0  0  0  0  0
    8.8920    0.4770   21.9000 O   0  0  0  0  0  0  0  0  0  0  0  0
    7.0770   -1.0420   21.5340 N   0  0  0  0  0  0  0  0  0  0  0  0
    6.5890   -0.2980   20.3590 C   0  0  0  0  0  0  0  0  0  0  0  0
    5.4040    0.6040   20.5500 C   0  0  0  0  0  0  0  0  0  0  0  0
    4.8360    1.4000   19.3700 C   0  0  0  0  0  0  0  0  0  0  0  0
    5.5770    1.1720   18.0850 C   0  0  0  0  0  0  0  0  0  0  0  0
    6.6350    0.3490   17.9840 N   0  0  0  0  0  0  0  0  0  0  0  0
    7.1030   -0.3410   19.0650 C   0  0  0  0  0  0  0  0  0  0  0  0
   10.5320   -1.0620   22.9090 C   0  0  0  0  0  0  0  0  0  0  0  0
   11.4610   -1.6940   22.0730 C   0  0  0  0  0  0  0  0  0  0  0  0
   12.7760   -1.2740   22.1820 C   0  0  0  0  0  0  0  0  0  0  0  0
   13.1140   -0.2790   23.0790 C   0  0  0  0  0  0  0  0  0  0  0  0
   12.1630    0.3110   23.8910 C   0  0  0  0  0  0  0  0  0  0  0  0
   10.8510   -0.0630   23.8340 C   0  0  0  0  0  0  0  0  0  0  0  0
  1  2  1  0
  2  3  2  0
  2  4  2  0
  2  5  1  0
  5  6  1  0
  7  6  1  1
  7  8  1  0
  8  9  2  0
  8 10  1  0
 10 11  1  0
 11 12  2  0
 12 13  1  0
 13 14  2  0
 14 15  1  0
 11 16  1  0
 15 16  2  0
  7 17  1  0
 17 18  2  0
 18 19  1  0
 19 20  2  0
 20 21  1  0
 17 22  1  0
 21 22  2  0
M  END
