PET-SGC-d0fd10df-1
     RDKit          3D

 26 27  0  0  0  0  0  0  0  0999 V2000
   13.3410    4.3260   22.1640 C   0  0  0  0  0  0  0  0  0  0  0  0
   13.9860    3.3430   22.5430 O   0  0  0  0  0  0  0  0  0  0  0  0
   13.3580    2.1310   22.7850 C   0  0  0  0  0  0  0  0  0  0  0  0
   13.8360    1.0180   22.6570 O   0  0  0  0  0  0  0  0  0  0  0  0
   12.2080    2.2750   23.2020 C   0  0  0  0  0  0  0  0  0  0  0  0
   11.4390    3.5230   23.2740 C   0  0  0  0  0  0  0  0  0  0  0  0
   10.0670    3.6150   23.8070 C   0  0  0  0  0  0  0  0  0  0  0  0
    9.4240    5.2710   23.8350 S   0  0  0  0  0  0  0  0  0  0  0  0
    8.2840    5.2070   22.6100 N   0  0  0  0  0  0  0  0  0  0  0  0
   10.4920    6.1560   23.4050 O   0  0  0  0  0  0  0  0  0  0  0  0
    8.8390    5.4520   25.1620 O   0  0  0  0  0  0  0  0  0  0  0  0
    9.3780    2.3220   24.2930 C   0  0  0  0  0  0  0  0  0  0  0  0
   10.2040    0.9990   24.2230 C   0  0  0  0  0  0  0  0  0  0  0  0
   11.6350    0.9690   23.6880 C   0  0  0  0  0  0  0  0  0  0  0  0
   12.2900   -0.2840   23.7170 C   0  0  0  0  0  0  0  0  0  0  0  0
   12.5290   -0.8770   25.1390 C   0  0  0  0  0  0  0  0  0  0  0  0
   13.0610   -2.2790   25.3120 C   0  0  0  0  0  0  0  0  0  0  0  0
   14.1490   -2.5320   25.8050 O   0  0  0  0  0  0  0  0  0  0  0  0
   12.1800   -3.1690   24.8810 N   0  0  0  0  0  0  0  0  0  0  0  0
   12.0550   -2.8170   23.6320 C   0  0  0  0  0  0  0  0  0  0  0  0
   13.2940   -2.6830   23.0380 C   0  0  0  0  0  0  0  0  0  0  0  0
   13.3650   -2.2930   21.6590 N   0  0  0  0  0  0  0  0  0  0  0  0
   12.0990   -2.0860   21.0630 C   0  0  0  0  0  0  0  0  0  0  0  0
   10.9060   -2.2340   21.7220 C   0  0  0  0  0  0  0  0  0  0  0  0
   10.8430   -2.6010   23.0130 C   0  0  0  0  0  0  0  0  0  0  0  0
    9.4470   -2.7280   23.6000 C   0  0  0  0  0  0  0  0  0  0  0  0
  1  2  1  0
  2  3  1  0
  3  4  2  0
  3  5  1  0
  5  6  2  0
  6  7  1  0
  7  8  1  0
  8  9  1  0
  8 10  2  0
  8 11  2  0
  7 12  2  0
 12 13  1  0
  5 14  1  0
 13 14  2  0
 14 15  1  0
 15 16  1  0
 16 17  1  0
 17 18  2  0
 17 19  1  0
 19 20  1  0
 20 21  2  0
 21 22  1  0
 22 23  2  0
 23 24  1  0
 20 25  1  0
 24 25  2  0
 25 26  1  0
M  END
