PET-SGC-85e821e4-1
     RDKit          3D

 21 22  0  0  0  0  0  0  0  0999 V2000
    6.3080   -5.2490   26.3700 C   0  0  0  0  0  0  0  0  0  0  0  0
    7.9250   -4.5230   26.1910 S   0  0  0  0  0  0  0  0  0  0  0  0
    8.9080   -5.5790   26.1050 O   0  0  0  0  0  0  0  0  0  0  0  0
    8.0540   -3.5010   27.2060 O   0  0  0  0  0  0  0  0  0  0  0  0
    7.8680   -3.7080   24.7040 N   0  0  0  0  0  0  0  0  0  0  0  0
    9.0330   -3.0750   24.3560 C   0  0  0  0  0  0  0  0  0  0  0  0
    9.0580   -2.2830   23.0660 C   0  0  0  0  0  0  0  0  0  0  0  0
   10.0850   -1.1390   23.0150 C   0  0  0  0  0  0  0  0  0  0  0  0
   11.5150   -1.5210   22.5840 C   0  0  0  0  0  0  0  0  0  0  0  0
   12.5280   -0.3810   22.5370 C   0  0  0  0  0  0  0  0  0  0  0  0
   11.9750    1.0070   22.8930 C   0  0  0  0  0  0  0  0  0  0  0  0
   12.8450    2.2140   22.8460 C   0  0  0  0  0  0  0  0  0  0  0  0
   12.3880    3.6170   23.1340 C   0  0  0  0  0  0  0  0  0  0  0  0
   11.0590    3.7120   23.4850 C   0  0  0  0  0  0  0  0  0  0  0  0
   10.3830    5.3300   23.8460 S   0  0  0  0  0  0  0  0  0  0  0  0
    9.1980    5.4680   22.6610 N   0  0  0  0  0  0  0  0  0  0  0  0
    9.6320    5.3690   25.0890 O   0  0  0  0  0  0  0  0  0  0  0  0
   11.3760    6.3250   23.5140 O   0  0  0  0  0  0  0  0  0  0  0  0
   10.2280    2.5520   23.5540 C   0  0  0  0  0  0  0  0  0  0  0  0
   10.6580    1.2370   23.2610 C   0  0  0  0  0  0  0  0  0  0  0  0
    9.7540    0.1970   23.3300 C   0  0  0  0  0  0  0  0  0  0  0  0
  1  2  1  0
  2  3  2  0
  2  4  2  0
  2  5  1  0
  5  6  1  0
  6  7  1  0
  7  8  1  0
  8  9  2  0
  9 10  1  0
 10 11  2  0
 11 12  1  0
 12 13  2  0
 13 14  1  0
 14 15  1  0
 15 16  1  0
 15 17  2  0
 15 18  2  0
 14 19  2  0
 11 20  1  0
 19 20  1  0
  8 21  1  0
 20 21  2  0
M  END
