PET-SGC-b0f8bd49-1
     RDKit          3D

 22 23  0  0  0  0  0  0  0  0999 V2000
    6.5740   -4.8790   25.9510 C   0  0  0  0  0  0  0  0  0  0  0  0
    8.1570   -4.0810   25.7770 S   0  0  0  0  0  0  0  0  0  0  0  0
    9.1580   -5.1280   25.8050 O   0  0  0  0  0  0  0  0  0  0  0  0
    8.1900   -2.9990   26.7380 O   0  0  0  0  0  0  0  0  0  0  0  0
    8.1200   -3.4470   24.1920 N   0  0  0  0  0  0  0  0  0  0  0  0
    8.5490   -2.1040   23.8950 C   0  0  0  0  0  0  0  0  0  0  0  0
    8.9600   -1.6350   22.6040 C   0  0  1  0  0  0  0  0  0  0  0  0
    8.2190   -0.7090   21.8010 C   0  0  0  0  0  0  0  0  0  0  0  0
    8.7540    0.3810   21.5700 O   0  0  0  0  0  0  0  0  0  0  0  0
    6.8810   -1.1060   21.2920 N   0  0  0  0  0  0  0  0  0  0  0  0
    6.3920   -0.2970   20.1440 C   0  0  0  0  0  0  0  0  0  0  0  0
    5.2400    0.4750   20.3580 C   0  0  0  0  0  0  0  0  0  0  0  0
    4.6280    1.3460   19.2620 C   0  0  0  0  0  0  0  0  0  0  0  0
    5.3020    1.2900   18.1080 C   0  0  0  0  0  0  0  0  0  0  0  0
    6.4140    0.5580   17.8670 N   0  0  0  0  0  0  0  0  0  0  0  0
    6.9320   -0.2110   18.8680 C   0  0  0  0  0  0  0  0  0  0  0  0
   10.3950   -1.0500   22.6600 C   0  0  0  0  0  0  0  0  0  0  0  0
   10.6670    0.3540   23.1680 C   0  0  0  0  0  0  0  0  0  0  0  0
   11.9760    0.8380   23.1850 C   0  0  0  0  0  0  0  0  0  0  0  0
   13.1090    0.1750   22.7880 C   0  0  0  0  0  0  0  0  0  0  0  0
   12.9500   -1.2410   22.2620 C   0  0  0  0  0  0  0  0  0  0  0  0
   11.5540   -1.8640   22.1970 C   0  0  0  0  0  0  0  0  0  0  0  0
  1  2  1  0
  2  3  2  0
  2  4  2  0
  2  5  1  0
  5  6  1  0
  7  6  1  1
  7  8  1  0
  8  9  2  0
  8 10  1  0
 10 11  1  0
 11 12  2  0
 12 13  1  0
 13 14  2  0
 14 15  1  0
 11 16  1  0
 15 16  2  0
  7 17  1  0
 17 18  2  0
 18 19  1  0
 19 20  2  0
 20 21  1  0
 17 22  1  0
 21 22  2  0
M  END
