PET-SGC-05cff2e1-1
     RDKit          3D

 26 28  0  0  0  0  0  0  0  0999 V2000
    5.4330   -2.6560   20.4970 C   0  0  0  0  0  0  0  0  0  0  0  0
    5.9500   -3.6220   21.5000 C   0  0  0  0  0  0  0  0  0  0  0  0
    5.8680   -4.9640   21.4290 C   0  0  0  0  0  0  0  0  0  0  0  0
    6.3930   -5.9640   22.4370 C   0  0  0  0  0  0  0  0  0  0  0  0
    7.0320   -5.5410   23.5680 N   0  0  0  0  0  0  0  0  0  0  0  0
    7.1190   -4.1640   23.6440 C   0  0  0  0  0  0  0  0  0  0  0  0
    6.5880   -3.1350   22.6270 C   0  0  0  0  0  0  0  0  0  0  0  0
    6.7970   -1.7150   22.9240 N   0  0  0  0  0  0  0  0  0  0  0  0
    7.1190   -1.2690   24.2730 C   0  0  0  0  0  0  0  0  0  0  0  0
    6.6980   -1.6520   25.3590 O   0  0  0  0  0  0  0  0  0  0  0  0
    8.1580   -0.1280   24.3590 C   0  0  0  0  0  0  0  0  0  0  0  0
    9.4370   -0.6680   24.5670 C   0  0  0  0  0  0  0  0  0  0  0  0
   10.4000   -0.3930   23.4820 N   0  0  0  0  0  0  0  0  0  0  0  0
   10.8930   -1.3620   22.5720 C   0  0  0  0  0  0  0  0  0  0  0  0
   12.3870   -1.3290   22.2350 C   0  0  0  0  0  0  0  0  0  0  0  0
   13.1330   -0.2420   22.7340 C   0  0  0  0  0  0  0  0  0  0  0  0
   12.4310    0.9330   22.9650 C   0  0  0  0  0  0  0  0  0  0  0  0
   12.9310    2.2160   22.8580 C   0  0  0  0  0  0  0  0  0  0  0  0
   12.2920    3.4290   23.0520 C   0  0  0  0  0  0  0  0  0  0  0  0
   10.9620    3.5410   23.4200 C   0  0  0  0  0  0  0  0  0  0  0  0
   10.1310    5.0900   23.6690 S   0  0  0  0  0  0  0  0  0  0  0  0
   11.3020    6.2070   23.2090 N   0  0  0  0  0  0  0  0  0  0  0  0
    9.8360    5.3250   25.0520 O   0  0  0  0  0  0  0  0  0  0  0  0
    9.0740    5.2020   22.7070 O   0  0  0  0  0  0  0  0  0  0  0  0
   10.2560    2.2060   23.5920 C   0  0  0  0  0  0  0  0  0  0  0  0
   10.9770    0.8630   23.3620 C   0  0  0  0  0  0  0  0  0  0  0  0
  1  2  1  0
  2  3  2  0
  3  4  1  0
  4  5  2  0
  5  6  1  0
  2  7  1  0
  6  7  2  0
  7  8  1  0
  8  9  1  0
  9 10  2  0
  9 11  1  0
 11 12  1  0
 12 13  1  0
 13 14  1  0
 14 15  1  0
 15 16  1  0
 16 17  1  0
 17 18  2  0
 18 19  1  0
 19 20  2  0
 20 21  1  0
 21 22  1  0
 21 23  2  0
 21 24  2  0
 20 25  1  0
 13 26  1  0
 17 26  1  0
 25 26  2  0
M  END
