PET-SGC-83d43576-1
     RDKit          3D

 23 24  0  0  0  0  0  0  0  0999 V2000
    5.2230    0.8220   21.9450 C   0  0  0  0  0  0  0  0  0  0  0  0
    5.6570    0.6530   20.5150 C   0  0  0  0  0  0  0  0  0  0  0  0
    4.9100    1.3770   19.4700 C   0  0  0  0  0  0  0  0  0  0  0  0
    5.2970    1.2360   18.1290 C   0  0  0  0  0  0  0  0  0  0  0  0
    6.3770    0.4070   17.8720 N   0  0  0  0  0  0  0  0  0  0  0  0
    7.0850   -0.2790   18.8270 C   0  0  0  0  0  0  0  0  0  0  0  0
    6.7410   -0.1650   20.1470 C   0  0  0  0  0  0  0  0  0  0  0  0
    7.5180   -0.8960   20.9910 N   0  0  0  0  0  0  0  0  0  0  0  0
    8.3050   -0.1570   21.8650 C   0  0  0  0  0  0  0  0  0  0  0  0
    8.6270    1.0200   21.6450 O   0  0  0  0  0  0  0  0  0  0  0  0
    8.8270   -0.7420   23.2050 C   0  0  0  0  0  0  0  0  0  0  0  0
   10.0340    0.0320   23.7350 C   0  0  0  0  0  0  0  0  0  0  0  0
   11.2380   -0.8500   23.8880 C   0  0  0  0  0  0  0  0  0  0  0  0
   12.3110   -1.4290   24.6220 C   0  0  0  0  0  0  0  0  0  0  0  0
   13.2930   -2.3200   24.2340 C   0  0  0  0  0  0  0  0  0  0  0  0
   14.2400   -2.6730   25.6400 S   0  0  0  0  0  0  0  0  0  0  0  0
   13.5490   -1.2630   26.0690 N   0  0  0  0  0  0  0  0  0  0  0  0
   15.6200   -2.4530   25.8580 O   0  0  0  0  0  0  0  0  0  0  0  0
   13.7970   -3.9330   26.0770 O   0  0  0  0  0  0  0  0  0  0  0  0
   13.4170   -2.8460   22.8450 C   0  0  0  0  0  0  0  0  0  0  0  0
   12.3230   -2.3180   21.9650 C   0  0  0  0  0  0  0  0  0  0  0  0
   11.3030   -1.3590   22.5850 C   0  0  0  0  0  0  0  0  0  0  0  0
    9.9010   -0.7470   21.5310 Br  0  0  0  0  0  0  0  0  0  0  0  0
  1  2  1  0
  2  3  2  0
  3  4  1  0
  4  5  2  0
  5  6  1  0
  2  7  1  0
  6  7  2  0
  7  8  1  0
  8  9  1  0
  9 10  2  0
  9 11  1  0
 11 12  1  0
 12 13  1  0
 13 14  2  0
 14 15  1  0
 15 16  1  0
 16 17  1  0
 16 18  2  0
 16 19  2  0
 15 20  2  0
 20 21  1  0
 13 22  1  0
 21 22  2  0
 22 23  1  0
M  END
