PET-SGC-6e7c5dc0-1
     RDKit          3D

 17 17  0  0  0  0  0  0  0  0999 V2000
    5.3430    0.9380   21.9710 C   0  0  0  0  0  0  0  0  0  0  0  0
    5.7050    0.6850   20.6530 C   0  0  0  0  0  0  0  0  0  0  0  0
    4.9150    1.2100   19.6160 C   0  0  0  0  0  0  0  0  0  0  0  0
    5.2240    0.9930   18.2740 C   0  0  0  0  0  0  0  0  0  0  0  0
    6.2680    0.2820   17.8420 N   0  0  0  0  0  0  0  0  0  0  0  0
    7.1460   -0.3060   18.8530 C   0  0  0  0  0  0  0  0  0  0  0  0
    6.8330   -0.0750   20.3290 C   0  0  0  0  0  0  0  0  0  0  0  0
    7.7940   -0.7010   21.2690 N   0  0  0  0  0  0  0  0  0  0  0  0
    8.9090    0.1080   21.5640 C   0  0  0  0  0  0  0  0  0  0  0  0
    8.9680    1.3100   21.2540 O   0  0  0  0  0  0  0  0  0  0  0  0
   10.1090   -0.5230   22.2650 C   0  0  0  0  0  0  0  0  0  0  0  0
    9.7620   -1.6180   23.0740 C   0  0  0  0  0  0  0  0  0  0  0  0
   10.7990   -2.4040   23.5810 C   0  0  0  0  0  0  0  0  0  0  0  0
   11.7710   -1.7670   24.3620 C   0  0  0  0  0  0  0  0  0  0  0  0
   13.0010   -2.3990   24.4500 C   0  0  0  0  0  0  0  0  0  0  0  0
   13.6630   -2.7740   23.3540 N   0  0  0  0  0  0  0  0  0  0  0  0
   13.5850   -2.6550   25.6010 N   0  0  0  0  0  0  0  0  0  0  0  0
  1  2  1  0
  2  3  2  0
  3  4  1  0
  4  5  2  0
  5  6  1  0
  2  7  1  0
  6  7  2  0
  7  8  1  0
  8  9  1  0
  9 10  2  0
  9 11  1  0
 11 12  1  0
 12 13  1  0
 13 14  1  0
 14 15  1  0
 15 16  2  3
 15 17  1  0
M  END
