PHI-UNK-c3ab17cb-2
     RDKit          3D

 25 27  0  0  0  0  0  0  0  0999 V2000
   10.2640    1.6080   24.0060 N   0  0  0  0  0  0  0  0  0  0  0  0
   11.5830    1.9760   24.0540 C   0  0  0  0  0  0  0  0  0  0  0  0
   10.9850    3.0080   24.3350 O   0  0  0  0  0  0  0  0  0  0  0  0
   11.5940    0.5420   23.6430 C   0  0  0  0  0  0  0  0  0  0  0  0
   10.8220   -0.3700   23.8950 C   0  0  0  0  0  0  0  0  0  0  0  0
    9.8020   -0.7590   24.4680 C   0  0  0  0  0  0  0  0  0  0  0  0
   10.0450   -1.9630   23.9100 C   0  0  0  0  0  0  0  0  0  0  0  0
    9.2960   -3.1400   24.0210 C   0  0  0  0  0  0  0  0  0  0  0  0
    8.3970   -3.5350   22.9240 C   0  0  2  0  0  0  0  0  0  0  0  0
    7.1910   -2.8870   22.7510 C   0  0  0  0  0  0  0  0  0  0  0  0
    6.1330   -3.6420   22.7530 N   0  0  0  0  0  0  0  0  0  0  0  0
    6.6220   -4.8940   22.9410 C   0  0  0  0  0  0  0  0  0  0  0  0
    7.9940   -4.9570   23.0640 N   0  0  0  0  0  0  0  0  0  0  0  0
   11.3280   -1.8280   23.0850 C   0  0  0  0  0  0  0  0  0  0  0  0
   12.2350   -0.5060   22.8840 C   0  0  0  0  0  0  0  0  0  0  0  0
   13.3910   -0.6260   22.0360 C   0  0  0  0  0  0  0  0  0  0  0  0
   14.0350    0.5820   21.5490 N   0  0  0  0  0  0  0  0  0  0  0  0
   14.5090    1.0580   20.1280 C   0  0  0  0  0  0  0  0  0  0  0  0
   14.7030    0.1020   19.4360 O   0  0  0  0  0  0  0  0  0  0  0  0
   14.5460    2.3450   19.2610 C   0  0  0  0  0  0  0  0  0  0  0  0
   15.2760    3.5880   19.1280 C   0  0  0  0  0  0  0  0  0  0  0  0
   16.2000    2.7980   19.5030 C   0  0  0  0  0  0  0  0  0  0  0  0
   16.5380    1.8550   18.6090 O   0  0  0  0  0  0  0  0  0  0  0  0
   15.6660    2.2670   17.6420 C   0  0  0  0  0  0  0  0  0  0  0  0
   14.6060    1.6190   17.9900 C   0  0  0  0  0  0  0  0  0  0  0  0
  1  2  1  0
  2  3  2  0
  2  4  1  0
  4  5  2  0
  5  6  1  0
  6  7  2  0
  7  8  1  0
  9  8  1  1
  9 10  1  0
 10 11  2  0
 11 12  1  0
  9 13  1  0
 12 13  2  0
  7 14  1  0
  4 15  1  0
 14 15  2  0
 15 16  1  0
 16 17  1  0
 17 18  1  0
 18 19  2  0
 18 20  1  0
 20 21  1  0
 21 22  1  0
 22 23  1  0
 23 24  1  0
 20 25  1  0
 24 25  1  0
M  END
