PHI-UNK-c3ab17cb-3
     RDKit          3D

 17 17  0  0  0  0  0  0  0  0999 V2000
    5.1140    1.7520   23.7600 C   0  0  0  0  0  0  0  0  0  0  0  0
    6.4610    0.5670   24.0090 S   0  0  0  0  0  0  0  0  0  0  0  0
    7.8680    1.5620   23.4000 C   0  0  0  0  0  0  0  0  0  0  0  0
    8.9920    0.8440   23.2040 C   0  0  0  0  0  0  0  0  0  0  0  0
   10.3640    0.8240   23.0390 C   0  0  0  0  0  0  0  0  0  0  0  0
   11.6330    1.3830   22.9370 C   0  0  0  0  0  0  0  0  0  0  0  0
   12.1040    2.8670   23.0100 C   0  0  0  0  0  0  0  0  0  0  0  0
   13.3170    3.2840   22.7310 N   0  0  0  0  0  0  0  0  0  0  0  0
   11.2870    3.7090   23.3660 O   0  0  0  0  0  0  0  0  0  0  0  0
   12.0390    0.0230   22.7670 C   0  0  0  0  0  0  0  0  0  0  0  0
   13.3840   -0.5730   22.5400 C   0  0  0  0  0  0  0  0  0  0  0  0
   13.1910   -1.8930   21.3170 S   0  0  0  0  0  0  0  0  0  0  0  0
   10.9150   -0.9890   22.8160 C   0  0  0  0  0  0  0  0  0  0  0  0
    9.3210   -0.6560   23.0340 C   0  0  0  0  0  0  0  0  0  0  0  0
    8.2670   -1.7410   23.0570 C   0  0  0  0  0  0  0  0  0  0  0  0
    8.5330   -2.8460   23.8100 N   0  0  0  0  0  0  0  0  0  0  0  0
    7.2270   -1.6190   22.4240 O   0  0  0  0  0  0  0  0  0  0  0  0
  1  2  1  0
  2  3  1  0
  3  4  1  0
  4  5  2  0
  5  6  1  0
  6  7  1  0
  7  8  1  0
  7  9  2  0
  6 10  2  0
 10 11  1  0
 11 12  1  0
 10 13  1  0
  4 14  1  0
 13 14  2  0
 14 15  1  0
 15 16  1  0
 15 17  2  0
M  END
