RAF-POL-950dada1-21
     RDKit          3D

 17 18  0  0  0  0  0  0  0  0999 V2000
    9.0830    0.5520   22.3710 C   0  0  0  0  0  0  0  0  0  0  0  0
    7.8020    1.2690   22.7760 C   0  0  1  0  0  0  0  0  0  0  0  0
    7.8490    2.6950   22.4150 N   0  0  0  0  0  0  0  0  0  0  0  0
    7.2660    3.6830   23.3380 C   0  0  0  0  0  0  0  0  0  0  0  0
    6.1910    3.4620   23.9660 O   0  0  0  0  0  0  0  0  0  0  0  0
    7.9890    4.8480   23.4490 N   0  0  0  0  0  0  0  0  0  0  0  0
    7.5490    5.7610   22.5050 C   0  0  0  0  0  0  0  0  0  0  0  0
    8.0550    7.1970   22.2890 C   0  0  0  0  0  0  0  0  0  0  0  0
    8.8820    7.6060   23.4950 C   0  0  0  0  0  0  0  0  0  0  0  0
   10.2240    6.8400   23.4330 C   0  0  0  0  0  0  0  0  0  0  0  0
    9.9790    5.4320   24.0810 C   0  0  0  0  0  0  0  0  0  0  0  0
    9.3920    4.6360   23.3490 O   0  0  0  0  0  0  0  0  0  0  0  0
    6.5300    0.6300   22.1850 C   0  0  2  0  0  0  0  0  0  0  0  0
    6.4670    0.6840   20.6610 C   0  0  0  0  0  0  0  0  0  0  0  0
    5.2260    1.2440   20.4110 C   0  0  0  0  0  0  0  0  0  0  0  0
    4.7540    1.7120   21.4710 O   0  0  0  0  0  0  0  0  0  0  0  0
    5.3490    1.1110   22.6500 C   0  0  0  0  0  0  0  0  0  0  0  0
  2  1  1  6
  2  3  1  0
  3  4  1  0
  4  5  2  0
  4  6  1  0
  6  7  1  0
  7  8  1  0
  8  9  1  0
  9 10  1  0
 10 11  1  0
  6 12  1  0
 11 12  1  0
  2 13  1  0
 13 14  1  6
 14 15  1  0
 15 16  1  0
 13 17  1  0
 16 17  1  0
M  END
