RAF-POL-653f0897-1
     RDKit          3D

 17 19  0  0  0  0  0  0  0  0999 V2000
    6.7060    1.8360   22.9910 C   0  0  0  0  0  0  0  0  0  0  0  0
    6.0080    0.9100   22.0580 C   0  0  2  0  0  0  0  0  0  0  0  0
    5.7360    1.4050   20.7950 C   0  0  0  0  0  0  0  0  0  0  0  0
    5.5230    1.6170   19.3440 C   0  0  0  0  0  0  0  0  0  0  0  0
    5.6600    0.6580   18.1500 C   0  0  0  0  0  0  0  0  0  0  0  0
    6.0200   -0.6350   18.2530 C   0  0  0  0  0  0  0  0  0  0  0  0
    6.1920   -0.8340   19.5110 C   0  0  0  0  0  0  0  0  0  0  0  0
    6.1370   -0.1650   20.7770 C   0  0  0  0  0  0  0  0  0  0  0  0
    6.4440   -1.0020   22.0150 C   0  0  0  0  0  0  0  0  0  0  0  0
    5.2870   -1.0090   22.8040 C   0  0  0  0  0  0  0  0  0  0  0  0
    4.9150    0.3550   22.6580 N   0  0  0  0  0  0  0  0  0  0  0  0
    3.5630    0.8610   22.3770 C   0  0  0  0  0  0  0  0  0  0  0  0
    3.0640    1.5130   21.2670 N   0  0  0  0  0  0  0  0  0  0  0  0
    1.7550    1.7790   21.5010 N   0  0  0  0  0  0  0  0  0  0  0  0
    1.4330    1.3100   22.7210 N   0  0  0  0  0  0  0  0  0  0  0  0
    2.5160    0.7550   23.2500 N   0  0  0  0  0  0  0  0  0  0  0  0
    2.4720    0.1610   24.5510 C   0  0  0  0  0  0  0  0  0  0  0  0
  2  1  1  1
  2  3  1  0
  3  4  1  0
  4  5  2  0
  5  6  1  0
  6  7  2  0
  3  8  2  0
  7  8  1  0
  8  9  1  0
  9 10  1  0
  2 11  1  0
 10 11  1  0
 11 12  1  0
 12 13  2  0
 13 14  1  0
 14 15  2  0
 12 16  1  0
 15 16  1  0
 16 17  1  0
M  END
