RAF-POL-9fce0577-2
     RDKit          3D

 18 19  0  0  0  0  0  0  0  0999 V2000
    7.4350   -5.6550   22.3090 N   0  0  0  0  0  0  0  0  0  0  0  0
    7.1180   -4.7530   23.4240 C   0  0  0  0  0  0  0  0  0  0  0  0
    8.0910   -3.6510   23.7550 C   0  0  0  0  0  0  0  0  0  0  0  0
    8.3200   -2.8160   22.7030 N   0  0  0  0  0  0  0  0  0  0  0  0
    9.0160   -1.5860   22.7190 C   0  0  0  0  0  0  0  0  0  0  0  0
   10.1070   -1.4490   23.2660 O   0  0  0  0  0  0  0  0  0  0  0  0
    8.3780   -0.5550   22.0550 N   0  0  0  0  0  0  0  0  0  0  0  0
    8.6860    0.8500   22.2560 C   0  0  0  0  0  0  0  0  0  0  0  0
    7.5150    1.5990   22.8040 C   0  0  0  0  0  0  0  0  0  0  0  0
    7.7150    2.6520   23.7390 O   0  0  0  0  0  0  0  0  0  0  0  0
    6.2310    1.1630   22.2890 N   0  0  0  0  0  0  0  0  0  0  0  0
    6.1200    0.9230   20.9540 C   0  0  0  0  0  0  0  0  0  0  0  0
    5.1990    1.7740   20.2980 C   0  0  0  0  0  0  0  0  0  0  0  0
    4.9530    1.6580   18.8120 C   0  0  0  0  0  0  0  0  0  0  0  0
    5.7230    0.6150   18.1010 C   0  0  0  0  0  0  0  0  0  0  0  0
    6.6070   -0.1840   18.8150 C   0  0  0  0  0  0  0  0  0  0  0  0
    6.8260   -0.0650   20.1980 C   0  0  0  0  0  0  0  0  0  0  0  0
    7.7450   -0.9440   20.7880 C   0  0  0  0  0  0  0  0  0  0  0  0
  1  2  1  0
  2  3  1  0
  3  4  1  0
  4  5  1  0
  5  6  2  0
  5  7  1  0
  7  8  1  0
  8  9  1  0
  9 10  2  0
  9 11  1  0
 11 12  1  0
 12 13  2  0
 13 14  1  0
 14 15  2  0
 15 16  1  0
 12 17  1  0
 16 17  2  0
  7 18  1  0
 17 18  1  0
M  END
