RAF-POL-950dada1-14
     RDKit          3D

 17 18  0  0  0  0  0  0  0  0999 V2000
   11.2550   -2.6830   23.9930 C   0  0  0  0  0  0  0  0  0  0  0  0
   10.2690   -1.8590   23.1550 C   0  0  0  0  0  0  0  0  0  0  0  0
    9.0540   -2.4730   22.7420 N   0  0  0  0  0  0  0  0  0  0  0  0
    8.2670   -1.6720   22.0200 N   0  0  0  0  0  0  0  0  0  0  0  0
    8.9570   -0.5010   21.9420 C   0  0  0  0  0  0  0  0  0  0  0  0
    8.4520    0.6250   21.2550 C   0  0  0  0  0  0  0  0  0  0  0  0
    9.1480    1.6370   21.1530 O   0  0  0  0  0  0  0  0  0  0  0  0
    7.1880    0.6740   20.7440 N   0  0  0  0  0  0  0  0  0  0  0  0
    6.8380   -0.1350   19.5550 C   0  0  0  0  0  0  0  0  0  0  0  0
    6.0200    0.5530   18.6600 C   0  0  0  0  0  0  0  0  0  0  0  0
    5.1160    1.4660   19.2400 C   0  0  1  0  0  0  0  0  0  0  0  0
    3.7470    1.1100   18.8980 N   0  0  0  0  0  0  0  0  0  0  0  0
    5.0990    1.7100   20.6190 C   0  0  0  0  0  0  0  0  0  0  0  0
    6.0500    1.1720   21.4870 C   0  0  1  0  0  0  0  0  0  0  0  0
    5.6620    0.4120   22.5850 C   0  0  0  0  0  0  0  0  0  0  0  0
   10.2330   -0.5840   22.6490 C   0  0  0  0  0  0  0  0  0  0  0  0
   11.3040    0.4670   22.8180 C   0  0  0  0  0  0  0  0  0  0  0  0
  1  2  1  0
  2  3  1  0
  3  4  1  0
  4  5  2  0
  5  6  1  0
  6  7  2  0
  6  8  1  0
  8  9  1  0
  9 10  1  0
 10 11  1  0
 11 12  1  1
 11 13  1  0
  8 14  1  0
 13 14  1  0
 14 15  1  6
  2 16  2  0
  5 16  1  0
 16 17  1  0
M  END
