RAF-POL-b61b4b25-7
     RDKit          3D

 18 21  0  0  0  0  0  0  0  0999 V2000
    8.1080   -1.5910   23.5180 O   0  0  0  0  0  0  0  0  0  0  0  0
    8.3210   -0.4090   23.2730 C   0  0  0  0  0  0  0  0  0  0  0  0
    7.3440    0.5610   23.0440 N   0  0  0  0  0  0  0  0  0  0  0  0
    6.2610    0.4990   22.1370 C   0  0  0  0  0  0  0  0  0  0  0  0
    6.2140    1.2890   20.9730 C   0  0  2  0  0  0  0  0  0  0  0  0
    5.0660    1.6340   20.4610 C   0  0  0  0  0  0  0  0  0  0  0  0
    5.5570    0.5020   19.7540 C   0  0  0  0  0  0  0  0  0  0  0  0
    6.1210    0.8430   18.6280 C   0  0  0  0  0  0  0  0  0  0  0  0
    5.8050   -0.3470   18.3530 C   0  0  0  0  0  0  0  0  0  0  0  0
    9.7400    0.0610   23.2230 C   0  0  0  0  0  0  0  0  0  0  0  0
   10.0690    1.4220   23.4610 C   0  0  0  0  0  0  0  0  0  0  0  0
   11.3930    1.9070   23.4200 C   0  0  0  0  0  0  0  0  0  0  0  0
   12.5340    1.2390   23.1690 N   0  0  0  0  0  0  0  0  0  0  0  0
   12.1060   -0.0550   22.9530 C   0  0  0  0  0  0  0  0  0  0  0  0
   12.8490   -1.1990   22.6440 N   0  0  0  0  0  0  0  0  0  0  0  0
   12.1950   -2.3540   22.4760 N   0  0  0  0  0  0  0  0  0  0  0  0
   10.9120   -2.1300   22.6580 N   0  0  0  0  0  0  0  0  0  0  0  0
   10.8020   -0.8100   22.9370 C   0  0  0  0  0  0  0  0  0  0  0  0
  1  2  2  0
  2  3  1  0
  3  4  1  0
  5  4  1  1
  5  6  1  0
  5  7  1  0
  7  6  1  0
  7  8  1  0
  7  9  1  0
  8  9  1  0
  2 10  1  0
 10 11  2  0
 11 12  1  0
 12 13  2  0
 13 14  1  0
 14 15  1  0
 15 16  1  0
 16 17  2  0
 10 18  1  0
 14 18  2  0
 17 18  1  0
M  END
