RAF-POL-950dada1-6
     RDKit          3D

 17 18  0  0  0  0  0  0  0  0999 V2000
   -0.6340    1.7290   20.9380 C   0  0  0  0  0  0  0  0  0  0  0  0
    0.6230    2.2980   21.0730 C   0  0  0  0  0  0  0  0  0  0  0  0
    1.0140    3.1220   19.9130 N   0  0  0  0  0  0  0  0  0  0  0  0
    0.2500    4.2270   19.5210 N   0  0  0  0  0  0  0  0  0  0  0  0
    0.9070    4.7010   18.4480 C   0  0  0  0  0  0  0  0  0  0  0  0
    2.0840    3.9150   18.1430 C   0  0  0  0  0  0  0  0  0  0  0  0
    2.2150    2.8260   19.1110 C   0  0  0  0  0  0  0  0  0  0  0  0
    3.2470    1.8440   19.1260 N   0  0  0  0  0  0  0  0  0  0  0  0
    4.5140    1.8940   18.3520 C   0  0  0  0  0  0  0  0  0  0  0  0
    4.7550    2.3840   17.1180 O   0  0  0  0  0  0  0  0  0  0  0  0
    5.5320    1.3600   19.0530 N   0  0  0  0  0  0  0  0  0  0  0  0
    6.0640    1.8650   20.2750 C   0  0  0  0  0  0  0  0  0  0  0  0
    5.4630    1.1930   21.3050 C   0  0  0  0  0  0  0  0  0  0  0  0
    6.0860   -0.0280   21.4950 C   0  0  0  0  0  0  0  0  0  0  0  0
    7.1670   -0.4530   20.4720 C   0  0  0  0  0  0  0  0  0  0  0  0
    6.8620   -0.3300   19.1290 C   0  0  0  0  0  0  0  0  0  0  0  0
    5.6960   -0.0410   18.9530 O   0  0  0  0  0  0  0  0  0  0  0  0
  1  2  1  0
  2  3  1  0
  3  4  1  0
  4  5  2  0
  5  6  1  0
  3  7  1  0
  6  7  2  0
  7  8  1  0
  8  9  1  0
  9 10  2  0
  9 11  1  0
 11 12  1  0
 12 13  1  0
 13 14  1  0
 14 15  1  0
 15 16  1  0
 11 17  1  0
 16 17  1  0
M  END
