RAF-POL-950dada1-13
     RDKit          3D

 18 20  0  0  0  0  0  0  0  0999 V2000
    6.1030    1.7160   16.5520 O   0  0  0  0  0  0  0  0  0  0  0  0
    6.2240    1.1220   17.5030 C   0  0  0  0  0  0  0  0  0  0  0  0
    7.4550    0.6690   17.9940 N   0  0  0  0  0  0  0  0  0  0  0  0
    7.0110    0.0170   19.0930 N   0  0  0  0  0  0  0  0  0  0  0  0
    5.7160    0.2060   19.0240 C   0  0  0  0  0  0  0  0  0  0  0  0
    4.7320   -0.2360   19.8560 C   0  0  2  0  0  0  0  0  0  0  0  0
    4.2090    0.9950   20.4990 C   0  0  0  0  0  0  0  0  0  0  0  0
    5.0750    1.4610   21.4830 C   0  0  0  0  0  0  0  0  0  0  0  0
    6.4690    0.8050   21.5090 C   0  0  0  0  0  0  0  0  0  0  0  0
    6.6090   -0.5850   21.1980 N   0  0  0  0  0  0  0  0  0  0  0  0
    7.5210   -1.3890   21.9480 C   0  0  0  0  0  0  0  0  0  0  0  0
    9.0170   -1.1410   21.9440 C   0  0  0  0  0  0  0  0  0  0  0  0
    9.8610   -1.9520   22.6990 C   0  0  0  0  0  0  0  0  0  0  0  0
    9.2460   -2.9580   23.4160 C   0  0  0  0  0  0  0  0  0  0  0  0
    7.8980   -3.2990   23.5080 N   0  0  0  0  0  0  0  0  0  0  0  0
    7.0400   -2.5330   22.7900 N   0  0  0  0  0  0  0  0  0  0  0  0
    5.4640   -1.1830   20.7930 C   0  0  0  0  0  0  0  0  0  0  0  0
    5.1890    0.8250   18.1550 O   0  0  0  0  0  0  0  0  0  0  0  0
  1  2  1  0
  2  3  2  0
  3  4  1  0
  4  5  2  0
  6  5  1  6
  6  7  1  0
  7  8  1  0
  8  9  1  0
  9 10  1  0
 10 11  1  0
 11 12  2  0
 12 13  1  0
 13 14  2  0
 14 15  1  0
 11 16  1  0
 15 16  2  0
  6 17  1  0
 10 17  1  0
  2 18  1  0
  5 18  1  0
M  END
