RAF-POL-950dada1-4
     RDKit          3D

 17 18  0  0  0  0  0  0  0  0999 V2000
    1.5310   -2.0520   12.2010 C   0  0  0  0  0  0  0  0  0  0  0  0
    2.3790   -2.8370   12.8000 C   0  0  0  0  0  0  0  0  0  0  0  0
    3.8330   -2.8710   12.4330 N   0  0  0  0  0  0  0  0  0  0  0  0
    3.8590   -3.0060   11.0990 N   0  0  0  0  0  0  0  0  0  0  0  0
    5.0320   -3.0370   10.8680 C   0  0  0  0  0  0  0  0  0  0  0  0
    5.7260   -2.8940   12.0820 C   0  0  0  0  0  0  0  0  0  0  0  0
    5.2370   -2.7700   13.1420 C   0  0  0  0  0  0  0  0  0  0  0  0
    6.1570   -2.6190   14.4150 N   0  0  0  0  0  0  0  0  0  0  0  0
    6.7160   -1.5480   15.3960 C   0  0  0  0  0  0  0  0  0  0  0  0
    7.5730   -0.7720   14.9860 O   0  0  0  0  0  0  0  0  0  0  0  0
    6.2730   -1.1900   16.7590 N   0  0  0  0  0  0  0  0  0  0  0  0
    6.3670    0.1690   17.3310 C   0  0  0  0  0  0  0  0  0  0  0  0
    5.3240    0.7240   18.3630 C   0  0  0  0  0  0  0  0  0  0  0  0
    5.8560    0.5650   19.7900 C   0  0  0  0  0  0  0  0  0  0  0  0
    6.4790   -0.8000   19.8470 C   0  0  0  0  0  0  0  0  0  0  0  0
    7.1480   -1.2330   18.7020 C   0  0  0  0  0  0  0  0  0  0  0  0
    6.6410   -1.9920   17.8350 O   0  0  0  0  0  0  0  0  0  0  0  0
  1  2  1  0
  2  3  1  0
  3  4  1  0
  4  5  2  0
  5  6  1  0
  3  7  1  0
  6  7  2  0
  7  8  1  0
  8  9  1  0
  9 10  2  0
  9 11  1  0
 11 12  1  0
 12 13  1  0
 13 14  1  0
 14 15  1  0
 15 16  1  0
 11 17  1  0
 16 17  1  0
M  END
