RAF-POL-950dada1-3
     RDKit          3D

 18 20  0  0  0  0  0  0  0  0999 V2000
    8.0140    1.1060   23.0270 C   0  0  0  0  0  0  0  0  0  0  0  0
    6.6110    0.5870   22.8600 C   0  0  0  0  0  0  0  0  0  0  0  0
    5.9030    1.0490   21.7490 C   0  0  0  0  0  0  0  0  0  0  0  0
    4.9020    1.5970   21.4560 C   0  0  0  0  0  0  0  0  0  0  0  0
    4.2720    2.0180   20.3800 C   0  0  0  0  0  0  0  0  0  0  0  0
    4.2920    2.1230   19.0240 C   0  0  0  0  0  0  0  0  0  0  0  0
    3.3590    2.9980   18.4050 O   0  0  0  0  0  0  0  0  0  0  0  0
    5.3500    1.2530   18.5140 N   0  0  0  0  0  0  0  0  0  0  0  0
    6.5990    1.3330   19.3140 C   0  0  0  0  0  0  0  0  0  0  0  0
    6.9640    0.0460   20.0340 C   0  0  0  0  0  0  0  0  0  0  0  0
    7.0290   -0.8520   18.9450 N   0  0  0  0  0  0  0  0  0  0  0  0
    7.9940   -1.7130   18.6400 N   0  0  0  0  0  0  0  0  0  0  0  0
    7.6290   -2.3380   17.4980 N   0  0  0  0  0  0  0  0  0  0  0  0
    6.4230   -1.8280   17.1460 C   0  0  0  0  0  0  0  0  0  0  0  0
    6.0110   -0.8830   18.0380 C   0  0  0  0  0  0  0  0  0  0  0  0
    4.9040   -0.0890   18.1210 C   0  0  0  0  0  0  0  0  0  0  0  0
    3.6220    2.2640   21.5020 N   0  0  0  0  0  0  0  0  0  0  0  0
    4.6920    1.6280   22.4100 N   0  0  0  0  0  0  0  0  0  0  0  0
  1  2  1  0
  2  3  1  0
  3  4  2  0
  4  5  1  0
  5  6  1  0
  6  7  2  0
  6  8  1  0
  8  9  1  0
  9 10  1  0
 10 11  1  0
 11 12  1  0
 12 13  2  0
 13 14  1  0
 11 15  1  0
 14 15  2  0
  8 16  1  0
 15 16  1  0
  5 17  2  0
  3 18  1  0
 17 18  1  0
M  END
