RAF-POL-950dada1-5
     RDKit          3D

 17 18  0  0  0  0  0  0  0  0999 V2000
    5.7280   -2.0430   22.2750 C   0  0  0  0  0  0  0  0  0  0  0  0
    7.1220   -2.2010   22.6790 N   0  0  0  0  0  0  0  0  0  0  0  0
    7.5050   -3.4430   23.3020 C   0  0  0  0  0  0  0  0  0  0  0  0
    8.9130   -3.5080   23.6650 N   0  0  0  0  0  0  0  0  0  0  0  0
    9.2930   -2.2540   23.2180 C   0  0  0  0  0  0  0  0  0  0  0  0
    8.2780   -1.4290   22.6250 C   0  0  0  0  0  0  0  0  0  0  0  0
    8.5500   -0.1850   22.1550 C   0  0  0  0  0  0  0  0  0  0  0  0
    7.6830    0.7130   22.7620 N   0  0  0  0  0  0  0  0  0  0  0  0
    6.3690    0.7740   22.3530 C   0  0  0  0  0  0  0  0  0  0  0  0
    5.4540    0.8570   23.1670 O   0  0  0  0  0  0  0  0  0  0  0  0
    6.1530    0.7480   20.9730 N   0  0  0  0  0  0  0  0  0  0  0  0
    5.1150    1.6660   20.4600 C   0  0  0  0  0  0  0  0  0  0  0  0
    4.7280    1.5120   19.1100 C   0  0  0  0  0  0  0  0  0  0  0  0
    5.2890    0.5290   18.2800 C   0  0  0  0  0  0  0  0  0  0  0  0
    6.4360   -0.0550   18.7900 C   0  0  1  0  0  0  0  0  0  0  0  0
    7.3800    0.8750   18.6030 F   0  0  0  0  0  0  0  0  0  0  0  0
    6.4610   -0.4070   20.1210 C   0  0  0  0  0  0  0  0  0  0  0  0
  1  2  1  0
  2  3  1  0
  3  4  2  0
  4  5  1  0
  2  6  1  0
  5  6  2  0
  6  7  1  0
  7  8  1  0
  8  9  1  0
  9 10  2  0
  9 11  1  0
 11 12  1  0
 12 13  1  0
 13 14  1  0
 14 15  1  0
 15 16  1  1
 11 17  1  0
 15 17  1  0
M  END
