RAF-POL-b61b4b25-6
     RDKit          3D

 18 19  0  0  0  0  0  0  0  0999 V2000
    7.5740   10.3090   23.7310 C   0  0  0  0  0  0  0  0  0  0  0  0
    8.1790    8.9290   24.0200 C   0  0  0  0  0  0  0  0  0  0  0  0
    9.3310    8.6910   24.7630 C   0  0  0  0  0  0  0  0  0  0  0  0
    9.5750    7.3420   24.8290 N   0  0  0  0  0  0  0  0  0  0  0  0
    8.4840    6.7280   24.0670 C   0  0  0  0  0  0  0  0  0  0  0  0
    8.2380    5.3810   23.8400 C   0  0  0  0  0  0  0  0  0  0  0  0
    7.1600    4.8750   23.1170 C   0  0  0  0  0  0  0  0  0  0  0  0
    6.9400    3.4890   22.9940 C   0  0  0  0  0  0  0  0  0  0  0  0
    5.7480    3.2260   22.9710 O   0  0  0  0  0  0  0  0  0  0  0  0
    7.9550    2.4920   22.9500 N   0  0  0  0  0  0  0  0  0  0  0  0
    7.6120    1.0410   22.8950 C   0  0  1  0  0  0  0  0  0  0  0  0
    6.4630    0.9570   22.1120 C   0  0  0  0  0  0  0  0  0  0  0  0
    8.7480    0.3560   22.1350 C   0  0  0  0  0  0  0  0  0  0  0  0
    8.6530   -0.9220   21.8220 N   0  0  0  0  0  0  0  0  0  0  0  0
    9.9000    1.0800   21.7810 O   0  0  0  0  0  0  0  0  0  0  0  0
    6.2530    5.7740   22.5290 C   0  0  0  0  0  0  0  0  0  0  0  0
    6.4480    7.2590   22.7310 C   0  0  0  0  0  0  0  0  0  0  0  0
    7.6010    7.6480   23.5330 N   0  0  0  0  0  0  0  0  0  0  0  0
  1  2  1  0
  2  3  2  0
  3  4  1  0
  4  5  2  0
  5  6  1  0
  6  7  2  0
  7  8  1  0
  8  9  2  0
  8 10  1  0
 10 11  1  0
 11 12  1  6
 11 13  1  0
 13 14  1  0
 13 15  2  0
  7 16  1  0
 16 17  2  0
  2 18  1  0
  5 18  1  0
 17 18  1  0
M  END
