RAF-POL-950dada1-19
     RDKit          3D

 17 18  0  0  0  0  0  0  0  0999 V2000
   11.6210   -1.2380   23.7640 C   0  0  0  0  0  0  0  0  0  0  0  0
   10.3690   -1.6560   23.4490 N   0  0  0  0  0  0  0  0  0  0  0  0
   10.0930   -2.9500   23.7730 C   0  0  0  0  0  0  0  0  0  0  0  0
    8.7420   -3.2700   23.3860 N   0  0  0  0  0  0  0  0  0  0  0  0
    8.2340   -2.1800   22.8420 C   0  0  0  0  0  0  0  0  0  0  0  0
    9.1930   -1.0290   22.8160 C   0  0  0  0  0  0  0  0  0  0  0  0
    8.9330    0.3620   22.2630 C   0  0  0  0  0  0  0  0  0  0  0  0
    7.7640    0.9940   22.7480 N   0  0  0  0  0  0  0  0  0  0  0  0
    6.4460    0.4910   22.3180 C   0  0  0  0  0  0  0  0  0  0  0  0
    5.5400   -0.0310   23.1780 O   0  0  0  0  0  0  0  0  0  0  0  0
    6.1810    0.5930   20.9550 N   0  0  0  0  0  0  0  0  0  0  0  0
    5.5480    1.7420   20.2900 C   0  0  0  0  0  0  0  0  0  0  0  0
    4.5940    1.3800   19.3330 C   0  0  0  0  0  0  0  0  0  0  0  0
    5.1270    0.5360   18.3830 C   0  0  0  0  0  0  0  0  0  0  0  0
    6.4390   -0.1120   18.8020 C   0  0  1  0  0  0  0  0  0  0  0  0
    7.4560    0.6090   18.3880 F   0  0  0  0  0  0  0  0  0  0  0  0
    6.4960   -0.4820   20.1310 C   0  0  0  0  0  0  0  0  0  0  0  0
  1  2  1  0
  2  3  1  0
  3  4  2  0
  4  5  1  0
  2  6  1  0
  5  6  2  0
  6  7  1  0
  7  8  1  0
  8  9  1  0
  9 10  2  0
  9 11  1  0
 11 12  1  0
 12 13  1  0
 13 14  1  0
 14 15  1  0
 15 16  1  1
 11 17  1  0
 15 17  1  0
M  END
