RAF-POL-b61b4b25-3
     RDKit          3D

 17 19  0  0  0  0  0  0  0  0999 V2000
    8.7010   -4.3960   23.9540 O   0  0  0  0  0  0  0  0  0  0  0  0
    7.5500   -4.5660   23.6210 C   0  0  0  0  0  0  0  0  0  0  0  0
    6.7900   -5.5560   24.1160 O   0  0  0  0  0  0  0  0  0  0  0  0
    6.8670   -3.6730   22.6170 C   0  0  0  0  0  0  0  0  0  0  0  0
    7.5140   -2.4620   22.3690 C   0  0  0  0  0  0  0  0  0  0  0  0
    6.9380   -1.5940   21.4570 C   0  0  0  0  0  0  0  0  0  0  0  0
    5.7600   -2.0250   20.8770 C   0  0  0  0  0  0  0  0  0  0  0  0
    5.1640   -1.0980   19.9280 N   0  0  0  0  0  0  0  0  0  0  0  0
    5.9540   -0.8590   18.7100 C   0  0  0  0  0  0  0  0  0  0  0  0
    5.5010    0.4100   18.3760 C   0  0  2  0  0  0  0  0  0  0  0  0
    6.2370    1.1100   17.7300 O   0  0  0  0  0  0  0  0  0  0  0  0
    5.2760    1.0100   19.6320 C   0  0  0  0  0  0  0  0  0  0  0  0
    5.2070    2.2350   19.9050 C   0  0  0  0  0  0  0  0  0  0  0  0
    6.4360    1.7020   20.4520 C   0  0  0  0  0  0  0  0  0  0  0  0
    4.5250   -0.0210   20.3950 C   0  0  0  0  0  0  0  0  0  0  0  0
    5.1800   -3.2090   21.1540 N   0  0  0  0  0  0  0  0  0  0  0  0
    5.7200   -4.0450   22.0230 N   0  0  0  0  0  0  0  0  0  0  0  0
  1  2  2  0
  2  3  1  0
  2  4  1  0
  4  5  2  0
  5  6  1  0
  6  7  2  0
  7  8  1  0
  8  9  1  0
  9 10  1  0
 10 11  1  1
 10 12  1  0
 12 13  1  0
 12 14  1  0
 13 14  1  0
  8 15  1  0
 12 15  1  0
  7 16  1  0
  4 17  1  0
 16 17  2  0
M  END
