RAF-POL-950dada1-18
     RDKit          3D

 18 20  0  0  0  0  0  0  0  0999 V2000
    5.6360    0.1060   17.3260 O   0  0  0  0  0  0  0  0  0  0  0  0
    5.5920    0.5930   18.4360 C   0  0  0  0  0  0  0  0  0  0  0  0
    4.7630    1.7970   18.7340 C   0  0  0  0  0  0  0  0  0  0  0  0
    4.7330    2.3540   20.1430 C   0  0  0  0  0  0  0  0  0  0  0  0
    5.3990    1.9040   21.3110 C   0  0  0  0  0  0  0  0  0  0  0  0
    6.0790    0.8280   20.7960 N   0  0  0  0  0  0  0  0  0  0  0  0
    6.2240    0.1970   19.5890 C   0  0  0  0  0  0  0  0  0  0  0  0
    7.0790   -0.8590   19.7560 C   0  0  0  0  0  0  0  0  0  0  0  0
    7.6490   -0.7530   21.1250 N   0  0  0  0  0  0  0  0  0  0  0  0
    8.2180    0.5320   21.5720 C   0  0  0  0  0  0  0  0  0  0  0  0
    9.2410    0.1680   22.4440 C   0  0  0  0  0  0  0  0  0  0  0  0
    9.3260   -1.3010   22.7150 C   0  0  0  0  0  0  0  0  0  0  0  0
   10.6280   -1.7800   22.6730 C   0  0  0  0  0  0  0  0  0  0  0  0
   11.0070   -2.5890   23.7390 C   0  0  0  0  0  0  0  0  0  0  0  0
    9.9690   -3.5220   24.0620 O   0  0  0  0  0  0  0  0  0  0  0  0
    8.6410   -3.0300   23.8680 C   0  0  0  0  0  0  0  0  0  0  0  0
    8.6500   -1.6430   23.8610 C   0  0  0  0  0  0  0  0  0  0  0  0
    8.5140   -1.8590   21.5500 C   0  0  0  0  0  0  0  0  0  0  0  0
  1  2  1  0
  2  3  2  0
  3  4  1  0
  4  5  2  0
  5  6  1  0
  2  7  1  0
  6  7  2  0
  7  8  1  0
  8  9  1  0
  9 10  1  0
 10 11  1  0
 12 11  1  0
 12 13  1  0
 13 14  1  0
 14 15  1  0
 15 16  1  0
 12 17  1  0
 16 17  1  0
  9 18  1  0
 12 18  1  0
M  END
