RAF-POL-950dada1-22
     RDKit          3D

 18 20  0  0  0  0  0  0  0  0999 V2000
    6.7550   -0.4310   18.1210 O   0  0  0  0  0  0  0  0  0  0  0  0
    6.3000    0.2960   18.9870 C   0  0  0  0  0  0  0  0  0  0  0  0
    5.2310    1.2820   18.7440 C   0  0  0  0  0  0  0  0  0  0  0  0
    4.7690    2.0600   19.7910 C   0  0  0  0  0  0  0  0  0  0  0  0
    5.1730    2.0830   21.1660 C   0  0  0  0  0  0  0  0  0  0  0  0
    6.1550    1.1280   21.2030 N   0  0  0  0  0  0  0  0  0  0  0  0
    6.7220    0.2860   20.3020 C   0  0  0  0  0  0  0  0  0  0  0  0
    7.8220   -0.6470   20.8170 C   0  0  0  0  0  0  0  0  0  0  0  0
    7.7800   -1.1420   22.1000 N   0  0  0  0  0  0  0  0  0  0  0  0
    6.8940   -0.6370   23.0110 C   0  0  0  0  0  0  0  0  0  0  0  0
    5.6850   -1.5510   22.8180 C   0  0  0  0  0  0  0  0  0  0  0  0
    6.1490   -2.6210   21.8650 C   0  0  0  0  0  0  0  0  0  0  0  0
    5.5170   -3.9380   22.2970 C   0  0  0  0  0  0  0  0  0  0  0  0
    5.8470   -4.8520   21.3080 C   0  0  0  0  0  0  0  0  0  0  0  0
    5.1110   -4.5180   20.1280 O   0  0  0  0  0  0  0  0  0  0  0  0
    5.2750   -3.1860   19.6000 C   0  0  0  0  0  0  0  0  0  0  0  0
    5.8430   -2.2180   20.4030 C   0  0  0  0  0  0  0  0  0  0  0  0
    7.6390   -2.4990   22.1720 C   0  0  0  0  0  0  0  0  0  0  0  0
  1  2  1  0
  2  3  2  0
  3  4  1  0
  4  5  2  0
  5  6  1  0
  2  7  1  0
  6  7  2  0
  7  8  1  0
  8  9  1  0
  9 10  1  0
 10 11  1  0
 12 11  1  0
 12 13  1  0
 13 14  1  0
 14 15  1  0
 15 16  1  0
 12 17  1  0
 16 17  1  0
  9 18  1  0
 12 18  1  0
M  END
