RAF-POL-950dada1-10
     RDKit          3D

 17 18  0  0  0  0  0  0  0  0999 V2000
    9.0190    0.8250   22.5570 C   0  0  0  0  0  0  0  0  0  0  0  0
    7.9240    1.6970   21.9390 C   0  0  2  0  0  0  0  0  0  0  0  0
    8.1290    3.1120   22.3290 N   0  0  0  0  0  0  0  0  0  0  0  0
    7.3500    3.7480   23.2990 C   0  0  0  0  0  0  0  0  0  0  0  0
    6.3710    3.1980   23.7900 O   0  0  0  0  0  0  0  0  0  0  0  0
    7.7650    5.0430   23.6760 N   0  0  0  0  0  0  0  0  0  0  0  0
    8.6360    5.8730   22.8660 C   0  0  0  0  0  0  0  0  0  0  0  0
    7.9690    6.6900   21.9420 C   0  0  0  0  0  0  0  0  0  0  0  0
    6.9140    7.6450   22.4420 C   0  0  0  0  0  0  0  0  0  0  0  0
    7.1890    8.2040   23.8330 C   0  0  0  0  0  0  0  0  0  0  0  0
    7.1600    6.9950   24.7850 C   0  0  0  0  0  0  0  0  0  0  0  0
    6.6550    5.8310   24.1260 O   0  0  0  0  0  0  0  0  0  0  0  0
    6.4580    1.1960   22.1190 C   0  0  2  0  0  0  0  0  0  0  0  0
    6.0190    0.2390   20.9990 C   0  0  0  0  0  0  0  0  0  0  0  0
    5.1500    0.9490   20.1740 C   0  0  0  0  0  0  0  0  0  0  0  0
    4.4730    1.8880   21.0040 O   0  0  0  0  0  0  0  0  0  0  0  0
    5.3840    2.2740   22.0280 C   0  0  0  0  0  0  0  0  0  0  0  0
  2  1  1  1
  2  3  1  0
  3  4  1  0
  4  5  2  0
  4  6  1  0
  6  7  1  0
  7  8  1  0
  8  9  1  0
  9 10  1  0
 10 11  1  0
  6 12  1  0
 11 12  1  0
  2 13  1  0
 13 14  1  6
 14 15  1  0
 15 16  1  0
 13 17  1  0
 16 17  1  0
M  END
