RAF-POL-9fce0577-5
     RDKit          3D

 17 19  0  0  0  0  0  0  0  0999 V2000
    5.4710   -2.5540   19.2100 C   0  0  0  0  0  0  0  0  0  0  0  0
    6.2680   -1.3890   18.7130 C   0  0  1  0  0  0  0  0  0  0  0  0
    5.7670   -0.8070   17.5970 N   0  0  0  0  0  0  0  0  0  0  0  0
    4.7700    0.1630   17.9130 C   0  0  0  0  0  0  0  0  0  0  0  0
    4.6230    0.0400   19.2450 C   0  0  0  0  0  0  0  0  0  0  0  0
    6.0090   -0.2190   19.6050 C   0  0  2  0  0  0  0  0  0  0  0  0
    6.8380    0.7880   19.3090 C   0  0  0  0  0  0  0  0  0  0  0  0
    7.5800    0.6170   18.1440 O   0  0  0  0  0  0  0  0  0  0  0  0
    6.8030    1.8350   20.1300 N   0  0  0  0  0  0  0  0  0  0  0  0
    7.5880    1.6770   21.1900 C   0  0  0  0  0  0  0  0  0  0  0  0
    7.1980    0.3540   21.7830 C   0  0  0  0  0  0  0  0  0  0  0  0
    5.7240    0.4370   22.1210 C   0  0  0  0  0  0  0  0  0  0  0  0
    4.8690    1.2640   21.3390 C   0  0  1  0  0  0  0  0  0  0  0  0
    4.0080    2.1300   22.0190 C   0  0  0  0  0  0  0  0  0  0  0  0
    4.3690    3.4910   21.7380 N   0  0  0  0  0  0  0  0  0  0  0  0
    5.3740    3.4010   20.7060 C   0  0  0  0  0  0  0  0  0  0  0  0
    5.4620    2.0800   20.3430 C   0  0  1  0  0  0  0  0  0  0  0  0
  2  1  1  1
  2  3  1  0
  3  4  1  0
  4  5  1  0
  2  6  1  0
  5  6  1  0
  6  7  1  6
  7  8  2  0
  7  9  1  0
  9 10  1  0
 10 11  1  0
 11 12  1  0
 13 12  1  1
 13 14  1  0
 14 15  1  0
 15 16  1  0
  9 17  1  0
 13 17  1  0
 17 16  1  1
M  END
