RAF-POL-b61b4b25-8
     RDKit          3D

 18 20  0  0  0  0  0  0  0  0999 V2000
   11.1450   -1.0860   22.7030 C   0  0  0  0  0  0  0  0  0  0  0  0
   10.9910    0.2530   22.6830 C   0  0  0  0  0  0  0  0  0  0  0  0
   12.2360    0.9710   22.9010 N   0  0  0  0  0  0  0  0  0  0  0  0
   12.3600    2.3290   22.9230 N   0  0  0  0  0  0  0  0  0  0  0  0
   11.1900    2.9730   22.7230 C   0  0  0  0  0  0  0  0  0  0  0  0
    9.8270    2.2740   22.4860 C   0  0  0  0  0  0  0  0  0  0  0  0
    9.7980    0.9140   22.4770 C   0  0  0  0  0  0  0  0  0  0  0  0
    8.5910    0.2460   22.2580 C   0  0  0  0  0  0  0  0  0  0  0  0
    8.1540   -0.5220   23.1240 O   0  0  0  0  0  0  0  0  0  0  0  0
    7.9660    0.4890   21.0860 N   0  0  0  0  0  0  0  0  0  0  0  0
    7.6180   -0.5980   20.3410 C   0  0  0  0  0  0  0  0  0  0  0  0
    6.2040   -1.0330   20.6460 C   0  0  0  0  0  0  0  0  0  0  0  0
    5.3820    0.1600   20.2890 C   0  0  2  0  0  0  0  0  0  0  0  0
    4.4980    0.0520   19.2550 O   0  0  0  0  0  0  0  0  0  0  0  0
    4.3450    1.3480   18.6860 C   0  0  0  0  0  0  0  0  0  0  0  0
    5.0270    2.0910   19.6310 C   0  0  0  0  0  0  0  0  0  0  0  0
    6.0960    1.2910   19.9730 C   0  0  1  0  0  0  0  0  0  0  0  0
    6.9470    1.5350   21.0410 C   0  0  0  0  0  0  0  0  0  0  0  0
  1  2  1  0
  2  3  2  0
  3  4  1  0
  4  5  2  0
  5  6  1  0
  2  7  1  0
  6  7  2  0
  7  8  1  0
  8  9  2  0
  8 10  1  0
 10 11  1  0
 11 12  1  0
 13 12  1  6
 13 14  1  0
 14 15  1  0
 15 16  1  0
 13 17  1  0
 17 16  1  1
 10 18  1  0
 17 18  1  0
M  END
