RAF-POL-b61b4b25-4
     RDKit          3D

 18 19  0  0  0  0  0  0  0  0999 V2000
    4.0010    1.8740   21.5170 C   0  0  0  0  0  0  0  0  0  0  0  0
    4.9620    1.0930   20.6590 C   0  0  0  0  0  0  0  0  0  0  0  0
    5.1100    1.5400   19.2310 C   0  0  0  0  0  0  0  0  0  0  0  0
    6.0310    0.8390   18.2860 C   0  0  0  0  0  0  0  0  0  0  0  0
    6.1270    1.2100   17.1230 O   0  0  0  0  0  0  0  0  0  0  0  0
    6.7830   -0.2440   18.7350 C   0  0  0  0  0  0  0  0  0  0  0  0
    6.6840   -0.7470   20.1520 C   0  0  0  0  0  0  0  0  0  0  0  0
    5.7330   -0.0340   21.0880 C   0  0  0  0  0  0  0  0  0  0  0  0
    5.6640   -0.5860   22.4060 N   0  0  0  0  0  0  0  0  0  0  0  0
    5.6280   -1.9900   22.5850 C   0  0  0  0  0  0  0  0  0  0  0  0
    5.2530   -2.9090   21.5550 O   0  0  0  0  0  0  0  0  0  0  0  0
    6.0250   -2.4170   23.8670 C   0  0  2  0  0  0  0  0  0  0  0  0
    7.3670   -2.1020   24.0890 C   0  0  0  0  0  0  0  0  0  0  0  0
    5.8100   -3.7380   24.1600 N   0  0  0  0  0  0  0  0  0  0  0  0
    6.7040   -4.5830   23.5000 C   0  0  0  0  0  0  0  0  0  0  0  0
    5.7200   -5.5160   22.8930 C   0  0  0  0  0  0  0  0  0  0  0  0
    5.8000   -5.8140   21.5280 C   0  0  0  0  0  0  0  0  0  0  0  0
    4.7090   -4.4170   23.3730 C   0  0  0  0  0  0  0  0  0  0  0  0
  1  2  1  0
  2  3  2  0
  3  4  1  0
  4  5  1  0
  4  6  2  0
  6  7  1  0
  2  8  1  0
  7  8  2  0
  8  9  1  0
  9 10  1  0
 10 11  2  0
 10 12  1  0
 12 13  1  6
 12 14  1  0
 14 15  1  0
 15 16  1  0
 16 17  1  0
 14 18  1  0
 16 18  1  0
M  END
