RAF-POL-950dada1-15
     RDKit          3D

 18 20  0  0  0  0  0  0  0  0999 V2000
    9.3620   -1.0530   22.2320 C   0  0  0  0  0  0  0  0  0  0  0  0
    8.2860    0.0540   22.4960 C   0  0  0  0  0  0  0  0  0  0  0  0
    7.9100    1.5210   22.6650 N   0  0  0  0  0  0  0  0  0  0  0  0
    7.0990    2.7290   22.8870 C   0  0  0  0  0  0  0  0  0  0  0  0
    8.2620    3.3350   22.7510 C   0  0  0  0  0  0  0  0  0  0  0  0
    8.9550    4.5300   22.7450 C   0  0  0  0  0  0  0  0  0  0  0  0
    8.4820    1.8240   22.5900 C   0  0  0  0  0  0  0  0  0  0  0  0
    7.1690    1.2180   22.7200 N   0  0  0  0  0  0  0  0  0  0  0  0
    6.3030    0.8650   21.6610 C   0  0  1  0  0  0  0  0  0  0  0  0
    5.7340    1.9780   20.9170 C   0  0  0  0  0  0  0  0  0  0  0  0
    4.9770    1.7360   19.7160 C   0  0  0  0  0  0  0  0  0  0  0  0
    5.4430    0.7000   18.9370 C   0  0  0  0  0  0  0  0  0  0  0  0
    5.0130    0.4230   17.7060 N   0  0  0  0  0  0  0  0  0  0  0  0
    5.7460   -0.6780   17.3540 N   0  0  0  0  0  0  0  0  0  0  0  0
    6.6530   -1.0600   18.4040 C   0  0  0  0  0  0  0  0  0  0  0  0
    6.4010   -0.1140   19.4280 C   0  0  0  0  0  0  0  0  0  0  0  0
    6.9870    0.0240   20.7540 C   0  0  0  0  0  0  0  0  0  0  0  0
    9.3520    0.8770   22.3840 N   0  0  0  0  0  0  0  0  0  0  0  0
  1  2  1  0
  2  3  2  0
  3  4  1  0
  4  5  2  0
  5  6  1  0
  5  7  1  0
  7  8  1  0
  9  8  1  1
  9 10  1  0
 10 11  1  0
 11 12  1  0
 12 13  2  0
 13 14  1  0
 14 15  1  0
 12 16  1  0
 15 16  2  0
  9 17  1  0
 16 17  1  0
  2 18  1  0
  7 18  2  0
M  END
