RAF-POL-950dada1-1
     RDKit          3D

 16 17  0  0  0  0  0  0  0  0999 V2000
    3.7050    1.4570   19.3890 C   0  0  0  0  0  0  0  0  0  0  0  0
    4.8250    0.6150   19.5620 C   0  0  1  0  0  0  0  0  0  0  0  0
    4.6850   -0.5220   20.2950 C   0  0  0  0  0  0  0  0  0  0  0  0
    5.3420   -1.6150   19.6770 C   0  0  1  0  0  0  0  0  0  0  0  0
    4.5750   -2.4780   19.2530 O   0  0  0  0  0  0  0  0  0  0  0  0
    5.9730   -1.1340   18.6410 C   0  0  0  0  0  0  0  0  0  0  0  0
    5.3700    0.1980   18.3990 N   0  0  0  0  0  0  0  0  0  0  0  0
    6.2200    1.2040   17.9300 C   0  0  0  0  0  0  0  0  0  0  0  0
    5.5530    0.5930   16.9780 O   0  0  0  0  0  0  0  0  0  0  0  0
    6.4870    1.3900   19.2800 C   0  0  1  0  0  0  0  0  0  0  0  0
    5.4690    1.8300   20.1100 C   0  0  0  0  0  0  0  0  0  0  0  0
    5.5860    1.6710   21.4870 C   0  0  0  0  0  0  0  0  0  0  0  0
    6.0990    0.4850   22.0490 C   0  0  2  0  0  0  0  0  0  0  0  0
    6.9060    0.6230   23.1620 C   0  0  0  0  0  0  0  0  0  0  0  0
    6.8830   -0.3890   21.0530 C   0  0  0  0  0  0  0  0  0  0  0  0
    7.1580    0.3050   19.9040 C   0  0  0  0  0  0  0  0  0  0  0  0
  2  1  1  6
  2  3  1  0
  3  4  1  0
  4  5  1  6
  4  6  1  0
  2  7  1  0
  6  7  1  0
  7  8  1  0
  8  9  2  0
 10  8  1  6
 10 11  1  0
 11 12  1  0
 12 13  1  0
 13 14  1  1
 13 15  1  0
 10 16  1  0
 15 16  1  0
M  END
