RAI-NOV-2f6a9876-6
     RDKit          3D

 25 28  0  0  0  0  0  0  0  0999 V2000
    7.3020   -3.1690   24.1560 O   0  0  0  0  0  0  0  0  0  0  0  0
    7.1660   -1.9520   24.0560 C   0  0  0  0  0  0  0  0  0  0  0  0
    8.0580   -1.1620   23.2000 N   0  0  0  0  0  0  0  0  0  0  0  0
    8.2560    0.1960   23.7730 C   0  0  0  0  0  0  0  0  0  0  0  0
    9.6080    0.5830   23.6260 C   0  0  0  0  0  0  0  0  0  0  0  0
   10.0260    1.9100   23.7290 C   0  0  0  0  0  0  0  0  0  0  0  0
   11.3140    2.2360   23.5800 C   0  0  0  0  0  0  0  0  0  0  0  0
   12.2730    1.1960   23.3070 C   0  0  0  0  0  0  0  0  0  0  0  0
   11.9340   -0.1240   23.1960 C   0  0  0  0  0  0  0  0  0  0  0  0
   10.5460   -0.3870   23.3740 C   0  0  0  0  0  0  0  0  0  0  0  0
   10.1190   -1.6650   23.3050 C   0  0  2  0  0  0  0  0  0  0  0  0
   11.3290   -2.1420   23.2020 C   0  0  0  0  0  0  0  0  0  0  0  0
   11.9010   -2.3740   21.9810 C   0  0  0  0  0  0  0  0  0  0  0  0
   13.1690   -2.8200   21.9740 C   0  0  0  0  0  0  0  0  0  0  0  0
   13.8080   -3.0140   23.2000 C   0  0  0  0  0  0  0  0  0  0  0  0
   13.2490   -2.7880   24.4280 C   0  0  0  0  0  0  0  0  0  0  0  0
   11.9740   -2.3390   24.4210 C   0  0  0  0  0  0  0  0  0  0  0  0
    9.1230   -1.6630   22.4380 C   0  0  0  0  0  0  0  0  0  0  0  0
    6.0000   -1.3480   24.8810 C   0  0  2  0  0  0  0  0  0  0  0  0
    5.1570   -2.3610   25.1100 F   0  0  0  0  0  0  0  0  0  0  0  0
    5.4170   -0.2000   24.2030 C   0  0  0  0  0  0  0  0  0  0  0  0
    4.6280    0.5850   25.0530 C   0  0  0  0  0  0  0  0  0  0  0  0
    5.3200    0.8710   26.2380 C   0  0  0  0  0  0  0  0  0  0  0  0
    5.4840   -0.1840   26.8560 O   0  0  0  0  0  0  0  0  0  0  0  0
    6.4280   -1.0390   26.1880 C   0  0  0  0  0  0  0  0  0  0  0  0
  1  2  2  0
  2  3  1  0
  3  4  1  0
  4  5  1  0
  5  6  2  0
  6  7  1  0
  7  8  2  0
  8  9  1  0
  5 10  1  0
  9 10  2  0
 10 11  1  0
 11 12  1  6
 12 13  2  0
 13 14  1  0
 14 15  2  0
 15 16  1  0
 12 17  1  0
 16 17  2  0
  3 18  1  0
 11 18  1  0
  2 19  1  0
 19 20  1  1
 19 21  1  0
 21 22  1  0
 22 23  1  0
 23 24  1  0
 19 25  1  0
 24 25  1  0
M  END
