RAI-NOV-c18e0037-5
     RDKit          3D

 25 28  0  0  0  0  0  0  0  0999 V2000
    8.7700    0.6610   21.3990 O   0  0  0  0  0  0  0  0  0  0  0  0
    8.2700   -0.4410   21.6600 C   0  0  0  0  0  0  0  0  0  0  0  0
    7.0350   -0.6650   21.0900 C   0  0  0  0  0  0  0  0  0  0  0  0
    6.3920    0.1080   20.0340 C   0  0  0  0  0  0  0  0  0  0  0  0
    5.2590    1.0900   20.4160 C   0  0  0  0  0  0  0  0  0  0  0  0
    4.6580    1.8210   19.3930 C   0  0  0  0  0  0  0  0  0  0  0  0
    5.0300    1.7060   18.0370 C   0  0  0  0  0  0  0  0  0  0  0  0
    6.0960    0.7730   17.6760 N   0  0  0  0  0  0  0  0  0  0  0  0
    6.7370    0.0060   18.7110 C   0  0  0  0  0  0  0  0  0  0  0  0
    6.3410   -1.9000   21.7060 C   0  0  0  0  0  0  0  0  0  0  0  0
    7.0300   -2.6870   22.7660 C   0  0  0  0  0  0  0  0  0  0  0  0
    6.2680   -3.7930   23.4260 C   0  0  0  0  0  0  0  0  0  0  0  0
    6.9190   -4.5220   24.4050 C   0  0  0  0  0  0  0  0  0  0  0  0
    6.2160   -5.5420   25.0160 F   0  0  0  0  0  0  0  0  0  0  0  0
    8.2410   -4.2260   24.7520 C   0  0  0  0  0  0  0  0  0  0  0  0
    8.9880   -5.1780   25.9760 Cl  0  0  0  0  0  0  0  0  0  0  0  0
    8.9430   -3.1710   24.1150 C   0  0  0  0  0  0  0  0  0  0  0  0
    8.3150   -2.4080   23.1180 C   0  0  0  0  0  0  0  0  0  0  0  0
    8.9510   -1.3610   22.4640 N   0  0  0  0  0  0  0  0  0  0  0  0
   10.3390   -0.9540   22.6830 C   0  0  0  0  0  0  0  0  0  0  0  0
   10.4660    0.1410   23.5410 C   0  0  0  0  0  0  0  0  0  0  0  0
   11.7270    0.6510   23.8180 C   0  0  0  0  0  0  0  0  0  0  0  0
   12.9370   -0.0000   23.1790 C   0  0  0  0  0  0  0  0  0  0  0  0
   12.7470   -1.0870   22.3440 C   0  0  0  0  0  0  0  0  0  0  0  0
   11.4610   -1.5690   22.0900 C   0  0  0  0  0  0  0  0  0  0  0  0
  1  2  2  0
  2  3  1  0
  3  4  1  0
  4  5  2  0
  5  6  1  0
  6  7  2  0
  7  8  1  0
  4  9  1  0
  8  9  2  0
  3 10  2  0
 10 11  1  0
 11 12  1  0
 12 13  2  0
 13 14  1  0
 13 15  1  0
 15 16  1  0
 15 17  2  0
 11 18  2  0
 17 18  1  0
  2 19  1  0
 18 19  1  0
 19 20  1  0
 20 21  2  0
 21 22  1  0
 22 23  2  0
 23 24  1  0
 20 25  1  0
 24 25  2  0
M  END
