RAI-NOV-c18e0037-2
     RDKit          3D

 26 29  0  0  0  0  0  0  0  0999 V2000
    5.3340   -2.4100   21.0240 O   0  0  0  0  0  0  0  0  0  0  0  0
    6.3520   -1.9590   21.5160 C   0  0  0  0  0  0  0  0  0  0  0  0
    6.9860   -2.7070   22.5000 C   0  0  0  0  0  0  0  0  0  0  0  0
    6.2620   -3.7670   23.0560 C   0  0  0  0  0  0  0  0  0  0  0  0
    6.8790   -4.5940   24.1060 C   0  0  0  0  0  0  0  0  0  0  0  0
    6.1740   -5.6010   24.6320 F   0  0  0  0  0  0  0  0  0  0  0  0
    8.2760   -4.2870   24.5600 C   0  0  0  0  0  0  0  0  0  0  0  0
    9.0380   -5.2270   25.7850 Cl  0  0  0  0  0  0  0  0  0  0  0  0
    8.9100   -3.1920   23.9240 C   0  0  0  0  0  0  0  0  0  0  0  0
    8.2980   -2.4110   22.9210 C   0  0  0  0  0  0  0  0  0  0  0  0
    8.9470   -1.3010   22.2870 N   0  0  0  0  0  0  0  0  0  0  0  0
   10.2790   -0.8630   22.6070 C   0  0  0  0  0  0  0  0  0  0  0  0
   10.4270    0.2240   23.4440 C   0  0  0  0  0  0  0  0  0  0  0  0
   11.8440    0.7240   23.7730 C   0  0  0  0  0  0  0  0  0  0  0  0
   12.9060    0.0680   23.2220 C   0  0  0  0  0  0  0  0  0  0  0  0
   12.7170   -1.0320   22.3870 C   0  0  0  0  0  0  0  0  0  0  0  0
   11.4290   -1.4900   22.0850 C   0  0  0  0  0  0  0  0  0  0  0  0
    8.2220   -0.3710   21.5320 C   0  0  0  0  0  0  0  0  0  0  0  0
    8.7540    0.8430   21.1920 O   0  0  0  0  0  0  0  0  0  0  0  0
    6.9270   -0.7450   21.1560 N   0  0  0  0  0  0  0  0  0  0  0  0
    6.3090   -0.0020   20.0790 C   0  0  0  0  0  0  0  0  0  0  0  0
    5.1330    0.7400   20.2390 C   0  0  0  0  0  0  0  0  0  0  0  0
    4.5860    1.4400   19.1620 C   0  0  0  0  0  0  0  0  0  0  0  0
    5.2410    1.3830   17.9180 C   0  0  0  0  0  0  0  0  0  0  0  0
    6.3680    0.6760   17.7410 N   0  0  0  0  0  0  0  0  0  0  0  0
    6.8630    0.0110   18.8060 C   0  0  0  0  0  0  0  0  0  0  0  0
  1  2  2  0
  2  3  1  0
  3  4  2  0
  4  5  1  0
  5  6  1  0
  5  7  2  0
  7  8  1  0
  7  9  1  0
  3 10  1  0
  9 10  2  0
 10 11  1  0
 11 12  1  0
 12 13  2  0
 13 14  1  0
 14 15  2  0
 15 16  1  0
 12 17  1  0
 16 17  2  0
 11 18  1  0
 18 19  2  0
  2 20  1  0
 18 20  1  0
 20 21  1  0
 21 22  2  0
 22 23  1  0
 23 24  2  0
 24 25  1  0
 21 26  1  0
 25 26  2  0
M  END
