RAI-NOV-2f6a9876-7
     RDKit          3D

 26 30  0  0  0  0  0  0  0  0999 V2000
    3.8940   -0.7870   26.5050 O   0  0  0  0  0  0  0  0  0  0  0  0
    4.4100   -1.4360   25.5960 C   0  0  0  0  0  0  0  0  0  0  0  0
    5.6340   -2.2470   25.9340 C   0  0  1  0  0  0  0  0  0  0  0  0
    5.6130   -2.4450   27.2910 F   0  0  0  0  0  0  0  0  0  0  0  0
    5.7570   -3.5030   25.3350 C   0  0  0  0  0  0  0  0  0  0  0  0
    6.8070   -3.4650   24.4600 C   0  0  0  0  0  0  0  0  0  0  0  0
    7.7320   -2.5190   24.6960 N   0  0  0  0  0  0  0  0  0  0  0  0
    8.2140   -2.0280   23.5310 C   0  0  0  0  0  0  0  0  0  0  0  0
    7.1510   -1.4700   22.6060 N   0  0  0  0  0  0  0  0  0  0  0  0
    7.6730   -0.9630   21.3250 C   0  0  0  0  0  0  0  0  0  0  0  0
    6.7920   -0.3420   20.3630 C   0  0  0  0  0  0  0  0  0  0  0  0
    5.4940    0.3830   20.6980 C   0  0  0  0  0  0  0  0  0  0  0  0
    4.7150    0.9970   19.5690 C   0  0  0  0  0  0  0  0  0  0  0  0
    5.1620    0.9100   18.2590 C   0  0  0  0  0  0  0  0  0  0  0  0
    6.3090    0.2630   17.9660 N   0  0  0  0  0  0  0  0  0  0  0  0
    7.0620   -0.3230   18.9730 C   0  0  0  0  0  0  0  0  0  0  0  0
    8.9390   -1.0160   20.9760 N   0  0  0  0  0  0  0  0  0  0  0  0
    9.8140   -1.5190   21.8510 C   0  0  0  0  0  0  0  0  0  0  0  0
   11.4810   -1.6160   21.4390 S   0  0  0  0  0  0  0  0  0  0  0  0
   11.9810   -2.1710   22.8270 C   0  0  0  0  0  0  0  0  0  0  0  0
   10.9030   -2.3380   23.6130 C   0  0  0  0  0  0  0  0  0  0  0  0
    9.5900   -2.0000   23.1040 C   0  0  0  0  0  0  0  0  0  0  0  0
   11.5640   -2.8270   24.7860 C   0  0  0  0  0  0  0  0  0  0  0  0
   12.9300   -2.7430   24.5920 C   0  0  0  0  0  0  0  0  0  0  0  0
   13.3070   -2.4840   23.3240 C   0  0  0  0  0  0  0  0  0  0  0  0
    6.9750   -1.5540   25.5610 C   0  0  0  0  0  0  0  0  0  0  0  0
  1  2  1  0
  2  3  1  0
  3  4  1  1
  3  5  1  0
  5  6  1  0
  6  7  1  0
  7  8  1  0
  8  9  2  0
  9 10  1  0
 10 11  1  0
 11 12  2  0
 12 13  1  0
 13 14  2  0
 14 15  1  0
 11 16  1  0
 15 16  2  0
 10 17  2  0
 17 18  1  0
 18 19  1  0
 19 20  1  0
 20 21  2  0
  8 22  1  0
 18 22  2  0
 21 22  1  0
 21 23  1  0
 23 24  1  0
 20 25  1  0
 24 25  1  0
  3 26  1  0
  7 26  1  0
M  END
