RAI-NOV-2f6a9876-1
     RDKit          3D

 26 29  0  0  0  0  0  0  0  0999 V2000
   12.9610   -4.4020   19.7270 C   0  0  0  0  0  0  0  0  0  0  0  0
   14.0240   -3.7580   20.2570 N   0  0  0  0  0  0  0  0  0  0  0  0
   14.9740   -4.8630   20.4600 C   0  0  0  0  0  0  0  0  0  0  0  0
   13.5070   -2.9130   21.3190 C   0  0  0  0  0  0  0  0  0  0  0  0
   13.7020   -3.0540   22.5110 O   0  0  0  0  0  0  0  0  0  0  0  0
   12.7060   -1.8120   21.0330 C   0  0  0  0  0  0  0  0  0  0  0  0
   11.2780   -2.1200   21.3260 C   0  0  2  0  0  0  0  0  0  0  0  0
    9.9880   -1.5190   21.2780 C   0  0  0  0  0  0  0  0  0  0  0  0
    9.2510   -1.1930   22.3220 N   0  0  0  0  0  0  0  0  0  0  0  0
    8.7440    0.0880   22.1980 C   0  0  0  0  0  0  0  0  0  0  0  0
    9.5520    1.2060   22.0870 O   0  0  0  0  0  0  0  0  0  0  0  0
    7.2470    0.3230   22.1000 C   0  0  0  0  0  0  0  0  0  0  0  0
    6.2150    0.5540   23.1330 C   0  0  0  0  0  0  0  0  0  0  0  0
    4.8960    0.7450   22.4980 N   0  0  0  0  0  0  0  0  0  0  0  0
    5.1910    0.6220   21.1440 N   0  0  0  0  0  0  0  0  0  0  0  0
    6.4590    0.3850   20.8250 C   0  0  0  0  0  0  0  0  0  0  0  0
    6.6540    0.2750   19.4730 C   0  0  0  0  0  0  0  0  0  0  0  0
    5.3800    0.4100   18.9070 C   0  0  0  0  0  0  0  0  0  0  0  0
    4.4080    0.6930   19.9110 C   0  0  0  0  0  0  0  0  0  0  0  0
   10.2160   -1.4150   23.1540 C   0  0  0  0  0  0  0  0  0  0  0  0
   10.1380   -1.2230   24.3520 C   0  0  0  0  0  0  0  0  0  0  0  0
   11.2110   -1.4680   25.1050 C   0  0  0  0  0  0  0  0  0  0  0  0
   12.4160   -1.9310   24.6560 C   0  0  0  0  0  0  0  0  0  0  0  0
   13.7780   -2.2780   25.6230 Cl  0  0  0  0  0  0  0  0  0  0  0  0
   12.4990   -2.1510   23.3730 C   0  0  0  0  0  0  0  0  0  0  0  0
   11.3850   -1.9010   22.6650 C   0  0  0  0  0  0  0  0  0  0  0  0
  1  2  1  0
  2  3  1  0
  2  4  1  0
  4  5  2  0
  4  6  1  0
  7  6  1  6
  7  8  1  0
  8  9  1  0
  9 10  1  0
 10 11  2  0
 10 12  1  0
 12 13  1  0
 13 14  2  0
 14 15  1  0
 12 16  2  0
 15 16  1  0
 16 17  1  0
 17 18  1  0
 15 19  1  0
 18 19  1  0
  9 20  1  0
 20 21  2  0
 21 22  1  0
 22 23  2  0
 23 24  1  0
 23 25  1  0
  7 26  1  0
 20 26  1  0
 25 26  2  0
M  END
