RAI-NOV-c18e0037-6
     RDKit          3D

 25 28  0  0  0  0  0  0  0  0999 V2000
    8.7590    0.7520   21.2240 O   0  0  0  0  0  0  0  0  0  0  0  0
    8.3060   -0.3370   21.5570 C   0  0  0  0  0  0  0  0  0  0  0  0
    7.0000   -0.8150   21.1270 N   0  0  0  0  0  0  0  0  0  0  0  0
    6.3850   -0.0620   20.0400 C   0  0  0  0  0  0  0  0  0  0  0  0
    5.1280    0.6990   20.3410 C   0  0  0  0  0  0  0  0  0  0  0  0
    4.5640    1.4530   19.1720 C   0  0  0  0  0  0  0  0  0  0  0  0
    5.1970    1.4120   17.9350 C   0  0  0  0  0  0  0  0  0  0  0  0
    6.3690    0.6720   17.7330 N   0  0  0  0  0  0  0  0  0  0  0  0
    6.9020   -0.0160   18.7550 C   0  0  0  0  0  0  0  0  0  0  0  0
    6.1180   -1.4950   22.0390 C   0  0  0  0  0  0  0  0  0  0  0  0
    6.8840   -2.4210   22.9250 C   0  0  0  0  0  0  0  0  0  0  0  0
    6.1900   -3.4380   23.6110 C   0  0  0  0  0  0  0  0  0  0  0  0
    6.8370   -4.3420   24.4570 C   0  0  0  0  0  0  0  0  0  0  0  0
    6.1070   -5.2800   25.0770 F   0  0  0  0  0  0  0  0  0  0  0  0
    8.2130   -4.2610   24.6460 C   0  0  0  0  0  0  0  0  0  0  0  0
    9.0240   -5.3610   25.6930 Cl  0  0  0  0  0  0  0  0  0  0  0  0
    8.9680   -3.1900   23.9200 C   0  0  0  0  0  0  0  0  0  0  0  0
    8.2840   -2.3050   23.0890 C   0  0  0  0  0  0  0  0  0  0  0  0
    8.9660   -1.2510   22.3780 N   0  0  0  0  0  0  0  0  0  0  0  0
   10.3450   -0.8620   22.6180 C   0  0  0  0  0  0  0  0  0  0  0  0
   10.3820    0.3510   23.5210 C   0  0  0  0  0  0  0  0  0  0  0  0
   11.7030    0.7760   23.7570 C   0  0  0  0  0  0  0  0  0  0  0  0
   12.8250    0.1440   23.2200 C   0  0  0  0  0  0  0  0  0  0  0  0
   12.7270   -0.9670   22.4060 C   0  0  0  0  0  0  0  0  0  0  0  0
   11.4820   -1.4780   22.1010 C   0  0  0  0  0  0  0  0  0  0  0  0
  1  2  2  0
  2  3  1  0
  3  4  1  0
  4  5  2  0
  5  6  1  0
  6  7  2  0
  7  8  1  0
  4  9  1  0
  8  9  2  0
  3 10  1  0
 10 11  1  0
 11 12  1  0
 12 13  2  0
 13 14  1  0
 13 15  1  0
 15 16  1  0
 15 17  2  0
 11 18  2  0
 17 18  1  0
  2 19  1  0
 18 19  1  0
 19 20  1  0
 20 21  2  0
 21 22  1  0
 22 23  2  0
 23 24  1  0
 20 25  1  0
 24 25  2  0
M  END
