RAI-NOV-a7d52b4a-2
     RDKit          3D

 25 28  0  0  0  0  0  0  0  0999 V2000
    4.8670   -0.6810   21.2990 O   0  0  0  0  0  0  0  0  0  0  0  0
    4.9220   -0.0110   20.2860 C   0  0  0  0  0  0  0  0  0  0  0  0
    4.3830    1.3120   20.0840 N   0  0  0  0  0  0  0  0  0  0  0  0
    4.8090    1.7380   18.7520 C   0  0  0  0  0  0  0  0  0  0  0  0
    5.4800    0.6640   18.1430 C   0  0  0  0  0  0  0  0  0  0  0  0
    5.5890   -0.4300   19.0090 C   0  0  0  0  0  0  0  0  0  0  0  0
    6.1360   -1.6470   18.8790 C   0  0  0  0  0  0  0  0  0  0  0  0
    6.0600   -2.5500   20.0230 C   0  0  0  0  0  0  0  0  0  0  0  0
    5.5630   -3.8550   19.8680 O   0  0  0  0  0  0  0  0  0  0  0  0
    6.5350   -2.0270   21.2840 N   0  0  0  0  0  0  0  0  0  0  0  0
    6.1420   -2.4120   22.4760 C   0  0  0  0  0  0  0  0  0  0  0  0
    7.0840   -3.2980   22.8990 C   0  0  0  0  0  0  0  0  0  0  0  0
    6.6310   -4.4160   23.5510 C   0  0  0  0  0  0  0  0  0  0  0  0
    7.4880   -5.3680   23.9890 C   0  0  0  0  0  0  0  0  0  0  0  0
    8.8600   -5.2860   23.8410 C   0  0  0  0  0  0  0  0  0  0  0  0
    9.4920   -4.2300   23.2410 C   0  0  0  0  0  0  0  0  0  0  0  0
    8.6420   -3.3010   22.7690 C   0  0  0  0  0  0  0  0  0  0  0  0
    8.8940   -2.1160   22.0060 C   0  0  2  0  0  0  0  0  0  0  0  0
    9.9650   -1.2540   22.3730 C   0  0  0  0  0  0  0  0  0  0  0  0
   11.2840   -1.7460   22.3970 C   0  0  0  0  0  0  0  0  0  0  0  0
   12.3190   -0.8920   22.7270 C   0  0  0  0  0  0  0  0  0  0  0  0
   12.1000    0.4950   23.0440 C   0  0  0  0  0  0  0  0  0  0  0  0
   10.7770    0.9520   23.0100 C   0  0  0  0  0  0  0  0  0  0  0  0
    9.7290    0.0880   22.6860 C   0  0  0  0  0  0  0  0  0  0  0  0
    7.7260   -1.2430   21.5260 C   0  0  0  0  0  0  0  0  0  0  0  0
  1  2  2  0
  2  3  1  0
  3  4  1  0
  4  5  1  0
  2  6  1  0
  5  6  1  0
  6  7  2  3
  7  8  1  0
  8  9  2  0
  8 10  1  0
 10 11  1  0
 11 12  1  0
 12 13  2  0
 13 14  1  0
 14 15  2  0
 15 16  1  0
 12 17  1  0
 16 17  2  0
 17 18  1  0
 18 19  1  1
 19 20  2  0
 20 21  1  0
 21 22  2  0
 22 23  1  0
 19 24  1  0
 23 24  2  0
 10 25  1  0
 18 25  1  0
M  END
