RAI-NOV-a7d52b4a-1
     RDKit          3D

 26 29  0  0  0  0  0  0  0  0999 V2000
    3.0850    1.5040   19.6850 O   0  0  0  0  0  0  0  0  0  0  0  0
    4.1200    1.1890   19.1080 C   0  0  0  0  0  0  0  0  0  0  0  0
    4.8570    1.9890   18.1580 N   0  0  0  0  0  0  0  0  0  0  0  0
    6.0080    1.2330   17.6540 C   0  0  0  0  0  0  0  0  0  0  0  0
    5.8040   -0.1610   18.0450 C   0  0  0  0  0  0  0  0  0  0  0  0
    4.9180   -0.0630   19.2000 C   0  0  0  0  0  0  0  0  0  0  0  0
    4.9050   -0.9940   20.1630 C   0  0  0  0  0  0  0  0  0  0  0  0
    5.7570   -2.2130   20.1980 C   0  0  0  0  0  0  0  0  0  0  0  0
    5.4290   -3.2690   19.2580 O   0  0  0  0  0  0  0  0  0  0  0  0
    6.6800   -2.1110   21.2290 N   0  0  0  0  0  0  0  0  0  0  0  0
    6.0630   -1.9600   22.4260 C   0  0  0  0  0  0  0  0  0  0  0  0
    6.7180   -3.0490   23.0230 C   0  0  0  0  0  0  0  0  0  0  0  0
    5.9950   -4.0500   23.6520 C   0  0  0  0  0  0  0  0  0  0  0  0
    6.6690   -5.0950   24.1280 C   0  0  0  0  0  0  0  0  0  0  0  0
    8.0000   -5.1800   24.0380 C   0  0  0  0  0  0  0  0  0  0  0  0
    8.7610   -4.0550   23.4160 C   0  0  0  0  0  0  0  0  0  0  0  0
    8.1100   -3.0620   22.8960 C   0  0  0  0  0  0  0  0  0  0  0  0
    8.8410   -2.0830   22.1680 C   0  0  2  0  0  0  0  0  0  0  0  0
    9.9200   -1.0750   22.5320 C   0  0  0  0  0  0  0  0  0  0  0  0
   11.1770   -1.6700   22.7240 C   0  0  0  0  0  0  0  0  0  0  0  0
   12.2780   -0.8430   23.0130 C   0  0  0  0  0  0  0  0  0  0  0  0
   12.1040    0.5370   23.0950 C   0  0  0  0  0  0  0  0  0  0  0  0
   10.8380    1.1050   22.9020 C   0  0  0  0  0  0  0  0  0  0  0  0
   10.6050    2.8180   22.9770 Cl  0  0  0  0  0  0  0  0  0  0  0  0
    9.7400    0.2950   22.6280 C   0  0  0  0  0  0  0  0  0  0  0  0
    7.8630   -1.3970   21.1900 C   0  0  0  0  0  0  0  0  0  0  0  0
  1  2  2  0
  2  3  1  0
  3  4  1  0
  4  5  1  0
  2  6  1  0
  5  6  1  0
  6  7  2  3
  7  8  1  0
  8  9  2  0
  8 10  1  0
 10 11  1  0
 11 12  1  0
 12 13  2  0
 13 14  1  0
 14 15  2  0
 15 16  1  0
 12 17  1  0
 16 17  2  0
 17 18  1  0
 18 19  1  1
 19 20  2  0
 20 21  1  0
 21 22  2  0
 22 23  1  0
 23 24  1  0
 19 25  1  0
 23 25  2  0
 10 26  1  0
 18 26  1  0
M  END
