RAL-MED-9a5eb9cb-5
     RDKit          3D

 37 39  0  0  0  0  0  0  0  0999 V2000
    1.9050   -4.7620   27.0560 C   0  0  0  0  0  0  0  0  0  0  0  0
    1.5450   -3.7490   26.1270 O   0  0  0  0  0  0  0  0  0  0  0  0
    2.4620   -3.6430   25.0420 C   0  0  0  0  0  0  0  0  0  0  0  0
    3.1460   -2.4070   24.6310 C   0  0  0  0  0  0  0  0  0  0  0  0
    4.1290   -2.3660   23.4340 C   0  0  0  0  0  0  0  0  0  0  0  0
    4.4020   -3.5120   22.7090 C   0  0  0  0  0  0  0  0  0  0  0  0
    5.2980   -3.4710   21.6390 N   0  0  0  0  0  0  0  0  0  0  0  0
    6.6040   -4.1740   21.6520 C   0  0  0  0  0  0  0  0  0  0  0  0
    6.8450   -5.2350   21.0550 O   0  0  0  0  0  0  0  0  0  0  0  0
    7.5770   -3.5610   22.4490 C   0  0  2  0  0  0  0  0  0  0  0  0
    7.0280   -3.7790   23.8120 C   0  0  0  0  0  0  0  0  0  0  0  0
    6.6040   -4.9180   22.8130 C   0  0  0  0  0  0  0  0  0  0  0  0
    5.7840   -6.2410   22.6710 C   0  0  0  0  0  0  0  0  0  0  0  0
    5.3350   -6.2790   23.9770 C   0  0  0  0  0  0  0  0  0  0  0  0
    5.5780   -5.4530   24.9550 N   0  0  0  0  0  0  0  0  0  0  0  0
    6.3740   -4.2890   24.8730 C   0  0  0  0  0  0  0  0  0  0  0  0
    7.6240   -2.2120   22.1910 N   0  0  0  0  0  0  0  0  0  0  0  0
    6.4910   -1.4210   22.6150 C   0  0  0  0  0  0  0  0  0  0  0  0
    6.1580   -1.2520   23.9380 O   0  0  0  0  0  0  0  0  0  0  0  0
    5.7330   -0.7580   21.6420 C   0  0  0  0  0  0  0  0  0  0  0  0
    6.0420    0.6810   21.3480 C   0  0  0  0  0  0  0  0  0  0  0  0
    5.4180    1.4930   20.4060 C   0  0  0  0  0  0  0  0  0  0  0  0
    5.8360    1.4380   19.1310 N   0  0  0  0  0  0  0  0  0  0  0  0
    4.8220    1.5620   18.0860 C   0  0  0  0  0  0  0  0  0  0  0  0
    6.8110    0.3560   18.9450 C   0  0  0  0  0  0  0  0  0  0  0  0
    8.9200   -1.6770   22.4170 C   0  0  0  0  0  0  0  0  0  0  0  0
    9.1820   -0.3340   22.2070 C   0  0  0  0  0  0  0  0  0  0  0  0
   10.4620    0.1750   22.4330 C   0  0  0  0  0  0  0  0  0  0  0  0
   11.4720   -0.6770   22.8620 C   0  0  0  0  0  0  0  0  0  0  0  0
   12.7370   -0.2060   23.0750 C   0  0  0  0  0  0  0  0  0  0  0  0
   13.5770   -0.5950   22.0900 F   0  0  0  0  0  0  0  0  0  0  0  0
   12.7980    1.1510   23.1390 F   0  0  0  0  0  0  0  0  0  0  0  0
   13.2410   -0.7130   24.2290 F   0  0  0  0  0  0  0  0  0  0  0  0
   11.2070   -2.0210   23.0780 C   0  0  0  0  0  0  0  0  0  0  0  0
    9.9450   -2.5090   22.8590 C   0  0  0  0  0  0  0  0  0  0  0  0
    3.7470   -4.6890   23.1010 C   0  0  0  0  0  0  0  0  0  0  0  0
    2.7790   -4.7580   24.2640 C   0  0  0  0  0  0  0  0  0  0  0  0
  1  2  1  0
  2  3  1  0
  3  4  2  0
  4  5  1  0
  5  6  2  0
  6  7  1  0
  7  8  1  0
  8  9  2  0
 10  8  1  6
 10 11  1  0
 11 12  2  0
 12 13  1  0
 13 14  2  0
 14 15  1  0
 11 16  1  0
 15 16  2  0
 10 17  1  0
 17 18  1  0
 18 19  2  0
 18 20  1  0
 20 21  2  3
 21 22  1  0
 22 23  1  0
 23 24  1  0
 23 25  1  0
 17 26  1  0
 26 27  2  0
 27 28  1  0
 28 29  2  0
 29 30  1  0
 30 31  1  0
 30 32  1  0
 30 33  1  0
 29 34  1  0
 26 35  1  0
 34 35  2  0
  6 36  1  0
  3 37  1  0
 36 37  2  0
M  END
