RAL-MED-9a5eb9cb-1
     RDKit          3D

 33 35  0  0  0  0  0  0  0  0999 V2000
    4.4230   -4.3060   22.5460 C   0  0  0  0  0  0  0  0  0  0  0  0
    5.4260   -4.4770   21.3850 C   0  0  0  0  0  0  0  0  0  0  0  0
    5.9260   -3.2990   20.8130 C   0  0  0  0  0  0  0  0  0  0  0  0
    5.5500   -3.2470   19.4040 O   0  0  0  0  0  0  0  0  0  0  0  0
    6.7240   -2.4340   21.5850 N   0  0  0  0  0  0  0  0  0  0  0  0
    6.1270   -1.6380   22.6930 C   0  0  0  0  0  0  0  0  0  0  0  0
    4.9020   -2.1000   23.0970 C   0  0  0  0  0  0  0  0  0  0  0  0
    4.2390   -1.4620   24.1390 C   0  0  0  0  0  0  0  0  0  0  0  0
    4.8040   -0.3450   24.7800 C   0  0  0  0  0  0  0  0  0  0  0  0
    4.1100    0.2790   25.8270 C   0  0  0  0  0  0  0  0  0  0  0  0
    4.7440    0.1650   27.0330 F   0  0  0  0  0  0  0  0  0  0  0  0
    2.8620   -0.2320   26.0170 F   0  0  0  0  0  0  0  0  0  0  0  0
    3.9370    1.6180   25.6330 F   0  0  0  0  0  0  0  0  0  0  0  0
    6.0560    0.1410   24.3710 C   0  0  0  0  0  0  0  0  0  0  0  0
    6.7550   -0.4700   23.3380 C   0  0  0  0  0  0  0  0  0  0  0  0
    7.8470   -3.0610   22.0210 C   0  0  1  0  0  0  0  0  0  0  0  0
    9.2940   -2.5360   22.0700 C   0  0  0  0  0  0  0  0  0  0  0  0
   10.3140   -1.5360   22.1310 O   0  0  0  0  0  0  0  0  0  0  0  0
    8.6620   -1.3280   22.0950 N   0  0  0  0  0  0  0  0  0  0  0  0
    7.8580   -0.6640   21.0710 C   0  0  0  0  0  0  0  0  0  0  0  0
    7.4610   -1.5260   19.8820 C   0  0  0  0  0  0  0  0  0  0  0  0
    6.6040   -0.9080   18.7930 C   0  0  0  0  0  0  0  0  0  0  0  0
    6.1900    0.4360   18.8790 C   0  0  0  0  0  0  0  0  0  0  0  0
    5.4220    0.8750   17.8500 O   0  0  0  0  0  0  0  0  0  0  0  0
    4.6780    2.0550   18.1060 C   0  0  0  0  0  0  0  0  0  0  0  0
    6.5720    1.2130   19.9710 C   0  0  0  0  0  0  0  0  0  0  0  0
    7.4260    0.6540   21.0950 C   0  0  0  0  0  0  0  0  0  0  0  0
    7.3220   -3.5400   23.3630 C   0  0  0  0  0  0  0  0  0  0  0  0
    6.9400   -4.5840   22.4340 C   0  0  0  0  0  0  0  0  0  0  0  0
    6.1800   -5.9700   22.3700 C   0  0  0  0  0  0  0  0  0  0  0  0
    5.8440   -6.0580   23.6990 C   0  0  0  0  0  0  0  0  0  0  0  0
    6.1000   -5.2530   24.6770 N   0  0  0  0  0  0  0  0  0  0  0  0
    6.7790   -4.1250   24.4730 C   0  0  0  0  0  0  0  0  0  0  0  0
  1  2  1  0
  2  3  1  0
  3  4  2  0
  3  5  1  0
  5  6  1  0
  6  7  2  0
  7  8  1  0
  8  9  2  0
  9 10  1  0
 10 11  1  0
 10 12  1  0
 10 13  1  0
  9 14  1  0
  6 15  1  0
 14 15  2  0
  5 16  1  0
 16 17  1  1
 17 18  2  0
 17 19  1  0
 19 20  1  0
 20 21  2  0
 21 22  1  0
 22 23  2  0
 23 24  1  0
 24 25  1  0
 23 26  1  0
 20 27  1  0
 26 27  2  0
 16 28  1  0
 28 29  2  0
 29 30  1  0
 30 31  2  0
 31 32  1  0
 28 33  1  0
 32 33  2  0
M  END
