RAV-REL-e0cd5b56-2
     RDKit          3D

 26 28  0  0  0  0  0  0  0  0999 V2000
    5.2840   -0.8100   18.6560 C   0  0  0  0  0  0  0  0  0  0  0  0
    6.3620   -1.8270   19.1010 C   0  0  0  0  0  0  0  0  0  0  0  0
    7.5990   -1.8900   18.5920 C   0  0  0  0  0  0  0  0  0  0  0  0
    6.1740   -2.8550   20.1980 C   0  0  0  0  0  0  0  0  0  0  0  0
    5.5180   -3.8820   19.8960 O   0  0  0  0  0  0  0  0  0  0  0  0
    6.7980   -2.4950   21.3480 N   0  0  0  0  0  0  0  0  0  0  0  0
    6.1650   -2.4960   22.4830 C   0  0  0  0  0  0  0  0  0  0  0  0
    6.8940   -3.1750   23.5810 C   0  0  0  0  0  0  0  0  0  0  0  0
    6.0270   -3.9640   24.5110 C   0  0  0  0  0  0  0  0  0  0  0  0
    6.6310   -4.6360   25.5500 C   0  0  0  0  0  0  0  0  0  0  0  0
    8.0060   -4.5810   25.7260 C   0  0  0  0  0  0  0  0  0  0  0  0
    8.5750   -5.2600   26.7760 C   0  0  0  0  0  0  0  0  0  0  0  0
    8.7120   -4.6250   27.9480 F   0  0  0  0  0  0  0  0  0  0  0  0
    9.7820   -5.7450   26.4090 F   0  0  0  0  0  0  0  0  0  0  0  0
    7.8210   -6.3280   27.1030 F   0  0  0  0  0  0  0  0  0  0  0  0
    8.8920   -3.7670   24.7580 C   0  0  0  0  0  0  0  0  0  0  0  0
    8.2930   -3.0610   23.6800 C   0  0  0  0  0  0  0  0  0  0  0  0
    9.0370   -2.2140   22.6060 C   0  0  2  0  0  0  0  0  0  0  0  0
    9.8680   -0.9000   22.7410 C   0  0  0  0  0  0  0  0  0  0  0  0
    9.1680    0.2300   23.1270 C   0  0  0  0  0  0  0  0  0  0  0  0
    9.7570    1.6660   23.2920 C   0  0  0  0  0  0  0  0  0  0  0  0
   11.2830    1.5590   22.9490 C   0  0  0  0  0  0  0  0  0  0  0  0
   11.9030    0.4230   22.5930 C   0  0  0  0  0  0  0  0  0  0  0  0
   11.2600   -0.7500   22.4780 C   0  0  0  0  0  0  0  0  0  0  0  0
   12.4650   -1.8230   21.9670 Cl  0  0  0  0  0  0  0  0  0  0  0  0
    8.1450   -2.0390   21.3050 C   0  0  0  0  0  0  0  0  0  0  0  0
  1  2  2  3
  2  3  1  0
  2  4  1  0
  4  5  2  0
  4  6  1  0
  6  7  1  0
  7  8  1  0
  8  9  1  0
  9 10  2  0
 10 11  1  0
 11 12  1  0
 12 13  1  0
 12 14  1  0
 12 15  1  0
 11 16  2  0
  8 17  2  0
 16 17  1  0
 17 18  1  0
 18 19  1  1
 19 20  2  0
 20 21  1  0
 21 22  2  0
 22 23  1  0
 19 24  1  0
 23 24  2  0
 24 25  1  0
  6 26  1  0
 18 26  1  0
M  END
