REN-UFA-aaaed2d6-4
     RDKit          3D

 26 29  0  0  0  0  0  0  0  0999 V2000
    5.6290   -3.9460   20.0100 O   0  0  0  0  0  0  0  0  0  0  0  0
    6.2230   -2.8590   20.1350 C   0  0  0  0  0  0  0  0  0  0  0  0
    6.2990   -1.9010   18.8920 C   0  0  0  0  0  0  0  0  0  0  0  0
    6.5270   -0.8570   19.9960 C   0  0  0  0  0  0  0  0  0  0  0  0
    6.7210    0.4440   19.5130 C   0  0  0  0  0  0  0  0  0  0  0  0
    5.7810    1.3790   19.7670 N   0  0  0  0  0  0  0  0  0  0  0  0
    4.6430    1.4950   19.0040 C   0  0  0  0  0  0  0  0  0  0  0  0
    3.9340    2.5200   19.5300 N   0  0  0  0  0  0  0  0  0  0  0  0
    4.6520    2.9870   20.5740 C   0  0  0  0  0  0  0  0  0  0  0  0
    5.8460    2.3030   20.7870 N   0  0  0  0  0  0  0  0  0  0  0  0
    6.8860   -2.4790   21.3100 N   0  0  0  0  0  0  0  0  0  0  0  0
    6.1610   -2.6050   22.5930 C   0  0  0  0  0  0  0  0  0  0  0  0
    6.9040   -3.3840   23.4860 C   0  0  0  0  0  0  0  0  0  0  0  0
    6.2720   -4.4930   24.2840 C   0  0  0  0  0  0  0  0  0  0  0  0
    7.0690   -5.2330   25.1350 C   0  0  0  0  0  0  0  0  0  0  0  0
    8.4210   -4.9650   25.2240 C   0  0  0  0  0  0  0  0  0  0  0  0
    8.9840   -3.9380   24.4760 C   0  0  0  0  0  0  0  0  0  0  0  0
    8.2470   -3.1150   23.6190 C   0  0  0  0  0  0  0  0  0  0  0  0
    8.6760   -1.9980   22.8430 C   0  0  1  0  0  0  0  0  0  0  0  0
    9.9580   -1.3740   22.9190 C   0  0  0  0  0  0  0  0  0  0  0  0
   11.0880   -1.8190   22.1460 C   0  0  0  0  0  0  0  0  0  0  0  0
   12.4010   -1.1290   22.2470 C   0  0  0  0  0  0  0  0  0  0  0  0
   12.1790   -0.0980   23.1750 C   0  0  0  0  0  0  0  0  0  0  0  0
   11.4170    0.4060   23.8650 C   0  0  0  0  0  0  0  0  0  0  0  0
   10.1440   -0.2170   23.8080 C   0  0  0  0  0  0  0  0  0  0  0  0
    8.2570   -2.3100   21.4160 C   0  0  0  0  0  0  0  0  0  0  0  0
  1  2  2  0
  2  3  1  0
  3  4  2  3
  4  5  1  0
  5  6  1  0
  6  7  1  0
  7  8  2  0
  8  9  1  0
  6 10  1  0
  9 10  2  0
  2 11  1  0
 11 12  1  0
 12 13  1  0
 13 14  2  0
 14 15  1  0
 15 16  2  0
 16 17  1  0
 13 18  1  0
 17 18  2  0
 18 19  1  0
 19 20  1  6
 20 21  2  0
 21 22  1  0
 22 23  2  0
 23 24  1  0
 20 25  1  0
 24 25  2  0
 11 26  1  0
 19 26  1  0
M  END
