REN-UFA-aaaed2d6-5
     RDKit          3D

 26 28  0  0  0  0  0  0  0  0999 V2000
    2.8620    2.1860   20.0300 C   0  0  0  0  0  0  0  0  0  0  0  0
    3.4820    1.8950   18.7590 N   0  0  0  0  0  0  0  0  0  0  0  0
    4.8210    1.9530   18.4900 C   0  0  0  0  0  0  0  0  0  0  0  0
    5.3080    0.5830   18.2130 C   0  0  0  0  0  0  0  0  0  0  0  0
    5.2700   -0.3770   19.1670 N   0  0  0  0  0  0  0  0  0  0  0  0
    4.6080    0.0230   20.4120 C   0  0  0  0  0  0  0  0  0  0  0  0
    5.7380   -1.7160   18.9410 C   0  0  0  0  0  0  0  0  0  0  0  0
    5.9300   -2.2060   17.8370 O   0  0  0  0  0  0  0  0  0  0  0  0
    5.9460   -2.4980   20.0550 C   0  0  0  0  0  0  0  0  0  0  0  0
    5.6950   -3.7250   20.0060 O   0  0  0  0  0  0  0  0  0  0  0  0
    6.4070   -1.7860   21.1220 N   0  0  0  0  0  0  0  0  0  0  0  0
    5.8310   -1.9950   22.2850 C   0  0  0  0  0  0  0  0  0  0  0  0
    6.5760   -3.0870   22.9120 C   0  0  0  0  0  0  0  0  0  0  0  0
    5.7600   -4.1100   23.6300 C   0  0  0  0  0  0  0  0  0  0  0  0
    6.5370   -5.2090   24.1850 C   0  0  0  0  0  0  0  0  0  0  0  0
    7.8900   -5.2080   24.0280 C   0  0  0  0  0  0  0  0  0  0  0  0
    8.5370   -4.1580   23.3680 C   0  0  0  0  0  0  0  0  0  0  0  0
    7.9490   -3.1240   22.7840 C   0  0  0  0  0  0  0  0  0  0  0  0
    8.7370   -2.1980   22.0690 C   0  0  2  0  0  0  0  0  0  0  0  0
    9.8240   -1.3760   22.7230 C   0  0  0  0  0  0  0  0  0  0  0  0
   11.1300   -1.4100   22.1730 C   0  0  0  0  0  0  0  0  0  0  0  0
   12.1530   -0.6570   22.7430 C   0  0  0  0  0  0  0  0  0  0  0  0
   11.8250    0.1890   23.9590 C   0  0  0  0  0  0  0  0  0  0  0  0
   10.5240    0.1770   24.4590 C   0  0  0  0  0  0  0  0  0  0  0  0
    9.5430   -0.5940   23.8470 C   0  0  0  0  0  0  0  0  0  0  0  0
    7.7990   -1.2950   21.2180 C   0  0  0  0  0  0  0  0  0  0  0  0
  1  2  1  0
  2  3  1  0
  3  4  1  0
  4  5  1  0
  5  6  1  0
  5  7  1  0
  7  8  2  0
  7  9  1  0
  9 10  2  0
  9 11  1  0
 11 12  1  0
 12 13  1  0
 13 14  1  0
 14 15  2  0
 15 16  1  0
 16 17  2  0
 13 18  2  0
 17 18  1  0
 18 19  1  0
 19 20  1  1
 20 21  2  0
 21 22  1  0
 22 23  2  0
 23 24  1  0
 20 25  1  0
 24 25  2  0
 11 26  1  0
 19 26  1  0
M  END
