RHY-UNK-4b26e9be-1
     RDKit          3D

 23 24  0  0  0  0  0  0  0  0999 V2000
    7.3270   -6.2570   21.5380 N   0  0  0  0  0  0  0  0  0  0  0  0
    6.1670   -5.8080   21.5040 C   0  0  0  0  0  0  0  0  0  0  0  0
    5.1940   -6.7270   21.6570 N   0  0  0  0  0  0  0  0  0  0  0  0
    6.0500   -4.8190   22.5260 C   0  0  0  0  0  0  0  0  0  0  0  0
    4.9000   -5.1650   23.2090 C   0  0  0  0  0  0  0  0  0  0  0  0
    5.0140   -4.0640   24.1700 C   0  0  0  0  0  0  0  0  0  0  0  0
    5.9150   -3.0600   24.3420 C   0  0  0  0  0  0  0  0  0  0  0  0
    5.6140   -2.2530   25.3900 C   0  0  0  0  0  0  0  0  0  0  0  0
    4.4400   -1.9380   25.5050 O   0  0  0  0  0  0  0  0  0  0  0  0
    6.5550   -1.8830   26.3270 N   0  0  0  0  0  0  0  0  0  0  0  0
    6.2860   -2.1680   27.7220 C   0  0  0  0  0  0  0  0  0  0  0  0
    6.9420   -1.2210   28.7060 C   0  0  0  0  0  0  0  0  0  0  0  0
    7.0780   -0.0040   29.2300 C   0  0  0  0  0  0  0  0  0  0  0  0
    6.3160    0.9330   28.7080 C   0  0  0  0  0  0  0  0  0  0  0  0
    5.2720    1.1090   27.6590 C   0  0  0  0  0  0  0  0  0  0  0  0
    4.9270   -0.1310   26.9270 C   0  0  0  0  0  0  0  0  0  0  0  0
    4.3230   -1.0480   27.4760 O   0  0  0  0  0  0  0  0  0  0  0  0
    5.3220   -0.0990   25.5420 O   0  0  0  0  0  0  0  0  0  0  0  0
    6.0540    1.4930   28.5990 C   0  0  0  0  0  0  0  0  0  0  0  0
    6.1260   -0.0540   28.2010 C   0  0  0  0  0  0  0  0  0  0  0  0
    6.9510   -2.9960   23.4790 C   0  0  0  0  0  0  0  0  0  0  0  0
    7.8740   -1.9940   23.6200 O   0  0  0  0  0  0  0  0  0  0  0  0
    7.1880   -3.8650   22.4320 C   0  0  0  0  0  0  0  0  0  0  0  0
  1  2  1  0
  2  3  1  0
  2  4  1  0
  4  5  2  0
  5  6  1  0
  6  7  2  0
  7  8  1  0
  8  9  2  0
  8 10  1  0
 10 11  1  0
 11 12  1  0
 12 13  2  0
 13 14  1  0
 14 15  2  0
 15 16  1  0
 16 17  2  0
 16 18  1  0
 15 19  1  0
 12 20  1  0
 19 20  2  0
  7 21  1  0
 21 22  1  0
  4 23  1  0
 21 23  2  0
M  END
