RIC-ARG-a8e88843-1
     RDKit          3D

 22 23  0  0  0  0  0  0  0  0999 V2000
    7.7230    0.1250   26.7100 C   0  0  0  0  0  0  0  0  0  0  0  0
    8.3810   -0.4950   25.6570 N   0  0  0  0  0  0  0  0  0  0  0  0
    9.6090    0.2890   25.4880 C   0  0  0  0  0  0  0  0  0  0  0  0
   10.5830   -0.0890   24.3370 C   0  0  0  0  0  0  0  0  0  0  0  0
   10.1270   -1.0330   23.3990 C   0  0  0  0  0  0  0  0  0  0  0  0
   10.9520   -1.4610   22.3660 C   0  0  0  0  0  0  0  0  0  0  0  0
   12.2200   -0.9350   22.2770 C   0  0  0  0  0  0  0  0  0  0  0  0
   12.6430    0.0100   23.1950 C   0  0  0  0  0  0  0  0  0  0  0  0
   11.8470    0.4390   24.2150 N   0  0  0  0  0  0  0  0  0  0  0  0
    8.3560   -1.9700   25.5710 C   0  0  0  0  0  0  0  0  0  0  0  0
    8.3730   -2.6390   26.6000 O   0  0  0  0  0  0  0  0  0  0  0  0
    8.2520   -2.6020   24.3520 N   0  0  0  0  0  0  0  0  0  0  0  0
    8.7050   -4.0020   24.2580 C   0  0  0  0  0  0  0  0  0  0  0  0
    7.6960   -4.9660   24.3390 C   0  0  0  0  0  0  0  0  0  0  0  0
    7.5240   -5.7870   23.2140 C   0  0  0  0  0  0  0  0  0  0  0  0
    6.2320   -6.2950   23.0580 C   0  0  0  0  0  0  0  0  0  0  0  0
    5.6130   -5.4480   22.0620 N   0  0  0  0  0  0  0  0  0  0  0  0
    5.3150   -3.8540   22.4520 S   0  0  0  0  0  0  0  0  0  0  0  0
    4.6250   -3.3630   21.3080 O   0  0  0  0  0  0  0  0  0  0  0  0
    4.6700   -3.8450   23.7480 O   0  0  0  0  0  0  0  0  0  0  0  0
    6.8930   -3.0050   22.5380 C   0  0  0  0  0  0  0  0  0  0  0  0
    7.0540   -2.2970   23.7300 C   0  0  0  0  0  0  0  0  0  0  0  0
  1  2  1  0
  2  3  1  0
  3  4  1  0
  4  5  2  0
  5  6  1  0
  6  7  2  0
  7  8  1  0
  4  9  1  0
  8  9  2  0
  2 10  1  0
 10 11  2  0
 10 12  1  0
 12 13  1  0
 13 14  1  0
 14 15  1  0
 15 16  1  0
 16 17  1  0
 18 17  1  0
 18 19  2  0
 18 20  2  0
 18 21  1  0
 12 22  1  0
 21 22  1  0
M  END
