RIC-ARG-a8e88843-7
     RDKit          3D

 20 21  0  0  0  0  0  0  0  0999 V2000
    7.8380    0.6530   26.0710 O   0  0  0  0  0  0  0  0  0  0  0  0
    8.3990   -0.4140   25.8890 C   0  0  0  0  0  0  0  0  0  0  0  0
    8.5240   -1.3790   26.8430 N   0  0  0  0  0  0  0  0  0  0  0  0
    8.0990   -0.9570   28.0700 C   0  0  0  0  0  0  0  0  0  0  0  0
    6.8110   -1.4200   28.3900 C   0  0  0  0  0  0  0  0  0  0  0  0
    6.2210   -0.8750   30.0220 S   0  0  0  0  0  0  0  0  0  0  0  0
    7.8050    0.0160   30.2620 C   0  0  0  0  0  0  0  0  0  0  0  0
    8.1750    0.9190   31.6850 Cl  0  0  0  0  0  0  0  0  0  0  0  0
    8.7150   -0.1610   29.0470 C   0  0  0  0  0  0  0  0  0  0  0  0
    8.9850   -0.8300   24.6780 N   0  0  0  0  0  0  0  0  0  0  0  0
    8.9190   -2.1360   24.4600 C   0  0  0  0  0  0  0  0  0  0  0  0
    9.3850   -2.4800   23.1920 C   0  0  0  0  0  0  0  0  0  0  0  0
   10.5520   -1.8690   22.7850 C   0  0  0  0  0  0  0  0  0  0  0  0
   10.3730   -1.1050   21.6950 C   0  0  0  0  0  0  0  0  0  0  0  0
    9.0870   -1.3970   21.0200 N   0  0  0  0  0  0  0  0  0  0  0  0
    7.6940   -0.4900   21.2250 S   0  0  0  0  0  0  0  0  0  0  0  0
    8.0410    0.8700   20.8730 O   0  0  0  0  0  0  0  0  0  0  0  0
    6.5840   -1.1640   20.5960 O   0  0  0  0  0  0  0  0  0  0  0  0
    7.4900   -0.5410   22.9850 C   0  0  0  0  0  0  0  0  0  0  0  0
    8.6570   -0.1020   23.5670 C   0  0  0  0  0  0  0  0  0  0  0  0
  1  2  2  0
  2  3  1  0
  3  4  1  0
  4  5  2  0
  5  6  1  0
  6  7  1  0
  7  8  1  0
  4  9  1  0
  7  9  2  0
  2 10  1  0
 10 11  1  0
 11 12  1  0
 12 13  1  0
 13 14  1  0
 14 15  1  0
 16 15  1  0
 16 17  2  0
 16 18  2  0
 16 19  1  0
 10 20  1  0
 19 20  1  0
M  END
