RIC-ARG-a8e88843-8
     RDKit          3D

 24 26  0  0  0  0  0  0  0  0999 V2000
    9.4420    2.3020   24.4680 O   0  0  0  0  0  0  0  0  0  0  0  0
   10.5440    2.1540   23.9500 C   0  0  0  0  0  0  0  0  0  0  0  0
   11.3210    3.2200   23.3160 N   0  0  0  0  0  0  0  0  0  0  0  0
   10.8100    4.5890   23.4570 C   0  0  0  0  0  0  0  0  0  0  0  0
   11.5130    5.5570   24.1180 C   0  0  0  0  0  0  0  0  0  0  0  0
   10.7470    6.8150   24.0820 N   0  0  0  0  0  0  0  0  0  0  0  0
    9.6000    6.4820   23.3700 N   0  0  0  0  0  0  0  0  0  0  0  0
    8.5410    7.4520   23.0810 C   0  0  0  0  0  0  0  0  0  0  0  0
    7.3630    7.1190   23.6220 C   0  0  0  0  0  0  0  0  0  0  0  0
    7.1820    8.1740   24.5670 O   0  0  0  0  0  0  0  0  0  0  0  0
    8.4830    8.6200   24.0920 C   0  0  0  0  0  0  0  0  0  0  0  0
    9.5220    5.1620   22.9410 C   0  0  0  0  0  0  0  0  0  0  0  0
   11.1830    0.9040   23.9030 N   0  0  0  0  0  0  0  0  0  0  0  0
   10.5490   -0.2240   24.6210 C   0  0  0  0  0  0  0  0  0  0  0  0
    9.7860   -1.0450   23.7680 C   0  0  0  0  0  0  0  0  0  0  0  0
   10.2420   -2.3150   23.3460 C   0  0  0  0  0  0  0  0  0  0  0  0
   11.4190   -2.2560   22.6270 C   0  0  0  0  0  0  0  0  0  0  0  0
   12.3820   -2.2610   23.5880 N   0  0  0  0  0  0  0  0  0  0  0  0
   12.9180   -1.1100   23.9590 C   0  0  0  0  0  0  0  0  0  0  0  0
   13.2780   -0.9590   25.1090 O   0  0  0  0  0  0  0  0  0  0  0  0
   12.9420   -0.1910   22.9290 C   0  0  0  0  0  0  0  0  0  0  0  0
   13.2530   -0.8440   21.7780 F   0  0  0  0  0  0  0  0  0  0  0  0
   13.8920    0.7350   22.9540 F   0  0  0  0  0  0  0  0  0  0  0  0
   11.8290    0.5900   22.7720 C   0  0  0  0  0  0  0  0  0  0  0  0
  1  2  2  0
  2  3  1  0
  3  4  1  0
  4  5  1  0
  5  6  2  0
  6  7  1  0
  7  8  1  0
  8  9  1  0
  9 10  1  0
  8 11  1  0
 10 11  1  0
  4 12  2  0
  7 12  1  0
  2 13  1  0
 13 14  1  0
 14 15  1  0
 15 16  1  0
 16 17  1  0
 17 18  1  0
 18 19  1  0
 19 20  2  0
 19 21  1  0
 21 22  1  0
 21 23  1  0
 13 24  1  0
 21 24  1  0
M  END
