ROM-UNK-ef52a3c9-3
     RDKit          3D

 22 24  0  0  0  0  0  0  0  0999 V2000
   13.6070   -2.6910   23.6540 C   0  0  0  0  0  0  0  0  0  0  0  0
   13.1490   -1.8880   22.4850 C   0  0  0  0  0  0  0  0  0  0  0  0
   12.2750   -0.9380   22.8950 C   0  0  0  0  0  0  0  0  0  0  0  0
   11.1380   -1.3250   23.4730 C   0  0  0  0  0  0  0  0  0  0  0  0
   10.1750   -0.5540   23.9520 N   0  0  0  0  0  0  0  0  0  0  0  0
   10.1680    0.8190   23.9380 C   0  0  0  0  0  0  0  0  0  0  0  0
   10.4060    2.0810   23.8000 N   0  0  0  0  0  0  0  0  0  0  0  0
   10.3090    3.3990   23.8310 C   0  0  0  0  0  0  0  0  0  0  0  0
   11.4780    2.7960   23.2350 C   0  0  0  0  0  0  0  0  0  0  0  0
   12.4760    3.5470   22.6920 C   0  0  0  0  0  0  0  0  0  0  0  0
   12.3560    4.9530   23.0670 C   0  0  0  0  0  0  0  0  0  0  0  0
   11.2350    5.6760   22.6030 N   0  0  0  0  0  0  0  0  0  0  0  0
   10.2330    6.0730   23.6350 C   0  0  0  0  0  0  0  0  0  0  0  0
   10.5400    6.4320   24.7660 O   0  0  0  0  0  0  0  0  0  0  0  0
    8.8300    5.9910   23.1660 C   0  0  0  0  0  0  0  0  0  0  0  0
    7.8700    5.7410   24.1550 C   0  0  0  0  0  0  0  0  0  0  0  0
    6.3930    5.9600   23.7560 C   0  0  0  0  0  0  0  0  0  0  0  0
    6.2080    7.1210   23.3940 O   0  0  0  0  0  0  0  0  0  0  0  0
    7.0850    7.5090   22.3400 C   0  0  0  0  0  0  0  0  0  0  0  0
    8.5600    7.1840   22.4930 C   0  0  0  0  0  0  0  0  0  0  0  0
   11.4270    1.2310   23.2920 C   0  0  0  0  0  0  0  0  0  0  0  0
   12.4330    0.4100   22.7980 C   0  0  0  0  0  0  0  0  0  0  0  0
  1  2  1  0
  2  3  1  0
  3  4  2  0
  4  5  1  0
  5  6  2  0
  6  7  1  0
  7  8  1  0
  8  9  2  0
  9 10  1  0
 10 11  1  0
 11 12  1  0
 12 13  1  0
 13 14  2  0
 13 15  1  0
 15 16  1  0
 16 17  1  0
 17 18  1  0
 18 19  1  0
 15 20  1  0
 19 20  1  0
  6 21  1  0
  9 21  1  0
  3 22  1  0
 21 22  2  0
M  END
