ROM-UNK-ef52a3c9-1
     RDKit          3D

 19 21  0  0  0  0  0  0  0  0999 V2000
    8.7620    0.4570   21.7160 O   0  0  0  0  0  0  0  0  0  0  0  0
    8.2710   -0.6570   21.8550 C   0  0  0  0  0  0  0  0  0  0  0  0
    6.9590   -0.9710   21.2300 C   0  0  0  0  0  0  0  0  0  0  0  0
    6.3670   -0.2260   20.2760 C   0  0  0  0  0  0  0  0  0  0  0  0
    5.1260    0.5930   20.5350 C   0  0  0  0  0  0  0  0  0  0  0  0
    4.5640    1.3800   19.3650 C   0  0  0  0  0  0  0  0  0  0  0  0
    5.3590    1.2200   18.0760 C   0  0  0  0  0  0  0  0  0  0  0  0
    6.4500    0.5020   17.8470 N   0  0  0  0  0  0  0  0  0  0  0  0
    6.9060   -0.1940   18.9600 C   0  0  0  0  0  0  0  0  0  0  0  0
    6.3070   -2.0740   21.6550 C   0  0  0  0  0  0  0  0  0  0  0  0
    6.7470   -3.0280   22.6860 N   0  0  0  0  0  0  0  0  0  0  0  0
    8.1600   -2.9610   23.1020 C   0  0  0  0  0  0  0  0  0  0  0  0
    8.9640   -1.7180   22.6710 C   0  0  0  0  0  0  0  0  0  0  0  0
   10.3990   -1.7050   23.1560 C   0  0  0  0  0  0  0  0  0  0  0  0
   11.2660   -0.6490   22.8490 C   0  0  0  0  0  0  0  0  0  0  0  0
   12.5820   -0.5870   23.2780 C   0  0  0  0  0  0  0  0  0  0  0  0
   13.0430   -1.6380   24.0560 C   0  0  0  0  0  0  0  0  0  0  0  0
   12.1610   -2.6700   24.3420 C   0  0  0  0  0  0  0  0  0  0  0  0
   10.8820   -2.7130   23.9060 N   0  0  0  0  0  0  0  0  0  0  0  0
  1  2  2  0
  2  3  1  0
  3  4  1  0
  4  5  2  0
  5  6  1  0
  6  7  2  0
  7  8  1  0
  4  9  1  0
  8  9  2  0
  3 10  2  0
 10 11  1  0
 11 12  1  0
  2 13  1  0
 12 13  2  0
 13 14  1  0
 14 15  2  0
 15 16  1  0
 16 17  2  0
 17 18  1  0
 14 19  1  0
 18 19  2  0
M  END
