ROM-UNK-ef52a3c9-4
     RDKit          3D

 22 24  0  0  0  0  0  0  0  0999 V2000
   13.5960   -2.7370   23.7920 C   0  0  0  0  0  0  0  0  0  0  0  0
   13.0710   -1.9900   22.6470 C   0  0  0  0  0  0  0  0  0  0  0  0
   12.2800   -1.0170   22.9890 C   0  0  0  0  0  0  0  0  0  0  0  0
   10.9810   -1.3280   23.6430 C   0  0  0  0  0  0  0  0  0  0  0  0
   10.1420   -0.3850   24.0280 N   0  0  0  0  0  0  0  0  0  0  0  0
   10.5670    0.8870   23.7680 C   0  0  0  0  0  0  0  0  0  0  0  0
    9.8170    1.9730   24.1020 N   0  0  0  0  0  0  0  0  0  0  0  0
   10.4960    3.0220   23.7120 C   0  0  0  0  0  0  0  0  0  0  0  0
   11.7920    2.7460   23.0690 C   0  0  0  0  0  0  0  0  0  0  0  0
   12.6930    3.8840   22.5510 C   0  0  0  0  0  0  0  0  0  0  0  0
   12.3270    5.2050   23.1660 C   0  0  0  0  0  0  0  0  0  0  0  0
   11.1150    5.7200   22.7210 N   0  0  0  0  0  0  0  0  0  0  0  0
   10.0780    6.2400   23.5210 C   0  0  0  0  0  0  0  0  0  0  0  0
   10.2260    6.3600   24.7330 O   0  0  0  0  0  0  0  0  0  0  0  0
    8.8530    6.6470   22.9730 C   0  0  0  0  0  0  0  0  0  0  0  0
    8.3170    7.9280   23.1650 C   0  0  0  0  0  0  0  0  0  0  0  0
    7.0860    8.3390   22.6110 C   0  0  0  0  0  0  0  0  0  0  0  0
    6.2880    7.5070   21.8140 C   0  0  0  0  0  0  0  0  0  0  0  0
    6.7130    6.2210   21.5580 C   0  0  0  0  0  0  0  0  0  0  0  0
    8.0150    5.6920   22.1130 C   0  0  0  0  0  0  0  0  0  0  0  0
   11.8020    1.3050   23.1340 C   0  0  0  0  0  0  0  0  0  0  0  0
   12.6640    0.2990   22.7510 C   0  0  0  0  0  0  0  0  0  0  0  0
  1  2  1  0
  2  3  1  0
  3  4  2  0
  4  5  1  0
  5  6  2  0
  6  7  1  0
  7  8  1  0
  8  9  2  0
  9 10  1  0
 10 11  1  0
 11 12  1  0
 12 13  1  0
 13 14  2  0
 13 15  1  0
 15 16  2  0
 16 17  1  0
 17 18  2  0
 18 19  1  0
 15 20  1  0
 19 20  2  0
  6 21  1  0
  9 21  1  0
  3 22  1  0
 21 22  2  0
M  END
