RUT-UNI-630c5802-16
     RDKit          3D

 33 36  0  0  0  0  0  0  0  0999 V2000
    4.0360   -3.6930   22.7630 N   0  0  0  0  0  0  0  0  0  0  0  0
    4.9710   -2.8050   22.6660 C   0  0  0  0  0  0  0  0  0  0  0  0
    5.6020   -2.5160   21.3620 C   0  0  0  0  0  0  0  0  0  0  0  0
    6.5840   -1.6090   21.2090 C   0  0  0  0  0  0  0  0  0  0  0  0
    7.0120   -0.8830   22.5050 C   0  0  0  0  0  0  0  0  0  0  0  0
    8.0550    0.1290   22.6040 C   0  0  0  0  0  0  0  0  0  0  0  0
    9.3570   -0.2990   22.2720 C   0  0  0  0  0  0  0  0  0  0  0  0
    9.8980    0.1810   21.3250 O   0  0  0  0  0  0  0  0  0  0  0  0
    9.9220   -1.2790   23.1240 N   0  0  0  0  0  0  0  0  0  0  0  0
    9.0870   -1.9500   24.0530 C   0  0  0  0  0  0  0  0  0  0  0  0
    9.0760   -3.4730   24.1230 C   0  0  0  0  0  0  0  0  0  0  0  0
    8.1350   -4.2240   23.2160 C   0  0  0  0  0  0  0  0  0  0  0  0
    8.2980   -5.5260   23.4660 C   0  0  0  0  0  0  0  0  0  0  0  0
    7.6570   -6.5490   22.8840 F   0  0  0  0  0  0  0  0  0  0  0  0
    9.3040   -5.4300   24.4810 C   0  0  0  0  0  0  0  0  0  0  0  0
    9.7180   -4.2850   24.8240 O   0  0  0  0  0  0  0  0  0  0  0  0
   11.2890   -1.5580   23.4640 C   0  0  0  0  0  0  0  0  0  0  0  0
   11.6400   -1.1990   24.7470 C   0  0  0  0  0  0  0  0  0  0  0  0
   12.9290   -1.4470   25.3060 C   0  0  0  0  0  0  0  0  0  0  0  0
   13.9210   -2.1350   24.7280 C   0  0  0  0  0  0  0  0  0  0  0  0
   15.2250   -2.5650   25.4430 N   0  0  0  0  0  0  0  0  0  0  0  0
   16.5690   -1.9260   26.1000 C   0  0  0  0  0  0  0  0  0  0  0  0
   16.0350   -1.2430   26.9140 O   0  0  0  0  0  0  0  0  0  0  0  0
   18.3560   -1.8610   25.7460 C   0  0  0  0  0  0  0  0  0  0  0  0
   19.0560   -1.4410   24.4530 C   0  0  0  0  0  0  0  0  0  0  0  0
   20.3770   -1.3710   24.2060 C   0  0  0  0  0  0  0  0  0  0  0  0
   21.3080   -1.6990   25.1870 C   0  0  0  0  0  0  0  0  0  0  0  0
   20.8300   -2.0610   26.3240 C   0  0  0  0  0  0  0  0  0  0  0  0
   19.5370   -2.1400   26.6060 C   0  0  0  0  0  0  0  0  0  0  0  0
   13.5580   -2.4460   23.3920 C   0  0  0  0  0  0  0  0  0  0  0  0
   12.3210   -2.1430   22.7880 C   0  0  0  0  0  0  0  0  0  0  0  0
    6.3280   -1.2430   23.6760 C   0  0  0  0  0  0  0  0  0  0  0  0
    5.3360   -2.1700   23.7820 N   0  0  0  0  0  0  0  0  0  0  0  0
  1  2  1  0
  2  3  2  0
  3  4  1  0
  4  5  2  0
  5  6  1  0
  6  7  1  0
  7  8  2  0
  7  9  1  0
  9 10  1  0
 10 11  1  0
 11 12  2  0
 12 13  1  0
 13 14  1  0
 13 15  2  0
 11 16  1  0
 15 16  1  0
  9 17  1  0
 17 18  2  0
 18 19  1  0
 19 20  2  0
 20 21  1  0
 21 22  1  0
 22 23  2  0
 22 24  1  0
 24 25  2  0
 25 26  1  0
 26 27  2  0
 27 28  1  0
 24 29  1  0
 28 29  2  0
 20 30  1  0
 17 31  1  0
 30 31  2  0
  5 32  1  0
  2 33  1  0
 32 33  2  0
M  END
