RUT-UNI-630c5802-17
     RDKit          3D

 25 27  0  0  0  0  0  0  0  0999 V2000
   13.0380   -0.3710   24.0640 C   0  0  0  0  0  0  0  0  0  0  0  0
   12.6480   -1.6930   23.7170 C   0  0  0  0  0  0  0  0  0  0  0  0
   13.4010   -2.7160   24.1160 C   0  0  0  0  0  0  0  0  0  0  0  0
   11.3030   -1.9450   24.4000 C   0  0  0  0  0  0  0  0  0  0  0  0
   12.4980   -1.5950   22.1650 C   0  0  0  0  0  0  0  0  0  0  0  0
   13.5140   -0.6540   21.4750 C   0  0  0  0  0  0  0  0  0  0  0  0
   13.9270   -1.1210   20.2260 N   0  0  0  0  0  0  0  0  0  0  0  0
   14.3560   -0.4580   18.7230 C   0  0  0  0  0  0  0  0  0  0  0  0
   13.3540    0.1790   16.9390 C   0  0  0  0  0  0  0  0  0  0  0  0
   12.8840   -0.5170   15.8110 C   0  0  0  0  0  0  0  0  0  0  0  0
   11.4570   -0.3780   14.1450 C   0  0  0  0  0  0  0  0  0  0  0  0
   10.6190    1.2390   14.3460 S   0  0  0  0  0  0  0  0  0  0  0  0
   12.3490    1.6480   16.3220 C   0  0  0  0  0  0  0  0  0  0  0  0
   13.5740   -2.5080   20.6750 C   0  0  0  0  0  0  0  0  0  0  0  0
   13.8270   -3.5640   20.1370 O   0  0  0  0  0  0  0  0  0  0  0  0
   12.9900   -2.4760   21.9480 C   0  0  0  0  0  0  0  0  0  0  0  0
   11.7500   -1.8550   22.0930 N   0  0  0  0  0  0  0  0  0  0  0  0
   10.4440   -2.4450   21.9660 N   0  0  0  0  0  0  0  0  0  0  0  0
    9.5100   -1.4660   22.2040 N   0  0  0  0  0  0  0  0  0  0  0  0
   10.2880   -0.2440   22.4830 C   0  0  0  0  0  0  0  0  0  0  0  0
    9.8050    1.0020   22.7730 C   0  0  0  0  0  0  0  0  0  0  0  0
   10.6330    2.1150   23.0120 C   0  0  0  0  0  0  0  0  0  0  0  0
   12.1580    1.9010   22.9550 C   0  0  0  0  0  0  0  0  0  0  0  0
   12.7310    0.5270   22.6460 C   0  0  0  0  0  0  0  0  0  0  0  0
   11.5890   -0.4750   22.4200 C   0  0  0  0  0  0  0  0  0  0  0  0
  2  1  1  0
  2  3  1  0
  2  4  1  0
  2  5  1  0
  5  6  1  0
  6  7  1  0
  7  8  1  0
  8  9  1  0
  9 10  1  0
 10 11  2  0
 11 12  1  0
  9 13  2  0
 12 13  1  0
  7 14  1  0
 14 15  2  0
 14 16  1  0
 16 17  1  0
 17 18  1  0
 18 19  2  0
 19 20  1  0
 20 21  1  0
 21 22  2  0
 22 23  1  0
 23 24  2  0
 17 25  1  0
 20 25  2  0
 24 25  1  0
M  END
