RUT-UNI-630c5802-25
     RDKit          3D

 38 43  0  0  0  0  0  0  0  0999 V2000
   13.1670    6.8810   22.7590 N   0  0  0  0  0  0  0  0  0  0  0  0
   12.0710    6.0850   22.7850 C   0  0  0  0  0  0  0  0  0  0  0  0
   10.7740    6.5940   23.2980 C   0  0  0  0  0  0  0  0  0  0  0  0
    9.6500    5.8640   23.3430 C   0  0  0  0  0  0  0  0  0  0  0  0
    9.5790    4.4310   22.8770 C   0  0  0  0  0  0  0  0  0  0  0  0
    8.2400    3.6450   22.9450 C   0  0  0  0  0  0  0  0  0  0  0  0
    8.4960    2.0990   22.9040 C   0  0  0  0  0  0  0  0  0  0  0  0
    9.3120    1.6260   21.7670 C   0  0  0  0  0  0  0  0  0  0  0  0
    9.5460    0.1300   21.6740 C   0  0  0  0  0  0  0  0  0  0  0  0
    9.0150   -0.6890   22.5920 C   0  0  0  0  0  0  0  0  0  0  0  0
    9.1570   -1.9750   22.4210 N   0  0  0  0  0  0  0  0  0  0  0  0
    9.5760   -2.7770   23.5360 C   0  0  0  0  0  0  0  0  0  0  0  0
   11.0320   -2.4780   23.5280 C   0  0  0  0  0  0  0  0  0  0  0  0
   11.7370   -1.6590   22.6750 C   0  0  0  0  0  0  0  0  0  0  0  0
   13.0870   -1.5350   22.8760 C   0  0  0  0  0  0  0  0  0  0  0  0
   13.6220   -2.4740   24.2060 S   0  0  0  0  0  0  0  0  0  0  0  0
   11.9910   -3.0710   24.5130 C   0  0  0  0  0  0  0  0  0  0  0  0
    8.0240   -2.2280   21.6940 C   0  0  0  0  0  0  0  0  0  0  0  0
    7.7090   -1.3460   20.8710 O   0  0  0  0  0  0  0  0  0  0  0  0
    7.2060   -3.3690   21.8280 C   0  0  0  0  0  0  0  0  0  0  0  0
    6.7250   -3.6590   23.1740 N   0  0  0  0  0  0  0  0  0  0  0  0
    6.6810   -4.9670   23.5380 N   0  0  0  0  0  0  0  0  0  0  0  0
    6.2260   -5.0610   24.7740 N   0  0  0  0  0  0  0  0  0  0  0  0
    5.9850   -3.6850   25.1650 C   0  0  0  0  0  0  0  0  0  0  0  0
    5.4510   -3.3500   26.5510 C   0  0  0  0  0  0  0  0  0  0  0  0
    5.2570   -1.8320   26.7790 C   0  0  0  0  0  0  0  0  0  0  0  0
    5.5910   -0.8170   25.6510 C   0  0  0  0  0  0  0  0  0  0  0  0
    6.1290   -1.2890   24.2790 C   0  0  0  0  0  0  0  0  0  0  0  0
    6.2890   -2.7990   24.1660 C   0  0  0  0  0  0  0  0  0  0  0  0
    8.3090   -0.2230   23.6270 C   0  0  0  0  0  0  0  0  0  0  0  0
    8.0450    1.1150   23.7900 C   0  0  0  0  0  0  0  0  0  0  0  0
    7.3830    4.0360   21.9160 C   0  0  0  0  0  0  0  0  0  0  0  0
    5.9890    3.8700   21.9920 C   0  0  0  0  0  0  0  0  0  0  0  0
    5.4370    3.3920   23.1790 C   0  0  0  0  0  0  0  0  0  0  0  0
    6.1970    3.5440   24.3290 C   0  0  0  0  0  0  0  0  0  0  0  0
    7.4330    4.1700   24.1980 C   0  0  0  0  0  0  0  0  0  0  0  0
   10.8070    3.9280   22.3910 C   0  0  0  0  0  0  0  0  0  0  0  0
   12.0960    4.7700   22.3380 C   0  0  0  0  0  0  0  0  0  0  0  0
  1  2  1  0
  2  3  2  0
  3  4  1  0
  4  5  2  0
  6  5  1  0
  6  7  1  0
  7  8  2  0
  8  9  1  0
  9 10  2  0
 10 11  1  0
 11 12  1  0
 12 13  1  0
 13 14  1  0
 14 15  2  0
 15 16  1  0
 13 17  2  0
 16 17  1  0
 11 18  1  0
 18 19  2  0
 18 20  1  0
 20 21  1  0
 21 22  1  0
 22 23  2  0
 23 24  1  0
 24 25  1  0
 25 26  2  0
 26 27  1  0
 27 28  2  0
 21 29  1  0
 24 29  2  0
 28 29  1  0
 10 30  1  0
  7 31  1  0
 30 31  2  0
  6 32  1  0
 32 33  1  0
 33 34  1  0
 34 35  1  0
  6 36  1  0
 35 36  1  0
  5 37  1  0
  2 38  1  0
 37 38  2  0
M  END
