RUT-UNI-630c5802-13
     RDKit          3D

 35 39  0  0  0  0  0  0  0  0999 V2000
    8.3900    2.8530   21.1150 O   0  0  0  0  0  0  0  0  0  0  0  0
    8.1050    1.9220   21.8230 C   0  0  0  0  0  0  0  0  0  0  0  0
    8.4920    0.6180   21.5320 N   0  0  0  0  0  0  0  0  0  0  0  0
    9.7790    0.2250   22.0280 C   0  0  0  0  0  0  0  0  0  0  0  0
   10.6600    1.1290   22.7820 C   0  0  0  0  0  0  0  0  0  0  0  0
   11.8980    0.7400   23.2760 C   0  0  0  0  0  0  0  0  0  0  0  0
   12.3010   -0.5660   23.0520 C   0  0  0  0  0  0  0  0  0  0  0  0
   13.3390   -1.1940   23.4300 N   0  0  0  0  0  0  0  0  0  0  0  0
   12.9040   -1.6530   24.6040 C   0  0  0  0  0  0  0  0  0  0  0  0
   11.4420   -1.8580   24.4370 C   0  0  0  0  0  0  0  0  0  0  0  0
   10.8090   -3.2010   24.3180 C   0  0  0  0  0  0  0  0  0  0  0  0
    9.3320   -2.9200   24.1100 C   0  0  0  0  0  0  0  0  0  0  0  0
    8.3470   -3.8350   23.9480 F   0  0  0  0  0  0  0  0  0  0  0  0
    9.1940   -1.5270   24.1260 C   0  0  0  0  0  0  0  0  0  0  0  0
   10.4310   -0.8790   24.3270 O   0  0  0  0  0  0  0  0  0  0  0  0
   13.5580   -2.1660   22.5040 C   0  0  0  0  0  0  0  0  0  0  0  0
   13.3820   -2.8400   21.4920 O   0  0  0  0  0  0  0  0  0  0  0  0
   12.3960   -1.6140   21.9560 C   0  0  0  0  0  0  0  0  0  0  0  0
   11.3110   -2.2330   22.5900 N   0  0  0  0  0  0  0  0  0  0  0  0
   11.5790   -3.0160   23.6310 N   0  0  0  0  0  0  0  0  0  0  0  0
   10.4330   -3.5030   24.0930 N   0  0  0  0  0  0  0  0  0  0  0  0
    9.4210   -3.0310   23.3440 C   0  0  0  0  0  0  0  0  0  0  0  0
    8.0390   -3.2760   23.4640 C   0  0  0  0  0  0  0  0  0  0  0  0
    7.0920   -2.5940   22.4770 C   0  0  0  0  0  0  0  0  0  0  0  0
    7.6420   -1.7650   21.5100 C   0  0  0  0  0  0  0  0  0  0  0  0
    9.0270   -1.5680   21.4410 C   0  0  0  0  0  0  0  0  0  0  0  0
    9.9140   -2.1900   22.3450 C   0  0  0  0  0  0  0  0  0  0  0  0
   11.5080   -1.4390   22.3270 C   0  0  0  0  0  0  0  0  0  0  0  0
   10.2000   -1.0280   21.7950 C   0  0  0  0  0  0  0  0  0  0  0  0
    7.3770    2.0620   23.0050 C   0  0  0  0  0  0  0  0  0  0  0  0
    6.1840    1.1170   23.2250 C   0  0  0  0  0  0  0  0  0  0  0  0
    5.4220    1.2940   24.5360 C   0  0  0  0  0  0  0  0  0  0  0  0
    5.8000    2.2640   25.4660 C   0  0  0  0  0  0  0  0  0  0  0  0
    6.8940    3.1150   25.2350 C   0  0  0  0  0  0  0  0  0  0  0  0
    7.7060    3.0160   23.9780 C   0  0  0  0  0  0  0  0  0  0  0  0
  1  2  2  0
  2  3  1  0
  3  4  1  0
  4  5  2  0
  5  6  1  0
  6  7  2  0
  7  8  1  0
  8  9  1  0
  9 10  1  0
 10 11  2  0
 11 12  1  0
 12 13  1  0
 12 14  2  0
 10 15  1  0
 14 15  1  0
  8 16  1  0
 16 17  2  0
 16 18  1  0
 18 19  1  0
 19 20  1  0
 20 21  2  0
 21 22  1  0
 22 23  1  0
 23 24  2  0
 24 25  1  0
 25 26  2  0
 19 27  1  0
 22 27  2  0
 26 27  1  0
  7 28  1  0
  4 29  1  0
 28 29  2  0
  2 30  1  0
 30 31  2  0
 31 32  1  0
 32 33  2  0
 33 34  1  0
 30 35  1  0
 34 35  2  0
M  END
