RUT-UNI-630c5802-4
     RDKit          3D

 32 35  0  0  0  0  0  0  0  0999 V2000
    6.8770    0.7950   19.6190 C   0  0  0  0  0  0  0  0  0  0  0  0
    6.3110   -0.5300   20.0780 C   0  0  0  0  0  0  0  0  0  0  0  0
    5.6460   -1.3160   19.0160 C   0  0  0  0  0  0  0  0  0  0  0  0
    5.0440   -2.6570   19.3490 C   0  0  0  0  0  0  0  0  0  0  0  0
    5.0900   -3.1580   20.6120 N   0  0  0  0  0  0  0  0  0  0  0  0
    5.6930   -2.4660   21.5940 C   0  0  0  0  0  0  0  0  0  0  0  0
    6.3410   -1.1060   21.3600 C   0  0  0  0  0  0  0  0  0  0  0  0
    6.9560   -0.4790   22.4040 C   0  0  0  0  0  0  0  0  0  0  0  0
    8.3150   -0.3900   22.1640 C   0  0  0  0  0  0  0  0  0  0  0  0
    8.6750    0.4020   21.2860 O   0  0  0  0  0  0  0  0  0  0  0  0
    9.3090   -1.1230   22.8380 N   0  0  0  0  0  0  0  0  0  0  0  0
    9.4260   -2.5030   22.8430 C   0  0  0  0  0  0  0  0  0  0  0  0
    8.2410   -3.1220   23.4720 C   0  0  0  0  0  0  0  0  0  0  0  0
    7.5220   -2.5620   24.4900 C   0  0  0  0  0  0  0  0  0  0  0  0
    6.4400   -3.2210   25.0030 C   0  0  0  0  0  0  0  0  0  0  0  0
    6.2720   -4.6950   24.1550 S   0  0  0  0  0  0  0  0  0  0  0  0
    7.6440   -4.3450   23.1700 C   0  0  0  0  0  0  0  0  0  0  0  0
   10.5240   -0.3540   22.8600 C   0  0  0  0  0  0  0  0  0  0  0  0
   10.2060    0.9590   22.9630 C   0  0  0  0  0  0  0  0  0  0  0  0
   11.0950    1.9740   22.9800 C   0  0  0  0  0  0  0  0  0  0  0  0
   12.4280    1.7050   22.8920 C   0  0  0  0  0  0  0  0  0  0  0  0
   13.2030    2.7980   22.8890 N   0  0  0  0  0  0  0  0  0  0  0  0
   12.6020    3.8860   22.3320 C   0  0  0  0  0  0  0  0  0  0  0  0
   12.3270    4.0440   21.1560 O   0  0  0  0  0  0  0  0  0  0  0  0
   12.2260    5.0500   23.2320 C   0  0  0  0  0  0  0  0  0  0  0  0
   11.2310    4.7260   24.3660 C   0  0  0  0  0  0  0  0  0  0  0  0
   10.8160    5.8650   25.3120 C   0  0  0  0  0  0  0  0  0  0  0  0
   11.4130    7.2320   25.0570 C   0  0  0  0  0  0  0  0  0  0  0  0
   12.3850    7.4890   23.9160 C   0  0  0  0  0  0  0  0  0  0  0  0
   12.7650    6.3280   23.0150 C   0  0  0  0  0  0  0  0  0  0  0  0
   12.8340    0.3420   22.8000 C   0  0  0  0  0  0  0  0  0  0  0  0
   11.8710   -0.7040   22.7820 C   0  0  0  0  0  0  0  0  0  0  0  0
  1  2  1  0
  2  3  2  0
  3  4  1  0
  4  5  2  0
  5  6  1  0
  2  7  1  0
  6  7  2  0
  7  8  1  0
  8  9  1  0
  9 10  2  0
  9 11  1  0
 11 12  1  0
 12 13  1  0
 13 14  1  0
 14 15  2  0
 15 16  1  0
 13 17  2  0
 16 17  1  0
 11 18  1  0
 18 19  2  0
 19 20  1  0
 20 21  2  0
 21 22  1  0
 22 23  1  0
 23 24  2  0
 23 25  1  0
 25 26  2  0
 26 27  1  0
 27 28  2  0
 28 29  1  0
 25 30  1  0
 29 30  2  0
 21 31  1  0
 18 32  1  0
 31 32  2  0
M  END
