RUT-UNI-630c5802-24
     RDKit          3D

 29 32  0  0  0  0  0  0  0  0999 V2000
   14.1520   -2.8620   25.8650 C   0  0  0  0  0  0  0  0  0  0  0  0
   13.0990   -2.7520   24.8910 C   0  0  0  0  0  0  0  0  0  0  0  0
   12.4610   -1.6160   25.0870 C   0  0  0  0  0  0  0  0  0  0  0  0
   13.4150   -2.4680   23.4740 C   0  0  0  0  0  0  0  0  0  0  0  0
   12.2010   -1.8920   23.2050 C   0  0  0  0  0  0  0  0  0  0  0  0
   11.3180   -1.5650   24.3740 C   0  0  0  0  0  0  0  0  0  0  0  0
    9.9610   -0.9700   24.1480 C   0  0  0  0  0  0  0  0  0  0  0  0
    9.5810   -0.7280   22.7420 C   0  0  0  0  0  0  0  0  0  0  0  0
    8.2630   -0.1660   22.4600 N   0  0  0  0  0  0  0  0  0  0  0  0
    7.3040   -1.1780   22.4720 C   0  0  0  0  0  0  0  0  0  0  0  0
    6.9800   -1.6690   23.6820 C   0  0  0  0  0  0  0  0  0  0  0  0
    6.6590   -3.0220   23.8790 C   0  0  0  0  0  0  0  0  0  0  0  0
    6.3320   -3.4360   25.1520 C   0  0  0  0  0  0  0  0  0  0  0  0
    6.4000   -2.1020   26.2880 S   0  0  0  0  0  0  0  0  0  0  0  0
    6.8850   -0.9830   24.9780 C   0  0  0  0  0  0  0  0  0  0  0  0
    8.1280    0.7810   21.4380 C   0  0  0  0  0  0  0  0  0  0  0  0
    9.0200    1.5960   21.1790 O   0  0  0  0  0  0  0  0  0  0  0  0
    6.9540    0.8370   20.6980 C   0  0  0  0  0  0  0  0  0  0  0  0
    6.1660    1.9660   21.0120 N   0  0  0  0  0  0  0  0  0  0  0  0
    6.7340    3.0950   21.5950 N   0  0  0  0  0  0  0  0  0  0  0  0
    5.7300    4.0360   21.7870 N   0  0  0  0  0  0  0  0  0  0  0  0
    4.5610    3.5010   21.3340 C   0  0  0  0  0  0  0  0  0  0  0  0
    3.3000    4.0790   21.3260 C   0  0  0  0  0  0  0  0  0  0  0  0
    2.1130    3.3390   20.7900 C   0  0  0  0  0  0  0  0  0  0  0  0
    2.3090    2.0400   20.2920 C   0  0  0  0  0  0  0  0  0  0  0  0
    3.6140    1.4970   20.3180 C   0  0  0  0  0  0  0  0  0  0  0  0
    4.7150    2.2120   20.8300 C   0  0  0  0  0  0  0  0  0  0  0  0
   10.4670   -1.0460   21.7350 C   0  0  0  0  0  0  0  0  0  0  0  0
   11.7320   -1.6080   21.9510 C   0  0  0  0  0  0  0  0  0  0  0  0
  1  2  1  0
  2  3  1  0
  2  4  1  0
  4  5  1  0
  5  6  2  0
  6  7  1  0
  7  8  2  0
  8  9  1  0
  9 10  1  0
 10 11  1  0
 11 12  1  0
 12 13  2  0
 13 14  1  0
 11 15  2  0
 14 15  1  0
  9 16  1  0
 16 17  2  0
 16 18  1  0
 18 19  1  0
 19 20  1  0
 20 21  2  0
 21 22  1  0
 22 23  1  0
 23 24  2  0
 24 25  1  0
 25 26  2  0
 19 27  1  0
 22 27  2  0
 26 27  1  0
  8 28  1  0
  5 29  1  0
 28 29  2  0
M  END
