RUT-UNI-630c5802-6
     RDKit          3D

 32 35  0  0  0  0  0  0  0  0999 V2000
    5.2560    2.1740   26.2150 C   0  0  0  0  0  0  0  0  0  0  0  0
    6.0010    1.5140   25.2450 N   0  0  0  0  0  0  0  0  0  0  0  0
    6.8140    2.2590   24.3130 C   0  0  0  0  0  0  0  0  0  0  0  0
    7.4150    1.3610   23.5040 C   0  0  0  0  0  0  0  0  0  0  0  0
    7.0720    0.0450   23.8100 C   0  0  0  0  0  0  0  0  0  0  0  0
    7.5580   -1.0900   23.1280 C   0  0  0  0  0  0  0  0  0  0  0  0
    8.2940   -0.8170   21.8890 N   0  0  0  0  0  0  0  0  0  0  0  0
    7.8430    0.1690   20.9910 C   0  0  0  0  0  0  0  0  0  0  0  0
    8.3800    1.2970   20.9040 O   0  0  0  0  0  0  0  0  0  0  0  0
    6.6550   -0.1920   20.0740 C   0  0  0  0  0  0  0  0  0  0  0  0
    5.4600    0.7260   20.1950 C   0  0  0  0  0  0  0  0  0  0  0  0
    4.9750    1.2190   21.5150 C   0  0  0  0  0  0  0  0  0  0  0  0
    3.8990    2.0420   21.5460 C   0  0  0  0  0  0  0  0  0  0  0  0
    3.2500    2.4220   20.3650 C   0  0  0  0  0  0  0  0  0  0  0  0
    3.6820    1.9740   19.0890 N   0  0  0  0  0  0  0  0  0  0  0  0
    4.7990    1.1160   19.0240 C   0  0  0  0  0  0  0  0  0  0  0  0
    9.7420   -0.8320   22.0060 C   0  0  0  0  0  0  0  0  0  0  0  0
   10.2390    0.3520   22.4790 C   0  0  0  0  0  0  0  0  0  0  0  0
   11.5580    0.5420   22.6120 C   0  0  0  0  0  0  0  0  0  0  0  0
   12.5120   -0.4410   22.2800 C   0  0  0  0  0  0  0  0  0  0  0  0
   13.6580    0.1550   22.5440 N   0  0  0  0  0  0  0  0  0  0  0  0
   12.9630    0.6780   23.4860 C   0  0  0  0  0  0  0  0  0  0  0  0
   12.7560    1.7930   23.8470 O   0  0  0  0  0  0  0  0  0  0  0  0
   12.3570   -0.6320   23.8990 C   0  0  0  0  0  0  0  0  0  0  0  0
   13.2430   -1.6340   24.2660 C   0  0  0  0  0  0  0  0  0  0  0  0
   12.7790   -2.8520   24.5750 C   0  0  0  0  0  0  0  0  0  0  0  0
   11.4640   -3.1540   24.5380 C   0  0  0  0  0  0  0  0  0  0  0  0
   10.5340   -2.1890   24.2000 C   0  0  0  0  0  0  0  0  0  0  0  0
   10.9760   -0.9130   23.8820 C   0  0  0  0  0  0  0  0  0  0  0  0
   12.1160   -1.7870   21.7790 C   0  0  0  0  0  0  0  0  0  0  0  0
   10.7490   -1.9870   21.6430 C   0  0  0  0  0  0  0  0  0  0  0  0
    6.1690    0.1600   24.9190 C   0  0  0  0  0  0  0  0  0  0  0  0
  1  2  1  0
  2  3  1  0
  3  4  2  0
  4  5  1  0
  5  6  1  0
  6  7  1  0
  7  8  1  0
  8  9  2  0
  8 10  1  0
 10 11  1  0
 11 12  2  0
 12 13  1  0
 13 14  2  0
 14 15  1  0
 11 16  1  0
 15 16  2  0
  7 17  1  0
 17 18  2  0
 18 19  1  0
 19 20  2  0
 20 21  1  0
 21 22  1  0
 22 23  2  0
 22 24  1  0
 24 25  2  0
 25 26  1  0
 26 27  2  0
 27 28  1  0
 24 29  1  0
 28 29  2  0
 20 30  1  0
 17 31  1  0
 30 31  2  0
  2 32  1  0
  5 32  2  0
M  END
