RUT-UNI-630c5802-26
     RDKit          3D

 30 33  0  0  0  0  0  0  0  0999 V2000
   13.5690    0.0170   22.8220 C   0  0  0  0  0  0  0  0  0  0  0  0
   13.0670   -0.1830   24.0830 N   0  0  0  0  0  0  0  0  0  0  0  0
   13.3380   -1.4940   24.7430 C   0  0  0  0  0  0  0  0  0  0  0  0
   12.2850   -2.3970   24.6000 C   0  0  0  0  0  0  0  0  0  0  0  0
   12.3330   -3.0030   23.3230 O   0  0  0  0  0  0  0  0  0  0  0  0
   11.8050   -0.2560   23.5800 C   0  0  0  0  0  0  0  0  0  0  0  0
   10.8300    0.4770   24.0660 C   0  0  0  0  0  0  0  0  0  0  0  0
    9.5720    0.3890   23.5710 C   0  0  0  0  0  0  0  0  0  0  0  0
    9.2230   -0.4550   22.5380 C   0  0  0  0  0  0  0  0  0  0  0  0
    7.9190   -0.5590   22.0040 N   0  0  0  0  0  0  0  0  0  0  0  0
    7.3920   -1.9280   21.9580 C   0  0  0  0  0  0  0  0  0  0  0  0
    6.6360   -2.2500   23.2540 C   0  0  0  0  0  0  0  0  0  0  0  0
    5.4910   -1.4160   23.7940 C   0  0  0  0  0  0  0  0  0  0  0  0
    5.0730   -2.1130   25.0620 C   0  0  0  0  0  0  0  0  0  0  0  0
    5.9450   -3.5330   25.4970 S   0  0  0  0  0  0  0  0  0  0  0  0
    6.9830   -3.4510   24.1070 C   0  0  0  0  0  0  0  0  0  0  0  0
    7.7650    0.2210   20.8950 C   0  0  0  0  0  0  0  0  0  0  0  0
    8.3350    1.3180   20.7940 O   0  0  0  0  0  0  0  0  0  0  0  0
    6.9480   -0.3500   19.9080 C   0  0  0  0  0  0  0  0  0  0  0  0
    6.0060    0.5850   19.3240 N   0  0  0  0  0  0  0  0  0  0  0  0
    6.1070    0.8360   18.0100 N   0  0  0  0  0  0  0  0  0  0  0  0
    5.1620    1.6900   17.6770 N   0  0  0  0  0  0  0  0  0  0  0  0
    4.4610    1.9780   18.8040 C   0  0  0  0  0  0  0  0  0  0  0  0
    3.3920    2.7900   19.0370 C   0  0  0  0  0  0  0  0  0  0  0  0
    2.8820    2.8880   20.2960 C   0  0  0  0  0  0  0  0  0  0  0  0
    3.3530    2.2240   21.4110 C   0  0  0  0  0  0  0  0  0  0  0  0
    4.4840    1.3550   21.2100 C   0  0  0  0  0  0  0  0  0  0  0  0
    4.9750    1.2830   19.9050 C   0  0  0  0  0  0  0  0  0  0  0  0
   10.2290   -1.2350   21.9970 C   0  0  0  0  0  0  0  0  0  0  0  0
   11.5950   -1.1240   22.5490 C   0  0  0  0  0  0  0  0  0  0  0  0
  1  2  1  0
  2  3  1  0
  3  4  1  0
  4  5  1  0
  2  6  1  0
  6  7  2  0
  7  8  1  0
  8  9  2  0
  9 10  1  0
 10 11  1  0
 11 12  1  0
 12 13  1  0
 13 14  2  0
 14 15  1  0
 12 16  2  0
 15 16  1  0
 10 17  1  0
 17 18  2  0
 17 19  1  0
 19 20  1  0
 20 21  1  0
 21 22  2  0
 22 23  1  0
 23 24  1  0
 24 25  2  0
 25 26  1  0
 26 27  2  0
 20 28  1  0
 23 28  2  0
 27 28  1  0
  9 29  1  0
  6 30  1  0
 29 30  2  0
M  END
