RUT-UNI-630c5802-19
     RDKit          3D

 24 26  0  0  0  0  0  0  0  0999 V2000
   10.1810    4.4280   24.4930 C   0  0  0  0  0  0  0  0  0  0  0  0
    8.8190    4.0170   24.4240 O   0  0  0  0  0  0  0  0  0  0  0  0
    8.4460    3.3730   23.2760 C   0  0  2  0  0  0  0  0  0  0  0  0
    7.9800    4.0340   22.1420 C   0  0  0  0  0  0  0  0  0  0  0  0
    7.3340    2.3740   23.6680 C   0  0  0  0  0  0  0  0  0  0  0  0
    7.0140    1.5160   22.6120 N   0  0  0  0  0  0  0  0  0  0  0  0
    5.7410    1.2120   22.1360 C   0  0  0  0  0  0  0  0  0  0  0  0
    5.5630    0.6540   20.7440 C   0  0  0  0  0  0  0  0  0  0  0  0
    5.5070   -0.5990   20.3080 C   0  0  0  0  0  0  0  0  0  0  0  0
    5.3280   -0.8340   18.8480 C   0  0  0  0  0  0  0  0  0  0  0  0
    5.2170    0.7450   17.9610 S   0  0  0  0  0  0  0  0  0  0  0  0
    5.4090    1.5960   19.5270 C   0  0  0  0  0  0  0  0  0  0  0  0
    8.0760    0.9660   21.7380 C   0  0  0  0  0  0  0  0  0  0  0  0
    8.9260    1.6900   21.2030 O   0  0  0  0  0  0  0  0  0  0  0  0
    8.0660   -0.5230   21.5000 C   0  0  0  0  0  0  0  0  0  0  0  0
    9.0000   -1.2800   22.3570 N   0  0  0  0  0  0  0  0  0  0  0  0
    8.8190   -2.5320   22.8320 N   0  0  0  0  0  0  0  0  0  0  0  0
    9.9400   -2.8370   23.5610 N   0  0  0  0  0  0  0  0  0  0  0  0
   10.7900   -1.7810   23.5240 C   0  0  0  0  0  0  0  0  0  0  0  0
   12.0280   -1.6130   24.0880 C   0  0  0  0  0  0  0  0  0  0  0  0
   12.7460   -0.4350   23.9230 C   0  0  0  0  0  0  0  0  0  0  0  0
   12.2360    0.6270   23.1920 C   0  0  0  0  0  0  0  0  0  0  0  0
   10.9840    0.5740   22.5860 C   0  0  0  0  0  0  0  0  0  0  0  0
   10.2870   -0.7570   22.8050 C   0  0  0  0  0  0  0  0  0  0  0  0
  1  2  1  0
  2  3  1  0
  3  4  1  6
  3  5  1  0
  5  6  1  0
  6  7  1  0
  7  8  1  0
  8  9  1  0
  9 10  2  0
 10 11  1  0
  8 12  2  0
 11 12  1  0
  6 13  1  0
 13 14  2  0
 13 15  1  0
 15 16  1  0
 16 17  1  0
 17 18  2  0
 18 19  1  0
 19 20  1  0
 20 21  2  0
 21 22  1  0
 22 23  2  0
 16 24  1  0
 19 24  2  0
 23 24  1  0
M  END
