RUT-UNI-630c5802-3
     RDKit          3D

 32 35  0  0  0  0  0  0  0  0999 V2000
    1.7220    2.0250   20.3830 N   0  0  0  0  0  0  0  0  0  0  0  0
    3.0840    1.9350   20.4770 C   0  0  0  0  0  0  0  0  0  0  0  0
    3.7870    2.0600   21.7810 C   0  0  0  0  0  0  0  0  0  0  0  0
    5.1830    1.9570   21.7930 C   0  0  0  0  0  0  0  0  0  0  0  0
    5.8620    1.7460   20.5920 C   0  0  0  0  0  0  0  0  0  0  0  0
    7.2340    1.6340   20.4610 C   0  0  0  0  0  0  0  0  0  0  0  0
    8.0250    0.7560   21.2010 C   0  0  0  0  0  0  0  0  0  0  0  0
    8.0510   -0.5440   20.6330 O   0  0  0  0  0  0  0  0  0  0  0  0
    8.7380    1.1730   22.3520 N   0  0  0  0  0  0  0  0  0  0  0  0
    8.1080    1.7150   23.4950 C   0  0  0  0  0  0  0  0  0  0  0  0
    7.4360    0.8540   24.3060 C   0  0  0  0  0  0  0  0  0  0  0  0
    7.8490    0.5940   25.6540 C   0  0  0  0  0  0  0  0  0  0  0  0
    7.1040   -0.2660   26.3190 C   0  0  0  0  0  0  0  0  0  0  0  0
    5.8020   -0.8650   25.3910 S   0  0  0  0  0  0  0  0  0  0  0  0
    6.2950    0.0950   24.0360 C   0  0  0  0  0  0  0  0  0  0  0  0
    9.9520    0.5170   22.6170 C   0  0  0  0  0  0  0  0  0  0  0  0
   10.9410    1.1180   23.5980 C   0  0  0  0  0  0  0  0  0  0  0  0
   12.1250    0.4960   23.8970 C   0  0  0  0  0  0  0  0  0  0  0  0
   12.4780   -0.8230   23.2470 C   0  0  0  0  0  0  0  0  0  0  0  0
   13.5650   -1.5340   23.5080 N   0  0  0  0  0  0  0  0  0  0  0  0
   13.0780   -2.3100   24.4800 C   0  0  0  0  0  0  0  0  0  0  0  0
   13.6060   -3.1200   25.2250 O   0  0  0  0  0  0  0  0  0  0  0  0
   11.7210   -2.0170   24.5240 C   0  0  0  0  0  0  0  0  0  0  0  0
   10.8210   -2.8410   23.8660 C   0  0  0  0  0  0  0  0  0  0  0  0
    9.4470   -2.6060   23.8380 C   0  0  0  0  0  0  0  0  0  0  0  0
    8.9410   -1.4920   24.4980 C   0  0  0  0  0  0  0  0  0  0  0  0
    9.9370   -0.5900   25.2200 C   0  0  0  0  0  0  0  0  0  0  0  0
   11.2860   -0.8870   25.2050 C   0  0  0  0  0  0  0  0  0  0  0  0
   11.6210   -1.4010   22.3280 C   0  0  0  0  0  0  0  0  0  0  0  0
   10.4050   -0.8100   21.9920 C   0  0  0  0  0  0  0  0  0  0  0  0
    5.0990    1.6440   19.4130 C   0  0  0  0  0  0  0  0  0  0  0  0
    3.7540    1.7310   19.3150 N   0  0  0  0  0  0  0  0  0  0  0  0
  1  2  1  0
  2  3  2  0
  3  4  1  0
  4  5  2  0
  5  6  1  0
  6  7  1  0
  7  8  2  0
  7  9  1  0
  9 10  1  0
 10 11  1  0
 11 12  1  0
 12 13  2  0
 13 14  1  0
 11 15  2  0
 14 15  1  0
  9 16  1  0
 16 17  2  0
 17 18  1  0
 18 19  2  0
 19 20  1  0
 20 21  1  0
 21 22  2  0
 21 23  1  0
 23 24  2  0
 24 25  1  0
 25 26  2  0
 26 27  1  0
 23 28  1  0
 27 28  2  0
 19 29  1  0
 16 30  1  0
 29 30  2  0
  5 31  1  0
  2 32  1  0
 31 32  2  0
M  END
