RUT-UNI-630c5802-18
     RDKit          3D

 25 27  0  0  0  0  0  0  0  0999 V2000
    9.2900    4.2820   23.6190 C   0  0  0  0  0  0  0  0  0  0  0  0
    8.0310    4.9640   23.1990 C   0  0  2  0  0  0  0  0  0  0  0  0
    7.2790    4.4840   22.1930 C   0  0  0  0  0  0  0  0  0  0  0  0
    7.1550    3.0070   22.1580 N   0  0  0  0  0  0  0  0  0  0  0  0
    5.7820    2.6320   21.7420 C   0  0  0  0  0  0  0  0  0  0  0  0
    4.7900    2.8090   22.8960 C   0  0  0  0  0  0  0  0  0  0  0  0
    4.2690    4.1580   23.3150 C   0  0  0  0  0  0  0  0  0  0  0  0
    3.2880    4.1200   24.4820 C   0  0  0  0  0  0  0  0  0  0  0  0
    3.1370    2.4520   24.9080 S   0  0  0  0  0  0  0  0  0  0  0  0
    4.2350    1.8240   23.6990 C   0  0  0  0  0  0  0  0  0  0  0  0
    8.1880    2.1340   21.7250 C   0  0  0  0  0  0  0  0  0  0  0  0
    9.2310    2.5650   21.2590 O   0  0  0  0  0  0  0  0  0  0  0  0
    8.0120    0.6000   21.8070 C   0  0  0  0  0  0  0  0  0  0  0  0
    8.8630   -0.2100   22.4640 N   0  0  0  0  0  0  0  0  0  0  0  0
    8.3570   -1.4450   22.9180 N   0  0  0  0  0  0  0  0  0  0  0  0
    9.3780   -2.0640   23.5370 N   0  0  0  0  0  0  0  0  0  0  0  0
   10.4670   -1.2350   23.4610 C   0  0  0  0  0  0  0  0  0  0  0  0
   11.7040   -1.5130   23.9840 C   0  0  0  0  0  0  0  0  0  0  0  0
   12.7410   -0.6180   23.8510 C   0  0  0  0  0  0  0  0  0  0  0  0
   12.6120    0.5890   23.2070 C   0  0  0  0  0  0  0  0  0  0  0  0
   11.3490    0.8560   22.6980 C   0  0  0  0  0  0  0  0  0  0  0  0
   10.2770   -0.0450   22.8120 C   0  0  0  0  0  0  0  0  0  0  0  0
    8.1060    6.3310   22.9480 N   0  0  0  0  0  0  0  0  0  0  0  0
    7.5030    6.7900   21.6730 C   0  0  0  0  0  0  0  0  0  0  0  0
    9.4680    6.8780   22.9860 C   0  0  0  0  0  0  0  0  0  0  0  0
  2  1  1  6
  2  3  1  0
  3  4  1  0
  4  5  1  0
  5  6  1  0
  6  7  1  0
  7  8  2  0
  8  9  1  0
  6 10  2  0
  9 10  1  0
  4 11  1  0
 11 12  2  0
 11 13  1  0
 13 14  1  0
 14 15  1  0
 15 16  2  0
 16 17  1  0
 17 18  1  0
 18 19  2  0
 19 20  1  0
 20 21  2  0
 14 22  1  0
 17 22  2  0
 21 22  1  0
  2 23  1  0
 23 24  1  0
 23 25  1  0
M  END
