RUT-UNI-630c5802-10
     RDKit          3D

 32 35  0  0  0  0  0  0  0  0999 V2000
    9.2020    1.4450   21.7920 O   0  0  0  0  0  0  0  0  0  0  0  0
    8.9160    0.2960   21.5190 C   0  0  0  0  0  0  0  0  0  0  0  0
    9.7240   -0.8170   21.6750 N   0  0  0  0  0  0  0  0  0  0  0  0
   10.7530   -0.9510   22.6300 C   0  0  0  0  0  0  0  0  0  0  0  0
   10.4810   -0.3010   23.8710 C   0  0  0  0  0  0  0  0  0  0  0  0
   11.3830   -0.3560   24.9080 C   0  0  0  0  0  0  0  0  0  0  0  0
   12.6120   -1.0080   24.9130 C   0  0  0  0  0  0  0  0  0  0  0  0
   13.4060   -0.9630   26.0980 N   0  0  0  0  0  0  0  0  0  0  0  0
   12.6450    0.1830   26.8800 C   0  0  0  0  0  0  0  0  0  0  0  0
   12.6740    1.4830   28.5610 C   0  0  0  0  0  0  0  0  0  0  0  0
   11.5230    1.7340   30.0450 C   0  0  0  0  0  0  0  0  0  0  0  0
   11.2760    2.9450   31.0470 S   0  0  0  0  0  0  0  0  0  0  0  0
   12.4320    3.5130   30.0980 C   0  0  0  0  0  0  0  0  0  0  0  0
   12.4780    4.8840   30.4420 F   0  0  0  0  0  0  0  0  0  0  0  0
   13.4030    2.7930   28.9460 C   0  0  0  0  0  0  0  0  0  0  0  0
   14.7350   -1.9310   26.0010 C   0  0  0  0  0  0  0  0  0  0  0  0
   14.5500   -3.1190   25.8000 O   0  0  0  0  0  0  0  0  0  0  0  0
   16.3210   -1.7220   26.1880 C   0  0  0  0  0  0  0  0  0  0  0  0
   18.1180   -1.4890   25.5960 C   0  0  0  0  0  0  0  0  0  0  0  0
   19.4130   -2.0320   26.4100 C   0  0  0  0  0  0  0  0  0  0  0  0
   20.8570   -1.8510   25.9970 C   0  0  0  0  0  0  0  0  0  0  0  0
   21.0730   -1.1080   24.7510 C   0  0  0  0  0  0  0  0  0  0  0  0
   20.0760   -0.6410   24.0670 N   0  0  0  0  0  0  0  0  0  0  0  0
   18.7780   -0.8170   24.4590 C   0  0  0  0  0  0  0  0  0  0  0  0
   12.9570   -1.6680   23.7170 C   0  0  0  0  0  0  0  0  0  0  0  0
   11.9770   -1.6350   22.5100 C   0  0  0  0  0  0  0  0  0  0  0  0
    7.5760    0.0630   20.9190 C   0  0  0  0  0  0  0  0  0  0  0  0
    6.9120   -1.2970   20.8980 C   0  0  0  0  0  0  0  0  0  0  0  0
    5.5300   -1.3750   20.2280 C   0  0  0  0  0  0  0  0  0  0  0  0
    4.9810   -0.2140   19.6950 C   0  0  0  0  0  0  0  0  0  0  0  0
    5.6330    1.0180   19.7440 C   0  0  0  0  0  0  0  0  0  0  0  0
    6.9050    1.1540   20.3460 C   0  0  0  0  0  0  0  0  0  0  0  0
  1  2  2  0
  2  3  1  0
  3  4  1  0
  4  5  2  0
  5  6  1  0
  6  7  2  0
  7  8  1  0
  8  9  1  0
  9 10  1  0
 10 11  2  0
 11 12  1  0
 12 13  1  0
 13 14  1  0
 10 15  1  0
 13 15  2  0
  8 16  1  0
 16 17  2  0
 16 18  1  0
 18 19  1  0
 19 20  2  0
 20 21  1  0
 21 22  2  0
 22 23  1  0
 19 24  1  0
 23 24  2  0
  7 25  1  0
  4 26  1  0
 25 26  2  0
  2 27  1  0
 27 28  2  0
 28 29  1  0
 29 30  2  0
 30 31  1  0
 27 32  1  0
 31 32  2  0
M  END
