RUT-UNI-630c5802-9
     RDKit          3D

 35 39  0  0  0  0  0  0  0  0999 V2000
    8.6850    1.9630   20.9870 O   0  0  0  0  0  0  0  0  0  0  0  0
    7.9110    0.8150   20.7140 C   0  0  0  0  0  0  0  0  0  0  0  0
    8.3930   -0.4500   20.8370 N   0  0  0  0  0  0  0  0  0  0  0  0
    9.1910   -0.6630   21.9740 C   0  0  0  0  0  0  0  0  0  0  0  0
    9.2260    0.4390   22.8050 C   0  0  0  0  0  0  0  0  0  0  0  0
    9.9130    0.2970   23.9230 C   0  0  0  0  0  0  0  0  0  0  0  0
   10.5410   -0.8380   24.2640 C   0  0  0  0  0  0  0  0  0  0  0  0
   11.0670   -0.7790   25.3870 N   0  0  0  0  0  0  0  0  0  0  0  0
   12.2950   -0.2770   25.1550 C   0  0  0  0  0  0  0  0  0  0  0  0
   12.7290   -0.9930   24.0220 C   0  0  0  0  0  0  0  0  0  0  0  0
   12.8740   -2.3010   24.0980 C   0  0  0  0  0  0  0  0  0  0  0  0
   13.3610   -2.8970   22.6270 S   0  0  0  0  0  0  0  0  0  0  0  0
   13.3760   -1.3890   21.9310 C   0  0  0  0  0  0  0  0  0  0  0  0
   13.7250   -1.2080   20.6560 F   0  0  0  0  0  0  0  0  0  0  0  0
   13.0150   -0.4370   22.7850 C   0  0  0  0  0  0  0  0  0  0  0  0
   10.0600   -0.2540   26.2920 C   0  0  0  0  0  0  0  0  0  0  0  0
   10.2130   -0.0180   27.4800 O   0  0  0  0  0  0  0  0  0  0  0  0
    8.7750   -0.0230   25.7580 C   0  0  0  0  0  0  0  0  0  0  0  0
    7.5250   -0.2760   26.5430 N   0  0  0  0  0  0  0  0  0  0  0  0
    6.2910   -0.4750   26.0270 N   0  0  0  0  0  0  0  0  0  0  0  0
    5.4210   -0.6610   27.0340 N   0  0  0  0  0  0  0  0  0  0  0  0
    6.0750   -0.5870   28.2440 C   0  0  0  0  0  0  0  0  0  0  0  0
    5.6410   -0.7020   29.5590 C   0  0  0  0  0  0  0  0  0  0  0  0
    6.5950   -0.5730   30.7290 C   0  0  0  0  0  0  0  0  0  0  0  0
    8.0490   -0.3180   30.3660 C   0  0  0  0  0  0  0  0  0  0  0  0
    8.4680   -0.2060   29.0510 C   0  0  0  0  0  0  0  0  0  0  0  0
    7.5620   -0.3240   27.9950 C   0  0  0  0  0  0  0  0  0  0  0  0
   10.5570   -1.9490   23.4320 C   0  0  0  0  0  0  0  0  0  0  0  0
    9.8570   -1.8540   22.2390 C   0  0  0  0  0  0  0  0  0  0  0  0
    6.5290    1.0110   20.2280 C   0  0  0  0  0  0  0  0  0  0  0  0
    5.5120    1.4200   21.0750 C   0  0  0  0  0  0  0  0  0  0  0  0
    4.2140    1.6100   20.5930 C   0  0  0  0  0  0  0  0  0  0  0  0
    3.9030    1.3950   19.2470 C   0  0  0  0  0  0  0  0  0  0  0  0
    4.8940    0.9770   18.3490 C   0  0  0  0  0  0  0  0  0  0  0  0
    6.2750    0.7770   18.8790 C   0  0  0  0  0  0  0  0  0  0  0  0
  1  2  2  0
  2  3  1  0
  3  4  1  0
  4  5  2  0
  5  6  1  0
  6  7  2  0
  7  8  1  0
  8  9  1  0
  9 10  1  0
 10 11  2  0
 11 12  1  0
 12 13  1  0
 13 14  1  0
 10 15  1  0
 13 15  2  0
  8 16  1  0
 16 17  2  0
 16 18  1  0
 18 19  1  0
 19 20  1  0
 20 21  2  0
 21 22  1  0
 22 23  1  0
 23 24  2  0
 24 25  1  0
 25 26  2  0
 19 27  1  0
 22 27  2  0
 26 27  1  0
  7 28  1  0
  4 29  1  0
 28 29  2  0
  2 30  1  0
 30 31  2  0
 31 32  1  0
 32 33  2  0
 33 34  1  0
 30 35  1  0
 34 35  2  0
M  END
