SAL-INS-cba98abe-6
     RDKit          3D

 24 27  0  0  0  0  0  0  0  0999 V2000
    9.0890    0.2340   21.4750 O   0  0  0  0  0  0  0  0  0  0  0  0
    7.9060    0.1410   21.8000 C   0  0  0  0  0  0  0  0  0  0  0  0
    7.4010    0.7110   22.8920 C   0  0  0  0  0  0  0  0  0  0  0  0
    7.4940    2.1760   23.0070 C   0  0  0  0  0  0  0  0  0  0  0  0
    6.5710    2.9610   23.6880 C   0  0  0  0  0  0  0  0  0  0  0  0
    6.9390    4.2690   23.6440 C   0  0  0  0  0  0  0  0  0  0  0  0
    6.2480    5.3280   24.2280 N   0  0  0  0  0  0  0  0  0  0  0  0
    7.0470    6.4020   23.9070 C   0  0  0  0  0  0  0  0  0  0  0  0
    8.2380    6.1010   23.1350 C   0  0  0  0  0  0  0  0  0  0  0  0
    9.2920    7.0780   22.6650 C   0  0  0  0  0  0  0  0  0  0  0  0
   10.6550    6.5510   23.1750 C   0  0  0  0  0  0  0  0  0  0  0  0
   11.0480    6.7270   24.5200 C   0  0  0  0  0  0  0  0  0  0  0  0
   10.8060    5.9160   25.5530 N   0  0  0  0  0  0  0  0  0  0  0  0
   11.3970    6.5100   26.6680 C   0  0  0  0  0  0  0  0  0  0  0  0
   12.0100    7.7010   26.3340 C   0  0  0  0  0  0  0  0  0  0  0  0
   11.7990    7.8390   25.0160 N   0  0  0  0  0  0  0  0  0  0  0  0
    8.1160    4.5660   22.9570 C   0  0  0  0  0  0  0  0  0  0  0  0
    8.7980    3.1030   22.2960 S   0  0  0  0  0  0  0  0  0  0  0  0
    6.9790   -0.5460   21.0390 N   0  0  0  0  0  0  0  0  0  0  0  0
    6.3730    0.0580   19.8600 C   0  0  0  0  0  0  0  0  0  0  0  0
    7.0170   -0.2740   18.5530 C   0  0  0  0  0  0  0  0  0  0  0  0
    6.2390    0.4360   17.6600 N   0  0  0  0  0  0  0  0  0  0  0  0
    5.2660    1.0980   18.3690 C   0  0  0  0  0  0  0  0  0  0  0  0
    5.3130    0.8960   19.6860 N   0  0  0  0  0  0  0  0  0  0  0  0
  1  2  2  0
  2  3  1  0
  3  4  1  0
  4  5  2  0
  5  6  1  0
  6  7  1  0
  7  8  1  0
  8  9  2  0
  9 10  1  0
 10 11  1  0
 11 12  1  0
 12 13  2  0
 13 14  1  0
 14 15  2  0
 12 16  1  0
 15 16  1  0
  6 17  2  0
  9 17  1  0
  4 18  1  0
 17 18  1  0
  2 19  1  0
 19 20  1  0
 20 21  2  0
 21 22  1  0
 22 23  1  0
 20 24  1  0
 23 24  2  0
M  END
