SAL-INS-3161d1be-1
     RDKit          3D

 33 37  0  0  0  0  0  0  0  0999 V2000
    9.3690   -3.8530   23.8830 O   0  0  0  0  0  0  0  0  0  0  0  0
    9.3600   -3.1330   22.8840 C   0  0  0  0  0  0  0  0  0  0  0  0
    8.2680   -3.0460   22.0540 N   0  0  0  0  0  0  0  0  0  0  0  0
    7.1950   -4.0510   22.2170 C   0  0  0  0  0  0  0  0  0  0  0  0
    5.9740   -3.4600   22.5320 C   0  0  0  0  0  0  0  0  0  0  0  0
    4.8890   -4.2950   22.7030 C   0  0  0  0  0  0  0  0  0  0  0  0
    4.9450   -5.5960   22.5870 N   0  0  0  0  0  0  0  0  0  0  0  0
    6.2650   -6.1810   22.2520 C   0  0  0  0  0  0  0  0  0  0  0  0
    7.3740   -5.3700   22.0720 N   0  0  0  0  0  0  0  0  0  0  0  0
   10.4270   -2.3050   22.5280 N   0  0  0  0  0  0  0  0  0  0  0  0
   10.4370   -0.9840   22.7900 C   0  0  0  0  0  0  0  0  0  0  0  0
   11.5290    0.2760   22.9520 S   0  0  0  0  0  0  0  0  0  0  0  0
   10.4720    1.7450   23.1850 C   0  0  0  0  0  0  0  0  0  0  0  0
   11.8770    1.9940   23.2540 C   0  0  0  0  0  0  0  0  0  0  0  0
   12.0640    2.8830   22.7000 C   0  0  0  0  0  0  0  0  0  0  0  0
   13.0200    4.0180   22.3010 C   0  0  0  0  0  0  0  0  0  0  0  0
   13.0440    5.2410   23.2140 C   0  0  0  0  0  0  0  0  0  0  0  0
   11.7120    5.9590   23.3660 C   0  0  0  0  0  0  0  0  0  0  0  0
   10.8560    6.2180   22.4000 N   0  0  0  0  0  0  0  0  0  0  0  0
    9.8170    6.8770   22.9830 C   0  0  0  0  0  0  0  0  0  0  0  0
   10.0400    7.0250   24.3380 C   0  0  0  0  0  0  0  0  0  0  0  0
   11.2450    6.4400   24.5810 N   0  0  0  0  0  0  0  0  0  0  0  0
   11.1500    1.5390   22.4180 N   0  0  0  0  0  0  0  0  0  0  0  0
    9.9050    0.8670   23.2240 C   0  0  0  0  0  0  0  0  0  0  0  0
    9.3840   -0.4100   23.1720 C   0  0  0  0  0  0  0  0  0  0  0  0
    8.0810   -0.7760   23.5260 C   0  0  0  0  0  0  0  0  0  0  0  0
    7.1950    0.1200   24.1420 C   0  0  1  0  0  0  0  0  0  0  0  0
    6.6080    0.9290   23.1470 C   0  0  0  0  0  0  0  0  0  0  0  0
    5.9190    1.9060   23.8170 C   0  0  0  0  0  0  0  0  0  0  0  0
    4.7020    1.3780   24.5870 C   0  0  2  0  0  0  0  0  0  0  0  0
    4.4820    2.2390   25.7000 O   0  0  0  0  0  0  0  0  0  0  0  0
    4.9170   -0.0480   25.1070 C   0  0  0  0  0  0  0  0  0  0  0  0
    6.3440   -0.5610   25.0040 C   0  0  0  0  0  0  0  0  0  0  0  0
  1  2  2  0
  2  3  1  0
  3  4  1  0
  4  5  2  0
  5  6  1  0
  6  7  2  0
  7  8  1  0
  4  9  1  0
  8  9  2  0
  2 10  1  0
 10 11  1  0
 11 12  1  0
 12 13  1  0
 13 14  1  0
 14 15  2  0
 15 16  1  0
 16 17  1  0
 17 18  1  0
 18 19  2  0
 19 20  1  0
 20 21  2  0
 18 22  1  0
 21 22  1  0
 15 23  1  0
 13 24  2  0
 23 24  1  0
 11 25  2  0
 24 25  1  0
 25 26  1  0
 27 26  1  6
 27 28  1  0
 28 29  1  0
 29 30  1  0
 30 31  1  1
 30 32  1  0
 27 33  1  0
 32 33  1  0
M  END
