SAL-INS-68b48d12-12
     RDKit          3D

 38 38  0  0  0  0  0  0  0  0999 V2000
   13.3190    4.1440   22.7820 C   0  0  0  0  0  0  0  0  0  0  0  0
   12.3700    4.9480   22.2110 C   0  0  0  0  0  0  0  0  0  0  0  0
   12.5880    6.1140   21.8920 O   0  0  0  0  0  0  0  0  0  0  0  0
   11.0880    4.2380   22.0310 N   0  0  0  0  0  0  0  0  0  0  0  0
   10.3090    4.0730   23.2540 C   0  0  1  0  0  0  0  0  0  0  0  0
    9.3040    5.1810   23.4010 C   0  0  0  0  0  0  0  0  0  0  0  0
    9.4430    6.0310   24.2860 O   0  0  0  0  0  0  0  0  0  0  0  0
   10.0690    2.6630   23.3670 C   0  0  0  0  0  0  0  0  0  0  0  0
   10.6460    2.0320   24.2450 O   0  0  0  0  0  0  0  0  0  0  0  0
    9.2040    2.0740   22.5180 N   0  0  0  0  0  0  0  0  0  0  0  0
    8.7040    0.8630   22.8990 C   0  0  1  0  0  0  0  0  0  0  0  0
    9.5040    0.0070   23.6640 C   0  0  0  0  0  0  0  0  0  0  0  0
   10.6930   -0.4020   23.0890 C   0  0  0  0  0  0  0  0  0  0  0  0
   11.8390    0.4150   23.2590 C   0  0  0  0  0  0  0  0  0  0  0  0
   13.2470    0.0900   22.6500 C   0  0  0  0  0  0  0  0  0  0  0  0
   13.3080   -1.0850   21.9120 C   0  0  0  0  0  0  0  0  0  0  0  0
   12.1170   -1.6940   21.8940 C   0  0  0  0  0  0  0  0  0  0  0  0
   10.8530   -1.5740   22.3360 C   0  0  0  0  0  0  0  0  0  0  0  0
    7.3060    0.9340   23.5620 C   0  0  0  0  0  0  0  0  0  0  0  0
    6.7590   -0.3740   23.7910 O   0  0  0  0  0  0  0  0  0  0  0  0
    6.6330    2.1740   23.8920 N   0  0  0  0  0  0  0  0  0  0  0  0
    5.2770    2.3720   23.9960 C   0  0  1  0  0  0  0  0  0  0  0  0
    4.6140    1.6020   24.9710 C   0  0  0  0  0  0  0  0  0  0  0  0
    4.3300    2.3950   26.1250 O   0  0  0  0  0  0  0  0  0  0  0  0
    4.9300    3.1940   25.2300 C   0  0  0  0  0  0  0  0  0  0  0  0
    5.7320    3.3190   26.1640 O   0  0  0  0  0  0  0  0  0  0  0  0
    3.6960    3.7920   25.2350 N   0  0  0  0  0  0  0  0  0  0  0  0
    3.1480    4.5290   24.0910 C   0  0  1  0  0  0  0  0  0  0  0  0
    1.7970    4.2340   23.8430 C   0  0  0  0  0  0  0  0  0  0  0  0
    1.3510    4.0550   22.5300 C   0  0  0  0  0  0  0  0  0  0  0  0
   -0.0160    3.6940   22.4600 C   0  0  0  0  0  0  0  0  0  0  0  0
   -0.3550    3.1560   21.2290 N   0  0  0  0  0  0  0  0  0  0  0  0
    0.1000    1.9550   20.6420 C   0  0  0  0  0  0  0  0  0  0  0  0
    1.3580    2.0920   20.1590 N   0  0  0  0  0  0  0  0  0  0  0  0
   -0.5210    0.8960   20.5550 O   0  0  0  0  0  0  0  0  0  0  0  0
    3.2570    6.0690   24.3270 C   0  0  0  0  0  0  0  0  0  0  0  0
    2.6340    6.5620   25.4360 N   0  0  0  0  0  0  0  0  0  0  0  0
    3.8650    6.8250   23.5690 O   0  0  0  0  0  0  0  0  0  0  0  0
  1  2  1  0
  2  3  2  0
  2  4  1  0
  4  5  1  0
  5  6  1  6
  6  7  1  0
  5  8  1  0
  8  9  2  0
  8 10  1  0
 10 11  1  0
 11 12  1  1
 12 13  1  0
 13 14  2  0
 14 15  1  0
 15 16  2  0
 16 17  1  0
 13 18  1  0
 17 18  2  0
 11 19  1  0
 19 20  2  0
 19 21  1  0
 21 22  1  0
 22 23  1  1
 23 24  1  0
 22 25  1  0
 25 26  2  0
 25 27  1  0
 27 28  1  0
 28 29  1  1
 29 30  1  0
 30 31  1  0
 31 32  1  0
 32 33  1  0
 33 34  1  0
 33 35  2  0
 28 36  1  0
 36 37  1  0
 36 38  2  0
M  END
