SAL-INS-3161d1be-4
     RDKit          3D

 23 26  0  0  0  0  0  0  0  0999 V2000
    5.3720   -3.2200   21.5610 O   0  0  0  0  0  0  0  0  0  0  0  0
    6.2420   -2.8090   22.3210 C   0  0  2  0  0  0  0  0  0  0  0  0
    7.0640   -1.6100   21.8290 C   0  0  0  0  0  0  0  0  0  0  0  0
    8.0850   -1.2180   22.7020 C   0  0  0  0  0  0  0  0  0  0  0  0
    8.9070   -2.2340   23.2020 C   0  0  1  0  0  0  0  0  0  0  0  0
    9.9210   -1.7830   24.0560 C   0  0  0  0  0  0  0  0  0  0  0  0
   10.8960   -0.9050   23.6090 C   0  0  0  0  0  0  0  0  0  0  0  0
   12.1100   -1.3190   23.0450 C   0  0  0  0  0  0  0  0  0  0  0  0
   13.1860   -0.0660   22.5380 S   0  0  0  0  0  0  0  0  0  0  0  0
   12.0720    1.1650   23.0370 C   0  0  0  0  0  0  0  0  0  0  0  0
   11.8130    2.5580   23.1210 C   0  0  0  0  0  0  0  0  0  0  0  0
   12.7170    3.5230   22.6150 C   0  0  0  0  0  0  0  0  0  0  0  0
   13.0110    4.7720   23.1680 C   0  0  0  0  0  0  0  0  0  0  0  0
   11.7760    5.4910   23.6860 C   0  0  0  0  0  0  0  0  0  0  0  0
   10.4390    5.3840   23.5910 N   0  0  0  0  0  0  0  0  0  0  0  0
    9.9930    6.4790   24.3890 C   0  0  0  0  0  0  0  0  0  0  0  0
   11.0260    7.2220   24.9500 C   0  0  0  0  0  0  0  0  0  0  0  0
   12.0590    6.6130   24.5140 N   0  0  0  0  0  0  0  0  0  0  0  0
   10.5700    2.8700   23.7320 C   0  0  0  0  0  0  0  0  0  0  0  0
   10.0140    1.6380   24.0280 N   0  0  0  0  0  0  0  0  0  0  0  0
   10.8380    0.5050   23.6360 C   0  0  0  0  0  0  0  0  0  0  0  0
    8.1080   -3.3960   23.7510 C   0  0  0  0  0  0  0  0  0  0  0  0
    6.9960   -3.8710   22.8210 C   0  0  0  0  0  0  0  0  0  0  0  0
  2  1  1  6
  2  3  1  0
  3  4  1  0
  4  5  1  0
  5  6  1  1
  6  7  1  0
  7  8  2  0
  8  9  1  0
  9 10  1  0
 10 11  1  0
 11 12  1  0
 12 13  1  0
 13 14  1  0
 14 15  2  0
 15 16  1  0
 16 17  2  0
 14 18  1  0
 17 18  1  0
 11 19  2  0
 19 20  1  0
  7 21  1  0
 10 21  2  0
 20 21  1  0
  5 22  1  0
  2 23  1  0
 22 23  1  0
M  END
