SAL-INS-3161d1be-2
     RDKit          3D

 25 28  0  0  0  0  0  0  0  0999 V2000
    8.4130   -1.3140   21.2980 O   0  0  0  0  0  0  0  0  0  0  0  0
    9.5450   -1.5950   21.6710 C   0  0  0  0  0  0  0  0  0  0  0  0
   10.1810   -2.6730   21.9800 N   0  0  0  0  0  0  0  0  0  0  0  0
   11.3750   -2.2490   22.5810 C   0  0  0  0  0  0  0  0  0  0  0  0
   11.4330   -1.0210   23.0770 C   0  0  0  0  0  0  0  0  0  0  0  0
   12.6150   -0.4670   23.7630 C   0  0  0  0  0  0  0  0  0  0  0  0
   13.7340   -1.3340   23.8890 N   0  0  0  0  0  0  0  0  0  0  0  0
   13.6230   -2.6480   23.3200 C   0  0  0  0  0  0  0  0  0  0  0  0
   12.4030   -3.0290   22.6720 N   0  0  0  0  0  0  0  0  0  0  0  0
   10.6480   -0.8450   21.9380 N   0  0  0  0  0  0  0  0  0  0  0  0
   10.6120    0.3540   22.4550 C   0  0  0  0  0  0  0  0  0  0  0  0
    9.4650    1.1140   22.9960 C   0  0  0  0  0  0  0  0  0  0  0  0
   10.0650    2.4160   23.3060 C   0  0  0  0  0  0  0  0  0  0  0  0
    9.4160    3.5680   23.8410 N   0  0  0  0  0  0  0  0  0  0  0  0
   10.4230    4.4750   23.8620 C   0  0  0  0  0  0  0  0  0  0  0  0
   11.6250    3.9370   23.3760 C   0  0  0  0  0  0  0  0  0  0  0  0
   12.7880    4.6830   23.2370 C   0  0  0  0  0  0  0  0  0  0  0  0
   12.6040    6.0520   23.2370 C   0  0  0  0  0  0  0  0  0  0  0  0
   11.8900    6.5500   24.3350 C   0  0  0  0  0  0  0  0  0  0  0  0
   12.0470    6.2090   25.6100 N   0  0  0  0  0  0  0  0  0  0  0  0
   11.1470    6.9500   26.3130 C   0  0  0  0  0  0  0  0  0  0  0  0
   10.4180    7.7530   25.4640 C   0  0  0  0  0  0  0  0  0  0  0  0
   10.8890    7.4970   24.2130 N   0  0  0  0  0  0  0  0  0  0  0  0
   11.3790    2.5970   23.0650 C   0  0  0  0  0  0  0  0  0  0  0  0
   12.1360    1.1840   22.4980 S   0  0  0  0  0  0  0  0  0  0  0  0
  1  2  2  0
  2  3  1  0
  3  4  1  0
  4  5  2  0
  5  6  1  0
  6  7  2  0
  7  8  1  0
  4  9  1  0
  8  9  2  0
  2 10  1  0
 10 11  1  0
 11 12  2  0
 12 13  1  0
 13 14  1  0
 14 15  1  0
 15 16  2  0
 16 17  1  0
 17 18  1  0
 18 19  1  0
 19 20  2  0
 20 21  1  0
 21 22  2  0
 19 23  1  0
 22 23  1  0
 13 24  2  0
 16 24  1  0
 11 25  1  0
 24 25  1  0
M  END
