SAL-INS-3161d1be-3
     RDKit          3D

 26 29  0  0  0  0  0  0  0  0999 V2000
    8.7310    1.1800   21.0620 O   0  0  0  0  0  0  0  0  0  0  0  0
    8.3180    0.0580   21.3830 C   0  0  0  0  0  0  0  0  0  0  0  0
    7.3160   -0.5900   20.7090 N   0  0  0  0  0  0  0  0  0  0  0  0
    6.4020    0.0860   19.8980 C   0  0  0  0  0  0  0  0  0  0  0  0
    5.0780    0.4480   20.3950 C   0  0  0  0  0  0  0  0  0  0  0  0
    4.1940    1.1230   19.5740 C   0  0  0  0  0  0  0  0  0  0  0  0
    4.4330    1.4930   18.3200 N   0  0  0  0  0  0  0  0  0  0  0  0
    5.6380    1.1530   17.8860 C   0  0  0  0  0  0  0  0  0  0  0  0
    6.6210    0.4790   18.6020 N   0  0  0  0  0  0  0  0  0  0  0  0
    8.8500   -0.5990   22.4210 N   0  0  0  0  0  0  0  0  0  0  0  0
   10.0900   -0.2880   22.9190 C   0  0  0  0  0  0  0  0  0  0  0  0
   11.4590   -1.2940   22.7920 S   0  0  0  0  0  0  0  0  0  0  0  0
   12.8420   -0.4400   23.5950 C   0  0  0  0  0  0  0  0  0  0  0  0
   13.3330   -1.6970   23.1060 C   0  0  0  0  0  0  0  0  0  0  0  0
   11.9780   -1.9630   22.5970 C   0  0  0  0  0  0  0  0  0  0  0  0
   11.1350   -0.7340   22.9770 N   0  0  0  0  0  0  0  0  0  0  0  0
   11.7990    0.4670   23.7590 C   0  0  0  0  0  0  0  0  0  0  0  0
   10.4540    0.7840   23.5480 C   0  0  0  0  0  0  0  0  0  0  0  0
    9.7110    1.9160   23.9080 C   0  0  0  0  0  0  0  0  0  0  0  0
    9.6410    3.0140   22.8290 C   0  0  2  0  0  0  0  0  0  0  0  0
   10.8910    3.8740   23.1230 C   0  0  0  0  0  0  0  0  0  0  0  0
   10.5880    5.3710   23.2650 C   0  0  0  0  0  0  0  0  0  0  0  0
    9.2270    5.5470   23.9150 C   0  0  2  0  0  0  0  0  0  0  0  0
    8.9420    5.1250   25.0380 O   0  0  0  0  0  0  0  0  0  0  0  0
    8.2070    4.9790   22.9580 C   0  0  0  0  0  0  0  0  0  0  0  0
    8.3420    3.5730   22.8280 C   0  0  0  0  0  0  0  0  0  0  0  0
  1  2  2  0
  2  3  1  0
  3  4  1  0
  4  5  2  0
  5  6  1  0
  6  7  2  0
  7  8  1  0
  4  9  1  0
  8  9  2  0
  2 10  1  0
 10 11  1  0
 11 12  1  0
 12 13  1  0
 13 14  1  0
 14 15  2  0
 15 16  1  0
 13 17  2  0
 16 17  1  0
 11 18  2  0
 17 18  1  0
 18 19  1  0
 20 19  1  1
 20 21  1  0
 21 22  1  0
 22 23  1  0
 23 24  1  1
 23 25  1  0
 20 26  1  0
 25 26  1  0
M  END
