SAL-INS-a5f8a8b9-1
     RDKit          3D

 33 33  0  0  0  0  0  0  0  0999 V2000
   13.3800   -2.0350   25.2510 N   0  0  0  0  0  0  0  0  0  0  0  0
   12.0360   -1.6240   24.7960 C   0  0  0  0  0  0  0  0  0  0  0  0
   11.1350   -2.4630   24.2150 N   0  0  0  0  0  0  0  0  0  0  0  0
   11.7100   -0.2700   25.0080 N   0  0  0  0  0  0  0  0  0  0  0  0
   11.8400    0.7970   23.9890 C   0  0  0  0  0  0  0  0  0  0  0  0
   10.6980    1.6380   23.9140 C   0  0  0  0  0  0  0  0  0  0  0  0
   10.8060    3.0390   23.7760 C   0  0  0  0  0  0  0  0  0  0  0  0
    9.6930    3.6860   23.3290 C   0  0  2  0  0  0  0  0  0  0  0  0
    9.3870    3.1920   22.0320 N   0  0  0  0  0  0  0  0  0  0  0  0
    8.8170    1.8450   21.8570 C   0  0  0  0  0  0  0  0  0  0  0  0
    8.5290    1.4410   20.7590 O   0  0  0  0  0  0  0  0  0  0  0  0
    8.5270    0.9340   23.0760 C   0  0  2  0  0  0  0  0  0  0  0  0
    9.3300   -0.2110   23.3560 C   0  0  0  0  0  0  0  0  0  0  0  0
   10.5720   -0.5220   22.7780 C   0  0  0  0  0  0  0  0  0  0  0  0
   11.7530    0.3180   22.9550 C   0  0  0  0  0  0  0  0  0  0  0  0
   13.0560    0.0180   22.3840 C   0  0  0  0  0  0  0  0  0  0  0  0
   13.2350   -1.1400   21.5970 C   0  0  0  0  0  0  0  0  0  0  0  0
   11.9990   -1.8510   21.5190 C   0  0  0  0  0  0  0  0  0  0  0  0
   10.6330   -1.7140   22.0110 C   0  0  0  0  0  0  0  0  0  0  0  0
    7.1090    0.6050   23.0560 N   0  0  0  0  0  0  0  0  0  0  0  0
    6.6100   -0.3230   23.9470 C   0  0  0  0  0  0  0  0  0  0  0  0
    6.0850   -1.3240   24.4440 O   0  0  0  0  0  0  0  0  0  0  0  0
    6.2680   -1.0850   22.6220 C   0  0  0  0  0  0  0  0  0  0  0  0
    6.3070   -2.5280   22.9770 N   0  0  0  0  0  0  0  0  0  0  0  0
    5.4930   -3.4940   22.4310 C   0  0  0  0  0  0  0  0  0  0  0  0
    4.7760   -3.3140   21.4460 O   0  0  0  0  0  0  0  0  0  0  0  0
    5.5150   -4.7330   23.0620 C   0  0  1  0  0  0  0  0  0  0  0  0
    4.1320   -5.0110   23.5280 N   0  0  0  0  0  0  0  0  0  0  0  0
    5.9360   -5.8460   22.3270 C   0  0  0  0  0  0  0  0  0  0  0  0
    5.7520   -6.9350   23.1260 O   0  0  0  0  0  0  0  0  0  0  0  0
    9.8110    5.0850   23.2740 C   0  0  0  0  0  0  0  0  0  0  0  0
   10.6520    5.7720   23.8340 O   0  0  0  0  0  0  0  0  0  0  0  0
    8.8720    5.6850   22.5110 O   0  0  0  0  0  0  0  0  0  0  0  0
  1  2  2  3
  2  3  1  0
  2  4  1  0
  4  5  1  0
  5  6  1  0
  6  7  1  0
  8  7  1  6
  8  9  1  0
  9 10  1  0
 10 11  2  0
 10 12  1  0
 12 13  1  6
 13 14  1  0
 14 15  2  0
 15 16  1  0
 16 17  2  0
 17 18  1  0
 14 19  1  0
 18 19  2  0
 12 20  1  0
 20 21  1  0
 21 22  2  0
 21 23  1  0
 23 24  1  0
 24 25  1  0
 25 26  2  0
 25 27  1  0
 27 28  1  6
 27 29  1  0
 29 30  1  0
  8 31  1  0
 31 32  2  0
 31 33  1  0
M  END
