SAL-INS-a5f8a8b9-2
     RDKit          3D

 36 36  0  0  0  0  0  0  0  0999 V2000
   11.6840    9.1360   25.8270 C   0  0  0  0  0  0  0  0  0  0  0  0
   11.5120    7.6240   25.6980 C   0  0  0  0  0  0  0  0  0  0  0  0
   10.8580    6.9350   26.4770 O   0  0  0  0  0  0  0  0  0  0  0  0
   12.2290    7.1210   24.5220 N   0  0  0  0  0  0  0  0  0  0  0  0
   11.6000    6.6160   23.4010 C   0  0  1  0  0  0  0  0  0  0  0  0
   12.5160    5.9360   22.5820 C   0  0  0  0  0  0  0  0  0  0  0  0
   13.3360    5.0400   23.3450 O   0  0  0  0  0  0  0  0  0  0  0  0
   10.4180    5.7180   23.7900 C   0  0  0  0  0  0  0  0  0  0  0  0
    9.9000    5.7380   24.9080 O   0  0  0  0  0  0  0  0  0  0  0  0
    9.9870    4.9010   22.7850 N   0  0  0  0  0  0  0  0  0  0  0  0
   10.3940    3.6120   22.9900 C   0  0  0  0  0  0  0  0  0  0  0  0
    9.4890    2.4410   23.3240 C   0  0  0  0  0  0  0  0  0  0  0  0
    8.9520    2.3010   24.4220 O   0  0  0  0  0  0  0  0  0  0  0  0
    9.3160    1.4960   22.2200 N   0  0  0  0  0  0  0  0  0  0  0  0
    8.4660    0.3320   22.4970 C   0  0  1  0  0  0  0  0  0  0  0  0
    9.2000   -0.7790   23.2450 C   0  0  0  0  0  0  0  0  0  0  0  0
   10.6840   -0.6540   22.9400 C   0  0  0  0  0  0  0  0  0  0  0  0
   11.2220    0.5710   23.4420 C   0  0  0  0  0  0  0  0  0  0  0  0
   12.5740    0.9220   23.2660 C   0  0  0  0  0  0  0  0  0  0  0  0
   13.3630    0.0430   22.5980 C   0  0  0  0  0  0  0  0  0  0  0  0
   12.6930   -1.0940   22.1880 C   0  0  0  0  0  0  0  0  0  0  0  0
   11.4710   -1.5910   22.2520 C   0  0  0  0  0  0  0  0  0  0  0  0
    7.1890    0.7620   23.2310 C   0  0  0  0  0  0  0  0  0  0  0  0
    6.8260    0.1420   24.2270 O   0  0  0  0  0  0  0  0  0  0  0  0
    6.4800    1.8150   22.7040 N   0  0  0  0  0  0  0  0  0  0  0  0
    5.0210    1.7750   22.5410 C   0  0  1  0  0  0  0  0  0  0  0  0
    4.4510    2.9910   22.9260 C   0  0  0  0  0  0  0  0  0  0  0  0
    3.4590    2.9910   23.9080 C   0  0  0  0  0  0  0  0  0  0  0  0
    3.3710    4.1770   24.6520 C   0  0  0  0  0  0  0  0  0  0  0  0
    2.0010    4.4470   25.0500 N   0  0  0  0  0  0  0  0  0  0  0  0
    1.6980    4.7290   26.3530 C   0  0  0  0  0  0  0  0  0  0  0  0
    0.3590    4.8430   26.5450 N   0  0  0  0  0  0  0  0  0  0  0  0
    2.4950    4.8730   27.2650 O   0  0  0  0  0  0  0  0  0  0  0  0
    4.7070    1.4160   21.0650 C   0  0  0  0  0  0  0  0  0  0  0  0
    3.8030    2.2060   20.4170 N   0  0  0  0  0  0  0  0  0  0  0  0
    5.2290    0.4720   20.4760 O   0  0  0  0  0  0  0  0  0  0  0  0
  1  2  1  0
  2  3  2  0
  2  4  1  0
  4  5  1  0
  5  6  1  1
  6  7  1  0
  5  8  1  0
  8  9  2  0
  8 10  1  0
 10 11  1  0
 11 12  1  0
 12 13  2  0
 12 14  1  0
 14 15  1  0
 15 16  1  1
 16 17  1  0
 17 18  2  0
 18 19  1  0
 19 20  2  0
 20 21  1  0
 17 22  1  0
 21 22  2  0
 15 23  1  0
 23 24  2  0
 23 25  1  0
 25 26  1  0
 26 27  1  6
 27 28  1  0
 28 29  1  0
 29 30  1  0
 30 31  1  0
 31 32  1  0
 31 33  2  0
 26 34  1  0
 34 35  1  0
 34 36  2  0
M  END
