SAM-UNK-83e03154-2
     RDKit          3D

 23 24  0  0  0  0  0  0  0  0999 V2000
   12.0010    7.3180   24.5520 C   0  0  0  0  0  0  0  0  0  0  0  0
   12.1090    6.5920   23.2670 C   0  0  0  0  0  0  0  0  0  0  0  0
   11.1390    6.5440   22.5160 O   0  0  0  0  0  0  0  0  0  0  0  0
   13.3200    5.9890   22.9770 N   0  0  0  0  0  0  0  0  0  0  0  0
   13.2550    4.6520   22.4290 C   0  0  0  0  0  0  0  0  0  0  0  0
   12.2140    3.7190   22.9160 C   0  0  0  0  0  0  0  0  0  0  0  0
   11.4780    2.5590   23.0120 C   0  0  0  0  0  0  0  0  0  0  0  0
    9.9890    2.6570   23.2710 C   0  0  0  0  0  0  0  0  0  0  0  0
    9.4100    1.4300   23.3260 N   0  0  0  0  0  0  0  0  0  0  0  0
   10.3270    0.5100   23.1310 C   0  0  0  0  0  0  0  0  0  0  0  0
   10.2210   -1.0070   23.0800 C   0  0  0  0  0  0  0  0  0  0  0  0
    8.7870   -1.4600   23.2840 C   0  0  0  0  0  0  0  0  0  0  0  0
    8.4260   -2.7300   23.7560 C   0  0  0  0  0  0  0  0  0  0  0  0
    7.1620   -2.5640   24.5530 N   0  0  0  0  0  0  0  0  0  0  0  0
    6.4470   -3.7590   25.5210 S   0  0  0  0  0  0  0  0  0  0  0  0
    4.7080   -3.5160   25.4620 C   0  0  0  0  0  0  0  0  0  0  0  0
    6.6860   -5.0200   24.8500 O   0  0  0  0  0  0  0  0  0  0  0  0
    6.8360   -3.5270   26.8960 O   0  0  0  0  0  0  0  0  0  0  0  0
   11.3210   -1.7510   22.8600 C   0  0  0  0  0  0  0  0  0  0  0  0
   12.5750   -1.1560   22.6770 C   0  0  0  0  0  0  0  0  0  0  0  0
   13.6020   -1.9600   22.4550 F   0  0  0  0  0  0  0  0  0  0  0  0
   12.7890    0.2450   22.7100 C   0  0  0  0  0  0  0  0  0  0  0  0
   11.7200    1.1290   22.9230 C   0  0  0  0  0  0  0  0  0  0  0  0
  1  2  1  0
  2  3  2  0
  2  4  1  0
  4  5  1  0
  5  6  2  3
  6  7  1  0
  7  8  2  0
  8  9  1  0
  9 10  1  0
 10 11  1  0
 11 12  1  0
 12 13  1  0
 13 14  1  0
 15 14  1  0
 15 16  1  0
 15 17  2  0
 15 18  2  0
 11 19  2  0
 19 20  1  0
 20 21  1  0
 20 22  2  0
  7 23  1  0
 10 23  2  0
 22 23  1  0
M  END
