SAN-PRS-3c4a6997-10
     RDKit          3D

 16 17  0  0  0  0  0  0  0  0999 V2000
    8.7250    1.0400   24.7830 C   0  0  0  0  0  0  0  0  0  0  0  0
    9.9410    1.2600   24.1570 N   0  0  0  0  0  0  0  0  0  0  0  0
   10.3610    2.6190   23.9260 C   0  0  0  0  0  0  0  0  0  0  0  0
    9.8310    3.6950   24.1770 O   0  0  0  0  0  0  0  0  0  0  0  0
   11.7020    2.4220   23.2430 C   0  0  0  0  0  0  0  0  0  0  0  0
   12.3920    3.5790   22.8690 C   0  0  0  0  0  0  0  0  0  0  0  0
   12.1080    4.7660   23.6010 N   0  0  0  0  0  0  0  0  0  0  0  0
   11.6230    5.8130   22.7190 C   0  0  0  0  0  0  0  0  0  0  0  0
   10.4210    6.3410   23.1400 N   0  0  0  0  0  0  0  0  0  0  0  0
   12.2300    6.1710   21.7280 O   0  0  0  0  0  0  0  0  0  0  0  0
   11.9420    1.0060   23.1370 C   0  0  0  0  0  0  0  0  0  0  0  0
   12.9480    0.2050   22.6320 C   0  0  0  0  0  0  0  0  0  0  0  0
   12.9520   -1.1890   22.6160 C   0  0  0  0  0  0  0  0  0  0  0  0
   11.7740   -1.9110   23.2130 C   0  0  0  0  0  0  0  0  0  0  0  0
   10.7820   -1.0770   23.7280 C   0  0  0  0  0  0  0  0  0  0  0  0
   10.8390    0.3230   23.7000 C   0  0  0  0  0  0  0  0  0  0  0  0
  1  2  1  0
  2  3  1  0
  3  4  1  0
  3  5  2  0
  5  6  1  0
  6  7  1  0
  7  8  1  0
  8  9  1  0
  8 10  2  0
  5 11  1  0
 11 12  1  0
 12 13  2  0
 13 14  1  0
 14 15  2  0
  2 16  1  0
 11 16  2  0
 15 16  1  0
M  END
