SAN-PRS-52b81272-2
     RDKit          3D

 16 17  0  0  0  0  0  0  0  0999 V2000
    9.2690    1.2610   21.3820 O   0  0  0  0  0  0  0  0  0  0  0  0
    8.7070    0.2140   21.7410 C   0  0  0  0  0  0  0  0  0  0  0  0
    9.1260   -0.6640   22.9580 C   0  0  0  0  0  0  0  0  0  0  0  0
   10.6020   -1.0850   23.1030 C   0  0  0  0  0  0  0  0  0  0  0  0
   11.3810   -1.3380   21.9960 C   0  0  0  0  0  0  0  0  0  0  0  0
   12.7070   -1.7150   22.1230 C   0  0  0  0  0  0  0  0  0  0  0  0
   13.2600   -1.8460   23.3750 C   0  0  0  0  0  0  0  0  0  0  0  0
   12.4900   -1.6030   24.4860 C   0  0  0  0  0  0  0  0  0  0  0  0
   11.1450   -1.2240   24.3810 C   0  0  0  0  0  0  0  0  0  0  0  0
    7.6000   -0.3610   21.1600 N   0  0  0  0  0  0  0  0  0  0  0  0
    6.7840    0.1960   20.1720 C   0  0  0  0  0  0  0  0  0  0  0  0
    5.6990    1.0280   20.3770 C   0  0  0  0  0  0  0  0  0  0  0  0
    4.9590    1.5320   19.3310 C   0  0  0  0  0  0  0  0  0  0  0  0
    5.3050    1.2040   18.0320 C   0  0  0  0  0  0  0  0  0  0  0  0
    6.3500    0.3950   17.7800 N   0  0  0  0  0  0  0  0  0  0  0  0
    7.0560   -0.0880   18.8370 C   0  0  0  0  0  0  0  0  0  0  0  0
  1  2  2  0
  2  3  1  0
  3  4  1  0
  4  5  2  0
  5  6  1  0
  6  7  2  0
  7  8  1  0
  4  9  1  0
  8  9  2  0
  2 10  1  0
 10 11  1  0
 11 12  2  0
 12 13  1  0
 13 14  2  0
 14 15  1  0
 11 16  1  0
 15 16  2  0
M  END
