SAN-PRS-52b81272-1
     RDKit          3D

 16 17  0  0  0  0  0  0  0  0999 V2000
    6.9410   -1.6540   21.4690 O   0  0  0  0  0  0  0  0  0  0  0  0
    7.2610   -1.7540   22.6570 C   0  0  0  0  0  0  0  0  0  0  0  0
    8.5330   -1.3180   23.2020 N   0  0  0  0  0  0  0  0  0  0  0  0
    9.2170   -0.2050   22.7710 C   0  0  0  0  0  0  0  0  0  0  0  0
   10.6520   -0.3820   23.0720 C   0  0  0  0  0  0  0  0  0  0  0  0
   11.2570   -1.5730   22.2820 C   0  0  0  0  0  0  0  0  0  0  0  0
   12.4660   -2.0160   22.8030 C   0  0  0  0  0  0  0  0  0  0  0  0
   13.1740   -1.0880   23.5650 C   0  0  0  0  0  0  0  0  0  0  0  0
   12.5260   -0.3600   24.5580 C   0  0  0  0  0  0  0  0  0  0  0  0
   11.0300   -0.4330   24.4030 C   0  0  0  0  0  0  0  0  0  0  0  0
    6.3040   -2.3570   23.6940 C   0  0  0  0  0  0  0  0  0  0  0  0
    4.9090   -2.7020   23.2660 C   0  0  0  0  0  0  0  0  0  0  0  0
    3.9780   -3.2500   24.1410 C   0  0  0  0  0  0  0  0  0  0  0  0
    4.3830   -3.4750   25.4620 C   0  0  0  0  0  0  0  0  0  0  0  0
    5.7440   -3.1210   25.8200 N   0  0  0  0  0  0  0  0  0  0  0  0
    6.7180   -2.5700   24.9830 C   0  0  0  0  0  0  0  0  0  0  0  0
  1  2  2  0
  2  3  1  0
  3  4  1  0
  4  5  1  0
  5  6  1  0
  6  7  1  0
  7  8  1  0
  8  9  1  0
  5 10  1  0
  9 10  1  0
  2 11  1  0
 11 12  2  0
 12 13  1  0
 13 14  2  0
 14 15  1  0
 11 16  1  0
 15 16  2  0
M  END
