SAN-PRI-c9355cc8-2
     RDKit          3D

 15 17  0  0  0  0  0  0  0  0999 V2000
    1.7590  -23.7860    0.6910 C   0  0  0  0  0  0  0  0  0  0  0  0
    2.2690  -25.1940    1.0570 C   0  0  0  0  0  0  0  0  0  0  0  0
    3.5600  -25.5470    0.7600 N   0  0  0  0  0  0  0  0  0  0  0  0
    4.4630  -24.6020    0.1010 C   0  0  0  0  0  0  0  0  0  0  0  0
    4.0570  -23.3050   -0.2590 C   0  0  0  0  0  0  0  0  0  0  0  0
    5.0420  -22.4300   -0.9240 N   0  0  0  0  0  0  0  0  0  0  0  0
    6.3500  -23.0540   -1.1300 C   0  0  0  0  0  0  0  0  0  0  0  0
    7.2610  -21.8810   -1.4010 C   0  0  0  0  0  0  0  0  0  0  0  0
    6.3490  -20.7010   -1.6670 C   0  0  1  0  0  0  0  0  0  0  0  0
    6.8470  -19.4280   -1.4650 C   0  0  0  0  0  0  0  0  0  0  0  0
    7.6120  -19.0880   -2.5630 C   0  0  0  0  0  0  0  0  0  0  0  0
    6.7780  -19.5070   -3.6460 O   0  0  0  0  0  0  0  0  0  0  0  0
    5.9410  -20.5510   -3.1230 C   0  0  0  0  0  0  0  0  0  0  0  0
    5.1430  -21.0530   -0.7700 C   0  0  0  0  0  0  0  0  0  0  0  0
    2.6150  -22.8910    0.0640 C   0  0  0  0  0  0  0  0  0  0  0  0
  1  2  2  0
  2  3  1  0
  3  4  2  0
  4  5  1  0
  5  6  1  0
  6  7  1  0
  7  8  1  0
  9  8  1  6
  9 10  1  0
 10 11  1  0
 11 12  1  0
  9 13  1  0
 12 13  1  0
  6 14  1  0
  9 14  1  0
  1 15  1  0
  5 15  2  0
M  END
