SAN-PRS-3c4a6997-7
     RDKit          3D

 16 17  0  0  0  0  0  0  0  0999 V2000
    8.6590    1.2850   24.6780 C   0  0  0  0  0  0  0  0  0  0  0  0
    9.9450    1.3460   24.0780 N   0  0  0  0  0  0  0  0  0  0  0  0
   10.4520    2.6560   23.8510 C   0  0  0  0  0  0  0  0  0  0  0  0
    9.9050    3.7160   24.1020 O   0  0  0  0  0  0  0  0  0  0  0  0
   11.7030    2.4210   23.2790 C   0  0  0  0  0  0  0  0  0  0  0  0
   12.5330    3.5350   22.9100 N   0  0  0  0  0  0  0  0  0  0  0  0
   12.1600    4.6410   23.5950 N   0  0  0  0  0  0  0  0  0  0  0  0
   11.6940    5.6890   22.7430 C   0  0  0  0  0  0  0  0  0  0  0  0
   10.5100    6.2520   23.1730 N   0  0  0  0  0  0  0  0  0  0  0  0
   12.3640    6.1290   21.5910 O   0  0  0  0  0  0  0  0  0  0  0  0
   11.9480    1.0040   23.1520 C   0  0  0  0  0  0  0  0  0  0  0  0
   13.0080    0.2420   22.6560 C   0  0  0  0  0  0  0  0  0  0  0  0
   12.9890   -1.1460   22.6200 C   0  0  0  0  0  0  0  0  0  0  0  0
   11.7850   -1.8550   23.1580 C   0  0  0  0  0  0  0  0  0  0  0  0
   10.6450   -1.0510   23.7100 C   0  0  0  0  0  0  0  0  0  0  0  0
   10.7870    0.3570   23.6730 C   0  0  0  0  0  0  0  0  0  0  0  0
  1  2  1  0
  2  3  1  0
  3  4  1  0
  3  5  2  0
  5  6  1  0
  6  7  2  3
  7  8  1  0
  8  9  1  0
  8 10  2  0
  5 11  1  0
 11 12  1  0
 12 13  2  0
 13 14  1  0
 14 15  2  0
  2 16  1  0
 11 16  2  0
 15 16  1  0
M  END
