SAN-PRS-3c4a6997-3
     RDKit          3D

 17 18  0  0  0  0  0  0  0  0999 V2000
    9.1070    6.5230   22.5850 C   0  0  0  0  0  0  0  0  0  0  0  0
   10.2370    6.1900   23.3500 C   0  0  0  0  0  0  0  0  0  0  0  0
   10.2750    6.3110   24.5690 O   0  0  0  0  0  0  0  0  0  0  0  0
   11.2850    5.7150   22.6040 N   0  0  0  0  0  0  0  0  0  0  0  0
   12.4030    4.9610   23.1880 C   0  0  0  0  0  0  0  0  0  0  0  0
   12.5560    3.6530   22.6820 C   0  0  0  0  0  0  0  0  0  0  0  0
   11.7850    2.6430   23.1400 C   0  0  0  0  0  0  0  0  0  0  0  0
   10.5390    2.8180   23.8370 C   0  0  0  0  0  0  0  0  0  0  0  0
    9.8650    1.6280   24.2250 N   0  0  0  0  0  0  0  0  0  0  0  0
    8.6680    1.4860   24.8920 C   0  0  0  0  0  0  0  0  0  0  0  0
   10.6720    0.6030   23.7840 C   0  0  0  0  0  0  0  0  0  0  0  0
   10.5530   -0.7940   23.8540 C   0  0  0  0  0  0  0  0  0  0  0  0
   11.5330   -1.6380   23.3060 C   0  0  0  0  0  0  0  0  0  0  0  0
   12.6520   -1.0970   22.6880 C   0  0  0  0  0  0  0  0  0  0  0  0
   13.5630   -1.9050   22.1700 F   0  0  0  0  0  0  0  0  0  0  0  0
   12.8180    0.2740   22.6060 C   0  0  0  0  0  0  0  0  0  0  0  0
   11.9090    1.1980   23.0960 C   0  0  0  0  0  0  0  0  0  0  0  0
  1  2  1  0
  2  3  2  0
  2  4  1  0
  4  5  1  0
  5  6  1  0
  6  7  1  0
  7  8  2  0
  8  9  1  0
  9 10  1  0
  9 11  1  0
 11 12  1  0
 12 13  2  0
 13 14  1  0
 14 15  1  0
 14 16  2  0
  7 17  1  0
 11 17  2  0
 16 17  1  0
M  END
