SAN-PRS-3c4a6997-13
     RDKit          3D

 16 17  0  0  0  0  0  0  0  0999 V2000
    8.6170    1.1400   24.7100 C   0  0  0  0  0  0  0  0  0  0  0  0
    9.9030    1.4150   24.1130 N   0  0  0  0  0  0  0  0  0  0  0  0
   10.3950    2.6590   23.8790 C   0  0  0  0  0  0  0  0  0  0  0  0
    9.6430    3.8420   24.2100 O   0  0  0  0  0  0  0  0  0  0  0  0
   11.7130    2.4840   23.2770 C   0  0  0  0  0  0  0  0  0  0  0  0
   12.5390    3.4980   22.8970 N   0  0  0  0  0  0  0  0  0  0  0  0
   12.3500    4.8340   23.5150 C   0  0  0  0  0  0  0  0  0  0  0  0
   11.6850    5.7430   22.7440 C   0  0  0  0  0  0  0  0  0  0  0  0
   10.4730    6.2700   23.1580 N   0  0  0  0  0  0  0  0  0  0  0  0
   12.3820    6.0700   21.5590 O   0  0  0  0  0  0  0  0  0  0  0  0
   11.9390    1.0780   23.1730 C   0  0  0  0  0  0  0  0  0  0  0  0
   13.0140    0.3300   22.6800 C   0  0  0  0  0  0  0  0  0  0  0  0
   12.9580   -1.1990   22.6660 C   0  0  0  0  0  0  0  0  0  0  0  0
   11.7160   -1.8580   23.2260 C   0  0  0  0  0  0  0  0  0  0  0  0
   10.6410   -0.9460   23.7450 C   0  0  0  0  0  0  0  0  0  0  0  0
   10.7930    0.4380   23.6930 C   0  0  0  0  0  0  0  0  0  0  0  0
  1  2  1  0
  2  3  1  0
  3  4  1  0
  3  5  2  0
  5  6  1  0
  6  7  1  0
  7  8  1  0
  8  9  1  0
  8 10  2  0
  5 11  1  0
 11 12  1  0
 12 13  2  0
 13 14  1  0
 14 15  2  0
  2 16  1  0
 11 16  2  0
 15 16  1  0
M  END
