SAN-PRS-3c4a6997-2
     RDKit          3D

 15 16  0  0  0  0  0  0  0  0999 V2000
    9.1160    6.6530   22.6570 C   0  0  0  0  0  0  0  0  0  0  0  0
   10.1810    6.2110   23.3600 C   0  0  0  0  0  0  0  0  0  0  0  0
   10.1010    6.3490   24.7900 O   0  0  0  0  0  0  0  0  0  0  0  0
   11.2500    5.6580   22.5700 N   0  0  0  0  0  0  0  0  0  0  0  0
   12.2810    4.9710   23.1830 C   0  0  0  0  0  0  0  0  0  0  0  0
   12.5060    3.5190   22.6890 C   0  0  0  0  0  0  0  0  0  0  0  0
   11.6910    2.5210   23.2090 C   0  0  0  0  0  0  0  0  0  0  0  0
   10.5080    2.7700   23.8450 C   0  0  0  0  0  0  0  0  0  0  0  0
   10.0000    1.5140   24.1860 N   0  0  0  0  0  0  0  0  0  0  0  0
   10.8890    0.5460   23.7440 C   0  0  0  0  0  0  0  0  0  0  0  0
   10.5920   -0.9230   23.9610 C   0  0  0  0  0  0  0  0  0  0  0  0
   11.6980   -1.8070   23.3880 C   0  0  0  0  0  0  0  0  0  0  0  0
   12.8900   -1.1120   22.7260 C   0  0  0  0  0  0  0  0  0  0  0  0
   12.9970    0.2900   22.6280 C   0  0  0  0  0  0  0  0  0  0  0  0
   12.0060    1.1320   23.1160 C   0  0  0  0  0  0  0  0  0  0  0  0
  1  2  1  0
  2  3  2  0
  2  4  1  0
  4  5  1  0
  5  6  1  0
  6  7  1  0
  7  8  2  0
  8  9  1  0
  9 10  1  0
 10 11  1  0
 11 12  2  0
 12 13  1  0
 13 14  2  0
  7 15  1  0
 10 15  2  0
 14 15  1  0
M  END
