SCO-VAN-260d9628-3
     RDKit          3D

 18 20  0  0  0  0  0  0  0  0999 V2000
    8.7880   -3.8780   25.0710 N   0  0  0  0  0  0  0  0  0  0  0  0
    8.6840   -2.5380   25.0650 C   0  0  0  0  0  0  0  0  0  0  0  0
    8.4640   -1.7830   26.2500 O   0  0  0  0  0  0  0  0  0  0  0  0
    8.7920   -1.8700   23.7830 C   0  0  1  0  0  0  0  0  0  0  0  0
    9.7030   -0.9730   23.7510 C   0  0  0  0  0  0  0  0  0  0  0  0
   10.6670   -1.1690   22.6010 C   0  0  0  0  0  0  0  0  0  0  0  0
    9.6790   -1.9290   21.7780 C   0  0  2  0  0  0  0  0  0  0  0  0
    8.7350   -0.8230   21.2140 C   0  0  0  0  0  0  0  0  0  0  0  0
    8.8670    0.5230   21.6810 N   0  0  0  0  0  0  0  0  0  0  0  0
    7.9690    1.3810   21.1010 N   0  0  0  0  0  0  0  0  0  0  0  0
    7.1270    0.6750   20.1620 C   0  0  0  0  0  0  0  0  0  0  0  0
    7.4680   -0.9950   20.0340 S   0  0  0  0  0  0  0  0  0  0  0  0
    9.0640   -2.7110   22.7510 C   0  0  2  0  0  0  0  0  0  0  0  0
    7.8040   -3.2300   22.4010 C   0  0  0  0  0  0  0  0  0  0  0  0
    6.7370   -2.4470   22.0160 C   0  0  0  0  0  0  0  0  0  0  0  0
    5.5690   -3.0870   21.7040 C   0  0  0  0  0  0  0  0  0  0  0  0
    5.7080   -4.7680   21.8750 S   0  0  0  0  0  0  0  0  0  0  0  0
    7.3600   -4.5710   22.3750 C   0  0  0  0  0  0  0  0  0  0  0  0
  1  2  1  0
  2  3  2  0
  4  2  1  1
  4  5  1  0
  5  6  1  0
  6  7  1  0
  7  8  1  1
  8  9  2  0
  9 10  1  0
 10 11  2  0
  8 12  1  0
 11 12  1  0
  4 13  1  0
  7 13  1  0
 13 14  1  6
 14 15  1  0
 15 16  2  0
 16 17  1  0
 14 18  2  0
 17 18  1  0
M  END
