SCO-VAN-260d9628-6
     RDKit          3D

 24 26  0  0  0  0  0  0  0  0999 V2000
   15.2480   -5.7470   20.4480 C   0  0  0  0  0  0  0  0  0  0  0  0
   15.7140   -4.5220   20.0100 O   0  0  0  0  0  0  0  0  0  0  0  0
   14.6170   -3.8240   19.5050 C   0  0  0  0  0  0  0  0  0  0  0  0
   14.9120   -2.5760   19.2430 C   0  0  0  0  0  0  0  0  0  0  0  0
   14.2350   -1.0760   19.8510 C   0  0  0  0  0  0  0  0  0  0  0  0
   13.3100   -1.1310   20.7200 N   0  0  0  0  0  0  0  0  0  0  0  0
   13.2020   -1.0260   22.0730 C   0  0  0  0  0  0  0  0  0  0  0  0
   11.9140   -1.3940   22.3730 C   0  0  0  0  0  0  0  0  0  0  0  0
   10.6530   -1.5100   22.7100 C   0  0  0  0  0  0  0  0  0  0  0  0
   10.4260   -0.1760   23.0130 C   0  0  0  0  0  0  0  0  0  0  0  0
   11.4440    0.6750   22.9300 F   0  0  0  0  0  0  0  0  0  0  0  0
    9.1930    0.4480   23.4210 C   0  0  0  0  0  0  0  0  0  0  0  0
   10.6440    0.7550   23.1390 C   0  0  0  0  0  0  0  0  0  0  0  0
   10.7700   -0.7320   22.7740 C   0  0  0  0  0  0  0  0  0  0  0  0
    9.5140   -1.6670   22.8300 C   0  0  0  0  0  0  0  0  0  0  0  0
    9.3600   -2.5040   23.9960 N   0  0  0  0  0  0  0  0  0  0  0  0
    8.2770   -3.3540   24.0040 C   0  0  0  0  0  0  0  0  0  0  0  0
    7.7400   -2.1710   24.5180 C   0  0  0  0  0  0  0  0  0  0  0  0
    7.1380   -3.7910   24.1580 O   0  0  0  0  0  0  0  0  0  0  0  0
   12.1780   -0.6090   22.4760 C   0  0  0  0  0  0  0  0  0  0  0  0
   13.0090    0.5190   22.5240 N   0  0  0  0  0  0  0  0  0  0  0  0
   11.8010    0.0530   22.7100 C   0  0  0  0  0  0  0  0  0  0  0  0
   12.8120   -2.3980   20.6440 C   0  0  0  0  0  0  0  0  0  0  0  0
   13.6230   -3.6420   20.4050 C   0  0  0  0  0  0  0  0  0  0  0  0
  1  2  1  0
  2  3  1  0
  3  4  1  0
  4  5  1  0
  5  6  1  0
  6  7  1  0
  7  8  1  0
  8  9  2  0
  9 10  1  0
 10 11  1  0
 10 12  2  0
 12 13  1  0
 13 14  1  0
 14 15  1  0
 15 16  1  0
 16 17  1  0
 17 18  1  0
 17 19  2  0
 14 20  2  0
 20 21  1  0
  8 22  1  0
 13 22  2  0
 21 22  1  0
  6 23  1  0
  3 24  1  0
 23 24  1  0
M  END
