SCO-CSI-e56d7cb6-1
     RDKit          3D

 36 39  0  0  0  0  0  0  0  0999 V2000
    5.8020   -2.5770   22.3140 O   0  0  0  0  0  0  0  0  0  0  0  0
    5.9930   -2.7000   21.1170 C   0  0  0  0  0  0  0  0  0  0  0  0
    6.4320   -1.4700   20.3720 C   0  0  0  0  0  0  0  0  0  0  0  0
    5.9190   -0.4090   20.6970 O   0  0  0  0  0  0  0  0  0  0  0  0
    6.5040    0.7250   20.0600 C   0  0  0  0  0  0  0  0  0  0  0  0
    6.9430    1.7620   20.8860 C   0  0  1  0  0  0  0  0  0  0  0  0
    5.8310    2.4350   21.4870 C   0  0  0  0  0  0  0  0  0  0  0  0
    5.6920    2.1700   22.8500 C   0  0  0  0  0  0  0  0  0  0  0  0
    6.7890    1.4180   23.2470 C   0  0  0  0  0  0  0  0  0  0  0  0
    7.5720    1.3020   22.0520 N   0  0  0  0  0  0  0  0  0  0  0  0
    8.4210    0.1010   21.8780 C   0  0  0  0  0  0  0  0  0  0  0  0
    9.7050    0.1910   22.7090 C   0  0  0  0  0  0  0  0  0  0  0  0
    9.7380    0.9450   23.6610 O   0  0  0  0  0  0  0  0  0  0  0  0
   10.8380   -0.6690   22.2980 N   0  0  0  0  0  0  0  0  0  0  0  0
   10.7010   -2.0140   22.4510 C   0  0  0  0  0  0  0  0  0  0  0  0
   10.6500   -2.4420   23.8350 C   0  0  0  0  0  0  0  0  0  0  0  0
   11.9010   -2.2200   24.4860 O   0  0  0  0  0  0  0  0  0  0  0  0
   12.7280   -1.2820   23.7820 C   0  0  0  0  0  0  0  0  0  0  0  0
   12.0770   -0.1990   22.9100 C   0  0  0  0  0  0  0  0  0  0  0  0
    5.7580   -3.9300   20.4010 C   0  0  0  0  0  0  0  0  0  0  0  0
    5.6030   -5.0930   20.0770 O   0  0  0  0  0  0  0  0  0  0  0  0
    5.9630   -4.4540   21.6870 N   0  0  0  0  0  0  0  0  0  0  0  0
    7.0310   -3.9880   22.5930 C   0  0  0  0  0  0  0  0  0  0  0  0
    6.8740   -4.6250   23.9770 C   0  0  0  0  0  0  0  0  0  0  0  0
    5.7530   -5.3680   24.3290 N   0  0  0  0  0  0  0  0  0  0  0  0
    5.1410   -5.4440   25.9280 S   0  0  0  0  0  0  0  0  0  0  0  0
    4.5780   -6.7610   26.1180 O   0  0  0  0  0  0  0  0  0  0  0  0
    6.1400   -4.9280   26.8300 O   0  0  0  0  0  0  0  0  0  0  0  0
    3.7850   -4.3000   25.9490 C   0  0  0  0  0  0  0  0  0  0  0  0
    4.0610   -2.9450   26.3400 C   0  0  0  0  0  0  0  0  0  0  0  0
    2.9810   -1.8500   26.4070 C   0  0  0  0  0  0  0  0  0  0  0  0
    1.5750   -2.2570   26.0400 C   0  0  0  0  0  0  0  0  0  0  0  0
    1.3500   -3.6970   25.6350 C   0  0  0  0  0  0  0  0  0  0  0  0
    2.4870   -4.7370   25.5910 C   0  0  0  0  0  0  0  0  0  0  0  0
    4.8720   -5.8540   23.2220 C   0  0  0  0  0  0  0  0  0  0  0  0
    5.5490   -5.8180   22.0130 C   0  0  0  0  0  0  0  0  0  0  0  0
  1  2  2  0
  2  3  1  0
  3  4  1  0
  4  5  1  0
  6  5  1  6
  6  7  1  0
  7  8  1  0
  8  9  1  0
  6 10  1  0
  9 10  1  0
 10 11  1  0
 11 12  1  0
 12 13  2  0
 12 14  1  0
 14 15  1  0
 15 16  1  0
 16 17  1  0
 17 18  1  0
 14 19  1  0
 18 19  1  0
  2 20  1  0
 20 21  2  0
 20 22  1  0
 22 23  1  0
 23 24  1  0
 24 25  1  0
 25 26  1  0
 26 27  2  0
 26 28  2  0
 26 29  1  0
 29 30  2  0
 30 31  1  0
 31 32  2  0
 32 33  1  0
 29 34  1  0
 33 34  2  0
 25 35  1  0
 22 36  1  0
 35 36  1  0
M  END
