SCO-CSI-071a6f1c-1
     RDKit          3D

 30 32  0  0  0  0  0  0  0  0999 V2000
   12.8550   -2.2420   21.8010 C   0  0  0  0  0  0  0  0  0  0  0  0
   11.9580   -2.1890   23.0080 C   0  0  0  0  0  0  0  0  0  0  0  0
   12.1480   -2.9340   23.9720 O   0  0  0  0  0  0  0  0  0  0  0  0
   10.9550   -1.2610   22.9890 N   0  0  0  0  0  0  0  0  0  0  0  0
   11.4100    0.1080   22.9200 C   0  0  0  0  0  0  0  0  0  0  0  0
   10.0840    0.7980   22.8000 C   0  0  0  0  0  0  0  0  0  0  0  0
    9.0690   -0.0990   23.1020 C   0  0  0  0  0  0  0  0  0  0  0  0
    9.5870   -1.2990   23.6020 C   0  0  1  0  0  0  0  0  0  0  0  0
    8.8250   -2.4230   23.2520 C   0  0  0  0  0  0  0  0  0  0  0  0
    9.1810   -2.9380   21.9720 O   0  0  0  0  0  0  0  0  0  0  0  0
    8.4020   -2.4620   20.8690 C   0  0  0  0  0  0  0  0  0  0  0  0
    6.9370   -2.4360   21.0270 C   0  0  0  0  0  0  0  0  0  0  0  0
    6.3060   -1.4260   21.3090 O   0  0  0  0  0  0  0  0  0  0  0  0
    6.1690   -3.7470   20.8110 C   0  0  0  0  0  0  0  0  0  0  0  0
    5.6440   -3.9480   19.7080 O   0  0  0  0  0  0  0  0  0  0  0  0
    6.0720   -4.6340   21.8700 N   0  0  0  0  0  0  0  0  0  0  0  0
    7.2660   -4.9300   22.6240 C   0  0  0  0  0  0  0  0  0  0  0  0
    6.9960   -4.9970   24.1090 C   0  0  0  0  0  0  0  0  0  0  0  0
    5.5660   -5.2290   24.4110 N   0  0  0  0  0  0  0  0  0  0  0  0
    5.0480   -5.3820   26.0270 S   0  0  0  0  0  0  0  0  0  0  0  0
    4.6870   -6.7690   26.2160 O   0  0  0  0  0  0  0  0  0  0  0  0
    5.9930   -4.7130   26.8900 O   0  0  0  0  0  0  0  0  0  0  0  0
    3.5620   -4.4190   25.9720 C   0  0  0  0  0  0  0  0  0  0  0  0
    3.3300   -3.0300   26.2340 C   0  0  0  0  0  0  0  0  0  0  0  0
    3.2100   -1.7950   26.4820 C   0  0  0  0  0  0  0  0  0  0  0  0
    1.7770   -2.2930   26.1170 C   0  0  0  0  0  0  0  0  0  0  0  0
    1.3980   -3.6720   25.7460 C   0  0  0  0  0  0  0  0  0  0  0  0
    2.3000   -4.7910   25.6630 C   0  0  0  0  0  0  0  0  0  0  0  0
    4.9790   -6.2050   23.4700 C   0  0  0  0  0  0  0  0  0  0  0  0
    4.9520   -5.5500   22.1070 C   0  0  0  0  0  0  0  0  0  0  0  0
  1  2  1  0
  2  3  2  0
  2  4  1  0
  4  5  1  0
  5  6  1  0
  6  7  1  0
  4  8  1  0
  7  8  1  0
  8  9  1  6
  9 10  1  0
 10 11  1  0
 11 12  1  0
 12 13  2  0
 12 14  1  0
 14 15  2  0
 14 16  1  0
 16 17  1  0
 17 18  1  0
 18 19  1  0
 19 20  1  0
 20 21  2  0
 20 22  2  0
 20 23  1  0
 23 24  2  0
 24 25  1  0
 25 26  2  0
 26 27  1  0
 23 28  1  0
 27 28  2  0
 19 29  1  0
 16 30  1  0
 29 30  1  0
M  END
