SEA-TRI-146a67b6-1
     RDKit          3D

 24 26  0  0  0  0  0  0  0  0999 V2000
    5.4680   -0.4610   18.3440 C   0  0  0  0  0  0  0  0  0  0  0  0
    5.7050   -1.6720   18.9920 C   0  0  0  0  0  0  0  0  0  0  0  0
    5.1210   -0.8750   20.0330 C   0  0  0  0  0  0  0  0  0  0  0  0
    5.9320    0.3530   20.3810 C   0  0  0  0  0  0  0  0  0  0  0  0
    5.7950    1.2750   21.5150 C   0  0  0  0  0  0  0  0  0  0  0  0
    6.7770    2.2050   21.3600 C   0  0  0  0  0  0  0  0  0  0  0  0
    7.5050    1.9280   20.2220 O   0  0  0  0  0  0  0  0  0  0  0  0
    7.0420    0.8710   19.6270 N   0  0  0  0  0  0  0  0  0  0  0  0
    5.7660   -2.6800   19.9810 C   0  0  0  0  0  0  0  0  0  0  0  0
    5.2400   -4.0140   19.7140 O   0  0  0  0  0  0  0  0  0  0  0  0
    6.4170   -2.2960   21.1440 N   0  0  0  0  0  0  0  0  0  0  0  0
    6.2650   -3.1340   22.3510 C   0  0  0  0  0  0  0  0  0  0  0  0
    7.5080   -3.4890   22.8880 C   0  0  0  0  0  0  0  0  0  0  0  0
    8.3950   -2.3290   23.0950 N   0  0  0  0  0  0  0  0  0  0  0  0
    9.5510   -2.6870   23.8870 C   0  0  0  0  0  0  0  0  0  0  0  0
   10.6610   -1.9600   23.4770 C   0  0  0  0  0  0  0  0  0  0  0  0
   11.0930   -0.8870   24.1830 C   0  0  0  0  0  0  0  0  0  0  0  0
   12.2350   -0.1370   23.8060 C   0  0  0  0  0  0  0  0  0  0  0  0
   12.9200   -0.4540   22.7570 C   0  0  0  0  0  0  0  0  0  0  0  0
   12.4990   -1.5060   22.0650 C   0  0  0  0  0  0  0  0  0  0  0  0
   13.4500   -1.8140   20.7890 Cl  0  0  0  0  0  0  0  0  0  0  0  0
   11.3910   -2.2720   22.3730 C   0  0  0  0  0  0  0  0  0  0  0  0
    8.5800   -1.6320   21.8920 C   0  0  0  0  0  0  0  0  0  0  0  0
    7.4480   -1.2490   21.1690 C   0  0  0  0  0  0  0  0  0  0  0  0
  1  2  2  3
  2  3  1  0
  3  4  1  0
  4  5  1  0
  5  6  2  0
  6  7  1  0
  4  8  2  0
  7  8  1  0
  2  9  1  0
  9 10  2  0
  9 11  1  0
 11 12  1  0
 12 13  1  0
 13 14  1  0
 14 15  1  0
 15 16  1  0
 16 17  2  0
 17 18  1  0
 18 19  2  0
 19 20  1  0
 20 21  1  0
 16 22  1  0
 20 22  2  0
 14 23  1  0
 11 24  1  0
 23 24  1  0
M  END
