SEA-TRI-2dd971ce-1
     RDKit          3D

 22 23  0  0  0  0  0  0  0  0999 V2000
    6.5110   -1.4010   25.8800 C   0  0  0  0  0  0  0  0  0  0  0  0
    6.7720   -1.6730   24.5860 C   0  0  0  0  0  0  0  0  0  0  0  0
    6.1900   -0.8940   23.4700 C   0  0  0  0  0  0  0  0  0  0  0  0
    5.5660    0.1350   23.6890 O   0  0  0  0  0  0  0  0  0  0  0  0
    6.3270   -1.3350   21.9810 C   0  0  0  0  0  0  0  0  0  0  0  0
    7.0490   -0.5550   21.1390 N   0  0  0  0  0  0  0  0  0  0  0  0
    8.1410    0.0620   21.6340 C   0  0  0  0  0  0  0  0  0  0  0  0
    8.7030    1.2840   21.1070 O   0  0  0  0  0  0  0  0  0  0  0  0
    8.7330   -0.6200   22.7620 N   0  0  0  0  0  0  0  0  0  0  0  0
   10.0630   -0.4440   22.9010 C   0  0  0  0  0  0  0  0  0  0  0  0
   10.4430    0.6120   23.7450 C   0  0  0  0  0  0  0  0  0  0  0  0
   11.9490    0.8260   23.8810 C   0  0  0  0  0  0  0  0  0  0  0  0
   12.8480   -0.1040   23.1170 C   0  0  0  0  0  0  0  0  0  0  0  0
   12.2530   -1.1740   22.2750 C   0  0  0  0  0  0  0  0  0  0  0  0
   13.1590   -2.2850   21.3600 Cl  0  0  0  0  0  0  0  0  0  0  0  0
   10.9060   -1.2880   22.2090 C   0  0  0  0  0  0  0  0  0  0  0  0
    6.3600    0.1110   20.0640 C   0  0  0  0  0  0  0  0  0  0  0  0
    5.1960    0.8640   20.2440 C   0  0  0  0  0  0  0  0  0  0  0  0
    4.5680    1.4970   19.2320 N   0  0  0  0  0  0  0  0  0  0  0  0
    5.1250    1.3660   18.0120 C   0  0  0  0  0  0  0  0  0  0  0  0
    6.2310    0.6630   17.7220 N   0  0  0  0  0  0  0  0  0  0  0  0
    6.8210    0.0520   18.7590 C   0  0  0  0  0  0  0  0  0  0  0  0
  1  2  2  3
  2  3  1  0
  3  4  2  0
  3  5  1  0
  5  6  1  0
  6  7  1  0
  7  8  2  0
  7  9  1  0
  9 10  1  0
 10 11  2  0
 11 12  1  0
 12 13  2  0
 13 14  1  0
 14 15  1  0
 10 16  1  0
 14 16  2  0
  6 17  1  0
 17 18  2  0
 18 19  1  0
 19 20  2  0
 20 21  1  0
 17 22  1  0
 21 22  2  0
M  END
