SEA-TRI-9e600f3c-1
     RDKit          3D

 24 26  0  0  0  0  0  0  0  0999 V2000
    5.8310   -0.2360   18.5250 C   0  0  0  0  0  0  0  0  0  0  0  0
    6.1110   -1.5890   19.1110 C   0  0  0  0  0  0  0  0  0  0  0  0
    5.1540   -1.0140   19.9670 C   0  0  0  0  0  0  0  0  0  0  0  0
    5.1280    0.3770   20.0340 C   0  0  0  0  0  0  0  0  0  0  0  0
    4.3910    1.2490   19.1240 C   0  0  0  0  0  0  0  0  0  0  0  0
    4.5240    2.5720   19.4080 C   0  0  0  0  0  0  0  0  0  0  0  0
    5.4250    2.5670   20.6070 N   0  0  0  0  0  0  0  0  0  0  0  0
    5.7500    1.2060   20.9280 O   0  0  0  0  0  0  0  0  0  0  0  0
    5.9610   -2.6330   20.0490 C   0  0  0  0  0  0  0  0  0  0  0  0
    5.3520   -3.8620   19.7270 O   0  0  0  0  0  0  0  0  0  0  0  0
    6.4870   -2.4240   21.2740 N   0  0  0  0  0  0  0  0  0  0  0  0
    6.2790   -3.3140   22.2840 C   0  0  0  0  0  0  0  0  0  0  0  0
    7.5700   -3.7850   22.9300 C   0  0  0  0  0  0  0  0  0  0  0  0
    8.3590   -2.6070   23.2380 N   0  0  0  0  0  0  0  0  0  0  0  0
    9.5240   -2.7210   23.9930 C   0  0  0  0  0  0  0  0  0  0  0  0
   10.6830   -2.0520   23.5840 C   0  0  0  0  0  0  0  0  0  0  0  0
   11.2010   -1.0800   24.3650 C   0  0  0  0  0  0  0  0  0  0  0  0
   12.3690   -0.3700   24.0030 C   0  0  0  0  0  0  0  0  0  0  0  0
   12.9800   -0.6540   22.8970 C   0  0  0  0  0  0  0  0  0  0  0  0
   12.4910   -1.6090   22.1370 C   0  0  0  0  0  0  0  0  0  0  0  0
   13.3910   -1.8670   20.8050 Cl  0  0  0  0  0  0  0  0  0  0  0  0
   11.3420   -2.3360   22.4210 C   0  0  0  0  0  0  0  0  0  0  0  0
    8.5950   -1.8050   22.0410 C   0  0  0  0  0  0  0  0  0  0  0  0
    7.4310   -1.3060   21.4740 C   0  0  0  0  0  0  0  0  0  0  0  0
  1  2  2  3
  2  3  1  0
  3  4  1  0
  4  5  2  0
  5  6  1  0
  6  7  2  0
  4  8  1  0
  7  8  1  0
  2  9  1  0
  9 10  2  0
  9 11  1  0
 11 12  1  0
 12 13  1  0
 13 14  1  0
 14 15  1  0
 15 16  1  0
 16 17  2  0
 17 18  1  0
 18 19  2  0
 19 20  1  0
 20 21  1  0
 16 22  1  0
 20 22  2  0
 14 23  1  0
 11 24  1  0
 23 24  1  0
M  END
