SEA-TRI-04ff6e57-1
     RDKit          3D

 23 25  0  0  0  0  0  0  0  0999 V2000
    8.7700    0.5990   21.4550 O   0  0  0  0  0  0  0  0  0  0  0  0
    8.2140   -0.3790   21.9710 C   0  0  0  0  0  0  0  0  0  0  0  0
    7.0470   -0.8720   21.3720 N   0  0  0  0  0  0  0  0  0  0  0  0
    6.4470   -0.2490   20.2740 C   0  0  0  0  0  0  0  0  0  0  0  0
    5.3010    0.4180   20.5030 C   0  0  0  0  0  0  0  0  0  0  0  0
    4.5920    1.1020   19.5280 N   0  0  0  0  0  0  0  0  0  0  0  0
    5.1580    1.0530   18.2750 C   0  0  0  0  0  0  0  0  0  0  0  0
    6.2870    0.4160   17.9570 N   0  0  0  0  0  0  0  0  0  0  0  0
    6.9080   -0.2270   18.9680 C   0  0  0  0  0  0  0  0  0  0  0  0
    8.8230   -0.9310   23.1760 N   0  0  0  0  0  0  0  0  0  0  0  0
   10.1960   -0.6180   23.1010 C   0  0  0  0  0  0  0  0  0  0  0  0
   10.6900    0.4480   23.8050 C   0  0  0  0  0  0  0  0  0  0  0  0
   12.0360    0.7770   23.7250 C   0  0  0  0  0  0  0  0  0  0  0  0
   12.8550    0.0010   22.9290 C   0  0  0  0  0  0  0  0  0  0  0  0
   12.3310   -1.0770   22.2290 C   0  0  0  0  0  0  0  0  0  0  0  0
   13.2430   -2.0790   21.2250 Cl  0  0  0  0  0  0  0  0  0  0  0  0
   11.0070   -1.3850   22.3130 C   0  0  0  0  0  0  0  0  0  0  0  0
    8.6150   -2.1550   23.9280 C   0  0  0  0  0  0  0  0  0  0  0  0
    8.5680   -2.5140   25.4270 C   0  0  0  0  0  0  0  0  0  0  0  0
    8.3620   -3.9920   25.6740 C   0  0  0  0  0  0  0  0  0  0  0  0
    8.4540   -3.2760   24.6700 C   0  0  0  0  0  0  0  0  0  0  0  0
    8.6860   -1.6090   24.9870 Cl  0  0  0  0  0  0  0  0  0  0  0  0
    8.3870   -3.6440   23.1190 S   0  0  0  0  0  0  0  0  0  0  0  0
  1  2  2  0
  2  3  1  0
  3  4  1  0
  4  5  2  0
  5  6  1  0
  6  7  2  0
  7  8  1  0
  4  9  1  0
  8  9  2  0
  2 10  1  0
 10 11  1  0
 11 12  2  0
 12 13  1  0
 13 14  2  0
 14 15  1  0
 15 16  1  0
 11 17  1  0
 15 17  2  0
 10 18  1  0
 18 19  2  0
 19 20  1  0
 20 21  2  0
 21 22  1  0
 18 23  1  0
 21 23  1  0
M  END
