SEA-TRI-8ad086cf-1
     RDKit          3D

 28 30  0  0  0  0  0  0  0  0999 V2000
    8.7240   -5.1240   26.1560 C   0  0  0  0  0  0  0  0  0  0  0  0
    8.5280   -3.8400   25.3860 C   0  0  0  0  0  0  0  0  0  0  0  0
    7.7400   -2.7500   25.8180 C   0  0  0  0  0  0  0  0  0  0  0  0
    7.7390   -1.6690   24.9280 C   0  0  0  0  0  0  0  0  0  0  0  0
    8.5100   -1.9110   23.8230 C   0  0  0  0  0  0  0  0  0  0  0  0
    8.7840   -1.0920   22.7760 N   0  0  0  0  0  0  0  0  0  0  0  0
    8.0120   -0.3460   21.9250 C   0  0  0  0  0  0  0  0  0  0  0  0
    8.3920    0.7850   21.5990 O   0  0  0  0  0  0  0  0  0  0  0  0
    6.8190   -0.8750   21.3890 N   0  0  0  0  0  0  0  0  0  0  0  0
    6.0240   -1.8520   21.9780 C   0  0  0  0  0  0  0  0  0  0  0  0
    5.4160   -1.3940   23.0940 C   0  0  0  0  0  0  0  0  0  0  0  0
    5.4130   -0.2130   23.4350 O   0  0  0  0  0  0  0  0  0  0  0  0
    4.7190   -2.4590   23.9050 C   0  0  0  0  0  0  0  0  0  0  0  0
    4.0790   -1.6830   25.3670 Cl  0  0  0  0  0  0  0  0  0  0  0  0
    6.3000   -0.1590   20.1860 C   0  0  0  0  0  0  0  0  0  0  0  0
    5.0140    0.6570   20.3270 C   0  0  0  0  0  0  0  0  0  0  0  0
    4.5330    1.3370   19.1960 C   0  0  0  0  0  0  0  0  0  0  0  0
    5.2760    1.2120   18.0260 C   0  0  0  0  0  0  0  0  0  0  0  0
    6.4010    0.5160   17.8410 N   0  0  0  0  0  0  0  0  0  0  0  0
    6.8900   -0.1580   18.9190 C   0  0  0  0  0  0  0  0  0  0  0  0
   10.1120   -0.6900   22.8500 C   0  0  0  0  0  0  0  0  0  0  0  0
   10.4830    0.4700   23.6790 C   0  0  0  0  0  0  0  0  0  0  0  0
   11.9370    0.8570   23.7080 C   0  0  0  0  0  0  0  0  0  0  0  0
   12.8720   -0.0010   22.8770 C   0  0  0  0  0  0  0  0  0  0  0  0
   12.3820   -1.1070   22.1180 C   0  0  0  0  0  0  0  0  0  0  0  0
   13.2970   -2.1190   21.1560 Cl  0  0  0  0  0  0  0  0  0  0  0  0
   11.0490   -1.3770   22.1530 C   0  0  0  0  0  0  0  0  0  0  0  0
    9.2460   -3.5110   23.8600 S   0  0  0  0  0  0  0  0  0  0  0  0
  1  2  1  0
  2  3  2  0
  3  4  1  0
  4  5  2  0
  5  6  1  0
  6  7  1  0
  7  8  2  0
  7  9  1  0
  9 10  1  0
 10 11  1  0
 11 12  2  0
 11 13  1  0
 13 14  1  0
  9 15  1  0
 15 16  2  0
 16 17  1  0
 17 18  2  0
 18 19  1  0
 15 20  1  0
 19 20  2  0
  6 21  1  0
 21 22  2  0
 22 23  1  0
 23 24  2  0
 24 25  1  0
 25 26  1  0
 21 27  1  0
 25 27  2  0
  2 28  1  0
  5 28  1  0
M  END
