SEL-UNI-8426c22c-1
     RDKit          3D

 28 30  0  0  0  0  0  0  0  0999 V2000
    5.9070   -1.5080   18.4880 C   0  0  0  0  0  0  0  0  0  0  0  0
    5.1000   -1.1860   19.7400 C   0  0  0  0  0  0  0  0  0  0  0  0
    4.3030   -0.2450   19.7230 O   0  0  0  0  0  0  0  0  0  0  0  0
    5.3180   -1.9440   20.8890 N   0  0  0  0  0  0  0  0  0  0  0  0
    5.4710   -3.4340   20.8430 C   0  0  0  0  0  0  0  0  0  0  0  0
    5.1340   -4.1870   19.7480 O   0  0  0  0  0  0  0  0  0  0  0  0
    5.9850   -4.1350   21.9150 N   0  0  0  0  0  0  0  0  0  0  0  0
    7.1030   -3.6810   22.3570 C   0  0  0  0  0  0  0  0  0  0  0  0
    7.6250   -4.5520   23.2160 C   0  0  0  0  0  0  0  0  0  0  0  0
    8.7910   -4.2630   23.7750 C   0  0  0  0  0  0  0  0  0  0  0  0
    9.5610   -3.1380   23.5790 C   0  0  0  0  0  0  0  0  0  0  0  0
   10.7930   -2.9050   24.1780 C   0  0  0  0  0  0  0  0  0  0  0  0
    8.9560   -2.1420   22.6060 C   0  0  0  0  0  0  0  0  0  0  0  0
    7.7420   -2.4890   22.0450 C   0  0  0  0  0  0  0  0  0  0  0  0
    5.1410   -4.9300   22.7070 C   0  0  2  0  0  0  0  0  0  0  0  0
    5.0070   -4.4180   24.1610 C   0  0  0  0  0  0  0  0  0  0  0  0
    4.3050   -5.5280   24.8560 C   0  0  0  0  0  0  0  0  0  0  0  0
    3.9840   -6.8860   23.8310 S   0  0  0  0  0  0  0  0  0  0  0  0
    2.6820   -6.7380   23.2130 O   0  0  0  0  0  0  0  0  0  0  0  0
    4.3400   -8.0320   24.6170 O   0  0  0  0  0  0  0  0  0  0  0  0
    5.3230   -6.3250   22.7330 C   0  0  0  0  0  0  0  0  0  0  0  0
    5.9550   -0.9780   21.8760 C   0  0  0  0  0  0  0  0  0  0  0  0
    6.9230   -0.0640   21.4250 C   0  0  0  0  0  0  0  0  0  0  0  0
    7.5960    0.8940   22.1040 N   0  0  0  0  0  0  0  0  0  0  0  0
    7.9290    0.6160   23.3810 C   0  0  0  0  0  0  0  0  0  0  0  0
    6.7120    0.0370   24.0950 C   0  0  0  0  0  0  0  0  0  0  0  0
    5.6740   -0.7900   23.3510 C   0  0  0  0  0  0  0  0  0  0  0  0
    4.5910   -1.2590   24.0960 C   0  0  0  0  0  0  0  0  0  0  0  0
  1  2  1  0
  2  3  2  0
  2  4  1  0
  4  5  1  0
  5  6  2  0
  5  7  1  0
  7  8  1  0
  8  9  2  0
  9 10  1  0
 10 11  2  0
 11 12  1  0
 11 13  1  0
  8 14  1  0
 13 14  2  0
 15  7  1  1
 15 16  1  0
 16 17  2  0
 18 17  1  0
 18 19  2  0
 18 20  2  0
 15 21  1  0
 18 21  1  0
  4 22  1  0
 22 23  2  0
 23 24  1  0
 24 25  1  0
 25 26  1  0
 22 27  1  0
 26 27  2  0
 27 28  1  0
M  END
