SEL-UNI-c5c112eb-2
     RDKit          3D

 30 32  0  0  0  0  0  0  0  0999 V2000
    6.9780   -6.4490   22.3040 C   0  0  0  0  0  0  0  0  0  0  0  0
    5.6350   -6.1160   22.8600 C   0  0  0  0  0  0  0  0  0  0  0  0
    5.0670   -6.9230   23.5890 O   0  0  0  0  0  0  0  0  0  0  0  0
    5.1430   -4.8680   22.5030 N   0  0  0  0  0  0  0  0  0  0  0  0
    5.5770   -4.0520   21.3780 C   0  0  0  0  0  0  0  0  0  0  0  0
    4.9640   -4.0210   20.3380 O   0  0  0  0  0  0  0  0  0  0  0  0
    6.6970   -3.3010   21.5010 N   0  0  0  0  0  0  0  0  0  0  0  0
    6.8640   -1.8900   21.1950 C   0  0  0  0  0  0  0  0  0  0  0  0
    7.1180   -1.2570   22.4120 C   0  0  0  0  0  0  0  0  0  0  0  0
    6.9660   -2.1410   23.4730 N   0  0  0  0  0  0  0  0  0  0  0  0
    7.1070   -1.5610   25.0140 S   0  0  0  0  0  0  0  0  0  0  0  0
    8.5240   -1.5050   25.1220 O   0  0  0  0  0  0  0  0  0  0  0  0
    6.1710   -0.4890   25.2450 O   0  0  0  0  0  0  0  0  0  0  0  0
    6.5790   -3.0140   25.8240 C   0  0  0  0  0  0  0  0  0  0  0  0
    6.4600   -4.1620   25.0990 C   0  0  0  0  0  0  0  0  0  0  0  0
    6.0310   -5.4020   25.7880 C   0  0  0  0  0  0  0  0  0  0  0  0
    5.7450   -5.3140   27.2710 C   0  0  0  0  0  0  0  0  0  0  0  0
    5.2470   -6.7360   28.1070 Cl  0  0  0  0  0  0  0  0  0  0  0  0
    5.8690   -4.0150   27.9920 C   0  0  0  0  0  0  0  0  0  0  0  0
    5.7890   -3.1850   29.1300 C   0  0  0  0  0  0  0  0  0  0  0  0
    6.2930   -2.9700   27.1720 C   0  0  0  0  0  0  0  0  0  0  0  0
    7.9770   -3.1710   23.4090 C   0  0  0  0  0  0  0  0  0  0  0  0
    7.8050   -3.8100   22.0970 C   0  0  0  0  0  0  0  0  0  0  0  0
    3.8880   -4.5320   23.2830 C   0  0  0  0  0  0  0  0  0  0  0  0
    2.7930   -5.5840   23.2430 C   0  0  0  0  0  0  0  0  0  0  0  0
    1.6100   -5.4030   23.9280 N   0  0  0  0  0  0  0  0  0  0  0  0
    1.6080   -4.6530   25.1810 C   0  0  0  0  0  0  0  0  0  0  0  0
    2.3600   -3.4250   25.0960 C   0  0  0  0  0  0  0  0  0  0  0  0
    3.5450   -3.3590   24.1150 C   0  0  0  0  0  0  0  0  0  0  0  0
    4.2640   -2.0250   24.1050 C   0  0  0  0  0  0  0  0  0  0  0  0
  1  2  1  0
  2  3  2  0
  2  4  1  0
  4  5  1  0
  5  6  2  0
  5  7  1  0
  7  8  1  0
  8  9  1  0
  9 10  1  0
 10 11  1  0
 11 12  2  0
 11 13  2  0
 11 14  1  0
 14 15  2  0
 15 16  1  0
 16 17  2  0
 17 18  1  0
 17 19  1  0
 19 20  1  0
 14 21  1  0
 19 21  2  0
 10 22  1  0
  7 23  1  0
 22 23  1  0
  4 24  1  0
 24 25  2  0
 25 26  1  0
 26 27  1  0
 27 28  1  0
 24 29  1  0
 28 29  2  0
 29 30  1  0
M  END
