SER-UNI-985a0e14-2
     RDKit          3D

 20 21  0  0  0  0  0  0  0  0999 V2000
    8.1740    1.5370   21.0830 O   0  0  0  0  0  0  0  0  0  0  0  0
    7.2940    1.4190   21.9620 C   0  0  0  0  0  0  0  0  0  0  0  0
    7.1650    0.3150   22.7470 C   0  0  0  0  0  0  0  0  0  0  0  0
    7.9480   -0.8220   22.2620 N   0  0  0  0  0  0  0  0  0  0  0  0
    9.3280   -0.5260   22.4480 C   0  0  0  0  0  0  0  0  0  0  0  0
    9.6280    0.8240   22.6280 C   0  0  0  0  0  0  0  0  0  0  0  0
   10.8910    1.2760   22.7880 C   0  0  0  0  0  0  0  0  0  0  0  0
   11.9530    0.2780   22.7770 C   0  0  0  0  0  0  0  0  0  0  0  0
   13.4770    0.8310   22.9400 Cl  0  0  0  0  0  0  0  0  0  0  0  0
   11.7160   -1.1070   22.6250 C   0  0  0  0  0  0  0  0  0  0  0  0
   13.0830   -2.3760   22.6430 Br  0  0  0  0  0  0  0  0  0  0  0  0
   10.3060   -1.5190   22.4440 C   0  0  0  0  0  0  0  0  0  0  0  0
    6.3440    2.4230   22.2220 N   0  0  0  0  0  0  0  0  0  0  0  0
    5.1360    2.2750   21.6530 C   0  0  0  0  0  0  0  0  0  0  0  0
    5.1170    1.5490   20.4700 C   0  0  0  0  0  0  0  0  0  0  0  0
    4.9660    2.2420   19.1230 C   0  0  0  0  0  0  0  0  0  0  0  0
    4.9930    1.4120   18.0490 C   0  0  0  0  0  0  0  0  0  0  0  0
    5.1560   -0.1050   18.1800 C   0  0  0  0  0  0  0  0  0  0  0  0
    5.2780   -0.7330   19.3710 N   0  0  0  0  0  0  0  0  0  0  0  0
    5.2630    0.0320   20.4710 C   0  0  0  0  0  0  0  0  0  0  0  0
  1  2  2  0
  2  3  1  0
  3  4  1  0
  4  5  1  0
  5  6  2  0
  6  7  1  0
  7  8  2  0
  8  9  1  0
  8 10  1  0
 10 11  1  0
  5 12  1  0
 10 12  2  0
  2 13  1  0
 13 14  1  0
 14 15  1  0
 15 16  2  0
 16 17  1  0
 17 18  2  0
 18 19  1  0
 15 20  1  0
 19 20  2  0
M  END
