SER-UNI-400afb01-3
     RDKit          3D

 24 26  0  0  0  0  0  0  0  0999 V2000
    4.4960   -1.2830   29.5350 Cl  0  0  0  0  0  0  0  0  0  0  0  0
    5.8080   -1.1340   28.4310 C   0  0  0  0  0  0  0  0  0  0  0  0
    6.0970    0.1650   27.7450 C   0  0  0  0  0  0  0  0  0  0  0  0
    7.2040    0.3000   26.8110 C   0  0  0  0  0  0  0  0  0  0  0  0
    8.0010   -0.8280   26.5670 C   0  0  0  0  0  0  0  0  0  0  0  0
    9.0840   -0.7590   25.6790 C   0  0  0  0  0  0  0  0  0  0  0  0
    9.1580    0.1780   24.8880 O   0  0  0  0  0  0  0  0  0  0  0  0
   10.1790   -0.0110   23.8830 C   0  0  1  0  0  0  0  0  0  0  0  0
    9.5180   -0.6280   22.7850 C   0  0  0  0  0  0  0  0  0  0  0  0
    8.2340    0.0020   22.4710 N   0  0  0  0  0  0  0  0  0  0  0  0
    7.2610    0.1140   21.3990 C   0  0  0  0  0  0  0  0  0  0  0  0
    7.2100   -0.5260   19.8720 C   0  0  0  0  0  0  0  0  0  0  0  0
    6.6960    0.1880   20.7970 N   0  0  0  0  0  0  0  0  0  0  0  0
    7.9990   -0.3770   21.2850 C   0  0  0  0  0  0  0  0  0  0  0  0
   10.7770    1.2110   23.6070 C   0  0  0  0  0  0  0  0  0  0  0  0
   12.1060    1.2220   23.2220 C   0  0  0  0  0  0  0  0  0  0  0  0
   12.8760    2.4660   22.8730 C   0  0  0  0  0  0  0  0  0  0  0  0
   12.2080    3.8200   22.9300 C   0  0  0  0  0  0  0  0  0  0  0  0
   13.0190    5.2820   22.5340 Cl  0  0  0  0  0  0  0  0  0  0  0  0
   10.7450    3.7990   23.3680 C   0  0  0  0  0  0  0  0  0  0  0  0
   10.0960    2.4400   23.6920 C   0  0  0  0  0  0  0  0  0  0  0  0
    8.4400    2.5170   24.1740 Cl  0  0  0  0  0  0  0  0  0  0  0  0
    7.7180   -2.0550   27.2220 C   0  0  0  0  0  0  0  0  0  0  0  0
    6.6330   -2.2110   28.1470 C   0  0  0  0  0  0  0  0  0  0  0  0
  1  2  1  0
  2  3  2  0
  3  4  1  0
  4  5  2  0
  5  6  1  0
  6  7  1  0
  7  8  1  0
  8  9  1  6
  9 10  1  0
 10 11  1  0
 11 12  2  0
 12 13  1  0
 10 14  1  0
 13 14  2  0
  8 15  1  0
 15 16  2  0
 16 17  1  0
 17 18  2  0
 18 19  1  0
 18 20  1  0
 15 21  1  0
 20 21  2  0
 21 22  1  0
  5 23  1  0
  2 24  1  0
 23 24  2  0
M  END
