SER-UNI-400afb01-2
     RDKit          3D

 37 41  0  0  0  0  0  0  0  0999 V2000
   13.1460    3.7470   22.7430 C   0  0  0  0  0  0  0  0  0  0  0  0
   12.0600    2.7180   22.9190 C   0  0  0  0  0  0  0  0  0  0  0  0
   10.7790    3.2330   23.1240 C   0  0  0  0  0  0  0  0  0  0  0  0
    9.6920    2.3830   23.2370 C   0  0  0  0  0  0  0  0  0  0  0  0
    9.7970    1.0350   23.1620 C   0  0  0  0  0  0  0  0  0  0  0  0
    8.6030    0.3990   23.2320 N   0  0  0  0  0  0  0  0  0  0  0  0
    8.0860    0.9530   22.0760 C   0  0  0  0  0  0  0  0  0  0  0  0
    8.9220    1.5340   21.0630 O   0  0  0  0  0  0  0  0  0  0  0  0
    6.7240    1.2140   21.6020 C   0  0  0  0  0  0  0  0  0  0  0  0
    6.4460    1.2100   20.2610 C   0  0  0  0  0  0  0  0  0  0  0  0
    5.0900    1.4890   19.8020 C   0  0  0  0  0  0  0  0  0  0  0  0
    4.1000    1.7530   20.6610 C   0  0  0  0  0  0  0  0  0  0  0  0
    2.7340    2.0400   20.1860 C   0  0  0  0  0  0  0  0  0  0  0  0
    2.2280    3.3790   20.4940 N   0  0  0  0  0  0  0  0  0  0  0  0
    1.8450    3.6170   21.8300 C   0  0  0  0  0  0  0  0  0  0  0  0
    0.3810    3.1770   22.0270 C   0  0  0  0  0  0  0  0  0  0  0  0
   -0.5130    3.7960   21.2030 N   0  0  0  0  0  0  0  0  0  0  0  0
   -1.8870    3.6530   21.7050 C   0  0  0  0  0  0  0  0  0  0  0  0
   -0.1470    3.5270   19.8910 C   0  0  0  0  0  0  0  0  0  0  0  0
    1.2930    3.8920   19.5630 C   0  0  0  0  0  0  0  0  0  0  0  0
    4.4070    1.7470   22.0250 C   0  0  0  0  0  0  0  0  0  0  0  0
    5.6850    1.4840   22.4890 C   0  0  0  0  0  0  0  0  0  0  0  0
   11.0450    0.4850   22.9980 C   0  0  0  0  0  0  0  0  0  0  0  0
   12.1700    1.3230   22.8770 C   0  0  0  0  0  0  0  0  0  0  0  0
   13.1980    0.4490   22.6910 N   0  0  0  0  0  0  0  0  0  0  0  0
   12.3870   -0.5850   22.1360 C   0  0  0  0  0  0  0  0  0  0  0  0
   11.0660   -0.3540   22.2730 N   0  0  0  0  0  0  0  0  0  0  0  0
   10.2320   -1.2390   21.7970 C   0  0  0  0  0  0  0  0  0  0  0  0
   10.6650   -2.3590   21.2010 C   0  0  0  0  0  0  0  0  0  0  0  0
   12.0260   -2.5600   21.0650 C   0  0  0  0  0  0  0  0  0  0  0  0
   12.7580   -3.6550   20.6430 C   0  0  0  0  0  0  0  0  0  0  0  0
   12.4100   -5.0220   20.5320 C   0  0  0  0  0  0  0  0  0  0  0  0
   13.6150   -5.8820   20.4590 C   0  0  0  0  0  0  0  0  0  0  0  0
   14.8380   -5.5290   20.3170 C   0  0  0  0  0  0  0  0  0  0  0  0
   14.9960   -4.3300   20.2450 N   0  0  0  0  0  0  0  0  0  0  0  0
   13.9430   -3.4680   20.4320 C   0  0  0  0  0  0  0  0  0  0  0  0
   12.9010   -1.6430   21.5390 N   0  0  0  0  0  0  0  0  0  0  0  0
  1  2  1  0
  2  3  2  0
  3  4  1  0
  4  5  2  0
  5  6  1  0
  6  7  1  0
  7  8  2  0
  7  9  1  0
  9 10  2  0
 10 11  1  0
 11 12  2  0
 12 13  1  0
 13 14  1  0
 14 15  1  0
 15 16  1  0
 16 17  1  0
 17 18  1  0
 17 19  1  0
 14 20  1  0
 19 20  1  0
 12 21  1  0
  9 22  1  0
 21 22  2  0
  5 23  1  0
  2 24  1  0
 23 24  2  0
 24 25  1  0
 25 26  1  0
 26 27  2  0
 27 28  1  0
 28 29  2  0
 29 30  1  0
 30 31  1  0
 31 32  2  0
 32 33  1  0
 33 34  2  0
 34 35  1  0
 31 36  1  0
 35 36  2  0
 26 37  1  0
 30 37  2  0
M  END
