SER-UNI-985a0e14-4
     RDKit          3D

 27 30  0  0  0  0  0  0  0  0999 V2000
   12.8940    5.4440   23.1960 C   0  0  0  0  0  0  0  0  0  0  0  0
   12.6950    4.0690   22.6600 C   0  0  0  0  0  0  0  0  0  0  0  0
   11.3990    3.6010   22.7200 C   0  0  0  0  0  0  0  0  0  0  0  0
   10.6610    2.3340   22.8120 C   0  0  0  0  0  0  0  0  0  0  0  0
   11.2870    0.8670   22.8780 C   0  0  0  0  0  0  0  0  0  0  0  0
   10.0260    0.7140   22.8960 C   0  0  0  0  0  0  0  0  0  0  0  0
   10.0990    2.0880   22.8230 C   0  0  0  0  0  0  0  0  0  0  0  0
   11.5200    2.3850   22.8010 C   0  0  0  0  0  0  0  0  0  0  0  0
   12.6080    1.5230   22.8610 N   0  0  0  0  0  0  0  0  0  0  0  0
   12.4750    0.2840   23.5380 C   0  0  0  0  0  0  0  0  0  0  0  0
   13.2720   -0.7410   23.5110 N   0  0  0  0  0  0  0  0  0  0  0  0
   12.7670   -1.8240   24.3470 C   0  0  0  0  0  0  0  0  0  0  0  0
   13.6100   -3.0170   24.4040 N   0  0  0  0  0  0  0  0  0  0  0  0
   11.6270   -1.7910   25.0430 N   0  0  0  0  0  0  0  0  0  0  0  0
   10.9430   -0.6360   24.9430 C   0  0  0  0  0  0  0  0  0  0  0  0
    9.7250   -0.3440   25.6080 C   0  0  0  0  0  0  0  0  0  0  0  0
    8.2130   -0.4800   24.5800 S   0  0  0  0  0  0  0  0  0  0  0  0
    7.9700   -2.1320   24.1030 C   0  0  0  0  0  0  0  0  0  0  0  0
    8.9070   -3.0470   23.7500 N   0  0  0  0  0  0  0  0  0  0  0  0
    8.2400   -4.2110   23.4450 N   0  0  0  0  0  0  0  0  0  0  0  0
    6.9550   -4.0180   23.6020 C   0  0  0  0  0  0  0  0  0  0  0  0
    5.7570   -4.9540   23.4030 C   0  0  0  0  0  0  0  0  0  0  0  0
    4.3280   -4.5430   23.6340 C   0  0  0  0  0  0  0  0  0  0  0  0
    4.1850   -3.0850   24.0950 C   0  0  0  0  0  0  0  0  0  0  0  0
    5.4330   -2.1990   24.2750 C   0  0  0  0  0  0  0  0  0  0  0  0
    6.7140   -2.7070   24.0230 N   0  0  0  0  0  0  0  0  0  0  0  0
   11.3540    0.3540   24.2220 N   0  0  0  0  0  0  0  0  0  0  0  0
  1  2  1  0
  2  3  1  0
  3  4  2  0
  4  5  1  0
  5  6  2  0
  6  7  1  0
  3  8  1  0
  7  8  2  0
  8  9  1  0
  9 10  1  0
 10 11  2  0
 11 12  1  0
 12 13  1  0
 12 14  2  0
 14 15  1  0
 15 16  1  0
 16 17  1  0
 17 18  1  0
 18 19  2  0
 19 20  1  0
 20 21  2  0
 21 22  1  0
 22 23  2  0
 23 24  1  0
 24 25  2  0
 18 26  1  0
 21 26  1  0
 25 26  1  0
 10 27  1  0
 15 27  2  0
M  END
