SER-UNI-985a0e14-1
     RDKit          3D

 29 31  0  0  0  0  0  0  0  0999 V2000
   15.8070    1.6910   18.6620 C   0  0  0  0  0  0  0  0  0  0  0  0
   15.6930    3.0020   19.7460 S   0  0  0  0  0  0  0  0  0  0  0  0
   16.9940    3.2820   19.7390 O   0  0  0  0  0  0  0  0  0  0  0  0
   14.9080    3.9570   19.2170 O   0  0  0  0  0  0  0  0  0  0  0  0
   15.0570    2.2600   21.3260 N   0  0  0  0  0  0  0  0  0  0  0  0
   14.0370    1.1210   21.5260 C   0  0  0  0  0  0  0  0  0  0  0  0
   13.6310    0.4470   22.5440 C   0  0  0  0  0  0  0  0  0  0  0  0
   12.2810    0.7880   22.8870 C   0  0  0  0  0  0  0  0  0  0  0  0
   11.1610   -0.2660   22.9650 C   0  0  0  0  0  0  0  0  0  0  0  0
    9.6620    0.0470   23.3130 C   0  0  0  0  0  0  0  0  0  0  0  0
    8.7980   -1.1070   23.2760 N   0  0  0  0  0  0  0  0  0  0  0  0
    8.0390   -1.2840   22.0420 C   0  0  0  0  0  0  0  0  0  0  0  0
    6.6550   -1.9010   22.3240 C   0  0  0  0  0  0  0  0  0  0  0  0
    5.7340   -2.0390   21.2320 O   0  0  0  0  0  0  0  0  0  0  0  0
    6.3430   -2.2860   23.6420 N   0  0  0  0  0  0  0  0  0  0  0  0
    6.4050   -1.3230   24.7740 C   0  0  0  0  0  0  0  0  0  0  0  0
    7.7240   -0.9830   25.4570 C   0  0  0  0  0  0  0  0  0  0  0  0
    7.6830   -0.0090   26.5810 C   0  0  0  0  0  0  0  0  0  0  0  0
    6.4970    0.5950   27.0210 C   0  0  0  0  0  0  0  0  0  0  0  0
    5.1790    0.2870   26.3760 N   0  0  0  0  0  0  0  0  0  0  0  0
    5.1640   -0.5990   25.3420 C   0  0  0  0  0  0  0  0  0  0  0  0
    9.1740    1.3740   23.6270 C   0  0  0  0  0  0  0  0  0  0  0  0
    9.6920    2.6090   23.7060 C   0  0  0  0  0  0  0  0  0  0  0  0
   10.9440    3.1420   23.5170 C   0  0  0  0  0  0  0  0  0  0  0  0
   11.8370    2.1170   23.1720 N   0  0  0  0  0  0  0  0  0  0  0  0
   11.0590    0.8110   23.1510 C   0  0  0  0  0  0  0  0  0  0  0  0
   10.4660    2.1120   23.4550 C   0  0  0  0  0  0  0  0  0  0  0  0
   11.9220    2.0940   23.1340 C   0  0  0  0  0  0  0  0  0  0  0  0
   12.9820    3.4900   23.0500 Cl  0  0  0  0  0  0  0  0  0  0  0  0
  1  2  1  0
  2  3  2  0
  2  4  2  0
  2  5  1  0
  5  6  1  0
  6  7  1  0
  7  8  1  0
  8  9  2  0
  9 10  1  0
 10 11  1  0
 11 12  1  0
 12 13  1  0
 13 14  2  0
 13 15  1  0
 15 16  1  0
 16 17  2  0
 17 18  1  0
 18 19  2  0
 19 20  1  0
 16 21  1  0
 20 21  2  0
 10 22  2  0
 22 23  1  0
 23 24  2  0
 24 25  1  0
 25 26  2  0
 22 27  1  0
 26 27  1  0
  8 28  1  0
 27 28  2  0
 28 29  1  0
M  END
