SID-ELM-b654bfa2-12
     RDKit          3D

 20 22  0  0  0  0  0  0  0  0999 V2000
    9.1360    0.8790   21.6310 O   0  0  0  0  0  0  0  0  0  0  0  0
    8.6310   -0.2360   21.5560 C   0  0  0  0  0  0  0  0  0  0  0  0
    9.2850   -1.4840   22.0950 C   0  0  0  0  0  0  0  0  0  0  0  0
   10.4930   -1.3420   22.7840 C   0  0  0  0  0  0  0  0  0  0  0  0
   10.5810   -1.9520   24.1840 C   0  0  0  0  0  0  0  0  0  0  0  0
   12.0400   -2.2540   24.5260 C   0  0  0  0  0  0  0  0  0  0  0  0
   13.1250   -1.8740   23.7830 C   0  0  0  0  0  0  0  0  0  0  0  0
   12.8930   -1.5830   22.3750 C   0  0  0  0  0  0  0  0  0  0  0  0
   11.6350   -1.9230   21.9340 C   0  0  0  0  0  0  0  0  0  0  0  0
    7.3570   -0.5320   20.9530 N   0  0  0  0  0  0  0  0  0  0  0  0
    6.5540    0.2170   20.1730 C   0  0  0  0  0  0  0  0  0  0  0  0
    6.1540   -0.1630   18.8590 C   0  0  0  0  0  0  0  0  0  0  0  0
    6.6060   -1.3470   18.3870 F   0  0  0  0  0  0  0  0  0  0  0  0
    5.3060    0.5980   17.9620 N   0  0  0  0  0  0  0  0  0  0  0  0
    4.8390    1.7770   18.4210 C   0  0  0  0  0  0  0  0  0  0  0  0
    5.2890    1.9880   19.6790 N   0  0  0  0  0  0  0  0  0  0  0  0
    5.9310    0.6040   19.2470 N   0  0  0  0  0  0  0  0  0  0  0  0
    5.3270    0.8170   18.2000 C   0  0  0  0  0  0  0  0  0  0  0  0
    5.1830    1.7870   19.1810 C   0  0  0  0  0  0  0  0  0  0  0  0
    5.9540    1.4460   20.4370 C   0  0  0  0  0  0  0  0  0  0  0  0
  1  2  2  0
  2  3  1  0
  3  4  1  0
  4  5  1  0
  5  6  1  0
  6  7  1  0
  7  8  1  0
  4  9  1  0
  8  9  1  0
  2 10  1  0
 10 11  1  0
 11 12  2  0
 12 13  1  0
 12 14  1  0
 14 15  2  0
 15 16  1  0
 16 17  1  0
 17 18  2  0
 18 19  1  0
 11 20  1  0
 16 20  1  0
 19 20  2  0
M  END
