SID-ELM-2583a2cd-4
     RDKit          3D

 19 21  0  0  0  0  0  0  0  0999 V2000
    9.0900    1.6310   21.3210 O   0  0  0  0  0  0  0  0  0  0  0  0
    8.7040    0.5670   21.8060 C   0  0  0  0  0  0  0  0  0  0  0  0
    9.1650    0.0200   23.1350 C   0  0  0  0  0  0  0  0  0  0  0  0
   10.5760   -0.5300   23.0400 C   0  0  0  0  0  0  0  0  0  0  0  0
   10.6420   -1.3050   21.7730 C   0  0  0  0  0  0  0  0  0  0  0  0
   12.0410   -1.8160   21.6810 C   0  0  0  0  0  0  0  0  0  0  0  0
   12.9610   -1.1600   22.6770 C   0  0  0  0  0  0  0  0  0  0  0  0
   12.5210   -1.4880   23.9550 C   0  0  0  0  0  0  0  0  0  0  0  0
   11.1260   -1.3400   24.0210 C   0  0  0  0  0  0  0  0  0  0  0  0
    7.7810   -0.2700   21.2080 N   0  0  0  0  0  0  0  0  0  0  0  0
    6.8880    0.1580   20.2110 C   0  0  0  0  0  0  0  0  0  0  0  0
    6.7120   -0.4820   18.8470 C   0  0  0  0  0  0  0  0  0  0  0  0
    5.7980    0.0220   17.8480 N   0  0  0  0  0  0  0  0  0  0  0  0
    5.1040    1.1540   18.1650 C   0  0  0  0  0  0  0  0  0  0  0  0
    5.4940    1.3930   19.4070 N   0  0  0  0  0  0  0  0  0  0  0  0
    6.0010    0.4140   18.7270 N   0  0  0  0  0  0  0  0  0  0  0  0
    5.0770    1.3930   18.4870 C   0  0  0  0  0  0  0  0  0  0  0  0
    5.1210    2.1120   19.8720 C   0  0  0  0  0  0  0  0  0  0  0  0
    6.0760    1.3110   20.4990 C   0  0  0  0  0  0  0  0  0  0  0  0
  1  2  2  0
  2  3  1  0
  3  4  1  0
  4  5  1  0
  5  6  1  0
  6  7  1  0
  7  8  1  0
  4  9  1  0
  8  9  1  0
  2 10  1  0
 10 11  1  0
 11 12  2  0
 12 13  1  0
 13 14  2  0
 14 15  1  0
 15 16  1  0
 16 17  2  0
 17 18  1  0
 11 19  1  0
 15 19  1  0
 18 19  2  0
M  END
