SID-ELM-8b394441-1
     RDKit          3D

 17 18  0  0  0  0  0  0  0  0999 V2000
    8.7570    0.8990   21.3460 O   0  0  0  0  0  0  0  0  0  0  0  0
    8.3070   -0.1800   21.7380 C   0  0  0  0  0  0  0  0  0  0  0  0
    8.9470   -0.9810   22.6850 N   0  0  0  0  0  0  0  0  0  0  0  0
   10.3800   -0.7010   22.7510 C   0  0  0  0  0  0  0  0  0  0  0  0
   10.6900    0.6500   22.9010 C   0  0  0  0  0  0  0  0  0  0  0  0
   12.0060    1.0910   22.9770 C   0  0  0  0  0  0  0  0  0  0  0  0
   13.0790    0.2120   22.9110 C   0  0  0  0  0  0  0  0  0  0  0  0
   12.8540   -1.2620   22.7550 C   0  0  0  0  0  0  0  0  0  0  0  0
   11.3810   -1.6730   22.6740 C   0  0  0  0  0  0  0  0  0  0  0  0
    7.0970   -0.6970   21.2700 N   0  0  0  0  0  0  0  0  0  0  0  0
    6.4290    0.0110   20.1780 C   0  0  0  0  0  0  0  0  0  0  0  0
    5.3650    0.9830   20.5490 C   0  0  0  0  0  0  0  0  0  0  0  0
    4.7460    1.6450   19.5370 C   0  0  0  0  0  0  0  0  0  0  0  0
    5.0980    1.4200   18.1960 C   0  0  0  0  0  0  0  0  0  0  0  0
    6.1050    0.4960   17.8190 N   0  0  0  0  0  0  0  0  0  0  0  0
    6.7540   -0.1990   18.8460 C   0  0  0  0  0  0  0  0  0  0  0  0
    7.6930   -1.0760   18.5280 F   0  0  0  0  0  0  0  0  0  0  0  0
  1  2  2  0
  2  3  1  0
  3  4  1  0
  4  5  2  0
  5  6  1  0
  6  7  2  0
  7  8  1  0
  4  9  1  0
  8  9  2  0
  2 10  1  0
 10 11  1  0
 11 12  2  0
 12 13  1  0
 13 14  2  0
 14 15  1  0
 11 16  1  0
 15 16  2  0
 16 17  1  0
M  END
