SID-ELM-b654bfa2-13
     RDKit          3D

 20 22  0  0  0  0  0  0  0  0999 V2000
    7.5030   -1.5080   21.9950 O   0  0  0  0  0  0  0  0  0  0  0  0
    8.1000   -2.2020   22.8110 C   0  0  0  0  0  0  0  0  0  0  0  0
    9.5220   -1.8940   23.3040 C   0  0  0  0  0  0  0  0  0  0  0  0
   10.3660   -1.0650   22.5520 C   0  0  0  0  0  0  0  0  0  0  0  0
   10.6320    0.2380   23.0160 C   0  0  0  0  0  0  0  0  0  0  0  0
   11.9810    0.6290   23.0940 C   0  0  0  0  0  0  0  0  0  0  0  0
   12.9240   -0.3220   23.4410 C   0  0  0  0  0  0  0  0  0  0  0  0
   12.4620   -1.6210   23.4940 C   0  0  0  0  0  0  0  0  0  0  0  0
   11.6770   -1.8330   22.3870 C   0  0  0  0  0  0  0  0  0  0  0  0
    7.5920   -3.3540   23.4070 N   0  0  0  0  0  0  0  0  0  0  0  0
    6.2710   -3.6510   23.5240 C   0  0  0  0  0  0  0  0  0  0  0  0
    5.4360   -4.1390   22.4820 C   0  0  0  0  0  0  0  0  0  0  0  0
    5.8850   -4.3560   21.2490 F   0  0  0  0  0  0  0  0  0  0  0  0
    4.0190   -4.4500   22.6750 N   0  0  0  0  0  0  0  0  0  0  0  0
    3.4850   -4.2610   23.9420 C   0  0  0  0  0  0  0  0  0  0  0  0
    4.3590   -3.7430   25.0500 C   0  0  0  0  0  0  0  0  0  0  0  0
    3.9480   -3.5150   26.3220 N   0  0  0  0  0  0  0  0  0  0  0  0
    5.0280   -3.0540   26.9920 C   0  0  0  0  0  0  0  0  0  0  0  0
    6.1070   -2.9990   26.1290 C   0  0  0  0  0  0  0  0  0  0  0  0
    5.6790   -3.4640   24.8070 N   0  0  0  0  0  0  0  0  0  0  0  0
  1  2  2  0
  2  3  1  0
  3  4  1  0
  4  5  1  0
  5  6  1  0
  6  7  1  0
  7  8  1  0
  4  9  1  0
  8  9  1  0
  2 10  1  0
 10 11  1  0
 11 12  2  0
 12 13  1  0
 12 14  1  0
 14 15  2  0
 15 16  1  0
 16 17  2  0
 17 18  1  0
 18 19  2  0
 11 20  1  0
 16 20  1  0
 19 20  1  0
M  END
