SID-ELM-1f105489-15
     RDKit          3D

 20 22  0  0  0  0  0  0  0  0999 V2000
   13.5280   -1.5080   23.5960 C   0  0  0  0  0  0  0  0  0  0  0  0
   12.2220   -1.1670   23.3150 N   0  0  0  0  0  0  0  0  0  0  0  0
   11.3190   -1.7720   22.4030 C   0  0  0  0  0  0  0  0  0  0  0  0
    9.9350   -1.4980   22.4160 C   0  0  0  0  0  0  0  0  0  0  0  0
    9.7160   -0.1400   22.3560 N   0  0  0  0  0  0  0  0  0  0  0  0
    8.8730    0.3570   21.4150 C   0  0  0  0  0  0  0  0  0  0  0  0
    9.0090    1.5190   21.0340 O   0  0  0  0  0  0  0  0  0  0  0  0
    7.8040   -0.5610   20.9230 N   0  0  0  0  0  0  0  0  0  0  0  0
    6.9780   -0.2380   19.8470 C   0  0  0  0  0  0  0  0  0  0  0  0
    7.1380   -0.8040   18.7200 C   0  0  0  0  0  0  0  0  0  0  0  0
    8.1020   -1.9700   17.9860 Cl  0  0  0  0  0  0  0  0  0  0  0  0
    6.2320   -0.2430   17.9840 N   0  0  0  0  0  0  0  0  0  0  0  0
    5.2940    0.7370   18.3640 C   0  0  0  0  0  0  0  0  0  0  0  0
    4.3590    1.7140   18.7440 N   0  0  0  0  0  0  0  0  0  0  0  0
    4.1000    2.3340   19.8910 C   0  0  0  0  0  0  0  0  0  0  0  0
    4.6850    2.1940   21.0340 N   0  0  0  0  0  0  0  0  0  0  0  0
    5.6320    1.3100   20.9010 C   0  0  0  0  0  0  0  0  0  0  0  0
    5.9410    0.6360   19.7280 C   0  0  0  0  0  0  0  0  0  0  0  0
   10.5400    0.5790   23.2290 C   0  0  0  0  0  0  0  0  0  0  0  0
   12.0300    0.2870   23.2870 C   0  0  0  0  0  0  0  0  0  0  0  0
  1  2  1  0
  2  3  1  0
  3  4  1  0
  4  5  1  0
  5  6  1  0
  6  7  2  0
  6  8  1  0
  8  9  1  0
  9 10  2  0
 10 11  1  0
 10 12  1  0
 12 13  1  0
 13 14  1  0
 14 15  2  0
 15 16  1  0
 16 17  2  0
  9 18  1  0
 13 18  2  0
 17 18  1  0
  5 19  1  0
  2 20  1  0
 19 20  1  0
M  END
