SID-ELM-8b394441-7
     RDKit          3D

 20 21  0  0  0  0  0  0  0  0999 V2000
    2.2250    2.2150   20.6400 C   0  0  0  0  0  0  0  0  0  0  0  0
    3.3100    2.6770   19.8980 N   0  0  0  0  0  0  0  0  0  0  0  0
    2.8170    3.4310   18.7400 C   0  0  0  0  0  0  0  0  0  0  0  0
    4.4180    1.7430   19.7220 C   0  0  0  0  0  0  0  0  0  0  0  0
    4.6860    1.4170   18.3970 C   0  0  0  0  0  0  0  0  0  0  0  0
    5.7150    0.4720   17.9580 N   0  0  0  0  0  0  0  0  0  0  0  0
    6.4270   -0.0730   19.0700 C   0  0  0  0  0  0  0  0  0  0  0  0
    7.5760   -1.1940   18.6690 Cl  0  0  0  0  0  0  0  0  0  0  0  0
    6.1830    0.2990   20.4820 C   0  0  0  0  0  0  0  0  0  0  0  0
    7.0190   -0.2960   21.4360 N   0  0  0  0  0  0  0  0  0  0  0  0
    8.3020    0.1560   21.6770 C   0  0  0  0  0  0  0  0  0  0  0  0
    8.7900    1.2020   21.2100 O   0  0  0  0  0  0  0  0  0  0  0  0
    8.9690   -0.7200   22.5000 N   0  0  0  0  0  0  0  0  0  0  0  0
   10.3330   -0.6040   22.7090 C   0  0  0  0  0  0  0  0  0  0  0  0
   10.8330    0.7730   22.9480 C   0  0  0  0  0  0  0  0  0  0  0  0
   12.1310    0.9990   23.1510 C   0  0  0  0  0  0  0  0  0  0  0  0
   13.0450   -0.0340   23.1450 C   0  0  0  0  0  0  0  0  0  0  0  0
   12.6670   -1.3510   22.9320 C   0  0  0  0  0  0  0  0  0  0  0  0
   11.3600   -1.7360   22.7080 C   0  0  0  0  0  0  0  0  0  0  0  0
    5.1730    1.1910   20.7500 C   0  0  0  0  0  0  0  0  0  0  0  0
  1  2  1  0
  2  3  1  0
  2  4  1  0
  4  5  2  0
  5  6  1  0
  6  7  2  0
  7  8  1  0
  7  9  1  0
  9 10  1  0
 10 11  1  0
 11 12  2  0
 11 13  1  0
 13 14  1  0
 14 15  2  0
 15 16  1  0
 16 17  2  0
 17 18  1  0
 14 19  1  0
 18 19  2  0
  4 20  1  0
  9 20  2  0
M  END
