SID-ELM-1f105489-12
     RDKit          3D

 20 22  0  0  0  0  0  0  0  0999 V2000
   13.0950   -1.7330   24.1910 C   0  0  0  0  0  0  0  0  0  0  0  0
   12.3880   -1.2820   23.0150 N   0  0  0  0  0  0  0  0  0  0  0  0
   11.3790   -2.0040   22.4530 C   0  0  0  0  0  0  0  0  0  0  0  0
   10.0960   -1.6220   22.3250 C   0  0  0  0  0  0  0  0  0  0  0  0
   10.1160   -0.2850   22.1060 N   0  0  0  0  0  0  0  0  0  0  0  0
    8.9750    0.2200   21.5170 C   0  0  0  0  0  0  0  0  0  0  0  0
    8.7960    1.4180   21.2430 O   0  0  0  0  0  0  0  0  0  0  0  0
    7.9420   -0.6400   21.1470 N   0  0  0  0  0  0  0  0  0  0  0  0
    6.9690   -0.1690   20.1620 C   0  0  0  0  0  0  0  0  0  0  0  0
    7.0360   -0.5840   18.7390 C   0  0  0  0  0  0  0  0  0  0  0  0
    7.9220   -1.4010   18.2370 F   0  0  0  0  0  0  0  0  0  0  0  0
    5.9550    0.0920   18.0930 N   0  0  0  0  0  0  0  0  0  0  0  0
    5.2270    0.8620   18.9840 C   0  0  0  0  0  0  0  0  0  0  0  0
    4.1410    1.6050   18.6400 N   0  0  0  0  0  0  0  0  0  0  0  0
    3.5870    2.2560   19.6790 C   0  0  0  0  0  0  0  0  0  0  0  0
    4.0290    2.2230   20.9760 C   0  0  0  0  0  0  0  0  0  0  0  0
    5.2550    1.3830   21.2960 C   0  0  0  0  0  0  0  0  0  0  0  0
    5.8470    0.7010   20.2830 C   0  0  0  0  0  0  0  0  0  0  0  0
   10.8250    0.4380   23.0410 C   0  0  0  0  0  0  0  0  0  0  0  0
   12.2080    0.2070   23.0250 C   0  0  0  0  0  0  0  0  0  0  0  0
  1  2  1  0
  2  3  1  0
  3  4  1  0
  4  5  1  0
  5  6  1  0
  6  7  2  0
  6  8  1  0
  8  9  1  0
  9 10  2  0
 10 11  1  0
 10 12  1  0
 12 13  1  0
 13 14  1  0
 14 15  2  0
 15 16  1  0
 16 17  2  0
  9 18  1  0
 13 18  2  0
 17 18  1  0
  5 19  1  0
  2 20  1  0
 19 20  1  0
M  END
