SID-ELM-2583a2cd-22
     RDKit          3D

 19 21  0  0  0  0  0  0  0  0999 V2000
    9.0130    1.2200   21.3140 O   0  0  0  0  0  0  0  0  0  0  0  0
    8.4960    0.1140   21.5580 C   0  0  0  0  0  0  0  0  0  0  0  0
    8.8460   -0.7580   22.5750 N   0  0  0  0  0  0  0  0  0  0  0  0
   10.2630   -0.6030   22.7440 C   0  0  0  0  0  0  0  0  0  0  0  0
   10.4950    0.5850   23.4070 C   0  0  0  0  0  0  0  0  0  0  0  0
   11.9040    0.9440   23.6760 C   0  0  0  0  0  0  0  0  0  0  0  0
   12.9000    0.0830   23.2570 C   0  0  0  0  0  0  0  0  0  0  0  0
   12.5380   -1.1900   22.5480 C   0  0  0  0  0  0  0  0  0  0  0  0
   11.2590   -1.5110   22.3040 C   0  0  0  0  0  0  0  0  0  0  0  0
    7.4580   -0.4620   20.8530 N   0  0  0  0  0  0  0  0  0  0  0  0
    6.6270    0.1570   20.0050 C   0  0  0  0  0  0  0  0  0  0  0  0
    6.2930   -0.2860   18.5510 C   0  0  0  0  0  0  0  0  0  0  0  0
    5.3420    0.6010   17.7810 N   0  0  0  0  0  0  0  0  0  0  0  0
    4.8050    1.7570   18.3910 C   0  0  0  0  0  0  0  0  0  0  0  0
    5.2570    1.8650   19.6500 N   0  0  0  0  0  0  0  0  0  0  0  0
    6.0090    0.5540   19.1600 N   0  0  0  0  0  0  0  0  0  0  0  0
    5.4010    0.8180   18.1690 C   0  0  0  0  0  0  0  0  0  0  0  0
    5.2170    1.6140   19.1190 C   0  0  0  0  0  0  0  0  0  0  0  0
    5.9900    1.2830   20.4010 C   0  0  0  0  0  0  0  0  0  0  0  0
  1  2  2  0
  2  3  1  0
  3  4  1  0
  4  5  2  0
  5  6  1  0
  6  7  2  0
  7  8  1  0
  4  9  1  0
  8  9  2  0
  2 10  1  0
 10 11  1  0
 11 12  2  0
 12 13  1  0
 13 14  2  0
 14 15  1  0
 15 16  1  0
 16 17  2  0
 17 18  1  0
 11 19  1  0
 15 19  1  0
 18 19  2  0
M  END
