SID-ELM-8b394441-25
     RDKit          3D

 20 22  0  0  0  0  0  0  0  0999 V2000
    9.1750    1.6960   21.4030 O   0  0  0  0  0  0  0  0  0  0  0  0
    8.6680    0.6890   21.9070 C   0  0  0  0  0  0  0  0  0  0  0  0
    9.3230    0.0270   23.0780 C   0  0  0  0  0  0  0  0  0  0  0  0
   10.5100   -0.5610   22.9100 C   0  0  0  0  0  0  0  0  0  0  0  0
   10.6860   -1.4540   21.7680 C   0  0  0  0  0  0  0  0  0  0  0  0
   12.1300   -1.8690   21.5690 C   0  0  0  0  0  0  0  0  0  0  0  0
   13.0090   -1.1190   22.5500 C   0  0  0  0  0  0  0  0  0  0  0  0
   12.6010   -1.4820   23.9870 C   0  0  0  0  0  0  0  0  0  0  0  0
   11.0550   -1.4280   24.0510 C   0  0  0  0  0  0  0  0  0  0  0  0
    7.4290    0.0540   21.4440 N   0  0  0  0  0  0  0  0  0  0  0  0
    6.6010    0.6230   20.4400 C   0  0  0  0  0  0  0  0  0  0  0  0
    6.5860    0.0080   19.0360 C   0  0  0  0  0  0  0  0  0  0  0  0
    7.4920   -1.3590   18.6740 Cl  0  0  0  0  0  0  0  0  0  0  0  0
    5.8840    0.4500   17.9800 N   0  0  0  0  0  0  0  0  0  0  0  0
    5.1010    1.5370   18.2010 C   0  0  0  0  0  0  0  0  0  0  0  0
    5.0320    2.1590   19.4540 C   0  0  0  0  0  0  0  0  0  0  0  0
    4.3250    3.2420   19.9050 N   0  0  0  0  0  0  0  0  0  0  0  0
    4.5440    3.5320   21.2160 N   0  0  0  0  0  0  0  0  0  0  0  0
    5.4190    2.5750   21.5360 C   0  0  0  0  0  0  0  0  0  0  0  0
    5.7570    1.7150   20.5290 C   0  0  0  0  0  0  0  0  0  0  0  0
  1  2  2  0
  2  3  1  0
  3  4  1  0
  4  5  1  0
  5  6  1  0
  6  7  1  0
  7  8  1  0
  4  9  1  0
  8  9  1  0
  2 10  1  0
 10 11  1  0
 11 12  2  0
 12 13  1  0
 12 14  1  0
 14 15  2  0
 15 16  1  0
 16 17  1  0
 17 18  1  0
 18 19  2  0
 11 20  1  0
 16 20  2  0
 19 20  1  0
M  END
