SID-ELM-2583a2cd-6
     RDKit          3D

 18 19  0  0  0  0  0  0  0  0999 V2000
    2.3600    2.0210   20.2470 C   0  0  0  0  0  0  0  0  0  0  0  0
    3.4850    2.4070   19.4200 N   0  0  0  0  0  0  0  0  0  0  0  0
    4.6710    1.5490   19.3070 C   0  0  0  0  0  0  0  0  0  0  0  0
    5.1610    1.2820   17.9610 C   0  0  0  0  0  0  0  0  0  0  0  0
    6.2380    0.5060   17.6930 N   0  0  0  0  0  0  0  0  0  0  0  0
    6.8970   -0.0430   18.7420 C   0  0  0  0  0  0  0  0  0  0  0  0
    6.5240    0.1540   20.0540 C   0  0  0  0  0  0  0  0  0  0  0  0
    7.2170   -0.3940   21.1230 N   0  0  0  0  0  0  0  0  0  0  0  0
    8.3650    0.1810   21.6120 C   0  0  0  0  0  0  0  0  0  0  0  0
    8.8220    1.2890   21.2620 O   0  0  0  0  0  0  0  0  0  0  0  0
    8.9260   -0.6450   22.5030 N   0  0  0  0  0  0  0  0  0  0  0  0
   10.2810   -0.6230   22.7290 C   0  0  0  0  0  0  0  0  0  0  0  0
   10.8580    0.7570   22.8600 C   0  0  0  0  0  0  0  0  0  0  0  0
   12.3320    0.8950   23.1000 C   0  0  0  0  0  0  0  0  0  0  0  0
   13.1010   -0.2400   23.1930 C   0  0  0  0  0  0  0  0  0  0  0  0
   12.4800   -1.6330   23.0550 C   0  0  0  0  0  0  0  0  0  0  0  0
   11.1180   -1.7350   22.8320 C   0  0  0  0  0  0  0  0  0  0  0  0
    5.3980    0.9530   20.3390 C   0  0  0  0  0  0  0  0  0  0  0  0
  1  2  1  0
  2  3  1  0
  3  4  2  0
  4  5  1  0
  5  6  2  0
  6  7  1  0
  7  8  1  0
  8  9  1  0
  9 10  2  0
  9 11  1  0
 11 12  1  0
 12 13  2  0
 13 14  1  0
 14 15  2  0
 15 16  1  0
 12 17  1  0
 16 17  2  0
  3 18  1  0
  7 18  2  0
M  END
