SID-ELM-2583a2cd-16
     RDKit          3D

 17 18  0  0  0  0  0  0  0  0999 V2000
    3.6000    1.9420   19.7660 N   0  0  0  0  0  0  0  0  0  0  0  0
    4.6720    1.2740   19.5060 C   0  0  0  0  0  0  0  0  0  0  0  0
    5.1620    1.1970   18.1030 C   0  0  0  0  0  0  0  0  0  0  0  0
    6.3640    0.4340   17.8450 N   0  0  0  0  0  0  0  0  0  0  0  0
    7.0620   -0.2120   18.8280 C   0  0  0  0  0  0  0  0  0  0  0  0
    6.5540   -0.1130   20.2580 C   0  0  0  0  0  0  0  0  0  0  0  0
    7.2270   -0.7360   21.2930 N   0  0  0  0  0  0  0  0  0  0  0  0
    8.5000   -0.4450   21.7730 C   0  0  0  0  0  0  0  0  0  0  0  0
    9.1180    0.6060   21.6080 O   0  0  0  0  0  0  0  0  0  0  0  0
    9.0020   -1.5450   22.4940 C   0  0  0  0  0  0  0  0  0  0  0  0
   10.2440   -1.4990   23.1250 C   0  0  0  0  0  0  0  0  0  0  0  0
   10.3350   -0.2230   23.9600 C   0  0  0  0  0  0  0  0  0  0  0  0
   11.5370    0.5750   23.4590 C   0  0  0  0  0  0  0  0  0  0  0  0
   12.7560   -0.0660   23.4620 C   0  0  0  0  0  0  0  0  0  0  0  0
   12.6850   -1.2470   22.6680 C   0  0  0  0  0  0  0  0  0  0  0  0
   11.3580   -1.8100   22.3080 C   0  0  0  0  0  0  0  0  0  0  0  0
    5.3850    0.6210   20.5270 C   0  0  0  0  0  0  0  0  0  0  0  0
  1  2  1  0
  2  3  2  0
  3  4  1  0
  4  5  2  0
  5  6  1  0
  6  7  1  0
  7  8  1  0
  8  9  2  0
  8 10  1  0
 10 11  1  0
 11 12  1  0
 12 13  1  0
 13 14  1  0
 14 15  1  0
 11 16  1  0
 15 16  1  0
  2 17  1  0
  6 17  2  0
M  END
