SID-ELM-2583a2cd-2
     RDKit          3D

 19 21  0  0  0  0  0  0  0  0999 V2000
    9.0610    1.3960   21.1430 O   0  0  0  0  0  0  0  0  0  0  0  0
    9.6080    1.7820   22.1680 C   0  0  0  0  0  0  0  0  0  0  0  0
   10.5460    0.8380   22.9070 C   0  0  0  0  0  0  0  0  0  0  0  0
   10.8340   -0.5470   22.5040 C   0  0  0  0  0  0  0  0  0  0  0  0
   10.3670   -1.4470   23.4480 C   0  0  0  0  0  0  0  0  0  0  0  0
   11.2450   -1.6780   24.5260 C   0  0  0  0  0  0  0  0  0  0  0  0
   12.5690   -1.3680   24.3450 C   0  0  0  0  0  0  0  0  0  0  0  0
   12.9690   -1.8120   23.1200 C   0  0  0  0  0  0  0  0  0  0  0  0
   12.2880   -0.9350   22.1320 C   0  0  0  0  0  0  0  0  0  0  0  0
    9.4180    3.0180   22.7680 N   0  0  0  0  0  0  0  0  0  0  0  0
   10.3770    4.0650   22.8850 C   0  0  0  0  0  0  0  0  0  0  0  0
   11.7450    4.1170   22.3030 C   0  0  0  0  0  0  0  0  0  0  0  0
   12.6520    5.1050   22.4040 N   0  0  0  0  0  0  0  0  0  0  0  0
   12.2430    6.2750   23.1770 C   0  0  0  0  0  0  0  0  0  0  0  0
   10.9530    6.2680   23.7530 C   0  0  0  0  0  0  0  0  0  0  0  0
   10.3940    7.3090   24.5420 N   0  0  0  0  0  0  0  0  0  0  0  0
    9.0730    6.8660   24.9030 C   0  0  0  0  0  0  0  0  0  0  0  0
    8.9470    5.5360   24.2780 C   0  0  0  0  0  0  0  0  0  0  0  0
   10.0330    5.1650   23.6010 N   0  0  0  0  0  0  0  0  0  0  0  0
  1  2  2  0
  2  3  1  0
  3  4  1  0
  4  5  1  0
  5  6  1  0
  6  7  1  0
  7  8  1  0
  4  9  1  0
  8  9  1  0
  2 10  1  0
 10 11  1  0
 11 12  2  0
 12 13  1  0
 13 14  2  0
 14 15  1  0
 15 16  2  0
 16 17  1  0
 17 18  2  0
 11 19  1  0
 15 19  1  0
 18 19  1  0
M  END
