SID-ELM-1f105489-10
     RDKit          3D

 19 21  0  0  0  0  0  0  0  0999 V2000
   13.3140   -1.8660   23.7610 C   0  0  0  0  0  0  0  0  0  0  0  0
   12.0150   -1.2210   23.7480 N   0  0  0  0  0  0  0  0  0  0  0  0
   11.0390   -2.0990   23.0680 C   0  0  0  0  0  0  0  0  0  0  0  0
    9.8280   -1.5230   22.9190 C   0  0  0  0  0  0  0  0  0  0  0  0
    9.9360   -0.1950   22.2910 N   0  0  0  0  0  0  0  0  0  0  0  0
    8.9010    0.3090   21.5300 C   0  0  0  0  0  0  0  0  0  0  0  0
    8.8590    1.5240   21.2460 O   0  0  0  0  0  0  0  0  0  0  0  0
    7.9190   -0.5900   21.0640 N   0  0  0  0  0  0  0  0  0  0  0  0
    7.0570   -0.1870   20.0770 C   0  0  0  0  0  0  0  0  0  0  0  0
    7.3260   -0.5920   18.6770 C   0  0  0  0  0  0  0  0  0  0  0  0
    6.2860    0.0020   17.8710 N   0  0  0  0  0  0  0  0  0  0  0  0
    5.4060    0.7440   18.8310 C   0  0  0  0  0  0  0  0  0  0  0  0
    4.3110    1.4550   18.5640 N   0  0  0  0  0  0  0  0  0  0  0  0
    3.6810    2.0340   19.6340 C   0  0  0  0  0  0  0  0  0  0  0  0
    4.0510    1.9790   21.0040 N   0  0  0  0  0  0  0  0  0  0  0  0
    5.1770    1.2510   21.2400 C   0  0  0  0  0  0  0  0  0  0  0  0
    5.9090    0.5880   20.0980 C   0  0  0  0  0  0  0  0  0  0  0  0
   10.7850    0.6210   22.9080 C   0  0  0  0  0  0  0  0  0  0  0  0
   12.0650    0.0940   23.1240 C   0  0  0  0  0  0  0  0  0  0  0  0
  1  2  1  0
  2  3  1  0
  3  4  1  0
  4  5  1  0
  5  6  1  0
  6  7  2  0
  6  8  1  0
  8  9  1  0
  9 10  2  0
 10 11  1  0
 11 12  1  0
 12 13  1  0
 13 14  2  0
 14 15  1  0
 15 16  2  0
  9 17  1  0
 12 17  2  0
 16 17  1  0
  5 18  1  0
  2 19  1  0
 18 19  1  0
M  END
