SID-ELM-8b394441-4
     RDKit          3D

 17 18  0  0  0  0  0  0  0  0999 V2000
    9.1610    1.7210   21.4650 O   0  0  0  0  0  0  0  0  0  0  0  0
    8.6520    0.7160   21.9780 C   0  0  0  0  0  0  0  0  0  0  0  0
    9.3090    0.0390   23.1380 C   0  0  0  0  0  0  0  0  0  0  0  0
   10.5010   -0.5290   22.9320 C   0  0  0  0  0  0  0  0  0  0  0  0
   10.6560   -1.4250   21.7860 C   0  0  0  0  0  0  0  0  0  0  0  0
   12.0900   -1.8730   21.5820 C   0  0  0  0  0  0  0  0  0  0  0  0
   13.0080   -1.1000   22.5080 C   0  0  0  0  0  0  0  0  0  0  0  0
   12.6350   -1.3600   23.9760 C   0  0  0  0  0  0  0  0  0  0  0  0
   11.0910   -1.3790   24.0570 C   0  0  0  0  0  0  0  0  0  0  0  0
    7.4060    0.0890   21.5240 N   0  0  0  0  0  0  0  0  0  0  0  0
    6.6300    0.5910   20.4500 C   0  0  0  0  0  0  0  0  0  0  0  0
    5.7240    1.8250   20.5880 C   0  0  0  0  0  0  0  0  0  0  0  0
    4.9740    2.2460   19.3400 C   0  0  0  0  0  0  0  0  0  0  0  0
    5.1200    1.5400   18.1360 C   0  0  0  0  0  0  0  0  0  0  0  0
    5.8670    0.4610   17.8970 N   0  0  0  0  0  0  0  0  0  0  0  0
    6.6090   -0.0160   19.0590 C   0  0  0  0  0  0  0  0  0  0  0  0
    7.4910   -1.3870   18.6980 Cl  0  0  0  0  0  0  0  0  0  0  0  0
  1  2  2  0
  2  3  1  0
  3  4  1  0
  4  5  1  0
  5  6  1  0
  6  7  1  0
  7  8  1  0
  4  9  1  0
  8  9  1  0
  2 10  1  0
 10 11  1  0
 11 12  2  0
 12 13  1  0
 13 14  2  0
 14 15  1  0
 11 16  1  0
 15 16  2  0
 16 17  1  0
M  END
