SID-ELM-2583a2cd-17
     RDKit          3D

 20 22  0  0  0  0  0  0  0  0999 V2000
    8.7750    0.9190   21.4500 O   0  0  0  0  0  0  0  0  0  0  0  0
    8.4300   -0.2310   21.7450 C   0  0  0  0  0  0  0  0  0  0  0  0
    9.1300   -1.1310   22.6260 N   0  0  0  0  0  0  0  0  0  0  0  0
   10.5390   -0.8470   22.7260 C   0  0  0  0  0  0  0  0  0  0  0  0
   10.8390    0.5790   22.8790 C   0  0  0  0  0  0  0  0  0  0  0  0
   12.0990    1.1130   22.9800 C   0  0  0  0  0  0  0  0  0  0  0  0
   13.1820    0.2680   22.9380 C   0  0  0  0  0  0  0  0  0  0  0  0
   12.9590   -1.2100   22.7910 C   0  0  0  0  0  0  0  0  0  0  0  0
   11.6030   -1.7300   22.6870 C   0  0  0  0  0  0  0  0  0  0  0  0
    7.2770   -0.8230   21.2470 N   0  0  0  0  0  0  0  0  0  0  0  0
    6.5450   -0.0950   20.2110 C   0  0  0  0  0  0  0  0  0  0  0  0
    6.9110   -0.3140   18.7520 C   0  0  0  0  0  0  0  0  0  0  0  0
    6.1920    0.4100   17.7580 N   0  0  0  0  0  0  0  0  0  0  0  0
    5.1990    1.2850   17.9820 C   0  0  0  0  0  0  0  0  0  0  0  0
    4.7750    1.5540   19.4230 C   0  0  0  0  0  0  0  0  0  0  0  0
    3.8150    2.3990   19.6460 N   0  0  0  0  0  0  0  0  0  0  0  0
    3.4490    2.6450   20.9000 C   0  0  0  0  0  0  0  0  0  0  0  0
    3.9850    2.0910   21.9830 N   0  0  0  0  0  0  0  0  0  0  0  0
    4.9750    1.2130   21.7260 C   0  0  0  0  0  0  0  0  0  0  0  0
    5.4620    0.8610   20.4580 C   0  0  0  0  0  0  0  0  0  0  0  0
  1  2  2  0
  2  3  1  0
  3  4  1  0
  4  5  2  0
  5  6  1  0
  6  7  2  0
  7  8  1  0
  4  9  1  0
  8  9  2  0
  2 10  1  0
 10 11  1  0
 11 12  2  0
 12 13  1  0
 13 14  2  0
 14 15  1  0
 15 16  1  0
 16 17  2  0
 17 18  1  0
 18 19  2  0
 11 20  1  0
 15 20  2  0
 19 20  1  0
M  END
