SID-ELM-2583a2cd-11
     RDKit          3D

 20 22  0  0  0  0  0  0  0  0999 V2000
    8.6960    0.7510   21.3400 O   0  0  0  0  0  0  0  0  0  0  0  0
    8.3320   -0.3710   21.7060 C   0  0  0  0  0  0  0  0  0  0  0  0
    8.9790   -1.0850   22.7120 N   0  0  0  0  0  0  0  0  0  0  0  0
   10.4050   -0.7550   22.7670 C   0  0  0  0  0  0  0  0  0  0  0  0
   10.6750    0.6040   22.9120 C   0  0  0  0  0  0  0  0  0  0  0  0
   11.9850    1.0850   22.9750 C   0  0  0  0  0  0  0  0  0  0  0  0
   13.0810    0.2350   22.8990 C   0  0  0  0  0  0  0  0  0  0  0  0
   12.8930   -1.2420   22.7450 C   0  0  0  0  0  0  0  0  0  0  0  0
   11.4310   -1.6960   22.6800 C   0  0  0  0  0  0  0  0  0  0  0  0
    7.2180   -1.0070   21.1470 N   0  0  0  0  0  0  0  0  0  0  0  0
    6.4370   -0.2340   20.1860 C   0  0  0  0  0  0  0  0  0  0  0  0
    6.9680   -0.1460   18.8330 C   0  0  0  0  0  0  0  0  0  0  0  0
    6.3190    0.5650   17.8650 N   0  0  0  0  0  0  0  0  0  0  0  0
    5.1560    1.2190   18.1110 C   0  0  0  0  0  0  0  0  0  0  0  0
    4.5990    1.1470   19.4120 C   0  0  0  0  0  0  0  0  0  0  0  0
    3.4500    1.8010   19.5990 N   0  0  0  0  0  0  0  0  0  0  0  0
    2.8670    1.7560   20.8480 C   0  0  0  0  0  0  0  0  0  0  0  0
    3.4910    1.0410   21.8660 C   0  0  0  0  0  0  0  0  0  0  0  0
    4.6610    0.3740   21.7090 N   0  0  0  0  0  0  0  0  0  0  0  0
    5.2250    0.4240   20.4630 C   0  0  0  0  0  0  0  0  0  0  0  0
  1  2  2  0
  2  3  1  0
  3  4  1  0
  4  5  2  0
  5  6  1  0
  6  7  2  0
  7  8  1  0
  4  9  1  0
  8  9  2  0
  2 10  1  0
 10 11  1  0
 11 12  2  0
 12 13  1  0
 13 14  2  0
 14 15  1  0
 15 16  1  0
 16 17  2  0
 17 18  1  0
 18 19  2  0
 11 20  1  0
 15 20  2  0
 19 20  1  0
M  END
