SID-ELM-8b394441-17
     RDKit          3D

 19 20  0  0  0  0  0  0  0  0999 V2000
    4.0610    3.9490   20.5580 C   0  0  0  0  0  0  0  0  0  0  0  0
    3.6820    3.0550   19.5610 N   0  0  0  0  0  0  0  0  0  0  0  0
    4.6550    1.9800   19.3830 C   0  0  0  0  0  0  0  0  0  0  0  0
    4.9670    1.5430   18.1150 C   0  0  0  0  0  0  0  0  0  0  0  0
    5.9100    0.4700   17.9510 N   0  0  0  0  0  0  0  0  0  0  0  0
    6.5150   -0.1250   19.0260 C   0  0  0  0  0  0  0  0  0  0  0  0
    7.5450   -1.3730   18.6310 Cl  0  0  0  0  0  0  0  0  0  0  0  0
    6.2940    0.2580   20.3390 C   0  0  0  0  0  0  0  0  0  0  0  0
    6.9840   -0.3990   21.3130 N   0  0  0  0  0  0  0  0  0  0  0  0
    8.2920   -0.1300   21.7340 C   0  0  0  0  0  0  0  0  0  0  0  0
    8.9290    0.8950   21.4470 O   0  0  0  0  0  0  0  0  0  0  0  0
    8.9820   -1.1870   22.6250 C   0  0  0  0  0  0  0  0  0  0  0  0
   10.4860   -1.2950   22.4770 C   0  0  0  0  0  0  0  0  0  0  0  0
   11.1360   -2.4720   23.1060 C   0  0  0  0  0  0  0  0  0  0  0  0
   11.8930   -2.1740   24.1730 C   0  0  0  0  0  0  0  0  0  0  0  0
   12.8880   -1.2360   23.9570 C   0  0  0  0  0  0  0  0  0  0  0  0
   12.5240   -0.1340   23.1860 C   0  0  0  0  0  0  0  0  0  0  0  0
   11.1520    0.0120   22.9380 C   0  0  0  0  0  0  0  0  0  0  0  0
    5.3800    1.2860   20.5580 C   0  0  0  0  0  0  0  0  0  0  0  0
  1  2  1  0
  2  3  1  0
  3  4  2  0
  4  5  1  0
  5  6  2  0
  6  7  1  0
  6  8  1  0
  8  9  1  0
  9 10  1  0
 10 11  2  0
 10 12  1  0
 12 13  1  0
 13 14  1  0
 14 15  1  0
 15 16  1  0
 16 17  1  0
 13 18  1  0
 17 18  1  0
  3 19  1  0
  8 19  2  0
M  END
