SID-ELM-b654bfa2-18
     RDKit          3D

 20 22  0  0  0  0  0  0  0  0999 V2000
    8.8770    1.8270   21.2900 O   0  0  0  0  0  0  0  0  0  0  0  0
    8.8590    0.6380   21.5920 C   0  0  0  0  0  0  0  0  0  0  0  0
    9.9910    0.0690   22.3070 N   0  0  0  0  0  0  0  0  0  0  0  0
   10.0590   -1.1110   22.9510 C   0  0  0  0  0  0  0  0  0  0  0  0
   11.3180   -0.5250   22.9540 C   0  0  0  0  0  0  0  0  0  0  0  0
   12.6940   -0.8800   23.4910 C   0  0  0  0  0  0  0  0  0  0  0  0
   12.9210   -2.1440   24.2290 C   0  0  0  0  0  0  0  0  0  0  0  0
   11.6820   -2.9290   24.3340 C   0  0  0  0  0  0  0  0  0  0  0  0
   10.4100   -2.3120   23.6790 C   0  0  0  0  0  0  0  0  0  0  0  0
    7.7820   -0.1210   21.2180 N   0  0  0  0  0  0  0  0  0  0  0  0
    6.9690    0.0380   20.1510 C   0  0  0  0  0  0  0  0  0  0  0  0
    6.8970   -0.3450   18.9190 C   0  0  0  0  0  0  0  0  0  0  0  0
    7.7940   -1.1580   18.3460 F   0  0  0  0  0  0  0  0  0  0  0  0
    5.7850    0.2070   18.3180 N   0  0  0  0  0  0  0  0  0  0  0  0
    4.8800    1.0760   19.1170 C   0  0  0  0  0  0  0  0  0  0  0  0
    4.9150    1.5170   20.5090 C   0  0  0  0  0  0  0  0  0  0  0  0
    3.7890    2.1010   20.0280 N   0  0  0  0  0  0  0  0  0  0  0  0
    4.7920    1.3170   19.6740 N   0  0  0  0  0  0  0  0  0  0  0  0
    5.1630    0.7220   18.6390 C   0  0  0  0  0  0  0  0  0  0  0  0
    5.8370    0.7130   19.9340 C   0  0  0  0  0  0  0  0  0  0  0  0
  1  2  2  0
  2  3  1  0
  3  4  1  0
  4  5  2  0
  5  6  1  0
  6  7  2  0
  7  8  1  0
  4  9  1  0
  8  9  2  0
  2 10  1  0
 10 11  1  0
 11 12  2  0
 12 13  1  0
 12 14  1  0
 14 15  2  0
 15 16  1  0
 16 17  1  0
 17 18  1  0
 18 19  2  0
 11 20  1  0
 16 20  2  0
 19 20  1  0
M  END
