SID-ELM-8b394441-13
     RDKit          3D

 20 22  0  0  0  0  0  0  0  0999 V2000
    8.8950    1.1880   21.1850 O   0  0  0  0  0  0  0  0  0  0  0  0
    8.2770    0.2100   21.6450 C   0  0  0  0  0  0  0  0  0  0  0  0
    8.8590   -0.7870   22.5530 N   0  0  0  0  0  0  0  0  0  0  0  0
   10.3080   -0.5220   22.6180 C   0  0  0  0  0  0  0  0  0  0  0  0
   10.5600    0.7620   22.9440 C   0  0  0  0  0  0  0  0  0  0  0  0
   11.9260    1.3840   23.0930 C   0  0  0  0  0  0  0  0  0  0  0  0
   13.1160    0.4840   22.8560 C   0  0  0  0  0  0  0  0  0  0  0  0
   12.8020   -0.9600   22.4930 C   0  0  0  0  0  0  0  0  0  0  0  0
   11.3390   -1.4400   22.3790 C   0  0  0  0  0  0  0  0  0  0  0  0
    6.9470   -0.0680   21.3660 N   0  0  0  0  0  0  0  0  0  0  0  0
    6.3320    0.4240   20.2450 C   0  0  0  0  0  0  0  0  0  0  0  0
    6.4710   -0.0360   18.9400 C   0  0  0  0  0  0  0  0  0  0  0  0
    7.4410   -1.3600   18.6190 Cl  0  0  0  0  0  0  0  0  0  0  0  0
    5.8020    0.5900   17.8050 N   0  0  0  0  0  0  0  0  0  0  0  0
    4.9800    1.6760   18.0050 C   0  0  0  0  0  0  0  0  0  0  0  0
    4.8610    2.0940   19.4310 C   0  0  0  0  0  0  0  0  0  0  0  0
    4.0070    3.2480   19.8980 N   0  0  0  0  0  0  0  0  0  0  0  0
    4.2060    3.2670   21.2080 C   0  0  0  0  0  0  0  0  0  0  0  0
    5.1230    2.2090   21.6010 N   0  0  0  0  0  0  0  0  0  0  0  0
    5.5030    1.5070   20.4980 C   0  0  0  0  0  0  0  0  0  0  0  0
  1  2  2  0
  2  3  1  0
  3  4  1  0
  4  5  2  0
  5  6  1  0
  6  7  2  0
  7  8  1  0
  4  9  1  0
  8  9  2  0
  2 10  1  0
 10 11  1  0
 11 12  2  0
 12 13  1  0
 12 14  1  0
 14 15  2  0
 15 16  1  0
 16 17  1  0
 17 18  1  0
 18 19  2  0
 11 20  1  0
 16 20  2  0
 19 20  1  0
M  END
