SID-ELM-2583a2cd-19
     RDKit          3D

 18 19  0  0  0  0  0  0  0  0999 V2000
    3.0330    2.9350   19.0730 C   0  0  0  0  0  0  0  0  0  0  0  0
    3.4970    1.7180   19.7010 N   0  0  0  0  0  0  0  0  0  0  0  0
    4.6540    1.1300   19.3580 C   0  0  0  0  0  0  0  0  0  0  0  0
    5.1540    1.1860   18.0770 C   0  0  0  0  0  0  0  0  0  0  0  0
    6.3560    0.5340   17.8250 N   0  0  0  0  0  0  0  0  0  0  0  0
    6.9430   -0.1010   18.8570 C   0  0  0  0  0  0  0  0  0  0  0  0
    6.4830   -0.2000   20.2690 C   0  0  0  0  0  0  0  0  0  0  0  0
    7.2320   -0.9010   21.2380 N   0  0  0  0  0  0  0  0  0  0  0  0
    8.4460   -0.5450   21.8150 C   0  0  0  0  0  0  0  0  0  0  0  0
    9.0960    0.4880   21.6340 O   0  0  0  0  0  0  0  0  0  0  0  0
    8.9080   -1.6580   22.8010 C   0  0  0  0  0  0  0  0  0  0  0  0
   10.4420   -1.5400   23.0850 C   0  0  0  0  0  0  0  0  0  0  0  0
   10.9840   -2.1020   24.2270 C   0  0  0  0  0  0  0  0  0  0  0  0
   12.5020   -1.9320   24.4210 C   0  0  0  0  0  0  0  0  0  0  0  0
   13.2410   -2.2140   23.3100 C   0  0  0  0  0  0  0  0  0  0  0  0
   12.5730   -1.7990   22.0270 C   0  0  0  0  0  0  0  0  0  0  0  0
   11.1870   -1.8190   21.9540 C   0  0  0  0  0  0  0  0  0  0  0  0
    5.2910    0.4620   20.4330 C   0  0  0  0  0  0  0  0  0  0  0  0
  1  2  1  0
  2  3  1  0
  3  4  2  0
  4  5  1  0
  5  6  2  0
  6  7  1  0
  7  8  1  0
  8  9  1  0
  9 10  2  0
  9 11  1  0
 11 12  1  0
 12 13  1  0
 13 14  1  0
 14 15  1  0
 15 16  1  0
 12 17  1  0
 16 17  1  0
  3 18  1  0
  7 18  2  0
M  END
