SID-ELM-8b394441-9
     RDKit          3D

 21 23  0  0  0  0  0  0  0  0999 V2000
    8.2430    0.7720   21.8090 O   0  0  0  0  0  0  0  0  0  0  0  0
    7.8340   -0.3770   21.7580 C   0  0  0  0  0  0  0  0  0  0  0  0
    8.4990   -1.4790   22.2860 N   0  0  0  0  0  0  0  0  0  0  0  0
    9.8060   -1.5140   22.8390 C   0  0  0  0  0  0  0  0  0  0  0  0
   10.3210   -2.6670   23.7100 C   0  0  0  0  0  0  0  0  0  0  0  0
   11.7590   -2.6020   24.2600 C   0  0  0  0  0  0  0  0  0  0  0  0
   12.5590   -1.3910   23.8910 C   0  0  0  0  0  0  0  0  0  0  0  0
   11.9550   -0.3120   23.0240 C   0  0  0  0  0  0  0  0  0  0  0  0
   10.6380   -0.4120   22.5460 C   0  0  0  0  0  0  0  0  0  0  0  0
    6.6190   -0.7360   21.1480 N   0  0  0  0  0  0  0  0  0  0  0  0
    6.0940    0.0050   20.0310 C   0  0  0  0  0  0  0  0  0  0  0  0
    6.5190   -0.3290   18.8190 C   0  0  0  0  0  0  0  0  0  0  0  0
    7.5800   -1.5810   18.5740 Cl  0  0  0  0  0  0  0  0  0  0  0  0
    6.1130    0.3120   17.7450 N   0  0  0  0  0  0  0  0  0  0  0  0
    5.2210    1.3440   17.8300 C   0  0  0  0  0  0  0  0  0  0  0  0
    4.5810    1.9060   18.9200 C   0  0  0  0  0  0  0  0  0  0  0  0
    4.2090    2.1550   20.0330 N   0  0  0  0  0  0  0  0  0  0  0  0
    3.4320    2.9450   20.6140 C   0  0  0  0  0  0  0  0  0  0  0  0
    3.7620    2.3870   21.8570 C   0  0  0  0  0  0  0  0  0  0  0  0
    4.7070    1.3710   21.4910 C   0  0  0  0  0  0  0  0  0  0  0  0
    5.1570    1.0690   20.0940 C   0  0  0  0  0  0  0  0  0  0  0  0
  1  2  2  0
  2  3  1  0
  3  4  1  0
  4  5  2  0
  5  6  1  0
  6  7  2  0
  7  8  1  0
  4  9  1  0
  8  9  2  0
  2 10  1  0
 10 11  1  0
 11 12  2  0
 12 13  1  0
 12 14  1  0
 14 15  2  0
 15 16  1  0
 16 17  1  0
 17 18  2  0
 18 19  1  0
 19 20  2  0
 11 21  1  0
 16 21  2  0
 20 21  1  0
M  END
