SID-ELM-8b394441-11
     RDKit          3D

 20 22  0  0  0  0  0  0  0  0999 V2000
    8.8760    1.4940   21.2360 O   0  0  0  0  0  0  0  0  0  0  0  0
    8.5140    0.3160   21.3020 C   0  0  0  0  0  0  0  0  0  0  0  0
    9.3430   -0.7480   21.5890 N   0  0  0  0  0  0  0  0  0  0  0  0
   10.4720   -0.6250   22.3940 C   0  0  0  0  0  0  0  0  0  0  0  0
   10.7520    0.5110   23.1380 C   0  0  0  0  0  0  0  0  0  0  0  0
   11.8960    0.5650   23.9110 C   0  0  0  0  0  0  0  0  0  0  0  0
   12.7600   -0.5150   23.9450 C   0  0  0  0  0  0  0  0  0  0  0  0
   12.4990   -1.6550   23.2080 C   0  0  0  0  0  0  0  0  0  0  0  0
   11.3490   -1.7100   22.4270 C   0  0  0  0  0  0  0  0  0  0  0  0
    7.2230   -0.1130   21.0660 N   0  0  0  0  0  0  0  0  0  0  0  0
    6.3260    0.5370   20.1860 C   0  0  0  0  0  0  0  0  0  0  0  0
    5.7530    0.0640   18.9890 C   0  0  0  0  0  0  0  0  0  0  0  0
    6.0680   -1.5200   18.3910 Cl  0  0  0  0  0  0  0  0  0  0  0  0
    4.8860    0.9130   18.2210 N   0  0  0  0  0  0  0  0  0  0  0  0
    4.4680    2.2610   18.5130 C   0  0  0  0  0  0  0  0  0  0  0  0
    5.0840    2.6120   19.7870 N   0  0  0  0  0  0  0  0  0  0  0  0
    5.6790    1.2140   19.6040 N   0  0  0  0  0  0  0  0  0  0  0  0
    5.1550    0.7580   18.3440 C   0  0  0  0  0  0  0  0  0  0  0  0
    5.0310    1.9400   19.1370 C   0  0  0  0  0  0  0  0  0  0  0  0
    5.8680    1.9330   20.5300 C   0  0  0  0  0  0  0  0  0  0  0  0
  1  2  2  0
  2  3  1  0
  3  4  1  0
  4  5  2  0
  5  6  1  0
  6  7  2  0
  7  8  1  0
  4  9  1  0
  8  9  2  0
  2 10  1  0
 10 11  1  0
 11 12  2  0
 12 13  1  0
 12 14  1  0
 14 15  2  0
 15 16  1  0
 16 17  1  0
 17 18  2  0
 18 19  1  0
 11 20  1  0
 16 20  1  0
 19 20  2  0
M  END
