SID-ELM-b654bfa2-16
     RDKit          3D

 21 23  0  0  0  0  0  0  0  0999 V2000
    9.0780    1.0300   21.5720 O   0  0  0  0  0  0  0  0  0  0  0  0
    8.6590   -0.1140   21.7150 C   0  0  0  0  0  0  0  0  0  0  0  0
    9.4380   -1.1480   22.4610 C   0  0  0  0  0  0  0  0  0  0  0  0
   10.7780   -1.2750   22.3580 C   0  0  0  0  0  0  0  0  0  0  0  0
   11.4200   -2.4150   23.1490 C   0  0  0  0  0  0  0  0  0  0  0  0
   11.9760   -2.1220   24.4460 C   0  0  0  0  0  0  0  0  0  0  0  0
   12.6950   -0.9370   24.5080 C   0  0  0  0  0  0  0  0  0  0  0  0
   11.8750    0.1390   24.2060 C   0  0  0  0  0  0  0  0  0  0  0  0
   11.4870    0.0450   22.7400 C   0  0  0  0  0  0  0  0  0  0  0  0
    7.3790   -0.6190   21.2160 N   0  0  0  0  0  0  0  0  0  0  0  0
    6.5490    0.0420   20.1930 C   0  0  0  0  0  0  0  0  0  0  0  0
    6.7590   -0.2000   18.8570 C   0  0  0  0  0  0  0  0  0  0  0  0
    7.7090   -1.0470   18.5000 F   0  0  0  0  0  0  0  0  0  0  0  0
    6.0880    0.3430   17.8390 N   0  0  0  0  0  0  0  0  0  0  0  0
    5.1280    1.1870   18.1990 C   0  0  0  0  0  0  0  0  0  0  0  0
    4.7480    1.5640   19.5670 C   0  0  0  0  0  0  0  0  0  0  0  0
    3.7690    2.4100   19.7330 N   0  0  0  0  0  0  0  0  0  0  0  0
    3.5720    2.6430   21.1210 C   0  0  0  0  0  0  0  0  0  0  0  0
    4.2780    2.0790   22.0910 N   0  0  0  0  0  0  0  0  0  0  0  0
    5.3230    1.1740   22.0130 C   0  0  0  0  0  0  0  0  0  0  0  0
    5.5080    0.9540   20.5970 C   0  0  0  0  0  0  0  0  0  0  0  0
  1  2  2  0
  2  3  1  0
  3  4  1  0
  4  5  1  0
  5  6  1  0
  6  7  1  0
  7  8  1  0
  4  9  1  0
  8  9  1  0
  2 10  1  0
 10 11  1  0
 11 12  2  0
 12 13  1  0
 12 14  1  0
 14 15  2  0
 15 16  1  0
 16 17  1  0
 17 18  2  0
 18 19  1  0
 19 20  2  0
 11 21  1  0
 16 21  2  0
 20 21  1  0
M  END
