SID-ELM-b654bfa2-3
     RDKit          3D

 20 21  0  0  0  0  0  0  0  0999 V2000
    3.8330    3.7760   20.2760 C   0  0  0  0  0  0  0  0  0  0  0  0
    3.5220    2.5100   19.7970 N   0  0  0  0  0  0  0  0  0  0  0  0
    2.2200    2.0390   20.2950 C   0  0  0  0  0  0  0  0  0  0  0  0
    4.6180    1.5710   19.5700 C   0  0  0  0  0  0  0  0  0  0  0  0
    4.9540    1.4060   18.2320 C   0  0  0  0  0  0  0  0  0  0  0  0
    6.0220    0.5060   17.7680 N   0  0  0  0  0  0  0  0  0  0  0  0
    6.7110   -0.1950   18.8270 C   0  0  0  0  0  0  0  0  0  0  0  0
    7.6910   -1.0310   18.5080 F   0  0  0  0  0  0  0  0  0  0  0  0
    6.3500    0.0030   20.2590 C   0  0  0  0  0  0  0  0  0  0  0  0
    7.1110   -0.7100   21.1930 N   0  0  0  0  0  0  0  0  0  0  0  0
    8.2990   -0.2070   21.6570 C   0  0  0  0  0  0  0  0  0  0  0  0
    8.6380    0.9660   21.5240 O   0  0  0  0  0  0  0  0  0  0  0  0
    9.0590   -1.1660   22.2710 N   0  0  0  0  0  0  0  0  0  0  0  0
   10.3890   -0.9610   22.5830 C   0  0  0  0  0  0  0  0  0  0  0  0
   10.6700    0.2380   23.3910 C   0  0  0  0  0  0  0  0  0  0  0  0
   11.9120    0.5580   23.7500 C   0  0  0  0  0  0  0  0  0  0  0  0
   12.9840   -0.2340   23.3730 C   0  0  0  0  0  0  0  0  0  0  0  0
   12.8090   -1.3810   22.6150 C   0  0  0  0  0  0  0  0  0  0  0  0
   11.5790   -1.8230   22.1770 C   0  0  0  0  0  0  0  0  0  0  0  0
    5.3160    0.8730   20.5640 C   0  0  0  0  0  0  0  0  0  0  0  0
  1  2  1  0
  2  3  1  0
  2  4  1  0
  4  5  2  0
  5  6  1  0
  6  7  2  0
  7  8  1  0
  7  9  1  0
  9 10  1  0
 10 11  1  0
 11 12  2  0
 11 13  1  0
 13 14  1  0
 14 15  2  0
 15 16  1  0
 16 17  2  0
 17 18  1  0
 14 19  1  0
 18 19  2  0
  4 20  1  0
  9 20  2  0
M  END
