SID-ELM-1f105489-13
     RDKit          3D

 20 22  0  0  0  0  0  0  0  0999 V2000
   13.2460   -1.8430   23.8470 C   0  0  0  0  0  0  0  0  0  0  0  0
   11.9370   -1.2290   23.7400 N   0  0  0  0  0  0  0  0  0  0  0  0
   10.9970   -2.1180   23.0280 C   0  0  0  0  0  0  0  0  0  0  0  0
    9.7760   -1.5620   22.8800 C   0  0  0  0  0  0  0  0  0  0  0  0
    9.8580   -0.2160   22.2890 N   0  0  0  0  0  0  0  0  0  0  0  0
    8.8250    0.2920   21.5190 C   0  0  0  0  0  0  0  0  0  0  0  0
    8.8080    1.5060   21.2290 O   0  0  0  0  0  0  0  0  0  0  0  0
    7.8150   -0.5970   21.0550 N   0  0  0  0  0  0  0  0  0  0  0  0
    6.9350   -0.1720   20.0780 C   0  0  0  0  0  0  0  0  0  0  0  0
    7.1110   -0.6530   18.6790 C   0  0  0  0  0  0  0  0  0  0  0  0
    8.0040   -1.4830   18.2420 F   0  0  0  0  0  0  0  0  0  0  0  0
    6.0790    0.0120   17.9180 N   0  0  0  0  0  0  0  0  0  0  0  0
    5.3010    0.8360   18.8860 C   0  0  0  0  0  0  0  0  0  0  0  0
    4.2430    1.6200   18.6490 N   0  0  0  0  0  0  0  0  0  0  0  0
    3.7000    2.2660   19.7310 C   0  0  0  0  0  0  0  0  0  0  0  0
    4.1240    2.2170   21.0870 N   0  0  0  0  0  0  0  0  0  0  0  0
    5.2070    1.4200   21.2640 C   0  0  0  0  0  0  0  0  0  0  0  0
    5.8500    0.6770   20.1280 C   0  0  0  0  0  0  0  0  0  0  0  0
   10.7090    0.6040   22.9140 C   0  0  0  0  0  0  0  0  0  0  0  0
   11.9940    0.0810   23.1120 C   0  0  0  0  0  0  0  0  0  0  0  0
  1  2  1  0
  2  3  1  0
  3  4  1  0
  4  5  1  0
  5  6  1  0
  6  7  2  0
  6  8  1  0
  8  9  1  0
  9 10  2  0
 10 11  1  0
 10 12  1  0
 12 13  1  0
 13 14  1  0
 14 15  2  0
 15 16  1  0
 16 17  2  0
  9 18  1  0
 13 18  2  0
 17 18  1  0
  5 19  1  0
  2 20  1  0
 19 20  1  0
M  END
