SID-ELM-1f105489-17
     RDKit          3D

 20 22  0  0  0  0  0  0  0  0999 V2000
   13.1090   -1.5880   24.0670 C   0  0  0  0  0  0  0  0  0  0  0  0
   12.3630   -1.1920   22.9790 N   0  0  0  0  0  0  0  0  0  0  0  0
   11.4360   -1.9950   22.2870 C   0  0  0  0  0  0  0  0  0  0  0  0
   10.0210   -1.6430   22.4400 C   0  0  0  0  0  0  0  0  0  0  0  0
    9.9280   -0.3190   22.1300 N   0  0  0  0  0  0  0  0  0  0  0  0
    8.8310    0.3470   21.4760 C   0  0  0  0  0  0  0  0  0  0  0  0
    8.8010    1.5540   21.1810 O   0  0  0  0  0  0  0  0  0  0  0  0
    7.7660   -0.5020   21.1840 N   0  0  0  0  0  0  0  0  0  0  0  0
    6.7450   -0.0150   20.2760 C   0  0  0  0  0  0  0  0  0  0  0  0
    6.7310   -0.6120   19.1050 C   0  0  0  0  0  0  0  0  0  0  0  0
    7.5810   -1.8190   18.4160 Cl  0  0  0  0  0  0  0  0  0  0  0  0
    5.8060   -0.0860   18.3880 N   0  0  0  0  0  0  0  0  0  0  0  0
    5.1560    0.8990   19.1240 C   0  0  0  0  0  0  0  0  0  0  0  0
    4.0950    1.6980   18.7220 N   0  0  0  0  0  0  0  0  0  0  0  0
    3.6000    2.6070   19.6420 C   0  0  0  0  0  0  0  0  0  0  0  0
    4.1150    2.8250   21.0730 C   0  0  0  0  0  0  0  0  0  0  0  0
    5.1820    1.8770   21.1630 C   0  0  0  0  0  0  0  0  0  0  0  0
    5.8020    0.9190   20.3870 C   0  0  0  0  0  0  0  0  0  0  0  0
   10.5950    0.4730   23.0180 C   0  0  0  0  0  0  0  0  0  0  0  0
   12.1120    0.2380   23.0220 C   0  0  0  0  0  0  0  0  0  0  0  0
  1  2  1  0
  2  3  1  0
  3  4  1  0
  4  5  1  0
  5  6  1  0
  6  7  2  0
  6  8  1  0
  8  9  1  0
  9 10  2  0
 10 11  1  0
 10 12  1  0
 12 13  1  0
 13 14  1  0
 14 15  2  0
 15 16  1  0
 16 17  2  0
  9 18  1  0
 13 18  2  0
 17 18  1  0
  5 19  1  0
  2 20  1  0
 19 20  1  0
M  END
