SID-ELM-1f105489-14
     RDKit          3D

 20 22  0  0  0  0  0  0  0  0999 V2000
   13.3580   -1.4400   23.8510 C   0  0  0  0  0  0  0  0  0  0  0  0
   12.0250   -1.1840   23.7580 N   0  0  0  0  0  0  0  0  0  0  0  0
   11.0640   -2.0550   23.2350 C   0  0  0  0  0  0  0  0  0  0  0  0
    9.6380   -1.5940   23.0720 C   0  0  0  0  0  0  0  0  0  0  0  0
    9.6360   -0.1850   22.6700 N   0  0  0  0  0  0  0  0  0  0  0  0
    8.8410    0.3090   21.6750 C   0  0  0  0  0  0  0  0  0  0  0  0
    8.9490    1.4800   21.2480 O   0  0  0  0  0  0  0  0  0  0  0  0
    7.9020   -0.5210   21.1450 N   0  0  0  0  0  0  0  0  0  0  0  0
    7.0170   -0.1070   20.1690 C   0  0  0  0  0  0  0  0  0  0  0  0
    7.1160   -0.5160   18.7500 C   0  0  0  0  0  0  0  0  0  0  0  0
    8.0050   -1.3200   18.2510 F   0  0  0  0  0  0  0  0  0  0  0  0
    6.1540    0.0650   18.0360 N   0  0  0  0  0  0  0  0  0  0  0  0
    5.3830    0.8170   18.8730 C   0  0  0  0  0  0  0  0  0  0  0  0
    4.3220    1.5220   18.4860 N   0  0  0  0  0  0  0  0  0  0  0  0
    3.7390    2.1570   19.5220 C   0  0  0  0  0  0  0  0  0  0  0  0
    4.2050    2.0870   20.8440 C   0  0  0  0  0  0  0  0  0  0  0  0
    5.2860    1.3790   21.2180 N   0  0  0  0  0  0  0  0  0  0  0  0
    5.8820    0.7260   20.1890 C   0  0  0  0  0  0  0  0  0  0  0  0
   10.4760    0.6680   23.3850 C   0  0  0  0  0  0  0  0  0  0  0  0
   11.7920    0.2300   23.3530 C   0  0  0  0  0  0  0  0  0  0  0  0
  1  2  1  0
  2  3  1  0
  3  4  1  0
  4  5  1  0
  5  6  1  0
  6  7  2  0
  6  8  1  0
  8  9  1  0
  9 10  2  0
 10 11  1  0
 10 12  1  0
 12 13  1  0
 13 14  1  0
 14 15  2  0
 15 16  1  0
 16 17  2  0
  9 18  1  0
 13 18  2  0
 17 18  1  0
  5 19  1  0
  2 20  1  0
 19 20  1  0
M  END
