SID-ELM-b654bfa2-22
     RDKit          3D

 21 23  0  0  0  0  0  0  0  0999 V2000
    9.0760    1.2910   21.0370 O   0  0  0  0  0  0  0  0  0  0  0  0
    8.6800    0.1640   21.3570 C   0  0  0  0  0  0  0  0  0  0  0  0
    9.2900   -0.6390   22.3030 N   0  0  0  0  0  0  0  0  0  0  0  0
   10.6160   -0.4900   22.7120 C   0  0  0  0  0  0  0  0  0  0  0  0
   11.1100    0.7100   23.2060 C   0  0  0  0  0  0  0  0  0  0  0  0
   12.4390    0.8040   23.6100 C   0  0  0  0  0  0  0  0  0  0  0  0
   13.2740   -0.2990   23.5130 C   0  0  0  0  0  0  0  0  0  0  0  0
   12.7890   -1.5060   23.0160 C   0  0  0  0  0  0  0  0  0  0  0  0
   11.4630   -1.6040   22.6130 C   0  0  0  0  0  0  0  0  0  0  0  0
    7.5620   -0.4690   20.8490 N   0  0  0  0  0  0  0  0  0  0  0  0
    6.6360    0.1190   19.9590 C   0  0  0  0  0  0  0  0  0  0  0  0
    6.9030   -0.1640   18.6270 C   0  0  0  0  0  0  0  0  0  0  0  0
    7.8790   -0.9450   18.1680 F   0  0  0  0  0  0  0  0  0  0  0  0
    6.1250    0.4320   17.7320 N   0  0  0  0  0  0  0  0  0  0  0  0
    5.0940    1.2290   18.1380 C   0  0  0  0  0  0  0  0  0  0  0  0
    4.7730    1.4610   19.4600 C   0  0  0  0  0  0  0  0  0  0  0  0
    3.5870    2.2450   19.2640 N   0  0  0  0  0  0  0  0  0  0  0  0
    2.6070    2.1070   20.0940 C   0  0  0  0  0  0  0  0  0  0  0  0
    3.4500    1.3410   20.6070 N   0  0  0  0  0  0  0  0  0  0  0  0
    4.6550    1.6740   21.2120 C   0  0  0  0  0  0  0  0  0  0  0  0
    5.5880    0.9430   20.6250 C   0  0  0  0  0  0  0  0  0  0  0  0
  1  2  2  0
  2  3  1  0
  3  4  1  0
  4  5  2  0
  5  6  1  0
  6  7  2  0
  7  8  1  0
  4  9  1  0
  8  9  2  0
  2 10  1  0
 10 11  1  0
 11 12  2  0
 12 13  1  0
 12 14  1  0
 14 15  2  0
 15 16  1  0
 16 17  1  0
 17 18  2  0
 18 19  1  0
 19 20  2  0
 11 21  1  0
 16 21  2  0
 20 21  1  0
M  END
