SID-ELM-8b394441-26
     RDKit          3D

 21 23  0  0  0  0  0  0  0  0999 V2000
    9.0590    0.7920   21.6280 O   0  0  0  0  0  0  0  0  0  0  0  0
    8.4280   -0.2320   21.8660 C   0  0  0  0  0  0  0  0  0  0  0  0
    9.0080   -1.4550   22.6000 C   0  0  0  0  0  0  0  0  0  0  0  0
   10.3870   -1.6350   22.7790 C   0  0  0  0  0  0  0  0  0  0  0  0
   10.7830   -2.3240   23.9090 C   0  0  0  0  0  0  0  0  0  0  0  0
   12.1500   -2.5090   23.9930 C   0  0  0  0  0  0  0  0  0  0  0  0
   12.9130   -1.3600   23.8600 C   0  0  0  0  0  0  0  0  0  0  0  0
   12.5040   -0.4960   22.8340 C   0  0  0  0  0  0  0  0  0  0  0  0
   11.1240   -0.2910   22.8720 C   0  0  0  0  0  0  0  0  0  0  0  0
    7.0910   -0.4430   21.5170 N   0  0  0  0  0  0  0  0  0  0  0  0
    6.6480   -0.1050   20.2940 C   0  0  0  0  0  0  0  0  0  0  0  0
    6.7720   -0.5350   19.0600 C   0  0  0  0  0  0  0  0  0  0  0  0
    7.5840   -1.8280   18.4210 Cl  0  0  0  0  0  0  0  0  0  0  0  0
    5.9880    0.3730   18.1690 N   0  0  0  0  0  0  0  0  0  0  0  0
    5.2050    1.5030   18.7570 C   0  0  0  0  0  0  0  0  0  0  0  0
    5.1230    1.8330   20.3040 C   0  0  0  0  0  0  0  0  0  0  0  0
    4.3120    2.8100   19.9390 N   0  0  0  0  0  0  0  0  0  0  0  0
    4.1510    2.8590   18.5980 C   0  0  0  0  0  0  0  0  0  0  0  0
    4.8270    1.9210   17.7830 C   0  0  0  0  0  0  0  0  0  0  0  0
    5.6780    0.8930   18.3970 N   0  0  0  0  0  0  0  0  0  0  0  0
    5.8420    0.8620   19.8740 C   0  0  0  0  0  0  0  0  0  0  0  0
  1  2  2  0
  2  3  1  0
  3  4  1  0
  4  5  1  0
  5  6  1  0
  6  7  1  0
  7  8  1  0
  4  9  1  0
  8  9  1  0
  2 10  1  0
 10 11  1  0
 11 12  2  0
 12 13  1  0
 12 14  1  0
 14 15  2  0
 15 16  1  0
 16 17  1  0
 17 18  2  0
 18 19  1  0
 19 20  2  0
 11 21  1  0
 16 21  2  0
 20 21  1  0
M  END
