SID-ELM-8b394441-8
     RDKit          3D

 21 23  0  0  0  0  0  0  0  0999 V2000
    9.0330    1.1440   21.3330 O   0  0  0  0  0  0  0  0  0  0  0  0
    8.4700    0.0980   21.7200 C   0  0  0  0  0  0  0  0  0  0  0  0
    8.9530   -0.7860   22.6700 N   0  0  0  0  0  0  0  0  0  0  0  0
   10.3800   -0.5790   22.7380 C   0  0  0  0  0  0  0  0  0  0  0  0
   10.6340    0.7530   22.9980 C   0  0  0  0  0  0  0  0  0  0  0  0
   12.0570    1.1740   23.1050 C   0  0  0  0  0  0  0  0  0  0  0  0
   13.0410    0.2280   22.9420 C   0  0  0  0  0  0  0  0  0  0  0  0
   12.6570   -1.2010   22.6640 C   0  0  0  0  0  0  0  0  0  0  0  0
   11.3700   -1.5750   22.5670 C   0  0  0  0  0  0  0  0  0  0  0  0
    7.2320   -0.3570   21.2830 N   0  0  0  0  0  0  0  0  0  0  0  0
    6.4170    0.2690   20.4260 C   0  0  0  0  0  0  0  0  0  0  0  0
    6.5400   -0.1780   18.9910 C   0  0  0  0  0  0  0  0  0  0  0  0
    7.5690   -1.4060   18.5670 Cl  0  0  0  0  0  0  0  0  0  0  0  0
    5.7790    0.4250   17.9660 N   0  0  0  0  0  0  0  0  0  0  0  0
    4.9320    1.3860   18.3590 C   0  0  0  0  0  0  0  0  0  0  0  0
    4.7710    1.8270   19.7930 C   0  0  0  0  0  0  0  0  0  0  0  0
    3.8020    2.8380   19.9220 N   0  0  0  0  0  0  0  0  0  0  0  0
    3.6280    2.7760   18.7000 C   0  0  0  0  0  0  0  0  0  0  0  0
    4.5160    2.0340   19.5430 N   0  0  0  0  0  0  0  0  0  0  0  0
    4.5880    2.2590   21.0280 C   0  0  0  0  0  0  0  0  0  0  0  0
    5.5290    1.2840   20.9470 C   0  0  0  0  0  0  0  0  0  0  0  0
  1  2  2  0
  2  3  1  0
  3  4  1  0
  4  5  2  0
  5  6  1  0
  6  7  2  0
  7  8  1  0
  4  9  1  0
  8  9  2  0
  2 10  1  0
 10 11  1  0
 11 12  2  0
 12 13  1  0
 12 14  1  0
 14 15  2  0
 15 16  1  0
 16 17  1  0
 17 18  2  0
 18 19  1  0
 19 20  2  0
 11 21  1  0
 16 21  2  0
 20 21  1  0
M  END
