SID-ELM-b654bfa2-17
     RDKit          3D

 20 22  0  0  0  0  0  0  0  0999 V2000
    8.8050    0.7570   21.4260 O   0  0  0  0  0  0  0  0  0  0  0  0
    8.3260   -0.3370   21.7130 C   0  0  0  0  0  0  0  0  0  0  0  0
    9.0270   -1.3040   22.5420 N   0  0  0  0  0  0  0  0  0  0  0  0
   10.3850   -0.8350   22.7460 C   0  0  0  0  0  0  0  0  0  0  0  0
   10.4730    0.3340   23.3890 C   0  0  0  0  0  0  0  0  0  0  0  0
   11.8840    0.8450   23.5930 C   0  0  0  0  0  0  0  0  0  0  0  0
   13.0040    0.1030   23.1190 C   0  0  0  0  0  0  0  0  0  0  0  0
   12.8040   -1.1100   22.4690 C   0  0  0  0  0  0  0  0  0  0  0  0
   11.4990   -1.5680   22.2860 C   0  0  0  0  0  0  0  0  0  0  0  0
    7.0900   -0.6850   21.2580 N   0  0  0  0  0  0  0  0  0  0  0  0
    6.4540   -0.0680   20.2520 C   0  0  0  0  0  0  0  0  0  0  0  0
    6.7760   -0.2530   18.7980 C   0  0  0  0  0  0  0  0  0  0  0  0
    7.7380   -1.0770   18.4260 F   0  0  0  0  0  0  0  0  0  0  0  0
    6.1120    0.4000   17.8200 N   0  0  0  0  0  0  0  0  0  0  0  0
    5.1090    1.2490   18.1830 C   0  0  0  0  0  0  0  0  0  0  0  0
    4.6920    1.5090   19.5270 C   0  0  0  0  0  0  0  0  0  0  0  0
    3.6480    2.3860   19.8450 N   0  0  0  0  0  0  0  0  0  0  0  0
    3.8490    2.1140   21.2130 C   0  0  0  0  0  0  0  0  0  0  0  0
    4.8850    1.1930   21.6080 C   0  0  0  0  0  0  0  0  0  0  0  0
    5.4220    0.8100   20.4640 C   0  0  0  0  0  0  0  0  0  0  0  0
  1  2  2  0
  2  3  1  0
  3  4  1  0
  4  5  2  0
  5  6  1  0
  6  7  2  0
  7  8  1  0
  4  9  1  0
  8  9  2  0
  2 10  1  0
 10 11  1  0
 11 12  2  0
 12 13  1  0
 12 14  1  0
 14 15  2  0
 15 16  1  0
 16 17  1  0
 17 18  1  0
 18 19  2  0
 11 20  1  0
 16 20  2  0
 19 20  1  0
M  END
