SID-ELM-b654bfa2-11
     RDKit          3D

 20 22  0  0  0  0  0  0  0  0999 V2000
    9.1350    0.8680   21.5720 O   0  0  0  0  0  0  0  0  0  0  0  0
    8.6340   -0.2140   21.8640 C   0  0  0  0  0  0  0  0  0  0  0  0
    9.2130   -1.1580   22.9230 C   0  0  0  0  0  0  0  0  0  0  0  0
   10.5520   -1.2370   23.0150 C   0  0  0  0  0  0  0  0  0  0  0  0
   11.0720   -1.8830   24.2950 C   0  0  0  0  0  0  0  0  0  0  0  0
   12.5810   -1.6510   24.4780 C   0  0  0  0  0  0  0  0  0  0  0  0
   13.2710   -2.3580   23.3550 C   0  0  0  0  0  0  0  0  0  0  0  0
   12.8220   -1.5850   22.1150 C   0  0  0  0  0  0  0  0  0  0  0  0
   11.2800   -1.8050   21.9890 C   0  0  0  0  0  0  0  0  0  0  0  0
    7.4210   -0.7350   21.2570 N   0  0  0  0  0  0  0  0  0  0  0  0
    6.5850   -0.0320   20.3590 C   0  0  0  0  0  0  0  0  0  0  0  0
    6.8430   -0.2450   18.8590 C   0  0  0  0  0  0  0  0  0  0  0  0
    7.7860   -1.0630   18.4480 F   0  0  0  0  0  0  0  0  0  0  0  0
    6.1580    0.3610   17.8930 N   0  0  0  0  0  0  0  0  0  0  0  0
    5.0840    1.2830   18.1220 C   0  0  0  0  0  0  0  0  0  0  0  0
    4.7270    1.5540   19.5550 C   0  0  0  0  0  0  0  0  0  0  0  0
    3.7360    2.3860   19.9110 N   0  0  0  0  0  0  0  0  0  0  0  0
    4.0450    2.0970   21.3270 C   0  0  0  0  0  0  0  0  0  0  0  0
    5.0260    1.2570   21.9010 C   0  0  0  0  0  0  0  0  0  0  0  0
    5.5000    0.8790   20.6630 C   0  0  0  0  0  0  0  0  0  0  0  0
  1  2  2  0
  2  3  1  0
  3  4  1  0
  4  5  1  0
  5  6  1  0
  6  7  1  0
  7  8  1  0
  4  9  1  0
  8  9  1  0
  2 10  1  0
 10 11  1  0
 11 12  2  0
 12 13  1  0
 12 14  1  0
 14 15  2  0
 15 16  1  0
 16 17  1  0
 17 18  1  0
 18 19  2  0
 11 20  1  0
 16 20  2  0
 19 20  1  0
M  END
