SID-ELM-8b394441-14
     RDKit          3D

 20 22  0  0  0  0  0  0  0  0999 V2000
    9.1920    1.4650   21.4070 O   0  0  0  0  0  0  0  0  0  0  0  0
    8.8910    0.2760   21.5670 C   0  0  0  0  0  0  0  0  0  0  0  0
    9.8810   -0.7660   21.6830 N   0  0  0  0  0  0  0  0  0  0  0  0
   10.0580   -1.5010   22.7930 C   0  0  0  0  0  0  0  0  0  0  0  0
   11.3070   -1.4070   22.3430 C   0  0  0  0  0  0  0  0  0  0  0  0
   12.7800   -1.5860   22.2690 C   0  0  0  0  0  0  0  0  0  0  0  0
   13.2430   -2.3930   23.4230 C   0  0  0  0  0  0  0  0  0  0  0  0
   12.0760   -2.7720   24.2990 C   0  0  0  0  0  0  0  0  0  0  0  0
   10.6190   -2.2820   23.8810 C   0  0  0  0  0  0  0  0  0  0  0  0
    7.5790   -0.0820   21.6010 N   0  0  0  0  0  0  0  0  0  0  0  0
    6.5710    0.4230   20.8980 C   0  0  0  0  0  0  0  0  0  0  0  0
    6.0710    0.8750   19.5860 C   0  0  0  0  0  0  0  0  0  0  0  0
    6.9790    0.8440   18.2250 Cl  0  0  0  0  0  0  0  0  0  0  0  0
    4.6160    1.4690   19.2810 N   0  0  0  0  0  0  0  0  0  0  0  0
    3.5070    1.6740   20.3300 C   0  0  0  0  0  0  0  0  0  0  0  0
    4.1800    1.2560   21.2260 C   0  0  0  0  0  0  0  0  0  0  0  0
    4.1450    1.5250   19.8550 N   0  0  0  0  0  0  0  0  0  0  0  0
    4.9710    1.1090   20.4250 N   0  0  0  0  0  0  0  0  0  0  0  0
    5.6960    1.0010   19.5360 C   0  0  0  0  0  0  0  0  0  0  0  0
    5.5180    0.8160   20.9040 C   0  0  0  0  0  0  0  0  0  0  0  0
  1  2  2  0
  2  3  1  0
  3  4  1  0
  4  5  2  0
  5  6  1  0
  6  7  2  0
  7  8  1  0
  4  9  1  0
  8  9  2  0
  2 10  1  0
 10 11  1  0
 11 12  2  0
 12 13  1  0
 12 14  1  0
 14 15  2  0
 15 16  1  0
 16 17  1  0
 17 18  1  0
 18 19  2  0
 11 20  1  0
 16 20  2  0
 19 20  1  0
M  END
