SID-ELM-8b394441-3
     RDKit          3D

 17 18  0  0  0  0  0  0  0  0999 V2000
    8.8920    1.4050   21.1800 O   0  0  0  0  0  0  0  0  0  0  0  0
    8.3250    0.3790   21.5740 C   0  0  0  0  0  0  0  0  0  0  0  0
    8.9040   -0.5710   22.3900 N   0  0  0  0  0  0  0  0  0  0  0  0
   10.2320   -0.5250   22.7990 C   0  0  0  0  0  0  0  0  0  0  0  0
   10.7320    0.5240   23.5550 C   0  0  0  0  0  0  0  0  0  0  0  0
   12.0580    0.5290   23.9270 C   0  0  0  0  0  0  0  0  0  0  0  0
   12.8950   -0.5110   23.5580 C   0  0  0  0  0  0  0  0  0  0  0  0
   12.4150   -1.5650   22.8050 C   0  0  0  0  0  0  0  0  0  0  0  0
   11.0810   -1.5750   22.4230 C   0  0  0  0  0  0  0  0  0  0  0  0
    7.0240    0.0360   21.2650 N   0  0  0  0  0  0  0  0  0  0  0  0
    6.2990    0.6300   20.2140 C   0  0  0  0  0  0  0  0  0  0  0  0
    5.4460    1.7120   20.3280 C   0  0  0  0  0  0  0  0  0  0  0  0
    4.8180    2.1980   19.1840 C   0  0  0  0  0  0  0  0  0  0  0  0
    5.0710    1.5860   17.9720 C   0  0  0  0  0  0  0  0  0  0  0  0
    5.8810    0.5340   17.8210 N   0  0  0  0  0  0  0  0  0  0  0  0
    6.4470    0.1060   18.9510 C   0  0  0  0  0  0  0  0  0  0  0  0
    7.4380   -1.2320   18.7240 Cl  0  0  0  0  0  0  0  0  0  0  0  0
  1  2  2  0
  2  3  1  0
  3  4  1  0
  4  5  2  0
  5  6  1  0
  6  7  2  0
  7  8  1  0
  4  9  1  0
  8  9  2  0
  2 10  1  0
 10 11  1  0
 11 12  2  0
 12 13  1  0
 13 14  2  0
 14 15  1  0
 11 16  1  0
 15 16  2  0
 16 17  1  0
M  END
