SID-ELM-8b394441-2
     RDKit          3D

 17 18  0  0  0  0  0  0  0  0999 V2000
    9.1300    1.7490   21.3890 O   0  0  0  0  0  0  0  0  0  0  0  0
    8.7220    0.6950   21.8880 C   0  0  0  0  0  0  0  0  0  0  0  0
    9.4040    0.1100   23.0740 C   0  0  0  0  0  0  0  0  0  0  0  0
   10.5650   -0.5040   22.8950 C   0  0  0  0  0  0  0  0  0  0  0  0
   10.6930   -1.4340   21.7780 C   0  0  0  0  0  0  0  0  0  0  0  0
   12.1200   -1.9040   21.5920 C   0  0  0  0  0  0  0  0  0  0  0  0
   13.0370   -1.1160   22.5050 C   0  0  0  0  0  0  0  0  0  0  0  0
   12.6580   -1.3560   23.9760 C   0  0  0  0  0  0  0  0  0  0  0  0
   11.1140   -1.3480   24.0430 C   0  0  0  0  0  0  0  0  0  0  0  0
    7.5870   -0.0820   21.3990 N   0  0  0  0  0  0  0  0  0  0  0  0
    6.7640    0.3660   20.3480 C   0  0  0  0  0  0  0  0  0  0  0  0
    5.6890    1.4500   20.5700 C   0  0  0  0  0  0  0  0  0  0  0  0
    4.8930    1.8640   19.3540 C   0  0  0  0  0  0  0  0  0  0  0  0
    5.1450    1.2760   18.1100 C   0  0  0  0  0  0  0  0  0  0  0  0
    6.0380    0.3310   17.8020 N   0  0  0  0  0  0  0  0  0  0  0  0
    6.8560   -0.1440   18.9150 C   0  0  0  0  0  0  0  0  0  0  0  0
    7.7390   -1.0870   18.6240 F   0  0  0  0  0  0  0  0  0  0  0  0
  1  2  2  0
  2  3  1  0
  3  4  1  0
  4  5  1  0
  5  6  1  0
  6  7  1  0
  7  8  1  0
  4  9  1  0
  8  9  1  0
  2 10  1  0
 10 11  1  0
 11 12  2  0
 12 13  1  0
 13 14  2  0
 14 15  1  0
 11 16  1  0
 15 16  2  0
 16 17  1  0
M  END
