SID-ELM-1f105489-6
     RDKit          3D

 20 22  0  0  0  0  0  0  0  0999 V2000
   13.3680   -1.4870   23.5910 C   0  0  0  0  0  0  0  0  0  0  0  0
   12.0780   -1.0620   23.5310 N   0  0  0  0  0  0  0  0  0  0  0  0
   11.0190   -1.9380   23.2770 C   0  0  0  0  0  0  0  0  0  0  0  0
    9.5930   -1.4330   23.2500 C   0  0  0  0  0  0  0  0  0  0  0  0
    9.5680   -0.0240   22.8270 N   0  0  0  0  0  0  0  0  0  0  0  0
    8.8570    0.4560   21.7560 C   0  0  0  0  0  0  0  0  0  0  0  0
    9.0060    1.5850   21.2510 O   0  0  0  0  0  0  0  0  0  0  0  0
    7.8660   -0.5800   21.2950 C   0  0  0  0  0  0  0  0  0  0  0  0
    6.8640   -0.1340   20.2690 C   0  0  0  0  0  0  0  0  0  0  0  0
    6.7790   -0.7080   19.0350 C   0  0  0  0  0  0  0  0  0  0  0  0
    7.6020   -1.9450   18.3680 Cl  0  0  0  0  0  0  0  0  0  0  0  0
    5.8160   -0.0960   18.3120 N   0  0  0  0  0  0  0  0  0  0  0  0
    5.1970    0.9070   19.0680 C   0  0  0  0  0  0  0  0  0  0  0  0
    4.1860    1.6990   18.6490 N   0  0  0  0  0  0  0  0  0  0  0  0
    3.7800    2.5440   19.5880 C   0  0  0  0  0  0  0  0  0  0  0  0
    4.3820    2.5940   20.9090 C   0  0  0  0  0  0  0  0  0  0  0  0
    5.4130    1.7710   21.2680 C   0  0  0  0  0  0  0  0  0  0  0  0
    5.8540    0.8790   20.3210 C   0  0  0  0  0  0  0  0  0  0  0  0
   10.6030    0.7650   23.3840 C   0  0  0  0  0  0  0  0  0  0  0  0
   11.9190    0.3120   23.3750 C   0  0  0  0  0  0  0  0  0  0  0  0
  1  2  1  0
  2  3  1  0
  3  4  1  0
  4  5  1  0
  5  6  1  0
  6  7  2  0
  6  8  1  0
  8  9  1  0
  9 10  2  0
 10 11  1  0
 10 12  1  0
 12 13  1  0
 13 14  1  0
 14 15  2  0
 15 16  1  0
 16 17  2  0
  9 18  1  0
 13 18  2  0
 17 18  1  0
  5 19  1  0
  2 20  1  0
 19 20  1  0
M  END
