SID-ELM-b654bfa2-10
     RDKit          3D

 21 23  0  0  0  0  0  0  0  0999 V2000
    8.7950    1.2130   21.1670 O   0  0  0  0  0  0  0  0  0  0  0  0
    8.3390    0.0510   21.1280 C   0  0  0  0  0  0  0  0  0  0  0  0
    7.2600   -0.2980   20.2220 C   0  0  0  0  0  0  0  0  0  0  0  0
    6.3710    0.6530   19.8170 C   0  0  0  0  0  0  0  0  0  0  0  0
    5.5720    0.1580   18.8230 C   0  0  0  0  0  0  0  0  0  0  0  0
    4.9320    1.1600   18.1480 C   0  0  0  0  0  0  0  0  0  0  0  0
    4.0030    1.9580   19.0220 C   0  0  0  0  0  0  0  0  0  0  0  0
    4.6520    2.3890   20.3590 C   0  0  0  0  0  0  0  0  0  0  0  0
    5.6660    1.3500   20.8120 C   0  0  0  0  0  0  0  0  0  0  0  0
    8.7470   -1.0460   21.8400 N   0  0  0  0  0  0  0  0  0  0  0  0
    9.8350   -1.0170   22.6440 C   0  0  0  0  0  0  0  0  0  0  0  0
    9.8490   -0.2750   23.7690 C   0  0  0  0  0  0  0  0  0  0  0  0
   10.9230   -1.0120   23.4410 F   0  0  0  0  0  0  0  0  0  0  0  0
   10.8110   -0.1270   24.6980 N   0  0  0  0  0  0  0  0  0  0  0  0
   11.5290   -1.0190   23.8880 C   0  0  0  0  0  0  0  0  0  0  0  0
   12.4200   -1.9010   23.2220 C   0  0  0  0  0  0  0  0  0  0  0  0
   13.3550   -1.5400   24.4810 N   0  0  0  0  0  0  0  0  0  0  0  0
   12.6880   -0.6490   25.3000 C   0  0  0  0  0  0  0  0  0  0  0  0
   12.3830   -1.2050   24.2360 C   0  0  0  0  0  0  0  0  0  0  0  0
   11.3890   -1.1780   23.5320 C   0  0  0  0  0  0  0  0  0  0  0  0
   11.0830   -1.7370   22.4690 C   0  0  0  0  0  0  0  0  0  0  0  0
  1  2  2  0
  2  3  1  0
  3  4  1  0
  4  5  1  0
  5  6  1  0
  6  7  1  0
  7  8  1  0
  4  9  1  0
  8  9  1  0
  2 10  1  0
 10 11  1  0
 11 12  2  0
 12 13  1  0
 12 14  1  0
 14 15  2  0
 15 16  1  0
 16 17  1  0
 17 18  2  0
 18 19  1  0
 19 20  2  0
 11 21  1  0
 16 21  2  0
 20 21  1  0
M  END
