SID-ELM-b654bfa2-4
     RDKit          3D

 21 23  0  0  0  0  0  0  0  0999 V2000
    8.8740    1.2840   21.2930 O   0  0  0  0  0  0  0  0  0  0  0  0
    8.4260    0.1800   21.6570 C   0  0  0  0  0  0  0  0  0  0  0  0
    9.0220   -0.6600   22.5540 N   0  0  0  0  0  0  0  0  0  0  0  0
   10.3660   -0.5750   22.8680 C   0  0  0  0  0  0  0  0  0  0  0  0
   11.0110    0.6420   22.9970 C   0  0  0  0  0  0  0  0  0  0  0  0
   12.3550    0.6790   23.3130 C   0  0  0  0  0  0  0  0  0  0  0  0
   13.0340   -0.5080   23.4960 C   0  0  0  0  0  0  0  0  0  0  0  0
   12.4090   -1.7300   23.3680 C   0  0  0  0  0  0  0  0  0  0  0  0
   11.0630   -1.7670   23.0510 C   0  0  0  0  0  0  0  0  0  0  0  0
    7.2430   -0.3810   21.2300 N   0  0  0  0  0  0  0  0  0  0  0  0
    6.5530    0.0780   20.1180 C   0  0  0  0  0  0  0  0  0  0  0  0
    6.8630   -0.2610   18.8070 C   0  0  0  0  0  0  0  0  0  0  0  0
    7.8120   -1.0740   18.4060 F   0  0  0  0  0  0  0  0  0  0  0  0
    6.0510    0.3610   17.8340 N   0  0  0  0  0  0  0  0  0  0  0  0
    4.9800    1.2590   18.0920 C   0  0  0  0  0  0  0  0  0  0  0  0
    4.7320    1.5080   19.4070 C   0  0  0  0  0  0  0  0  0  0  0  0
    3.8430    2.2610   20.3710 N   0  0  0  0  0  0  0  0  0  0  0  0
    2.9430    2.9590   19.8460 C   0  0  0  0  0  0  0  0  0  0  0  0
    3.9180    2.1500   19.1870 C   0  0  0  0  0  0  0  0  0  0  0  0
    4.4720    1.7760   20.6460 C   0  0  0  0  0  0  0  0  0  0  0  0
    5.4300    0.9840   20.2090 C   0  0  0  0  0  0  0  0  0  0  0  0
  1  2  2  0
  2  3  1  0
  3  4  1  0
  4  5  2  0
  5  6  1  0
  6  7  2  0
  7  8  1  0
  4  9  1  0
  8  9  2  0
  2 10  1  0
 10 11  1  0
 11 12  2  0
 12 13  1  0
 12 14  1  0
 14 15  2  0
 15 16  1  0
 16 17  1  0
 17 18  2  0
 18 19  1  0
 19 20  2  0
 11 21  1  0
 16 21  2  0
 20 21  1  0
M  END
