SID-ELM-2583a2cd-21
     RDKit          3D

 20 22  0  0  0  0  0  0  0  0999 V2000
    8.7610    1.5260   21.0500 O   0  0  0  0  0  0  0  0  0  0  0  0
    8.2490    0.4920   21.4830 C   0  0  0  0  0  0  0  0  0  0  0  0
    6.7430    0.3620   21.7860 C   0  0  0  0  0  0  0  0  0  0  0  0
    5.8000    0.2830   20.7570 C   0  0  0  0  0  0  0  0  0  0  0  0
    5.8590   -0.8040   19.8790 C   0  0  0  0  0  0  0  0  0  0  0  0
    6.1960   -0.4680   18.5710 C   0  0  0  0  0  0  0  0  0  0  0  0
    5.4340    0.5380   17.9850 C   0  0  0  0  0  0  0  0  0  0  0  0
    4.9610    1.4880   18.8860 C   0  0  0  0  0  0  0  0  0  0  0  0
    5.8590    1.5800   19.9340 C   0  0  0  0  0  0  0  0  0  0  0  0
    8.9400   -0.6900   21.7860 N   0  0  0  0  0  0  0  0  0  0  0  0
   10.0620   -0.7490   22.5640 C   0  0  0  0  0  0  0  0  0  0  0  0
   10.3530   -0.2520   23.9890 C   0  0  0  0  0  0  0  0  0  0  0  0
    9.0870    0.0540   23.7060 N   0  0  0  0  0  0  0  0  0  0  0  0
    9.3330   -0.5170   22.5510 C   0  0  0  0  0  0  0  0  0  0  0  0
   10.8530   -0.7730   23.1530 C   0  0  0  0  0  0  0  0  0  0  0  0
   11.2070   -0.3850   24.3630 N   0  0  0  0  0  0  0  0  0  0  0  0
   12.3750   -0.4970   25.0430 C   0  0  0  0  0  0  0  0  0  0  0  0
   13.0250   -1.1740   23.9670 C   0  0  0  0  0  0  0  0  0  0  0  0
   12.6320   -1.5750   22.6890 C   0  0  0  0  0  0  0  0  0  0  0  0
   11.3950   -1.3770   22.1530 C   0  0  0  0  0  0  0  0  0  0  0  0
  1  2  2  0
  2  3  1  0
  3  4  1  0
  4  5  1  0
  5  6  1  0
  6  7  1  0
  7  8  1  0
  4  9  1  0
  8  9  1  0
  2 10  1  0
 10 11  1  0
 11 12  2  0
 12 13  1  0
 13 14  2  0
 14 15  1  0
 15 16  1  0
 16 17  2  0
 17 18  1  0
 18 19  2  0
 11 20  1  0
 15 20  2  0
 19 20  1  0
M  END
