SID-ELM-b654bfa2-14
     RDKit          3D

 20 22  0  0  0  0  0  0  0  0999 V2000
    9.1110    0.8760   21.6530 O   0  0  0  0  0  0  0  0  0  0  0  0
    8.5190   -0.4130   21.5550 C   0  0  0  0  0  0  0  0  0  0  0  0
    9.3430   -1.5480   22.0990 C   0  0  0  0  0  0  0  0  0  0  0  0
   10.4940   -1.2140   22.8210 C   0  0  0  0  0  0  0  0  0  0  0  0
   10.2100   -0.6370   24.0390 C   0  0  0  0  0  0  0  0  0  0  0  0
   11.3180   -0.3960   24.8020 C   0  0  0  0  0  0  0  0  0  0  0  0
   12.5080   -1.0820   24.5710 C   0  0  0  0  0  0  0  0  0  0  0  0
   12.2290   -2.4220   24.0500 C   0  0  0  0  0  0  0  0  0  0  0  0
   11.2340   -2.5240   23.1240 C   0  0  0  0  0  0  0  0  0  0  0  0
    7.2940   -0.7580   21.0350 N   0  0  0  0  0  0  0  0  0  0  0  0
    6.4920   -0.0200   20.1350 C   0  0  0  0  0  0  0  0  0  0  0  0
    6.7850   -0.1940   18.8580 C   0  0  0  0  0  0  0  0  0  0  0  0
    7.7580   -1.0320   18.5270 F   0  0  0  0  0  0  0  0  0  0  0  0
    6.1180    0.4650   17.8250 N   0  0  0  0  0  0  0  0  0  0  0  0
    5.0830    1.3490   18.0740 C   0  0  0  0  0  0  0  0  0  0  0  0
    4.7730    1.5120   19.4200 C   0  0  0  0  0  0  0  0  0  0  0  0
    3.7140    2.3860   19.9170 N   0  0  0  0  0  0  0  0  0  0  0  0
    3.9740    2.0650   21.2310 N   0  0  0  0  0  0  0  0  0  0  0  0
    5.0010    1.1480   21.6960 C   0  0  0  0  0  0  0  0  0  0  0  0
    5.4420    0.8620   20.4180 C   0  0  0  0  0  0  0  0  0  0  0  0
  1  2  2  0
  2  3  1  0
  3  4  1  0
  4  5  1  0
  5  6  1  0
  6  7  1  0
  7  8  1  0
  4  9  1  0
  8  9  1  0
  2 10  1  0
 10 11  1  0
 11 12  2  0
 12 13  1  0
 12 14  1  0
 14 15  2  0
 15 16  1  0
 16 17  1  0
 17 18  1  0
 18 19  2  0
 11 20  1  0
 16 20  2  0
 19 20  1  0
M  END
