SID-ELM-2583a2cd-1
     RDKit          3D

 19 21  0  0  0  0  0  0  0  0999 V2000
    9.1610    0.7340   21.5420 O   0  0  0  0  0  0  0  0  0  0  0  0
    8.6110   -0.3570   21.6270 C   0  0  0  0  0  0  0  0  0  0  0  0
    9.2320   -1.5480   22.2690 C   0  0  0  0  0  0  0  0  0  0  0  0
   10.3560   -1.5380   22.9940 C   0  0  0  0  0  0  0  0  0  0  0  0
   11.6030   -1.9980   22.2190 C   0  0  0  0  0  0  0  0  0  0  0  0
   12.8820   -1.6730   22.7740 C   0  0  0  0  0  0  0  0  0  0  0  0
   12.7820   -0.9470   23.9430 C   0  0  0  0  0  0  0  0  0  0  0  0
   12.0840    0.2210   23.6870 C   0  0  0  0  0  0  0  0  0  0  0  0
   10.6100   -0.1580   23.6590 C   0  0  0  0  0  0  0  0  0  0  0  0
    7.2870   -0.7020   21.1530 N   0  0  0  0  0  0  0  0  0  0  0  0
    6.5540   -0.0100   20.0980 C   0  0  0  0  0  0  0  0  0  0  0  0
    6.8970   -0.1110   18.7770 C   0  0  0  0  0  0  0  0  0  0  0  0
    6.2920    0.4840   17.7410 N   0  0  0  0  0  0  0  0  0  0  0  0
    5.2440    1.2450   18.0800 C   0  0  0  0  0  0  0  0  0  0  0  0
    4.7340    1.4640   19.4450 C   0  0  0  0  0  0  0  0  0  0  0  0
    3.6830    2.2380   19.6610 N   0  0  0  0  0  0  0  0  0  0  0  0
    3.9570    1.8580   21.0850 C   0  0  0  0  0  0  0  0  0  0  0  0
    4.9470    1.0280   21.7050 C   0  0  0  0  0  0  0  0  0  0  0  0
    5.4310    0.8120   20.4280 C   0  0  0  0  0  0  0  0  0  0  0  0
  1  2  2  0
  2  3  1  0
  3  4  1  0
  4  5  1  0
  5  6  1  0
  6  7  1  0
  7  8  1  0
  4  9  1  0
  8  9  1  0
  2 10  1  0
 10 11  1  0
 11 12  2  0
 12 13  1  0
 13 14  2  0
 14 15  1  0
 15 16  1  0
 16 17  1  0
 17 18  2  0
 11 19  1  0
 15 19  2  0
 18 19  1  0
M  END
