SID-ELM-1f105489-9
     RDKit          3D

 19 21  0  0  0  0  0  0  0  0999 V2000
   13.3350   -1.6560   24.1710 C   0  0  0  0  0  0  0  0  0  0  0  0
   12.0720   -1.3200   23.7930 N   0  0  0  0  0  0  0  0  0  0  0  0
   11.1400   -2.1720   23.1980 C   0  0  0  0  0  0  0  0  0  0  0  0
    9.7590   -1.6610   22.8210 C   0  0  0  0  0  0  0  0  0  0  0  0
    9.8500   -0.3110   22.2520 N   0  0  0  0  0  0  0  0  0  0  0  0
    8.8490    0.2080   21.5180 C   0  0  0  0  0  0  0  0  0  0  0  0
    8.7980    1.4150   21.2010 O   0  0  0  0  0  0  0  0  0  0  0  0
    7.8850   -0.6210   21.1060 N   0  0  0  0  0  0  0  0  0  0  0  0
    7.0820   -0.2170   20.0850 C   0  0  0  0  0  0  0  0  0  0  0  0
    7.2860   -0.5050   18.6600 C   0  0  0  0  0  0  0  0  0  0  0  0
    6.3130    0.0780   17.9480 N   0  0  0  0  0  0  0  0  0  0  0  0
    5.4590    0.7320   18.8110 C   0  0  0  0  0  0  0  0  0  0  0  0
    4.3620    1.4300   18.4230 N   0  0  0  0  0  0  0  0  0  0  0  0
    3.6400    2.0000   19.4370 C   0  0  0  0  0  0  0  0  0  0  0  0
    3.9760    1.9000   20.7950 C   0  0  0  0  0  0  0  0  0  0  0  0
    5.1640    1.1440   21.1050 C   0  0  0  0  0  0  0  0  0  0  0  0
    5.9160    0.5550   20.1420 C   0  0  0  0  0  0  0  0  0  0  0  0
   10.7130    0.5190   22.9300 C   0  0  0  0  0  0  0  0  0  0  0  0
   12.0960   -0.0100   23.1360 C   0  0  0  0  0  0  0  0  0  0  0  0
  1  2  1  0
  2  3  1  0
  3  4  1  0
  4  5  1  0
  5  6  1  0
  6  7  2  0
  6  8  1  0
  8  9  1  0
  9 10  2  0
 10 11  1  0
 11 12  1  0
 12 13  1  0
 13 14  2  0
 14 15  1  0
 15 16  2  0
  9 17  1  0
 12 17  2  0
 16 17  1  0
  5 18  1  0
  2 19  1  0
 18 19  1  0
M  END
