SID-ELM-1f105489-2
     RDKit          3D

 19 21  0  0  0  0  0  0  0  0999 V2000
   13.5590   -1.3090   23.6750 C   0  0  0  0  0  0  0  0  0  0  0  0
   12.3030   -0.9820   23.2190 N   0  0  0  0  0  0  0  0  0  0  0  0
   11.4030   -1.7830   22.4880 C   0  0  0  0  0  0  0  0  0  0  0  0
    9.9960   -1.5410   22.8000 C   0  0  0  0  0  0  0  0  0  0  0  0
    9.7990   -0.2150   22.5290 N   0  0  0  0  0  0  0  0  0  0  0  0
    8.9620    0.3790   21.4940 C   0  0  0  0  0  0  0  0  0  0  0  0
    9.1020    1.5340   21.0760 O   0  0  0  0  0  0  0  0  0  0  0  0
    7.9610   -0.4970   21.0160 C   0  0  0  0  0  0  0  0  0  0  0  0
    7.2320   -0.1360   19.8970 C   0  0  0  0  0  0  0  0  0  0  0  0
    7.5810   -0.4160   18.6960 C   0  0  0  0  0  0  0  0  0  0  0  0
    6.6600    0.0930   17.9140 N   0  0  0  0  0  0  0  0  0  0  0  0
    5.4240    0.8540   18.3470 C   0  0  0  0  0  0  0  0  0  0  0  0
    4.3070    1.5410   18.7410 N   0  0  0  0  0  0  0  0  0  0  0  0
    3.7960    1.8960   19.9030 C   0  0  0  0  0  0  0  0  0  0  0  0
    4.4060    1.5900   21.1480 C   0  0  0  0  0  0  0  0  0  0  0  0
    5.5460    0.9190   21.1440 N   0  0  0  0  0  0  0  0  0  0  0  0
    6.0360    0.5690   19.8970 C   0  0  0  0  0  0  0  0  0  0  0  0
   10.4750    0.6820   23.3570 C   0  0  0  0  0  0  0  0  0  0  0  0
   11.9870    0.4240   23.4420 C   0  0  0  0  0  0  0  0  0  0  0  0
  1  2  1  0
  2  3  1  0
  3  4  1  0
  4  5  1  0
  5  6  1  0
  6  7  2  0
  6  8  1  0
  8  9  1  0
  9 10  2  0
 10 11  1  0
 11 12  1  0
 12 13  1  0
 13 14  2  0
 14 15  1  0
 15 16  2  0
  9 17  1  0
 12 17  2  0
 16 17  1  0
  5 18  1  0
  2 19  1  0
 18 19  1  0
M  END
