SID-ELM-8b394441-5
     RDKit          3D

 18 19  0  0  0  0  0  0  0  0999 V2000
    3.6270    2.9170   19.5140 N   0  0  0  0  0  0  0  0  0  0  0  0
    4.5760    1.9200   19.3520 C   0  0  0  0  0  0  0  0  0  0  0  0
    5.0480    1.4500   18.0120 C   0  0  0  0  0  0  0  0  0  0  0  0
    5.9460    0.4860   17.8610 N   0  0  0  0  0  0  0  0  0  0  0  0
    6.4260   -0.0510   18.9880 C   0  0  0  0  0  0  0  0  0  0  0  0
    7.5120   -1.2550   18.7190 Cl  0  0  0  0  0  0  0  0  0  0  0  0
    6.0450    0.3510   20.4020 C   0  0  0  0  0  0  0  0  0  0  0  0
    6.7240   -0.3630   21.3900 N   0  0  0  0  0  0  0  0  0  0  0  0
    8.1360   -0.0730   21.6880 C   0  0  0  0  0  0  0  0  0  0  0  0
    8.7930    0.9180   21.3420 O   0  0  0  0  0  0  0  0  0  0  0  0
    8.9190   -1.0290   22.4980 N   0  0  0  0  0  0  0  0  0  0  0  0
   10.2630   -0.6700   22.6500 C   0  0  0  0  0  0  0  0  0  0  0  0
   10.5650    0.7760   22.9730 C   0  0  0  0  0  0  0  0  0  0  0  0
   12.0400    1.0730   23.1100 C   0  0  0  0  0  0  0  0  0  0  0  0
   13.0770    0.2190   22.9800 C   0  0  0  0  0  0  0  0  0  0  0  0
   12.6850   -1.2570   22.6510 C   0  0  0  0  0  0  0  0  0  0  0  0
   11.3280   -1.6190   22.5050 C   0  0  0  0  0  0  0  0  0  0  0  0
    5.1070    1.3420   20.4970 C   0  0  0  0  0  0  0  0  0  0  0  0
  1  2  1  0
  2  3  2  0
  3  4  1  0
  4  5  2  0
  5  6  1  0
  5  7  1  0
  7  8  1  0
  8  9  1  0
  9 10  2  0
  9 11  1  0
 11 12  1  0
 12 13  2  0
 13 14  1  0
 14 15  2  0
 15 16  1  0
 12 17  1  0
 16 17  2  0
  2 18  1  0
  7 18  2  0
M  END
