SID-ELM-2583a2cd-10
     RDKit          3D

 19 21  0  0  0  0  0  0  0  0999 V2000
    9.4270    0.6810   21.7720 O   0  0  0  0  0  0  0  0  0  0  0  0
    9.1790   -0.5410   21.9030 C   0  0  0  0  0  0  0  0  0  0  0  0
   10.0430   -1.4530   22.6090 N   0  0  0  0  0  0  0  0  0  0  0  0
    9.6510   -1.4960   24.0300 C   0  0  0  0  0  0  0  0  0  0  0  0
   10.9190   -1.8700   23.9480 C   0  0  0  0  0  0  0  0  0  0  0  0
   11.8140   -2.0610   22.9930 C   0  0  0  0  0  0  0  0  0  0  0  0
   11.1280   -1.7640   21.7740 C   0  0  0  0  0  0  0  0  0  0  0  0
    9.5830   -1.3000   21.7540 C   0  0  0  0  0  0  0  0  0  0  0  0
    8.7570   -1.1550   23.1360 C   0  0  0  0  0  0  0  0  0  0  0  0
    7.9920   -1.1170   21.3720 N   0  0  0  0  0  0  0  0  0  0  0  0
    7.1410   -0.4010   20.4300 C   0  0  0  0  0  0  0  0  0  0  0  0
    6.9200   -0.0800   18.9110 C   0  0  0  0  0  0  0  0  0  0  0  0
    5.7110    0.8450   18.3930 N   0  0  0  0  0  0  0  0  0  0  0  0
    4.5380    1.6080   19.1470 C   0  0  0  0  0  0  0  0  0  0  0  0
    4.8830    1.2340   20.3410 C   0  0  0  0  0  0  0  0  0  0  0  0
    4.9950    1.2980   18.9570 N   0  0  0  0  0  0  0  0  0  0  0  0
    5.6010    0.7850   19.6870 N   0  0  0  0  0  0  0  0  0  0  0  0
    6.4130    0.2790   18.9190 C   0  0  0  0  0  0  0  0  0  0  0  0
    6.0850    0.3770   20.2640 C   0  0  0  0  0  0  0  0  0  0  0  0
  1  2  2  0
  2  3  1  0
  3  4  1  0
  4  5  2  0
  5  6  1  0
  6  7  2  0
  7  8  1  0
  4  9  1  0
  8  9  2  0
  2 10  1  0
 10 11  1  0
 11 12  2  0
 12 13  1  0
 13 14  2  0
 14 15  1  0
 15 16  1  0
 16 17  1  0
 17 18  2  0
 11 19  1  0
 15 19  2  0
 18 19  1  0
M  END
