SID-ELM-b654bfa2-5
     RDKit          3D

 20 22  0  0  0  0  0  0  0  0999 V2000
    8.6820    1.2290   21.1280 O   0  0  0  0  0  0  0  0  0  0  0  0
    8.3130    0.0770   21.4230 C   0  0  0  0  0  0  0  0  0  0  0  0
    8.9390   -0.7830   22.2950 N   0  0  0  0  0  0  0  0  0  0  0  0
   10.2630   -0.6210   22.6790 C   0  0  0  0  0  0  0  0  0  0  0  0
   10.6620    0.4850   23.3130 C   0  0  0  0  0  0  0  0  0  0  0  0
   12.0570    0.7110   23.7400 C   0  0  0  0  0  0  0  0  0  0  0  0
   12.9480   -0.2780   23.4560 C   0  0  0  0  0  0  0  0  0  0  0  0
   12.6250   -1.5690   22.7470 C   0  0  0  0  0  0  0  0  0  0  0  0
   11.1490   -1.6660   22.3650 C   0  0  0  0  0  0  0  0  0  0  0  0
    7.1690   -0.5150   20.9000 N   0  0  0  0  0  0  0  0  0  0  0  0
    6.3550    0.2720   19.9700 C   0  0  0  0  0  0  0  0  0  0  0  0
    6.0080   -0.2880   18.6140 C   0  0  0  0  0  0  0  0  0  0  0  0
    6.3870   -1.4980   18.1760 F   0  0  0  0  0  0  0  0  0  0  0  0
    5.2290    0.5820   17.8000 N   0  0  0  0  0  0  0  0  0  0  0  0
    4.7790    1.8790   18.2450 C   0  0  0  0  0  0  0  0  0  0  0  0
    5.2350    2.0690   19.5010 N   0  0  0  0  0  0  0  0  0  0  0  0
    5.8900    0.6530   19.3030 N   0  0  0  0  0  0  0  0  0  0  0  0
    5.3890    0.7010   18.2300 C   0  0  0  0  0  0  0  0  0  0  0  0
    5.1330    1.7260   18.8700 C   0  0  0  0  0  0  0  0  0  0  0  0
    5.8430    1.5260   20.2470 C   0  0  0  0  0  0  0  0  0  0  0  0
  1  2  2  0
  2  3  1  0
  3  4  1  0
  4  5  2  0
  5  6  1  0
  6  7  2  0
  7  8  1  0
  4  9  1  0
  8  9  2  0
  2 10  1  0
 10 11  1  0
 11 12  2  0
 12 13  1  0
 12 14  1  0
 14 15  2  0
 15 16  1  0
 16 17  1  0
 17 18  2  0
 18 19  1  0
 11 20  1  0
 16 20  1  0
 19 20  2  0
M  END
