SID-ELM-1f105489-1
     RDKit          3D

 19 21  0  0  0  0  0  0  0  0999 V2000
   13.3070   -1.6760   23.5700 C   0  0  0  0  0  0  0  0  0  0  0  0
   12.0310   -1.1940   23.6280 N   0  0  0  0  0  0  0  0  0  0  0  0
   11.3150   -1.9360   22.6170 C   0  0  0  0  0  0  0  0  0  0  0  0
    9.9870   -1.5990   22.8130 C   0  0  0  0  0  0  0  0  0  0  0  0
    9.7570   -0.1570   22.6500 N   0  0  0  0  0  0  0  0  0  0  0  0
    8.8900    0.2600   21.6480 C   0  0  0  0  0  0  0  0  0  0  0  0
    8.9330    1.4230   21.1910 O   0  0  0  0  0  0  0  0  0  0  0  0
    7.9520   -0.6500   21.1480 C   0  0  0  0  0  0  0  0  0  0  0  0
    7.0780   -0.1710   20.0300 C   0  0  0  0  0  0  0  0  0  0  0  0
    7.2460   -0.4340   18.7470 C   0  0  0  0  0  0  0  0  0  0  0  0
    6.3200    0.1430   17.9570 N   0  0  0  0  0  0  0  0  0  0  0  0
    5.4750    0.8250   18.7750 C   0  0  0  0  0  0  0  0  0  0  0  0
    4.4080    1.5470   18.4090 N   0  0  0  0  0  0  0  0  0  0  0  0
    3.6910    2.1600   19.5370 C   0  0  0  0  0  0  0  0  0  0  0  0
    3.9860    2.0790   20.8470 N   0  0  0  0  0  0  0  0  0  0  0  0
    5.0840    1.3380   21.1320 C   0  0  0  0  0  0  0  0  0  0  0  0
    5.9140    0.6480   20.0840 C   0  0  0  0  0  0  0  0  0  0  0  0
   10.6940    0.7130   23.3860 C   0  0  0  0  0  0  0  0  0  0  0  0
   12.0030    0.2420   23.3090 C   0  0  0  0  0  0  0  0  0  0  0  0
  1  2  1  0
  2  3  1  0
  3  4  1  0
  4  5  1  0
  5  6  1  0
  6  7  2  0
  6  8  1  0
  8  9  1  0
  9 10  2  0
 10 11  1  0
 11 12  1  0
 12 13  1  0
 13 14  2  0
 14 15  1  0
 15 16  2  0
  9 17  1  0
 12 17  2  0
 16 17  1  0
  5 18  1  0
  2 19  1  0
 18 19  1  0
M  END
