SID-ELM-1f105489-7
     RDKit          3D

 20 22  0  0  0  0  0  0  0  0999 V2000
   13.3900   -1.3300   23.9530 C   0  0  0  0  0  0  0  0  0  0  0  0
   12.3950   -0.9250   22.9860 N   0  0  0  0  0  0  0  0  0  0  0  0
   11.4600   -1.7560   22.4610 C   0  0  0  0  0  0  0  0  0  0  0  0
   10.1550   -1.4850   22.3540 C   0  0  0  0  0  0  0  0  0  0  0  0
   10.0660   -0.1610   22.0700 N   0  0  0  0  0  0  0  0  0  0  0  0
    8.8850    0.1560   21.4150 C   0  0  0  0  0  0  0  0  0  0  0  0
    8.6830    1.3030   20.9890 O   0  0  0  0  0  0  0  0  0  0  0  0
    7.6740   -0.7760   21.0990 C   0  0  0  0  0  0  0  0  0  0  0  0
    6.9130   -0.2770   19.8700 C   0  0  0  0  0  0  0  0  0  0  0  0
    7.1420   -0.8440   18.5820 C   0  0  0  0  0  0  0  0  0  0  0  0
    8.1330   -2.0810   17.9640 Cl  0  0  0  0  0  0  0  0  0  0  0  0
    6.2170   -0.0240   17.8520 N   0  0  0  0  0  0  0  0  0  0  0  0
    5.3260    1.0180   18.3370 C   0  0  0  0  0  0  0  0  0  0  0  0
    4.3800    2.1230   18.8540 N   0  0  0  0  0  0  0  0  0  0  0  0
    4.1670    2.6310   20.1030 C   0  0  0  0  0  0  0  0  0  0  0  0
    4.7510    2.2830   21.2270 N   0  0  0  0  0  0  0  0  0  0  0  0
    5.5240    1.3730   20.7680 C   0  0  0  0  0  0  0  0  0  0  0  0
    5.9280    0.7060   19.6950 C   0  0  0  0  0  0  0  0  0  0  0  0
   10.6720    0.6820   23.0100 C   0  0  0  0  0  0  0  0  0  0  0  0
   12.0700    0.5390   23.0740 C   0  0  0  0  0  0  0  0  0  0  0  0
  1  2  1  0
  2  3  1  0
  3  4  1  0
  4  5  1  0
  5  6  1  0
  6  7  2  0
  6  8  1  0
  8  9  1  0
  9 10  2  0
 10 11  1  0
 10 12  1  0
 12 13  1  0
 13 14  1  0
 14 15  2  0
 15 16  1  0
 16 17  2  0
  9 18  1  0
 13 18  2  0
 17 18  1  0
  5 19  1  0
  2 20  1  0
 19 20  1  0
M  END
