SID-ELM-8b394441-16
     RDKit          3D

 18 19  0  0  0  0  0  0  0  0999 V2000
   10.3000   -2.0450   21.8780 N   0  0  0  0  0  0  0  0  0  0  0  0
   10.3470   -0.7540   22.3580 C   0  0  0  0  0  0  0  0  0  0  0  0
   10.1460    0.6180   22.7530 C   0  0  0  0  0  0  0  0  0  0  0  0
   11.3930    0.1600   23.1650 N   0  0  0  0  0  0  0  0  0  0  0  0
   11.4570   -1.1540   22.7370 C   0  0  0  0  0  0  0  0  0  0  0  0
   12.8850   -2.0580   23.0890 Cl  0  0  0  0  0  0  0  0  0  0  0  0
   10.2250   -1.6380   21.9970 C   0  0  0  0  0  0  0  0  0  0  0  0
    9.9600   -0.2630   22.3350 N   0  0  0  0  0  0  0  0  0  0  0  0
    8.9720    0.5420   21.6730 C   0  0  0  0  0  0  0  0  0  0  0  0
    9.1180    1.6950   21.2520 O   0  0  0  0  0  0  0  0  0  0  0  0
    7.5930   -0.1570   21.4840 C   0  0  0  0  0  0  0  0  0  0  0  0
    6.9840   -0.1760   20.0360 C   0  0  0  0  0  0  0  0  0  0  0  0
    6.8460    1.2050   19.3610 C   0  0  0  0  0  0  0  0  0  0  0  0
    5.5210    1.7200   19.4230 C   0  0  0  0  0  0  0  0  0  0  0  0
    4.6640    1.3910   20.6310 C   0  0  0  0  0  0  0  0  0  0  0  0
    4.6680   -0.0850   20.7750 C   0  0  0  0  0  0  0  0  0  0  0  0
    5.6090   -0.8320   20.0710 C   0  0  0  0  0  0  0  0  0  0  0  0
    9.1060   -1.0410   21.6800 C   0  0  0  0  0  0  0  0  0  0  0  0
  1  2  1  0
  2  3  2  0
  3  4  1  0
  4  5  2  0
  5  6  1  0
  5  7  1  0
  7  8  1  0
  8  9  1  0
  9 10  2  0
  9 11  1  0
 11 12  1  0
 12 13  1  0
 13 14  1  0
 14 15  1  0
 15 16  1  0
 12 17  1  0
 16 17  1  0
  2 18  1  0
  7 18  2  0
M  END
