SID-ELM-2583a2cd-13
     RDKit          3D

 20 22  0  0  0  0  0  0  0  0999 V2000
    9.0170    1.5290   21.2890 O   0  0  0  0  0  0  0  0  0  0  0  0
    8.7120    0.4550   21.8510 C   0  0  0  0  0  0  0  0  0  0  0  0
    9.3190    0.0050   23.0440 C   0  0  0  0  0  0  0  0  0  0  0  0
   10.5480   -0.6350   22.9290 C   0  0  0  0  0  0  0  0  0  0  0  0
   10.6500   -1.4160   21.8270 C   0  0  0  0  0  0  0  0  0  0  0  0
   11.9630   -1.8290   21.5800 C   0  0  0  0  0  0  0  0  0  0  0  0
   12.9570   -0.9850   22.4060 C   0  0  0  0  0  0  0  0  0  0  0  0
   12.6400   -1.4110   23.8320 C   0  0  0  0  0  0  0  0  0  0  0  0
   11.1460   -1.3280   23.9810 C   0  0  0  0  0  0  0  0  0  0  0  0
    7.6770   -0.4300   21.3100 N   0  0  0  0  0  0  0  0  0  0  0  0
    6.8500    0.1270   20.2420 C   0  0  0  0  0  0  0  0  0  0  0  0
    7.1280   -0.2800   18.9480 C   0  0  0  0  0  0  0  0  0  0  0  0
    6.2940    0.2950   17.9050 N   0  0  0  0  0  0  0  0  0  0  0  0
    5.2290    1.2370   18.1990 C   0  0  0  0  0  0  0  0  0  0  0  0
    4.9630    1.6260   19.4990 C   0  0  0  0  0  0  0  0  0  0  0  0
    3.9560    2.5120   19.7520 N   0  0  0  0  0  0  0  0  0  0  0  0
    3.7070    2.8860   21.0320 C   0  0  0  0  0  0  0  0  0  0  0  0
    4.3850    2.4450   22.0820 N   0  0  0  0  0  0  0  0  0  0  0  0
    5.3970    1.5660   21.8990 C   0  0  0  0  0  0  0  0  0  0  0  0
    5.7880    1.0580   20.5110 C   0  0  0  0  0  0  0  0  0  0  0  0
  1  2  2  0
  2  3  1  0
  3  4  1  0
  4  5  1  0
  5  6  1  0
  6  7  1  0
  7  8  1  0
  4  9  1  0
  8  9  1  0
  2 10  1  0
 10 11  1  0
 11 12  2  0
 12 13  1  0
 13 14  2  0
 14 15  1  0
 15 16  1  0
 16 17  2  0
 17 18  1  0
 18 19  2  0
 11 20  1  0
 15 20  2  0
 19 20  1  0
M  END
