SID-ELM-b654bfa2-9
     RDKit          3D

 20 21  0  0  0  0  0  0  0  0999 V2000
    2.4350    1.9620   20.2080 C   0  0  0  0  0  0  0  0  0  0  0  0
    3.6710    2.5510   20.0430 N   0  0  0  0  0  0  0  0  0  0  0  0
    3.9460    3.8970   20.3390 C   0  0  0  0  0  0  0  0  0  0  0  0
    4.7470    1.6420   19.6980 C   0  0  0  0  0  0  0  0  0  0  0  0
    4.9170    1.3290   18.3560 C   0  0  0  0  0  0  0  0  0  0  0  0
    5.9430    0.4180   17.8160 N   0  0  0  0  0  0  0  0  0  0  0  0
    6.8120   -0.1520   18.8560 C   0  0  0  0  0  0  0  0  0  0  0  0
    7.7690   -0.9970   18.5040 F   0  0  0  0  0  0  0  0  0  0  0  0
    6.6390    0.1870   20.1820 C   0  0  0  0  0  0  0  0  0  0  0  0
    7.5560   -0.3990   21.0710 N   0  0  0  0  0  0  0  0  0  0  0  0
    8.6900    0.2430   21.5260 C   0  0  0  0  0  0  0  0  0  0  0  0
    9.0820    1.3940   21.3270 O   0  0  0  0  0  0  0  0  0  0  0  0
    9.5410   -0.5360   22.2820 C   0  0  0  0  0  0  0  0  0  0  0  0
   10.7710   -0.9920   22.7320 C   0  0  0  0  0  0  0  0  0  0  0  0
   10.7720   -2.2720   23.2960 C   0  0  0  0  0  0  0  0  0  0  0  0
   11.7170   -2.5760   24.2560 C   0  0  0  0  0  0  0  0  0  0  0  0
   12.9970   -2.0020   23.6780 C   0  0  0  0  0  0  0  0  0  0  0  0
   12.8020   -0.5130   23.9470 C   0  0  0  0  0  0  0  0  0  0  0  0
   11.5310   -0.0330   23.6820 C   0  0  0  0  0  0  0  0  0  0  0  0
    5.6250    1.0610   20.6070 C   0  0  0  0  0  0  0  0  0  0  0  0
  1  2  1  0
  2  3  1  0
  2  4  1  0
  4  5  2  0
  5  6  1  0
  6  7  2  0
  7  8  1  0
  7  9  1  0
  9 10  1  0
 10 11  1  0
 11 12  2  0
 11 13  1  0
 13 14  1  0
 14 15  1  0
 15 16  1  0
 16 17  1  0
 17 18  1  0
 14 19  1  0
 18 19  1  0
  4 20  1  0
  9 20  2  0
M  END
