SID-ELM-2583a2cd-3
     RDKit          3D

 20 22  0  0  0  0  0  0  0  0999 V2000
    9.0340    0.9190   21.6570 O   0  0  0  0  0  0  0  0  0  0  0  0
    8.7000   -0.2640   21.6360 C   0  0  0  0  0  0  0  0  0  0  0  0
    9.5920   -1.3290   22.1430 C   0  0  0  0  0  0  0  0  0  0  0  0
   10.7950   -1.0350   22.6400 C   0  0  0  0  0  0  0  0  0  0  0  0
   10.7570   -0.4130   24.0260 C   0  0  0  0  0  0  0  0  0  0  0  0
   11.9350   -0.5010   24.8320 C   0  0  0  0  0  0  0  0  0  0  0  0
   12.8840   -1.4580   24.4960 C   0  0  0  0  0  0  0  0  0  0  0  0
   12.2890   -2.6050   24.0110 C   0  0  0  0  0  0  0  0  0  0  0  0
   11.6960   -2.2810   22.6420 C   0  0  0  0  0  0  0  0  0  0  0  0
    7.4410   -0.7730   21.1310 N   0  0  0  0  0  0  0  0  0  0  0  0
    6.6880   -0.0810   20.0950 C   0  0  0  0  0  0  0  0  0  0  0  0
    6.9080   -0.1450   18.7520 C   0  0  0  0  0  0  0  0  0  0  0  0
    6.1800    0.5430   17.8270 N   0  0  0  0  0  0  0  0  0  0  0  0
    5.1500    1.3530   18.3200 C   0  0  0  0  0  0  0  0  0  0  0  0
    4.7520    1.5440   19.7730 C   0  0  0  0  0  0  0  0  0  0  0  0
    3.7630    2.3310   20.1150 N   0  0  0  0  0  0  0  0  0  0  0  0
    3.7690    2.4930   18.7280 C   0  0  0  0  0  0  0  0  0  0  0  0
    4.8000    1.6960   18.1440 C   0  0  0  0  0  0  0  0  0  0  0  0
    5.6880    0.8640   18.9230 N   0  0  0  0  0  0  0  0  0  0  0  0
    5.6160    0.7770   20.3280 C   0  0  0  0  0  0  0  0  0  0  0  0
  1  2  2  0
  2  3  1  0
  3  4  1  0
  4  5  1  0
  5  6  1  0
  6  7  1  0
  7  8  1  0
  4  9  1  0
  8  9  1  0
  2 10  1  0
 10 11  1  0
 11 12  2  0
 12 13  1  0
 13 14  2  0
 14 15  1  0
 15 16  1  0
 16 17  2  0
 17 18  1  0
 18 19  2  0
 11 20  1  0
 15 20  2  0
 19 20  1  0
M  END
