SID-ELM-8b394441-18
     RDKit          3D

 20 21  0  0  0  0  0  0  0  0999 V2000
    2.4010    2.3080   19.9280 C   0  0  0  0  0  0  0  0  0  0  0  0
    3.6960    2.7860   19.9980 N   0  0  0  0  0  0  0  0  0  0  0  0
    4.0080    4.0680   20.4960 C   0  0  0  0  0  0  0  0  0  0  0  0
    4.6730    1.8170   19.7040 C   0  0  0  0  0  0  0  0  0  0  0  0
    4.9200    1.3560   18.4100 C   0  0  0  0  0  0  0  0  0  0  0  0
    5.8100    0.4190   18.0280 N   0  0  0  0  0  0  0  0  0  0  0  0
    6.4970   -0.0790   19.0540 C   0  0  0  0  0  0  0  0  0  0  0  0
    7.5640   -1.2840   18.6230 Cl  0  0  0  0  0  0  0  0  0  0  0  0
    6.3890    0.2910   20.3620 C   0  0  0  0  0  0  0  0  0  0  0  0
    7.2310   -0.3500   21.2450 N   0  0  0  0  0  0  0  0  0  0  0  0
    8.3140    0.4420   21.6980 C   0  0  0  0  0  0  0  0  0  0  0  0
    8.7750    1.4500   21.1430 O   0  0  0  0  0  0  0  0  0  0  0  0
    9.0350    0.0890   23.0040 C   0  0  0  0  0  0  0  0  0  0  0  0
   10.2430   -0.7970   22.6610 C   0  0  0  0  0  0  0  0  0  0  0  0
   11.4570   -0.1300   23.1200 C   0  0  0  0  0  0  0  0  0  0  0  0
   12.6430   -0.2610   23.8680 C   0  0  0  0  0  0  0  0  0  0  0  0
   12.6700   -1.5690   24.3590 C   0  0  0  0  0  0  0  0  0  0  0  0
   11.6900   -2.5830   23.6890 C   0  0  0  0  0  0  0  0  0  0  0  0
   10.2740   -2.0710   23.2780 C   0  0  0  0  0  0  0  0  0  0  0  0
    5.4540    1.2630   20.7180 C   0  0  0  0  0  0  0  0  0  0  0  0
  1  2  1  0
  2  3  1  0
  2  4  1  0
  4  5  2  0
  5  6  1  0
  6  7  2  0
  7  8  1  0
  7  9  1  0
  9 10  1  0
 10 11  1  0
 11 12  2  0
 11 13  1  0
 13 14  1  0
 14 15  1  0
 15 16  1  0
 16 17  1  0
 17 18  1  0
 14 19  1  0
 18 19  1  0
  4 20  1  0
  9 20  2  0
M  END
