SIM-SYN-3099a863-1
     RDKit          3D

 28 30  0  0  0  0  0  0  0  0999 V2000
    0.8840   -1.0800   26.1910 C   0  0  0  0  0  0  0  0  0  0  0  0
    2.0420   -2.0100   26.1680 C   0  0  0  0  0  0  0  0  0  0  0  0
    3.3190   -1.5710   26.0920 C   0  0  0  0  0  0  0  0  0  0  0  0
    4.4040   -2.6520   26.0670 C   0  0  0  0  0  0  0  0  0  0  0  0
    4.0350   -4.0350   26.1210 C   0  0  0  0  0  0  0  0  0  0  0  0
    5.2460   -5.3250   26.0920 S   0  0  0  0  0  0  0  0  0  0  0  0
    6.2010   -4.9710   27.1010 O   0  0  0  0  0  0  0  0  0  0  0  0
    4.5570   -6.5920   26.0960 O   0  0  0  0  0  0  0  0  0  0  0  0
    5.9600   -5.1850   24.5710 N   0  0  0  0  0  0  0  0  0  0  0  0
    5.3280   -5.8640   23.5240 C   0  0  0  0  0  0  0  0  0  0  0  0
    5.5820   -5.7060   22.1780 C   0  0  0  0  0  0  0  0  0  0  0  0
    6.3670   -4.4260   22.0680 C   0  0  0  0  0  0  0  0  0  0  0  0
    5.4860   -3.3700   21.5200 N   0  0  0  0  0  0  0  0  0  0  0  0
    6.0100   -2.0720   21.1080 C   0  0  0  0  0  0  0  0  0  0  0  0
    7.0560   -1.6600   21.5990 O   0  0  0  0  0  0  0  0  0  0  0  0
    5.3580   -1.3180   20.1900 N   0  0  0  0  0  0  0  0  0  0  0  0
    5.3890   -1.8280   18.9390 C   0  0  0  0  0  0  0  0  0  0  0  0
    5.4460    0.0430   20.1920 C   0  0  0  0  0  0  0  0  0  0  0  0
    4.1410    0.7210   20.4430 C   0  0  0  0  0  0  0  0  0  0  0  0
    3.5200    1.6010   19.5470 C   0  0  0  0  0  0  0  0  0  0  0  0
    2.3500    2.0120   20.1330 C   0  0  0  0  0  0  0  0  0  0  0  0
    1.3840    2.8940   19.6310 C   0  0  0  0  0  0  0  0  0  0  0  0
    2.2760    1.3760   21.3760 O   0  0  0  0  0  0  0  0  0  0  0  0
    3.4200    0.5370   21.6040 N   0  0  0  0  0  0  0  0  0  0  0  0
    7.1880   -3.8330   23.0650 C   0  0  0  0  0  0  0  0  0  0  0  0
    6.4160   -3.8160   24.2090 C   0  0  0  0  0  0  0  0  0  0  0  0
    2.6920   -4.3150   26.2000 C   0  0  0  0  0  0  0  0  0  0  0  0
    1.7630   -3.3450   26.2250 C   0  0  0  0  0  0  0  0  0  0  0  0
  1  2  1  0
  2  3  2  0
  3  4  1  0
  4  5  2  0
  6  5  1  0
  6  7  2  0
  6  8  2  0
  6  9  1  0
  9 10  1  0
 10 11  1  0
 11 12  1  0
 12 13  1  0
 13 14  1  0
 14 15  2  0
 14 16  1  0
 16 17  1  0
 16 18  1  0
 18 19  1  0
 19 20  1  0
 20 21  2  0
 21 22  1  0
 21 23  1  0
 19 24  2  0
 23 24  1  0
 12 25  1  0
  9 26  1  0
 25 26  1  0
  5 27  1  0
  2 28  1  0
 27 28  2  0
M  END
