SIM-DEM-2843056b-3
     RDKit          3D

 26 28  0  0  0  0  0  0  0  0999 V2000
    0.7440   -1.7010   28.1150 C   0  0  0  0  0  0  0  0  0  0  0  0
    1.1130   -1.2080   26.8770 N   0  0  0  0  0  0  0  0  0  0  0  0
    0.4050   -0.2950   26.0720 C   0  0  0  0  0  0  0  0  0  0  0  0
    1.0760    0.9950   25.9290 C   0  0  0  0  0  0  0  0  0  0  0  0
    2.1640    0.7450   25.1410 N   0  0  0  0  0  0  0  0  0  0  0  0
    2.3580    1.0980   23.7460 C   0  0  0  0  0  0  0  0  0  0  0  0
    3.4060    0.3750   23.1590 C   0  0  0  0  0  0  0  0  0  0  0  0
    3.6270    0.5020   21.7990 C   0  0  0  0  0  0  0  0  0  0  0  0
    2.6390    1.0580   21.0090 O   0  0  0  0  0  0  0  0  0  0  0  0
    4.8520    0.0330   21.3590 N   0  0  0  0  0  0  0  0  0  0  0  0
    5.1930    0.3450   20.0280 C   0  0  0  0  0  0  0  0  0  0  0  0
    4.9060    1.2850   18.9910 C   0  0  0  0  0  0  0  0  0  0  0  0
    4.0380    2.3770   18.9800 C   0  0  0  0  0  0  0  0  0  0  0  0
    4.9570    1.8910   17.8060 C   0  0  0  0  0  0  0  0  0  0  0  0
    5.8950    0.6570   17.9140 N   0  0  0  0  0  0  0  0  0  0  0  0
    6.0000   -0.1510   19.0960 C   0  0  0  0  0  0  0  0  0  0  0  0
    6.8410   -1.2480   19.1290 C   0  0  0  0  0  0  0  0  0  0  0  0
    6.8030   -1.7820   20.4710 N   0  0  0  0  0  0  0  0  0  0  0  0
    6.0870   -2.8710   20.7060 C   0  0  0  0  0  0  0  0  0  0  0  0
    5.3730   -3.4180   19.8640 O   0  0  0  0  0  0  0  0  0  0  0  0
    6.2690   -3.3520   22.1060 N   0  0  0  0  0  0  0  0  0  0  0  0
    6.5330   -4.8140   22.0930 C   0  0  0  0  0  0  0  0  0  0  0  0
    6.4630   -5.4740   23.2910 C   0  0  0  0  0  0  0  0  0  0  0  0
    5.4430   -5.8170   22.1300 C   0  0  0  0  0  0  0  0  0  0  0  0
    2.8230   -0.5140   25.5040 C   0  0  0  0  0  0  0  0  0  0  0  0
    2.4780   -0.9550   26.8130 C   0  0  0  0  0  0  0  0  0  0  0  0
  1  2  1  0
  2  3  1  0
  3  4  1  0
  4  5  1  0
  5  6  1  0
  6  7  1  0
  7  8  1  0
  8  9  2  0
  8 10  1  0
 10 11  1  0
 11 12  2  0
 12 13  1  0
 13 14  2  0
 14 15  1  0
 11 16  1  0
 15 16  2  0
 16 17  1  0
 17 18  1  0
 18 19  1  0
 19 20  2  0
 19 21  1  0
 21 22  1  0
 22 23  1  0
 22 24  1  0
 23 24  1  0
  5 25  1  0
  2 26  1  0
 25 26  1  0
M  END
