SIM-DEM-5935bd74-7
     RDKit          3D

 20 21  0  0  0  0  0  0  0  0999 V2000
    6.7960   -0.9850   27.1190 C   0  0  0  0  0  0  0  0  0  0  0  0
    6.6640    0.3350   25.9230 S   0  0  0  0  0  0  0  0  0  0  0  0
    6.1510    1.5070   26.6000 O   0  0  0  0  0  0  0  0  0  0  0  0
    6.0760   -0.1800   24.7080 O   0  0  0  0  0  0  0  0  0  0  0  0
    8.2910    0.6370   25.6360 N   0  0  0  0  0  0  0  0  0  0  0  0
    9.0950   -0.5570   25.3500 C   0  0  0  0  0  0  0  0  0  0  0  0
    9.6310   -0.5970   24.0650 C   0  0  0  0  0  0  0  0  0  0  0  0
   10.4800    0.5300   23.7410 N   0  0  0  0  0  0  0  0  0  0  0  0
   10.1940    1.7670   23.7630 C   0  0  0  0  0  0  0  0  0  0  0  0
   11.3670    2.1690   23.3660 C   0  0  0  0  0  0  0  0  0  0  0  0
   12.6560    1.9110   22.9690 C   0  0  0  0  0  0  0  0  0  0  0  0
   12.6850    3.2060   22.8780 C   0  0  0  0  0  0  0  0  0  0  0  0
   11.4460    2.7370   23.2990 C   0  0  0  0  0  0  0  0  0  0  0  0
   10.8670    4.4790   23.3750 S   0  0  0  0  0  0  0  0  0  0  0  0
   11.6470    5.2550   22.1040 N   0  0  0  0  0  0  0  0  0  0  0  0
   11.3490    5.1640   24.5520 O   0  0  0  0  0  0  0  0  0  0  0  0
    9.4550    4.5490   23.0400 O   0  0  0  0  0  0  0  0  0  0  0  0
   12.7540    1.5560   22.9650 C   0  0  0  0  0  0  0  0  0  0  0  0
   12.8400   -0.1520   23.0390 C   0  0  0  0  0  0  0  0  0  0  0  0
   11.8180    0.5810   23.3170 C   0  0  0  0  0  0  0  0  0  0  0  0
  1  2  1  0
  2  3  2  0
  2  4  2  0
  2  5  1  0
  5  6  1  0
  6  7  1  0
  7  8  1  0
  8  9  1  0
  9 10  2  0
 10 11  1  0
 11 12  1  0
 12 13  2  0
 13 14  1  0
 14 15  1  0
 14 16  2  0
 14 17  2  0
 13 18  1  0
 18 19  2  0
  8 20  1  0
 11 20  2  0
 19 20  1  0
M  END
