SIM-DEM-2843056b-4
     RDKit          3D

 26 28  0  0  0  0  0  0  0  0999 V2000
    8.2300    4.0380   27.5630 C   0  0  0  0  0  0  0  0  0  0  0  0
    6.9010    4.0640   27.1860 N   0  0  0  0  0  0  0  0  0  0  0  0
    5.8800    3.1620   27.5660 C   0  0  0  0  0  0  0  0  0  0  0  0
    5.7610    1.9740   26.7200 C   0  0  0  0  0  0  0  0  0  0  0  0
    5.5380    2.4550   25.4600 N   0  0  0  0  0  0  0  0  0  0  0  0
    4.7880    1.8660   24.3650 C   0  0  0  0  0  0  0  0  0  0  0  0
    5.6140    1.3660   23.3440 C   0  0  0  0  0  0  0  0  0  0  0  0
    5.2720    1.6550   22.0300 C   0  0  0  0  0  0  0  0  0  0  0  0
    3.9700    2.0170   21.7560 O   0  0  0  0  0  0  0  0  0  0  0  0
    6.2880    1.5800   21.0890 N   0  0  0  0  0  0  0  0  0  0  0  0
    6.1760    0.5330   20.1380 C   0  0  0  0  0  0  0  0  0  0  0  0
    5.2050    1.2800   19.3950 C   0  0  0  0  0  0  0  0  0  0  0  0
    4.6020    2.6260   19.6190 C   0  0  0  0  0  0  0  0  0  0  0  0
    3.9610    2.4130   18.5740 N   0  0  0  0  0  0  0  0  0  0  0  0
    4.8810    1.2070   18.8960 C   0  0  0  0  0  0  0  0  0  0  0  0
    5.6480   -0.1040   18.9290 C   0  0  0  0  0  0  0  0  0  0  0  0
    6.5150   -1.1450   19.3120 C   0  0  0  0  0  0  0  0  0  0  0  0
    5.6490   -2.2940   19.3200 N   0  0  0  0  0  0  0  0  0  0  0  0
    5.6620   -3.3210   20.1720 C   0  0  0  0  0  0  0  0  0  0  0  0
    5.3630   -4.4420   19.7880 O   0  0  0  0  0  0  0  0  0  0  0  0
    6.0770   -3.0570   21.5900 N   0  0  0  0  0  0  0  0  0  0  0  0
    5.6870   -4.2260   22.4540 C   0  0  0  0  0  0  0  0  0  0  0  0
    6.7000   -5.0410   22.9190 C   0  0  0  0  0  0  0  0  0  0  0  0
    5.6300   -5.6210   21.9140 C   0  0  0  0  0  0  0  0  0  0  0  0
    6.6350    3.3130   25.0180 C   0  0  0  0  0  0  0  0  0  0  0  0
    6.7720    4.4550   25.8540 C   0  0  0  0  0  0  0  0  0  0  0  0
  1  2  1  0
  2  3  1  0
  3  4  1  0
  4  5  1  0
  5  6  1  0
  6  7  1  0
  7  8  1  0
  8  9  2  0
  8 10  1  0
 10 11  1  0
 11 12  2  0
 12 13  1  0
 13 14  2  0
 14 15  1  0
 11 16  1  0
 15 16  2  0
 16 17  1  0
 17 18  1  0
 18 19  1  0
 19 20  2  0
 19 21  1  0
 21 22  1  0
 22 23  1  0
 22 24  1  0
 23 24  1  0
  5 25  1  0
  2 26  1  0
 25 26  1  0
M  END
