SIM-DEM-2843056b-2
     RDKit          3D

 26 28  0  0  0  0  0  0  0  0999 V2000
    1.3040   -1.5800   25.8450 C   0  0  0  0  0  0  0  0  0  0  0  0
    2.1950   -0.5220   25.8900 N   0  0  0  0  0  0  0  0  0  0  0  0
    2.0710    0.7180   25.2480 C   0  0  0  0  0  0  0  0  0  0  0  0
    3.0160    1.0820   24.2960 C   0  0  0  0  0  0  0  0  0  0  0  0
    3.8250    0.0720   23.7610 C   0  0  0  0  0  0  0  0  0  0  0  0
    4.7950    0.5550   23.1840 O   0  0  0  0  0  0  0  0  0  0  0  0
    5.0290    0.0830   21.8360 C   0  0  0  0  0  0  0  0  0  0  0  0
    4.5630    0.8480   20.7620 C   0  0  0  0  0  0  0  0  0  0  0  0
    4.0290    1.8840   21.2010 O   0  0  0  0  0  0  0  0  0  0  0  0
    4.6770    0.5410   19.3530 N   0  0  0  0  0  0  0  0  0  0  0  0
    5.8680    1.0750   18.6950 C   0  0  0  0  0  0  0  0  0  0  0  0
    4.8320    1.7720   18.8880 C   0  0  0  0  0  0  0  0  0  0  0  0
    3.7790    2.4800   19.0830 C   0  0  0  0  0  0  0  0  0  0  0  0
    3.6010    1.0610   19.5200 N   0  0  0  0  0  0  0  0  0  0  0  0
    4.5390   -0.1890   19.5040 C   0  0  0  0  0  0  0  0  0  0  0  0
    5.8960   -0.1590   19.0090 C   0  0  0  0  0  0  0  0  0  0  0  0
    6.8030   -1.3850   18.9820 C   0  0  0  0  0  0  0  0  0  0  0  0
    6.8590   -2.0410   20.1940 N   0  0  0  0  0  0  0  0  0  0  0  0
    6.1000   -3.2620   20.5580 C   0  0  0  0  0  0  0  0  0  0  0  0
    5.5270   -3.9870   19.7380 O   0  0  0  0  0  0  0  0  0  0  0  0
    6.0900   -3.5230   21.8790 N   0  0  0  0  0  0  0  0  0  0  0  0
    6.5970   -4.7590   22.3750 C   0  0  0  0  0  0  0  0  0  0  0  0
    5.8940   -5.5580   23.1090 C   0  0  0  0  0  0  0  0  0  0  0  0
    5.8140   -6.1580   21.9630 C   0  0  0  0  0  0  0  0  0  0  0  0
    4.3600   -0.9620   24.7420 C   0  0  0  0  0  0  0  0  0  0  0  0
    3.5730   -1.0000   26.0640 C   0  0  0  0  0  0  0  0  0  0  0  0
  1  2  1  0
  2  3  1  0
  3  4  1  0
  4  5  1  0
  5  6  1  0
  6  7  1  0
  7  8  1  0
  8  9  2  0
  8 10  1  0
 10 11  1  0
 11 12  2  0
 12 13  1  0
 13 14  2  0
 14 15  1  0
 11 16  1  0
 15 16  2  0
 16 17  1  0
 17 18  1  0
 18 19  1  0
 19 20  2  0
 19 21  1  0
 21 22  1  0
 22 23  1  0
 22 24  1  0
 23 24  1  0
  5 25  1  0
  2 26  1  0
 25 26  1  0
M  END
