SIM-DEM-265738e1-1
     RDKit          3D

 23 24  0  0  0  0  0  0  0  0999 V2000
    8.9110    6.6630   22.5520 C   0  0  0  0  0  0  0  0  0  0  0  0
   10.1400    6.1920   23.3430 C   0  0  0  0  0  0  0  0  0  0  0  0
    9.9560    6.3860   24.7710 O   0  0  0  0  0  0  0  0  0  0  0  0
   11.2010    5.6680   22.6680 N   0  0  0  0  0  0  0  0  0  0  0  0
   12.2590    4.9870   23.3960 C   0  0  0  0  0  0  0  0  0  0  0  0
   12.5590    3.5800   22.8670 C   0  0  0  0  0  0  0  0  0  0  0  0
   11.5430    2.5170   23.2020 C   0  0  0  0  0  0  0  0  0  0  0  0
   10.3040    2.7090   23.7600 C   0  0  0  0  0  0  0  0  0  0  0  0
    9.6660    1.4980   23.8430 N   0  0  0  0  0  0  0  0  0  0  0  0
   10.4590    0.4810   23.3470 C   0  0  0  0  0  0  0  0  0  0  0  0
   10.2090   -0.9460   23.1860 C   0  0  0  0  0  0  0  0  0  0  0  0
    9.0270   -1.5240   23.5290 C   0  0  0  0  0  0  0  0  0  0  0  0
    9.1710   -2.7470   24.4470 C   0  0  0  0  0  0  0  0  0  0  0  0
    7.9430   -3.4980   24.7280 N   0  0  0  0  0  0  0  0  0  0  0  0
    7.9870   -4.4250   26.1310 S   0  0  0  0  0  0  0  0  0  0  0  0
    6.3590   -5.1350   26.2430 C   0  0  0  0  0  0  0  0  0  0  0  0
    8.9440   -5.4890   25.9520 O   0  0  0  0  0  0  0  0  0  0  0  0
    8.1060   -3.4700   27.2060 O   0  0  0  0  0  0  0  0  0  0  0  0
   11.2420   -1.7460   22.6360 C   0  0  0  0  0  0  0  0  0  0  0  0
   12.4870   -1.2310   22.2670 C   0  0  0  0  0  0  0  0  0  0  0  0
   13.4210   -2.0270   21.7660 F   0  0  0  0  0  0  0  0  0  0  0  0
   12.7490    0.2020   22.4290 C   0  0  0  0  0  0  0  0  0  0  0  0
   11.6580    1.1010   22.9760 C   0  0  0  0  0  0  0  0  0  0  0  0
  1  2  1  0
  2  3  2  0
  2  4  1  0
  4  5  1  0
  5  6  1  0
  6  7  1  0
  7  8  2  0
  8  9  1  0
  9 10  1  0
 10 11  1  0
 11 12  1  0
 12 13  1  0
 13 14  1  0
 15 14  1  0
 15 16  1  0
 15 17  2  0
 15 18  2  0
 11 19  2  0
 19 20  1  0
 20 21  1  0
 20 22  2  0
  7 23  1  0
 10 23  2  0
 22 23  1  0
M  END
