SIM-SYN-a98e6a07-4
     RDKit          3D

 29 31  0  0  0  0  0  0  0  0999 V2000
    6.5220   -4.9300   28.6760 C   0  0  0  0  0  0  0  0  0  0  0  0
    6.2000   -3.5260   28.2850 C   0  0  0  0  0  0  0  0  0  0  0  0
    6.1280   -2.6000   29.0960 O   0  0  0  0  0  0  0  0  0  0  0  0
    5.9760   -3.3940   26.8440 N   0  0  0  0  0  0  0  0  0  0  0  0
    6.4380   -2.1970   26.2750 C   0  0  0  0  0  0  0  0  0  0  0  0
    7.0980   -2.1840   24.8740 C   0  0  0  0  0  0  0  0  0  0  0  0
    6.4110   -2.6460   23.6860 C   0  0  0  0  0  0  0  0  0  0  0  0
    5.8530   -3.9280   23.6690 C   0  0  0  0  0  0  0  0  0  0  0  0
    5.1840   -4.3890   22.5500 C   0  0  0  0  0  0  0  0  0  0  0  0
    4.9670   -3.7530   21.3850 N   0  0  0  0  0  0  0  0  0  0  0  0
    5.5040   -2.5120   21.3730 C   0  0  0  0  0  0  0  0  0  0  0  0
    6.2720   -1.8480   22.5180 C   0  0  0  0  0  0  0  0  0  0  0  0
    6.7890   -0.5820   22.4540 N   0  0  0  0  0  0  0  0  0  0  0  0
    6.3130    0.2680   23.4070 C   0  0  0  0  0  0  0  0  0  0  0  0
    5.6250    1.5020   23.1670 C   0  0  0  0  0  0  0  0  0  0  0  0
    4.5000    1.7080   23.6260 O   0  0  0  0  0  0  0  0  0  0  0  0
    6.1970    2.4920   22.4390 N   0  0  0  0  0  0  0  0  0  0  0  0
    5.3890    3.4990   22.0370 C   0  0  0  0  0  0  0  0  0  0  0  0
    5.8200    4.7620   21.9450 C   0  0  0  0  0  0  0  0  0  0  0  0
    5.0530    4.7030   22.9930 C   0  0  0  0  0  0  0  0  0  0  0  0
    8.0990   -0.3450   21.9280 C   0  0  0  0  0  0  0  0  0  0  0  0
    8.3240    0.4270   20.9980 O   0  0  0  0  0  0  0  0  0  0  0  0
    9.1080   -1.0350   22.5690 N   0  0  0  0  0  0  0  0  0  0  0  0
   10.4490   -0.6140   22.6610 C   0  0  0  0  0  0  0  0  0  0  0  0
   10.6620    0.7180   22.8550 C   0  0  0  0  0  0  0  0  0  0  0  0
   11.9200    1.2920   22.9580 C   0  0  0  0  0  0  0  0  0  0  0  0
   12.9900    0.4850   22.8700 C   0  0  0  0  0  0  0  0  0  0  0  0
   12.8070   -0.9420   22.6660 C   0  0  0  0  0  0  0  0  0  0  0  0
   11.5560   -1.4250   22.5700 C   0  0  0  0  0  0  0  0  0  0  0  0
  1  2  1  0
  2  3  2  0
  2  4  1  0
  4  5  1  0
  5  6  1  0
  6  7  1  0
  7  8  2  0
  8  9  1  0
  9 10  2  0
 10 11  1  0
  7 12  1  0
 11 12  2  0
 12 13  1  0
 13 14  1  0
 14 15  1  0
 15 16  2  0
 15 17  1  0
 17 18  1  0
 18 19  1  0
 18 20  1  0
 19 20  1  0
 13 21  1  0
 21 22  2  0
 21 23  1  0
 23 24  1  0
 24 25  2  0
 25 26  1  0
 26 27  2  0
 27 28  1  0
 24 29  1  0
 28 29  2  0
M  END
