SIM-DEM-5935bd74-2
     RDKit          3D

 21 22  0  0  0  0  0  0  0  0999 V2000
   14.8190   -5.5020   20.5080 C   0  0  0  0  0  0  0  0  0  0  0  0
   13.6840   -4.1870   20.1710 S   0  0  0  0  0  0  0  0  0  0  0  0
   14.6370   -3.3990   19.6260 O   0  0  0  0  0  0  0  0  0  0  0  0
   12.6070   -4.6170   19.3340 O   0  0  0  0  0  0  0  0  0  0  0  0
   12.8480   -3.3440   21.4130 N   0  0  0  0  0  0  0  0  0  0  0  0
   13.3270   -2.6120   22.6030 C   0  0  0  0  0  0  0  0  0  0  0  0
   12.3180   -2.0690   23.3300 C   0  0  0  0  0  0  0  0  0  0  0  0
   12.2790   -0.5580   23.1820 C   0  0  0  0  0  0  0  0  0  0  0  0
   11.4420    0.6330   23.5540 C   0  0  0  0  0  0  0  0  0  0  0  0
   11.7030    2.0980   23.2100 C   0  0  0  0  0  0  0  0  0  0  0  0
   12.8740    2.4910   22.4420 C   0  0  0  0  0  0  0  0  0  0  0  0
   12.2680    3.8300   22.6340 C   0  0  0  0  0  0  0  0  0  0  0  0
   10.9760    3.7480   23.4180 C   0  0  0  0  0  0  0  0  0  0  0  0
   10.0690    5.2390   23.7430 S   0  0  0  0  0  0  0  0  0  0  0  0
   10.7350    6.2470   22.5750 N   0  0  0  0  0  0  0  0  0  0  0  0
   10.4620    5.8010   25.0120 O   0  0  0  0  0  0  0  0  0  0  0  0
    8.6860    5.0390   23.3820 O   0  0  0  0  0  0  0  0  0  0  0  0
   10.5530    2.4750   23.8490 C   0  0  0  0  0  0  0  0  0  0  0  0
   11.3560    1.2890   23.5210 C   0  0  0  0  0  0  0  0  0  0  0  0
   12.6430    1.2940   22.7340 C   0  0  0  0  0  0  0  0  0  0  0  0
   13.1930    0.0670   22.5440 C   0  0  0  0  0  0  0  0  0  0  0  0
  1  2  1  0
  2  3  2  0
  2  4  2  0
  2  5  1  0
  5  6  1  0
  6  7  1  0
  7  8  1  0
  8  9  2  0
  9 10  1  0
 10 11  2  0
 11 12  1  0
 12 13  2  0
 13 14  1  0
 14 15  1  0
 14 16  2  0
 14 17  2  0
 13 18  1  0
 18 19  2  0
 11 20  1  0
 19 20  1  0
  8 21  1  0
 20 21  2  0
M  END
