SIM-SYN-3099a863-2
     RDKit          3D

 27 29  0  0  0  0  0  0  0  0999 V2000
    0.9600   -1.0190   26.2370 C   0  0  0  0  0  0  0  0  0  0  0  0
    1.9160   -2.1160   26.0460 C   0  0  0  0  0  0  0  0  0  0  0  0
    3.1900   -1.9730   26.5970 C   0  0  0  0  0  0  0  0  0  0  0  0
    4.2440   -2.8780   26.5570 C   0  0  0  0  0  0  0  0  0  0  0  0
    4.0310   -4.0830   25.8950 C   0  0  0  0  0  0  0  0  0  0  0  0
    5.3640   -5.2610   25.8710 S   0  0  0  0  0  0  0  0  0  0  0  0
    6.2160   -4.8000   26.9310 O   0  0  0  0  0  0  0  0  0  0  0  0
    4.8200   -6.5960   25.9250 O   0  0  0  0  0  0  0  0  0  0  0  0
    6.1230   -5.1020   24.3750 N   0  0  0  0  0  0  0  0  0  0  0  0
    5.9670   -6.0040   23.3520 C   0  0  0  0  0  0  0  0  0  0  0  0
    5.4960   -5.4630   22.0240 C   0  0  0  0  0  0  0  0  0  0  0  0
    5.7150   -4.1410   21.8380 N   0  0  0  0  0  0  0  0  0  0  0  0
    5.5210   -3.5330   20.5300 C   0  0  0  0  0  0  0  0  0  0  0  0
    5.2610   -4.3520   19.6490 O   0  0  0  0  0  0  0  0  0  0  0  0
    5.6000   -2.2070   20.2190 N   0  0  0  0  0  0  0  0  0  0  0  0
    5.6410   -1.9760   18.8960 C   0  0  0  0  0  0  0  0  0  0  0  0
    5.6830   -1.2690   21.2210 C   0  0  0  0  0  0  0  0  0  0  0  0
    6.7670   -0.3510   21.2580 C   0  0  0  0  0  0  0  0  0  0  0  0
    7.7930   -0.2620   22.1320 C   0  0  0  0  0  0  0  0  0  0  0  0
    8.5870    0.7800   21.7820 C   0  0  0  0  0  0  0  0  0  0  0  0
    9.7430    1.1950   22.4470 C   0  0  0  0  0  0  0  0  0  0  0  0
    8.1380    1.3480   20.7540 O   0  0  0  0  0  0  0  0  0  0  0  0
    6.9220    0.6490   20.3440 N   0  0  0  0  0  0  0  0  0  0  0  0
    6.8240   -3.5630   22.5880 C   0  0  0  0  0  0  0  0  0  0  0  0
    6.5430   -3.7310   23.9690 C   0  0  0  0  0  0  0  0  0  0  0  0
    2.7960   -4.3130   25.3030 C   0  0  0  0  0  0  0  0  0  0  0  0
    1.6930   -3.2750   25.3890 C   0  0  0  0  0  0  0  0  0  0  0  0
  1  2  1  0
  2  3  2  0
  3  4  1  0
  4  5  2  0
  6  5  1  0
  6  7  2  0
  6  8  2  0
  6  9  1  0
  9 10  1  0
 10 11  1  0
 11 12  1  0
 12 13  1  0
 13 14  2  0
 13 15  1  0
 15 16  1  0
 15 17  1  0
 17 18  1  0
 18 19  1  0
 19 20  2  0
 20 21  1  0
 20 22  1  0
 18 23  2  0
 22 23  1  0
 12 24  1  0
  9 25  1  0
 24 25  1  0
  5 26  1  0
  2 27  1  0
 26 27  2  0
M  END
