SIM-SYN-a98e6a07-1
     RDKit          3D

 34 37  0  0  0  0  0  0  0  0999 V2000
    5.3340   -4.5650   19.7190 O   0  0  0  0  0  0  0  0  0  0  0  0
    5.8560   -4.0630   20.7040 C   0  0  0  0  0  0  0  0  0  0  0  0
    5.7640   -2.5630   20.8300 C   0  0  0  0  0  0  0  0  0  0  0  0
    6.5830   -1.8390   20.0060 N   0  0  0  0  0  0  0  0  0  0  0  0
    6.2060   -1.6120   18.6690 C   0  0  0  0  0  0  0  0  0  0  0  0
    5.9340   -2.5420   17.9420 O   0  0  0  0  0  0  0  0  0  0  0  0
    6.1160   -0.3300   18.2420 N   0  0  0  0  0  0  0  0  0  0  0  0
    5.2650    0.6210   18.9170 C   0  0  0  0  0  0  0  0  0  0  0  0
    4.8230    1.6570   18.1100 C   0  0  0  0  0  0  0  0  0  0  0  0
    4.0000    2.6500   18.6040 C   0  0  0  0  0  0  0  0  0  0  0  0
    3.5660    2.6760   19.9410 C   0  0  0  0  0  0  0  0  0  0  0  0
    4.0030    1.5820   20.9010 C   0  0  0  0  0  0  0  0  0  0  0  0
    4.9060    0.5180   20.2780 C   0  0  0  0  0  0  0  0  0  0  0  0
    7.4220   -0.9930   20.6460 C   0  0  0  0  0  0  0  0  0  0  0  0
    7.3750    0.4510   20.4810 C   0  0  0  0  0  0  0  0  0  0  0  0
    8.3830    0.9430   21.3150 C   0  0  0  0  0  0  0  0  0  0  0  0
    9.5290    0.6970   22.3270 C   0  0  0  0  0  0  0  0  0  0  0  0
    9.5320   -0.7510   22.4460 N   0  0  0  0  0  0  0  0  0  0  0  0
    8.4580   -1.2320   21.5600 C   0  0  0  0  0  0  0  0  0  0  0  0
    6.4790   -4.7780   21.6470 N   0  0  0  0  0  0  0  0  0  0  0  0
    6.0750   -6.0270   21.9620 C   0  0  0  0  0  0  0  0  0  0  0  0
    5.3670   -5.9980   23.2920 C   0  0  0  0  0  0  0  0  0  0  0  0
    5.7690   -5.1030   24.2040 N   0  0  0  0  0  0  0  0  0  0  0  0
    5.2180   -5.2530   25.7970 S   0  0  0  0  0  0  0  0  0  0  0  0
    6.2110   -4.7740   26.7180 O   0  0  0  0  0  0  0  0  0  0  0  0
    4.6160   -6.5590   25.9420 O   0  0  0  0  0  0  0  0  0  0  0  0
    3.9340   -4.0520   25.8660 C   0  0  0  0  0  0  0  0  0  0  0  0
    4.2460   -2.8070   26.4870 C   0  0  0  0  0  0  0  0  0  0  0  0
    3.1770   -1.7290   26.5880 C   0  0  0  0  0  0  0  0  0  0  0  0
    1.7910   -1.9640   26.0400 C   0  0  0  0  0  0  0  0  0  0  0  0
    1.5210   -3.3170   25.3820 C   0  0  0  0  0  0  0  0  0  0  0  0
    2.6680   -4.3540   25.3220 C   0  0  0  0  0  0  0  0  0  0  0  0
    7.0540   -4.5180   23.9380 C   0  0  0  0  0  0  0  0  0  0  0  0
    7.2020   -4.0030   22.6610 C   0  0  0  0  0  0  0  0  0  0  0  0
  1  2  2  0
  2  3  1  0
  3  4  1  0
  4  5  1  0
  5  6  2  0
  5  7  1  0
  7  8  1  0
  8  9  2  0
  9 10  1  0
 10 11  2  0
 11 12  1  0
  8 13  1  0
 12 13  2  0
  4 14  1  0
 14 15  2  0
 15 16  1  0
 16 17  2  0
 17 18  1  0
 14 19  1  0
 18 19  2  0
  2 20  1  0
 20 21  1  0
 21 22  1  0
 22 23  1  0
 23 24  1  0
 24 25  2  0
 24 26  2  0
 24 27  1  0
 27 28  2  0
 28 29  1  0
 29 30  2  0
 30 31  1  0
 27 32  1  0
 31 32  2  0
 23 33  1  0
 20 34  1  0
 33 34  1  0
M  END
