SIM-DEM-5935bd74-6
     RDKit          3D

 20 21  0  0  0  0  0  0  0  0999 V2000
    8.3910   -4.4430   24.9410 C   0  0  0  0  0  0  0  0  0  0  0  0
    7.8790   -3.6580   23.8020 C   0  0  0  0  0  0  0  0  0  0  0  0
    6.7760   -3.9170   23.3200 O   0  0  0  0  0  0  0  0  0  0  0  0
    8.7020   -2.6380   23.3220 N   0  0  0  0  0  0  0  0  0  0  0  0
    8.1470   -1.3440   22.8940 C   0  0  0  0  0  0  0  0  0  0  0  0
    8.8060   -0.2410   23.4720 C   0  0  0  0  0  0  0  0  0  0  0  0
   10.2750   -0.3600   23.5060 N   0  0  0  0  0  0  0  0  0  0  0  0
   10.9820   -1.4710   22.8160 C   0  0  0  0  0  0  0  0  0  0  0  0
   12.4880   -1.3150   22.7750 C   0  0  0  0  0  0  0  0  0  0  0  0
   12.8110    0.1670   22.5910 C   0  0  0  0  0  0  0  0  0  0  0  0
   11.4760    0.8970   22.6150 C   0  0  2  0  0  0  0  0  0  0  0  0
   11.0190    2.4090   22.4360 C   0  0  0  0  0  0  0  0  0  0  0  0
   11.8490    3.2910   22.9240 C   0  0  0  0  0  0  0  0  0  0  0  0
   11.8180    5.0540   23.0160 S   0  0  0  0  0  0  0  0  0  0  0  0
   10.2230    5.4670   22.6900 N   0  0  0  0  0  0  0  0  0  0  0  0
   12.5920    5.6320   21.9370 O   0  0  0  0  0  0  0  0  0  0  0  0
   12.0060    5.4750   24.3890 O   0  0  0  0  0  0  0  0  0  0  0  0
   12.7000    2.4220   23.3100 C   0  0  0  0  0  0  0  0  0  0  0  0
   11.3480    1.9840   23.6000 C   0  0  0  0  0  0  0  0  0  0  0  0
   11.1510    0.7140   24.0160 C   0  0  1  0  0  0  0  0  0  0  0  0
  1  2  1  0
  2  3  2  0
  2  4  1  0
  4  5  1  0
  5  6  1  0
  6  7  1  0
  7  8  1  0
  8  9  1  0
  9 10  1  0
 11 10  1  1
 11 12  1  0
 12 13  2  0
 13 14  1  0
 14 15  1  0
 14 16  2  0
 14 17  2  0
 13 18  1  0
 18 19  2  0
  7 20  1  0
 11 20  1  0
 20 19  1  6
M  END
