SIM-DEM-2843056b-7
     RDKit          3D

 27 29  0  0  0  0  0  0  0  0999 V2000
    2.2850   -0.6470   29.4630 C   0  0  0  0  0  0  0  0  0  0  0  0
    3.0960   -0.7280   28.3440 N   0  0  0  0  0  0  0  0  0  0  0  0
    3.9780    0.2570   27.8550 C   0  0  0  0  0  0  0  0  0  0  0  0
    3.6440    1.0870   26.6160 C   0  0  0  0  0  0  0  0  0  0  0  0
    2.9400    0.2810   25.6070 N   0  0  0  0  0  0  0  0  0  0  0  0
    2.5950    0.7340   24.3510 C   0  0  0  0  0  0  0  0  0  0  0  0
    3.7940    0.6910   23.4430 C   0  0  0  0  0  0  0  0  0  0  0  0
    3.6160    0.5270   21.9430 C   0  0  0  0  0  0  0  0  0  0  0  0
    2.5900    0.9220   21.3830 O   0  0  0  0  0  0  0  0  0  0  0  0
    4.6990   -0.1010   21.3000 N   0  0  0  0  0  0  0  0  0  0  0  0
    5.1150    0.2730   19.9680 C   0  0  0  0  0  0  0  0  0  0  0  0
    4.7890    1.2060   19.1150 C   0  0  0  0  0  0  0  0  0  0  0  0
    4.0200    2.2240   18.9310 C   0  0  0  0  0  0  0  0  0  0  0  0
    4.9940    1.8060   17.8200 C   0  0  0  0  0  0  0  0  0  0  0  0
    5.9220    0.6770   17.8890 N   0  0  0  0  0  0  0  0  0  0  0  0
    5.9940   -0.1560   19.0350 C   0  0  0  0  0  0  0  0  0  0  0  0
    6.8610   -1.2100   19.0790 C   0  0  0  0  0  0  0  0  0  0  0  0
    6.9870   -1.7030   20.4380 N   0  0  0  0  0  0  0  0  0  0  0  0
    6.2740   -2.8340   20.7660 C   0  0  0  0  0  0  0  0  0  0  0  0
    5.4250   -3.3370   20.0350 O   0  0  0  0  0  0  0  0  0  0  0  0
    6.6380   -3.3390   21.9870 N   0  0  0  0  0  0  0  0  0  0  0  0
    5.6790   -4.1020   22.7400 C   0  0  0  0  0  0  0  0  0  0  0  0
    6.1510   -5.3210   23.1920 C   0  0  0  0  0  0  0  0  0  0  0  0
    5.9020   -6.4000   22.5240 C   0  0  0  0  0  0  0  0  0  0  0  0
    7.1710   -6.2950   22.3190 C   0  0  0  0  0  0  0  0  0  0  0  0
    1.9240   -0.4180   26.1730 C   0  0  0  0  0  0  0  0  0  0  0  0
    2.3920   -1.4050   27.2340 C   0  0  0  0  0  0  0  0  0  0  0  0
  1  2  1  0
  2  3  1  0
  3  4  1  0
  4  5  1  0
  5  6  1  0
  6  7  1  0
  7  8  1  0
  8  9  2  0
  8 10  1  0
 10 11  1  0
 11 12  2  0
 12 13  1  0
 13 14  2  0
 14 15  1  0
 11 16  1  0
 15 16  2  0
 16 17  1  0
 17 18  1  0
 18 19  1  0
 19 20  2  0
 19 21  1  0
 21 22  1  0
 22 23  1  0
 23 24  1  0
 23 25  1  0
 24 25  1  0
  5 26  1  0
  2 27  1  0
 26 27  1  0
M  END
