SIM-SYN-7db9eb24-2
     RDKit          3D

 26 28  0  0  0  0  0  0  0  0999 V2000
    3.0290    3.1470   18.9770 C   0  0  0  0  0  0  0  0  0  0  0  0
    3.6910    1.8750   19.4660 C   0  0  0  0  0  0  0  0  0  0  0  0
    4.2540    0.9180   18.7960 C   0  0  0  0  0  0  0  0  0  0  0  0
    4.7650   -0.1440   19.6590 C   0  0  0  0  0  0  0  0  0  0  0  0
    5.4650   -1.3910   19.1030 C   0  0  0  0  0  0  0  0  0  0  0  0
    6.2940   -2.0430   19.8920 N   0  0  0  0  0  0  0  0  0  0  0  0
    7.4570   -1.3850   20.1510 C   0  0  0  0  0  0  0  0  0  0  0  0
    5.9310   -3.2980   20.3900 C   0  0  0  0  0  0  0  0  0  0  0  0
    5.4050   -4.2030   19.7250 O   0  0  0  0  0  0  0  0  0  0  0  0
    6.2260   -3.4680   21.6930 N   0  0  0  0  0  0  0  0  0  0  0  0
    5.8520   -4.6480   22.2220 C   0  0  0  0  0  0  0  0  0  0  0  0
    5.4950   -4.6700   23.5620 C   0  0  0  0  0  0  0  0  0  0  0  0
    6.4390   -3.7330   24.3500 C   0  0  0  0  0  0  0  0  0  0  0  0
    5.7980   -2.5230   24.9090 N   0  0  0  0  0  0  0  0  0  0  0  0
    6.2790   -2.3400   26.3050 C   0  0  0  0  0  0  0  0  0  0  0  0
    6.7510   -3.2500   26.9580 O   0  0  0  0  0  0  0  0  0  0  0  0
    6.1510   -0.9570   26.9140 C   0  0  0  0  0  0  0  0  0  0  0  0
    6.9440   -0.5820   28.0070 C   0  0  0  0  0  0  0  0  0  0  0  0
    6.8410    0.6730   28.5880 C   0  0  0  0  0  0  0  0  0  0  0  0
    5.9250    1.5610   28.0560 C   0  0  0  0  0  0  0  0  0  0  0  0
    5.1350    1.2070   26.9770 C   0  0  0  0  0  0  0  0  0  0  0  0
    5.2160   -0.0490   26.3720 C   0  0  0  0  0  0  0  0  0  0  0  0
    7.5940   -3.2960   23.5970 C   0  0  0  0  0  0  0  0  0  0  0  0
    7.4500   -2.8980   22.2480 C   0  0  0  0  0  0  0  0  0  0  0  0
    4.4760    0.2450   20.9190 N   0  0  0  0  0  0  0  0  0  0  0  0
    3.8030    1.5040   20.7940 O   0  0  0  0  0  0  0  0  0  0  0  0
  1  2  1  0
  2  3  2  0
  3  4  1  0
  4  5  1  0
  5  6  1  0
  6  7  1  0
  6  8  1  0
  8  9  2  0
  8 10  1  0
 10 11  1  0
 11 12  1  0
 12 13  1  0
 13 14  1  0
 14 15  1  0
 15 16  2  0
 15 17  1  0
 17 18  2  0
 18 19  1  0
 19 20  2  0
 20 21  1  0
 17 22  1  0
 21 22  2  0
 13 23  1  0
 10 24  1  0
 23 24  1  0
  4 25  2  0
  2 26  1  0
 25 26  1  0
M  END
