STE-UNK-4e3fa4d2-1
     RDKit          3D

 25 28  0  0  0  0  0  0  0  0999 V2000
    5.4080    0.4290   22.0400 C   0  0  0  0  0  0  0  0  0  0  0  0
    5.6970    0.4380   20.5640 C   0  0  0  0  0  0  0  0  0  0  0  0
    6.5970   -0.5080   20.0620 C   0  0  0  0  0  0  0  0  0  0  0  0
    6.8630   -0.5080   18.7170 C   0  0  0  0  0  0  0  0  0  0  0  0
    6.3050    0.3480   17.8450 N   0  0  0  0  0  0  0  0  0  0  0  0
    5.4360    1.2640   18.3370 C   0  0  0  0  0  0  0  0  0  0  0  0
    5.1050    1.3560   19.6830 C   0  0  0  0  0  0  0  0  0  0  0  0
    4.2310    2.3130   20.2400 N   0  0  0  0  0  0  0  0  0  0  0  0
    2.8340    2.3820   20.2850 C   0  0  0  0  0  0  0  0  0  0  0  0
    2.0640    1.4470   20.1160 O   0  0  0  0  0  0  0  0  0  0  0  0
    2.2730    3.7830   20.5970 C   0  0  0  0  0  0  0  0  0  0  0  0
    3.1630    4.7580   21.3380 C   0  0  0  0  0  0  0  0  0  0  0  0
    4.4530    4.4290   21.7300 C   0  0  0  0  0  0  0  0  0  0  0  0
    5.3030    5.1380   22.5950 C   0  0  0  0  0  0  0  0  0  0  0  0
    6.6100    4.7000   22.9310 C   0  0  0  0  0  0  0  0  0  0  0  0
    7.3660    5.4890   23.8060 C   0  0  0  0  0  0  0  0  0  0  0  0
    6.7870    6.0840   24.7170 C   0  0  0  0  0  0  0  0  0  0  0  0
    7.3920    4.7970   25.1500 C   0  0  0  0  0  0  0  0  0  0  0  0
    7.0790    3.4830   22.3620 C   0  0  0  0  0  0  0  0  0  0  0  0
    8.6910    2.7780   22.6830 S   0  0  0  0  0  0  0  0  0  0  0  0
    8.3110    1.2950   23.3910 N   0  0  0  0  0  0  0  0  0  0  0  0
    9.3570    3.5480   23.7100 O   0  0  0  0  0  0  0  0  0  0  0  0
    9.3500    2.4450   21.4350 O   0  0  0  0  0  0  0  0  0  0  0  0
    6.2890    2.7520   21.5040 C   0  0  0  0  0  0  0  0  0  0  0  0
    5.0170    3.1480   21.1600 C   0  0  0  0  0  0  0  0  0  0  0  0
  1  2  1  0
  2  3  2  0
  3  4  1  0
  4  5  2  0
  5  6  1  0
  2  7  1  0
  6  7  2  0
  7  8  1  0
  8  9  1  0
  9 10  2  0
  9 11  1  0
 11 12  2  0
 12 13  1  0
 13 14  1  0
 14 15  2  0
 15 16  1  0
 16 17  1  0
 16 18  1  0
 17 18  1  0
 15 19  1  0
 19 20  1  0
 20 21  1  0
 20 22  2  0
 20 23  2  0
 19 24  2  0
  8 25  1  0
 13 25  2  0
 24 25  1  0
M  END
