STE-LAU-de673641-1
     RDKit          3D

 38 40  0  0  0  0  0  0  0  0999 V2000
    8.4740    3.8850   24.0520 C   0  0  0  0  0  0  0  0  0  0  0  0
    7.8410    2.5600   24.1200 C   0  0  0  0  0  0  0  0  0  0  0  0
    6.9100    2.1540   23.2840 N   0  0  0  0  0  0  0  0  0  0  0  0
    6.9760    2.4540   21.8430 C   0  0  0  0  0  0  0  0  0  0  0  0
    5.8650    3.2020   21.3840 C   0  0  0  0  0  0  0  0  0  0  0  0
    6.5170    0.8100   23.6010 C   0  0  0  0  0  0  0  0  0  0  0  0
    7.4570   -0.1720   23.8940 C   0  0  0  0  0  0  0  0  0  0  0  0
    6.9460   -1.5770   24.2210 C   0  0  0  0  0  0  0  0  0  0  0  0
    7.9470   -2.5150   24.5120 N   0  0  0  0  0  0  0  0  0  0  0  0
    9.1680   -2.3760   23.7320 C   0  0  0  0  0  0  0  0  0  0  0  0
   10.5140   -2.4530   24.2460 O   0  0  0  0  0  0  0  0  0  0  0  0
    8.9300   -2.1510   22.2710 C   0  0  0  0  0  0  0  0  0  0  0  0
   10.2260   -1.4270   22.5150 C   0  0  0  0  0  0  0  0  0  0  0  0
   10.2760   -0.0670   22.8220 C   0  0  0  0  0  0  0  0  0  0  0  0
   11.5860    0.6920   23.0180 C   0  0  0  0  0  0  0  0  0  0  0  0
   12.8690   -0.0930   22.8800 C   0  0  0  0  0  0  0  0  0  0  0  0
   13.9590    0.3720   23.0000 O   0  0  0  0  0  0  0  0  0  0  0  0
   12.6690   -1.5390   22.5650 C   0  0  0  0  0  0  0  0  0  0  0  0
   11.4130   -2.1200   22.4010 C   0  0  0  0  0  0  0  0  0  0  0  0
    5.5760   -1.9070   24.2260 C   0  0  0  0  0  0  0  0  0  0  0  0
    5.1480   -3.2310   24.5060 N   0  0  0  0  0  0  0  0  0  0  0  0
    5.1930   -4.1030   25.5950 C   0  0  0  0  0  0  0  0  0  0  0  0
    5.7800   -3.8180   26.7800 N   0  0  0  0  0  0  0  0  0  0  0  0
    5.7360   -4.7800   27.7240 C   0  0  0  0  0  0  0  0  0  0  0  0
    5.1160   -6.0110   27.5120 C   0  0  0  0  0  0  0  0  0  0  0  0
    4.5410   -6.1990   26.2690 C   0  0  0  0  0  0  0  0  0  0  0  0
    3.8830   -7.3690   25.9120 C   0  0  0  0  0  0  0  0  0  0  0  0
    2.9950   -7.9180   26.8050 N   0  0  0  0  0  0  0  0  0  0  0  0
    4.0640   -7.9070   24.8200 O   0  0  0  0  0  0  0  0  0  0  0  0
    4.5800   -5.2610   25.3170 N   0  0  0  0  0  0  0  0  0  0  0  0
    4.6670   -0.8970   23.9320 C   0  0  0  0  0  0  0  0  0  0  0  0
    5.1260    0.4980   23.6110 C   0  0  0  0  0  0  0  0  0  0  0  0
    4.2120    1.5360   23.3090 N   0  0  0  0  0  0  0  0  0  0  0  0
    2.9650    1.2100   22.6160 C   0  0  0  0  0  0  0  0  0  0  0  0
    3.0410    1.4380   21.2280 C   0  0  0  0  0  0  0  0  0  0  0  0
    2.0420    2.4360   20.7730 N   0  0  0  0  0  0  0  0  0  0  0  0
    0.6930    1.8650   20.8070 C   0  0  0  0  0  0  0  0  0  0  0  0
    2.3540    2.8970   19.4150 C   0  0  0  0  0  0  0  0  0  0  0  0
  1  2  1  0
  2  3  1  0
  3  4  1  0
  4  5  1  0
  3  6  1  0
  6  7  2  0
  7  8  1  0
  8  9  1  0
  9 10  1  0
 10 11  2  0
 10 12  1  0
 12 13  1  0
 13 14  2  0
 14 15  1  0
 15 16  2  0
 16 17  1  0
 16 18  1  0
 13 19  1  0
 18 19  2  0
  8 20  2  0
 20 21  1  0
 21 22  1  0
 22 23  2  0
 23 24  1  0
 24 25  2  0
 25 26  1  0
 26 27  1  0
 27 28  1  0
 27 29  2  0
 22 30  1  0
 26 30  2  0
 20 31  1  0
  6 32  1  0
 31 32  2  0
 32 33  1  0
 33 34  1  0
 34 35  1  0
 35 36  1  0
 36 37  1  0
 36 38  1  0
M  END
