STE-UNK-e42f3418-1
     RDKit          3D

 23 26  0  0  0  0  0  0  0  0999 V2000
    5.6010    0.9190   22.0980 C   0  0  0  0  0  0  0  0  0  0  0  0
    5.8320    0.7690   20.5730 C   0  0  0  0  0  0  0  0  0  0  0  0
    6.6690   -0.2430   20.1040 C   0  0  0  0  0  0  0  0  0  0  0  0
    6.9320   -0.4480   18.7650 C   0  0  0  0  0  0  0  0  0  0  0  0
    6.3810    0.3280   17.8010 N   0  0  0  0  0  0  0  0  0  0  0  0
    5.5800    1.3050   18.2310 C   0  0  0  0  0  0  0  0  0  0  0  0
    5.2130    1.6460   19.6780 C   0  0  0  0  0  0  0  0  0  0  0  0
    4.2940    2.8240   20.0290 C   0  0  0  0  0  0  0  0  0  0  0  0
    3.0170    2.5750   20.5600 C   0  0  0  0  0  0  0  0  0  0  0  0
    2.0550    2.0100   19.7640 N   0  0  0  0  0  0  0  0  0  0  0  0
    1.0380    1.9450   20.5640 N   0  0  0  0  0  0  0  0  0  0  0  0
    1.3660    2.4540   21.8080 C   0  0  0  0  0  0  0  0  0  0  0  0
    2.6590    2.9370   22.0320 C   0  0  0  0  0  0  0  0  0  0  0  0
    3.3020    3.5030   23.1330 C   0  0  0  0  0  0  0  0  0  0  0  0
    4.3630    2.7630   23.5830 N   0  0  0  0  0  0  0  0  0  0  0  0
    4.9830    3.3140   24.6550 C   0  0  0  0  0  0  0  0  0  0  0  0
    4.5430    4.6200   25.2810 C   0  0  0  0  0  0  0  0  0  0  0  0
    3.3580    5.4190   24.7490 C   0  0  0  0  0  0  0  0  0  0  0  0
    2.9500    6.6350   25.3320 C   0  0  0  0  0  0  0  0  0  0  0  0
    2.7180    6.6510   26.8260 C   0  0  0  0  0  0  0  0  0  0  0  0
    1.4930    6.7370   25.9440 C   0  0  0  0  0  0  0  0  0  0  0  0
    2.7200    4.8460   23.6430 C   0  0  0  0  0  0  0  0  0  0  0  0
    1.6170    5.4510   23.0390 C   0  0  0  0  0  0  0  0  0  0  0  0
  1  2  1  0
  2  3  2  0
  3  4  1  0
  4  5  2  0
  5  6  1  0
  2  7  1  0
  6  7  2  0
  7  8  1  0
  8  9  1  0
  9 10  2  0
 10 11  1  0
 11 12  1  0
  9 13  1  0
 12 13  2  0
 13 14  1  0
 14 15  2  0
 15 16  1  0
 16 17  2  0
 17 18  1  0
 18 19  1  0
 19 20  1  0
 19 21  1  0
 20 21  1  0
 14 22  1  0
 18 22  2  0
 22 23  1  0
M  END
