STE-UNK-dfade101-2
     RDKit          3D

 14 15  0  0  0  0  0  0  0  0999 V2000
    9.1130   -2.9500   22.9810 C   0  0  0  0  0  0  0  0  0  0  0  0
    9.1510   -1.4900   22.5530 C   0  0  0  0  0  0  0  0  0  0  0  0
    9.3920   -0.4840   23.0170 C   0  0  0  0  0  0  0  0  0  0  0  0
    8.6430   -0.0880   21.7810 C   0  0  0  0  0  0  0  0  0  0  0  0
    7.4810   -0.7580   21.3910 C   0  0  0  0  0  0  0  0  0  0  0  0
    6.7600   -0.1440   20.3680 C   0  0  0  0  0  0  0  0  0  0  0  0
    7.1250   -0.3340   19.0350 C   0  0  0  0  0  0  0  0  0  0  0  0
    6.4580    0.2470   17.9850 N   0  0  0  0  0  0  0  0  0  0  0  0
    5.3190    1.0990   18.2420 C   0  0  0  0  0  0  0  0  0  0  0  0
    4.9350    1.2970   19.5620 C   0  0  0  0  0  0  0  0  0  0  0  0
    5.6430    0.6850   20.6190 C   0  0  0  0  0  0  0  0  0  0  0  0
    5.2150    0.9180   21.9100 C   0  0  0  0  0  0  0  0  0  0  0  0
    9.1390    0.8630   21.3840 N   0  0  0  0  0  0  0  0  0  0  0  0
    9.4820   -0.5950   21.4850 N   0  0  0  0  0  0  0  0  0  0  0  0
  1  2  1  0
  2  3  2  0
  3  4  1  0
  4  5  1  0
  5  6  1  0
  6  7  2  0
  7  8  1  0
  8  9  2  0
  9 10  1  0
  6 11  1  0
 10 11  2  0
 11 12  1  0
  4 13  2  0
  2 14  1  0
 13 14  1  0
M  END
