STE-NAN-bafe64f0-2
     RDKit          3D

 36 41  0  0  0  0  0  0  0  0999 V2000
    9.1220   -0.6350   23.6920 C   0  0  0  0  0  0  0  0  0  0  0  0
   10.5200   -0.4580   23.4570 N   0  0  0  0  0  0  0  0  0  0  0  0
   11.0590    0.7240   23.1600 C   0  0  0  0  0  0  0  0  0  0  0  0
   10.1840    1.9420   23.3240 C   0  0  0  0  0  0  0  0  0  0  0  0
   10.8300    3.2740   23.1320 C   0  0  0  0  0  0  0  0  0  0  0  0
    9.9210    4.7030   23.4140 S   0  0  0  0  0  0  0  0  0  0  0  0
    9.6080    4.7110   24.8320 O   0  0  0  0  0  0  0  0  0  0  0  0
    8.8890    4.8410   22.4270 O   0  0  0  0  0  0  0  0  0  0  0  0
   11.2390    5.7110   23.1410 C   0  0  0  0  0  0  0  0  0  0  0  0
   12.3290    5.3300   22.1190 C   0  0  0  0  0  0  0  0  0  0  0  0
   13.3820    6.4220   22.2000 C   0  0  0  0  0  0  0  0  0  0  0  0
   12.8270    7.3790   23.2150 C   0  0  0  0  0  0  0  0  0  0  0  0
   11.5300    6.9580   23.7950 C   0  0  0  0  0  0  0  0  0  0  0  0
   12.1880    3.3200   22.7580 C   0  0  0  0  0  0  0  0  0  0  0  0
   12.9290    2.1160   22.5770 C   0  0  0  0  0  0  0  0  0  0  0  0
   12.3740    0.8600   22.7760 C   0  0  0  0  0  0  0  0  0  0  0  0
   13.0760   -0.3080   22.6190 C   0  0  0  0  0  0  0  0  0  0  0  0
   12.3010   -1.4500   22.3020 C   0  0  0  0  0  0  0  0  0  0  0  0
   11.0020   -1.6270   22.8600 C   0  0  2  0  0  0  0  0  0  0  0  0
    9.6870   -1.6880   22.1270 C   0  0  0  0  0  0  0  0  0  0  0  0
    9.3840   -1.0010   21.0100 N   0  0  0  0  0  0  0  0  0  0  0  0
    8.0080   -1.3690   20.7240 C   0  0  0  0  0  0  0  0  0  0  0  0
    7.5780   -2.2130   21.6910 N   0  0  0  0  0  0  0  0  0  0  0  0
    6.2750   -2.7890   21.7630 C   0  0  0  0  0  0  0  0  0  0  0  0
    6.4040   -4.0490   21.2850 C   0  0  2  0  0  0  0  0  0  0  0  0
    5.2410   -4.9590   21.4290 C   0  0  0  0  0  0  0  0  0  0  0  0
    5.7800   -6.2810   21.8460 C   0  0  0  0  0  0  0  0  0  0  0  0
    7.1910   -6.1890   21.6910 O   0  0  0  0  0  0  0  0  0  0  0  0
    7.4850   -4.8270   21.9880 C   0  0  0  0  0  0  0  0  0  0  0  0
    8.6190   -2.4020   22.5700 C   0  0  0  0  0  0  0  0  0  0  0  0
    8.6110   -3.2090   23.7930 C   0  0  0  0  0  0  0  0  0  0  0  0
    8.4990   -4.6330   23.5650 C   0  0  0  0  0  0  0  0  0  0  0  0
    7.4210   -5.4380   23.4270 C   0  0  0  0  0  0  0  0  0  0  0  0
    7.8410   -6.7010   23.2200 N   0  0  0  0  0  0  0  0  0  0  0  0
    9.1400   -6.6120   23.2620 C   0  0  0  0  0  0  0  0  0  0  0  0
    9.6320   -5.3820   23.4640 O   0  0  0  0  0  0  0  0  0  0  0  0
  1  2  1  0
  2  3  1  0
  3  4  1  0
  4  5  2  0
  6  5  1  0
  6  7  2  0
  6  8  2  0
  6  9  1  0
  9 10  2  0
 10 11  1  0
 11 12  1  0
  9 13  1  0
 12 13  2  0
  5 14  1  0
 14 15  2  0
  3 16  2  0
 15 16  1  0
 16 17  1  0
 17 18  1  0
  2 19  1  0
 18 19  1  0
 19 20  1  6
 20 21  1  0
 21 22  2  0
 22 23  1  0
 23 24  1  0
 25 24  1  1
 25 26  1  0
 26 27  1  0
 27 28  1  0
 25 29  1  0
 28 29  1  0
 20 30  2  0
 23 30  1  0
 30 31  1  0
 31 32  1  0
 32 33  2  0
 33 34  1  0
 34 35  2  0
 32 36  1  0
 35 36  1  0
M  END
