STE-NAN-bafe64f0-1
     RDKit          3D

 26 29  0  0  0  0  0  0  0  0999 V2000
    9.3430   -0.0150   24.8430 C   0  0  0  0  0  0  0  0  0  0  0  0
   10.6230   -0.2250   24.3850 N   0  0  0  0  0  0  0  0  0  0  0  0
   11.1870    0.9990   23.8840 C   0  0  0  0  0  0  0  0  0  0  0  0
   10.3860    2.1490   24.0690 C   0  0  0  0  0  0  0  0  0  0  0  0
   10.9300    3.4820   23.5820 C   0  0  0  0  0  0  0  0  0  0  0  0
   10.0180    5.0070   23.7540 S   0  0  0  0  0  0  0  0  0  0  0  0
   11.2340    6.1590   23.5310 N   0  0  0  0  0  0  0  0  0  0  0  0
    9.4460    5.1780   25.0810 O   0  0  0  0  0  0  0  0  0  0  0  0
    9.1420    5.1420   22.6280 O   0  0  0  0  0  0  0  0  0  0  0  0
   12.1830    3.4480   23.0040 C   0  0  0  0  0  0  0  0  0  0  0  0
   12.8980    2.1510   22.8850 C   0  0  0  0  0  0  0  0  0  0  0  0
   12.4240    0.9890   23.2860 C   0  0  0  0  0  0  0  0  0  0  0  0
   13.1090   -0.3320   23.1450 C   0  0  0  0  0  0  0  0  0  0  0  0
   12.1120   -1.4460   22.7860 C   0  0  0  0  0  0  0  0  0  0  0  0
   10.9530   -1.5540   23.8070 C   0  0  2  0  0  0  0  0  0  0  0  0
    9.7010   -2.2040   23.2840 C   0  0  0  0  0  0  0  0  0  0  0  0
    8.8610   -1.8630   22.2620 C   0  0  0  0  0  0  0  0  0  0  0  0
    7.8600   -2.7610   22.2070 C   0  0  0  0  0  0  0  0  0  0  0  0
    8.0650   -3.6650   23.1780 N   0  0  0  0  0  0  0  0  0  0  0  0
    7.2470   -4.7360   23.4110 C   0  0  0  0  0  0  0  0  0  0  0  0
    5.9210   -4.3730   23.6710 C   0  0  2  0  0  0  0  0  0  0  0  0
    5.5610   -3.0460   23.3940 C   0  0  0  0  0  0  0  0  0  0  0  0
    4.2440   -2.8540   24.1660 C   0  0  0  0  0  0  0  0  0  0  0  0
    4.4160   -3.6660   25.3290 O   0  0  0  0  0  0  0  0  0  0  0  0
    5.6830   -4.3170   25.1720 C   0  0  0  0  0  0  0  0  0  0  0  0
    9.2180   -3.3690   23.9030 N   0  0  0  0  0  0  0  0  0  0  0  0
  1  2  1  0
  2  3  1  0
  3  4  1  0
  4  5  2  0
  5  6  1  0
  6  7  1  0
  6  8  2  0
  6  9  2  0
  5 10  1  0
 10 11  2  0
  3 12  2  0
 11 12  1  0
 12 13  1  0
 13 14  1  0
  2 15  1  0
 14 15  1  0
 15 16  1  6
 16 17  1  0
 17 18  2  0
 18 19  1  0
 19 20  1  0
 21 20  1  1
 21 22  1  0
 22 23  1  0
 23 24  1  0
 21 25  1  0
 24 25  1  0
 16 26  2  0
 19 26  1  0
M  END
