SUN-DEP-1496052a-1
     RDKit          3D

 11 11  0  0  0  0  0  0  0  0999 V2000
   12.8350    2.5790   22.6670 C   0  0  0  0  0  0  0  0  0  0  0  0
   12.2810    1.2130   22.8310 C   0  0  0  0  0  0  0  0  0  0  0  0
   12.6420   -0.1220   22.4490 C   0  0  0  0  0  0  0  0  0  0  0  0
   11.6710   -1.1040   22.8290 C   0  0  0  0  0  0  0  0  0  0  0  0
   10.2900   -0.8800   22.9730 C   0  0  1  0  0  0  0  0  0  0  0  0
    9.3810   -1.9040   23.2250 C   0  0  0  0  0  0  0  0  0  0  0  0
    9.6400   -2.8870   24.1550 C   0  0  0  0  0  0  0  0  0  0  0  0
    8.9790   -2.6070   21.9480 C   0  0  0  0  0  0  0  0  0  0  0  0
    8.1670   -1.2860   23.6880 O   0  0  0  0  0  0  0  0  0  0  0  0
   10.2300    0.1940   24.0280 C   0  0  0  0  0  0  0  0  0  0  0  0
   11.0500    1.3950   23.5890 C   0  0  0  0  0  0  0  0  0  0  0  0
  1  2  1  0
  2  3  2  0
  3  4  1  0
  4  5  1  0
  5  6  1  1
  6  7  1  0
  6  8  1  0
  6  9  1  0
  5 10  1  0
  2 11  1  0
 10 11  1  0
M  END
