SUN-DEP-1496052a-2
     RDKit          3D

 11 11  0  0  0  0  0  0  0  0999 V2000
   12.6640    1.7980   22.8850 C   0  0  0  0  0  0  0  0  0  0  0  0
   12.6760    0.3970   22.2980 C   0  0  0  0  0  0  0  0  0  0  0  0
   13.1530   -1.0550   22.4220 C   0  0  0  0  0  0  0  0  0  0  0  0
   11.7110   -1.5600   22.0900 C   0  0  0  0  0  0  0  0  0  0  0  0
   10.4550   -1.0360   22.5210 C   0  0  1  0  0  0  0  0  0  0  0  0
    9.8090   -0.3420   21.4290 O   0  0  0  0  0  0  0  0  0  0  0  0
    9.4730   -1.9100   22.9630 C   0  0  0  0  0  0  0  0  0  0  0  0
    9.9400   -2.8930   23.8040 C   0  0  0  0  0  0  0  0  0  0  0  0
    8.3210   -1.2010   23.6870 C   0  0  0  0  0  0  0  0  0  0  0  0
   10.7380   -0.0520   23.6100 C   0  0  0  0  0  0  0  0  0  0  0  0
   12.2010    0.2080   23.6270 C   0  0  0  0  0  0  0  0  0  0  0  0
  1  2  1  0
  2  3  2  0
  3  4  1  0
  4  5  1  0
  5  6  1  6
  5  7  1  0
  7  8  1  0
  7  9  1  0
  5 10  1  0
  2 11  1  0
 10 11  1  0
M  END
