SUN-WAB-e274cdaf-1
     RDKit          3D

 32 35  0  0  0  0  0  0  0  0999 V2000
    8.7150    1.4540   22.1380 C   0  0  0  0  0  0  0  0  0  0  0  0
    7.4500    0.7640   21.7780 C   0  0  1  0  0  0  0  0  0  0  0  0
    7.4750   -0.4510   21.0640 C   0  0  0  0  0  0  0  0  0  0  0  0
    6.9380   -0.0910   19.8980 C   0  0  0  0  0  0  0  0  0  0  0  0
    7.2810   -0.4300   18.6180 C   0  0  0  0  0  0  0  0  0  0  0  0
    6.4430    0.2830   17.8120 N   0  0  0  0  0  0  0  0  0  0  0  0
    5.5900    1.0310   18.5780 C   0  0  0  0  0  0  0  0  0  0  0  0
    4.4830    2.0020   18.2690 C   0  0  0  0  0  0  0  0  0  0  0  0
    3.5110    2.8140   19.1580 C   0  0  0  0  0  0  0  0  0  0  0  0
    4.0930    2.2820   20.4460 C   0  0  0  0  0  0  0  0  0  0  0  0
    5.0810    1.4420   20.7140 C   0  0  0  0  0  0  0  0  0  0  0  0
    5.8710    0.7880   19.8350 C   0  0  0  0  0  0  0  0  0  0  0  0
    6.2760    0.9400   22.7980 C   0  0  0  0  0  0  0  0  0  0  0  0
    5.9190    2.0390   23.2440 O   0  0  0  0  0  0  0  0  0  0  0  0
    5.6350   -0.3120   23.1880 N   0  0  0  0  0  0  0  0  0  0  0  0
    6.6300   -1.3420   23.4260 C   0  0  0  0  0  0  0  0  0  0  0  0
    7.8140   -0.6330   23.2780 C   0  0  1  0  0  0  0  0  0  0  0  0
    7.9510    0.4030   24.1690 C   0  0  0  0  0  0  0  0  0  0  0  0
    9.0600   -1.5240   23.1970 C   0  0  1  0  0  0  0  0  0  0  0  0
    9.2700   -2.3680   22.2030 C   0  0  0  0  0  0  0  0  0  0  0  0
   10.7710   -2.4950   22.4400 C   0  0  0  0  0  0  0  0  0  0  0  0
   11.1940   -2.3880   23.8020 C   0  0  0  0  0  0  0  0  0  0  0  0
   12.5300   -2.5050   24.1580 C   0  0  0  0  0  0  0  0  0  0  0  0
   13.4700   -2.7320   23.1720 C   0  0  0  0  0  0  0  0  0  0  0  0
   13.0930   -2.8330   21.8280 C   0  0  0  0  0  0  0  0  0  0  0  0
   11.7600   -2.7150   21.4550 C   0  0  0  0  0  0  0  0  0  0  0  0
   10.4130   -0.9060   22.9810 C   0  0  0  0  0  0  0  0  0  0  0  0
   11.3580   -1.6470   22.2250 C   0  0  0  0  0  0  0  0  0  0  0  0
   12.6710   -1.2170   21.9590 C   0  0  0  0  0  0  0  0  0  0  0  0
   13.1180    0.1020   22.5070 C   0  0  0  0  0  0  0  0  0  0  0  0
   12.1090    0.8790   23.2840 C   0  0  0  0  0  0  0  0  0  0  0  0
   10.7290    0.2930   23.4740 C   0  0  0  0  0  0  0  0  0  0  0  0
  2  1  1  1
  2  3  1  0
  3  4  1  0
  4  5  2  0
  5  6  1  0
  6  7  1  0
  7  8  1  0
  8  9  2  0
  9 10  1  0
 10 11  2  0
  4 12  1  0
  7 12  2  0
 11 12  1  0
  2 13  1  0
 13 14  2  0
 13 15  1  0
 15 16  1  0
 16 17  1  0
 17 18  1  1
 17 19  1  0
 19 20  1  6
 20 21  1  0
 21 22  2  0
 22 23  1  0
 23 24  2  0
 24 25  1  0
 21 26  1  0
 25 26  2  0
 19 27  1  0
 27 28  2  0
 28 29  1  0
 29 30  2  0
 30 31  1  0
 27 32  1  0
 31 32  2  0
M  END
