TAM-UNI-c140e31a-17
     RDKit          3D

 27 30  0  0  0  0  0  0  0  0999 V2000
    6.1290    5.1530   21.6710 N   0  0  0  0  0  0  0  0  0  0  0  0
    6.2970    6.8190   21.7280 S   0  0  0  0  0  0  0  0  0  0  0  0
    5.2020    7.3120   22.5300 O   0  0  0  0  0  0  0  0  0  0  0  0
    6.4700    7.2810   20.3750 O   0  0  0  0  0  0  0  0  0  0  0  0
    7.7580    7.0760   22.6540 C   0  0  0  0  0  0  0  0  0  0  0  0
    7.8140    8.3140   23.5180 C   0  0  0  0  0  0  0  0  0  0  0  0
    8.8720    8.5970   24.2630 C   0  0  0  0  0  0  0  0  0  0  0  0
   10.1340    7.7780   24.3640 C   0  0  0  0  0  0  0  0  0  0  0  0
   10.1090    6.4950   23.4760 C   0  0  0  0  0  0  0  0  0  0  0  0
    8.8530    6.2060   22.6340 C   0  0  0  0  0  0  0  0  0  0  0  0
   11.2910    5.5880   23.4700 N   0  0  0  0  0  0  0  0  0  0  0  0
   11.8620    5.2080   22.2310 C   0  0  0  0  0  0  0  0  0  0  0  0
   11.4670    6.3170   21.9480 O   0  0  0  0  0  0  0  0  0  0  0  0
   12.1670    3.9170   23.0620 C   0  0  0  0  0  0  0  0  0  0  0  0
   11.5180    2.6870   23.0680 C   0  0  0  0  0  0  0  0  0  0  0  0
   10.0200    2.7100   23.2340 C   0  0  0  0  0  0  0  0  0  0  0  0
    9.4970    1.3680   23.2340 N   0  0  0  0  0  0  0  0  0  0  0  0
   10.6880    0.4850   23.0580 C   0  0  0  0  0  0  0  0  0  0  0  0
   10.5630   -0.8510   23.0100 N   0  0  0  0  0  0  0  0  0  0  0  0
   11.8250   -1.5830   22.8380 C   0  0  0  0  0  0  0  0  0  0  0  0
   13.0130   -0.8670   22.7420 C   0  0  0  0  0  0  0  0  0  0  0  0
   13.0440    0.5300   22.8050 C   0  0  0  0  0  0  0  0  0  0  0  0
   11.8790    1.2660   22.9630 C   0  0  0  0  0  0  0  0  0  0  0  0
   12.0760    5.9210   24.5340 C   0  0  0  0  0  0  0  0  0  0  0  0
   11.4670    6.0640   25.7830 C   0  0  0  0  0  0  0  0  0  0  0  0
   11.5420    7.3350   26.2970 C   0  0  0  0  0  0  0  0  0  0  0  0
   11.2500    8.2550   25.2740 C   0  0  0  0  0  0  0  0  0  0  0  0
  2  1  1  0
  2  3  2  0
  2  4  2  0
  2  5  1  0
  5  6  2  0
  6  7  1  0
  7  8  2  0
  8  9  1  0
  5 10  1  0
  9 10  2  0
  9 11  1  0
 11 12  1  0
 12 13  2  0
 12 14  1  0
 14 15  1  0
 15 16  2  0
 16 17  1  0
 17 18  1  0
 18 19  1  0
 19 20  2  0
 20 21  1  0
 21 22  2  0
 15 23  1  0
 18 23  2  0
 22 23  1  0
 11 24  1  0
 24 25  1  0
 25 26  1  0
  8 27  1  0
 26 27  1  0
M  END
