TAM-UNI-c140e31a-15
     RDKit          3D

 23 24  0  0  0  0  0  0  0  0999 V2000
    8.8720    6.4530   22.7010 C   0  0  0  0  0  0  0  0  0  0  0  0
   10.0220    5.9980   23.4970 C   0  0  0  0  0  0  0  0  0  0  0  0
    9.9570    5.9310   24.7300 O   0  0  0  0  0  0  0  0  0  0  0  0
   11.1430    5.6590   22.7610 N   0  0  0  0  0  0  0  0  0  0  0  0
   12.2580    5.0020   23.4520 C   0  0  0  0  0  0  0  0  0  0  0  0
   12.5560    3.7530   22.9030 C   0  0  0  0  0  0  0  0  0  0  0  0
   11.6370    2.6940   22.9650 C   0  0  0  0  0  0  0  0  0  0  0  0
   10.1910    2.9280   23.2200 C   0  0  0  0  0  0  0  0  0  0  0  0
    9.5630    1.6410   23.1520 N   0  0  0  0  0  0  0  0  0  0  0  0
   10.4660    0.6680   22.8880 C   0  0  0  0  0  0  0  0  0  0  0  0
   10.0910   -0.7610   22.7160 C   0  0  0  0  0  0  0  0  0  0  0  0
    8.6700   -1.2510   22.7880 C   0  0  0  0  0  0  0  0  0  0  0  0
    7.9890   -1.1720   21.6330 C   0  0  0  0  0  0  0  0  0  0  0  0
    7.1680   -2.4110   21.5590 N   0  0  0  0  0  0  0  0  0  0  0  0
    5.5230   -2.3100   21.2000 S   0  0  0  0  0  0  0  0  0  0  0  0
    5.4820   -1.9520   19.4640 C   0  0  0  0  0  0  0  0  0  0  0  0
    4.9800   -3.6400   21.4410 O   0  0  0  0  0  0  0  0  0  0  0  0
    5.0730   -1.1580   21.9400 O   0  0  0  0  0  0  0  0  0  0  0  0
   11.1980   -1.5890   22.4700 C   0  0  0  0  0  0  0  0  0  0  0  0
   12.4990   -1.0520   22.4060 C   0  0  0  0  0  0  0  0  0  0  0  0
   13.4970   -1.8950   22.1680 F   0  0  0  0  0  0  0  0  0  0  0  0
   12.7920    0.3250   22.5650 C   0  0  0  0  0  0  0  0  0  0  0  0
   11.7620    1.2280   22.7980 C   0  0  0  0  0  0  0  0  0  0  0  0
  1  2  1  0
  2  3  2  0
  2  4  1  0
  4  5  1  0
  5  6  1  0
  6  7  1  0
  7  8  2  0
  8  9  1  0
  9 10  1  0
 10 11  1  0
 11 12  1  0
 12 13  1  0
 13 14  1  0
 15 14  1  0
 15 16  1  0
 15 17  2  0
 15 18  2  0
 11 19  2  0
 19 20  1  0
 20 21  1  0
 20 22  2  0
  7 23  1  0
 10 23  2  0
 22 23  1  0
M  END
