TAM-UNI-c140e31a-6
     RDKit          3D

 24 26  0  0  0  0  0  0  0  0999 V2000
   10.8700    6.1340   22.5370 N   0  0  0  0  0  0  0  0  0  0  0  0
    9.9150    5.1370   23.4910 S   0  0  0  0  0  0  0  0  0  0  0  0
   10.1150    5.5020   24.8800 O   0  0  0  0  0  0  0  0  0  0  0  0
    8.6020    5.1620   22.8970 O   0  0  0  0  0  0  0  0  0  0  0  0
   10.6840    3.5620   23.2240 C   0  0  0  0  0  0  0  0  0  0  0  0
   12.1510    3.5700   23.0530 C   0  0  0  0  0  0  0  0  0  0  0  0
   12.7860    2.3660   22.8790 C   0  0  0  0  0  0  0  0  0  0  0  0
   12.0340    1.0920   22.8620 C   0  0  0  0  0  0  0  0  0  0  0  0
   10.6550    1.0530   22.9940 C   0  0  0  0  0  0  0  0  0  0  0  0
    9.9380    2.3660   23.1850 C   0  0  0  0  0  0  0  0  0  0  0  0
    9.9890   -0.1760   22.9450 N   0  0  0  0  0  0  0  0  0  0  0  0
    9.2170   -0.6350   23.9130 C   0  0  0  0  0  0  0  0  0  0  0  0
    8.4210   -1.9290   23.8520 C   0  0  0  0  0  0  0  0  0  0  0  0
    7.1940   -1.9160   23.9360 O   0  0  0  0  0  0  0  0  0  0  0  0
    9.2570   -3.0140   23.7070 N   0  0  0  0  0  0  0  0  0  0  0  0
   10.5760   -2.7900   23.2120 C   0  0  0  0  0  0  0  0  0  0  0  0
   11.9210   -2.8290   23.9690 C   0  0  0  0  0  0  0  0  0  0  0  0
   13.1550   -2.5160   23.1850 C   0  0  0  0  0  0  0  0  0  0  0  0
   13.0630   -2.2060   21.8290 C   0  0  0  0  0  0  0  0  0  0  0  0
   11.8960   -2.1810   21.1450 N   0  0  0  0  0  0  0  0  0  0  0  0
   10.6560   -2.4750   21.8570 C   0  0  0  0  0  0  0  0  0  0  0  0
   10.6480   -1.0670   22.1940 C   0  0  0  0  0  0  0  0  0  0  0  0
   12.0150   -1.2330   22.4260 C   0  0  0  0  0  0  0  0  0  0  0  0
   12.8460   -0.1560   22.6980 C   0  0  0  0  0  0  0  0  0  0  0  0
  2  1  1  0
  2  3  2  0
  2  4  2  0
  2  5  1  0
  5  6  2  0
  6  7  1  0
  7  8  2  0
  8  9  1  0
  5 10  1  0
  9 10  2  0
  9 11  1  0
 11 12  1  0
 12 13  1  0
 13 14  2  0
 13 15  1  0
 15 16  1  0
 16 17  2  0
 17 18  1  0
 18 19  2  0
 19 20  1  0
 16 21  1  0
 20 21  2  0
 11 22  1  0
 22 23  1  0
  8 24  1  0
 23 24  1  0
M  END
