TAM-UNI-c140e31a-14
     RDKit          3D

 25 27  0  0  0  0  0  0  0  0999 V2000
    3.3460    4.7730   22.7670 N   0  0  0  0  0  0  0  0  0  0  0  0
    4.0300    3.4590   23.5690 S   0  0  0  0  0  0  0  0  0  0  0  0
    5.1810    3.9470   24.3090 O   0  0  0  0  0  0  0  0  0  0  0  0
    2.9370    2.7970   24.2500 O   0  0  0  0  0  0  0  0  0  0  0  0
    4.6140    2.4340   22.2360 C   0  0  0  0  0  0  0  0  0  0  0  0
    4.9360    3.0340   20.9350 C   0  0  0  0  0  0  0  0  0  0  0  0
    5.3940    2.2160   19.9360 C   0  0  0  0  0  0  0  0  0  0  0  0
    5.5520    0.7770   20.1860 C   0  0  0  0  0  0  0  0  0  0  0  0
    5.2660    0.1910   21.3750 C   0  0  0  0  0  0  0  0  0  0  0  0
    4.7670    1.0810   22.4530 C   0  0  0  0  0  0  0  0  0  0  0  0
    5.4650   -1.2860   21.5640 C   0  0  0  0  0  0  0  0  0  0  0  0
    6.9420   -1.5140   21.6150 C   0  0  0  0  0  0  0  0  0  0  0  0
    7.7460   -0.8000   20.5270 C   0  0  0  0  0  0  0  0  0  0  0  0
    7.0480   -0.7260   19.1560 C   0  0  0  0  0  0  0  0  0  0  0  0
    6.0330    0.1170   19.0310 N   0  0  0  0  0  0  0  0  0  0  0  0
    5.7240    0.6750   17.8720 C   0  0  0  0  0  0  0  0  0  0  0  0
    4.7080    1.6410   17.8980 C   0  0  0  0  0  0  0  0  0  0  0  0
    4.7600    2.6160   16.9630 O   0  0  0  0  0  0  0  0  0  0  0  0
    3.7320    1.5170   18.8820 N   0  0  0  0  0  0  0  0  0  0  0  0
    2.6850    2.3850   19.1400 C   0  0  0  0  0  0  0  0  0  0  0  0
    2.3780    3.5060   18.3750 C   0  0  0  0  0  0  0  0  0  0  0  0
    1.3010    4.3370   18.6790 C   0  0  0  0  0  0  0  0  0  0  0  0
    0.4580    4.1050   19.7650 C   0  0  0  0  0  0  0  0  0  0  0  0
    0.7990    2.9250   20.5540 N   0  0  0  0  0  0  0  0  0  0  0  0
    1.8310    2.1790   20.2160 C   0  0  0  0  0  0  0  0  0  0  0  0
  2  1  1  0
  2  3  2  0
  2  4  2  0
  2  5  1  0
  5  6  2  0
  6  7  1  0
  7  8  2  0
  8  9  1  0
  5 10  1  0
  9 10  2  0
  9 11  1  0
 11 12  1  0
 12 13  1  0
 13 14  1  0
  8 15  1  0
 14 15  1  0
 15 16  1  0
 16 17  1  0
 17 18  2  0
 17 19  1  0
 19 20  1  0
 20 21  2  0
 21 22  1  0
 22 23  2  0
 23 24  1  0
 20 25  1  0
 24 25  2  0
M  END
