TAM-UNI-c140e31a-1
     RDKit          3D

 25 27  0  0  0  0  0  0  0  0999 V2000
    1.0260    3.1630   18.8680 N   0  0  0  0  0  0  0  0  0  0  0  0
    2.0990    4.2340   18.9130 S   0  0  0  0  0  0  0  0  0  0  0  0
    2.4790    4.3190   17.5340 O   0  0  0  0  0  0  0  0  0  0  0  0
    1.9730    5.4560   19.6820 O   0  0  0  0  0  0  0  0  0  0  0  0
    3.2930    3.2270   19.7840 C   0  0  0  0  0  0  0  0  0  0  0  0
    3.2430    3.3070   21.1650 C   0  0  0  0  0  0  0  0  0  0  0  0
    4.1350    2.5550   21.8380 C   0  0  0  0  0  0  0  0  0  0  0  0
    5.1780    1.6550   21.6110 C   0  0  0  0  0  0  0  0  0  0  0  0
    5.2510    1.5380   20.1770 C   0  0  0  0  0  0  0  0  0  0  0  0
    4.2630    2.3650   19.2690 C   0  0  0  0  0  0  0  0  0  0  0  0
    4.9400    1.7490   18.7600 C   0  0  0  0  0  0  0  0  0  0  0  0
    5.7420    0.8650   18.1380 N   0  0  0  0  0  0  0  0  0  0  0  0
    5.2380   -0.4700   18.1540 C   0  0  0  0  0  0  0  0  0  0  0  0
    5.2590   -0.8320   19.5870 C   0  0  0  0  0  0  0  0  0  0  0  0
    4.1390   -0.4080   20.2390 O   0  0  0  0  0  0  0  0  0  0  0  0
    6.2850   -1.4730   20.2860 N   0  0  0  0  0  0  0  0  0  0  0  0
    6.1820   -2.4260   21.2260 C   0  0  0  0  0  0  0  0  0  0  0  0
    6.9060   -2.5570   22.4080 C   0  0  0  0  0  0  0  0  0  0  0  0
    6.6820   -3.6190   23.3010 C   0  0  0  0  0  0  0  0  0  0  0  0
    5.7180   -4.6170   23.0720 C   0  0  0  0  0  0  0  0  0  0  0  0
    4.9640   -4.5340   21.9060 N   0  0  0  0  0  0  0  0  0  0  0  0
    5.2670   -3.4100   21.0400 C   0  0  0  0  0  0  0  0  0  0  0  0
    7.0090    0.6500   18.7740 C   0  0  0  0  0  0  0  0  0  0  0  0
    6.9960    1.2920   20.0500 C   0  0  0  0  0  0  0  0  0  0  0  0
    6.2520    0.7200   21.1160 C   0  0  0  0  0  0  0  0  0  0  0  0
  2  1  1  0
  2  3  2  0
  2  4  2  0
  2  5  1  0
  5  6  2  0
  6  7  1  0
  7  8  2  0
  8  9  1  0
  5 10  1  0
  9 10  2  0
  9 11  1  0
 11 12  1  0
 12 13  1  0
 13 14  1  0
 14 15  2  0
 14 16  1  0
 16 17  1  0
 17 18  2  0
 18 19  1  0
 19 20  2  0
 20 21  1  0
 17 22  1  0
 21 22  2  0
 12 23  1  0
 23 24  1  0
  8 25  1  0
 24 25  1  0
M  END
