TAM-UNI-c140e31a-13
     RDKit          3D

 24 26  0  0  0  0  0  0  0  0999 V2000
   10.2540    5.4670   22.8470 N   0  0  0  0  0  0  0  0  0  0  0  0
    9.5800    4.0060   23.3770 S   0  0  0  0  0  0  0  0  0  0  0  0
    9.1830    4.2420   24.7440 O   0  0  0  0  0  0  0  0  0  0  0  0
    8.5960    3.7270   22.3640 O   0  0  0  0  0  0  0  0  0  0  0  0
   11.0220    2.9140   23.2030 C   0  0  0  0  0  0  0  0  0  0  0  0
   12.1760    3.7870   22.8420 C   0  0  0  0  0  0  0  0  0  0  0  0
   13.1090    2.9420   22.7440 C   0  0  0  0  0  0  0  0  0  0  0  0
   12.3460    1.7580   23.0550 C   0  0  0  0  0  0  0  0  0  0  0  0
   12.6100    0.5850   23.1400 C   0  0  0  0  0  0  0  0  0  0  0  0
   11.1790    1.3510   23.3610 C   0  0  0  0  0  0  0  0  0  0  0  0
   12.1150   -0.7890   23.4080 C   0  0  0  0  0  0  0  0  0  0  0  0
   10.6590   -0.6850   23.1700 C   0  0  0  0  0  0  0  0  0  0  0  0
   10.1630    0.4020   23.7820 N   0  0  0  0  0  0  0  0  0  0  0  0
    8.6650    0.4190   23.6910 C   0  0  0  0  0  0  0  0  0  0  0  0
    7.9970   -0.9340   24.0350 C   0  0  0  0  0  0  0  0  0  0  0  0
    7.8230   -1.2920   25.1950 O   0  0  0  0  0  0  0  0  0  0  0  0
    7.6170   -1.6640   22.8100 N   0  0  0  0  0  0  0  0  0  0  0  0
    6.9890   -2.9260   22.6570 C   0  0  0  0  0  0  0  0  0  0  0  0
    7.5410   -4.1550   23.0310 C   0  0  0  0  0  0  0  0  0  0  0  0
    6.8600   -5.3530   22.8380 C   0  0  0  0  0  0  0  0  0  0  0  0
    5.5920   -5.3600   22.2600 C   0  0  0  0  0  0  0  0  0  0  0  0
    4.9900   -4.1520   21.8710 N   0  0  0  0  0  0  0  0  0  0  0  0
    5.7060   -2.9970   22.0830 C   0  0  0  0  0  0  0  0  0  0  0  0
   10.8300    1.7490   23.3760 C   0  0  0  0  0  0  0  0  0  0  0  0
  2  1  1  0
  2  3  2  0
  2  4  2  0
  2  5  1  0
  5  6  2  0
  6  7  1  0
  7  8  2  0
  8  9  1  0
  5 10  1  0
  9 10  2  0
  9 11  1  0
 11 12  1  0
 12 13  1  0
 13 14  1  0
 14 15  1  0
 15 16  2  0
 15 17  1  0
 17 18  1  0
 18 19  2  0
 19 20  1  0
 20 21  2  0
 21 22  1  0
 18 23  1  0
 22 23  2  0
  8 24  1  0
 13 24  1  0
M  END
