TAM-UNI-c140e31a-12
     RDKit          3D

 24 26  0  0  0  0  0  0  0  0999 V2000
   12.4870    5.7570   24.2250 N   0  0  0  0  0  0  0  0  0  0  0  0
   12.3520    5.2770   22.6320 S   0  0  0  0  0  0  0  0  0  0  0  0
   13.6450    5.3560   22.0040 O   0  0  0  0  0  0  0  0  0  0  0  0
   11.2620    6.0840   22.1450 O   0  0  0  0  0  0  0  0  0  0  0  0
   11.8920    3.5880   22.7700 C   0  0  0  0  0  0  0  0  0  0  0  0
   10.4220    3.2640   22.9030 C   0  0  0  0  0  0  0  0  0  0  0  0
    9.9910    2.0110   23.0030 C   0  0  0  0  0  0  0  0  0  0  0  0
   10.8690    0.7800   23.0000 C   0  0  0  0  0  0  0  0  0  0  0  0
   12.3410    1.0570   22.8770 C   0  0  0  0  0  0  0  0  0  0  0  0
   12.7990    2.5260   22.7610 C   0  0  0  0  0  0  0  0  0  0  0  0
   13.2590   -0.1180   22.8670 C   0  0  0  0  0  0  0  0  0  0  0  0
   12.5180   -1.3390   22.2060 C   0  0  0  0  0  0  0  0  0  0  0  0
   11.1480   -1.5920   22.3090 C   0  0  0  0  0  0  0  0  0  0  0  0
   10.3870   -0.6010   23.1000 N   0  0  0  0  0  0  0  0  0  0  0  0
    8.9850   -0.9390   23.3000 C   0  0  0  0  0  0  0  0  0  0  0  0
    8.1710   -0.2050   22.4750 C   0  0  0  0  0  0  0  0  0  0  0  0
    8.8540    0.5010   21.7410 O   0  0  0  0  0  0  0  0  0  0  0  0
    6.8270   -0.2800   22.4550 N   0  0  0  0  0  0  0  0  0  0  0  0
    6.2080   -1.1750   21.5020 C   0  0  0  0  0  0  0  0  0  0  0  0
    6.2460   -0.7290   20.1800 C   0  0  0  0  0  0  0  0  0  0  0  0
    5.6840   -1.5480   19.2340 C   0  0  0  0  0  0  0  0  0  0  0  0
    5.1170   -2.7460   19.5760 C   0  0  0  0  0  0  0  0  0  0  0  0
    5.0170   -3.2770   20.8110 N   0  0  0  0  0  0  0  0  0  0  0  0
    5.6120   -2.4090   21.8230 C   0  0  0  0  0  0  0  0  0  0  0  0
  2  1  1  0
  2  3  2  0
  2  4  2  0
  2  5  1  0
  5  6  2  0
  6  7  1  0
  7  8  2  0
  8  9  1  0
  5 10  1  0
  9 10  2  0
  9 11  1  0
 11 12  1  0
 12 13  1  0
  8 14  1  0
 13 14  1  0
 14 15  1  0
 15 16  1  0
 16 17  2  0
 16 18  1  0
 18 19  1  0
 19 20  2  0
 20 21  1  0
 21 22  2  0
 22 23  1  0
 19 24  1  0
 23 24  2  0
M  END
