TAM-UNI-c140e31a-22
     RDKit          3D

 33 36  0  0  0  0  0  0  0  0999 V2000
    8.9170    6.4320   22.7100 C   0  0  0  0  0  0  0  0  0  0  0  0
   10.1070    6.0430   23.4850 C   0  0  0  0  0  0  0  0  0  0  0  0
   10.0750    6.0180   24.7180 O   0  0  0  0  0  0  0  0  0  0  0  0
   11.2190    5.7100   22.7270 N   0  0  0  0  0  0  0  0  0  0  0  0
   12.3650    5.0670   23.3940 C   0  0  0  0  0  0  0  0  0  0  0  0
   12.6120    3.7890   22.8900 C   0  0  0  0  0  0  0  0  0  0  0  0
   11.6600    2.7650   23.0120 C   0  0  0  0  0  0  0  0  0  0  0  0
   10.2350    3.0550   23.2710 C   0  0  0  0  0  0  0  0  0  0  0  0
    9.6440    1.7410   23.2470 N   0  0  0  0  0  0  0  0  0  0  0  0
   10.5880    0.7740   23.0090 C   0  0  0  0  0  0  0  0  0  0  0  0
   10.2550   -0.6720   22.8840 C   0  0  0  0  0  0  0  0  0  0  0  0
    8.8990   -1.2390   22.9290 C   0  0  2  0  0  0  0  0  0  0  0  0
    8.6560   -2.6170   22.9360 N   0  0  0  0  0  0  0  0  0  0  0  0
    7.6980   -3.4030   23.5080 C   0  0  0  0  0  0  0  0  0  0  0  0
    7.3550   -4.6830   23.0680 C   0  0  0  0  0  0  0  0  0  0  0  0
    6.3740   -5.4260   23.7060 C   0  0  0  0  0  0  0  0  0  0  0  0
    5.6280   -5.0360   24.8080 C   0  0  0  0  0  0  0  0  0  0  0  0
    5.8790   -3.7770   25.3310 N   0  0  0  0  0  0  0  0  0  0  0  0
    6.9360   -3.0200   24.6200 C   0  0  0  0  0  0  0  0  0  0  0  0
    8.2980   -0.4550   21.9030 C   0  0  0  0  0  0  0  0  0  0  0  0
    8.7410    0.6620   21.6850 O   0  0  0  0  0  0  0  0  0  0  0  0
    7.2560   -0.9710   21.1730 N   0  0  0  0  0  0  0  0  0  0  0  0
    6.4930   -0.2310   20.2360 C   0  0  0  0  0  0  0  0  0  0  0  0
    5.2730    0.2790   20.6420 C   0  0  0  0  0  0  0  0  0  0  0  0
    4.3900    1.0810   19.7290 C   0  0  0  0  0  0  0  0  0  0  0  0
    4.8140    1.3170   18.4460 N   0  0  0  0  0  0  0  0  0  0  0  0
    6.0280    0.8070   18.0490 C   0  0  0  0  0  0  0  0  0  0  0  0
    6.8360    0.0520   18.9240 C   0  0  0  0  0  0  0  0  0  0  0  0
   11.4480   -1.6300   22.6460 C   0  0  0  0  0  0  0  0  0  0  0  0
   12.7040   -1.0310   22.5620 C   0  0  0  0  0  0  0  0  0  0  0  0
   13.7260   -1.8250   22.3550 F   0  0  0  0  0  0  0  0  0  0  0  0
   12.8860    0.3650   22.6740 C   0  0  0  0  0  0  0  0  0  0  0  0
   11.8650    1.3500   22.8880 C   0  0  0  0  0  0  0  0  0  0  0  0
  1  2  1  0
  2  3  2  0
  2  4  1  0
  4  5  1  0
  5  6  1  0
  6  7  1  0
  7  8  2  0
  8  9  1  0
  9 10  1  0
 10 11  1  0
 11 12  1  0
 12 13  1  6
 13 14  1  0
 14 15  2  0
 15 16  1  0
 16 17  2  0
 17 18  1  0
 14 19  1  0
 18 19  2  0
 12 20  1  0
 20 21  2  0
 20 22  1  0
 22 23  1  0
 23 24  2  0
 24 25  1  0
 25 26  2  0
 26 27  1  0
 23 28  1  0
 27 28  2  0
 11 29  2  0
 29 30  1  0
 30 31  1  0
 30 32  2  0
  7 33  1  0
 10 33  2  0
 32 33  1  0
M  END
