TAM-UNI-c140e31a-11
     RDKit          3D

 25 27  0  0  0  0  0  0  0  0999 V2000
    3.6000    1.0460   25.3060 N   0  0  0  0  0  0  0  0  0  0  0  0
    4.5750   -0.0470   24.4800 S   0  0  0  0  0  0  0  0  0  0  0  0
    3.8040   -1.2690   24.3720 O   0  0  0  0  0  0  0  0  0  0  0  0
    5.8510   -0.0040   25.1520 O   0  0  0  0  0  0  0  0  0  0  0  0
    4.7290    0.7090   22.8800 C   0  0  0  0  0  0  0  0  0  0  0  0
    3.8620    1.9380   22.5350 C   0  0  0  0  0  0  0  0  0  0  0  0
    3.9320    2.5930   21.2840 C   0  0  0  0  0  0  0  0  0  0  0  0
    4.7910    2.2070   20.2640 C   0  0  0  0  0  0  0  0  0  0  0  0
    5.0910    1.2500   21.2520 C   0  0  0  0  0  0  0  0  0  0  0  0
    5.6250    0.1810   21.9500 C   0  0  0  0  0  0  0  0  0  0  0  0
    6.0320    0.6540   20.2420 C   0  0  0  0  0  0  0  0  0  0  0  0
    5.3080   -0.4050   19.4970 N   0  0  0  0  0  0  0  0  0  0  0  0
    5.7020   -1.6930   19.8810 C   0  0  0  0  0  0  0  0  0  0  0  0
    6.9010   -1.7720   20.5380 C   0  0  0  0  0  0  0  0  0  0  0  0
    7.0440   -2.2650   21.6590 O   0  0  0  0  0  0  0  0  0  0  0  0
    7.8420   -1.2180   19.7220 N   0  0  0  0  0  0  0  0  0  0  0  0
    7.6530   -1.1310   18.3360 C   0  0  0  0  0  0  0  0  0  0  0  0
    7.5580   -2.2340   17.5570 C   0  0  0  0  0  0  0  0  0  0  0  0
    7.3760   -2.1680   16.0800 C   0  0  0  0  0  0  0  0  0  0  0  0
    7.3390   -0.7570   15.5900 C   0  0  0  0  0  0  0  0  0  0  0  0
    7.4150    0.3800   16.2680 N   0  0  0  0  0  0  0  0  0  0  0  0
    7.5550    0.1910   17.5740 C   0  0  0  0  0  0  0  0  0  0  0  0
    5.1630   -0.0680   18.0950 C   0  0  0  0  0  0  0  0  0  0  0  0
    5.4650    1.2380   18.1470 C   0  0  0  0  0  0  0  0  0  0  0  0
    5.8240    1.5040   19.4490 C   0  0  0  0  0  0  0  0  0  0  0  0
  2  1  1  0
  2  3  2  0
  2  4  2  0
  2  5  1  0
  5  6  2  0
  6  7  1  0
  7  8  2  0
  8  9  1  0
  5 10  1  0
  9 10  2  0
  9 11  1  0
 11 12  1  0
 12 13  1  0
 13 14  1  0
 14 15  2  0
 14 16  1  0
 16 17  1  0
 17 18  2  0
 18 19  1  0
 19 20  2  0
 20 21  1  0
 17 22  1  0
 21 22  2  0
 12 23  1  0
 23 24  1  0
  8 25  1  0
 24 25  1  0
M  END
