TAM-UNI-c140e31a-4
     RDKit          3D

 26 29  0  0  0  0  0  0  0  0999 V2000
    6.3230    9.0230   22.4970 N   0  0  0  0  0  0  0  0  0  0  0  0
    6.5900    7.4580   21.9540 S   0  0  0  0  0  0  0  0  0  0  0  0
    7.2200    7.5700   20.6720 O   0  0  0  0  0  0  0  0  0  0  0  0
    5.3360    6.7690   22.1530 O   0  0  0  0  0  0  0  0  0  0  0  0
    7.7640    6.8490   23.1230 C   0  0  0  0  0  0  0  0  0  0  0  0
    7.3570    6.8110   24.5880 C   0  0  0  0  0  0  0  0  0  0  0  0
    8.2820    6.3360   25.4910 C   0  0  0  0  0  0  0  0  0  0  0  0
    9.5300    5.9100   25.0360 C   0  0  0  0  0  0  0  0  0  0  0  0
    9.9360    5.9210   23.7040 C   0  0  0  0  0  0  0  0  0  0  0  0
    9.0410    6.4050   22.7380 C   0  0  0  0  0  0  0  0  0  0  0  0
   11.2440    5.4300   23.5040 N   0  0  0  0  0  0  0  0  0  0  0  0
   11.9260    5.0110   22.2430 C   0  0  0  0  0  0  0  0  0  0  0  0
   11.7000    6.3980   22.1230 O   0  0  0  0  0  0  0  0  0  0  0  0
   11.8570    3.7990   22.9340 C   0  0  0  0  0  0  0  0  0  0  0  0
   11.1970    2.5710   23.0310 C   0  0  0  0  0  0  0  0  0  0  0  0
    9.8340    2.5650   23.2130 C   0  0  0  0  0  0  0  0  0  0  0  0
    9.4730    1.2530   23.2660 N   0  0  0  0  0  0  0  0  0  0  0  0
   10.5720    0.4210   23.1200 C   0  0  0  0  0  0  0  0  0  0  0  0
   10.5200   -0.9530   23.1280 N   0  0  0  0  0  0  0  0  0  0  0  0
   11.7540   -1.4690   22.9660 C   0  0  0  0  0  0  0  0  0  0  0  0
   13.0520   -0.6870   22.8010 C   0  0  0  0  0  0  0  0  0  0  0  0
   12.9630    0.7060   22.8150 C   0  0  0  0  0  0  0  0  0  0  0  0
   11.6890    1.2370   22.9740 C   0  0  0  0  0  0  0  0  0  0  0  0
   12.2280    5.9800   24.4390 C   0  0  0  0  0  0  0  0  0  0  0  0
   11.7300    6.2890   25.6970 C   0  0  0  0  0  0  0  0  0  0  0  0
   10.5270    5.4130   25.9900 C   0  0  0  0  0  0  0  0  0  0  0  0
  2  1  1  0
  2  3  2  0
  2  4  2  0
  2  5  1  0
  5  6  2  0
  6  7  1  0
  7  8  2  0
  8  9  1  0
  5 10  1  0
  9 10  2  0
  9 11  1  0
 11 12  1  0
 12 13  2  0
 12 14  1  0
 14 15  1  0
 15 16  2  0
 16 17  1  0
 17 18  1  0
 18 19  1  0
 19 20  2  0
 20 21  1  0
 21 22  2  0
 15 23  1  0
 18 23  2  0
 22 23  1  0
 11 24  1  0
 24 25  1  0
  8 26  1  0
 25 26  1  0
M  END
