TAM-UNI-c140e31a-18
     RDKit          3D

 27 30  0  0  0  0  0  0  0  0999 V2000
    8.7790   10.4090   26.9330 N   0  0  0  0  0  0  0  0  0  0  0  0
   10.3770    9.9580   27.2300 S   0  0  0  0  0  0  0  0  0  0  0  0
   10.3890    9.5290   28.6070 O   0  0  0  0  0  0  0  0  0  0  0  0
   11.1720   11.0820   26.7790 O   0  0  0  0  0  0  0  0  0  0  0  0
   10.5930    8.5590   26.1150 C   0  0  0  0  0  0  0  0  0  0  0  0
   11.6450    7.5860   26.5080 C   0  0  0  0  0  0  0  0  0  0  0  0
   11.8230    6.4550   25.6130 C   0  0  0  0  0  0  0  0  0  0  0  0
   11.0500    6.2930   24.4470 C   0  0  0  0  0  0  0  0  0  0  0  0
   10.0590    7.2760   24.1400 C   0  0  0  0  0  0  0  0  0  0  0  0
    9.8440    8.3740   24.9610 C   0  0  0  0  0  0  0  0  0  0  0  0
    9.1460    7.2430   22.9130 C   0  0  0  0  0  0  0  0  0  0  0  0
    8.1070    6.1310   22.9370 C   0  0  0  0  0  0  0  0  0  0  0  0
    8.8390    4.8730   23.4090 C   0  0  0  0  0  0  0  0  0  0  0  0
   10.2250    4.9340   22.8530 C   0  0  0  0  0  0  0  0  0  0  0  0
   11.2820    5.1930   23.6390 N   0  0  0  0  0  0  0  0  0  0  0  0
   12.6150    4.6190   23.2690 C   0  0  0  0  0  0  0  0  0  0  0  0
   12.9620    5.5590   23.9100 O   0  0  0  0  0  0  0  0  0  0  0  0
   11.8110    3.6800   22.6200 C   0  0  0  0  0  0  0  0  0  0  0  0
   11.3730    2.3400   23.2420 C   0  0  0  0  0  0  0  0  0  0  0  0
   10.0730    2.3600   23.9990 C   0  0  0  0  0  0  0  0  0  0  0  0
    9.8100    1.1270   24.4600 N   0  0  0  0  0  0  0  0  0  0  0  0
   10.8510    0.1890   24.0830 C   0  0  0  0  0  0  0  0  0  0  0  0
   10.8380   -1.1240   24.4050 N   0  0  0  0  0  0  0  0  0  0  0  0
   11.9200   -1.7650   23.9290 C   0  0  0  0  0  0  0  0  0  0  0  0
   13.0740   -1.1970   23.1330 C   0  0  0  0  0  0  0  0  0  0  0  0
   13.0930    0.1840   22.7970 C   0  0  0  0  0  0  0  0  0  0  0  0
   11.8760    0.9710   23.3000 C   0  0  0  0  0  0  0  0  0  0  0  0
  2  1  1  0
  2  3  2  0
  2  4  2  0
  2  5  1  0
  5  6  2  0
  6  7  1  0
  7  8  2  0
  8  9  1  0
  5 10  1  0
  9 10  2  0
  9 11  1  0
 11 12  1  0
 12 13  1  0
 13 14  1  0
  8 15  1  0
 14 15  1  0
 15 16  1  0
 16 17  2  0
 16 18  1  0
 18 19  1  0
 19 20  2  0
 20 21  1  0
 21 22  1  0
 22 23  1  0
 23 24  2  0
 24 25  1  0
 25 26  2  0
 19 27  1  0
 22 27  2  0
 26 27  1  0
M  END
