TAM-UNI-c140e31a-8
     RDKit          3D

 27 30  0  0  0  0  0  0  0  0999 V2000
    8.6250    6.3970   30.0980 N   0  0  0  0  0  0  0  0  0  0  0  0
    8.9310    4.8230   29.5770 S   0  0  0  0  0  0  0  0  0  0  0  0
    7.8490    4.0450   30.1300 O   0  0  0  0  0  0  0  0  0  0  0  0
   10.3090    4.5890   29.9560 O   0  0  0  0  0  0  0  0  0  0  0  0
    8.7790    4.9820   27.7910 C   0  0  0  0  0  0  0  0  0  0  0  0
    7.3960    4.8280   27.2450 C   0  0  0  0  0  0  0  0  0  0  0  0
    7.2660    4.9570   25.7970 C   0  0  0  0  0  0  0  0  0  0  0  0
    8.4130    5.2040   25.0210 C   0  0  0  0  0  0  0  0  0  0  0  0
    9.6920    5.3310   25.5910 C   0  0  0  0  0  0  0  0  0  0  0  0
    9.8660    5.2280   26.9580 C   0  0  0  0  0  0  0  0  0  0  0  0
   10.9590    5.5940   24.7760 C   0  0  0  0  0  0  0  0  0  0  0  0
   11.3250    4.7520   23.7460 N   0  0  0  0  0  0  0  0  0  0  0  0
   12.6510    4.8490   23.5240 C   0  0  0  0  0  0  0  0  0  0  0  0
   12.4130    5.9980   24.3370 O   0  0  0  0  0  0  0  0  0  0  0  0
   12.4820    3.5310   22.6810 C   0  0  0  0  0  0  0  0  0  0  0  0
   11.2370    2.7560   23.0050 C   0  0  0  0  0  0  0  0  0  0  0  0
    9.8560    2.4050   23.3200 C   0  0  0  0  0  0  0  0  0  0  0  0
    9.4740    1.1390   23.5070 N   0  0  0  0  0  0  0  0  0  0  0  0
   10.5260    0.3240   23.3600 C   0  0  0  0  0  0  0  0  0  0  0  0
   10.3930   -1.0280   23.5150 N   0  0  0  0  0  0  0  0  0  0  0  0
   11.6430   -1.5260   23.2900 C   0  0  0  0  0  0  0  0  0  0  0  0
   13.0290   -1.1040   22.9590 C   0  0  0  0  0  0  0  0  0  0  0  0
   13.1230    0.4370   22.8130 C   0  0  0  0  0  0  0  0  0  0  0  0
   11.7760    1.2170   23.0220 C   0  0  0  0  0  0  0  0  0  0  0  0
   10.4280    4.8310   22.6200 C   0  0  0  0  0  0  0  0  0  0  0  0
    9.1400    4.2900   22.8930 C   0  0  0  0  0  0  0  0  0  0  0  0
    8.2520    5.3340   23.5370 C   0  0  0  0  0  0  0  0  0  0  0  0
  2  1  1  0
  2  3  2  0
  2  4  2  0
  2  5  1  0
  5  6  2  0
  6  7  1  0
  7  8  2  0
  8  9  1  0
  5 10  1  0
  9 10  2  0
  9 11  1  0
 11 12  1  0
 12 13  1  0
 13 14  2  0
 13 15  1  0
 15 16  1  0
 16 17  2  0
 17 18  1  0
 18 19  1  0
 19 20  1  0
 20 21  2  0
 21 22  1  0
 22 23  2  0
 16 24  1  0
 19 24  2  0
 23 24  1  0
 12 25  1  0
 25 26  1  0
  8 27  1  0
 26 27  1  0
M  END
