TAM-UNI-c140e31a-9
     RDKit          3D

 29 32  0  0  0  0  0  0  0  0999 V2000
    8.5500   -3.7640   22.4490 N   0  0  0  0  0  0  0  0  0  0  0  0
    9.2040   -2.3340   23.0200 S   0  0  0  0  0  0  0  0  0  0  0  0
    8.3470   -1.3250   22.4510 O   0  0  0  0  0  0  0  0  0  0  0  0
    9.3150   -2.5680   24.4420 O   0  0  0  0  0  0  0  0  0  0  0  0
   10.8440   -2.3270   22.2990 C   0  0  0  0  0  0  0  0  0  0  0  0
   12.1990   -2.0730   21.8560 C   0  0  0  0  0  0  0  0  0  0  0  0
   13.0740   -1.1480   22.0390 C   0  0  0  0  0  0  0  0  0  0  0  0
   12.8870    0.0940   22.8800 C   0  0  0  0  0  0  0  0  0  0  0  0
   11.5630    0.0960   23.4550 C   0  0  0  0  0  0  0  0  0  0  0  0
   10.7970   -1.1020   23.0710 C   0  0  0  0  0  0  0  0  0  0  0  0
   10.1940    0.0970   24.0500 C   0  0  0  0  0  0  0  0  0  0  0  0
    9.6980    1.3400   23.8410 N   0  0  0  0  0  0  0  0  0  0  0  0
    9.1710    1.9570   24.8990 C   0  0  0  0  0  0  0  0  0  0  0  0
    7.7170    1.5730   25.1770 C   0  0  0  0  0  0  0  0  0  0  0  0
    6.8720    2.4680   25.2280 O   0  0  0  0  0  0  0  0  0  0  0  0
    7.4010    0.2670   25.3460 N   0  0  0  0  0  0  0  0  0  0  0  0
    6.0950   -0.0460   25.4220 C   0  0  0  0  0  0  0  0  0  0  0  0
    5.6030   -0.3910   26.7160 C   0  0  0  0  0  0  0  0  0  0  0  0
    4.1750   -0.5620   27.0780 C   0  0  0  0  0  0  0  0  0  0  0  0
    4.0730   -0.8890   28.4060 N   0  0  0  0  0  0  0  0  0  0  0  0
    5.4460   -0.9350   28.9390 C   0  0  0  0  0  0  0  0  0  0  0  0
    5.7590   -1.2150   30.2210 N   0  0  0  0  0  0  0  0  0  0  0  0
    7.0990   -1.1890   30.4440 C   0  0  0  0  0  0  0  0  0  0  0  0
    8.0980   -0.9210   29.5340 C   0  0  0  0  0  0  0  0  0  0  0  0
    7.7070   -0.6400   28.2340 C   0  0  0  0  0  0  0  0  0  0  0  0
    6.3530   -0.6380   27.9080 C   0  0  0  0  0  0  0  0  0  0  0  0
   10.5260    2.2170   22.9510 C   0  0  0  0  0  0  0  0  0  0  0  0
   11.8630    2.3990   23.1350 C   0  0  0  0  0  0  0  0  0  0  0  0
   12.4660    1.2420   23.7700 C   0  0  0  0  0  0  0  0  0  0  0  0
  2  1  1  0
  2  3  2  0
  2  4  2  0
  2  5  1  0
  5  6  2  0
  6  7  1  0
  7  8  2  0
  8  9  1  0
  5 10  1  0
  9 10  2  0
  9 11  1  0
 11 12  1  0
 12 13  1  0
 13 14  1  0
 14 15  2  0
 14 16  1  0
 16 17  1  0
 17 18  1  0
 18 19  2  0
 19 20  1  0
 20 21  1  0
 21 22  1  0
 22 23  2  0
 23 24  1  0
 24 25  2  0
 18 26  1  0
 21 26  2  0
 25 26  1  0
 12 27  1  0
 27 28  1  0
  8 29  1  0
 28 29  1  0
M  END
