TAM-UNI-c140e31a-7
     RDKit          3D

 24 26  0  0  0  0  0  0  0  0999 V2000
   11.0620    6.0010   22.5110 N   0  0  0  0  0  0  0  0  0  0  0  0
   10.1480    5.0870   23.5730 S   0  0  0  0  0  0  0  0  0  0  0  0
   10.3910    5.6560   24.8810 O   0  0  0  0  0  0  0  0  0  0  0  0
    8.8230    5.0470   23.0050 O   0  0  0  0  0  0  0  0  0  0  0  0
   10.9210    3.4850   23.4490 C   0  0  0  0  0  0  0  0  0  0  0  0
   12.3530    3.3700   22.9620 C   0  0  0  0  0  0  0  0  0  0  0  0
   12.9010    2.0980   22.8990 C   0  0  0  0  0  0  0  0  0  0  0  0
   12.1840    0.9650   23.2530 C   0  0  0  0  0  0  0  0  0  0  0  0
   10.8680    1.0570   23.6970 C   0  0  0  0  0  0  0  0  0  0  0  0
   10.2360    2.3070   23.7970 C   0  0  0  0  0  0  0  0  0  0  0  0
   10.1130   -0.2010   24.0730 C   0  0  0  0  0  0  0  0  0  0  0  0
   10.8100   -1.4670   23.7840 N   0  0  0  0  0  0  0  0  0  0  0  0
    9.9330   -2.5380   23.4610 C   0  0  0  0  0  0  0  0  0  0  0  0
    8.5540   -2.4620   23.6610 C   0  0  0  0  0  0  0  0  0  0  0  0
    8.0550   -1.7150   24.4960 O   0  0  0  0  0  0  0  0  0  0  0  0
    7.8540   -3.3060   22.8090 N   0  0  0  0  0  0  0  0  0  0  0  0
    6.5160   -3.7270   22.9600 C   0  0  0  0  0  0  0  0  0  0  0  0
    5.5000   -2.9870   23.5670 C   0  0  0  0  0  0  0  0  0  0  0  0
    4.0670   -3.5440   23.6780 C   0  0  0  0  0  0  0  0  0  0  0  0
    3.9370   -4.9400   23.0610 C   0  0  0  0  0  0  0  0  0  0  0  0
    4.8830   -5.6810   22.4680 N   0  0  0  0  0  0  0  0  0  0  0  0
    6.0940   -5.1090   22.4230 C   0  0  0  0  0  0  0  0  0  0  0  0
   11.9630   -1.4010   22.8700 C   0  0  0  0  0  0  0  0  0  0  0  0
   12.8600   -0.3740   23.1500 C   0  0  0  0  0  0  0  0  0  0  0  0
  2  1  1  0
  2  3  2  0
  2  4  2  0
  2  5  1  0
  5  6  2  0
  6  7  1  0
  7  8  2  0
  8  9  1  0
  5 10  1  0
  9 10  2  0
  9 11  1  0
 11 12  1  0
 12 13  1  0
 13 14  1  0
 14 15  2  0
 14 16  1  0
 16 17  1  0
 17 18  2  0
 18 19  1  0
 19 20  2  0
 20 21  1  0
 17 22  1  0
 21 22  2  0
 12 23  1  0
  8 24  1  0
 23 24  1  0
M  END
