TAM-UNI-c140e31a-19
     RDKit          3D

 19 21  0  0  0  0  0  0  0  0999 V2000
    8.4740    0.6070   21.4410 O   0  0  0  0  0  0  0  0  0  0  0  0
    8.1460   -0.5570   21.6760 C   0  0  0  0  0  0  0  0  0  0  0  0
    6.9400   -1.1980   21.2090 N   0  0  0  0  0  0  0  0  0  0  0  0
    6.3510   -0.3630   20.1530 C   0  0  0  0  0  0  0  0  0  0  0  0
    5.2270    0.3350   20.4720 C   0  0  0  0  0  0  0  0  0  0  0  0
    4.6320    1.2040   19.3460 C   0  0  0  0  0  0  0  0  0  0  0  0
    5.2500    1.2520   18.0550 C   0  0  0  0  0  0  0  0  0  0  0  0
    6.3680    0.5110   17.8630 N   0  0  0  0  0  0  0  0  0  0  0  0
    6.9380   -0.2960   18.8670 C   0  0  0  0  0  0  0  0  0  0  0  0
    8.9520   -1.4780   22.4740 N   0  0  0  0  0  0  0  0  0  0  0  0
   10.1970   -0.7940   22.6670 C   0  0  0  0  0  0  0  0  0  0  0  0
   11.5770   -1.2900   22.5080 C   0  0  0  0  0  0  0  0  0  0  0  0
   12.0450    0.0650   22.8550 N   0  0  0  0  0  0  0  0  0  0  0  0
   11.3380    1.3180   23.2050 C   0  0  0  0  0  0  0  0  0  0  0  0
   10.4260    2.2980   23.4930 N   0  0  0  0  0  0  0  0  0  0  0  0
   11.5440    2.8630   23.5420 C   0  0  0  0  0  0  0  0  0  0  0  0
   12.4670    1.8120   23.2230 C   0  0  0  0  0  0  0  0  0  0  0  0
   11.8610    0.4090   22.9240 C   0  0  0  0  0  0  0  0  0  0  0  0
   10.3670    0.4270   22.9960 C   0  0  0  0  0  0  0  0  0  0  0  0
  1  2  2  0
  2  3  1  0
  3  4  1  0
  4  5  2  0
  5  6  1  0
  6  7  2  0
  7  8  1  0
  4  9  1  0
  8  9  2  0
  2 10  1  0
 10 11  1  0
 11 12  2  0
 12 13  1  0
 13 14  1  0
 14 15  1  0
 15 16  2  0
 16 17  1  0
 17 18  2  0
 11 19  1  0
 14 19  2  0
 18 19  1  0
M  END
