TOB-UNK-c2aba166-4
     RDKit          3D

 20 21  0  0  0  0  0  0  0  0999 V2000
    6.0010    0.0190   18.4390 C   0  0  0  0  0  0  0  0  0  0  0  0
    6.3890   -1.4740   18.4620 C   0  0  0  0  0  0  0  0  0  0  0  0
    5.6410   -2.1760   19.4110 C   0  0  0  0  0  0  0  0  0  0  0  0
    6.1620   -2.0200   20.6810 N   0  0  0  0  0  0  0  0  0  0  0  0
    5.9820   -2.9960   21.7610 C   0  0  0  0  0  0  0  0  0  0  0  0
    6.7490   -2.6170   22.8250 C   0  0  0  0  0  0  0  0  0  0  0  0
    8.0530   -2.5730   22.6240 N   0  0  0  0  0  0  0  0  0  0  0  0
    8.8750   -2.5740   24.0570 S   0  0  0  0  0  0  0  0  0  0  0  0
    7.8510   -2.2170   25.0190 O   0  0  0  0  0  0  0  0  0  0  0  0
    9.6070   -3.7960   24.1090 O   0  0  0  0  0  0  0  0  0  0  0  0
   10.0540   -1.3080   23.8890 C   0  0  0  0  0  0  0  0  0  0  0  0
    9.9450   -0.1910   23.0870 C   0  0  0  0  0  0  0  0  0  0  0  0
   10.9860    0.6480   23.0220 C   0  0  0  0  0  0  0  0  0  0  0  0
   12.3250    1.0410   22.8630 C   0  0  0  0  0  0  0  0  0  0  0  0
   13.4640    0.3080   22.5960 C   0  0  0  0  0  0  0  0  0  0  0  0
   13.4860   -1.0370   22.4230 C   0  0  0  0  0  0  0  0  0  0  0  0
   12.2290   -1.6420   22.5400 C   0  0  0  0  0  0  0  0  0  0  0  0
   11.1240   -0.7240   22.8280 C   0  0  0  0  0  0  0  0  0  0  0  0
    8.4610   -1.6760   21.6310 C   0  0  0  0  0  0  0  0  0  0  0  0
    7.3790   -1.1540   20.7330 C   0  0  0  0  0  0  0  0  0  0  0  0
  1  2  3  0
  2  3  1  0
  3  4  1  0
  4  5  1  0
  5  6  1  0
  6  7  1  0
  7  8  1  0
  8  9  2  0
  8 10  2  0
  8 11  1  0
 11 12  2  3
 12 13  1  0
 13 14  2  0
 14 15  1  0
 15 16  2  0
 16 17  1  0
 13 18  1  0
 17 18  2  0
  7 19  1  0
  4 20  1  0
 19 20  1  0
M  END
