TOM-OIS-cbf37265-2
     RDKit          3D

 20 21  0  0  0  0  0  0  0  0999 V2000
    7.9560   -4.3360   26.1560 C   0  0  0  0  0  0  0  0  0  0  0  0
    7.5970   -3.4430   25.0390 N   0  0  0  0  0  0  0  0  0  0  0  0
    8.7300   -3.1510   23.8170 S   0  0  0  0  0  0  0  0  0  0  0  0
    9.8520   -3.9280   24.2300 O   0  0  0  0  0  0  0  0  0  0  0  0
    7.9990   -3.4530   22.6090 O   0  0  0  0  0  0  0  0  0  0  0  0
    8.9570   -1.3590   23.9700 C   0  0  0  0  0  0  0  0  0  0  0  0
   10.2860   -0.7830   23.4110 C   0  0  0  0  0  0  0  0  0  0  0  0
   11.3250   -1.6440   22.7060 C   0  0  0  0  0  0  0  0  0  0  0  0
   12.5140   -0.9110   22.2770 C   0  0  0  0  0  0  0  0  0  0  0  0
   12.5410    0.4450   22.5130 C   0  0  0  0  0  0  0  0  0  0  0  0
   11.2080    0.4930   23.2140 N   0  0  0  0  0  0  0  0  0  0  0  0
   10.9160    1.9520   23.6090 C   0  0  0  0  0  0  0  0  0  0  0  0
   12.0210    2.6270   23.1190 C   0  0  0  0  0  0  0  0  0  0  0  0
   12.6870    3.7900   22.9300 C   0  0  0  0  0  0  0  0  0  0  0  0
   12.0180    5.0370   23.5120 C   0  0  0  0  0  0  0  0  0  0  0  0
   10.7340    5.2410   22.8420 N   0  0  0  0  0  0  0  0  0  0  0  0
    9.8360    6.0400   23.6550 C   0  0  0  0  0  0  0  0  0  0  0  0
   10.0450    3.9850   22.5520 C   0  0  0  0  0  0  0  0  0  0  0  0
   11.8480    1.3130   23.0120 C   0  0  0  0  0  0  0  0  0  0  0  0
   10.5760    0.6270   23.5440 C   0  0  0  0  0  0  0  0  0  0  0  0
  1  2  1  0
  3  2  1  0
  3  4  2  0
  3  5  2  0
  3  6  1  0
  6  7  1  0
  7  8  2  0
  8  9  1  0
  9 10  2  0
 10 11  1  0
 11 12  1  0
 12 13  2  0
 13 14  1  0
 14 15  1  0
 15 16  1  0
 16 17  1  0
 16 18  1  0
 10 19  1  0
 13 19  1  0
  7 20  1  0
 19 20  2  0
M  END
