TRI-UNI-97428359-1
     RDKit          3D

 25 27  0  0  0  0  0  0  0  0999 V2000
    5.1080   -0.2440   18.5450 O   0  0  0  0  0  0  0  0  0  0  0  0
    5.6310   -1.3630   18.6140 C   0  0  0  0  0  0  0  0  0  0  0  0
    6.1920   -1.8600   19.8520 N   0  0  0  0  0  0  0  0  0  0  0  0
    5.6120   -2.7650   20.7050 C   0  0  0  0  0  0  0  0  0  0  0  0
    5.5770   -2.1530   22.0500 C   0  0  0  0  0  0  0  0  0  0  0  0
    6.7230   -1.9450   22.7610 N   0  0  0  0  0  0  0  0  0  0  0  0
    7.6930   -3.0450   22.9130 C   0  0  0  0  0  0  0  0  0  0  0  0
    8.9930   -2.6220   22.7290 C   0  0  0  0  0  0  0  0  0  0  0  0
    9.2020   -1.2710   22.8170 N   0  0  0  0  0  0  0  0  0  0  0  0
   10.4150   -0.6340   22.8360 C   0  0  0  0  0  0  0  0  0  0  0  0
   10.5060    0.7610   22.9290 C   0  0  0  0  0  0  0  0  0  0  0  0
   11.8910    1.4250   22.9510 C   0  0  0  0  0  0  0  0  0  0  0  0
   13.1040    0.5300   22.8760 C   0  0  0  0  0  0  0  0  0  0  0  0
   12.8630   -0.9410   22.7750 C   0  0  0  0  0  0  0  0  0  0  0  0
   11.5640   -1.4390   22.7580 C   0  0  0  0  0  0  0  0  0  0  0  0
    8.2600   -0.6000   23.5170 C   0  0  0  0  0  0  0  0  0  0  0  0
    6.9560   -0.6010   23.0060 C   0  0  0  0  0  0  0  0  0  0  0  0
    5.7550   -2.2640   17.5620 N   0  0  0  0  0  0  0  0  0  0  0  0
    5.3770   -1.7040   16.3030 C   0  0  0  0  0  0  0  0  0  0  0  0
    5.5280   -2.4000   13.9720 C   0  0  0  0  0  0  0  0  0  0  0  0
    4.5670   -2.8500   12.7570 C   0  0  0  0  0  0  0  0  0  0  0  0
    4.5670   -3.1470   11.4730 C   0  0  0  0  0  0  0  0  0  0  0  0
    5.7560   -3.0480   10.7890 C   0  0  0  0  0  0  0  0  0  0  0  0
    6.6490   -2.6560   11.6190 C   0  0  0  0  0  0  0  0  0  0  0  0
    6.5000   -2.3980   12.9810 N   0  0  0  0  0  0  0  0  0  0  0  0
  1  2  2  0
  2  3  1  0
  3  4  1  0
  4  5  1  0
  5  6  1  0
  6  7  1  0
  7  8  1  0
  8  9  1  0
  9 10  1  0
 10 11  2  0
 11 12  1  0
 12 13  2  0
 13 14  1  0
 10 15  1  0
 14 15  2  0
  9 16  1  0
  6 17  1  0
 16 17  1  0
  2 18  1  0
 18 19  1  0
 19 20  1  0
 20 21  2  0
 21 22  1  0
 22 23  2  0
 23 24  1  0
 20 25  1  0
 24 25  2  0
M  END
