TRY-UNI-714a760b-17
     RDKit          3D

 18 19  0  0  0  0  0  0  0  0999 V2000
    5.0660    0.9430   22.0270 C   0  0  0  0  0  0  0  0  0  0  0  0
    5.4640    0.7370   20.5780 C   0  0  0  0  0  0  0  0  0  0  0  0
    4.8300    1.3570   19.5830 C   0  0  0  0  0  0  0  0  0  0  0  0
    5.1800    1.2020   18.1400 C   0  0  0  0  0  0  0  0  0  0  0  0
    6.1730    0.4110   17.7380 N   0  0  0  0  0  0  0  0  0  0  0  0
    6.8780   -0.2720   18.7350 C   0  0  0  0  0  0  0  0  0  0  0  0
    6.5300   -0.1170   20.2070 C   0  0  0  0  0  0  0  0  0  0  0  0
    7.2490   -0.7960   21.2050 N   0  0  0  0  0  0  0  0  0  0  0  0
    8.4800   -0.3990   21.6690 C   0  0  0  0  0  0  0  0  0  0  0  0
    8.9100    0.7430   21.5480 O   0  0  0  0  0  0  0  0  0  0  0  0
    9.3350   -1.5150   22.3680 C   0  0  2  0  0  0  0  0  0  0  0  0
    8.9130   -2.2680   23.4540 C   0  0  0  0  0  0  0  0  0  0  0  0
   10.6310   -1.0330   22.4640 C   0  0  0  0  0  0  0  0  0  0  0  0
   10.8040    0.2830   22.8170 C   0  0  0  0  0  0  0  0  0  0  0  0
   12.1720    0.8990   22.9330 C   0  0  0  0  0  0  0  0  0  0  0  0
   13.2280    0.0640   22.6690 C   0  0  0  0  0  0  0  0  0  0  0  0
   12.9950   -1.2610   22.3220 C   0  0  0  0  0  0  0  0  0  0  0  0
   11.7410   -1.8390   22.2090 C   0  0  0  0  0  0  0  0  0  0  0  0
  1  2  1  0
  2  3  2  0
  3  4  1  0
  4  5  2  0
  5  6  1  0
  2  7  1  0
  6  7  2  0
  7  8  1  0
  8  9  1  0
  9 10  2  0
  9 11  1  0
 11 12  1  1
 11 13  1  0
 13 14  2  0
 14 15  1  0
 15 16  2  0
 16 17  1  0
 13 18  1  0
 17 18  2  0
M  END
