TRY-UNI-714a760b-10
     RDKit          3D

 17 18  0  0  0  0  0  0  0  0999 V2000
    5.4530    0.0100   22.0900 C   0  0  0  0  0  0  0  0  0  0  0  0
    5.7300    0.1960   20.5970 C   0  0  0  0  0  0  0  0  0  0  0  0
    4.8070    0.8590   19.7840 C   0  0  0  0  0  0  0  0  0  0  0  0
    5.0830    1.0160   18.4260 C   0  0  0  0  0  0  0  0  0  0  0  0
    6.1930    0.5640   17.8150 N   0  0  0  0  0  0  0  0  0  0  0  0
    7.0370   -0.0610   18.6490 C   0  0  0  0  0  0  0  0  0  0  0  0
    6.9090   -0.2840   19.9900 C   0  0  0  0  0  0  0  0  0  0  0  0
    7.9120   -0.9560   20.6910 N   0  0  0  0  0  0  0  0  0  0  0  0
    8.7650   -0.1560   21.5520 C   0  0  0  0  0  0  0  0  0  0  0  0
    8.8590    1.0500   21.7050 O   0  0  0  0  0  0  0  0  0  0  0  0
    9.6360   -0.9090   22.3160 C   0  0  0  0  0  0  0  0  0  0  0  0
   10.8250   -1.2120   22.9690 C   0  0  0  0  0  0  0  0  0  0  0  0
   10.8610   -2.3440   23.7440 C   0  0  0  0  0  0  0  0  0  0  0  0
   11.8190   -2.4200   24.7340 C   0  0  0  0  0  0  0  0  0  0  0  0
   13.0950   -1.7530   24.2420 C   0  0  0  0  0  0  0  0  0  0  0  0
   13.0640   -2.0090   22.7510 C   0  0  0  0  0  0  0  0  0  0  0  0
   12.0890   -1.2900   22.1050 C   0  0  0  0  0  0  0  0  0  0  0  0
  1  2  1  0
  2  3  2  0
  3  4  1  0
  4  5  2  0
  5  6  1  0
  2  7  1  0
  6  7  2  0
  7  8  1  0
  8  9  1  0
  9 10  2  0
  9 11  1  0
 11 12  1  0
 12 13  1  0
 13 14  1  0
 14 15  1  0
 15 16  1  0
 12 17  1  0
 16 17  1  0
M  END
