TRY-UNI-714a760b-1
     RDKit          3D

 18 19  0  0  0  0  0  0  0  0999 V2000
    5.0880    0.8590   21.8870 C   0  0  0  0  0  0  0  0  0  0  0  0
    5.5100    0.7130   20.4500 C   0  0  0  0  0  0  0  0  0  0  0  0
    4.7180    1.3790   19.4150 C   0  0  0  0  0  0  0  0  0  0  0  0
    3.6120    2.1270   19.6470 N   0  0  0  0  0  0  0  0  0  0  0  0
    5.1920    1.1880   18.1270 C   0  0  0  0  0  0  0  0  0  0  0  0
    6.2660    0.4710   17.7400 N   0  0  0  0  0  0  0  0  0  0  0  0
    6.9410   -0.1170   18.7310 C   0  0  0  0  0  0  0  0  0  0  0  0
    6.6360   -0.0380   20.0650 C   0  0  0  0  0  0  0  0  0  0  0  0
    7.4150   -0.6810   20.9860 N   0  0  0  0  0  0  0  0  0  0  0  0
    8.3620    0.1430   21.6130 C   0  0  0  0  0  0  0  0  0  0  0  0
    8.7940    1.2290   21.1880 O   0  0  0  0  0  0  0  0  0  0  0  0
    8.9330   -0.2930   22.9620 C   0  0  0  0  0  0  0  0  0  0  0  0
   10.4300   -0.0860   22.8950 C   0  0  0  0  0  0  0  0  0  0  0  0
   11.0750   -1.3030   22.4310 C   0  0  0  0  0  0  0  0  0  0  0  0
   12.2930   -1.9950   22.4000 C   0  0  0  0  0  0  0  0  0  0  0  0
   13.1670   -1.2640   23.2010 C   0  0  0  0  0  0  0  0  0  0  0  0
   12.6150   -0.0850   24.0750 C   0  0  0  0  0  0  0  0  0  0  0  0
   11.0940    0.2260   24.0860 C   0  0  0  0  0  0  0  0  0  0  0  0
  1  2  1  0
  2  3  2  0
  3  4  1  0
  3  5  1  0
  5  6  2  0
  6  7  1  0
  2  8  1  0
  7  8  2  0
  8  9  1  0
  9 10  1  0
 10 11  2  0
 10 12  1  0
 12 13  1  0
 13 14  1  0
 14 15  1  0
 15 16  1  0
 16 17  1  0
 13 18  1  0
 17 18  1  0
M  END
