TRY-UNI-714a760b-2
     RDKit          3D

 18 19  0  0  0  0  0  0  0  0999 V2000
    4.4660    0.6490   21.7450 C   0  0  0  0  0  0  0  0  0  0  0  0
    5.1040    0.5950   20.4120 C   0  0  0  0  0  0  0  0  0  0  0  0
    4.5450    1.2230   19.2850 C   0  0  0  0  0  0  0  0  0  0  0  0
    3.4370    1.8990   19.2530 N   0  0  0  0  0  0  0  0  0  0  0  0
    5.1650    1.1990   17.9370 C   0  0  0  0  0  0  0  0  0  0  0  0
    6.3910    0.5030   17.7090 N   0  0  0  0  0  0  0  0  0  0  0  0
    7.0110   -0.1770   18.8480 C   0  0  0  0  0  0  0  0  0  0  0  0
    6.4540   -0.1790   20.2330 C   0  0  0  0  0  0  0  0  0  0  0  0
    7.0520   -0.7870   21.2890 N   0  0  0  0  0  0  0  0  0  0  0  0
    8.2800   -0.3860   21.8240 C   0  0  0  0  0  0  0  0  0  0  0  0
    8.8380    0.6770   21.5380 O   0  0  0  0  0  0  0  0  0  0  0  0
    9.0490   -1.2180   22.8000 C   0  0  0  0  0  0  0  0  0  0  0  0
   10.4950   -0.8060   22.7700 C   0  0  0  0  0  0  0  0  0  0  0  0
   11.4740   -1.9050   22.4130 C   0  0  0  0  0  0  0  0  0  0  0  0
   12.8950   -1.4710   22.3850 C   0  0  0  0  0  0  0  0  0  0  0  0
   13.2050   -0.1460   22.6740 C   0  0  0  0  0  0  0  0  0  0  0  0
   12.2610    0.8000   22.9930 C   0  0  0  0  0  0  0  0  0  0  0  0
   10.9100    0.4870   23.0430 C   0  0  0  0  0  0  0  0  0  0  0  0
  1  2  1  0
  2  3  2  0
  3  4  1  0
  3  5  1  0
  5  6  2  0
  6  7  1  0
  2  8  1  0
  7  8  2  0
  8  9  1  0
  9 10  1  0
 10 11  2  0
 10 12  1  0
 12 13  1  0
 13 14  2  0
 14 15  1  0
 15 16  2  0
 16 17  1  0
 13 18  1  0
 17 18  2  0
M  END
