TRY-UNI-714a760b-16
     RDKit          3D

 18 19  0  0  0  0  0  0  0  0999 V2000
    5.1920    1.0870   21.9150 C   0  0  0  0  0  0  0  0  0  0  0  0
    5.6210    0.8180   20.4940 C   0  0  0  0  0  0  0  0  0  0  0  0
    4.8450    1.4500   19.4130 C   0  0  0  0  0  0  0  0  0  0  0  0
    5.2180    1.2270   18.0820 C   0  0  0  0  0  0  0  0  0  0  0  0
    6.3080    0.4050   17.8650 N   0  0  0  0  0  0  0  0  0  0  0  0
    7.0470   -0.1980   18.8550 C   0  0  0  0  0  0  0  0  0  0  0  0
    6.7240   -0.0000   20.1640 C   0  0  0  0  0  0  0  0  0  0  0  0
    7.5460   -0.6510   21.0500 N   0  0  0  0  0  0  0  0  0  0  0  0
    8.5270    0.1500   21.6310 C   0  0  0  0  0  0  0  0  0  0  0  0
    8.8990    1.2400   21.1660 O   0  0  0  0  0  0  0  0  0  0  0  0
    9.2720   -0.2110   22.9310 C   0  0  1  0  0  0  0  0  0  0  0  0
   10.7810   -0.1280   22.6850 C   0  0  0  0  0  0  0  0  0  0  0  0
    8.8060    0.6310   24.1580 C   0  0  0  0  0  0  0  0  0  0  0  0
    8.7780    2.0350   23.7600 C   0  0  0  0  0  0  0  0  0  0  0  0
    7.9260    2.9240   24.4420 C   0  0  0  0  0  0  0  0  0  0  0  0
    6.6610    2.4080   25.1410 C   0  0  0  0  0  0  0  0  0  0  0  0
    6.8210    0.9820   25.6530 C   0  0  0  0  0  0  0  0  0  0  0  0
    7.6110    0.1040   24.6950 C   0  0  0  0  0  0  0  0  0  0  0  0
  1  2  1  0
  2  3  2  0
  3  4  1  0
  4  5  2  0
  5  6  1  0
  2  7  1  0
  6  7  2  0
  7  8  1  0
  8  9  1  0
  9 10  2  0
  9 11  1  0
 11 12  1  6
 11 13  1  0
 13 14  1  0
 14 15  1  0
 15 16  1  0
 16 17  1  0
 13 18  1  0
 17 18  1  0
M  END
