TRY-UNI-1fd04853-4
     RDKit          3D

 21 23  0  0  0  0  0  0  0  0999 V2000
    8.2880    2.6610   24.2700 N   0  0  0  0  0  0  0  0  0  0  0  0
    9.7160    3.4610   23.8040 S   0  0  0  0  0  0  0  0  0  0  0  0
    9.4360    4.2710   22.6440 O   0  0  0  0  0  0  0  0  0  0  0  0
   10.2670    4.0740   24.9980 O   0  0  0  0  0  0  0  0  0  0  0  0
   10.8070    2.1510   23.3400 C   0  0  0  0  0  0  0  0  0  0  0  0
   12.1140    2.4170   22.9710 C   0  0  0  0  0  0  0  0  0  0  0  0
   12.9700    1.4260   22.5640 C   0  0  0  0  0  0  0  0  0  0  0  0
   12.9920   -0.0060   22.3800 C   0  0  0  0  0  0  0  0  0  0  0  0
   13.0190   -1.7390   22.1570 S   0  0  0  0  0  0  0  0  0  0  0  0
   11.5260   -2.3460   22.5770 C   0  0  0  0  0  0  0  0  0  0  0  0
   10.7510   -1.4090   22.9580 C   0  0  0  0  0  0  0  0  0  0  0  0
    9.3600   -1.7550   23.3810 C   0  0  0  0  0  0  0  0  0  0  0  0
    9.4160   -2.8230   24.2260 N   0  0  0  0  0  0  0  0  0  0  0  0
    9.9050   -3.9370   24.8240 C   0  0  0  0  0  0  0  0  0  0  0  0
    9.1000   -5.0480   25.1990 C   0  0  0  0  0  0  0  0  0  0  0  0
    8.2120   -4.6600   26.0900 C   0  0  0  0  0  0  0  0  0  0  0  0
    8.7980   -4.4730   27.3740 O   0  0  0  0  0  0  0  0  0  0  0  0
    7.6320   -3.3610   25.7020 C   0  0  0  0  0  0  0  0  0  0  0  0
    8.5690   -2.3780   25.2810 C   0  0  0  0  0  0  0  0  0  0  0  0
   11.4470   -0.1600   22.8720 C   0  0  0  0  0  0  0  0  0  0  0  0
   10.5190    0.8250   23.2710 C   0  0  0  0  0  0  0  0  0  0  0  0
  2  1  1  0
  2  3  2  0
  2  4  2  0
  2  5  1  0
  5  6  2  0
  6  7  1  0
  7  8  2  0
  8  9  1  0
  9 10  1  0
 10 11  2  0
 11 12  1  0
 12 13  1  0
 13 14  1  0
 14 15  1  0
 15 16  1  0
 16 17  1  0
 16 18  1  0
 13 19  1  0
 18 19  1  0
  8 20  1  0
 11 20  1  0
  5 21  1  0
 20 21  2  0
M  END
