TRY-UNI-714a760b-6
     RDKit          3D

 18 19  0  0  0  0  0  0  0  0999 V2000
    5.9140   -1.1660   18.3240 C   0  0  0  0  0  0  0  0  0  0  0  0
    5.4290   -0.1260   19.3010 C   0  0  0  0  0  0  0  0  0  0  0  0
    4.4100    0.6720   19.0070 C   0  0  0  0  0  0  0  0  0  0  0  0
    3.8660    1.7240   19.9230 C   0  0  0  0  0  0  0  0  0  0  0  0
    4.3800    1.9470   21.1360 N   0  0  0  0  0  0  0  0  0  0  0  0
    5.4690    1.1310   21.5010 C   0  0  0  0  0  0  0  0  0  0  0  0
    6.0290    0.0460   20.5560 C   0  0  0  0  0  0  0  0  0  0  0  0
    7.1260   -0.7860   20.8860 N   0  0  0  0  0  0  0  0  0  0  0  0
    8.2140   -0.3550   21.6120 C   0  0  0  0  0  0  0  0  0  0  0  0
    8.7200    0.7550   21.5090 O   0  0  0  0  0  0  0  0  0  0  0  0
    8.7940   -1.4040   22.6140 C   0  0  0  0  0  0  0  0  0  0  0  0
   10.1300   -1.4950   22.9280 C   0  0  0  0  0  0  0  0  0  0  0  0
   10.5160   -1.5140   24.3980 C   0  0  0  0  0  0  0  0  0  0  0  0
   11.8660   -1.6170   24.6550 C   0  0  0  0  0  0  0  0  0  0  0  0
   12.8080   -1.6870   23.5150 C   0  0  0  0  0  0  0  0  0  0  0  0
   12.3890   -1.6620   22.2280 C   0  0  0  0  0  0  0  0  0  0  0  0
   13.4620   -1.7490   20.9530 Cl  0  0  0  0  0  0  0  0  0  0  0  0
   11.0640   -1.5670   21.9550 C   0  0  0  0  0  0  0  0  0  0  0  0
  1  2  1  0
  2  3  2  0
  3  4  1  0
  4  5  2  0
  5  6  1  0
  2  7  1  0
  6  7  2  0
  7  8  1  0
  8  9  1  0
  9 10  2  0
  9 11  1  0
 11 12  1  0
 12 13  2  0
 13 14  1  0
 14 15  2  0
 15 16  1  0
 16 17  1  0
 12 18  1  0
 16 18  2  0
M  END
