TRY-UNI-1fd04853-5
     RDKit          3D

 21 23  0  0  0  0  0  0  0  0999 V2000
    8.3300    1.8070   25.3810 O   0  0  0  0  0  0  0  0  0  0  0  0
    8.7450    2.2860   24.3300 C   0  0  0  0  0  0  0  0  0  0  0  0
   10.1530    2.0980   23.8140 C   0  0  0  0  0  0  0  0  0  0  0  0
   10.9510    3.2360   23.4750 C   0  0  0  0  0  0  0  0  0  0  0  0
   10.1760    4.7610   23.6250 C   0  0  0  0  0  0  0  0  0  0  0  0
   11.3630    5.0410   23.2070 N   0  0  0  0  0  0  0  0  0  0  0  0
   11.5450    3.8390   23.2360 C   0  0  0  0  0  0  0  0  0  0  0  0
   10.5140    2.9680   23.6540 N   0  0  0  0  0  0  0  0  0  0  0  0
   10.7740    1.5800   23.6800 C   0  0  0  0  0  0  0  0  0  0  0  0
   11.8900    0.9080   23.3570 C   0  0  0  0  0  0  0  0  0  0  0  0
   12.9610    1.8160   22.9200 C   0  0  0  0  0  0  0  0  0  0  0  0
   12.4810    3.2500   22.9660 C   0  0  0  0  0  0  0  0  0  0  0  0
    7.8800    3.0020   23.5440 N   0  0  0  0  0  0  0  0  0  0  0  0
    7.9760    2.9920   22.1550 C   0  0  0  0  0  0  0  0  0  0  0  0
    7.6230    1.7550   21.3650 C   0  0  0  0  0  0  0  0  0  0  0  0
    8.2660    0.5250   21.5700 C   0  0  0  0  0  0  0  0  0  0  0  0
    7.9740   -0.6340   20.8620 C   0  0  0  0  0  0  0  0  0  0  0  0
    6.9850   -0.5420   19.8950 C   0  0  0  0  0  0  0  0  0  0  0  0
    6.3110    0.6520   19.6480 C   0  0  0  0  0  0  0  0  0  0  0  0
    5.0940    0.6740   18.4200 Cl  0  0  0  0  0  0  0  0  0  0  0  0
    6.6250    1.7970   20.3830 C   0  0  0  0  0  0  0  0  0  0  0  0
  1  2  2  0
  2  3  1  0
  3  4  1  0
  4  5  2  0
  5  6  1  0
  6  7  1  0
  7  8  1  0
  8  9  2  0
  9 10  1  0
 10 11  2  0
  4 12  1  0
  7 12  2  0
 11 12  1  0
  2 13  1  0
 13 14  1  0
 14 15  1  0
 15 16  2  0
 16 17  1  0
 17 18  2  0
 18 19  1  0
 19 20  1  0
 15 21  1  0
 19 21  2  0
M  END
