TRY-UNI-1fd04853-7
     RDKit          3D

 21 23  0  0  0  0  0  0  0  0999 V2000
    8.6280    2.0580   21.0740 O   0  0  0  0  0  0  0  0  0  0  0  0
    8.7570    2.7310   22.0920 C   0  0  0  0  0  0  0  0  0  0  0  0
    9.9770    2.5390   22.9770 C   0  0  0  0  0  0  0  0  0  0  0  0
   11.0490    3.4090   23.0070 C   0  0  0  0  0  0  0  0  0  0  0  0
   10.6190    5.0040   23.1150 C   0  0  0  0  0  0  0  0  0  0  0  0
   11.8750    5.5350   23.1000 N   0  0  0  0  0  0  0  0  0  0  0  0
   11.8570    4.1470   23.0290 C   0  0  0  0  0  0  0  0  0  0  0  0
   10.6480    3.5130   23.0490 N   0  0  0  0  0  0  0  0  0  0  0  0
   10.4480    2.0630   22.9820 C   0  0  0  0  0  0  0  0  0  0  0  0
   11.5040    1.1280   22.8930 C   0  0  0  0  0  0  0  0  0  0  0  0
   12.8440    1.7800   22.8730 C   0  0  0  0  0  0  0  0  0  0  0  0
   12.6630    3.2650   22.9530 C   0  0  0  0  0  0  0  0  0  0  0  0
    7.7520    3.7180   22.5010 N   0  0  0  0  0  0  0  0  0  0  0  0
    7.8010    4.4170   23.6690 C   0  0  0  0  0  0  0  0  0  0  0  0
    7.4350    5.8010   23.5970 C   0  0  0  0  0  0  0  0  0  0  0  0
    8.4960    6.8430   23.3960 C   0  0  0  0  0  0  0  0  0  0  0  0
    8.0050    8.2200   23.3450 C   0  0  0  0  0  0  0  0  0  0  0  0
    6.6440    8.5250   23.4730 C   0  0  0  0  0  0  0  0  0  0  0  0
    6.1120   10.1600   23.4060 Cl  0  0  0  0  0  0  0  0  0  0  0  0
    5.7320    7.4940   23.6550 C   0  0  0  0  0  0  0  0  0  0  0  0
    6.0940    6.1620   23.7190 C   0  0  0  0  0  0  0  0  0  0  0  0
  1  2  2  0
  2  3  1  0
  3  4  1  0
  4  5  2  0
  5  6  1  0
  6  7  1  0
  7  8  1  0
  8  9  2  0
  9 10  1  0
 10 11  2  0
  4 12  1  0
  7 12  2  0
 11 12  1  0
  2 13  1  0
 13 14  1  0
 14 15  1  0
 15 16  2  0
 16 17  1  0
 17 18  2  0
 18 19  1  0
 18 20  1  0
 15 21  1  0
 20 21  2  0
M  END
