TRY-UNI-714a760b-11
     RDKit          3D

 17 18  0  0  0  0  0  0  0  0999 V2000
    5.1450    0.9450   22.0010 C   0  0  0  0  0  0  0  0  0  0  0  0
    5.5820    0.7120   20.6150 C   0  0  0  0  0  0  0  0  0  0  0  0
    4.9440    1.3530   19.5490 C   0  0  0  0  0  0  0  0  0  0  0  0
    5.2700    1.2160   18.2040 C   0  0  0  0  0  0  0  0  0  0  0  0
    6.2720    0.4160   17.7950 N   0  0  0  0  0  0  0  0  0  0  0  0
    6.9330   -0.2410   18.7860 C   0  0  0  0  0  0  0  0  0  0  0  0
    6.6380   -0.1380   20.2460 C   0  0  0  0  0  0  0  0  0  0  0  0
    7.4980   -0.9500   21.1540 N   0  0  0  0  0  0  0  0  0  0  0  0
    8.6550   -0.5580   21.8080 C   0  0  0  0  0  0  0  0  0  0  0  0
    9.3040    0.4560   21.5800 O   0  0  0  0  0  0  0  0  0  0  0  0
    8.9660   -1.4900   22.7920 N   0  0  0  0  0  0  0  0  0  0  0  0
   10.3130   -1.6940   23.0220 C   0  0  0  0  0  0  0  0  0  0  0  0
   10.9040   -0.6200   23.8290 C   0  0  0  0  0  0  0  0  0  0  0  0
   11.9940   -0.0250   23.2720 C   0  0  0  0  0  0  0  0  0  0  0  0
   12.9610   -0.8400   22.7460 C   0  0  0  0  0  0  0  0  0  0  0  0
   12.4890   -1.8740   21.9650 C   0  0  0  0  0  0  0  0  0  0  0  0
   11.1050   -1.8830   21.7460 C   0  0  0  0  0  0  0  0  0  0  0  0
  1  2  1  0
  2  3  2  0
  3  4  1  0
  4  5  2  0
  5  6  1  0
  2  7  1  0
  6  7  2  0
  7  8  1  0
  8  9  1  0
  9 10  2  0
  9 11  1  0
 11 12  1  0
 12 13  1  0
 13 14  1  0
 14 15  1  0
 15 16  1  0
 12 17  1  0
 16 17  1  0
M  END
