TRY-UNI-1fd04853-11
     RDKit          3D

 21 23  0  0  0  0  0  0  0  0999 V2000
    7.5610    6.3250   23.8400 O   0  0  0  0  0  0  0  0  0  0  0  0
    8.2970    5.3850   24.1360 C   0  0  0  0  0  0  0  0  0  0  0  0
    9.4950    5.0860   23.2230 C   0  0  0  0  0  0  0  0  0  0  0  0
   10.8120    5.6670   23.6110 C   0  0  0  0  0  0  0  0  0  0  0  0
   10.7060    6.7390   24.1870 C   0  0  0  0  0  0  0  0  0  0  0  0
   11.8530    6.5800   24.1590 N   0  0  0  0  0  0  0  0  0  0  0  0
   11.3580    5.2140   23.3930 C   0  0  0  0  0  0  0  0  0  0  0  0
   10.3120    4.4830   22.9410 N   0  0  0  0  0  0  0  0  0  0  0  0
   10.7270    3.3340   22.3380 C   0  0  0  0  0  0  0  0  0  0  0  0
   12.1170    3.0920   22.2950 C   0  0  0  0  0  0  0  0  0  0  0  0
   13.1160    4.0470   22.8570 C   0  0  0  0  0  0  0  0  0  0  0  0
   12.4220    5.2230   23.4540 C   0  0  0  0  0  0  0  0  0  0  0  0
    8.1890    4.5250   25.2170 N   0  0  0  0  0  0  0  0  0  0  0  0
    6.9310    3.9220   25.6140 C   0  0  0  0  0  0  0  0  0  0  0  0
    7.1010    2.5970   26.1960 C   0  0  0  0  0  0  0  0  0  0  0  0
    7.1350    1.4710   25.3700 C   0  0  0  0  0  0  0  0  0  0  0  0
    7.3290    0.0600   25.8840 C   0  0  0  0  0  0  0  0  0  0  0  0
    7.4910   -0.1010   27.3800 C   0  0  0  0  0  0  0  0  0  0  0  0
    7.7240   -1.6210   28.1460 Cl  0  0  0  0  0  0  0  0  0  0  0  0
    7.4230    1.2360   28.1340 C   0  0  0  0  0  0  0  0  0  0  0  0
    7.2410    2.4790   27.5710 N   0  0  0  0  0  0  0  0  0  0  0  0
  1  2  2  0
  2  3  1  0
  3  4  1  0
  4  5  2  0
  5  6  1  0
  6  7  1  0
  7  8  1  0
  8  9  2  0
  9 10  1  0
 10 11  2  0
  4 12  1  0
  7 12  2  0
 11 12  1  0
  2 13  1  0
 13 14  1  0
 14 15  1  0
 15 16  2  0
 16 17  1  0
 17 18  2  0
 18 19  1  0
 18 20  1  0
 15 21  1  0
 20 21  2  0
M  END
