VIC-UNI-33d4332f-1
     RDKit          3D

 25 27  0  0  0  0  0  0  0  0999 V2000
    4.3640    0.3810   18.6150 C   0  0  0  0  0  0  0  0  0  0  0  0
    3.7260    1.6580   19.1220 C   0  0  0  0  0  0  0  0  0  0  0  0
    2.5470    1.7960   19.4420 O   0  0  0  0  0  0  0  0  0  0  0  0
    4.7210    2.6740   19.2200 N   0  0  0  0  0  0  0  0  0  0  0  0
    5.8040    2.1750   20.0270 C   0  0  0  0  0  0  0  0  0  0  0  0
    6.8210    1.2490   19.3460 C   0  0  0  0  0  0  0  0  0  0  0  0
    7.6500    0.9480   20.5600 C   0  0  0  0  0  0  0  0  0  0  0  0
    8.8870    1.5570   20.9940 N   0  0  0  0  0  0  0  0  0  0  0  0
    9.2340    1.1230   22.2680 C   0  0  1  0  0  0  0  0  0  0  0  0
    8.7900    2.2890   23.1500 C   0  0  0  0  0  0  0  0  0  0  0  0
    7.6800    1.9520   24.2520 C   0  0  0  0  0  0  0  0  0  0  0  0
    7.1830    0.6680   24.5770 C   0  0  0  0  0  0  0  0  0  0  0  0
    7.5750   -0.4380   23.6160 C   0  0  0  0  0  0  0  0  0  0  0  0
    7.3050   -1.7450   23.8020 C   0  0  0  0  0  0  0  0  0  0  0  0
    8.0050   -2.6170   23.0580 N   0  0  0  0  0  0  0  0  0  0  0  0
    8.6410   -2.1450   21.8470 C   0  0  0  0  0  0  0  0  0  0  0  0
    7.7200   -1.6230   20.9500 C   0  0  0  0  0  0  0  0  0  0  0  0
    6.4680   -2.4090   20.8510 N   0  0  0  0  0  0  0  0  0  0  0  0
    5.9700   -2.7870   19.6500 C   0  0  0  0  0  0  0  0  0  0  0  0
    6.2660   -1.9730   18.5900 C   0  0  0  0  0  0  0  0  0  0  0  0
    5.3340   -3.8360   19.5040 O   0  0  0  0  0  0  0  0  0  0  0  0
    6.0600   -3.2610   21.9710 C   0  0  0  0  0  0  0  0  0  0  0  0
    7.1230   -3.7140   22.7230 C   0  0  0  0  0  0  0  0  0  0  0  0
    8.0650    0.1820   22.4970 C   0  0  0  0  0  0  0  0  0  0  0  0
    7.1230    0.0650   21.4650 C   0  0  0  0  0  0  0  0  0  0  0  0
  1  2  1  0
  2  3  2  0
  2  4  1  0
  4  5  1  0
  5  6  1  0
  6  7  1  0
  7  8  2  0
  8  9  1  0
  9 10  1  1
 10 11  2  0
 11 12  1  0
 12 13  2  0
 13 14  1  0
 14 15  1  0
 15 16  1  0
 16 17  1  0
 17 18  1  0
 18 19  1  0
 19 20  1  0
 19 21  2  0
 18 22  1  0
 15 23  1  0
 22 23  1  0
  9 24  1  0
 13 24  1  0
  7 25  1  0
 24 25  2  0
M  END
