VIC-UNI-33d4332f-2
     RDKit          3D

 22 24  0  0  0  0  0  0  0  0999 V2000
    6.3100   -4.6420   20.8200 C   0  0  0  0  0  0  0  0  0  0  0  0
    6.0480   -3.2780   20.2800 C   0  0  0  0  0  0  0  0  0  0  0  0
    5.5920   -3.1700   19.1450 O   0  0  0  0  0  0  0  0  0  0  0  0
    6.3530   -2.2510   21.1540 N   0  0  0  0  0  0  0  0  0  0  0  0
    7.4070   -1.2470   20.9340 C   0  0  0  0  0  0  0  0  0  0  0  0
    8.6090   -1.5820   21.5830 C   0  0  0  0  0  0  0  0  0  0  0  0
    8.5570   -2.0790   22.9810 N   0  0  0  0  0  0  0  0  0  0  0  0
    8.6680   -1.0370   24.0250 C   0  0  0  0  0  0  0  0  0  0  0  0
    9.5500    0.0030   23.6970 C   0  0  0  0  0  0  0  0  0  0  0  0
    9.2810    1.5260   23.8570 C   0  0  0  0  0  0  0  0  0  0  0  0
   10.2840    2.3560   23.4490 C   0  0  0  0  0  0  0  0  0  0  0  0
   11.6790    1.8370   23.2470 C   0  0  0  0  0  0  0  0  0  0  0  0
   12.0050    0.4180   23.4960 C   0  0  2  0  0  0  0  0  0  0  0  0
   13.0860   -0.1840   22.7630 N   0  0  0  0  0  0  0  0  0  0  0  0
   12.5010   -1.1900   22.1800 C   0  0  0  0  0  0  0  0  0  0  0  0
   13.2080   -2.0630   21.5760 C   0  0  0  0  0  0  0  0  0  0  0  0
   13.5720   -2.7430   22.7210 C   0  0  0  0  0  0  0  0  0  0  0  0
   12.4430   -2.9560   23.6200 N   0  0  0  0  0  0  0  0  0  0  0  0
   11.1130   -1.4640   22.2540 C   0  0  0  0  0  0  0  0  0  0  0  0
   10.7990   -0.3650   23.1580 C   0  0  0  0  0  0  0  0  0  0  0  0
    7.4620   -3.0350   23.2060 C   0  0  0  0  0  0  0  0  0  0  0  0
    6.1480   -2.5680   22.5620 C   0  0  0  0  0  0  0  0  0  0  0  0
  1  2  1  0
  2  3  2  0
  2  4  1  0
  4  5  1  0
  5  6  1  0
  6  7  1  0
  7  8  1  0
  8  9  1  0
  9 10  2  0
 10 11  1  0
 11 12  2  0
 13 12  1  6
 13 14  1  0
 14 15  2  0
 15 16  1  0
 16 17  1  0
 17 18  1  0
 15 19  1  0
  9 20  1  0
 13 20  1  0
 19 20  2  0
  7 21  1  0
  4 22  1  0
 21 22  1  0
M  END
