VID-DNY-1d288c6c-9
     RDKit          3D

 31 34  0  0  0  0  0  0  0  0999 V2000
   10.2940    3.0580   22.1440 O   0  0  0  0  0  0  0  0  0  0  0  0
    9.3570    2.6360   21.4410 N   0  0  0  0  0  0  0  0  0  0  0  0
    8.3690    3.3300   21.2160 O   0  0  0  0  0  0  0  0  0  0  0  0
    8.9740    1.2850   21.7990 C   0  0  0  0  0  0  0  0  0  0  0  0
    9.6180    0.7900   22.8520 C   0  0  0  0  0  0  0  0  0  0  0  0
    9.3040   -0.5240   23.3780 C   0  0  0  0  0  0  0  0  0  0  0  0
    8.1870   -1.2600   22.6260 C   0  0  0  0  0  0  0  0  0  0  0  0
    7.7920   -2.4400   23.2060 N   0  0  0  0  0  0  0  0  0  0  0  0
    6.6430   -2.9140   22.6540 N   0  0  0  0  0  0  0  0  0  0  0  0
    6.3760   -3.9060   23.3970 C   0  0  0  0  0  0  0  0  0  0  0  0
    5.3000   -4.7650   23.3750 C   0  0  0  0  0  0  0  0  0  0  0  0
    3.9840   -4.3070   23.2100 C   0  0  0  0  0  0  0  0  0  0  0  0
    2.8290   -5.3300   23.2480 C   0  0  0  0  0  0  0  0  0  0  0  0
    3.1920   -6.7790   23.4640 C   0  0  0  0  0  0  0  0  0  0  0  0
    2.2550   -7.7350   23.5180 F   0  0  0  0  0  0  0  0  0  0  0  0
    4.6500   -7.0840   23.6150 C   0  0  0  0  0  0  0  0  0  0  0  0
    5.6000   -6.0960   23.5620 C   0  0  0  0  0  0  0  0  0  0  0  0
    7.3580   -4.0120   24.3270 C   0  0  0  0  0  0  0  0  0  0  0  0
    8.4040   -3.0630   24.3250 C   0  0  0  0  0  0  0  0  0  0  0  0
    8.4550   -3.9980   25.2970 C   0  0  0  0  0  0  0  0  0  0  0  0
    9.3540   -5.1160   25.7380 C   0  0  0  0  0  0  0  0  0  0  0  0
    8.9390   -5.8750   26.8490 C   0  0  0  0  0  0  0  0  0  0  0  0
    7.7130   -5.5420   27.4850 C   0  0  0  0  0  0  0  0  0  0  0  0
    6.8800   -6.3490   28.9460 Br  0  0  0  0  0  0  0  0  0  0  0  0
    6.8620   -4.4140   27.0220 C   0  0  0  0  0  0  0  0  0  0  0  0
    7.2750   -3.7120   25.9660 C   0  0  0  0  0  0  0  0  0  0  0  0
    7.5920   -0.6930   21.5010 C   0  0  0  0  0  0  0  0  0  0  0  0
    6.5340   -1.3400   20.7250 N   0  0  0  0  0  0  0  0  0  0  0  0
    5.6380   -1.9090   21.3560 O   0  0  0  0  0  0  0  0  0  0  0  0
    6.4140   -0.9470   19.5580 O   0  0  0  0  0  0  0  0  0  0  0  0
    7.9830    0.5920   21.0820 C   0  0  0  0  0  0  0  0  0  0  0  0
  1  2  2  0
  2  3  1  0
  2  4  1  0
  4  5  2  0
  5  6  1  0
  6  7  2  0
  7  8  1  0
  8  9  1  0
  9 10  2  0
 10 11  1  0
 11 12  2  0
 12 13  1  0
 13 14  2  0
 14 15  1  0
 14 16  1  0
 11 17  1  0
 16 17  2  0
 10 18  1  0
  8 19  1  0
 18 19  2  0
 19 20  1  0
 20 21  2  0
 21 22  1  0
 22 23  2  0
 23 24  1  0
 23 25  1  0
 20 26  1  0
 25 26  2  0
  7 27  1  0
 27 28  1  0
 28 29  2  0
 28 30  1  0
  4 31  1  0
 27 31  2  0
M  CHG  4   2   1   3  -1  28   1  30  -1
M  END
