VID-DNY-1d288c6c-7
     RDKit          3D

 31 34  0  0  0  0  0  0  0  0999 V2000
    8.1940    3.1590   21.1450 O   0  0  0  0  0  0  0  0  0  0  0  0
    9.1950    2.4820   21.3630 N   0  0  0  0  0  0  0  0  0  0  0  0
   10.1450    2.9340   22.0250 O   0  0  0  0  0  0  0  0  0  0  0  0
    8.8700    1.3020   21.6910 C   0  0  0  0  0  0  0  0  0  0  0  0
    9.5830    0.7580   22.9020 C   0  0  0  0  0  0  0  0  0  0  0  0
    9.2010   -0.4950   23.3210 C   0  0  0  0  0  0  0  0  0  0  0  0
    8.2060   -1.1970   22.6350 C   0  0  0  0  0  0  0  0  0  0  0  0
    7.8940   -2.3070   23.2590 N   0  0  0  0  0  0  0  0  0  0  0  0
    6.7830   -2.7250   22.6380 N   0  0  0  0  0  0  0  0  0  0  0  0
    6.4870   -3.7950   23.4500 C   0  0  0  0  0  0  0  0  0  0  0  0
    5.4440   -4.6900   23.4530 C   0  0  0  0  0  0  0  0  0  0  0  0
    4.1290   -4.2220   23.3820 C   0  0  0  0  0  0  0  0  0  0  0  0
    3.0830   -5.1440   23.4240 C   0  0  0  0  0  0  0  0  0  0  0  0
    3.3540   -6.4940   23.5330 C   0  0  0  0  0  0  0  0  0  0  0  0
    1.9110   -7.7140   23.5920 Br  0  0  0  0  0  0  0  0  0  0  0  0
    4.6730   -6.9390   23.5990 C   0  0  0  0  0  0  0  0  0  0  0  0
    5.7180   -6.0430   23.5550 C   0  0  0  0  0  0  0  0  0  0  0  0
    7.4030   -3.9540   24.4450 C   0  0  0  0  0  0  0  0  0  0  0  0
    8.5560   -2.9080   24.4570 C   0  0  0  0  0  0  0  0  0  0  0  0
    8.4550   -3.9560   25.4860 C   0  0  0  0  0  0  0  0  0  0  0  0
    9.3130   -5.1370   25.8500 C   0  0  0  0  0  0  0  0  0  0  0  0
    8.8740   -5.9540   26.9070 C   0  0  0  0  0  0  0  0  0  0  0  0
    7.5640   -5.5810   27.6110 C   0  0  0  0  0  0  0  0  0  0  0  0
    6.7180   -6.4650   29.0230 Br  0  0  0  0  0  0  0  0  0  0  0  0
    6.8300   -4.5130   27.2640 C   0  0  0  0  0  0  0  0  0  0  0  0
    7.2920   -3.6700   26.1640 C   0  0  0  0  0  0  0  0  0  0  0  0
    7.5780   -0.6980   21.4770 C   0  0  0  0  0  0  0  0  0  0  0  0
    6.5250   -1.4000   20.7120 N   0  0  0  0  0  0  0  0  0  0  0  0
    5.6520   -1.9930   21.3520 O   0  0  0  0  0  0  0  0  0  0  0  0
    6.3780   -1.0040   19.5490 O   0  0  0  0  0  0  0  0  0  0  0  0
    7.9090    0.5620   21.0000 C   0  0  0  0  0  0  0  0  0  0  0  0
  1  2  2  0
  2  3  1  0
  2  4  1  0
  4  5  2  0
  5  6  1  0
  6  7  2  0
  7  8  1  0
  8  9  1  0
  9 10  2  0
 10 11  1  0
 11 12  2  0
 12 13  1  0
 13 14  2  0
 14 15  1  0
 14 16  1  0
 11 17  1  0
 16 17  2  0
 10 18  1  0
  8 19  1  0
 18 19  2  0
 19 20  1  0
 20 21  2  0
 21 22  1  0
 22 23  2  0
 23 24  1  0
 23 25  1  0
 20 26  1  0
 25 26  2  0
  7 27  1  0
 27 28  1  0
 28 29  2  0
 28 30  1  0
  4 31  1  0
 27 31  2  0
M  CHG  4   2   1   3  -1  28   1  30  -1
M  END
