VID-DNY-1d288c6c-13
     RDKit          3D

 33 36  0  0  0  0  0  0  0  0999 V2000
    4.2590    1.9310   18.3300 O   0  0  0  0  0  0  0  0  0  0  0  0
    5.0880    1.0590   18.0510 N   0  0  0  0  0  0  0  0  0  0  0  0
    5.8430    1.1370   17.0850 O   0  0  0  0  0  0  0  0  0  0  0  0
    5.7010    0.4750   19.2170 C   0  0  0  0  0  0  0  0  0  0  0  0
    4.9480    0.5080   20.4980 C   0  0  0  0  0  0  0  0  0  0  0  0
    5.5560   -0.0410   21.6120 C   0  0  0  0  0  0  0  0  0  0  0  0
    6.8170   -0.5920   21.5050 C   0  0  0  0  0  0  0  0  0  0  0  0
    7.2870   -1.1040   22.7980 C   0  0  0  0  0  0  0  0  0  0  0  0
    7.4980   -2.3950   23.2130 C   0  0  0  0  0  0  0  0  0  0  0  0
    7.8790   -2.3010   24.5170 C   0  0  0  0  0  0  0  0  0  0  0  0
    8.0940   -3.4980   25.3980 C   0  0  0  0  0  0  0  0  0  0  0  0
    9.0550   -4.6430   25.6060 C   0  0  0  0  0  0  0  0  0  0  0  0
    8.7260   -5.5560   26.6680 C   0  0  0  0  0  0  0  0  0  0  0  0
    7.5340   -5.3430   27.4650 C   0  0  0  0  0  0  0  0  0  0  0  0
    6.9060   -6.3770   28.8760 Br  0  0  0  0  0  0  0  0  0  0  0  0
    6.6530   -4.3110   27.2960 C   0  0  0  0  0  0  0  0  0  0  0  0
    6.9140   -3.4510   26.3310 C   0  0  0  0  0  0  0  0  0  0  0  0
    7.9780   -1.0480   24.9910 N   0  0  0  0  0  0  0  0  0  0  0  0
    7.5870   -0.3040   23.9110 N   0  0  0  0  0  0  0  0  0  0  0  0
    7.4970    1.0670   23.9840 C   0  0  0  0  0  0  0  0  0  0  0  0
    7.8720    1.8560   22.9120 C   0  0  0  0  0  0  0  0  0  0  0  0
    7.8220    3.2450   22.8400 C   0  0  0  0  0  0  0  0  0  0  0  0
    7.3460    3.9310   23.9540 C   0  0  0  0  0  0  0  0  0  0  0  0
    7.2400    5.2800   24.0210 N   0  0  0  0  0  0  0  0  0  0  0  0
    6.2380    5.7880   23.4980 O   0  0  0  0  0  0  0  0  0  0  0  0
    7.9990    5.8700   24.8080 O   0  0  0  0  0  0  0  0  0  0  0  0
    6.9490    3.1920   25.0790 C   0  0  0  0  0  0  0  0  0  0  0  0
    7.0170    1.7900   25.1080 C   0  0  0  0  0  0  0  0  0  0  0  0
    6.5560    1.1750   26.3590 N   0  0  0  0  0  0  0  0  0  0  0  0
    7.0990    1.5880   27.3980 O   0  0  0  0  0  0  0  0  0  0  0  0
    5.4100    0.7020   26.3390 O   0  0  0  0  0  0  0  0  0  0  0  0
    7.5230   -0.6350   20.3120 C   0  0  0  0  0  0  0  0  0  0  0  0
    6.9700   -0.0980   19.1470 C   0  0  0  0  0  0  0  0  0  0  0  0
  1  2  2  0
  2  3  1  0
  2  4  1  0
  4  5  2  0
  5  6  1  0
  6  7  2  0
  7  8  1  0
  8  9  2  0
  9 10  1  0
 10 11  1  0
 11 12  2  0
 12 13  1  0
 13 14  2  0
 14 15  1  0
 14 16  1  0
 11 17  1  0
 16 17  2  0
 10 18  2  0
  8 19  1  0
 18 19  1  0
 19 20  1  0
 20 21  2  0
 21 22  1  0
 22 23  2  0
 23 24  1  0
 24 25  2  0
 24 26  1  0
 23 27  1  0
 20 28  1  0
 27 28  2  0
 28 29  1  0
 29 30  2  0
 29 31  1  0
  7 32  1  0
  4 33  1  0
 32 33  2  0
M  CHG  6   2   1   3  -1  24   1  26  -1  29   1  31  -1
M  END
