VID-DNY-1d288c6c-3
     RDKit          3D

 31 34  0  0  0  0  0  0  0  0999 V2000
   10.1360    2.7650   21.9270 O   0  0  0  0  0  0  0  0  0  0  0  0
    9.0690    2.4290   21.3970 N   0  0  0  0  0  0  0  0  0  0  0  0
    8.1120    3.2000   21.3180 O   0  0  0  0  0  0  0  0  0  0  0  0
    8.6420    1.0950   21.8050 C   0  0  0  0  0  0  0  0  0  0  0  0
    9.1560    0.4900   23.1030 C   0  0  0  0  0  0  0  0  0  0  0  0
    8.7190   -0.7410   23.5190 C   0  0  0  0  0  0  0  0  0  0  0  0
    7.8020   -1.4430   22.7550 C   0  0  0  0  0  0  0  0  0  0  0  0
    7.4270   -2.6530   23.4660 N   0  0  0  0  0  0  0  0  0  0  0  0
    6.2990   -3.2830   22.9740 N   0  0  0  0  0  0  0  0  0  0  0  0
    6.1000   -4.2550   23.8050 C   0  0  0  0  0  0  0  0  0  0  0  0
    5.0690   -5.3570   24.0160 C   0  0  0  0  0  0  0  0  0  0  0  0
    4.2450   -5.8890   22.8730 C   0  0  0  0  0  0  0  0  0  0  0  0
    3.2910   -6.8860   23.1220 C   0  0  0  0  0  0  0  0  0  0  0  0
    3.0820   -7.4030   24.4060 C   0  0  0  0  0  0  0  0  0  0  0  0
    1.8900   -8.6150   24.6470 Cl  0  0  0  0  0  0  0  0  0  0  0  0
    3.8110   -6.9660   25.5000 C   0  0  0  0  0  0  0  0  0  0  0  0
    4.7860   -5.9790   25.3850 C   0  0  0  0  0  0  0  0  0  0  0  0
    7.0700   -4.2370   24.7370 C   0  0  0  0  0  0  0  0  0  0  0  0
    8.1350   -3.1550   24.6780 C   0  0  0  0  0  0  0  0  0  0  0  0
    8.3640   -4.0880   25.8540 C   0  0  0  0  0  0  0  0  0  0  0  0
    9.1780   -5.2180   25.6120 C   0  0  0  0  0  0  0  0  0  0  0  0
    9.5110   -6.3300   26.6500 C   0  0  0  0  0  0  0  0  0  0  0  0
    8.7100   -5.6890   27.7560 C   0  0  0  0  0  0  0  0  0  0  0  0
    8.5560   -4.7110   26.3890 Cl  0  0  0  0  0  0  0  0  0  0  0  0
    7.9280   -4.6790   28.1470 C   0  0  0  0  0  0  0  0  0  0  0  0
    7.7390   -3.8020   27.1050 C   0  0  0  0  0  0  0  0  0  0  0  0
    7.2900   -0.9890   21.5140 C   0  0  0  0  0  0  0  0  0  0  0  0
    6.4390   -1.7050   20.8500 N   0  0  0  0  0  0  0  0  0  0  0  0
    6.2570   -1.3240   19.6880 O   0  0  0  0  0  0  0  0  0  0  0  0
    5.5680   -2.2750   21.5150 O   0  0  0  0  0  0  0  0  0  0  0  0
    7.6560    0.2540   20.9690 C   0  0  0  0  0  0  0  0  0  0  0  0
  1  2  2  0
  2  3  1  0
  2  4  1  0
  4  5  2  0
  5  6  1  0
  6  7  2  0
  7  8  1  0
  8  9  1  0
  9 10  2  0
 10 11  1  0
 11 12  2  0
 12 13  1  0
 13 14  2  0
 14 15  1  0
 14 16  1  0
 11 17  1  0
 16 17  2  0
 10 18  1  0
  8 19  1  0
 18 19  2  0
 19 20  1  0
 20 21  2  0
 21 22  1  0
 22 23  2  0
 23 24  1  0
 23 25  1  0
 20 26  1  0
 25 26  2  0
  7 27  1  0
 27 28  1  0
 28 29  2  0
 28 30  1  0
  4 31  1  0
 27 31  2  0
M  CHG  4   2   1   3  -1  28   1  30  -1
M  END
