VID-DNY-1d288c6c-2
     RDKit          3D

 30 33  0  0  0  0  0  0  0  0999 V2000
   11.2110    3.1340   22.4120 O   0  0  0  0  0  0  0  0  0  0  0  0
   11.6420    1.9900   22.6030 N   0  0  0  0  0  0  0  0  0  0  0  0
   12.8170    1.7060   22.8180 O   0  0  0  0  0  0  0  0  0  0  0  0
   10.6770    0.8880   22.6430 C   0  0  0  0  0  0  0  0  0  0  0  0
   11.0410   -0.3010   23.4600 C   0  0  0  0  0  0  0  0  0  0  0  0
   10.1230   -1.3240   23.5500 C   0  0  0  0  0  0  0  0  0  0  0  0
    8.9240   -1.2200   22.8810 C   0  0  0  0  0  0  0  0  0  0  0  0
    8.0190   -2.2030   23.0640 N   0  0  0  0  0  0  0  0  0  0  0  0
    7.4190   -2.8260   22.0300 N   0  0  0  0  0  0  0  0  0  0  0  0
    6.6730   -3.5870   22.7340 C   0  0  0  0  0  0  0  0  0  0  0  0
    5.7780   -4.5160   22.5690 C   0  0  0  0  0  0  0  0  0  0  0  0
    4.6580   -4.3560   23.4070 C   0  0  0  0  0  0  0  0  0  0  0  0
    3.5610   -5.3600   23.4270 C   0  0  0  0  0  0  0  0  0  0  0  0
    3.8190   -6.4690   22.4880 C   0  0  0  0  0  0  0  0  0  0  0  0
    4.9930   -6.4850   21.6850 C   0  0  0  0  0  0  0  0  0  0  0  0
    5.9420   -5.5440   21.7250 C   0  0  0  0  0  0  0  0  0  0  0  0
    6.8430   -3.4090   24.0020 C   0  0  0  0  0  0  0  0  0  0  0  0
    7.7130   -2.5130   24.3970 C   0  0  0  0  0  0  0  0  0  0  0  0
    7.0340   -3.2150   25.3330 C   0  0  0  0  0  0  0  0  0  0  0  0
    6.6910   -4.5270   24.9370 C   0  0  0  0  0  0  0  0  0  0  0  0
    5.9990   -5.3570   25.8240 C   0  0  0  0  0  0  0  0  0  0  0  0
    5.6660   -4.8660   27.0770 C   0  0  0  0  0  0  0  0  0  0  0  0
    4.8280   -5.8920   28.1750 Cl  0  0  0  0  0  0  0  0  0  0  0  0
    5.9800   -3.5630   27.4730 C   0  0  0  0  0  0  0  0  0  0  0  0
    6.6640   -2.7270   26.5970 C   0  0  0  0  0  0  0  0  0  0  0  0
    8.5690   -0.1550   22.0770 C   0  0  0  0  0  0  0  0  0  0  0  0
    7.2760   -0.1400   21.3750 N   0  0  0  0  0  0  0  0  0  0  0  0
    7.3260    0.2080   20.1850 O   0  0  0  0  0  0  0  0  0  0  0  0
    6.2990    0.0930   22.0990 O   0  0  0  0  0  0  0  0  0  0  0  0
    9.4470    0.9410   21.9470 C   0  0  0  0  0  0  0  0  0  0  0  0
  1  2  2  0
  2  3  1  0
  2  4  1  0
  4  5  2  0
  5  6  1  0
  6  7  2  0
  7  8  1  0
  8  9  1  0
  9 10  2  0
 10 11  1  0
 11 12  2  0
 12 13  1  0
 13 14  2  0
 14 15  1  0
 11 16  1  0
 15 16  2  0
 10 17  1  0
  8 18  1  0
 17 18  2  0
 18 19  1  0
 19 20  2  0
 20 21  1  0
 21 22  2  0
 22 23  1  0
 22 24  1  0
 19 25  1  0
 24 25  2  0
  7 26  1  0
 26 27  1  0
 27 28  2  0
 27 29  1  0
  4 30  1  0
 26 30  2  0
M  CHG  4   2   1   3  -1  27   1  29  -1
M  END
