VID-DNY-1d288c6c-12
     RDKit          3D

 31 34  0  0  0  0  0  0  0  0999 V2000
   -0.3780   -8.4090   29.9360 O   0  0  0  0  0  0  0  0  0  0  0  0
   -0.0570   -8.4500   28.7410 N   0  0  0  0  0  0  0  0  0  0  0  0
   -0.7390   -9.0010   27.8600 O   0  0  0  0  0  0  0  0  0  0  0  0
    1.0050   -7.5220   28.2940 C   0  0  0  0  0  0  0  0  0  0  0  0
    2.3840   -7.7760   28.7970 C   0  0  0  0  0  0  0  0  0  0  0  0
    3.5720   -6.9330   28.4510 C   0  0  0  0  0  0  0  0  0  0  0  0
    3.2980   -5.7590   27.5230 C   0  0  0  0  0  0  0  0  0  0  0  0
    4.3910   -4.9070   27.1530 N   0  0  0  0  0  0  0  0  0  0  0  0
    4.9940   -5.0700   25.9360 N   0  0  0  0  0  0  0  0  0  0  0  0
    5.9970   -4.1320   25.8170 C   0  0  0  0  0  0  0  0  0  0  0  0
    6.7410   -4.0230   24.4530 C   0  0  0  0  0  0  0  0  0  0  0  0
    6.6450   -5.4930   24.6070 C   0  0  0  0  0  0  0  0  0  0  0  0
    6.2360   -5.7330   26.0410 C   0  0  0  0  0  0  0  0  0  0  0  0
    6.0550   -4.6170   26.9130 C   0  0  0  0  0  0  0  0  0  0  0  0
    5.7290   -5.1970   28.7020 Br  0  0  0  0  0  0  0  0  0  0  0  0
    6.1530   -3.1790   26.5050 C   0  0  0  0  0  0  0  0  0  0  0  0
    6.5250   -2.7900   25.1630 C   0  0  0  0  0  0  0  0  0  0  0  0
    6.0630   -3.3620   27.0000 C   0  0  0  0  0  0  0  0  0  0  0  0
    5.0180   -3.8710   27.8080 C   0  0  0  0  0  0  0  0  0  0  0  0
    4.6040   -3.4240   29.0790 C   0  0  0  0  0  0  0  0  0  0  0  0
    3.6160   -4.2510   29.8940 C   0  0  0  0  0  0  0  0  0  0  0  0
    3.2910   -3.6560   31.1300 C   0  0  0  0  0  0  0  0  0  0  0  0
    3.8160   -2.4350   31.5690 C   0  0  0  0  0  0  0  0  0  0  0  0
    3.4480   -1.9490   32.7580 F   0  0  0  0  0  0  0  0  0  0  0  0
    4.7140   -1.7170   30.7960 C   0  0  0  0  0  0  0  0  0  0  0  0
    5.1030   -2.2090   29.5650 C   0  0  0  0  0  0  0  0  0  0  0  0
    1.9460   -5.5510   27.0530 C   0  0  0  0  0  0  0  0  0  0  0  0
    1.5360   -4.4660   26.1530 N   0  0  0  0  0  0  0  0  0  0  0  0
    1.3820   -4.7990   24.9620 O   0  0  0  0  0  0  0  0  0  0  0  0
    0.8970   -3.5510   26.7020 O   0  0  0  0  0  0  0  0  0  0  0  0
    0.7760   -6.4460   27.4440 C   0  0  0  0  0  0  0  0  0  0  0  0
  1  2  2  0
  2  3  1  0
  2  4  1  0
  4  5  2  0
  5  6  1  0
  6  7  2  0
  7  8  1  0
  8  9  1  0
  9 10  2  0
 10 11  1  0
 11 12  2  0
 12 13  1  0
 13 14  2  0
 14 15  1  0
 14 16  1  0
 11 17  1  0
 16 17  2  0
 10 18  1  0
  8 19  1  0
 18 19  2  0
 19 20  1  0
 20 21  2  0
 21 22  1  0
 22 23  2  0
 23 24  1  0
 23 25  1  0
 20 26  1  0
 25 26  2  0
  7 27  1  0
 27 28  1  0
 28 29  2  0
 28 30  1  0
  4 31  1  0
 27 31  2  0
M  CHG  4   2   1   3  -1  28   1  30  -1
M  END
