VID-DNY-1d288c6c-4
     RDKit          3D

 31 34  0  0  0  0  0  0  0  0999 V2000
    3.7370    5.0360   21.4980 O   0  0  0  0  0  0  0  0  0  0  0  0
    3.8610    4.0030   20.8230 N   0  0  0  0  0  0  0  0  0  0  0  0
    2.9360    3.5370   20.1460 O   0  0  0  0  0  0  0  0  0  0  0  0
    4.8220    3.0150   21.3400 C   0  0  0  0  0  0  0  0  0  0  0  0
    5.5580    2.3000   20.4570 C   0  0  0  0  0  0  0  0  0  0  0  0
    6.5380    1.2780   20.9000 C   0  0  0  0  0  0  0  0  0  0  0  0
    6.6500    1.0920   22.4410 C   0  0  0  0  0  0  0  0  0  0  0  0
    7.5480    0.1070   22.9570 N   0  0  0  0  0  0  0  0  0  0  0  0
    6.9390   -1.0140   23.3600 N   0  0  0  0  0  0  0  0  0  0  0  0
    7.8620   -1.8320   23.8500 C   0  0  0  0  0  0  0  0  0  0  0  0
    7.3810   -3.0230   24.3720 C   0  0  0  0  0  0  0  0  0  0  0  0
    7.4980   -4.2920   23.7950 C   0  0  0  0  0  0  0  0  0  0  0  0
    6.8520   -5.4800   24.5400 C   0  0  0  0  0  0  0  0  0  0  0  0
    6.1350   -5.1840   25.9090 C   0  0  0  0  0  0  0  0  0  0  0  0
    5.3190   -6.4160   27.0780 Br  0  0  0  0  0  0  0  0  0  0  0  0
    6.1150   -3.7590   26.3490 C   0  0  0  0  0  0  0  0  0  0  0  0
    6.7170   -2.7900   25.5810 C   0  0  0  0  0  0  0  0  0  0  0  0
    9.1510   -1.2450   23.7430 C   0  0  0  0  0  0  0  0  0  0  0  0
    8.9260    0.0260   23.1730 C   0  0  0  0  0  0  0  0  0  0  0  0
    9.9340    0.9730   22.9420 C   0  0  0  0  0  0  0  0  0  0  0  0
    9.5170    2.4010   22.7320 C   0  0  0  0  0  0  0  0  0  0  0  0
   10.4490    3.4110   22.5370 C   0  0  0  0  0  0  0  0  0  0  0  0
   11.8020    3.1120   22.5370 C   0  0  0  0  0  0  0  0  0  0  0  0
   12.9180    4.3980   22.3080 Cl  0  0  0  0  0  0  0  0  0  0  0  0
   12.2680    1.6480   22.7420 C   0  0  0  0  0  0  0  0  0  0  0  0
   11.3040    0.6420   22.9320 C   0  0  0  0  0  0  0  0  0  0  0  0
    5.8310    1.9070   23.2640 C   0  0  0  0  0  0  0  0  0  0  0  0
    5.8200    1.8590   24.7280 N   0  0  0  0  0  0  0  0  0  0  0  0
    5.0140    1.0770   25.2480 O   0  0  0  0  0  0  0  0  0  0  0  0
    6.2430    2.8760   25.2940 O   0  0  0  0  0  0  0  0  0  0  0  0
    4.9380    2.8470   22.7210 C   0  0  0  0  0  0  0  0  0  0  0  0
  1  2  2  0
  2  3  1  0
  2  4  1  0
  4  5  2  0
  5  6  1  0
  6  7  2  0
  7  8  1  0
  8  9  1  0
  9 10  2  0
 10 11  1  0
 11 12  2  0
 12 13  1  0
 13 14  2  0
 14 15  1  0
 14 16  1  0
 11 17  1  0
 16 17  2  0
 10 18  1  0
  8 19  1  0
 18 19  2  0
 19 20  1  0
 20 21  2  0
 21 22  1  0
 22 23  2  0
 23 24  1  0
 23 25  1  0
 20 26  1  0
 25 26  2  0
  7 27  1  0
 27 28  1  0
 28 29  2  0
 28 30  1  0
  4 31  1  0
 27 31  2  0
M  CHG  4   2   1   3  -1  28   1  30  -1
M  END
