VID-DNY-1d288c6c-10
     RDKit          3D

 30 33  0  0  0  0  0  0  0  0999 V2000
   10.2670    2.1290   22.4900 O   0  0  0  0  0  0  0  0  0  0  0  0
    9.4220    1.6290   21.7380 N   0  0  0  0  0  0  0  0  0  0  0  0
    8.6430    2.3090   21.0700 O   0  0  0  0  0  0  0  0  0  0  0  0
    8.9150    0.3360   22.1620 C   0  0  0  0  0  0  0  0  0  0  0  0
    9.4910   -0.2590   23.3820 C   0  0  0  0  0  0  0  0  0  0  0  0
    8.9940   -1.4690   23.8270 C   0  0  0  0  0  0  0  0  0  0  0  0
    7.9960   -2.1200   23.1560 C   0  0  0  0  0  0  0  0  0  0  0  0
    7.5810   -3.3230   23.7930 N   0  0  0  0  0  0  0  0  0  0  0  0
    6.4060   -3.8330   23.3580 N   0  0  0  0  0  0  0  0  0  0  0  0
    6.2240   -4.8590   24.1160 C   0  0  0  0  0  0  0  0  0  0  0  0
    5.1240   -5.7230   24.1030 C   0  0  0  0  0  0  0  0  0  0  0  0
    4.3740   -6.0060   22.9530 C   0  0  0  0  0  0  0  0  0  0  0  0
    3.1830   -6.9590   23.0380 C   0  0  0  0  0  0  0  0  0  0  0  0
    2.8920   -7.5490   24.3900 C   0  0  0  0  0  0  0  0  0  0  0  0
    3.6930   -7.2110   25.4760 C   0  0  0  0  0  0  0  0  0  0  0  0
    4.7660   -6.3280   25.3300 C   0  0  0  0  0  0  0  0  0  0  0  0
    7.2950   -4.9600   24.9700 C   0  0  0  0  0  0  0  0  0  0  0  0
    8.3090   -3.9600   24.8720 C   0  0  0  0  0  0  0  0  0  0  0  0
    8.7350   -4.8190   25.9160 C   0  0  0  0  0  0  0  0  0  0  0  0
    9.7870   -5.6200   25.8840 C   0  0  0  0  0  0  0  0  0  0  0  0
    9.2330   -5.7210   26.8930 C   0  0  0  0  0  0  0  0  0  0  0  0
    8.2230   -4.6860   26.4450 C   0  0  0  0  0  0  0  0  0  0  0  0
    7.9270   -5.0940   27.6890 F   0  0  0  0  0  0  0  0  0  0  0  0
    7.1360   -4.0600   26.9020 C   0  0  0  0  0  0  0  0  0  0  0  0
    7.9050   -4.8990   27.3500 C   0  0  0  0  0  0  0  0  0  0  0  0
    7.4570   -1.5550   21.9640 C   0  0  0  0  0  0  0  0  0  0  0  0
    6.3960   -2.1580   21.1790 N   0  0  0  0  0  0  0  0  0  0  0  0
    6.0380   -1.4840   20.2000 O   0  0  0  0  0  0  0  0  0  0  0  0
    5.6740   -2.9670   21.7700 O   0  0  0  0  0  0  0  0  0  0  0  0
    7.9130   -0.3240   21.4590 C   0  0  0  0  0  0  0  0  0  0  0  0
  1  2  2  0
  2  3  1  0
  2  4  1  0
  4  5  2  0
  5  6  1  0
  6  7  2  0
  7  8  1  0
  8  9  1  0
  9 10  2  0
 10 11  1  0
 11 12  2  0
 12 13  1  0
 13 14  2  0
 14 15  1  0
 11 16  1  0
 15 16  2  0
 10 17  1  0
  8 18  1  0
 17 18  2  0
 18 19  1  0
 19 20  2  0
 20 21  1  0
 21 22  2  0
 22 23  1  0
 22 24  1  0
 19 25  1  0
 24 25  2  0
  7 26  1  0
 26 27  1  0
 27 28  2  0
 27 29  1  0
  4 30  1  0
 26 30  2  0
M  CHG  4   2   1   3  -1  27   1  29  -1
M  END
