VID-DNY-1d288c6c-6
     RDKit          3D

 30 33  0  0  0  0  0  0  0  0999 V2000
    8.3500    3.3270   21.2110 O   0  0  0  0  0  0  0  0  0  0  0  0
    9.3520    2.6490   21.4350 N   0  0  0  0  0  0  0  0  0  0  0  0
   10.2890    3.0890   22.1270 O   0  0  0  0  0  0  0  0  0  0  0  0
    8.9860    1.2980   21.8080 C   0  0  0  0  0  0  0  0  0  0  0  0
    9.6390    0.8230   22.8670 C   0  0  0  0  0  0  0  0  0  0  0  0
    9.3370   -0.4880   23.4090 C   0  0  0  0  0  0  0  0  0  0  0  0
    8.2250   -1.2380   22.6640 C   0  0  0  0  0  0  0  0  0  0  0  0
    7.8240   -2.4180   23.2450 N   0  0  0  0  0  0  0  0  0  0  0  0
    6.6960   -2.9060   22.6580 N   0  0  0  0  0  0  0  0  0  0  0  0
    6.4210   -3.8920   23.4050 C   0  0  0  0  0  0  0  0  0  0  0  0
    5.3680   -4.7670   23.3700 C   0  0  0  0  0  0  0  0  0  0  0  0
    5.7270   -6.0740   23.5940 C   0  0  0  0  0  0  0  0  0  0  0  0
    4.6520   -7.1380   23.6370 C   0  0  0  0  0  0  0  0  0  0  0  0
    3.2170   -6.7310   23.4150 C   0  0  0  0  0  0  0  0  0  0  0  0
    2.9810   -5.2760   23.1750 C   0  0  0  0  0  0  0  0  0  0  0  0
    4.0420   -4.3660   23.1630 C   0  0  0  0  0  0  0  0  0  0  0  0
    7.3710   -3.9860   24.3660 C   0  0  0  0  0  0  0  0  0  0  0  0
    8.4070   -3.0320   24.3890 C   0  0  0  0  0  0  0  0  0  0  0  0
    8.4330   -3.9660   25.3690 C   0  0  0  0  0  0  0  0  0  0  0  0
    9.3320   -5.0720   25.8380 C   0  0  0  0  0  0  0  0  0  0  0  0
    8.9030   -5.8360   26.9350 C   0  0  0  0  0  0  0  0  0  0  0  0
    7.6610   -5.5310   27.5420 C   0  0  0  0  0  0  0  0  0  0  0  0
    6.8250   -6.3700   28.9870 Br  0  0  0  0  0  0  0  0  0  0  0  0
    6.8030   -4.4150   27.0560 C   0  0  0  0  0  0  0  0  0  0  0  0
    7.2280   -3.7000   26.0090 C   0  0  0  0  0  0  0  0  0  0  0  0
    7.6280   -0.6910   21.5320 C   0  0  0  0  0  0  0  0  0  0  0  0
    6.5800   -1.3590   20.7640 N   0  0  0  0  0  0  0  0  0  0  0  0
    6.5140   -1.0330   19.5720 O   0  0  0  0  0  0  0  0  0  0  0  0
    5.6250   -1.7960   21.4100 O   0  0  0  0  0  0  0  0  0  0  0  0
    8.0030    0.5860   21.0990 C   0  0  0  0  0  0  0  0  0  0  0  0
  1  2  2  0
  2  3  1  0
  2  4  1  0
  4  5  2  0
  5  6  1  0
  6  7  2  0
  7  8  1  0
  8  9  1  0
  9 10  2  0
 10 11  1  0
 11 12  2  0
 12 13  1  0
 13 14  2  0
 14 15  1  0
 11 16  1  0
 15 16  2  0
 10 17  1  0
  8 18  1  0
 17 18  2  0
 18 19  1  0
 19 20  2  0
 20 21  1  0
 21 22  2  0
 22 23  1  0
 22 24  1  0
 19 25  1  0
 24 25  2  0
  7 26  1  0
 26 27  1  0
 27 28  2  0
 27 29  1  0
  4 30  1  0
 26 30  2  0
M  CHG  4   2   1   3  -1  27   1  29  -1
M  END
