VIJ-CYC-1a381570-3
     RDKit          3D

 27 28  0  0  0  0  0  0  0  0999 V2000
    2.9470    1.5260   28.6530 C   0  0  0  0  0  0  0  0  0  0  0  0
    2.9760    0.2630   27.9240 N   0  0  0  0  0  0  0  0  0  0  0  0
    3.7990   -0.7300   28.6440 C   0  0  0  0  0  0  0  0  0  0  0  0
    4.0510   -0.6300   29.8500 O   0  0  0  0  0  0  0  0  0  0  0  0
    4.2380   -1.7570   27.8100 C   0  0  0  0  0  0  0  0  0  0  0  0
    4.8080   -2.9140   28.3970 C   0  0  0  0  0  0  0  0  0  0  0  0
    5.2940   -4.0160   27.6660 C   0  0  0  0  0  0  0  0  0  0  0  0
    5.1530   -3.8560   26.1480 C   0  0  0  0  0  0  0  0  0  0  0  0
    5.6660   -5.0020   25.2530 C   0  0  0  0  0  0  0  0  0  0  0  0
    7.4450   -4.8900   25.3510 S   0  0  0  0  0  0  0  0  0  0  0  0
    8.1050   -5.8820   24.5730 O   0  0  0  0  0  0  0  0  0  0  0  0
    7.6800   -4.8950   26.7650 O   0  0  0  0  0  0  0  0  0  0  0  0
    7.7040   -3.3740   24.6710 N   0  0  0  0  0  0  0  0  0  0  0  0
    8.7980   -3.1250   23.6370 C   0  0  0  0  0  0  0  0  0  0  0  0
    8.8330   -1.7640   23.2160 C   0  0  0  0  0  0  0  0  0  0  0  0
    7.8920   -1.1400   23.9910 F   0  0  0  0  0  0  0  0  0  0  0  0
    8.2100   -1.7720   21.9980 F   0  0  0  0  0  0  0  0  0  0  0  0
    9.9890   -0.9430   23.1080 C   0  0  0  0  0  0  0  0  0  0  0  0
   10.3880    0.3070   23.0570 C   0  0  0  0  0  0  0  0  0  0  0  0
   11.9010    0.0940   22.9290 C   0  0  0  0  0  0  0  0  0  0  0  0
   12.6380    1.2190   22.8440 C   0  0  0  0  0  0  0  0  0  0  0  0
   13.8150    0.6340   22.7530 F   0  0  0  0  0  0  0  0  0  0  0  0
   11.4030    0.8430   22.9540 C   0  0  0  0  0  0  0  0  0  0  0  0
   11.2740   -0.8510   22.9960 C   0  0  0  0  0  0  0  0  0  0  0  0
   12.2170   -1.8080   22.9300 F   0  0  0  0  0  0  0  0  0  0  0  0
    4.5200   -2.5770   25.5340 C   0  0  0  0  0  0  0  0  0  0  0  0
    4.0920   -1.5860   26.4120 C   0  0  0  0  0  0  0  0  0  0  0  0
  1  2  1  0
  2  3  1  0
  3  4  2  0
  3  5  1  0
  5  6  2  0
  6  7  1  0
  7  8  2  0
  8  9  1  0
  9 10  1  0
 10 11  2  0
 10 12  2  0
 10 13  1  0
 13 14  1  0
 14 15  1  0
 15 16  1  0
 15 17  1  0
 15 18  1  0
 18 19  2  0
 19 20  1  0
 20 21  2  0
 21 22  1  0
 21 23  1  0
 18 24  1  0
 23 24  2  0
 24 25  1  0
  8 26  1  0
  5 27  1  0
 26 27  2  0
M  END
