VIJ-CYC-1a381570-5
     RDKit          3D

 20 21  0  0  0  0  0  0  0  0999 V2000
    6.4710    0.7360   18.7670 C   0  0  0  0  0  0  0  0  0  0  0  0
    6.4260   -0.1090   20.0130 C   0  0  0  0  0  0  0  0  0  0  0  0
    5.4510   -0.2790   20.9910 C   0  0  0  0  0  0  0  0  0  0  0  0
    6.7150   -1.0850   21.1960 C   0  0  2  0  0  0  0  0  0  0  0  0
    7.5800   -0.5980   22.3250 C   0  0  0  0  0  0  0  0  0  0  0  0
    7.2780    0.3830   22.9880 O   0  0  0  0  0  0  0  0  0  0  0  0
    8.7780   -1.4300   22.5120 N   0  0  0  0  0  0  0  0  0  0  0  0
    9.6160   -1.2770   23.6230 C   0  0  1  0  0  0  0  0  0  0  0  0
   10.3840   -2.4300   23.8090 C   0  0  0  0  0  0  0  0  0  0  0  0
   10.3880    0.0520   23.4650 C   0  0  0  0  0  0  0  0  0  0  0  0
   10.2070    1.2950   23.6270 C   0  0  0  0  0  0  0  0  0  0  0  0
    9.5260    2.3940   23.9530 C   0  0  0  0  0  0  0  0  0  0  0  0
   10.5930    3.1430   23.6140 C   0  0  0  0  0  0  0  0  0  0  0  0
   10.4680    4.8730   23.7540 S   0  0  0  0  0  0  0  0  0  0  0  0
   11.6930    5.5240   23.3770 O   0  0  0  0  0  0  0  0  0  0  0  0
    9.7880    5.2380   24.9710 O   0  0  0  0  0  0  0  0  0  0  0  0
    9.3680    5.3200   22.5730 N   0  0  0  0  0  0  0  0  0  0  0  0
    8.9840    6.6740   22.4970 C   0  0  0  0  0  0  0  0  0  0  0  0
   11.7370    2.1960   23.1480 C   0  0  0  0  0  0  0  0  0  0  0  0
   11.6420    0.6140   23.0720 C   0  0  0  0  0  0  0  0  0  0  0  0
  1  2  2  3
  2  3  1  0
  2  4  1  0
  3  4  1  0
  4  5  1  1
  5  6  2  0
  5  7  1  0
  7  8  1  0
  8  9  1  6
  8 10  1  0
 10 11  2  0
 11 12  1  0
 12 13  2  0
 13 14  1  0
 14 15  2  0
 14 16  2  0
 14 17  1  0
 17 18  1  0
 13 19  1  0
 10 20  1  0
 19 20  2  0
M  END
