VIJ-CYC-1a381570-6
     RDKit          3D

 34 36  0  0  0  0  0  0  0  0999 V2000
    4.6270   10.0720   18.9760 C   0  0  0  0  0  0  0  0  0  0  0  0
    5.6940    9.2850   19.6870 C   0  0  0  0  0  0  0  0  0  0  0  0
    5.2890    8.1060   20.4270 C   0  0  0  0  0  0  0  0  0  0  0  0
    6.2290    7.2870   21.0470 C   0  0  0  0  0  0  0  0  0  0  0  0
    5.8660    6.1460   21.7680 C   0  0  0  0  0  0  0  0  0  0  0  0
    4.5370    5.7500   21.9140 C   0  0  0  0  0  0  0  0  0  0  0  0
    4.2180    4.5900   22.6550 C   0  0  0  0  0  0  0  0  0  0  0  0
    3.5070    4.6660   23.9320 N   0  0  0  0  0  0  0  0  0  0  0  0
    3.4030    3.3170   24.3220 O   0  0  0  0  0  0  0  0  0  0  0  0
    4.0200    2.5700   23.3120 C   0  0  0  0  0  0  0  0  0  0  0  0
    4.1060    1.0420   23.3910 C   0  0  1  0  0  0  0  0  0  0  0  0
    3.3000    0.5090   22.2540 C   0  0  0  0  0  0  0  0  0  0  0  0
    5.5030    0.7040   23.0690 N   0  0  0  0  0  0  0  0  0  0  0  0
    6.0500   -0.6140   23.4050 C   0  0  0  0  0  0  0  0  0  0  0  0
    5.5230   -1.5310   24.0240 O   0  0  0  0  0  0  0  0  0  0  0  0
    7.3560   -0.9010   22.9700 C   0  0  0  0  0  0  0  0  0  0  0  0
    7.4440   -1.0370   21.6120 O   0  0  0  0  0  0  0  0  0  0  0  0
    8.4620   -1.0380   23.7840 N   0  0  0  0  0  0  0  0  0  0  0  0
    9.6420   -1.3760   23.0000 C   0  0  2  0  0  0  0  0  0  0  0  0
   10.3490   -2.5600   23.6520 C   0  0  0  0  0  0  0  0  0  0  0  0
   10.4310   -0.2020   22.9460 C   0  0  0  0  0  0  0  0  0  0  0  0
   10.3690    1.1670   23.1190 C   0  0  0  0  0  0  0  0  0  0  0  0
    9.5420    2.2340   23.4450 C   0  0  0  0  0  0  0  0  0  0  0  0
   10.6390    3.0860   23.3070 C   0  0  0  0  0  0  0  0  0  0  0  0
   10.5190    4.8540   23.5920 S   0  0  0  0  0  0  0  0  0  0  0  0
   11.5890    5.5970   22.9600 O   0  0  0  0  0  0  0  0  0  0  0  0
   10.2130    5.0520   24.9980 O   0  0  0  0  0  0  0  0  0  0  0  0
    9.0920    5.2400   22.7950 N   0  0  0  0  0  0  0  0  0  0  0  0
    8.3040    4.1480   22.2200 C   0  0  0  0  0  0  0  0  0  0  0  0
   11.9410    2.0890   22.8740 C   0  0  0  0  0  0  0  0  0  0  0  0
   11.8250    0.3830   22.6900 C   0  0  0  0  0  0  0  0  0  0  0  0
    4.5090    3.3210   22.3110 N   0  0  0  0  0  0  0  0  0  0  0  0
    3.5400    6.5350   21.3080 C   0  0  0  0  0  0  0  0  0  0  0  0
    3.8490    7.6740   20.5850 C   0  0  0  0  0  0  0  0  0  0  0  0
  1  2  1  0
  2  3  1  0
  3  4  2  0
  4  5  1  0
  5  6  2  0
  6  7  1  0
  7  8  2  0
  8  9  1  0
  9 10  1  0
 10 11  1  0
 11 12  1  6
 11 13  1  0
 13 14  1  0
 14 15  2  0
 14 16  1  0
 16 17  2  0
 16 18  1  0
 18 19  1  0
 19 20  1  1
 19 21  1  0
 21 22  2  0
 22 23  1  0
 23 24  2  0
 24 25  1  0
 25 26  2  0
 25 27  2  0
 25 28  1  0
 28 29  1  0
 24 30  1  0
 21 31  1  0
 30 31  2  0
  7 32  1  0
 10 32  2  0
  6 33  1  0
  3 34  1  0
 33 34  2  0
M  END
