VIJ-CYC-1a381570-11
     RDKit          3D

 21 21  0  0  0  0  0  0  0  0999 V2000
    8.9120    6.6380   22.3340 C   0  0  0  0  0  0  0  0  0  0  0  0
    9.1000    5.3640   22.8250 N   0  0  0  0  0  0  0  0  0  0  0  0
   10.5200    4.8400   23.6160 S   0  0  0  0  0  0  0  0  0  0  0  0
   11.6390    5.4920   22.9790 O   0  0  0  0  0  0  0  0  0  0  0  0
   10.2610    5.0570   25.0260 O   0  0  0  0  0  0  0  0  0  0  0  0
   10.5550    3.1060   23.3310 C   0  0  0  0  0  0  0  0  0  0  0  0
    9.4420    2.3310   23.4960 C   0  0  0  0  0  0  0  0  0  0  0  0
   10.0560    1.2550   23.1970 C   0  0  0  0  0  0  0  0  0  0  0  0
   10.2860    0.0380   22.9790 C   0  0  0  0  0  0  0  0  0  0  0  0
    9.5890   -1.2000   23.0010 C   0  0  2  0  0  0  0  0  0  0  0  0
   10.2870   -2.3780   23.5530 C   0  0  0  0  0  0  0  0  0  0  0  0
    9.0170   -1.6340   21.7570 N   0  0  0  0  0  0  0  0  0  0  0  0
    7.6710   -1.8460   21.6340 C   0  0  0  0  0  0  0  0  0  0  0  0
    7.0210   -2.5670   22.3770 O   0  0  0  0  0  0  0  0  0  0  0  0
    7.1480   -1.1290   20.5390 N   0  0  0  0  0  0  0  0  0  0  0  0
    5.9280   -1.3300   19.9650 C   0  0  0  0  0  0  0  0  0  0  0  0
    6.0070   -1.3850   18.6320 C   0  0  0  0  0  0  0  0  0  0  0  0
    4.9650   -0.1810   20.3050 C   0  0  0  0  0  0  0  0  0  0  0  0
    5.3400   -2.6610   20.4570 C   0  0  0  0  0  0  0  0  0  0  0  0
   11.6000    0.5370   22.7090 C   0  0  0  0  0  0  0  0  0  0  0  0
   11.7380    2.0950   22.8850 C   0  0  0  0  0  0  0  0  0  0  0  0
  1  2  1  0
  3  2  1  0
  3  4  2  0
  3  5  2  0
  3  6  1  0
  6  7  2  0
  7  8  1  0
  8  9  2  0
  9 10  1  0
 10 11  1  6
 10 12  1  0
 12 13  1  0
 13 14  2  0
 13 15  1  0
 16 15  1  0
 16 17  1  0
 16 18  1  0
 16 19  1  0
  9 20  1  0
  6 21  1  0
 20 21  2  0
M  END
