VIK-SYN-bf9c9ac8-3
     RDKit          3D

 14 14  0  0  0  0  0  0  0  0999 V2000
    7.3190   -3.9820   23.9070 C   0  0  0  0  0  0  0  0  0  0  0  0
    8.5950   -3.4270   23.5190 N   0  0  0  0  0  0  0  0  0  0  0  0
    8.7600   -2.0800   23.3220 C   0  0  0  0  0  0  0  0  0  0  0  0
    7.7890   -1.1960   22.7300 O   0  0  0  0  0  0  0  0  0  0  0  0
   10.0180   -1.4070   23.7450 C   0  0  0  0  0  0  0  0  0  0  0  0
   10.2300   -0.0030   23.2980 C   0  0  0  0  0  0  0  0  0  0  0  0
   11.5610    0.4220   23.1600 C   0  0  0  0  0  0  0  0  0  0  0  0
   12.6150   -0.4650   23.5810 N   0  0  0  0  0  0  0  0  0  0  0  0
   13.4090   -0.4090   22.5470 C   0  0  0  0  0  0  0  0  0  0  0  0
   14.1380    0.5280   22.4280 O   0  0  0  0  0  0  0  0  0  0  0  0
   13.2810   -1.4550   21.6540 C   0  0  0  0  0  0  0  0  0  0  0  0
   13.4340   -2.6770   22.1490 F   0  0  0  0  0  0  0  0  0  0  0  0
   12.2440   -1.7370   24.0290 C   0  0  0  0  0  0  0  0  0  0  0  0
   11.1840   -2.2810   23.3630 C   0  0  0  0  0  0  0  0  0  0  0  0
  1  2  1  0
  2  3  1  0
  3  4  2  0
  3  5  1  0
  5  6  1  0
  6  7  1  0
  7  8  1  0
  8  9  1  0
  9 10  2  0
  9 11  1  0
 11 12  1  0
  8 13  1  0
  5 14  1  0
 13 14  1  0
M  END
