VIT-UNK-cff011c0-1
     RDKit          3D

 27 29  0  0  0  0  0  0  0  0999 V2000
    1.2840    4.2520   20.0420 O   0  0  0  0  0  0  0  0  0  0  0  0
    2.3150    3.6370   20.2430 C   0  0  0  0  0  0  0  0  0  0  0  0
    3.5680    4.1340   20.2890 N   0  0  0  0  0  0  0  0  0  0  0  0
    4.3760    3.2100   20.8780 C   0  0  0  0  0  0  0  0  0  0  0  0
    5.4270    3.4510   21.4510 O   0  0  0  0  0  0  0  0  0  0  0  0
    3.7920    1.9210   20.7310 C   0  0  2  0  0  0  0  0  0  0  0  0
    4.3650    0.9400   19.7430 C   0  0  0  0  0  0  0  0  0  0  0  0
    4.9870   -0.3200   20.3090 C   0  0  0  0  0  0  0  0  0  0  0  0
    5.4110   -1.2800   19.3680 C   0  0  1  0  0  0  0  0  0  0  0  0
    6.9100   -0.5920   18.7070 Cl  0  0  0  0  0  0  0  0  0  0  0  0
    5.7010   -2.5390   19.8950 C   0  0  0  0  0  0  0  0  0  0  0  0
    5.2340   -3.6190   19.4640 O   0  0  0  0  0  0  0  0  0  0  0  0
    6.5860   -2.4650   20.9380 N   0  0  0  0  0  0  0  0  0  0  0  0
    6.2560   -3.0700   22.2390 C   0  0  0  0  0  0  0  0  0  0  0  0
    7.3910   -3.3300   23.0260 C   0  0  0  0  0  0  0  0  0  0  0  0
    8.2900   -2.1620   23.0590 N   0  0  0  0  0  0  0  0  0  0  0  0
    9.3170   -2.2780   24.0530 C   0  0  0  0  0  0  0  0  0  0  0  0
   10.3800   -1.4940   23.6670 C   0  0  0  0  0  0  0  0  0  0  0  0
   10.2260   -0.1160   23.5000 C   0  0  0  0  0  0  0  0  0  0  0  0
   11.3030    0.6780   23.1150 C   0  0  0  0  0  0  0  0  0  0  0  0
   12.5430    0.0960   22.8910 C   0  0  0  0  0  0  0  0  0  0  0  0
   12.6720   -1.2820   23.0540 C   0  0  0  0  0  0  0  0  0  0  0  0
   13.8170   -1.8830   22.8470 F   0  0  0  0  0  0  0  0  0  0  0  0
   11.6100   -2.0710   23.4390 C   0  0  0  0  0  0  0  0  0  0  0  0
    8.6310   -1.7090   21.7810 C   0  0  0  0  0  0  0  0  0  0  0  0
    7.5850   -1.3960   20.9540 C   0  0  0  0  0  0  0  0  0  0  0  0
    2.4210    2.2890   20.4750 N   0  0  0  0  0  0  0  0  0  0  0  0
  1  2  2  0
  2  3  1  0
  3  4  1  0
  4  5  2  0
  4  6  1  0
  6  7  1  6
  7  8  1  0
  9  8  1  1
  9 10  1  0
  9 11  1  0
 11 12  2  0
 11 13  1  0
 13 14  1  0
 14 15  1  0
 15 16  1  0
 16 17  1  0
 17 18  1  0
 18 19  2  0
 19 20  1  0
 20 21  2  0
 21 22  1  0
 22 23  1  0
 18 24  1  0
 22 24  2  0
 16 25  1  0
 13 26  1  0
 25 26  1  0
  2 27  1  0
  6 27  1  0
M  END
