VIT-UNK-525497ca-3
     RDKit          3D

 26 28  0  0  0  0  0  0  0  0999 V2000
    7.9450   -5.3290   23.6160 C   0  0  0  0  0  0  0  0  0  0  0  0
    6.7720   -4.5130   23.7890 C   0  0  0  0  0  0  0  0  0  0  0  0
    5.8990   -5.0370   24.8440 C   0  0  0  0  0  0  0  0  0  0  0  0
    6.9510   -3.3420   24.0900 O   0  0  0  0  0  0  0  0  0  0  0  0
    6.1130   -4.5390   22.4000 C   0  0  1  0  0  0  0  0  0  0  0  0
    5.3570   -5.7260   22.2330 C   0  0  0  0  0  0  0  0  0  0  0  0
    4.2870   -5.7990   23.0840 C   0  0  2  0  0  0  0  0  0  0  0  0
    3.2370   -6.4570   22.5270 F   0  0  0  0  0  0  0  0  0  0  0  0
    3.9250   -4.5060   23.3890 C   0  0  2  0  0  0  0  0  0  0  0  0
    2.8080   -4.2720   24.2530 N   0  0  0  0  0  0  0  0  0  0  0  0
    3.3010   -3.4370   25.3310 C   0  0  0  0  0  0  0  0  0  0  0  0
    4.6260   -2.7090   25.0290 C   0  0  0  0  0  0  0  0  0  0  0  0
    4.9100   -1.9600   26.2310 C   0  0  0  0  0  0  0  0  0  0  0  0
    5.9640   -1.3580   26.0430 O   0  0  0  0  0  0  0  0  0  0  0  0
    4.4550   -1.6510   27.5200 C   0  0  0  0  0  0  0  0  0  0  0  0
    3.2460   -2.3410   27.7310 C   0  0  0  0  0  0  0  0  0  0  0  0
    2.6080   -2.1900   28.9230 O   0  0  0  0  0  0  0  0  0  0  0  0
    2.6760   -3.2490   26.5930 C   0  0  0  0  0  0  0  0  0  0  0  0
    3.9080   -3.6820   22.4770 O   0  0  0  0  0  0  0  0  0  0  0  0
    5.2570   -3.2580   22.2200 C   0  0  2  0  0  0  0  0  0  0  0  0
    5.4370   -2.3910   20.9540 C   0  0  0  0  0  0  0  0  0  0  0  0
    6.6730   -1.4890   20.9050 C   0  0  1  0  0  0  0  0  0  0  0  0
    6.7990   -0.8900   19.5030 C   0  0  0  0  0  0  0  0  0  0  0  0
    6.5150    0.4910   19.5470 C   0  0  0  0  0  0  0  0  0  0  0  0
    6.8720    0.9120   20.9060 N   0  0  0  0  0  0  0  0  0  0  0  0
    6.6250   -0.2450   21.7920 C   0  0  0  0  0  0  0  0  0  0  0  0
  1  2  1  0
  2  3  1  0
  2  4  1  0
  5  2  1  1
  5  6  1  0
  6  7  1  0
  7  8  1  6
  7  9  1  0
  9 10  1  6
 10 11  1  0
 11 12  2  0
 12 13  1  0
 13 14  1  0
 13 15  2  0
 15 16  1  0
 16 17  1  0
 11 18  1  0
 16 18  2  0
  9 19  1  0
  5 20  1  0
 19 20  1  0
 20 21  1  6
 22 21  1  6
 22 23  1  0
 23 24  1  0
 24 25  1  0
 22 26  1  0
 25 26  1  0
M  END
