VIT-UNK-525497ca-5
     RDKit          3D

 28 30  0  0  0  0  0  0  0  0999 V2000
   -1.4660  -10.6050   22.8290 O   0  0  0  0  0  0  0  0  0  0  0  0
   -2.5350  -10.0160   22.8380 C   0  0  0  0  0  0  0  0  0  0  0  0
   -3.0370   -9.1780   21.9030 N   0  0  0  0  0  0  0  0  0  0  0  0
   -4.2870   -8.7180   22.2460 C   0  0  0  0  0  0  0  0  0  0  0  0
   -4.9910   -8.0620   21.4890 O   0  0  0  0  0  0  0  0  0  0  0  0
   -4.6480   -9.0870   23.5570 C   0  0  2  0  0  0  0  0  0  0  0  0
   -4.5670   -8.0790   24.5310 C   0  0  0  0  0  0  0  0  0  0  0  0
   -3.3630   -7.3630   24.5610 C   0  0  0  0  0  0  0  0  0  0  0  0
   -2.8530   -7.0060   25.8160 C   0  0  0  0  0  0  0  0  0  0  0  0
   -1.5380   -6.5040   25.8870 C   0  0  2  0  0  0  0  0  0  0  0  0
   -1.4520   -5.6780   27.0510 O   0  0  0  0  0  0  0  0  0  0  0  0
   -1.0820   -5.7640   24.8010 C   0  0  1  0  0  0  0  0  0  0  0  0
   -0.4110   -4.6670   24.2480 C   0  0  0  0  0  0  0  0  0  0  0  0
    0.9640   -4.5150   24.6300 O   0  0  0  0  0  0  0  0  0  0  0  0
    1.8110   -5.5010   24.0620 C   0  0  1  0  0  0  0  0  0  0  0  0
    3.1850   -5.3330   24.5490 N   0  0  0  0  0  0  0  0  0  0  0  0
    3.6600   -4.1990   25.2330 C   0  0  0  0  0  0  0  0  0  0  0  0
    4.9020   -3.4800   24.8480 C   0  0  0  0  0  0  0  0  0  0  0  0
    5.1320   -2.3420   25.7720 C   0  0  0  0  0  0  0  0  0  0  0  0
    6.2440   -1.5810   25.5480 O   0  0  0  0  0  0  0  0  0  0  0  0
    4.2570   -2.0550   26.8270 C   0  0  0  0  0  0  0  0  0  0  0  0
    3.0370   -2.6870   27.2760 C   0  0  0  0  0  0  0  0  0  0  0  0
    3.3240   -1.6240   28.0740 O   0  0  0  0  0  0  0  0  0  0  0  0
    2.9040   -3.7600   26.3310 C   0  0  0  0  0  0  0  0  0  0  0  0
    1.1800   -6.8690   24.3540 C   0  0  1  0  0  0  0  0  0  0  0  0
    1.3430   -7.1880   25.6710 F   0  0  0  0  0  0  0  0  0  0  0  0
   -0.3240   -6.8650   24.0360 C   0  0  0  0  0  0  0  0  0  0  0  0
   -3.5350  -10.0420   23.8060 N   0  0  0  0  0  0  0  0  0  0  0  0
  1  2  2  0
  2  3  1  0
  3  4  1  0
  4  5  2  0
  4  6  1  0
  6  7  1  1
  7  8  1  0
  8  9  1  0
  9 10  1  0
 10 11  1  1
 10 12  1  0
 12 13  1  1
 13 14  1  0
 14 15  1  0
 15 16  1  1
 16 17  1  0
 17 18  2  0
 18 19  1  0
 19 20  1  0
 19 21  2  0
 21 22  1  0
 22 23  1  0
 17 24  1  0
 22 24  2  0
 15 25  1  0
 25 26  1  1
 12 27  1  0
 25 27  1  0
  2 28  1  0
  6 28  1  0
M  END
