VIT-UNK-525497ca-4
     RDKit          3D

 20 21  0  0  0  0  0  0  0  0999 V2000
    2.7320   -2.3850   28.2240 O   0  0  0  0  0  0  0  0  0  0  0  0
    3.3670   -2.6110   27.2000 C   0  0  0  0  0  0  0  0  0  0  0  0
    2.8460   -3.6340   26.2270 C   0  0  0  0  0  0  0  0  0  0  0  0
    3.5600   -3.9410   24.9930 C   0  0  0  0  0  0  0  0  0  0  0  0
    3.1030   -4.7810   24.2240 O   0  0  0  0  0  0  0  0  0  0  0  0
    4.7430   -3.2230   24.7810 C   0  0  0  0  0  0  0  0  0  0  0  0
    5.2430   -2.2660   25.6770 C   0  0  0  0  0  0  0  0  0  0  0  0
    6.4390   -1.4970   25.5120 N   0  0  0  0  0  0  0  0  0  0  0  0
    6.3280   -0.2350   24.8440 C   0  0  1  0  0  0  0  0  0  0  0  0
    6.7470   -0.2980   23.6760 O   0  0  0  0  0  0  0  0  0  0  0  0
    5.8510    0.0130   22.5980 C   0  0  0  0  0  0  0  0  0  0  0  0
    5.2610    1.4080   22.7760 C   0  0  2  0  0  0  0  0  0  0  0  0
    6.3250    2.4720   22.4560 C   0  0  2  0  0  0  0  0  0  0  0  0
    6.9830    3.1590   23.4430 O   0  0  0  0  0  0  0  0  0  0  0  0
    5.7280    3.5230   21.5680 C   0  0  0  0  0  0  0  0  0  0  0  0
    4.3460    4.4190   22.0920 Cl  0  0  0  0  0  0  0  0  0  0  0  0
    5.0050    1.6600   24.2400 C   0  0  0  0  0  0  0  0  0  0  0  0
    5.0910    0.4340   24.9200 C   0  0  2  0  0  0  0  0  0  0  0  0
    4.7740    0.4840   26.2220 F   0  0  0  0  0  0  0  0  0  0  0  0
    4.5640   -1.9640   26.8680 C   0  0  0  0  0  0  0  0  0  0  0  0
  1  2  1  0
  2  3  2  0
  3  4  1  0
  4  5  1  0
  4  6  2  0
  6  7  1  0
  7  8  1  0
  9  8  1  6
  9 10  1  0
 10 11  1  0
 12 11  1  1
 12 13  1  0
 13 14  1  1
 13 15  1  0
 15 16  1  0
 12 17  1  0
  9 18  1  0
 17 18  1  0
 18 19  1  1
  2 20  1  0
  7 20  2  0
M  END
