VIT-UNK-2a0afa28-2
     RDKit          3D

 27 29  0  0  0  0  0  0  0  0999 V2000
    4.9730   -2.4570   19.0720 C   0  0  0  0  0  0  0  0  0  0  0  0
    6.3650   -2.6470   19.1040 C   0  0  1  0  0  0  0  0  0  0  0  0
    6.5020   -3.8210   19.3530 O   0  0  0  0  0  0  0  0  0  0  0  0
    6.9230   -1.9750   17.8910 C   0  0  0  0  0  0  0  0  0  0  0  0
    6.1910   -1.9000   16.6300 C   0  0  0  0  0  0  0  0  0  0  0  0
    6.5760   -2.6720   15.2140 C   0  0  0  0  0  0  0  0  0  0  0  0
    5.9950   -2.5210   13.6580 C   0  0  1  0  0  0  0  0  0  0  0  0
    6.7150   -2.8550   12.6090 N   0  0  0  0  0  0  0  0  0  0  0  0
    6.3360   -2.7120   11.2520 C   0  0  0  0  0  0  0  0  0  0  0  0
    7.0990   -2.4270   10.1340 O   0  0  0  0  0  0  0  0  0  0  0  0
    5.0740   -2.9700   11.3640 N   0  0  0  0  0  0  0  0  0  0  0  0
    4.8600   -3.2350   12.7170 C   0  0  0  0  0  0  0  0  0  0  0  0
    3.7830   -4.1360   12.8980 O   0  0  0  0  0  0  0  0  0  0  0  0
    6.7150   -2.0390   20.4260 N   0  0  0  0  0  0  0  0  0  0  0  0
    6.4160   -2.7070   21.5920 C   0  0  0  0  0  0  0  0  0  0  0  0
    7.3830   -3.0630   22.5730 C   0  0  0  0  0  0  0  0  0  0  0  0
    8.2320   -2.0010   22.7300 N   0  0  0  0  0  0  0  0  0  0  0  0
    9.1980   -2.2730   23.6760 C   0  0  0  0  0  0  0  0  0  0  0  0
   10.2970   -1.4540   23.4170 C   0  0  0  0  0  0  0  0  0  0  0  0
   10.1120   -0.0660   23.4010 C   0  0  0  0  0  0  0  0  0  0  0  0
   11.2140    0.7460   23.1370 C   0  0  0  0  0  0  0  0  0  0  0  0
   12.4570    0.2090   22.8970 C   0  0  0  0  0  0  0  0  0  0  0  0
   12.6420   -1.1610   22.9100 C   0  0  0  0  0  0  0  0  0  0  0  0
   13.8320   -1.6980   22.6770 F   0  0  0  0  0  0  0  0  0  0  0  0
   11.5650   -1.9870   23.1700 C   0  0  0  0  0  0  0  0  0  0  0  0
    8.7600   -1.7250   21.5170 C   0  0  0  0  0  0  0  0  0  0  0  0
    7.8920   -1.2540   20.5450 C   0  0  0  0  0  0  0  0  0  0  0  0
  2  1  1  6
  2  3  1  0
  2  4  1  0
  4  5  1  0
  5  6  1  0
  7  6  1  1
  7  8  1  0
  8  9  1  0
  9 10  2  0
  9 11  1  0
  7 12  1  0
 11 12  1  0
 12 13  2  0
  2 14  1  0
 14 15  1  0
 15 16  1  0
 16 17  1  0
 17 18  1  0
 18 19  1  0
 19 20  2  0
 20 21  1  0
 21 22  2  0
 22 23  1  0
 23 24  1  0
 19 25  1  0
 23 25  2  0
 17 26  1  0
 14 27  1  0
 26 27  1  0
M  END
