VIT-UNK-2a0afa28-1
     RDKit          3D

 26 28  0  0  0  0  0  0  0  0999 V2000
    5.8140    1.2770   17.1240 O   0  0  0  0  0  0  0  0  0  0  0  0
    5.3920    1.6130   18.2280 C   0  0  0  0  0  0  0  0  0  0  0  0
    4.1140    2.1130   18.5530 N   0  0  0  0  0  0  0  0  0  0  0  0
    3.7560    1.7850   19.8160 C   0  0  0  0  0  0  0  0  0  0  0  0
    2.6910    2.0160   20.3720 O   0  0  0  0  0  0  0  0  0  0  0  0
    4.9750    1.0770   20.3620 C   0  0  1  0  0  0  0  0  0  0  0  0
    4.8810   -0.4400   20.0900 C   0  0  0  0  0  0  0  0  0  0  0  0
    5.7460   -0.8370   19.0770 C   0  0  0  0  0  0  0  0  0  0  0  0
    5.7010   -2.2120   18.8500 C   0  0  0  0  0  0  0  0  0  0  0  0
    5.8030   -3.0210   19.9610 C   0  0  0  0  0  0  0  0  0  0  0  0
    5.4530   -4.1970   19.8720 O   0  0  0  0  0  0  0  0  0  0  0  0
    6.3340   -2.4990   21.1520 N   0  0  0  0  0  0  0  0  0  0  0  0
    6.0630   -2.8900   22.4340 C   0  0  0  0  0  0  0  0  0  0  0  0
    7.3390   -3.3580   23.1000 C   0  0  0  0  0  0  0  0  0  0  0  0
    8.4580   -2.5790   22.8760 N   0  0  0  0  0  0  0  0  0  0  0  0
    9.3430   -2.3230   23.9400 C   0  0  0  0  0  0  0  0  0  0  0  0
   10.3930   -1.5030   23.5670 C   0  0  0  0  0  0  0  0  0  0  0  0
   10.2080   -0.1190   23.4710 C   0  0  0  0  0  0  0  0  0  0  0  0
   11.2500    0.7230   23.1090 C   0  0  0  0  0  0  0  0  0  0  0  0
   12.5040    0.2530   22.8280 C   0  0  0  0  0  0  0  0  0  0  0  0
   12.6930   -1.2210   22.9220 C   0  0  0  0  0  0  0  0  0  0  0  0
   13.8400   -1.7830   22.6690 F   0  0  0  0  0  0  0  0  0  0  0  0
   11.6420   -2.0430   23.2870 C   0  0  0  0  0  0  0  0  0  0  0  0
    8.3310   -1.4420   22.1450 C   0  0  0  0  0  0  0  0  0  0  0  0
    7.2830   -1.4010   21.0320 C   0  0  0  0  0  0  0  0  0  0  0  0
    5.9850    1.5920   19.4570 N   0  0  0  0  0  0  0  0  0  0  0  0
  1  2  2  0
  2  3  1  0
  3  4  1  0
  4  5  2  0
  4  6  1  0
  6  7  1  6
  7  8  1  0
  8  9  1  0
  9 10  1  0
 10 11  2  0
 10 12  1  0
 12 13  1  0
 13 14  1  0
 14 15  1  0
 15 16  1  0
 16 17  1  0
 17 18  2  0
 18 19  1  0
 19 20  2  0
 20 21  1  0
 21 22  1  0
 17 23  1  0
 21 23  2  0
 15 24  1  0
 12 25  1  0
 24 25  1  0
  2 26  1  0
  6 26  1  0
M  END
