VIT-UNK-525497ca-7
     RDKit          3D

 30 32  0  0  0  0  0  0  0  0999 V2000
    7.2170    1.7380   20.6160 N   0  0  0  0  0  0  0  0  0  0  0  0
    7.7840    1.2820   21.7690 C   0  0  0  0  0  0  0  0  0  0  0  0
    7.1160    0.6800   22.5990 O   0  0  0  0  0  0  0  0  0  0  0  0
    9.2300    1.5510   21.9880 C   0  0  0  0  0  0  0  0  0  0  0  0
   10.2480    0.7050   22.3470 C   0  0  0  0  0  0  0  0  0  0  0  0
   11.6690    0.2380   22.7000 C   0  0  0  0  0  0  0  0  0  0  0  0
   12.1960   -1.0430   22.0060 C   0  0  0  0  0  0  0  0  0  0  0  0
   12.3800   -2.2370   22.8500 C   0  0  1  0  0  0  0  0  0  0  0  0
   13.7510   -2.5110   22.9970 O   0  0  0  0  0  0  0  0  0  0  0  0
   11.6670   -1.9350   24.1380 C   0  0  1  0  0  0  0  0  0  0  0  0
   12.4350   -0.7650   24.7520 C   0  0  0  0  0  0  0  0  0  0  0  0
   12.3520    0.4850   23.9780 N   0  0  0  0  0  0  0  0  0  0  0  0
   10.9520    0.8480   23.6670 C   0  0  2  0  0  0  0  0  0  0  0  0
   10.7590    2.3810   23.8030 C   0  0  0  0  0  0  0  0  0  0  0  0
    9.3790    2.9880   23.9920 C   0  0  0  0  0  0  0  0  0  0  0  0
    8.3260    2.3460   24.6680 C   0  0  0  0  0  0  0  0  0  0  0  0
    7.0880    2.9920   24.7950 C   0  0  0  0  0  0  0  0  0  0  0  0
    6.0340    2.4110   25.4450 O   0  0  0  0  0  0  0  0  0  0  0  0
    6.8810    4.2630   24.2610 C   0  0  0  0  0  0  0  0  0  0  0  0
    7.9240    4.8880   23.5950 C   0  0  0  0  0  0  0  0  0  0  0  0
    7.7890    6.1330   23.0470 O   0  0  0  0  0  0  0  0  0  0  0  0
    9.1570    4.2670   23.4580 C   0  0  0  0  0  0  0  0  0  0  0  0
   10.0230   -0.0720   24.4490 C   0  0  0  0  0  0  0  0  0  0  0  0
   10.2250   -1.4510   23.8070 C   0  0  2  0  0  0  0  0  0  0  0  0
    9.0610   -2.4030   24.0640 C   0  0  0  0  0  0  0  0  0  0  0  0
    7.8540   -2.1460   23.1720 C   0  0  2  0  0  0  0  0  0  0  0  0
    7.0060   -3.3650   22.8930 C   0  0  0  0  0  0  0  0  0  0  0  0
    6.0830   -2.8360   21.8080 C   0  0  0  0  0  0  0  0  0  0  0  0
    6.8760   -1.8040   21.0980 N   0  0  0  0  0  0  0  0  0  0  0  0
    8.1900   -1.7150   21.7600 C   0  0  0  0  0  0  0  0  0  0  0  0
  1  2  1  0
  2  3  2  0
  2  4  1  0
  4  5  2  3
  5  6  1  0
  6  7  1  0
  7  8  1  0
  8  9  1  1
  8 10  1  0
 10 11  1  6
 11 12  1  0
 12 13  1  0
 13 14  1  1
 14 15  1  0
 15 16  2  0
 16 17  1  0
 17 18  1  0
 17 19  2  0
 19 20  1  0
 20 21  1  0
 15 22  1  0
 20 22  2  0
 13 23  1  0
 10 24  1  0
 23 24  1  0
 24 25  1  1
 26 25  1  1
 26 27  1  0
 27 28  1  0
 28 29  1  0
 26 30  1  0
 29 30  1  0
M  END
