VIT-UNK-cff011c0-3
     RDKit          3D

 27 29  0  0  0  0  0  0  0  0999 V2000
    1.1030   -4.9000   24.7320 O   0  0  0  0  0  0  0  0  0  0  0  0
    2.2520   -5.3230   24.6570 C   0  0  0  0  0  0  0  0  0  0  0  0
    3.2270   -5.2590   25.6340 N   0  0  0  0  0  0  0  0  0  0  0  0
    4.4150   -5.9010   25.1040 C   0  0  0  0  0  0  0  0  0  0  0  0
    5.4650   -5.8380   25.7310 O   0  0  0  0  0  0  0  0  0  0  0  0
    4.0750   -6.5790   23.7690 C   0  0  2  0  0  0  0  0  0  0  0  0
    4.9970   -6.2020   22.7700 C   0  0  0  0  0  0  0  0  0  0  0  0
    4.9990   -4.8460   22.4140 C   0  0  0  0  0  0  0  0  0  0  0  0
    5.7930   -4.5430   21.2890 C   0  0  1  0  0  0  0  0  0  0  0  0
    5.7240   -5.8980   20.1850 Cl  0  0  0  0  0  0  0  0  0  0  0  0
    5.6740   -3.2940   20.6740 C   0  0  2  0  0  0  0  0  0  0  0  0
    5.8390   -3.2030   19.3080 O   0  0  0  0  0  0  0  0  0  0  0  0
    6.5970   -2.5200   21.3300 C   0  0  2  0  0  0  0  0  0  0  0  0
    6.0820   -2.2110   22.6840 C   0  0  0  0  0  0  0  0  0  0  0  0
    7.1810   -2.3710   23.4600 C   0  0  0  0  0  0  0  0  0  0  0  0
    8.1230   -1.5360   23.1330 N   0  0  0  0  0  0  0  0  0  0  0  0
    9.2330   -2.0140   23.7370 C   0  0  0  0  0  0  0  0  0  0  0  0
   10.3980   -1.3540   23.4620 C   0  0  0  0  0  0  0  0  0  0  0  0
   10.3860    0.0420   23.3500 C   0  0  0  0  0  0  0  0  0  0  0  0
   11.5310    0.8050   23.0730 C   0  0  0  0  0  0  0  0  0  0  0  0
   12.7450    0.1480   22.8970 C   0  0  0  0  0  0  0  0  0  0  0  0
   12.7720   -1.2340   22.9990 C   0  0  0  0  0  0  0  0  0  0  0  0
   13.8790   -1.9120   22.8410 F   0  0  0  0  0  0  0  0  0  0  0  0
   11.5830   -2.0180   23.2890 C   0  0  0  0  0  0  0  0  0  0  0  0
    8.3470   -1.2580   21.6810 C   0  0  0  0  0  0  0  0  0  0  0  0
    7.1760   -1.3520   20.9480 N   0  0  0  0  0  0  0  0  0  0  0  0
    2.7790   -5.9570   23.5370 N   0  0  0  0  0  0  0  0  0  0  0  0
  1  2  2  0
  2  3  1  0
  3  4  1  0
  4  5  2  0
  4  6  1  0
  6  7  1  6
  7  8  1  0
  9  8  1  1
  9 10  1  0
  9 11  1  0
 11 12  1  6
 11 13  1  0
 13 14  1  1
 14 15  1  0
 15 16  1  0
 16 17  1  0
 17 18  1  0
 18 19  2  0
 19 20  1  0
 20 21  2  0
 21 22  1  0
 22 23  1  0
 18 24  1  0
 22 24  2  0
 16 25  1  0
 13 26  1  0
 25 26  1  0
  2 27  1  0
  6 27  1  0
M  END
