VIT-UNK-525497ca-2
     RDKit          3D

 26 28  0  0  0  0  0  0  0  0999 V2000
    2.9040   -2.0480   28.5190 O   0  0  0  0  0  0  0  0  0  0  0  0
    3.4260   -2.5230   27.5240 C   0  0  0  0  0  0  0  0  0  0  0  0
    2.9100   -3.7440   26.8160 C   0  0  0  0  0  0  0  0  0  0  0  0
    3.5100   -4.2580   25.7070 C   0  0  0  0  0  0  0  0  0  0  0  0
    2.9390   -5.3650   25.1540 O   0  0  0  0  0  0  0  0  0  0  0  0
    4.6540   -3.5810   25.2460 C   0  0  0  0  0  0  0  0  0  0  0  0
    5.2160   -2.4270   25.8350 C   0  0  0  0  0  0  0  0  0  0  0  0
    6.3620   -1.7960   25.3080 N   0  0  0  0  0  0  0  0  0  0  0  0
    6.4100   -0.5850   24.6380 C   0  0  1  0  0  0  0  0  0  0  0  0
    5.9610   -0.5500   23.4840 O   0  0  0  0  0  0  0  0  0  0  0  0
    5.3200    0.6610   23.0280 C   0  0  2  0  0  0  0  0  0  0  0  0
    6.2420    1.6950   22.8950 C   0  0  0  0  0  0  0  0  0  0  0  0
    6.6350    3.0360   22.8180 C   0  0  2  0  0  0  0  0  0  0  0  0
    7.8770    3.3690   22.2700 C   0  0  0  0  0  0  0  0  0  0  0  0
    8.3220    4.6410   22.5780 C   0  0  0  0  0  0  0  0  0  0  0  0
    7.5610    4.9610   23.7630 N   0  0  0  0  0  0  0  0  0  0  0  0
    6.6590    3.8560   24.1110 C   0  0  0  0  0  0  0  0  0  0  0  0
    4.1530    1.1440   23.9010 C   0  0  1  0  0  0  0  0  0  0  0  0
    2.9830    0.5540   23.4200 C   0  0  2  0  0  0  0  0  0  0  0  0
    2.5500    1.3460   22.3130 O   0  0  0  0  0  0  0  0  0  0  0  0
    1.9330    0.5680   24.3420 C   0  0  0  0  0  0  0  0  0  0  0  0
    0.4640    1.3990   23.7610 Cl  0  0  0  0  0  0  0  0  0  0  0  0
    4.4580    0.7200   25.3420 C   0  0  0  0  0  0  0  0  0  0  0  0
    5.8220    0.5870   25.5150 C   0  0  1  0  0  0  0  0  0  0  0  0
    6.0360    0.2930   26.8340 F   0  0  0  0  0  0  0  0  0  0  0  0
    4.5690   -1.9190   26.9920 C   0  0  0  0  0  0  0  0  0  0  0  0
  1  2  1  0
  2  3  2  0
  3  4  1  0
  4  5  1  0
  4  6  2  0
  6  7  1  0
  7  8  1  0
  9  8  1  1
  9 10  1  0
 10 11  1  0
 11 12  1  1
 13 12  1  1
 13 14  1  0
 14 15  1  0
 15 16  1  0
 13 17  1  0
 16 17  1  0
 11 18  1  0
 18 19  1  0
 19 20  1  6
 19 21  1  0
 21 22  1  0
 18 23  1  1
  9 24  1  0
 23 24  1  0
 24 25  1  1
  2 26  1  0
  7 26  2  0
M  END
