VIT-UNK-b055a17e-1
     RDKit          3D

 19 20  0  0  0  0  0  0  0  0999 V2000
    1.3470   -2.3440   28.3220 C   0  0  0  0  0  0  0  0  0  0  0  0
    2.7680   -2.4660   28.2200 O   0  0  0  0  0  0  0  0  0  0  0  0
    3.2510   -2.3380   26.9500 C   0  0  2  0  0  0  0  0  0  0  0  0
    3.1670   -3.5530   26.2710 C   0  0  0  0  0  0  0  0  0  0  0  0
    3.8570   -3.6670   25.0590 C   0  0  0  0  0  0  0  0  0  0  0  0
    5.2080   -3.2770   24.9890 C   0  0  1  0  0  0  0  0  0  0  0  0
    5.7500   -2.5190   23.7860 C   0  0  1  0  0  0  0  0  0  0  0  0
    5.2970   -3.0550   22.4240 C   0  0  0  0  0  0  0  0  0  0  0  0
    5.9810   -2.3170   21.3020 C   0  0  0  0  0  0  0  0  0  0  0  0
    6.0220   -0.8600   21.5020 N   0  0  0  0  0  0  0  0  0  0  0  0
    5.9480   -0.1100   20.3240 C   0  0  0  0  0  0  0  0  0  0  0  0
    4.7520   -0.2200   19.7080 C   0  0  0  0  0  0  0  0  0  0  0  0
    6.9950   -0.6070   19.3050 C   0  0  0  0  0  0  0  0  0  0  0  0
    6.1790    1.1010   20.3480 O   0  0  0  0  0  0  0  0  0  0  0  0
    5.0890   -0.4500   22.5510 C   0  0  0  0  0  0  0  0  0  0  0  0
    5.4890   -1.0570   23.8310 N   0  0  0  0  0  0  0  0  0  0  0  0
    5.6380   -2.6600   26.3350 C   0  0  0  0  0  0  0  0  0  0  0  0
    4.7080   -1.8220   26.9650 C   0  0  2  0  0  0  0  0  0  0  0  0
    5.1410   -1.6490   28.3200 O   0  0  0  0  0  0  0  0  0  0  0  0
  1  2  1  0
  3  2  1  1
  3  4  1  0
  4  5  1  0
  6  5  1  6
  6  7  1  0
  7  8  1  6
  8  9  1  0
  9 10  1  0
 10 11  1  0
 11 12  1  0
 11 13  1  0
 11 14  1  0
 10 15  1  0
  7 16  1  0
 15 16  1  0
  6 17  1  0
  3 18  1  0
 17 18  1  0
 18 19  1  1
M  END
