VIT-UNK-cff011c0-2
     RDKit          3D

 24 25  0  0  0  0  0  0  0  0999 V2000
    4.3950    3.4180   20.6200 N   0  0  0  0  0  0  0  0  0  0  0  0
    5.1780    2.4980   20.1690 C   0  0  0  0  0  0  0  0  0  0  0  0
    6.2880    2.3250   20.6630 O   0  0  0  0  0  0  0  0  0  0  0  0
    4.6260    1.6610   19.0060 C   0  0  0  0  0  0  0  0  0  0  0  0
    5.5210    0.6520   18.6280 C   0  0  0  0  0  0  0  0  0  0  0  0
    5.0700   -0.6830   18.6080 C   0  0  0  0  0  0  0  0  0  0  0  0
    5.9700   -1.7220   18.8030 C   0  0  1  0  0  0  0  0  0  0  0  0
    7.4340   -0.8770   18.8130 Cl  0  0  0  0  0  0  0  0  0  0  0  0
    5.7550   -2.6660   19.8100 C   0  0  0  0  0  0  0  0  0  0  0  0
    5.2820   -3.7950   19.6230 O   0  0  0  0  0  0  0  0  0  0  0  0
    6.1540   -2.3460   21.1250 N   0  0  0  0  0  0  0  0  0  0  0  0
    6.0140   -3.1710   22.2480 C   0  0  0  0  0  0  0  0  0  0  0  0
    7.2480   -3.4730   22.8630 C   0  0  0  0  0  0  0  0  0  0  0  0
    7.9810   -2.1840   23.0370 N   0  0  0  0  0  0  0  0  0  0  0  0
    9.1590   -2.2280   23.8900 C   0  0  0  0  0  0  0  0  0  0  0  0
   10.2560   -1.4570   23.5610 C   0  0  0  0  0  0  0  0  0  0  0  0
   10.1490   -0.0880   23.4200 C   0  0  0  0  0  0  0  0  0  0  0  0
   11.2990    0.8080   23.0720 C   0  0  0  0  0  0  0  0  0  0  0  0
   12.6540    0.1670   22.8640 C   0  0  0  0  0  0  0  0  0  0  0  0
   12.7670   -1.3400   23.0140 C   0  0  0  0  0  0  0  0  0  0  0  0
   13.8780   -2.0210   22.8580 F   0  0  0  0  0  0  0  0  0  0  0  0
   11.4970   -2.0640   23.3680 C   0  0  0  0  0  0  0  0  0  0  0  0
    8.1170   -1.4970   21.7760 C   0  0  0  0  0  0  0  0  0  0  0  0
    6.7190   -1.1240   21.4020 C   0  0  0  0  0  0  0  0  0  0  0  0
  1  2  1  0
  2  3  2  0
  2  4  1  0
  4  5  1  0
  5  6  1  0
  7  6  1  1
  7  8  1  0
  7  9  1  0
  9 10  2  0
  9 11  1  0
 11 12  1  0
 12 13  1  0
 13 14  1  0
 14 15  1  0
 15 16  1  0
 16 17  2  0
 17 18  1  0
 18 19  2  0
 19 20  1  0
 20 21  1  0
 16 22  1  0
 20 22  2  0
 14 23  1  0
 11 24  1  0
 23 24  1  0
M  END
