VIT-UNK-026187e6-7
     RDKit          3D

 20 21  0  0  0  0  0  0  0  0999 V2000
    7.9540    9.0270   23.6460 C   0  0  0  0  0  0  0  0  0  0  0  0
    8.6590    8.4730   24.8820 C   0  0  0  0  0  0  0  0  0  0  0  0
    7.8380    8.6690   25.9970 C   0  0  0  0  0  0  0  0  0  0  0  0
    9.7450    8.9300   25.2200 O   0  0  0  0  0  0  0  0  0  0  0  0
    8.9000    6.9910   24.6520 C   0  0  0  0  0  0  0  0  0  0  0  0
    9.9610    6.5880   23.8310 C   0  0  0  0  0  0  0  0  0  0  0  0
   10.2210    5.1540   23.5890 N   0  0  0  0  0  0  0  0  0  0  0  0
    9.2930    4.2460   24.2710 C   0  0  0  0  0  0  0  0  0  0  0  0
    9.5250    2.8850   24.0710 C   0  0  0  0  0  0  0  0  0  0  0  0
   10.7750    2.2740   23.9350 C   0  0  0  0  0  0  0  0  0  0  0  0
   11.0450    0.9280   23.7280 C   0  0  0  0  0  0  0  0  0  0  0  0
   12.2670    0.5880   23.1450 C   0  0  0  0  0  0  0  0  0  0  0  0
   12.6530   -0.7000   22.8620 C   0  0  0  0  0  0  0  0  0  0  0  0
   13.7160   -0.9420   22.3470 O   0  0  0  0  0  0  0  0  0  0  0  0
   11.7230   -1.8230   23.1970 C   0  0  0  0  0  0  0  0  0  0  0  0
   10.3690   -1.5480   23.8390 C   0  0  0  0  0  0  0  0  0  0  0  0
    9.4330   -2.4730   24.1840 O   0  0  0  0  0  0  0  0  0  0  0  0
   10.1040   -0.0650   24.0830 C   0  0  0  0  0  0  0  0  0  0  0  0
    8.2660    4.7280   25.0670 C   0  0  0  0  0  0  0  0  0  0  0  0
    8.0320    6.1490   25.2880 N   0  0  0  0  0  0  0  0  0  0  0  0
  1  2  1  0
  2  3  1  0
  2  4  1  0
  2  5  1  0
  5  6  2  0
  6  7  1  0
  7  8  2  0
  8  9  1  0
  9 10  2  3
 10 11  1  0
 11 12  2  0
 12 13  1  0
 13 14  1  0
 13 15  2  0
 15 16  1  0
 16 17  1  0
 11 18  1  0
 16 18  2  0
  8 19  1  0
  5 20  1  0
 19 20  2  0
M  END
