VIT-UNK-026187e6-6
     RDKit          3D

 19 20  0  0  0  0  0  0  0  0999 V2000
    6.0160   -5.6710   23.5190 C   0  0  0  0  0  0  0  0  0  0  0  0
    5.6760   -4.7410   22.3210 C   0  0  0  0  0  0  0  0  0  0  0  0
    5.7330   -5.6800   21.1090 C   0  0  0  0  0  0  0  0  0  0  0  0
    4.5250   -4.3030   22.2800 O   0  0  0  0  0  0  0  0  0  0  0  0
    6.4270   -3.6150   22.2520 C   0  0  0  0  0  0  0  0  0  0  0  0
    7.5170   -3.3270   23.1040 C   0  0  0  0  0  0  0  0  0  0  0  0
    8.3170   -2.1130   23.0060 N   0  0  0  0  0  0  0  0  0  0  0  0
    7.9820   -1.2120   22.0280 C   0  0  0  0  0  0  0  0  0  0  0  0
    8.7690    0.0040   21.9170 N   0  0  0  0  0  0  0  0  0  0  0  0
   10.1790   -0.1950   22.1810 C   0  0  0  0  0  0  0  0  0  0  0  0
   10.7440   -1.4440   21.9140 C   0  0  0  0  0  0  0  0  0  0  0  0
   12.2090   -1.6410   22.1740 C   0  0  0  0  0  0  0  0  0  0  0  0
   12.7420   -2.7170   21.9490 O   0  0  0  0  0  0  0  0  0  0  0  0
   12.8700   -0.5190   22.6720 C   0  0  0  0  0  0  0  0  0  0  0  0
   12.2630    0.7220   22.9290 C   0  0  0  0  0  0  0  0  0  0  0  0
   12.9380    1.6360   23.3630 O   0  0  0  0  0  0  0  0  0  0  0  0
   10.8960    0.8940   22.6840 C   0  0  0  0  0  0  0  0  0  0  0  0
    6.8940   -1.5280   21.2020 C   0  0  0  0  0  0  0  0  0  0  0  0
    6.1520   -2.6740   21.3110 N   0  0  0  0  0  0  0  0  0  0  0  0
  1  2  1  0
  2  3  1  0
  2  4  1  0
  2  5  1  0
  5  6  2  0
  6  7  1  0
  7  8  2  0
  8  9  1  0
  9 10  1  0
 10 11  2  0
 11 12  1  0
 12 13  1  0
 12 14  2  0
 14 15  1  0
 15 16  1  0
 10 17  1  0
 15 17  2  0
  8 18  1  0
  5 19  1  0
 18 19  2  0
M  END
