VIT-UNK-2a0afa28-4
     RDKit          3D

 26 28  0  0  0  0  0  0  0  0999 V2000
    7.6790   -6.6610   22.5820 O   0  0  0  0  0  0  0  0  0  0  0  0
    6.6510   -6.3520   23.1470 C   0  0  0  0  0  0  0  0  0  0  0  0
    6.4810   -5.6670   24.3120 N   0  0  0  0  0  0  0  0  0  0  0  0
    5.1360   -5.4860   24.5720 C   0  0  0  0  0  0  0  0  0  0  0  0
    4.5890   -5.2280   25.7920 O   0  0  0  0  0  0  0  0  0  0  0  0
    4.4470   -5.6270   23.3610 C   0  0  1  0  0  0  0  0  0  0  0  0
    4.5340   -4.4960   22.5640 C   0  0  0  0  0  0  0  0  0  0  0  0
    5.2800   -4.7480   21.4060 C   0  0  0  0  0  0  0  0  0  0  0  0
    5.2310   -3.5760   20.4170 C   0  0  0  0  0  0  0  0  0  0  0  0
    6.6030   -3.1470   20.3080 C   0  0  1  0  0  0  0  0  0  0  0  0
    6.7640   -2.3030   19.1530 O   0  0  0  0  0  0  0  0  0  0  0  0
    7.1650   -2.6050   21.4150 C   0  0  2  0  0  0  0  0  0  0  0  0
    6.3290   -2.5500   22.5050 C   0  0  0  0  0  0  0  0  0  0  0  0
    6.8290   -1.7930   23.5020 C   0  0  0  0  0  0  0  0  0  0  0  0
    8.1500   -1.3920   23.3120 N   0  0  0  0  0  0  0  0  0  0  0  0
    9.2300   -2.0610   23.7820 C   0  0  0  0  0  0  0  0  0  0  0  0
   10.3430   -1.3120   23.5000 C   0  0  0  0  0  0  0  0  0  0  0  0
   10.2690    0.1640   23.3600 C   0  0  0  0  0  0  0  0  0  0  0  0
   11.5650    0.8780   23.0510 C   0  0  0  0  0  0  0  0  0  0  0  0
   12.7660    0.1640   22.9040 C   0  0  0  0  0  0  0  0  0  0  0  0
   12.9090   -1.3970   23.0370 C   0  0  0  0  0  0  0  0  0  0  0  0
   13.9670   -2.1470   22.9210 F   0  0  0  0  0  0  0  0  0  0  0  0
   11.5260   -1.9690   23.3490 C   0  0  0  0  0  0  0  0  0  0  0  0
    8.4170   -0.8050   21.9680 C   0  0  0  0  0  0  0  0  0  0  0  0
    7.5110   -1.2290   21.0720 N   0  0  0  0  0  0  0  0  0  0  0  0
    5.3520   -6.6180   22.7660 N   0  0  0  0  0  0  0  0  0  0  0  0
  1  2  2  0
  2  3  1  0
  3  4  1  0
  4  5  2  0
  4  6  1  0
  6  7  1  6
  7  8  1  0
  8  9  1  0
  9 10  1  0
 10 11  1  6
 10 12  1  0
 12 13  1  1
 13 14  1  0
 14 15  1  0
 15 16  1  0
 16 17  1  0
 17 18  2  0
 18 19  1  0
 19 20  2  0
 20 21  1  0
 21 22  1  0
 17 23  1  0
 21 23  2  0
 15 24  1  0
 12 25  1  0
 24 25  1  0
  2 26  1  0
  6 26  1  0
M  END
