VOL-CHA-d666e5ae-1
     RDKit          3D

 24 24  0  0  0  0  0  0  0  0999 V2000
   12.8260   -1.9610   23.1220 C   0  0  0  0  0  0  0  0  0  0  0  0
   11.4500   -1.2740   22.8980 C   0  0  0  0  0  0  0  0  0  0  0  0
   11.6060    0.2270   22.9160 C   0  0  0  0  0  0  0  0  0  0  0  0
   12.9230    0.6290   23.0910 C   0  0  0  0  0  0  0  0  0  0  0  0
   10.1380   -1.7040   22.7020 C   0  0  0  0  0  0  0  0  0  0  0  0
    9.2370   -0.8140   23.2880 O   0  0  0  0  0  0  0  0  0  0  0  0
    9.0730    0.4870   22.6960 C   0  0  0  0  0  0  0  0  0  0  0  0
   10.1610    1.1590   22.0950 O   0  0  0  0  0  0  0  0  0  0  0  0
    7.8700    1.1910   22.6490 C   0  0  1  0  0  0  0  0  0  0  0  0
    6.6390    0.5380   22.5850 C   0  0  0  0  0  0  0  0  0  0  0  0
    6.2180    0.6540   21.1600 C   0  0  0  0  0  0  0  0  0  0  0  0
    5.2530    1.4890   20.6160 C   0  0  0  0  0  0  0  0  0  0  0  0
    5.0490    1.4510   19.2460 C   0  0  0  0  0  0  0  0  0  0  0  0
    5.7900    0.5980   18.4240 C   0  0  0  0  0  0  0  0  0  0  0  0
    5.5320    0.6240   17.0550 O   0  0  0  0  0  0  0  0  0  0  0  0
    6.7700   -0.2780   18.8850 C   0  0  0  0  0  0  0  0  0  0  0  0
    7.0090   -0.2750   20.2430 C   0  0  0  0  0  0  0  0  0  0  0  0
    7.8650    2.2890   23.5950 N   0  0  0  0  0  0  0  0  0  0  0  0
    7.1430    3.5470   23.3030 C   0  0  0  0  0  0  0  0  0  0  0  0
    7.6770    4.5440   22.8240 O   0  0  0  0  0  0  0  0  0  0  0  0
    5.7920    3.4600   23.6500 C   0  0  0  0  0  0  0  0  0  0  0  0
    5.3040    2.6980   24.8400 C   0  0  0  0  0  0  0  0  0  0  0  0
    6.2950    1.8460   25.5040 C   0  0  0  0  0  0  0  0  0  0  0  0
    4.2100    1.7460   24.3420 C   0  0  0  0  0  0  0  0  0  0  0  0
  1  2  2  3
  2  3  1  0
  3  4  1  0
  2  5  1  0
  5  6  1  0
  6  7  1  0
  7  8  2  0
  7  9  1  0
  9 10  1  1
 10 11  1  0
 11 12  2  0
 12 13  1  0
 13 14  2  0
 14 15  1  0
 14 16  1  0
 11 17  1  0
 16 17  2  0
  9 18  1  0
 18 19  1  0
 19 20  2  0
 19 21  1  0
 21 22  1  0
 22 23  1  0
 22 24  1  0
M  END
