VOL-CHA-d666e5ae-3
     RDKit          3D

 22 23  0  0  0  0  0  0  0  0999 V2000
    7.5640    4.5020   22.2420 C   0  0  0  0  0  0  0  0  0  0  0  0
    7.0380    3.6140   23.1740 C   0  0  0  0  0  0  0  0  0  0  0  0
    5.9050    3.7170   23.6270 O   0  0  0  0  0  0  0  0  0  0  0  0
    7.9750    2.5410   23.5670 N   0  0  0  0  0  0  0  0  0  0  0  0
    7.9700    1.4130   22.6430 C   0  0  2  0  0  0  0  0  0  0  0  0
    6.6960    0.6560   22.5240 C   0  0  0  0  0  0  0  0  0  0  0  0
    6.3770    0.5790   21.0860 C   0  0  0  0  0  0  0  0  0  0  0  0
    5.5250    1.5680   20.6060 C   0  0  0  0  0  0  0  0  0  0  0  0
    5.1990    1.6050   19.2600 C   0  0  0  0  0  0  0  0  0  0  0  0
    5.7080    0.6680   18.3720 C   0  0  0  0  0  0  0  0  0  0  0  0
    5.4210    0.7020   17.0900 O   0  0  0  0  0  0  0  0  0  0  0  0
    6.5500   -0.3420   18.8110 C   0  0  0  0  0  0  0  0  0  0  0  0
    6.9140   -0.3930   20.2780 C   0  0  0  0  0  0  0  0  0  0  0  0
    9.2580    0.5620   22.6370 C   0  0  0  0  0  0  0  0  0  0  0  0
   10.4520    1.1880   22.4360 O   0  0  0  0  0  0  0  0  0  0  0  0
    9.2050   -0.8090   22.8160 N   0  0  0  0  0  0  0  0  0  0  0  0
    8.5000   -1.3590   23.9480 C   0  0  0  0  0  0  0  0  0  0  0  0
   10.3780   -1.3980   22.3410 C   0  0  0  0  0  0  0  0  0  0  0  0
   11.4860   -1.6990   22.6280 N   0  0  0  0  0  0  0  0  0  0  0  0
   12.5260   -2.1670   22.3340 C   0  0  0  0  0  0  0  0  0  0  0  0
   13.0850   -1.9720   23.5390 C   0  0  0  0  0  0  0  0  0  0  0  0
   11.3520   -1.2500   23.8460 S   0  0  0  0  0  0  0  0  0  0  0  0
  1  2  1  0
  2  3  2  0
  2  4  1  0
  4  5  1  0
  5  6  1  1
  6  7  1  0
  7  8  2  0
  8  9  1  0
  9 10  2  0
 10 11  1  0
 10 12  1  0
  7 13  1  0
 12 13  2  0
  5 14  1  0
 14 15  2  0
 14 16  1  0
 16 17  1  0
 16 18  1  0
 18 19  2  0
 19 20  1  0
 20 21  2  0
 18 22  1  0
 21 22  1  0
M  END
