WAL-WAB-9cbe20c2-2
     RDKit          3D

 35 38  0  0  0  0  0  0  0  0999 V2000
    3.8400   -5.0100   23.1950 C   0  0  0  0  0  0  0  0  0  0  0  0
    5.2750   -4.6440   23.1840 C   0  0  0  0  0  0  0  0  0  0  0  0
    6.2090   -5.3350   23.7930 N   0  0  0  0  0  0  0  0  0  0  0  0
    7.4540   -4.7830   23.6310 N   0  0  0  0  0  0  0  0  0  0  0  0
    7.4260   -3.6600   22.8880 C   0  0  0  0  0  0  0  0  0  0  0  0
    8.6620   -2.8480   22.5480 C   0  0  0  0  0  0  0  0  0  0  0  0
    8.7490   -1.3460   22.8330 C   0  0  2  0  0  0  0  0  0  0  0  0
    8.0710   -0.4190   21.8510 C   0  0  0  0  0  0  0  0  0  0  0  0
    8.6770    0.6190   21.5500 O   0  0  0  0  0  0  0  0  0  0  0  0
    6.8470   -0.7150   21.3080 N   0  0  0  0  0  0  0  0  0  0  0  0
    6.4560   -0.1470   20.1630 C   0  0  0  0  0  0  0  0  0  0  0  0
    7.0100   -0.3790   18.8090 C   0  0  0  0  0  0  0  0  0  0  0  0
    6.4000    0.4240   17.9870 N   0  0  0  0  0  0  0  0  0  0  0  0
    5.5330    1.1140   18.8040 C   0  0  0  0  0  0  0  0  0  0  0  0
    4.6620    2.2560   18.3720 C   0  0  0  0  0  0  0  0  0  0  0  0
    4.2880    3.2250   19.4760 C   0  0  0  0  0  0  0  0  0  0  0  0
    4.7810    3.0220   20.7790 C   0  0  0  0  0  0  0  0  0  0  0  0
    5.3540    1.7940   21.1260 C   0  0  0  0  0  0  0  0  0  0  0  0
    5.4140    0.7710   20.1880 C   0  0  2  0  0  0  0  0  0  0  0  0
   10.1730   -0.8890   22.5750 C   0  0  2  0  0  0  0  0  0  0  0  0
   11.1370   -1.3790   23.4140 C   0  0  0  0  0  0  0  0  0  0  0  0
   10.6030    0.1920   23.4900 C   0  0  0  0  0  0  0  0  0  0  0  0
   10.8850    1.6050   22.8910 C   0  0  0  0  0  0  0  0  0  0  0  0
   12.3970    1.7070   22.5890 C   0  0  0  0  0  0  0  0  0  0  0  0
   12.8360    0.2710   22.7230 C   0  0  0  0  0  0  0  0  0  0  0  0
   13.1500   -0.9560   21.8240 C   0  0  0  0  0  0  0  0  0  0  0  0
   13.4070   -2.1840   22.6620 C   0  0  0  0  0  0  0  0  0  0  0  0
   13.3560   -1.9770   24.0490 C   0  0  0  0  0  0  0  0  0  0  0  0
   13.5680   -3.1740   25.1270 S   0  0  0  0  0  0  0  0  0  0  0  0
   14.5350   -3.4390   23.8620 N   0  0  0  0  0  0  0  0  0  0  0  0
   12.2280   -3.6830   25.0830 O   0  0  0  0  0  0  0  0  0  0  0  0
   14.3410   -2.7240   26.2450 O   0  0  0  0  0  0  0  0  0  0  0  0
   13.1540   -0.9550   24.7060 C   0  0  0  0  0  0  0  0  0  0  0  0
   12.8760    0.2320   23.9670 C   0  0  0  0  0  0  0  0  0  0  0  0
    5.8400   -3.2460   22.3510 S   0  0  0  0  0  0  0  0  0  0  0  0
  1  2  1  0
  2  3  2  0
  3  4  1  0
  4  5  2  0
  5  6  1  0
  7  6  1  6
  7  8  1  0
  8  9  2  0
  8 10  1  0
 10 11  1  0
 11 12  2  0
 12 13  1  0
 13 14  2  0
 14 15  1  0
 15 16  2  0
 16 17  1  0
 17 18  2  0
 11 19  1  0
 14 19  1  0
 19 18  1  1
  7 20  1  0
 20 21  1  1
 20 22  1  0
 22 23  1  0
 23 24  1  0
 24 25  1  0
 25 26  2  0
 26 27  1  0
 27 28  2  0
 28 29  1  0
 29 30  1  0
 29 31  2  0
 29 32  2  0
 28 33  1  0
 25 34  1  0
 33 34  2  0
  2 35  1  0
  5 35  1  0
M  END
