WAL-WAB-c1441da0-2
     RDKit          3D

 35 38  0  0  0  0  0  0  0  0999 V2000
    4.5610   -0.6000   20.0620 C   0  0  0  0  0  0  0  0  0  0  0  0
    5.4350   -1.1280   21.1250 C   0  0  0  0  0  0  0  0  0  0  0  0
    5.7380   -2.4000   21.3000 N   0  0  0  0  0  0  0  0  0  0  0  0
    6.6560   -2.5820   22.3110 N   0  0  0  0  0  0  0  0  0  0  0  0
    6.9960   -1.3970   22.8500 C   0  0  0  0  0  0  0  0  0  0  0  0
    8.0230   -1.1150   23.8880 C   0  0  0  0  0  0  0  0  0  0  0  0
    9.0400   -0.0880   23.3100 C   0  0  2  0  0  0  0  0  0  0  0  0
    8.6780    0.4170   21.8690 C   0  0  0  0  0  0  0  0  0  0  0  0
    9.1250    1.5110   21.4810 O   0  0  0  0  0  0  0  0  0  0  0  0
    7.8860   -0.3420   21.0070 N   0  0  0  0  0  0  0  0  0  0  0  0
    7.1520    0.1310   19.9540 C   0  0  0  0  0  0  0  0  0  0  0  0
    7.3500   -0.3630   18.5990 C   0  0  0  0  0  0  0  0  0  0  0  0
    6.5620    0.2580   17.8590 N   0  0  0  0  0  0  0  0  0  0  0  0
    5.8940    1.0830   18.6950 C   0  0  0  0  0  0  0  0  0  0  0  0
    4.7580    2.0650   18.1030 C   0  0  0  0  0  0  0  0  0  0  0  0
    3.9110    3.0460   18.9570 C   0  0  0  0  0  0  0  0  0  0  0  0
    4.3540    2.8680   20.1990 C   0  0  0  0  0  0  0  0  0  0  0  0
    5.2300    1.9490   19.8010 C   0  0  0  0  0  0  0  0  0  0  0  0
    6.1630    1.1360   20.1980 C   0  0  0  0  0  0  0  0  0  0  0  0
   10.4730   -0.6360   23.0500 C   0  0  2  0  0  0  0  0  0  0  0  0
   10.7460   -2.0020   23.0190 C   0  0  0  0  0  0  0  0  0  0  0  0
   11.2560   -1.0760   24.2460 C   0  0  0  0  0  0  0  0  0  0  0  0
   12.6840   -0.5300   24.2650 C   0  0  0  0  0  0  0  0  0  0  0  0
   12.8820    0.4680   23.0840 C   0  0  0  0  0  0  0  0  0  0  0  0
   12.1090    1.8150   23.1700 C   0  0  0  0  0  0  0  0  0  0  0  0
   10.6660    1.6970   23.6580 C   0  0  0  0  0  0  0  0  0  0  0  0
    9.8610    2.9980   23.7570 C   0  0  0  0  0  0  0  0  0  0  0  0
   10.5040    4.2100   23.4020 C   0  0  0  0  0  0  0  0  0  0  0  0
    9.5390    5.6900   23.5550 S   0  0  0  0  0  0  0  0  0  0  0  0
   10.2370    6.6510   22.3750 N   0  0  0  0  0  0  0  0  0  0  0  0
    9.8190    6.2790   24.8460 O   0  0  0  0  0  0  0  0  0  0  0  0
    8.1930    5.4290   23.1060 O   0  0  0  0  0  0  0  0  0  0  0  0
   11.8220    4.3100   22.9560 C   0  0  0  0  0  0  0  0  0  0  0  0
   12.6670    3.0460   22.8320 C   0  0  0  0  0  0  0  0  0  0  0  0
    6.1670   -0.0440   22.2210 S   0  0  0  0  0  0  0  0  0  0  0  0
  1  2  1  0
  2  3  2  0
  3  4  1  0
  4  5  2  0
  5  6  1  0
  7  6  1  6
  7  8  1  0
  8  9  2  0
  8 10  1  0
 10 11  1  0
 11 12  2  0
 12 13  1  0
 13 14  1  0
 14 15  1  0
 15 16  2  0
 16 17  1  0
 17 18  2  0
 11 19  1  0
 14 19  2  0
 18 19  1  0
  7 20  1  0
 20 21  1  6
 20 22  1  0
 22 23  1  0
 23 24  1  0
 24 25  1  0
 25 26  2  0
 26 27  1  0
 27 28  2  0
 28 29  1  0
 29 30  1  0
 29 31  2  0
 29 32  2  0
 28 33  1  0
 25 34  1  0
 33 34  2  0
  2 35  1  0
  5 35  1  0
M  END
