WAR-XCH-eb7b662f-5
     RDKit          3D

 18 19  0  0  0  0  0  0  0  0999 V2000
   12.9570   -2.4560   20.9400 C   0  0  0  0  0  0  0  0  0  0  0  0
   12.0880   -1.8730   21.9740 C   0  0  0  0  0  0  0  0  0  0  0  0
   12.7170   -1.4120   23.1960 C   0  0  0  0  0  0  0  0  0  0  0  0
   11.8740   -0.8830   24.1550 C   0  0  0  0  0  0  0  0  0  0  0  0
   12.6800   -0.4460   25.4690 Cl  0  0  0  0  0  0  0  0  0  0  0  0
   10.5260   -0.7150   24.1160 C   0  0  0  0  0  0  0  0  0  0  0  0
    9.9470   -1.1670   22.9160 C   0  0  0  0  0  0  0  0  0  0  0  0
    8.6030   -1.0900   22.6400 N   0  0  0  0  0  0  0  0  0  0  0  0
    8.1370   -0.2640   21.6790 C   0  0  0  0  0  0  0  0  0  0  0  0
    8.6530    0.8020   21.3460 O   0  0  0  0  0  0  0  0  0  0  0  0
    7.0080   -0.6520   21.0460 N   0  0  0  0  0  0  0  0  0  0  0  0
    6.3790    0.0140   20.0040 C   0  0  0  0  0  0  0  0  0  0  0  0
    5.0750    0.7560   20.2880 C   0  0  0  0  0  0  0  0  0  0  0  0
    4.4930    1.4570   19.0820 C   0  0  0  0  0  0  0  0  0  0  0  0
    5.1590    1.3730   17.8640 C   0  0  0  0  0  0  0  0  0  0  0  0
    6.3060    0.6910   17.6890 N   0  0  0  0  0  0  0  0  0  0  0  0
    6.8730    0.0470   18.7230 C   0  0  0  0  0  0  0  0  0  0  0  0
   10.7110   -1.7310   21.8940 C   0  0  0  0  0  0  0  0  0  0  0  0
  1  2  1  0
  2  3  2  0
  3  4  1  0
  4  5  1  0
  4  6  2  0
  6  7  1  0
  7  8  1  0
  8  9  1  0
  9 10  2  0
  9 11  1  0
 11 12  1  0
 12 13  2  0
 13 14  1  0
 14 15  2  0
 15 16  1  0
 12 17  1  0
 16 17  2  0
  2 18  1  0
  7 18  2  0
M  END
