WAR-XCH-b6889685-35
     RDKit          3D

 28 31  0  0  0  0  0  0  0  0999 V2000
    1.6090   -8.5750   23.3070 N   0  0  0  0  0  0  0  0  0  0  0  0
    1.8160   -8.6500   24.9790 S   0  0  0  0  0  0  0  0  0  0  0  0
    2.3810   -9.9240   25.3390 O   0  0  0  0  0  0  0  0  0  0  0  0
    0.5860   -8.1400   25.5470 O   0  0  0  0  0  0  0  0  0  0  0  0
    3.0490   -7.4070   25.0580 C   0  0  0  0  0  0  0  0  0  0  0  0
    3.3770   -6.7140   23.7870 C   0  0  0  0  0  0  0  0  0  0  0  0
    4.3200   -5.7190   23.7840 C   0  0  0  0  0  0  0  0  0  0  0  0
    4.9730   -5.3520   24.9510 C   0  0  0  0  0  0  0  0  0  0  0  0
    5.8810   -4.3290   24.8450 N   0  0  0  0  0  0  0  0  0  0  0  0
    7.2780   -4.4390   25.2950 C   0  0  0  0  0  0  0  0  0  0  0  0
    8.0530   -4.4280   24.1240 C   0  0  0  0  0  0  0  0  0  0  0  0
    7.8870   -3.1310   23.3020 C   0  0  0  0  0  0  0  0  0  0  0  0
    9.0800   -2.8490   22.4220 N   0  0  0  0  0  0  0  0  0  0  0  0
    9.9220   -1.6070   22.5600 C   0  0  0  0  0  0  0  0  0  0  0  0
    9.0340   -0.3880   22.7470 C   0  0  0  0  0  0  0  0  0  0  0  0
    9.7100    0.9670   22.8730 C   0  0  0  0  0  0  0  0  0  0  0  0
   11.2180    0.9610   22.8010 C   0  0  0  0  0  0  0  0  0  0  0  0
   11.7140    2.2600   22.8820 C   0  0  0  0  0  0  0  0  0  0  0  0
   10.8550    3.3570   23.0260 C   0  0  0  0  0  0  0  0  0  0  0  0
   11.4890    4.5850   23.0680 C   0  0  0  0  0  0  0  0  0  0  0  0
   13.1710    4.4040   22.9240 S   0  0  0  0  0  0  0  0  0  0  0  0
   12.9990    2.6810   22.8190 C   0  0  0  0  0  0  0  0  0  0  0  0
   11.9750   -0.2250   22.6470 C   0  0  0  0  0  0  0  0  0  0  0  0
   11.3310   -1.4800   22.5280 C   0  0  0  0  0  0  0  0  0  0  0  0
    6.5390   -3.2770   22.6490 C   0  0  0  0  0  0  0  0  0  0  0  0
    5.5440   -3.2880   23.8220 C   0  0  0  0  0  0  0  0  0  0  0  0
    4.6650   -6.0270   26.1610 C   0  0  0  0  0  0  0  0  0  0  0  0
    3.7080   -7.0530   26.2230 C   0  0  0  0  0  0  0  0  0  0  0  0
  2  1  1  0
  2  3  2  0
  2  4  2  0
  2  5  1  0
  5  6  2  0
  6  7  1  0
  7  8  2  0
  8  9  1  0
  9 10  1  0
 10 11  1  0
 11 12  1  0
 12 13  1  0
 13 14  1  0
 14 15  2  0
 15 16  1  0
 16 17  2  0
 17 18  1  0
 18 19  1  0
 19 20  2  0
 20 21  1  0
 18 22  2  0
 21 22  1  0
 17 23  1  0
 14 24  1  0
 23 24  2  0
 12 25  1  0
  9 26  1  0
 25 26  1  0
  8 27  1  0
  5 28  1  0
 27 28  2  0
M  END
