WAR-XCH-b6889685-15
     RDKit          3D

 25 27  0  0  0  0  0  0  0  0999 V2000
   13.2720   -1.9360   21.2500 C   0  0  0  0  0  0  0  0  0  0  0  0
   12.1230   -2.2100   22.1120 C   0  0  0  0  0  0  0  0  0  0  0  0
   12.3030   -2.8720   23.3040 C   0  0  0  0  0  0  0  0  0  0  0  0
   11.1960   -3.1380   24.0910 C   0  0  0  0  0  0  0  0  0  0  0  0
    9.9270   -2.7240   23.6610 C   0  0  0  0  0  0  0  0  0  0  0  0
    8.8100   -2.9180   24.3640 O   0  0  0  0  0  0  0  0  0  0  0  0
    8.5070   -1.5720   24.7440 C   0  0  0  0  0  0  0  0  0  0  0  0
    9.8160   -0.7130   24.6990 C   0  0  0  0  0  0  0  0  0  0  0  0
   11.2410   -1.4420   24.6510 C   0  0  0  0  0  0  0  0  0  0  0  0
   12.4190   -0.5530   24.2550 C   0  0  0  0  0  0  0  0  0  0  0  0
   12.0280    0.2320   23.0910 N   0  0  0  0  0  0  0  0  0  0  0  0
   11.8100    1.5670   23.2080 C   0  0  0  0  0  0  0  0  0  0  0  0
   10.5530    1.9190   23.6730 C   0  0  0  0  0  0  0  0  0  0  0  0
   10.1590    3.2280   23.8200 C   0  0  0  0  0  0  0  0  0  0  0  0
   11.0430    4.2340   23.4990 C   0  0  0  0  0  0  0  0  0  0  0  0
   10.5080    5.9070   23.6900 S   0  0  0  0  0  0  0  0  0  0  0  0
    9.1400    5.9130   22.7090 N   0  0  0  0  0  0  0  0  0  0  0  0
   11.4960    6.7570   23.0850 O   0  0  0  0  0  0  0  0  0  0  0  0
   10.0270    6.0910   25.0400 O   0  0  0  0  0  0  0  0  0  0  0  0
   12.3240    3.9380   23.0340 C   0  0  0  0  0  0  0  0  0  0  0  0
   12.6910    2.5980   22.8990 C   0  0  0  0  0  0  0  0  0  0  0  0
   10.7690   -0.2380   22.5210 C   0  0  0  0  0  0  0  0  0  0  0  0
    9.6430    0.1260   23.4510 C   0  0  0  0  0  0  0  0  0  0  0  0
    9.7590   -2.0660   22.4860 C   0  0  0  0  0  0  0  0  0  0  0  0
   10.8610   -1.8120   21.7290 C   0  0  0  0  0  0  0  0  0  0  0  0
  1  2  1  0
  2  3  2  0
  3  4  1  0
  4  5  2  0
  5  6  1  0
  6  7  1  0
  7  8  1  0
  8  9  1  0
  9 10  1  0
 10 11  1  0
 11 12  1  0
 12 13  2  0
 13 14  1  0
 14 15  2  0
 15 16  1  0
 16 17  1  0
 16 18  2  0
 16 19  2  0
 15 20  1  0
 12 21  1  0
 20 21  2  0
 11 22  1  0
  8 23  1  0
 22 23  1  0
  5 24  1  0
  2 25  1  0
 24 25  2  0
M  END
