WAR-XCH-79d12f6e-12
     RDKit          3D

 23 26  0  0  0  0  0  0  0  0999 V2000
    2.5550   -4.0340   25.3550 C   0  0  0  0  0  0  0  0  0  0  0  0
    3.8100   -3.7560   24.5440 C   0  0  0  0  0  0  0  0  0  0  0  0
    4.1480   -2.6920   24.1680 C   0  0  0  0  0  0  0  0  0  0  0  0
    5.2700   -3.1040   23.5470 C   0  0  0  0  0  0  0  0  0  0  0  0
    5.8260   -4.3610   23.4160 N   0  0  0  0  0  0  0  0  0  0  0  0
    7.0000   -4.1030   22.6450 C   0  0  0  0  0  0  0  0  0  0  0  0
    7.1330   -2.6980   22.3280 N   0  0  0  0  0  0  0  0  0  0  0  0
    7.8780   -1.7220   21.7090 C   0  0  0  0  0  0  0  0  0  0  0  0
    9.3270   -2.1160   21.4500 C   0  0  0  0  0  0  0  0  0  0  0  0
   10.8630   -2.3610   21.6410 C   0  0  0  0  0  0  0  0  0  0  0  0
   11.8660   -2.2300   22.5700 C   0  0  0  0  0  0  0  0  0  0  0  0
   11.4690   -1.6750   23.8930 C   0  0  0  0  0  0  0  0  0  0  0  0
   10.0690   -1.3440   24.0090 N   0  0  0  0  0  0  0  0  0  0  0  0
    9.1990   -1.6040   22.8020 C   0  0  0  0  0  0  0  0  0  0  0  0
    7.7310   -0.5830   22.7550 C   0  0  0  0  0  0  0  0  0  0  0  0
    6.5560    0.1690   22.7560 C   0  0  0  0  0  0  0  0  0  0  0  0
    6.2980    0.6420   21.5010 C   0  0  0  0  0  0  0  0  0  0  0  0
    7.2360    0.1460   20.6210 C   0  0  0  0  0  0  0  0  0  0  0  0
    7.1310   -1.2160   20.3670 C   0  0  0  0  0  0  0  0  0  0  0  0
    6.0380   -2.5000   22.9740 C   0  0  0  0  0  0  0  0  0  0  0  0
    5.9430   -3.9700   23.2660 C   0  0  0  0  0  0  0  0  0  0  0  0
    4.8010   -4.7730   24.0950 C   0  0  0  0  0  0  0  0  0  0  0  0
    5.9080   -5.7310   23.5640 C   0  0  0  0  0  0  0  0  0  0  0  0
  1  2  1  0
  2  3  2  0
  3  4  1  0
  4  5  1  0
  5  6  2  0
  6  7  1  0
  7  8  1  0
  8  9  1  0
  9 10  2  0
 10 11  1  0
 11 12  2  0
 12 13  1  0
  9 14  1  0
 13 14  2  0
  8 15  1  0
 15 16  1  0
 16 17  1  0
 17 18  1  0
  8 19  1  0
 18 19  1  0
  4 20  2  0
  7 20  1  0
 20 21  1  0
  2 22  1  0
 21 22  2  0
 22 23  1  0
M  END
