WAR-XCH-b6889685-50
     RDKit          3D

 31 35  0  0  0  0  0  0  0  0999 V2000
   25.2550  -12.8970   23.4990 N   0  0  0  0  0  0  0  0  0  0  0  0
   24.3110  -13.3770   24.8100 S   0  0  0  0  0  0  0  0  0  0  0  0
   25.0980  -13.2820   26.0110 O   0  0  0  0  0  0  0  0  0  0  0  0
   23.0210  -12.7690   24.6300 O   0  0  0  0  0  0  0  0  0  0  0  0
   24.1860  -15.0790   24.5400 C   0  0  0  0  0  0  0  0  0  0  0  0
   23.8400  -15.8840   25.6190 C   0  0  0  0  0  0  0  0  0  0  0  0
   23.7520  -17.2490   25.4120 C   0  0  0  0  0  0  0  0  0  0  0  0
   24.0050  -17.8000   24.1580 C   0  0  0  0  0  0  0  0  0  0  0  0
   23.9400  -19.1380   23.9400 N   0  0  0  0  0  0  0  0  0  0  0  0
   22.6210  -19.7150   24.0390 C   0  0  0  0  0  0  0  0  0  0  0  0
   22.5320  -21.1770   23.6040 C   0  0  0  0  0  0  0  0  0  0  0  0
   23.4340  -21.4770   22.4050 C   0  0  0  0  0  0  0  0  0  0  0  0
   23.1020  -22.7880   21.6910 C   0  0  0  0  0  0  0  0  0  0  0  0
   22.7100  -23.3830   20.5870 N   0  0  0  0  0  0  0  0  0  0  0  0
   22.3590  -22.6890   19.2320 C   0  0  0  0  0  0  0  0  0  0  0  0
   21.9060  -23.1690   17.9420 C   0  0  0  0  0  0  0  0  0  0  0  0
   21.6080  -22.2640   16.8180 C   0  0  0  0  0  0  0  0  0  0  0  0
   22.2390  -22.3700   15.5640 C   0  0  0  0  0  0  0  0  0  0  0  0
   21.9140  -21.4960   14.5190 C   0  0  0  0  0  0  0  0  0  0  0  0
   20.9540  -20.5000   14.7020 C   0  0  0  0  0  0  0  0  0  0  0  0
   20.3220  -20.3810   15.9340 C   0  0  0  0  0  0  0  0  0  0  0  0
   20.6450  -21.2480   16.9740 C   0  0  0  0  0  0  0  0  0  0  0  0
   21.7460  -24.6540   17.8340 C   0  0  0  0  0  0  0  0  0  0  0  0
   21.9890  -25.5990   18.9150 C   0  0  0  0  0  0  0  0  0  0  0  0
   22.3880  -24.9510   20.0360 C   0  0  0  0  0  0  0  0  0  0  0  0
   22.3110  -23.7980   19.4260 C   0  0  0  0  0  0  0  0  0  0  0  0
   22.7350  -22.2400   20.2490 S   0  0  0  0  0  0  0  0  0  0  0  0
   24.8480  -21.1480   22.7720 C   0  0  0  0  0  0  0  0  0  0  0  0
   24.8660  -19.6280   22.9050 C   0  0  0  0  0  0  0  0  0  0  0  0
   24.3400  -16.9450   23.0980 C   0  0  0  0  0  0  0  0  0  0  0  0
   24.4320  -15.5800   23.2820 C   0  0  0  0  0  0  0  0  0  0  0  0
  2  1  1  0
  2  3  2  0
  2  4  2  0
  2  5  1  0
  5  6  2  0
  6  7  1  0
  7  8  2  0
  8  9  1  0
  9 10  1  0
 10 11  1  0
 11 12  1  0
 12 13  1  0
 13 14  2  0
 14 15  1  0
 15 16  2  0
 16 17  1  0
 17 18  2  0
 18 19  1  0
 19 20  2  0
 20 21  1  0
 17 22  1  0
 21 22  2  0
 16 23  1  0
 23 24  2  0
 24 25  1  0
 15 26  1  0
 25 26  2  0
 13 27  1  0
 26 27  1  0
 12 28  1  0
  9 29  1  0
 28 29  1  0
  8 30  1  0
  5 31  1  0
 30 31  2  0
M  END
