WAR-XCH-b72a1bbc-11
     RDKit          3D

 23 25  0  0  0  0  0  0  0  0999 V2000
    8.9330    4.9970   22.5860 N   0  0  0  0  0  0  0  0  0  0  0  0
   10.3310    5.1520   23.5050 S   0  0  0  0  0  0  0  0  0  0  0  0
   11.2180    5.9990   22.7420 O   0  0  0  0  0  0  0  0  0  0  0  0
    9.9200    5.5130   24.8390 O   0  0  0  0  0  0  0  0  0  0  0  0
   11.0100    3.4950   23.4940 C   0  0  0  0  0  0  0  0  0  0  0  0
   10.3000    2.3920   23.9880 C   0  0  0  0  0  0  0  0  0  0  0  0
   10.8960    1.1050   23.9810 C   0  0  0  0  0  0  0  0  0  0  0  0
   12.1990    0.9030   23.4820 C   0  0  0  0  0  0  0  0  0  0  0  0
   12.8760   -0.3640   23.4580 N   0  0  0  0  0  0  0  0  0  0  0  0
   12.7500   -1.2060   24.6580 C   0  0  0  0  0  0  0  0  0  0  0  0
   11.8440   -2.3540   24.2460 C   0  0  0  0  0  0  0  0  0  0  0  0
   10.6960   -1.7400   23.4210 C   0  0  0  0  0  0  0  0  0  0  0  0
    9.3820   -2.4620   23.3660 N   0  0  0  0  0  0  0  0  0  0  0  0
    8.4030   -1.9730   24.3840 C   0  0  0  0  0  0  0  0  0  0  0  0
    7.3380   -1.1380   24.0510 C   0  0  0  0  0  0  0  0  0  0  0  0
    6.4320   -1.5240   23.0610 C   0  0  0  0  0  0  0  0  0  0  0  0
    6.8560   -1.3770   21.7510 C   0  0  0  0  0  0  0  0  0  0  0  0
    8.2210   -1.4800   21.5700 C   0  0  0  0  0  0  0  0  0  0  0  0
    8.8700   -2.5820   22.1250 C   0  0  0  0  0  0  0  0  0  0  0  0
   11.3450   -1.4490   22.0700 C   0  0  0  0  0  0  0  0  0  0  0  0
   12.7110   -1.1830   22.2540 C   0  0  0  0  0  0  0  0  0  0  0  0
   12.8490    2.0370   22.9920 C   0  0  0  0  0  0  0  0  0  0  0  0
   12.2870    3.3140   22.9870 C   0  0  0  0  0  0  0  0  0  0  0  0
  2  1  1  0
  2  3  2  0
  2  4  2  0
  2  5  1  0
  5  6  2  0
  6  7  1  0
  7  8  2  0
  8  9  1  0
  9 10  1  0
 10 11  1  0
 11 12  1  0
 12 13  1  0
 13 14  1  0
 14 15  1  0
 15 16  1  0
 16 17  1  0
 17 18  1  0
 13 19  1  0
 18 19  1  0
 12 20  1  0
  9 21  1  0
 20 21  1  0
  8 22  1  0
  5 23  1  0
 22 23  2  0
M  END
