WAR-XCH-6eb0722e-5
     RDKit          3D

 24 25  0  0  0  0  0  0  0  0999 V2000
   13.1050   -1.9280   21.3090 C   0  0  0  0  0  0  0  0  0  0  0  0
   12.2830   -1.4270   22.4050 C   0  0  0  0  0  0  0  0  0  0  0  0
   12.7820   -0.9170   23.5260 C   0  0  0  0  0  0  0  0  0  0  0  0
   11.8970   -0.4370   24.6150 C   0  0  0  0  0  0  0  0  0  0  0  0
   10.3920   -0.5720   24.3260 C   0  0  0  0  0  0  0  0  0  0  0  0
    9.3960   -0.1040   25.3980 C   0  0  0  0  0  0  0  0  0  0  0  0
    8.4170    0.8220   25.0370 C   0  0  0  0  0  0  0  0  0  0  0  0
    7.2850    0.6770   25.9730 N   0  0  0  0  0  0  0  0  0  0  0  0
    5.7570    1.2910   25.6010 S   0  0  0  0  0  0  0  0  0  0  0  0
    5.4110    0.5620   24.0100 C   0  0  0  0  0  0  0  0  0  0  0  0
    5.9350    2.7150   25.4150 O   0  0  0  0  0  0  0  0  0  0  0  0
    4.8220    0.7480   26.5590 O   0  0  0  0  0  0  0  0  0  0  0  0
    9.9870   -1.1180   23.1070 C   0  0  0  0  0  0  0  0  0  0  0  0
    8.5640   -1.2580   22.7970 N   0  0  0  0  0  0  0  0  0  0  0  0
    8.1380   -0.3730   21.6960 C   0  0  0  0  0  0  0  0  0  0  0  0
    8.7070    0.6470   21.3210 O   0  0  0  0  0  0  0  0  0  0  0  0
    6.9060   -0.8990   21.1110 N   0  0  0  0  0  0  0  0  0  0  0  0
    6.3960   -0.1480   19.9830 C   0  0  0  0  0  0  0  0  0  0  0  0
    5.1250    0.6330   20.2510 C   0  0  0  0  0  0  0  0  0  0  0  0
    4.5380    1.3950   19.2490 C   0  0  0  0  0  0  0  0  0  0  0  0
    5.2540    1.3410   18.0180 C   0  0  0  0  0  0  0  0  0  0  0  0
    6.3840    0.6560   17.7510 N   0  0  0  0  0  0  0  0  0  0  0  0
    6.9340   -0.0780   18.7330 C   0  0  0  0  0  0  0  0  0  0  0  0
   10.9160   -1.5240   22.2020 C   0  0  0  0  0  0  0  0  0  0  0  0
  1  2  1  0
  2  3  2  0
  3  4  1  0
  4  5  2  0
  5  6  1  0
  6  7  1  0
  7  8  1  0
  9  8  1  0
  9 10  1  0
  9 11  2  0
  9 12  2  0
  5 13  1  0
 13 14  1  0
 14 15  1  0
 15 16  2  0
 15 17  1  0
 17 18  1  0
 18 19  2  0
 19 20  1  0
 20 21  2  0
 21 22  1  0
 18 23  1  0
 22 23  2  0
  2 24  1  0
 13 24  2  0
M  END
