WAR-XCH-b6889685-46
     RDKit          3D

 23 25  0  0  0  0  0  0  0  0999 V2000
   21.6090  -31.0530   15.5300 N   0  0  0  0  0  0  0  0  0  0  0  0
   20.2020  -30.2030   15.8620 S   0  0  0  0  0  0  0  0  0  0  0  0
   19.5780  -29.9420   14.5870 O   0  0  0  0  0  0  0  0  0  0  0  0
   19.5280  -30.9410   16.9090 O   0  0  0  0  0  0  0  0  0  0  0  0
   20.8210  -28.6890   16.5270 C   0  0  0  0  0  0  0  0  0  0  0  0
   20.1720  -28.1040   17.6020 C   0  0  0  0  0  0  0  0  0  0  0  0
   20.6540  -26.9140   18.1220 C   0  0  0  0  0  0  0  0  0  0  0  0
   21.7900  -26.2680   17.5980 C   0  0  0  0  0  0  0  0  0  0  0  0
   22.1800  -25.0760   18.2290 N   0  0  0  0  0  0  0  0  0  0  0  0
   22.0450  -25.2830   19.6660 C   0  0  0  0  0  0  0  0  0  0  0  0
   22.1930  -24.0010   20.4350 C   0  0  0  0  0  0  0  0  0  0  0  0
   22.9580  -22.9720   19.6270 C   0  0  0  0  0  0  0  0  0  0  0  0
   23.2750  -21.7110   20.3820 N   0  0  0  0  0  0  0  0  0  0  0  0
   23.6470  -21.9440   21.8140 C   0  0  0  0  0  0  0  0  0  0  0  0
   23.3980  -20.8970   22.7420 C   0  0  0  0  0  0  0  0  0  0  0  0
   23.7410  -19.3940   22.5460 C   0  0  0  0  0  0  0  0  0  0  0  0
   23.3090  -18.5860   23.7860 C   0  0  0  0  0  0  0  0  0  0  0  0
   22.7140  -19.5550   24.7460 C   0  0  0  0  0  0  0  0  0  0  0  0
   22.6560  -21.2090   24.2630 S   0  0  0  0  0  0  0  0  0  0  0  0
   22.2100  -22.6280   18.3100 C   0  0  0  0  0  0  0  0  0  0  0  0
   21.5970  -23.8020   17.7090 C   0  0  0  0  0  0  0  0  0  0  0  0
   22.4330  -26.8800   16.5110 C   0  0  0  0  0  0  0  0  0  0  0  0
   21.9560  -28.0850   15.9740 C   0  0  0  0  0  0  0  0  0  0  0  0
  2  1  1  0
  2  3  2  0
  2  4  2  0
  2  5  1  0
  5  6  2  0
  6  7  1  0
  7  8  2  0
  8  9  1  0
  9 10  1  0
 10 11  1  0
 11 12  1  0
 12 13  1  0
 13 14  1  0
 14 15  1  0
 15 16  2  0
 16 17  1  0
 17 18  2  0
 15 19  1  0
 18 19  1  0
 12 20  1  0
  9 21  1  0
 20 21  1  0
  8 22  1  0
  5 23  1  0
 22 23  2  0
M  END
