WAR-XCH-b72a1bbc-45
     RDKit          3D

 25 27  0  0  0  0  0  0  0  0999 V2000
    3.8060    1.7380   20.6340 C   0  0  0  0  0  0  0  0  0  0  0  0
    4.9010    1.1340   20.0240 C   0  0  0  0  0  0  0  0  0  0  0  0
    5.0730    1.3360   18.6580 C   0  0  0  0  0  0  0  0  0  0  0  0
    6.1350    0.7660   17.9870 C   0  0  0  0  0  0  0  0  0  0  0  0
    7.0450   -0.0280   18.6860 C   0  0  0  0  0  0  0  0  0  0  0  0
    6.9330   -0.2960   20.1740 C   0  0  0  0  0  0  0  0  0  0  0  0
    7.8610   -1.1090   20.8900 N   0  0  0  0  0  0  0  0  0  0  0  0
    8.9450   -0.5020   21.6680 C   0  0  0  0  0  0  0  0  0  0  0  0
    9.8190   -1.5260   22.4870 C   0  0  0  0  0  0  0  0  0  0  0  0
    9.7830   -0.8920   23.7960 C   0  0  0  0  0  0  0  0  0  0  0  0
    9.8380    0.5230   23.2840 C   0  0  0  0  0  0  0  0  0  0  0  0
   11.1480    0.6950   22.6910 N   0  0  0  0  0  0  0  0  0  0  0  0
   11.5000    2.0310   22.7890 C   0  0  0  0  0  0  0  0  0  0  0  0
   12.9080    2.5860   22.8170 C   0  0  0  0  0  0  0  0  0  0  0  0
   13.0210    4.1060   22.9320 C   0  0  0  0  0  0  0  0  0  0  0  0
   11.8480    4.8680   23.0080 C   0  0  0  0  0  0  0  0  0  0  0  0
   11.9480    6.6110   23.1560 S   0  0  0  0  0  0  0  0  0  0  0  0
   12.1890    6.7860   24.8040 N   0  0  0  0  0  0  0  0  0  0  0  0
   13.1800    7.0390   22.5390 O   0  0  0  0  0  0  0  0  0  0  0  0
   10.6520    7.1610   22.8410 O   0  0  0  0  0  0  0  0  0  0  0  0
   10.5940    4.2960   22.9730 C   0  0  0  0  0  0  0  0  0  0  0  0
   10.4250    2.9350   22.8660 C   0  0  0  0  0  0  0  0  0  0  0  0
   12.0480   -0.4850   22.6870 C   0  0  0  0  0  0  0  0  0  0  0  0
   11.3340   -1.6120   22.1530 C   0  0  0  0  0  0  0  0  0  0  0  0
    5.8080    0.3390   20.7700 C   0  0  0  0  0  0  0  0  0  0  0  0
  1  2  1  0
  2  3  2  0
  3  4  1  0
  4  5  2  0
  5  6  1  0
  6  7  1  0
  7  8  1  0
  8  9  1  0
  9 10  1  0
 10 11  1  0
 11 12  1  0
 12 13  1  0
 13 14  2  0
 14 15  1  0
 15 16  2  0
 16 17  1  0
 17 18  1  0
 17 19  2  0
 17 20  2  0
 16 21  1  0
 13 22  1  0
 21 22  2  0
 12 23  1  0
  9 24  1  0
 23 24  1  0
  2 25  1  0
  6 25  2  0
M  END
