WAR-XCH-b6889685-48
     RDKit          3D

 26 28  0  0  0  0  0  0  0  0999 V2000
   21.8830  -22.9060   22.4040 C   0  0  0  0  0  0  0  0  0  0  0  0
   23.0900  -22.2980   22.0340 C   0  0  1  0  0  0  0  0  0  0  0  0
   23.1640  -22.1120   20.5510 N   0  0  0  0  0  0  0  0  0  0  0  0
   22.3940  -23.0890   19.7570 C   0  0  0  0  0  0  0  0  0  0  0  0
   22.8880  -24.3320   20.1210 C   0  0  0  0  0  0  0  0  0  0  0  0
   22.0940  -25.4310   19.4840 C   0  0  0  0  0  0  0  0  0  0  0  0
   22.0070  -25.2520   18.0470 N   0  0  0  0  0  0  0  0  0  0  0  0
   21.6970  -26.4550   17.4380 C   0  0  0  0  0  0  0  0  0  0  0  0
   22.4190  -26.9750   16.1710 C   0  0  0  0  0  0  0  0  0  0  0  0
   21.9800  -28.3590   15.5950 C   0  0  0  0  0  0  0  0  0  0  0  0
   20.9690  -29.1260   16.1850 C   0  0  0  0  0  0  0  0  0  0  0  0
   20.4990  -30.6790   15.5000 S   0  0  0  0  0  0  0  0  0  0  0  0
   21.7080  -31.7110   16.0570 N   0  0  0  0  0  0  0  0  0  0  0  0
   20.6570  -30.6500   14.0660 O   0  0  0  0  0  0  0  0  0  0  0  0
   19.2690  -31.1100   16.1290 O   0  0  0  0  0  0  0  0  0  0  0  0
   20.2790  -28.6030   17.4280 C   0  0  0  0  0  0  0  0  0  0  0  0
   20.6940  -27.2620   17.9920 C   0  0  0  0  0  0  0  0  0  0  0  0
   21.7500  -23.8950   17.5020 C   0  0  0  0  0  0  0  0  0  0  0  0
   22.4320  -22.9000   18.2210 C   0  0  0  0  0  0  0  0  0  0  0  0
   23.2250  -20.9760   22.7810 C   0  0  0  0  0  0  0  0  0  0  0  0
   22.6490  -20.8060   24.0270 C   0  0  0  0  0  0  0  0  0  0  0  0
   22.7240  -19.5970   24.7430 C   0  0  0  0  0  0  0  0  0  0  0  0
   23.4590  -18.4110   24.1400 C   0  0  0  0  0  0  0  0  0  0  0  0
   23.5340  -17.2450   24.7940 F   0  0  0  0  0  0  0  0  0  0  0  0
   24.0430  -18.5730   22.9090 C   0  0  0  0  0  0  0  0  0  0  0  0
   23.9340  -19.9060   22.1850 C   0  0  0  0  0  0  0  0  0  0  0  0
  2  1  1  6
  2  3  1  0
  3  4  1  0
  4  5  1  0
  5  6  1  0
  6  7  1  0
  7  8  1  0
  8  9  2  0
  9 10  1  0
 10 11  2  0
 11 12  1  0
 12 13  1  0
 12 14  2  0
 12 15  2  0
 11 16  1  0
  8 17  1  0
 16 17  2  0
  7 18  1  0
  4 19  1  0
 18 19  1  0
  2 20  1  0
 20 21  2  0
 21 22  1  0
 22 23  2  0
 23 24  1  0
 23 25  1  0
 20 26  1  0
 25 26  2  0
M  END
