WAR-XCH-b6889685-8
     RDKit          3D

 30 33  0  0  0  0  0  0  0  0999 V2000
    8.8220    5.3940   22.6180 N   0  0  0  0  0  0  0  0  0  0  0  0
   10.2490    5.5630   23.4730 S   0  0  0  0  0  0  0  0  0  0  0  0
   11.0920    6.4430   22.7050 O   0  0  0  0  0  0  0  0  0  0  0  0
    9.8540    5.8900   24.8280 O   0  0  0  0  0  0  0  0  0  0  0  0
   10.9650    3.9470   23.4660 C   0  0  0  0  0  0  0  0  0  0  0  0
   10.2630    2.8680   23.9970 C   0  0  0  0  0  0  0  0  0  0  0  0
   10.8510    1.6080   24.0290 C   0  0  0  0  0  0  0  0  0  0  0  0
   12.1350    1.3900   23.5320 C   0  0  0  0  0  0  0  0  0  0  0  0
   12.7330    0.1260   23.5790 N   0  0  0  0  0  0  0  0  0  0  0  0
   12.3680   -0.7010   24.7060 C   0  0  0  0  0  0  0  0  0  0  0  0
   10.9030   -1.1590   24.4950 C   0  0  0  0  0  0  0  0  0  0  0  0
   10.1440   -0.2940   23.3980 C   0  0  0  0  0  0  0  0  0  0  0  0
    8.7550   -0.6880   22.7280 C   0  0  0  0  0  0  0  0  0  0  0  0
    7.4730   -0.3980   23.4380 N   0  0  0  0  0  0  0  0  0  0  0  0
    6.9390   -1.7200   23.7560 C   0  0  0  0  0  0  0  0  0  0  0  0
    8.1810   -2.5670   23.9270 C   0  0  0  0  0  0  0  0  0  0  0  0
    9.3100   -1.5130   23.9760 C   0  0  0  0  0  0  0  0  0  0  0  0
   10.7360   -1.9900   23.6500 C   0  0  0  0  0  0  0  0  0  0  0  0
   11.2040   -2.3180   22.3510 C   0  0  0  0  0  0  0  0  0  0  0  0
   12.5780   -2.7620   22.1480 C   0  0  0  0  0  0  0  0  0  0  0  0
   13.4060   -2.8630   23.2540 C   0  0  0  0  0  0  0  0  0  0  0  0
   13.0240   -2.5610   24.5260 C   0  0  0  0  0  0  0  0  0  0  0  0
   13.8680   -2.6760   25.5640 F   0  0  0  0  0  0  0  0  0  0  0  0
   11.6180   -2.0930   24.7180 C   0  0  0  0  0  0  0  0  0  0  0  0
    9.0190   -0.5400   25.1650 C   0  0  0  0  0  0  0  0  0  0  0  0
    7.8390    0.2700   24.6860 C   0  0  0  0  0  0  0  0  0  0  0  0
   11.0750   -0.1480   22.2390 C   0  0  0  0  0  0  0  0  0  0  0  0
   12.3790   -0.6250   22.4470 C   0  0  0  0  0  0  0  0  0  0  0  0
   12.7950    2.4880   22.9860 C   0  0  0  0  0  0  0  0  0  0  0  0
   12.2360    3.7620   22.9440 C   0  0  0  0  0  0  0  0  0  0  0  0
  2  1  1  0
  2  3  2  0
  2  4  2  0
  2  5  1  0
  5  6  2  0
  6  7  1  0
  7  8  2  0
  8  9  1  0
  9 10  1  0
 10 11  1  0
 11 12  1  0
 12 13  1  0
 13 14  1  0
 14 15  1  0
 15 16  1  0
 16 17  1  0
 17 18  1  0
 18 19  2  0
 19 20  1  0
 20 21  2  0
 21 22  1  0
 22 23  1  0
 18 24  1  0
 22 24  2  0
 17 25  1  0
 14 26  1  0
 25 26  1  0
 12 27  1  0
  9 28  1  0
 27 28  1  0
  8 29  1  0
  5 30  1  0
 29 30  2  0
M  END
