WAR-XCH-b72a1bbc-17
     RDKit          3D

 23 25  0  0  0  0  0  0  0  0999 V2000
    8.4900   -5.4400   27.9620 C   0  0  0  0  0  0  0  0  0  0  0  0
    7.1710   -5.4560   27.5310 C   0  0  0  0  0  0  0  0  0  0  0  0
    6.2550   -6.3420   28.1200 C   0  0  0  0  0  0  0  0  0  0  0  0
    4.8970   -6.4070   27.7150 C   0  0  0  0  0  0  0  0  0  0  0  0
    4.3510   -5.6430   26.7460 N   0  0  0  0  0  0  0  0  0  0  0  0
    5.2150   -4.7870   26.1730 C   0  0  0  0  0  0  0  0  0  0  0  0
    6.6890   -4.6220   26.5160 C   0  0  0  0  0  0  0  0  0  0  0  0
    7.5030   -3.5650   25.7290 C   0  0  0  0  0  0  0  0  0  0  0  0
    8.4900   -4.2030   24.7860 C   0  0  0  0  0  0  0  0  0  0  0  0
    8.8250   -3.2920   23.5350 C   0  0  0  0  0  0  0  0  0  0  0  0
    8.6440   -1.8780   23.7400 N   0  0  0  0  0  0  0  0  0  0  0  0
    9.5500   -0.8170   23.4020 C   0  0  0  0  0  0  0  0  0  0  0  0
    8.9370    0.5640   23.5520 C   0  0  0  0  0  0  0  0  0  0  0  0
    9.8060    1.7760   23.2510 C   0  0  0  0  0  0  0  0  0  0  0  0
   11.2280    1.5680   22.8230 C   0  0  0  0  0  0  0  0  0  0  0  0
   12.0680    3.1180   22.5450 S   0  0  0  0  0  0  0  0  0  0  0  0
   11.3750    4.1040   23.7230 N   0  0  0  0  0  0  0  0  0  0  0  0
   11.6330    3.7640   21.3460 O   0  0  0  0  0  0  0  0  0  0  0  0
   13.4440    2.9570   22.8110 O   0  0  0  0  0  0  0  0  0  0  0  0
   11.7350    0.2380   22.6910 C   0  0  0  0  0  0  0  0  0  0  0  0
   10.9220   -0.8990   22.9640 C   0  0  0  0  0  0  0  0  0  0  0  0
    7.3180   -1.5580   24.2470 C   0  0  0  0  0  0  0  0  0  0  0  0
    6.6510   -2.6570   24.8380 C   0  0  0  0  0  0  0  0  0  0  0  0
  1  2  1  0
  2  3  2  0
  3  4  1  0
  4  5  2  0
  5  6  1  0
  2  7  1  0
  6  7  2  0
  7  8  1  0
  8  9  1  0
  9 10  1  0
 10 11  1  0
 11 12  1  0
 12 13  2  0
 13 14  1  0
 14 15  2  0
 15 16  1  0
 16 17  1  0
 16 18  2  0
 16 19  2  0
 15 20  1  0
 12 21  1  0
 20 21  2  0
 11 22  1  0
  8 23  1  0
 22 23  1  0
M  END
