WAR-XCH-eb7b662f-3
     RDKit          3D

 18 19  0  0  0  0  0  0  0  0999 V2000
    8.6310    0.9270   21.2200 O   0  0  0  0  0  0  0  0  0  0  0  0
    8.2300   -0.1750   21.5660 C   0  0  0  0  0  0  0  0  0  0  0  0
    7.0690   -0.7200   21.0930 N   0  0  0  0  0  0  0  0  0  0  0  0
    6.4050   -0.0650   20.0470 C   0  0  0  0  0  0  0  0  0  0  0  0
    5.1740    0.6520   20.3500 C   0  0  0  0  0  0  0  0  0  0  0  0
    4.5380    1.3160   19.3080 C   0  0  0  0  0  0  0  0  0  0  0  0
    5.1240    1.2460   18.0540 C   0  0  0  0  0  0  0  0  0  0  0  0
    6.2700    0.5850   17.7070 N   0  0  0  0  0  0  0  0  0  0  0  0
    6.8900   -0.0660   18.7360 C   0  0  0  0  0  0  0  0  0  0  0  0
    8.9020   -0.9860   22.4530 N   0  0  0  0  0  0  0  0  0  0  0  0
   10.2060   -0.6650   22.7930 C   0  0  0  0  0  0  0  0  0  0  0  0
   10.6070    0.8400   22.6150 C   0  0  0  0  0  0  0  0  0  0  0  0
   12.0400    1.1940   22.9500 C   0  0  0  0  0  0  0  0  0  0  0  0
   12.6600    2.7980   22.7920 Cl  0  0  0  0  0  0  0  0  0  0  0  0
   12.6060   -0.0550   23.3740 C   0  0  0  0  0  0  0  0  0  0  0  0
   12.3760   -1.4220   23.5940 C   0  0  0  0  0  0  0  0  0  0  0  0
   13.4920   -2.5710   24.1780 Cl  0  0  0  0  0  0  0  0  0  0  0  0
   11.0530   -1.7180   23.2570 C   0  0  0  0  0  0  0  0  0  0  0  0
  1  2  2  0
  2  3  1  0
  3  4  1  0
  4  5  2  0
  5  6  1  0
  6  7  2  0
  7  8  1  0
  4  9  1  0
  8  9  2  0
  2 10  1  0
 10 11  1  0
 11 12  2  0
 12 13  1  0
 13 14  1  0
 13 15  2  0
 15 16  1  0
 16 17  1  0
 11 18  1  0
 16 18  2  0
M  END
