WAR-XCH-b72a1bbc-37
     RDKit          3D

 23 25  0  0  0  0  0  0  0  0999 V2000
    8.8120    5.5730   22.5270 N   0  0  0  0  0  0  0  0  0  0  0  0
   10.3700    5.4640   23.1380 S   0  0  0  0  0  0  0  0  0  0  0  0
   11.2560    6.1930   22.2690 O   0  0  0  0  0  0  0  0  0  0  0  0
   10.2300    5.7780   24.5490 O   0  0  0  0  0  0  0  0  0  0  0  0
   10.7140    3.7280   22.9880 C   0  0  0  0  0  0  0  0  0  0  0  0
    9.6830    2.7980   23.0160 C   0  0  0  0  0  0  0  0  0  0  0  0
    9.9810    1.4230   22.9420 C   0  0  0  0  0  0  0  0  0  0  0  0
   11.2930    0.9520   22.8420 C   0  0  0  0  0  0  0  0  0  0  0  0
   11.5410   -0.4070   22.8040 N   0  0  0  0  0  0  0  0  0  0  0  0
   12.1140   -1.0790   21.6670 C   0  0  0  0  0  0  0  0  0  0  0  0
   12.5380   -2.4290   22.0480 C   0  0  0  0  0  0  0  0  0  0  0  0
   13.2160   -2.2330   23.3160 C   0  0  0  0  0  0  0  0  0  0  0  0
   14.2500   -3.2380   23.6600 C   0  0  0  0  0  0  0  0  0  0  0  0
   15.7320   -4.2140   22.5960 S   0  0  0  0  0  0  0  0  0  0  0  0
   17.8350   -2.6570   23.7920 C   0  0  0  0  0  0  0  0  0  0  0  0
   19.4470   -2.1860   23.4910 C   0  0  0  0  0  0  0  0  0  0  0  0
   20.1730   -1.4230   24.3580 C   0  0  0  0  0  0  0  0  0  0  0  0
   19.3770   -1.0090   25.7410 S   0  0  0  0  0  0  0  0  0  0  0  0
   17.9390   -1.8230   25.2670 C   0  0  0  0  0  0  0  0  0  0  0  0
   12.1650   -2.1050   24.4200 C   0  0  0  0  0  0  0  0  0  0  0  0
   11.0140   -1.2930   23.8530 C   0  0  0  0  0  0  0  0  0  0  0  0
   12.2950    1.9250   22.7880 C   0  0  0  0  0  0  0  0  0  0  0  0
   12.0220    3.2970   22.8540 C   0  0  0  0  0  0  0  0  0  0  0  0
  2  1  1  0
  2  3  2  0
  2  4  2  0
  2  5  1  0
  5  6  2  0
  6  7  1  0
  7  8  2  0
  8  9  1  0
  9 10  1  0
 10 11  1  0
 11 12  1  0
 12 13  1  0
 13 14  1  0
 14 15  1  0
 15 16  1  0
 16 17  2  0
 17 18  1  0
 15 19  2  0
 18 19  1  0
 12 20  1  0
  9 21  1  0
 20 21  1  0
  8 22  1  0
  5 23  1  0
 22 23  2  0
M  END
