WAR-XCH-b6889685-16
     RDKit          3D

 25 27  0  0  0  0  0  0  0  0999 V2000
   15.0370   -5.1280   20.6890 C   0  0  0  0  0  0  0  0  0  0  0  0
   13.8110   -4.2320   20.8460 C   0  0  0  0  0  0  0  0  0  0  0  0
   12.8240   -4.2720   19.9860 C   0  0  0  0  0  0  0  0  0  0  0  0
   11.7610   -3.5240   20.1350 C   0  0  0  0  0  0  0  0  0  0  0  0
   11.5710   -2.5940   21.1240 C   0  0  0  0  0  0  0  0  0  0  0  0
   12.5530   -2.5170   21.9860 C   0  0  0  0  0  0  0  0  0  0  0  0
   12.7570   -1.7660   23.0110 O   0  0  0  0  0  0  0  0  0  0  0  0
   13.3540   -2.3970   24.0860 C   0  0  0  0  0  0  0  0  0  0  0  0
   12.2980   -2.0360   24.9630 C   0  0  0  0  0  0  0  0  0  0  0  0
   11.0570   -2.0820   24.1390 C   0  0  0  0  0  0  0  0  0  0  0  0
   10.6180   -0.6940   23.7560 C   0  0  0  0  0  0  0  0  0  0  0  0
   11.6810    0.0440   23.0660 N   0  0  0  0  0  0  0  0  0  0  0  0
   11.3380    1.3680   23.1160 C   0  0  0  0  0  0  0  0  0  0  0  0
   10.0480    1.7790   23.3940 C   0  0  0  0  0  0  0  0  0  0  0  0
    9.7450    3.1280   23.4690 C   0  0  0  0  0  0  0  0  0  0  0  0
   10.7420    4.0760   23.2680 C   0  0  0  0  0  0  0  0  0  0  0  0
   10.3350    5.7870   23.4110 S   0  0  0  0  0  0  0  0  0  0  0  0
    8.9100    5.8540   22.5270 N   0  0  0  0  0  0  0  0  0  0  0  0
   11.3140    6.5440   22.6800 O   0  0  0  0  0  0  0  0  0  0  0  0
   10.0130    6.0550   24.7960 O   0  0  0  0  0  0  0  0  0  0  0  0
   12.0440    3.6960   22.9700 C   0  0  0  0  0  0  0  0  0  0  0  0
   12.3280    2.3400   22.8980 C   0  0  0  0  0  0  0  0  0  0  0  0
   12.8890   -0.0620   23.8110 C   0  0  0  0  0  0  0  0  0  0  0  0
   12.5140   -0.6010   25.1890 C   0  0  0  0  0  0  0  0  0  0  0  0
   13.5810   -3.3170   21.8770 C   0  0  0  0  0  0  0  0  0  0  0  0
  1  2  1  0
  2  3  2  0
  3  4  1  0
  4  5  2  0
  5  6  1  0
  6  7  1  0
  7  8  1  0
  8  9  1  0
  9 10  1  0
 10 11  1  0
 11 12  1  0
 12 13  1  0
 13 14  2  0
 14 15  1  0
 15 16  2  0
 16 17  1  0
 17 18  1  0
 17 19  2  0
 17 20  2  0
 16 21  1  0
 13 22  1  0
 21 22  2  0
 12 23  1  0
  9 24  1  0
 23 24  1  0
  2 25  1  0
  6 25  2  0
M  END
