WAR-XCH-bdd24732-45
     RDKit          3D

 30 33  0  0  0  0  0  0  0  0999 V2000
    1.2090   -8.5900   21.5150 C   0  0  0  0  0  0  0  0  0  0  0  0
    0.9070   -7.4050   22.3890 C   0  0  0  0  0  0  0  0  0  0  0  0
   -0.4060   -6.7630   22.0160 C   0  0  0  0  0  0  0  0  0  0  0  0
   -0.8650   -5.5550   22.8070 C   0  0  0  0  0  0  0  0  0  0  0  0
   -0.1790   -5.0170   23.8240 N   0  0  0  0  0  0  0  0  0  0  0  0
    1.0170   -5.6100   24.1470 C   0  0  0  0  0  0  0  0  0  0  0  0
    1.6510   -6.8400   23.4620 C   0  0  0  0  0  0  0  0  0  0  0  0
    2.9130   -7.3650   23.9000 N   0  0  0  0  0  0  0  0  0  0  0  0
    3.6960   -6.7660   24.9050 C   0  0  0  0  0  0  0  0  0  0  0  0
    3.1530   -6.9570   26.3300 C   0  0  0  0  0  0  0  0  0  0  0  0
    2.2650   -8.1500   26.6430 C   0  0  0  0  0  0  0  0  0  0  0  0
    1.7980   -8.2810   27.9280 C   0  0  0  0  0  0  0  0  0  0  0  0
    2.0620   -7.4390   28.9410 N   0  0  0  0  0  0  0  0  0  0  0  0
    2.9020   -6.3060   28.6610 C   0  0  0  0  0  0  0  0  0  0  0  0
    3.4490   -6.0370   27.4120 C   0  0  0  0  0  0  0  0  0  0  0  0
    4.2200   -4.9270   27.2940 N   0  0  0  0  0  0  0  0  0  0  0  0
    5.3700   -4.4950   28.1730 C   0  0  0  0  0  0  0  0  0  0  0  0
    4.9920   -4.3340   29.4940 C   0  0  0  0  0  0  0  0  0  0  0  0
    3.8300   -3.6070   29.8210 C   0  0  0  0  0  0  0  0  0  0  0  0
    4.1460   -2.4100   30.7310 C   0  0  0  0  0  0  0  0  0  0  0  0
    3.5030   -2.4670   32.1090 C   0  0  0  0  0  0  0  0  0  0  0  0
    3.7950   -1.3500   32.9830 C   0  0  0  0  0  0  0  0  0  0  0  0
    4.6180   -0.3310   32.5200 C   0  0  0  0  0  0  0  0  0  0  0  0
    5.1980   -0.3940   31.1180 C   0  0  0  0  0  0  0  0  0  0  0  0
    4.9550   -1.4270   30.2490 N   0  0  0  0  0  0  0  0  0  0  0  0
    6.3460   -5.6450   28.1060 C   0  0  0  0  0  0  0  0  0  0  0  0
    6.3110   -5.9950   26.6350 C   0  0  0  0  0  0  0  0  0  0  0  0
    6.1030   -4.9330   25.7250 C   0  0  0  0  0  0  0  0  0  0  0  0
    6.2400   -3.4710   26.1080 C   0  0  0  0  0  0  0  0  0  0  0  0
    6.0530   -3.2540   27.5660 C   0  0  0  0  0  0  0  0  0  0  0  0
  1  2  1  0
  2  3  2  0
  3  4  1  0
  4  5  2  0
  5  6  1  0
  2  7  1  0
  6  7  2  0
  7  8  1  0
  8  9  1  0
  9 10  1  0
 10 11  2  0
 11 12  1  0
 12 13  2  0
 13 14  1  0
 10 15  1  0
 14 15  2  0
 15 16  1  0
 16 17  1  0
 17 18  1  0
 18 19  3  0
 19 20  1  0
 20 21  2  0
 21 22  1  0
 22 23  2  0
 23 24  1  0
 20 25  1  0
 24 25  2  0
 17 26  1  0
 26 27  1  0
 27 28  1  0
 28 29  1  0
 17 30  1  0
 29 30  1  0
M  END
