WAR-XCH-6eb0722e-4
     RDKit          3D

 24 25  0  0  0  0  0  0  0  0999 V2000
   13.9860   -2.5530   25.7680 C   0  0  0  0  0  0  0  0  0  0  0  0
   12.9680   -1.7310   24.5990 S   0  0  0  0  0  0  0  0  0  0  0  0
   11.6470   -2.3040   24.6520 O   0  0  0  0  0  0  0  0  0  0  0  0
   13.1820   -0.3230   24.6140 O   0  0  0  0  0  0  0  0  0  0  0  0
   13.6820   -2.1350   23.1600 N   0  0  0  0  0  0  0  0  0  0  0  0
   12.8380   -2.6800   22.3520 C   0  0  0  0  0  0  0  0  0  0  0  0
   11.6750   -2.1710   22.0600 C   0  0  0  0  0  0  0  0  0  0  0  0
   11.4560   -0.7510   22.4100 C   0  0  0  0  0  0  0  0  0  0  0  0
   12.7860    0.0150   22.5130 C   0  0  0  0  0  0  0  0  0  0  0  0
   12.7420    1.5000   22.8350 C   0  0  0  0  0  0  0  0  0  0  0  0
   11.3670    2.1590   23.0370 C   0  0  0  0  0  0  0  0  0  0  0  0
   11.1540    3.8370   23.3850 Cl  0  0  0  0  0  0  0  0  0  0  0  0
   10.1880    1.1610   22.8980 C   0  0  0  0  0  0  0  0  0  0  0  0
   10.2220   -0.1680   22.6110 C   0  0  0  0  0  0  0  0  0  0  0  0
    8.9720   -0.8930   22.5110 N   0  0  0  0  0  0  0  0  0  0  0  0
    8.1230   -0.2510   21.5140 C   0  0  0  0  0  0  0  0  0  0  0  0
    8.3950    0.8600   21.0740 O   0  0  0  0  0  0  0  0  0  0  0  0
    6.9370   -0.9880   21.0680 N   0  0  0  0  0  0  0  0  0  0  0  0
    6.2920   -0.1590   20.0340 C   0  0  0  0  0  0  0  0  0  0  0  0
    5.0410    0.6560   20.2230 C   0  0  0  0  0  0  0  0  0  0  0  0
    4.5560    1.4030   19.1410 C   0  0  0  0  0  0  0  0  0  0  0  0
    5.1990    1.4170   17.8860 C   0  0  0  0  0  0  0  0  0  0  0  0
    6.3460    0.6590   17.7250 N   0  0  0  0  0  0  0  0  0  0  0  0
    6.8960   -0.1420   18.8240 C   0  0  0  0  0  0  0  0  0  0  0  0
  1  2  1  0
  2  3  2  0
  2  4  2  0
  2  5  1  0
  5  6  1  0
  6  7  1  0
  7  8  1  0
  8  9  2  0
  9 10  1  0
 10 11  2  0
 11 12  1  0
 11 13  1  0
  8 14  1  0
 13 14  2  0
 14 15  1  0
 15 16  1  0
 16 17  2  0
 16 18  1  0
 18 19  1  0
 19 20  2  0
 20 21  1  0
 21 22  2  0
 22 23  1  0
 19 24  1  0
 23 24  2  0
M  END
