WAR-XCH-b6889685-59
     RDKit          3D

 25 27  0  0  0  0  0  0  0  0999 V2000
   13.0390   -3.1890   25.2290 C   0  0  0  0  0  0  0  0  0  0  0  0
   12.5920   -2.8220   23.8730 C   0  0  0  0  0  0  0  0  0  0  0  0
   13.5630   -2.5860   22.9650 C   0  0  0  0  0  0  0  0  0  0  0  0
   13.3130   -2.2210   21.6600 C   0  0  0  0  0  0  0  0  0  0  0  0
   12.0900   -2.0960   21.2090 C   0  0  0  0  0  0  0  0  0  0  0  0
   10.9250   -2.3360   22.1080 C   0  0  0  0  0  0  0  0  0  0  0  0
   11.2460   -2.7100   23.5240 C   0  0  0  0  0  0  0  0  0  0  0  0
   10.3240   -2.9040   24.5010 N   0  0  0  0  0  0  0  0  0  0  0  0
    8.9790   -3.1960   24.0210 C   0  0  0  0  0  0  0  0  0  0  0  0
   10.6870   -1.5810   25.0140 C   0  0  0  0  0  0  0  0  0  0  0  0
   12.1000   -1.5270   24.7640 C   0  0  0  0  0  0  0  0  0  0  0  0
   12.6170   -0.3900   24.1650 C   0  0  0  0  0  0  0  0  0  0  0  0
   11.8070    0.0720   23.0480 N   0  0  0  0  0  0  0  0  0  0  0  0
   11.6000    1.4140   23.1580 C   0  0  0  0  0  0  0  0  0  0  0  0
   10.3640    1.8810   23.5230 C   0  0  0  0  0  0  0  0  0  0  0  0
   10.0040    3.1990   23.6690 C   0  0  0  0  0  0  0  0  0  0  0  0
   10.9580    4.1910   23.4290 C   0  0  0  0  0  0  0  0  0  0  0  0
   10.4950    5.8760   23.6160 S   0  0  0  0  0  0  0  0  0  0  0  0
    9.0880    5.9210   22.6900 N   0  0  0  0  0  0  0  0  0  0  0  0
   11.4960    6.6800   22.9700 O   0  0  0  0  0  0  0  0  0  0  0  0
   10.0690    6.0870   24.9800 O   0  0  0  0  0  0  0  0  0  0  0  0
   12.2380    3.8220   23.0530 C   0  0  0  0  0  0  0  0  0  0  0  0
   12.6020    2.3560   22.9080 C   0  0  0  0  0  0  0  0  0  0  0  0
   10.5370   -0.6260   22.8950 C   0  0  0  0  0  0  0  0  0  0  0  0
    9.9240   -0.5930   24.1460 C   0  0  0  0  0  0  0  0  0  0  0  0
  1  2  1  0
  2  3  2  0
  3  4  1  0
  4  5  2  0
  5  6  1  0
  2  7  1  0
  6  7  2  0
  7  8  1  0
  8  9  1  0
  8 10  1  0
 10 11  1  0
 11 12  1  0
 12 13  1  0
 13 14  1  0
 14 15  2  0
 15 16  1  0
 16 17  2  0
 17 18  1  0
 18 19  1  0
 18 20  2  0
 18 21  2  0
 17 22  1  0
 14 23  1  0
 22 23  2  0
 13 24  1  0
 10 25  1  0
 24 25  1  0
M  END
