WAR-XCH-b0339bbe-2
     RDKit          3D

 23 26  0  0  0  0  0  0  0  0999 V2000
   -1.2460   -7.3040   20.1460 C   0  0  0  0  0  0  0  0  0  0  0  0
   -0.5010   -7.6030   21.3970 C   0  0  0  0  0  0  0  0  0  0  0  0
   -0.3320   -8.8290   21.9140 N   0  0  0  0  0  0  0  0  0  0  0  0
    0.4190   -8.7160   23.0610 C   0  0  0  0  0  0  0  0  0  0  0  0
    0.8390   -7.3310   23.4300 C   0  0  0  0  0  0  0  0  0  0  0  0
    1.6910   -6.9760   24.6590 C   0  0  0  0  0  0  0  0  0  0  0  0
    3.1220   -7.5570   24.6130 C   0  0  0  0  0  0  0  0  0  0  0  0
    4.2500   -6.5560   24.2150 C   0  0  0  0  0  0  0  0  0  0  0  0
    4.6220   -5.5020   24.9070 N   0  0  0  0  0  0  0  0  0  0  0  0
    5.6360   -4.9210   24.1900 C   0  0  0  0  0  0  0  0  0  0  0  0
    6.3880   -3.7800   24.4680 C   0  0  0  0  0  0  0  0  0  0  0  0
    6.1780   -2.9280   25.7330 C   0  0  0  0  0  0  0  0  0  0  0  0
    7.3600   -3.4310   23.5360 C   0  0  0  0  0  0  0  0  0  0  0  0
    7.5280   -4.2210   22.4070 C   0  0  0  0  0  0  0  0  0  0  0  0
    6.8200   -5.3420   22.0950 N   0  0  0  0  0  0  0  0  0  0  0  0
    5.8960   -5.6300   23.0280 C   0  0  0  0  0  0  0  0  0  0  0  0
    5.0040   -6.6720   23.0620 N   0  0  0  0  0  0  0  0  0  0  0  0
    0.9630   -7.5030   25.9390 C   0  0  0  0  0  0  0  0  0  0  0  0
    0.9310   -6.6020   27.0010 C   0  0  0  0  0  0  0  0  0  0  0  0
    0.2780   -5.3810   26.8470 C   0  0  0  0  0  0  0  0  0  0  0  0
    0.4890   -4.8030   25.4530 C   0  0  0  0  0  0  0  0  0  0  0  0
    1.7370   -5.4200   24.7880 C   0  0  0  0  0  0  0  0  0  0  0  0
    0.2050   -6.2670   22.2460 S   0  0  0  0  0  0  0  0  0  0  0  0
  1  2  1  0
  2  3  2  0
  3  4  1  0
  4  5  2  0
  5  6  1  0
  6  7  1  0
  7  8  1  0
  8  9  2  0
  9 10  1  0
 10 11  2  0
 11 12  1  0
 11 13  1  0
 13 14  2  0
 14 15  1  0
 10 16  1  0
 15 16  2  0
  8 17  1  0
 16 17  1  0
  6 18  1  0
 18 19  1  0
 19 20  1  0
 20 21  1  0
  6 22  1  0
 21 22  1  0
  2 23  1  0
  5 23  1  0
M  END
