WAR-XCH-b6889685-61
     RDKit          3D

 29 32  0  0  0  0  0  0  0  0999 V2000
    6.7870   -3.2740   25.5010 C   0  0  0  0  0  0  0  0  0  0  0  0
    7.2140   -2.4020   24.3810 N   0  0  0  0  0  0  0  0  0  0  0  0
    6.7200   -3.0730   23.1800 C   0  0  0  0  0  0  0  0  0  0  0  0
    5.4840   -2.5880   22.8860 C   0  0  0  0  0  0  0  0  0  0  0  0
    4.5080   -3.5720   22.3330 C   0  0  0  0  0  0  0  0  0  0  0  0
    4.4420   -4.8390   22.9070 N   0  0  0  0  0  0  0  0  0  0  0  0
    3.1330   -5.1330   23.5080 C   0  0  0  0  0  0  0  0  0  0  0  0
    2.7100   -4.1100   24.5630 C   0  0  0  0  0  0  0  0  0  0  0  0
    1.3370   -4.3410   25.2320 C   0  0  0  0  0  0  0  0  0  0  0  0
    0.5960   -5.4720   24.8130 C   0  0  0  0  0  0  0  0  0  0  0  0
   -0.9860   -5.7770   25.5520 S   0  0  0  0  0  0  0  0  0  0  0  0
   -1.9680   -5.9540   24.1940 N   0  0  0  0  0  0  0  0  0  0  0  0
   -1.4060   -4.5830   26.2460 O   0  0  0  0  0  0  0  0  0  0  0  0
   -0.9610   -7.0760   26.1850 O   0  0  0  0  0  0  0  0  0  0  0  0
    1.0610   -6.3670   23.8370 C   0  0  0  0  0  0  0  0  0  0  0  0
    2.2830   -6.1970   23.2140 C   0  0  0  0  0  0  0  0  0  0  0  0
    5.6650   -5.2550   23.6050 C   0  0  0  0  0  0  0  0  0  0  0  0
    6.8230   -4.6290   23.0990 C   0  0  0  0  0  0  0  0  0  0  0  0
    8.6370   -2.0110   24.2560 C   0  0  1  0  0  0  0  0  0  0  0  0
    9.3400   -3.1510   23.5930 C   0  0  0  0  0  0  0  0  0  0  0  0
    9.1990   -2.9310   22.2530 C   0  0  0  0  0  0  0  0  0  0  0  0
    8.7070   -1.6660   22.0580 C   0  0  0  0  0  0  0  0  0  0  0  0
    9.0770   -0.9360   23.1690 C   0  0  2  0  0  0  0  0  0  0  0  0
   10.4060   -0.5180   23.0790 C   0  0  0  0  0  0  0  0  0  0  0  0
   10.7270    0.8210   22.9630 C   0  0  0  0  0  0  0  0  0  0  0  0
   12.0630    1.2380   22.8590 C   0  0  0  0  0  0  0  0  0  0  0  0
   13.1390    0.3290   22.8650 C   0  0  0  0  0  0  0  0  0  0  0  0
   12.8920   -1.0220   22.9770 C   0  0  0  0  0  0  0  0  0  0  0  0
   11.4480   -1.4710   23.0910 C   0  0  0  0  0  0  0  0  0  0  0  0
  1  2  1  0
  2  3  1  0
  3  4  1  0
  4  5  1  0
  5  6  1  0
  6  7  1  0
  7  8  2  0
  8  9  1  0
  9 10  2  0
 10 11  1  0
 11 12  1  0
 11 13  2  0
 11 14  2  0
 10 15  1  0
  7 16  1  0
 15 16  2  0
  6 17  1  0
  3 18  1  0
 17 18  1  0
 19  2  1  6
 19 20  1  0
 20 21  1  0
 21 22  1  0
 19 23  1  0
 22 23  1  0
 23 24  1  6
 24 25  2  0
 25 26  1  0
 26 27  2  0
 27 28  1  0
 24 29  1  0
 28 29  2  0
M  END
