WAR-XCH-bdd24732-7
     RDKit          3D

 26 29  0  0  0  0  0  0  0  0999 V2000
    7.5910  -10.0890   29.8770 C   0  0  0  0  0  0  0  0  0  0  0  0
    6.7900   -8.9250   30.4350 O   0  0  0  0  0  0  0  0  0  0  0  0
    6.2310   -7.9480   29.5730 C   0  0  0  0  0  0  0  0  0  0  0  0
    6.8870   -6.7480   29.0030 C   0  0  0  0  0  0  0  0  0  0  0  0
    6.2710   -5.9220   28.1120 C   0  0  0  0  0  0  0  0  0  0  0  0
    5.0030   -6.1350   27.6720 C   0  0  0  0  0  0  0  0  0  0  0  0
    4.5900   -5.2210   26.7230 N   0  0  0  0  0  0  0  0  0  0  0  0
    5.4840   -4.1260   26.5420 C   0  0  0  0  0  0  0  0  0  0  0  0
    5.3660   -3.2960   27.6430 C   0  0  0  0  0  0  0  0  0  0  0  0
    6.1220   -2.0390   27.7340 C   0  0  0  0  0  0  0  0  0  0  0  0
    6.9760   -1.8220   26.5320 C   0  0  0  0  0  0  0  0  0  0  0  0
    7.0110   -2.8450   25.4490 C   0  0  0  0  0  0  0  0  0  0  0  0
    7.1170   -3.8470   24.2760 C   0  0  0  0  0  0  0  0  0  0  0  0
    7.9430   -3.4820   23.3770 C   0  0  0  0  0  0  0  0  0  0  0  0
    7.4500   -3.0300   24.5610 N   0  0  0  0  0  0  0  0  0  0  0  0
    7.9590   -1.7520   24.9710 C   0  0  0  0  0  0  0  0  0  0  0  0
    6.3760   -3.8840   25.3840 C   0  0  0  0  0  0  0  0  0  0  0  0
    4.0610   -5.8410   25.4770 C   0  0  2  0  0  0  0  0  0  0  0  0
    5.2210   -6.1140   24.5520 C   0  0  0  0  0  0  0  0  0  0  0  0
    5.3780   -5.0940   23.4570 C   0  0  0  0  0  0  0  0  0  0  0  0
    4.3440   -5.2090   22.5440 C   0  0  2  0  0  0  0  0  0  0  0  0
    4.2470   -3.9620   21.8890 O   0  0  0  0  0  0  0  0  0  0  0  0
    3.0150   -5.5480   23.2290 C   0  0  0  0  0  0  0  0  0  0  0  0
    3.0100   -5.0630   24.6580 C   0  0  0  0  0  0  0  0  0  0  0  0
    4.2750   -7.1930   28.1700 C   0  0  0  0  0  0  0  0  0  0  0  0
    4.9210   -8.1390   29.1740 C   0  0  0  0  0  0  0  0  0  0  0  0
  1  2  1  0
  2  3  1  0
  3  4  2  0
  4  5  1  0
  5  6  2  0
  6  7  1  0
  7  8  1  0
  8  9  2  0
  9 10  1  0
 10 11  2  0
 11 12  1  0
 12 13  1  0
 13 14  2  0
 14 15  1  0
 15 16  1  0
  8 17  1  0
 12 17  2  0
 15 17  1  0
 18  7  1  1
 18 19  1  0
 19 20  1  0
 20 21  1  0
 21 22  1  1
 21 23  1  0
 18 24  1  0
 23 24  1  0
  6 25  1  0
  3 26  1  0
 25 26  2  0
M  END
