WAR-XCH-b72a1bbc-7
     RDKit          3D

 21 23  0  0  0  0  0  0  0  0999 V2000
    9.1610    5.6900   22.6490 N   0  0  0  0  0  0  0  0  0  0  0  0
   10.6200    5.5030   23.4680 S   0  0  0  0  0  0  0  0  0  0  0  0
   11.6280    6.2440   22.7610 O   0  0  0  0  0  0  0  0  0  0  0  0
   10.2990    5.7610   24.8570 O   0  0  0  0  0  0  0  0  0  0  0  0
   10.9240    3.7660   23.2610 C   0  0  0  0  0  0  0  0  0  0  0  0
    9.7740    2.8320   23.3340 C   0  0  0  0  0  0  0  0  0  0  0  0
    9.9750    1.4660   23.2000 C   0  0  0  0  0  0  0  0  0  0  0  0
   11.2500    0.9520   23.0020 C   0  0  0  0  0  0  0  0  0  0  0  0
   11.4270   -0.4410   22.9140 N   0  0  0  0  0  0  0  0  0  0  0  0
   11.8380   -0.8910   24.2640 C   0  0  0  0  0  0  0  0  0  0  0  0
   12.1410   -2.1890   24.4540 C   0  0  0  0  0  0  0  0  0  0  0  0
   11.4460   -2.7560   23.3280 C   0  0  0  0  0  0  0  0  0  0  0  0
   12.3460   -2.0680   22.4160 C   0  0  0  0  0  0  0  0  0  0  0  0
   12.8080   -2.3470   21.0620 C   0  0  0  0  0  0  0  0  0  0  0  0
   13.7100   -1.2490   20.7300 C   0  0  0  0  0  0  0  0  0  0  0  0
   13.6480   -0.4540   21.9260 C   0  0  0  0  0  0  0  0  0  0  0  0
   12.8780   -0.9410   22.8780 O   0  0  0  0  0  0  0  0  0  0  0  0
   10.0250   -2.2740   23.1680 C   0  0  0  0  0  0  0  0  0  0  0  0
   10.1620   -1.0840   22.4550 C   0  0  0  0  0  0  0  0  0  0  0  0
   12.3480    1.8570   22.9200 C   0  0  0  0  0  0  0  0  0  0  0  0
   12.1980    3.2490   23.0410 C   0  0  0  0  0  0  0  0  0  0  0  0
  2  1  1  0
  2  3  2  0
  2  4  2  0
  2  5  1  0
  5  6  2  0
  6  7  1  0
  7  8  2  0
  8  9  1  0
  9 10  1  0
 10 11  1  0
 11 12  1  0
 12 13  1  0
 13 14  2  0
 14 15  1  0
 15 16  2  0
 13 17  1  0
 16 17  1  0
 12 18  1  0
  9 19  1  0
 18 19  1  0
  8 20  1  0
  5 21  1  0
 20 21  2  0
M  END
