WAR-XCH-e55cba98-3
     RDKit          3D

 28 31  0  0  0  0  0  0  0  0999 V2000
    4.9330   -0.4430   20.0880 C   0  0  0  0  0  0  0  0  0  0  0  0
    5.5100    0.0020   21.2860 C   0  0  0  0  0  0  0  0  0  0  0  0
    5.0620    1.0350   21.7980 O   0  0  0  0  0  0  0  0  0  0  0  0
    6.5640   -0.7240   21.8540 N   0  0  0  0  0  0  0  0  0  0  0  0
    7.5520    0.0190   22.6610 C   0  0  0  0  0  0  0  0  0  0  0  0
    8.7680   -0.7110   22.8450 C   0  0  0  0  0  0  0  0  0  0  0  0
    9.8940   -0.0320   23.4270 C   0  0  0  0  0  0  0  0  0  0  0  0
   11.3630    0.5580   23.9370 C   0  0  0  0  0  0  0  0  0  0  0  0
   12.5100   -0.0920   23.4050 N   0  0  0  0  0  0  0  0  0  0  0  0
   11.7420   -0.8460   22.7620 C   0  0  0  0  0  0  0  0  0  0  0  0
   11.1430    0.1390   23.6670 C   0  0  0  0  0  0  0  0  0  0  0  0
    9.8330   -0.3380   23.3670 C   0  0  0  0  0  0  0  0  0  0  0  0
    9.0700    0.1730   22.2670 C   0  0  0  0  0  0  0  0  0  0  0  0
    8.3990   -0.7040   21.3860 C   0  0  0  0  0  0  0  0  0  0  0  0
    7.6480   -0.1670   20.3540 C   0  0  0  0  0  0  0  0  0  0  0  0
    7.5180    1.2030   20.1260 C   0  0  0  0  0  0  0  0  0  0  0  0
    8.1860    2.0720   20.9620 N   0  0  0  0  0  0  0  0  0  0  0  0
    8.9210    1.5480   21.9860 C   0  0  0  0  0  0  0  0  0  0  0  0
   10.0550   -1.7990   23.4160 C   0  0  0  0  0  0  0  0  0  0  0  0
    9.6110   -2.4620   24.7270 C   0  0  0  0  0  0  0  0  0  0  0  0
    8.2680   -2.2730   25.0450 C   0  0  0  0  0  0  0  0  0  0  0  0
    7.8910   -0.9290   24.9980 C   0  0  0  0  0  0  0  0  0  0  0  0
    8.9230   -0.0210   24.6640 C   0  0  0  0  0  0  0  0  0  0  0  0
   12.5310   -0.0220   23.4460 C   0  0  0  0  0  0  0  0  0  0  0  0
   12.7840   -1.1010   22.5220 C   0  0  0  0  0  0  0  0  0  0  0  0
   13.9380   -1.4930   22.1510 F   0  0  0  0  0  0  0  0  0  0  0  0
   11.5230   -1.8130   21.9460 C   0  0  0  0  0  0  0  0  0  0  0  0
   10.5080   -1.1290   22.5170 C   0  0  0  0  0  0  0  0  0  0  0  0
  1  2  1  0
  2  3  2  0
  2  4  1  0
  4  5  1  0
  5  6  1  0
  6  7  1  0
  7  8  2  0
  8  9  1  0
  9 10  1  0
 10 11  1  0
 12 11  1  0
 12 13  1  0
 13 14  2  0
 14 15  1  0
 15 16  2  0
 16 17  1  0
 13 18  1  0
 17 18  2  0
 12 19  1  0
 19 20  1  0
 20 21  1  0
 21 22  1  0
 12 23  1  0
 22 23  1  0
 11 24  2  0
 24 25  1  0
 25 26  1  0
 25 27  2  0
  7 28  1  0
 10 28  2  0
 27 28  1  0
M  END
