WAR-XCH-eb7b662f-4
     RDKit          3D

 18 19  0  0  0  0  0  0  0  0999 V2000
    8.5640    0.8850   21.1740 O   0  0  0  0  0  0  0  0  0  0  0  0
    8.1530   -0.2190   21.5130 C   0  0  0  0  0  0  0  0  0  0  0  0
    6.9750   -0.8020   20.9370 N   0  0  0  0  0  0  0  0  0  0  0  0
    6.3050   -0.0650   20.0430 C   0  0  0  0  0  0  0  0  0  0  0  0
    5.1700    0.6190   20.2930 C   0  0  0  0  0  0  0  0  0  0  0  0
    4.4880    1.4470   19.2260 C   0  0  0  0  0  0  0  0  0  0  0  0
    5.1140    1.4970   17.8380 C   0  0  0  0  0  0  0  0  0  0  0  0
    6.3200    0.7000   17.7350 N   0  0  0  0  0  0  0  0  0  0  0  0
    6.8760   -0.0270   18.7610 C   0  0  0  0  0  0  0  0  0  0  0  0
    8.7270   -1.0260   22.4470 N   0  0  0  0  0  0  0  0  0  0  0  0
   10.1090   -0.8880   22.8410 C   0  0  0  0  0  0  0  0  0  0  0  0
   10.6960    0.5170   22.7210 C   0  0  0  0  0  0  0  0  0  0  0  0
   11.9530    0.9220   23.0030 C   0  0  0  0  0  0  0  0  0  0  0  0
   12.2180    2.1080   22.8310 O   0  0  0  0  0  0  0  0  0  0  0  0
   12.8920   -0.1790   23.5140 C   0  0  0  0  0  0  0  0  0  0  0  0
   12.3880   -1.4690   23.6480 C   0  0  0  0  0  0  0  0  0  0  0  0
   13.4320   -2.6780   24.2410 Cl  0  0  0  0  0  0  0  0  0  0  0  0
   10.9600   -1.8740   23.3060 C   0  0  0  0  0  0  0  0  0  0  0  0
  1  2  2  0
  2  3  1  0
  3  4  1  0
  4  5  2  0
  5  6  1  0
  6  7  2  0
  7  8  1  0
  4  9  1  0
  8  9  2  0
  2 10  1  0
 10 11  1  0
 11 12  2  0
 12 13  1  0
 13 14  1  0
 13 15  2  0
 15 16  1  0
 16 17  1  0
 11 18  1  0
 16 18  2  0
M  END
