WAR-XCH-b6889685-20
     RDKit          3D

 20 21  0  0  0  0  0  0  0  0999 V2000
   13.5310   -3.6830   20.5210 C   0  0  0  0  0  0  0  0  0  0  0  0
   12.7680   -2.6690   21.0540 C   0  0  0  0  0  0  0  0  0  0  0  0
   13.5310   -1.7910   21.8450 O   0  0  0  0  0  0  0  0  0  0  0  0
   13.6670   -2.2540   23.1750 C   0  0  0  0  0  0  0  0  0  0  0  0
   12.4770   -2.5930   23.7170 C   0  0  0  0  0  0  0  0  0  0  0  0
   12.4050   -1.9440   24.9840 C   0  0  0  0  0  0  0  0  0  0  0  0
   12.1110   -0.5040   24.9470 C   0  0  0  0  0  0  0  0  0  0  0  0
   12.0430    0.0360   23.5740 N   0  0  0  0  0  0  0  0  0  0  0  0
   11.6830    1.3310   23.5120 C   0  0  0  0  0  0  0  0  0  0  0  0
   10.2950    1.7430   23.9850 C   0  0  0  0  0  0  0  0  0  0  0  0
    9.9260    3.0760   23.9450 C   0  0  0  0  0  0  0  0  0  0  0  0
   10.8240    4.0460   23.4780 C   0  0  0  0  0  0  0  0  0  0  0  0
   10.3470    5.7440   23.4780 S   0  0  0  0  0  0  0  0  0  0  0  0
    8.9260    5.7120   22.5790 N   0  0  0  0  0  0  0  0  0  0  0  0
   11.3470    6.4860   22.7570 O   0  0  0  0  0  0  0  0  0  0  0  0
    9.9430    6.0870   24.8260 O   0  0  0  0  0  0  0  0  0  0  0  0
   12.0840    3.6600   23.0310 C   0  0  0  0  0  0  0  0  0  0  0  0
   12.5050    2.3530   23.0430 C   0  0  0  0  0  0  0  0  0  0  0  0
   11.5470   -0.8090   22.4940 C   0  0  0  0  0  0  0  0  0  0  0  0
   11.2860   -2.0850   22.9110 C   0  0  0  0  0  0  0  0  0  0  0  0
  1  2  1  0
  2  3  1  0
  3  4  1  0
  4  5  1  0
  5  6  1  0
  6  7  1  0
  7  8  1  0
  8  9  1  0
  9 10  2  0
 10 11  1  0
 11 12  2  0
 12 13  1  0
 13 14  1  0
 13 15  2  0
 13 16  2  0
 12 17  1  0
  9 18  1  0
 17 18  2  0
  8 19  1  0
  5 20  1  0
 19 20  1  0
M  END
