WAR-XCH-b72a1bbc-20
     RDKit          3D

 24 26  0  0  0  0  0  0  0  0999 V2000
    9.0000    5.3710   22.5350 N   0  0  0  0  0  0  0  0  0  0  0  0
   10.5090    5.3570   23.2720 S   0  0  0  0  0  0  0  0  0  0  0  0
   11.4180    6.1750   22.5110 O   0  0  0  0  0  0  0  0  0  0  0  0
   10.2300    5.6320   24.6660 O   0  0  0  0  0  0  0  0  0  0  0  0
   11.0150    3.6520   23.1350 C   0  0  0  0  0  0  0  0  0  0  0  0
   10.0780    2.6190   23.1630 C   0  0  0  0  0  0  0  0  0  0  0  0
   10.5180    1.2790   23.1130 C   0  0  0  0  0  0  0  0  0  0  0  0
   11.8870    0.9530   23.0410 C   0  0  0  0  0  0  0  0  0  0  0  0
   12.3340   -0.3630   23.0720 N   0  0  0  0  0  0  0  0  0  0  0  0
   12.2190   -1.1740   24.2840 C   0  0  0  0  0  0  0  0  0  0  0  0
   12.0300   -2.5640   23.8390 C   0  0  0  0  0  0  0  0  0  0  0  0
   11.3400   -2.4370   22.4740 C   0  0  0  0  0  0  0  0  0  0  0  0
   10.1020   -1.5150   22.3110 C   0  0  0  0  0  0  0  0  0  0  0  0
    8.9600   -1.6740   23.2540 N   0  0  0  0  0  0  0  0  0  0  0  0
    7.7430   -1.0380   22.7460 C   0  0  0  0  0  0  0  0  0  0  0  0
    6.5340   -1.3220   23.4500 C   0  0  0  0  0  0  0  0  0  0  0  0
    5.8630   -2.4020   22.9250 C   0  0  0  0  0  0  0  0  0  0  0  0
    6.3770   -3.7590   23.3850 C   0  0  0  0  0  0  0  0  0  0  0  0
    7.8600   -4.0060   23.1090 C   0  0  0  0  0  0  0  0  0  0  0  0
    8.7870   -3.0160   23.8140 C   0  0  0  0  0  0  0  0  0  0  0  0
   12.4890   -2.0750   21.5280 C   0  0  0  0  0  0  0  0  0  0  0  0
   13.1890   -1.0120   22.0870 C   0  0  0  0  0  0  0  0  0  0  0  0
   12.7780    2.0150   22.9700 C   0  0  0  0  0  0  0  0  0  0  0  0
   12.3690    3.3560   23.0130 C   0  0  0  0  0  0  0  0  0  0  0  0
  2  1  1  0
  2  3  2  0
  2  4  2  0
  2  5  1  0
  5  6  2  0
  6  7  1  0
  7  8  2  0
  8  9  1  0
  9 10  1  0
 10 11  1  0
 11 12  1  0
 12 13  1  0
 13 14  1  0
 14 15  1  0
 15 16  1  0
 16 17  1  0
 17 18  1  0
 18 19  1  0
 14 20  1  0
 19 20  1  0
 12 21  1  0
  9 22  1  0
 21 22  1  0
  8 23  1  0
  5 24  1  0
 23 24  2  0
M  END
