WAR-XCH-bdd24732-33
     RDKit          3D

 24 27  0  0  0  0  0  0  0  0999 V2000
    7.8840   -3.4660   23.0480 C   0  0  0  0  0  0  0  0  0  0  0  0
    7.4450   -4.7370   23.0260 C   0  0  0  0  0  0  0  0  0  0  0  0
    6.7000   -5.6100   24.0100 C   0  0  0  0  0  0  0  0  0  0  0  0
    6.5510   -4.6790   25.0680 C   0  0  0  0  0  0  0  0  0  0  0  0
    5.9030   -5.2220   26.2150 C   0  0  0  0  0  0  0  0  0  0  0  0
    5.6900   -4.4180   27.4770 C   0  0  0  0  0  0  0  0  0  0  0  0
    5.0510   -5.0490   28.6430 C   0  0  0  0  0  0  0  0  0  0  0  0
    4.3320   -4.0480   29.5450 C   0  0  0  0  0  0  0  0  0  0  0  0
    3.6360   -4.5760   30.8010 C   0  0  0  0  0  0  0  0  0  0  0  0
    2.9760   -3.6810   31.6490 C   0  0  0  0  0  0  0  0  0  0  0  0
    2.2680   -4.1640   32.9260 C   0  0  0  0  0  0  0  0  0  0  0  0
    1.6740   -3.1920   33.7120 C   0  0  0  0  0  0  0  0  0  0  0  0
    0.9780   -3.6320   35.0160 C   0  0  0  0  0  0  0  0  0  0  0  0
   -0.3370   -3.2630   35.3430 C   0  0  0  0  0  0  0  0  0  0  0  0
   -0.7200   -3.7650   36.5180 N   0  0  0  0  0  0  0  0  0  0  0  0
    0.3590   -4.4560   36.9390 N   0  0  0  0  0  0  0  0  0  0  0  0
    1.4070   -4.4070   36.0660 C   0  0  0  0  0  0  0  0  0  0  0  0
    2.9870   -2.3290   31.2970 C   0  0  0  0  0  0  0  0  0  0  0  0
    3.6410   -1.9190   30.1340 C   0  0  0  0  0  0  0  0  0  0  0  0
    4.2980   -2.7360   29.2730 N   0  0  0  0  0  0  0  0  0  0  0  0
    6.1040   -3.0940   27.5230 C   0  0  0  0  0  0  0  0  0  0  0  0
    6.7330   -2.5060   26.4150 C   0  0  0  0  0  0  0  0  0  0  0  0
    6.9900   -3.3120   25.1480 C   0  0  0  0  0  0  0  0  0  0  0  0
    7.6560   -2.7150   24.1280 C   0  0  0  0  0  0  0  0  0  0  0  0
  1  2  2  0
  2  3  1  0
  3  4  2  0
  4  5  1  0
  5  6  2  0
  6  7  1  0
  7  8  1  0
  8  9  2  0
  9 10  1  0
 10 11  1  0
 11 12  1  0
 12 13  1  0
 13 14  1  0
 14 15  2  0
 15 16  1  0
 13 17  2  0
 16 17  1  0
 10 18  2  0
 18 19  1  0
  8 20  1  0
 19 20  2  0
  6 21  1  0
 21 22  2  0
  4 23  1  0
 22 23  1  0
  1 24  1  0
 23 24  2  0
M  END
