WAR-XCH-b72a1bbc-1
     RDKit          3D

 16 17  0  0  0  0  0  0  0  0999 V2000
    8.9720    5.5140   22.6880 N   0  0  0  0  0  0  0  0  0  0  0  0
   10.3740    5.5400   23.6180 S   0  0  0  0  0  0  0  0  0  0  0  0
   11.3390    6.3720   22.9400 O   0  0  0  0  0  0  0  0  0  0  0  0
    9.9350    5.8240   24.9650 O   0  0  0  0  0  0  0  0  0  0  0  0
   10.9410    3.8590   23.5310 C   0  0  0  0  0  0  0  0  0  0  0  0
   10.1020    2.7090   24.0070 C   0  0  0  0  0  0  0  0  0  0  0  0
   10.5690    1.3850   23.9390 C   0  0  0  0  0  0  0  0  0  0  0  0
   11.8310    1.0740   23.4300 C   0  0  0  0  0  0  0  0  0  0  0  0
   12.2720   -0.2250   23.3710 N   0  0  0  0  0  0  0  0  0  0  0  0
   12.6340   -0.8700   24.6310 C   0  0  0  0  0  0  0  0  0  0  0  0
   13.1100   -2.1370   24.3670 C   0  0  0  0  0  0  0  0  0  0  0  0
   11.6540   -3.1850   24.2560 S   0  0  0  0  0  0  0  0  0  0  0  0
   10.6580   -2.1300   23.1650 C   0  0  0  0  0  0  0  0  0  0  0  0
   11.5450   -1.1240   22.4380 C   0  0  0  0  0  0  0  0  0  0  0  0
   12.6400    2.1180   22.9780 C   0  0  0  0  0  0  0  0  0  0  0  0
   12.1860    3.5700   23.0220 C   0  0  0  0  0  0  0  0  0  0  0  0
  2  1  1  0
  2  3  2  0
  2  4  2  0
  2  5  1  0
  5  6  2  0
  6  7  1  0
  7  8  2  0
  8  9  1  0
  9 10  1  0
 10 11  1  0
 11 12  1  0
 12 13  1  0
  9 14  1  0
 13 14  1  0
  8 15  1  0
  5 16  1  0
 15 16  2  0
M  END
