WAR-XCH-79d12f6e-1
     RDKit          3D

 21 22  0  0  0  0  0  0  0  0999 V2000
    5.5540   -7.6070   31.6120 C   0  0  0  0  0  0  0  0  0  0  0  0
    5.0040   -7.4420   30.2560 C   0  0  0  0  0  0  0  0  0  0  0  0
    5.7690   -6.9310   29.2190 C   0  0  0  0  0  0  0  0  0  0  0  0
    5.3650   -6.7310   27.9010 C   0  0  0  0  0  0  0  0  0  0  0  0
    4.0480   -7.0570   27.4970 C   0  0  0  0  0  0  0  0  0  0  0  0
    3.5210   -6.7960   25.8020 S   0  0  0  0  0  0  0  0  0  0  0  0
    2.0920   -6.5840   25.9020 O   0  0  0  0  0  0  0  0  0  0  0  0
    4.0050   -7.8150   24.8790 O   0  0  0  0  0  0  0  0  0  0  0  0
    4.2600   -5.3310   25.3920 N   0  0  0  0  0  0  0  0  0  0  0  0
    5.6140   -5.1550   25.2230 C   0  0  0  0  0  0  0  0  0  0  0  0
    6.3140   -5.8010   25.9830 O   0  0  0  0  0  0  0  0  0  0  0  0
    5.9780   -4.1980   24.1080 N   0  0  0  0  0  0  0  0  0  0  0  0
    5.2000   -4.1780   22.9770 C   0  0  0  0  0  0  0  0  0  0  0  0
    5.8160   -5.0550   22.0330 C   0  0  0  0  0  0  0  0  0  0  0  0
    6.7910   -5.1290   23.0410 C   0  0  0  0  0  0  0  0  0  0  0  0
    6.3190   -4.2530   24.0720 C   0  0  0  0  0  0  0  0  0  0  0  0
    5.0430   -3.4120   24.1330 C   0  0  0  0  0  0  0  0  0  0  0  0
    4.0490   -3.3650   23.0620 C   0  0  0  0  0  0  0  0  0  0  0  0
    3.1860   -7.6270   28.6490 C   0  0  0  0  0  0  0  0  0  0  0  0
    1.8700   -7.9780   28.3400 C   0  0  0  0  0  0  0  0  0  0  0  0
    3.6880   -7.7930   29.9550 C   0  0  0  0  0  0  0  0  0  0  0  0
  1  2  1  0
  2  3  2  0
  3  4  1  0
  4  5  2  0
  5  6  1  0
  6  7  2  0
  6  8  2  0
  6  9  1  0
  9 10  1  0
 10 11  2  0
 10 12  1  0
 12 13  1  0
 13 14  2  0
 14 15  1  0
 15 16  2  0
 16 17  1  0
 13 18  1  0
 17 18  2  0
  5 19  1  0
 19 20  1  0
  2 21  1  0
 19 21  2  0
M  END
