WAR-XCH-b6889685-7
     RDKit          3D

 26 28  0  0  0  0  0  0  0  0999 V2000
    6.1370   -2.1130   21.4440 C   0  0  0  0  0  0  0  0  0  0  0  0
    6.9570   -1.1310   20.7320 N   0  0  0  0  0  0  0  0  0  0  0  0
    8.0010   -0.5150   21.4860 C   0  0  0  0  0  0  0  0  0  0  0  0
    8.5740   -1.2750   22.4630 C   0  0  0  0  0  0  0  0  0  0  0  0
    8.4080   -0.6930   23.6900 C   0  0  0  0  0  0  0  0  0  0  0  0
    8.6510    0.6980   23.4960 C   0  0  0  0  0  0  0  0  0  0  0  0
   10.0210    0.7990   23.1090 N   0  0  0  0  0  0  0  0  0  0  0  0
   10.8530   -0.0560   23.5730 C   0  0  0  0  0  0  0  0  0  0  0  0
   12.2680    0.3410   23.5590 C   0  0  0  0  0  0  0  0  0  0  0  0
   13.1750   -0.6640   24.1220 C   0  0  0  0  0  0  0  0  0  0  0  0
   12.7720   -1.9800   24.6790 C   0  0  0  0  0  0  0  0  0  0  0  0
   13.9370   -2.9820   25.3760 S   0  0  0  0  0  0  0  0  0  0  0  0
   14.4740   -3.2250   23.8310 N   0  0  0  0  0  0  0  0  0  0  0  0
   14.8770   -2.3110   26.1930 O   0  0  0  0  0  0  0  0  0  0  0  0
   13.5690   -4.2280   25.8430 O   0  0  0  0  0  0  0  0  0  0  0  0
   11.3680   -2.3010   24.5630 C   0  0  0  0  0  0  0  0  0  0  0  0
   10.4350   -1.3030   24.0200 C   0  0  0  0  0  0  0  0  0  0  0  0
   10.2850    0.1860   21.9190 C   0  0  0  0  0  0  0  0  0  0  0  0
   10.0380   -1.2700   22.1270 C   0  0  0  0  0  0  0  0  0  0  0  0
    6.2920   -0.2290   19.9620 C   0  0  0  0  0  0  0  0  0  0  0  0
    6.7240    0.0340   18.6200 C   0  0  0  0  0  0  0  0  0  0  0  0
    6.0380    0.9570   17.8490 C   0  0  0  0  0  0  0  0  0  0  0  0
    4.9440    1.6500   18.2960 C   0  0  0  0  0  0  0  0  0  0  0  0
    4.4300    1.4370   19.6820 C   0  0  0  0  0  0  0  0  0  0  0  0
    3.0600    2.2870   20.2910 Cl  0  0  0  0  0  0  0  0  0  0  0  0
    5.1890    0.4400   20.5030 C   0  0  0  0  0  0  0  0  0  0  0  0
  1  2  1  0
  2  3  1  0
  3  4  1  0
  4  5  1  0
  5  6  1  0
  6  7  1  0
  7  8  1  0
  8  9  2  0
  9 10  1  0
 10 11  2  0
 11 12  1  0
 12 13  1  0
 12 14  2  0
 12 15  2  0
 11 16  1  0
  8 17  1  0
 16 17  2  0
  7 18  1  0
  4 19  1  0
 18 19  1  0
  2 20  1  0
 20 21  2  0
 21 22  1  0
 22 23  2  0
 23 24  1  0
 24 25  1  0
 20 26  1  0
 24 26  2  0
M  END
