WAR-XCH-b6889685-33
     RDKit          3D

 22 24  0  0  0  0  0  0  0  0999 V2000
    8.9070    5.9660   22.6670 N   0  0  0  0  0  0  0  0  0  0  0  0
   10.3050    5.9270   23.6060 S   0  0  0  0  0  0  0  0  0  0  0  0
   11.2850    6.7920   23.0110 O   0  0  0  0  0  0  0  0  0  0  0  0
    9.8680    6.0530   24.9750 O   0  0  0  0  0  0  0  0  0  0  0  0
   10.8180    4.2670   23.3370 C   0  0  0  0  0  0  0  0  0  0  0  0
    9.7880    3.1820   23.3630 C   0  0  0  0  0  0  0  0  0  0  0  0
   10.1590    1.8610   23.1590 C   0  0  0  0  0  0  0  0  0  0  0  0
   11.4870    1.5530   22.9420 C   0  0  0  0  0  0  0  0  0  0  0  0
   11.8650    0.2840   22.7700 N   0  0  0  0  0  0  0  0  0  0  0  0
   11.1220   -0.7780   23.3370 C   0  0  0  0  0  0  0  0  0  0  0  0
   11.0260   -1.7380   22.1740 C   0  0  0  0  0  0  0  0  0  0  0  0
   12.3340   -1.8610   21.3820 C   0  0  0  0  0  0  0  0  0  0  0  0
   12.8470   -3.0710   21.7320 N   0  0  0  0  0  0  0  0  0  0  0  0
   12.7460   -2.7380   23.0960 C   0  0  0  0  0  0  0  0  0  0  0  0
   11.5210   -2.1880   23.6910 C   0  0  0  0  0  0  0  0  0  0  0  0
   11.7400   -1.8940   24.9910 C   0  0  0  0  0  0  0  0  0  0  0  0
   13.0410   -2.2000   25.4180 C   0  0  0  0  0  0  0  0  0  0  0  0
   13.9410   -2.8500   24.2000 S   0  0  0  0  0  0  0  0  0  0  0  0
   13.4100   -1.0500   21.7690 C   0  0  0  0  0  0  0  0  0  0  0  0
   13.2230   -0.0380   22.6870 C   0  0  0  0  0  0  0  0  0  0  0  0
   12.5250    2.6810   22.9080 C   0  0  0  0  0  0  0  0  0  0  0  0
   12.1550    3.9980   23.1050 C   0  0  0  0  0  0  0  0  0  0  0  0
  2  1  1  0
  2  3  2  0
  2  4  2  0
  2  5  1  0
  5  6  2  0
  6  7  1  0
  7  8  2  0
  8  9  1  0
  9 10  1  0
 10 11  1  0
 11 12  1  0
 12 13  1  0
 13 14  1  0
 14 15  2  0
 15 16  1  0
 16 17  2  0
 14 18  1  0
 17 18  1  0
 12 19  1  0
  9 20  1  0
 19 20  1  0
  8 21  1  0
  5 22  1  0
 21 22  2  0
M  END
