WAR-XCH-b6889685-18
     RDKit          3D

 25 27  0  0  0  0  0  0  0  0999 V2000
   27.8000  -15.0150   27.1110 N   0  0  0  0  0  0  0  0  0  0  0  0
   26.2900  -14.2770   26.9680 S   0  0  0  0  0  0  0  0  0  0  0  0
   26.4880  -13.2250   26.0060 O   0  0  0  0  0  0  0  0  0  0  0  0
   25.7830  -14.0710   28.2980 O   0  0  0  0  0  0  0  0  0  0  0  0
   25.3620  -15.5550   26.1860 C   0  0  0  0  0  0  0  0  0  0  0  0
   23.9710  -15.6590   26.3220 C   0  0  0  0  0  0  0  0  0  0  0  0
   23.3120  -16.7200   25.6770 C   0  0  0  0  0  0  0  0  0  0  0  0
   24.0040  -17.6610   24.9030 C   0  0  0  0  0  0  0  0  0  0  0  0
   23.3590  -18.7230   24.2550 N   0  0  0  0  0  0  0  0  0  0  0  0
   23.0960  -19.8460   25.2180 C   0  0  0  0  0  0  0  0  0  0  0  0
   22.9820  -21.2610   24.6020 C   0  0  0  0  0  0  0  0  0  0  0  0
   22.7460  -21.1500   23.1230 C   0  0  0  0  0  0  0  0  0  0  0  0
   22.3010  -22.3770   22.2640 C   0  0  0  0  0  0  0  0  0  0  0  0
   22.9360  -22.3380   20.9570 O   0  0  0  0  0  0  0  0  0  0  0  0
   22.5380  -23.0520   19.8450 C   0  0  0  0  0  0  0  0  0  0  0  0
   22.2970  -24.4100   20.0690 C   0  0  0  0  0  0  0  0  0  0  0  0
   21.9090  -25.2560   19.0260 C   0  0  0  0  0  0  0  0  0  0  0  0
   21.7620  -24.7410   17.7480 C   0  0  0  0  0  0  0  0  0  0  0  0
   21.9870  -23.3910   17.5180 C   0  0  0  0  0  0  0  0  0  0  0  0
   21.8400  -22.8910   16.2840 F   0  0  0  0  0  0  0  0  0  0  0  0
   22.3730  -22.5400   18.5540 C   0  0  0  0  0  0  0  0  0  0  0  0
   23.9560  -20.4590   22.5340 C   0  0  0  0  0  0  0  0  0  0  0  0
   24.0220  -19.0050   22.9640 C   0  0  0  0  0  0  0  0  0  0  0  0
   25.3910  -17.5090   24.7950 C   0  0  0  0  0  0  0  0  0  0  0  0
   26.0670  -16.4730   25.4260 C   0  0  0  0  0  0  0  0  0  0  0  0
  2  1  1  0
  2  3  2  0
  2  4  2  0
  2  5  1  0
  5  6  2  0
  6  7  1  0
  7  8  2  0
  8  9  1  0
  9 10  1  0
 10 11  1  0
 11 12  1  0
 12 13  1  0
 13 14  1  0
 14 15  1  0
 15 16  2  0
 16 17  1  0
 17 18  2  0
 18 19  1  0
 19 20  1  0
 15 21  1  0
 19 21  2  0
 12 22  1  0
  9 23  1  0
 22 23  1  0
  8 24  1  0
  5 25  1  0
 24 25  2  0
M  END
