WAR-XCH-bdd24732-6
     RDKit          3D

 24 26  0  0  0  0  0  0  0  0999 V2000
    6.2000   -6.7160   29.3380 C   0  0  0  0  0  0  0  0  0  0  0  0
    6.6550   -5.3780   29.4710 O   0  0  0  0  0  0  0  0  0  0  0  0
    7.1410   -4.7810   28.3410 C   0  0  0  0  0  0  0  0  0  0  0  0
    8.3120   -5.1620   27.6590 C   0  0  0  0  0  0  0  0  0  0  0  0
    8.7440   -4.4090   26.4140 C   0  0  0  0  0  0  0  0  0  0  0  0
    8.0890   -3.3160   25.8190 C   0  0  0  0  0  0  0  0  0  0  0  0
    8.5890   -2.6340   24.6040 N   0  0  0  0  0  0  0  0  0  0  0  0
    7.9580   -1.4950   24.1940 C   0  0  0  0  0  0  0  0  0  0  0  0
    7.3960   -1.4810   22.9670 C   0  0  0  0  0  0  0  0  0  0  0  0
    6.7030   -0.2250   22.4800 C   0  0  0  0  0  0  0  0  0  0  0  0
    6.6870    0.9640   23.4340 C   0  0  0  0  0  0  0  0  0  0  0  0
    6.0610    2.0830   22.9560 O   0  0  0  0  0  0  0  0  0  0  0  0
    6.8090    3.2960   23.0320 C   0  0  0  0  0  0  0  0  0  0  0  0
    7.2900    0.8420   24.6760 C   0  0  0  0  0  0  0  0  0  0  0  0
    7.9000   -0.3640   25.0190 C   0  0  0  0  0  0  0  0  0  0  0  0
    9.9490   -2.7940   24.0930 C   0  0  1  0  0  0  0  0  0  0  0  0
   10.0750   -2.1020   22.8860 C   0  0  0  0  0  0  0  0  0  0  0  0
   11.3240   -2.0560   22.2790 C   0  0  0  0  0  0  0  0  0  0  0  0
   12.3200   -1.4350   23.0340 C   0  0  2  0  0  0  0  0  0  0  0  0
   13.5290   -1.8110   22.3920 O   0  0  0  0  0  0  0  0  0  0  0  0
   12.3790   -2.0570   24.4370 C   0  0  0  0  0  0  0  0  0  0  0  0
   10.9910   -2.2800   25.0750 C   0  0  0  0  0  0  0  0  0  0  0  0
    6.9350   -2.9050   26.4510 C   0  0  0  0  0  0  0  0  0  0  0  0
    6.4310   -3.5900   27.6890 C   0  0  0  0  0  0  0  0  0  0  0  0
  1  2  1  0
  2  3  1  0
  3  4  2  0
  4  5  1  0
  5  6  2  0
  6  7  1  0
  7  8  1  0
  8  9  2  0
  9 10  1  0
 10 11  2  0
 11 12  1  0
 12 13  1  0
 11 14  1  0
  8 15  1  0
 14 15  2  0
 16  7  1  1
 16 17  1  0
 17 18  1  0
 18 19  1  0
 19 20  1  6
 19 21  1  0
 16 22  1  0
 21 22  1  0
  6 23  1  0
  3 24  1  0
 23 24  2  0
M  END
