WAR-XCH-b6889685-53
     RDKit          3D

 21 22  0  0  0  0  0  0  0  0999 V2000
    7.1230   -2.9700   24.2630 C   0  0  0  0  0  0  0  0  0  0  0  0
    8.3180   -2.5080   23.7410 C   0  0  0  0  0  0  0  0  0  0  0  0
    9.1690   -3.4390   23.2360 C   0  0  0  0  0  0  0  0  0  0  0  0
    8.1590   -1.3500   22.8400 N   0  0  0  0  0  0  0  0  0  0  0  0
    8.5120   -1.5840   21.4440 C   0  0  0  0  0  0  0  0  0  0  0  0
    9.0160   -0.3220   23.3810 C   0  0  0  0  0  0  0  0  0  0  0  0
    9.4560   -0.8900   24.6820 C   0  0  0  0  0  0  0  0  0  0  0  0
   10.3320    0.0100   25.4530 C   0  0  0  0  0  0  0  0  0  0  0  0
   11.4940    0.4270   24.6580 N   0  0  0  0  0  0  0  0  0  0  0  0
   12.0360   -0.5270   24.0810 C   0  0  0  0  0  0  0  0  0  0  0  0
   12.4880    0.0300   22.9610 C   0  0  0  0  0  0  0  0  0  0  0  0
   12.9820   -0.7460   22.0680 C   0  0  0  0  0  0  0  0  0  0  0  0
   13.0080   -2.0960   22.2950 C   0  0  0  0  0  0  0  0  0  0  0  0
   13.4910   -2.4960   20.7480 S   0  0  0  0  0  0  0  0  0  0  0  0
   14.3340   -3.8660   20.1700 N   0  0  0  0  0  0  0  0  0  0  0  0
   14.1420   -1.3150   20.2430 O   0  0  0  0  0  0  0  0  0  0  0  0
   12.2000   -2.7570   20.2960 O   0  0  0  0  0  0  0  0  0  0  0  0
   12.6470   -2.6990   23.4800 C   0  0  0  0  0  0  0  0  0  0  0  0
   12.1310   -1.8620   24.4200 C   0  0  0  0  0  0  0  0  0  0  0  0
   11.0420    0.9800   23.3540 C   0  0  0  0  0  0  0  0  0  0  0  0
   10.3480   -0.0290   22.6580 C   0  0  0  0  0  0  0  0  0  0  0  0
  1  2  1  0
  2  3  1  0
  2  4  1  0
  4  5  1  0
  4  6  1  0
  6  7  1  0
  7  8  1  0
  8  9  1  0
  9 10  1  0
 10 11  2  0
 11 12  1  0
 12 13  2  0
 13 14  1  0
 14 15  1  0
 14 16  2  0
 14 17  2  0
 13 18  1  0
 10 19  1  0
 18 19  2  0
  9 20  1  0
  6 21  1  0
 20 21  1  0
M  END
