WAR-XCH-bdd24732-23
     RDKit          3D

 24 26  0  0  0  0  0  0  0  0999 V2000
    6.3050   -4.8600   29.0380 C   0  0  0  0  0  0  0  0  0  0  0  0
    6.2770   -4.5490   27.6000 C   0  0  0  0  0  0  0  0  0  0  0  0
    6.0570   -5.5660   26.6760 C   0  0  0  0  0  0  0  0  0  0  0  0
    6.0390   -5.2380   25.3210 C   0  0  0  0  0  0  0  0  0  0  0  0
    5.8190   -6.1420   24.3680 F   0  0  0  0  0  0  0  0  0  0  0  0
    6.2390   -3.9550   24.8810 C   0  0  0  0  0  0  0  0  0  0  0  0
    6.4550   -2.9240   25.7730 C   0  0  0  0  0  0  0  0  0  0  0  0
    6.6540   -1.5570   25.1650 C   0  0  0  0  0  0  0  0  0  0  0  0
    5.9850   -0.3760   25.8860 C   0  0  0  0  0  0  0  0  0  0  0  0
    6.2840    0.9040   25.1320 C   0  0  0  0  0  0  0  0  0  0  0  0
    5.8000    1.1010   23.8400 C   0  0  0  0  0  0  0  0  0  0  0  0
    6.1140    2.2860   23.1950 C   0  0  0  0  0  0  0  0  0  0  0  0
    6.8650    3.2690   23.7390 N   0  0  0  0  0  0  0  0  0  0  0  0
    7.3390    3.0900   24.9900 C   0  0  0  0  0  0  0  0  0  0  0  0
    8.1410    4.0700   25.6290 N   0  0  0  0  0  0  0  0  0  0  0  0
    9.3790    4.6290   25.2140 C   0  0  0  0  0  0  0  0  0  0  0  0
    9.8720    4.5140   23.9100 C   0  0  0  0  0  0  0  0  0  0  0  0
   11.0490    5.0310   23.4660 N   0  0  0  0  0  0  0  0  0  0  0  0
   11.7850    5.7060   24.3620 C   0  0  0  0  0  0  0  0  0  0  0  0
   11.4090    5.8870   25.6760 C   0  0  0  0  0  0  0  0  0  0  0  0
   10.1910    5.3440   26.1180 C   0  0  0  0  0  0  0  0  0  0  0  0
    9.8040    5.5480   27.5540 C   0  0  0  0  0  0  0  0  0  0  0  0
    7.0580    1.9240   25.7010 C   0  0  0  0  0  0  0  0  0  0  0  0
    6.4720   -3.2230   27.1500 C   0  0  0  0  0  0  0  0  0  0  0  0
  1  2  1  0
  2  3  2  0
  3  4  1  0
  4  5  1  0
  4  6  2  0
  6  7  1  0
  7  8  1  0
  8  9  1  0
  9 10  1  0
 10 11  2  0
 11 12  1  0
 12 13  2  0
 13 14  1  0
 14 15  1  0
 15 16  1  0
 16 17  2  0
 17 18  1  0
 18 19  2  0
 19 20  1  0
 16 21  1  0
 20 21  2  0
 21 22  1  0
 10 23  1  0
 14 23  2  0
  2 24  1  0
  7 24  2  0
M  END
