WAR-XCH-b6889685-47
     RDKit          3D

 26 28  0  0  0  0  0  0  0  0999 V2000
   23.4190  -17.2930   24.8700 C   0  0  0  0  0  0  0  0  0  0  0  0
   23.3600  -18.5070   24.1910 C   0  0  0  0  0  0  0  0  0  0  0  0
   22.6890  -19.5680   24.7740 C   0  0  0  0  0  0  0  0  0  0  0  0
   22.5600  -20.8260   24.1630 C   0  0  0  0  0  0  0  0  0  0  0  0
   23.1980  -21.0050   22.7920 C   0  0  0  0  0  0  0  0  0  0  0  0
   23.0960  -22.3170   22.0010 C   0  0  1  0  0  0  0  0  0  0  0  0
   21.7230  -22.9540   22.3160 C   0  0  0  0  0  0  0  0  0  0  0  0
   23.2310  -22.1790   20.5160 N   0  0  0  0  0  0  0  0  0  0  0  0
   22.4060  -23.1160   19.7100 C   0  0  0  0  0  0  0  0  0  0  0  0
   22.6720  -24.4300   20.0350 C   0  0  0  0  0  0  0  0  0  0  0  0
   22.0140  -25.4500   19.3660 C   0  0  0  0  0  0  0  0  0  0  0  0
   21.9870  -25.2080   17.9300 N   0  0  0  0  0  0  0  0  0  0  0  0
   21.9340  -26.3590   17.1500 C   0  0  0  0  0  0  0  0  0  0  0  0
   22.8330  -26.6070   16.1080 C   0  0  0  0  0  0  0  0  0  0  0  0
   22.7700  -27.7800   15.3380 C   0  0  0  0  0  0  0  0  0  0  0  0
   21.8070  -28.7660   15.5670 C   0  0  0  0  0  0  0  0  0  0  0  0
   21.7730  -30.2200   14.5640 S   0  0  0  0  0  0  0  0  0  0  0  0
   23.1630  -31.0300   15.0700 N   0  0  0  0  0  0  0  0  0  0  0  0
   20.6720  -31.0560   14.9870 O   0  0  0  0  0  0  0  0  0  0  0  0
   21.9620  -29.8430   13.1830 O   0  0  0  0  0  0  0  0  0  0  0  0
   20.8740  -28.6030   16.5800 C   0  0  0  0  0  0  0  0  0  0  0  0
   20.9460  -27.3320   17.4130 C   0  0  0  0  0  0  0  0  0  0  0  0
   21.8110  -23.8240   17.4200 C   0  0  0  0  0  0  0  0  0  0  0  0
   22.5180  -22.8700   18.1940 C   0  0  0  0  0  0  0  0  0  0  0  0
   23.8800  -19.8960   22.2590 C   0  0  0  0  0  0  0  0  0  0  0  0
   23.9590  -18.6750   22.9390 C   0  0  0  0  0  0  0  0  0  0  0  0
  1  2  1  0
  2  3  2  0
  3  4  1  0
  4  5  2  0
  5  6  1  0
  6  7  1  6
  6  8  1  0
  8  9  1  0
  9 10  1  0
 10 11  1  0
 11 12  1  0
 12 13  1  0
 13 14  2  0
 14 15  1  0
 15 16  2  0
 16 17  1  0
 17 18  1  0
 17 19  2  0
 17 20  2  0
 16 21  1  0
 13 22  1  0
 21 22  2  0
 12 23  1  0
  9 24  1  0
 23 24  1  0
  5 25  1  0
  2 26  1  0
 25 26  2  0
M  END
