WAR-XCH-b0339bbe-11
     RDKit          3D

 25 28  0  0  0  0  0  0  0  0999 V2000
    5.9800   -2.6450   27.3350 C   0  0  0  0  0  0  0  0  0  0  0  0
    5.9520   -3.0280   25.9120 C   0  0  0  0  0  0  0  0  0  0  0  0
    6.1220   -2.2860   24.8850 C   0  0  0  0  0  0  0  0  0  0  0  0
    5.9830   -3.2140   23.9800 C   0  0  0  0  0  0  0  0  0  0  0  0
    5.7640   -4.4990   24.1790 N   0  0  0  0  0  0  0  0  0  0  0  0
    5.6930   -5.0800   22.9290 C   0  0  0  0  0  0  0  0  0  0  0  0
    5.8620   -4.1620   21.7280 N   0  0  0  0  0  0  0  0  0  0  0  0
    6.0670   -2.9250   21.0770 C   0  0  0  0  0  0  0  0  0  0  0  0
    5.0650   -1.8400   21.5210 C   0  0  0  0  0  0  0  0  0  0  0  0
    5.4310   -0.8490   22.6000 C   0  0  0  0  0  0  0  0  0  0  0  0
    4.4000    0.1480   23.0090 C   0  0  0  0  0  0  0  0  0  0  0  0
    4.9770    1.3580   23.1040 C   0  0  0  0  0  0  0  0  0  0  0  0
    4.2580    2.3950   23.7130 C   0  0  0  0  0  0  0  0  0  0  0  0
    3.5580    2.0350   24.8780 C   0  0  0  0  0  0  0  0  0  0  0  0
    3.8320    0.7160   25.2510 C   0  0  0  0  0  0  0  0  0  0  0  0
    3.7390   -0.1990   24.1970 C   0  0  0  0  0  0  0  0  0  0  0  0
    7.4140   -2.5640   21.2980 C   0  0  0  0  0  0  0  0  0  0  0  0
    7.8370   -1.4320   20.5910 C   0  0  0  0  0  0  0  0  0  0  0  0
    7.1570   -1.0750   19.4150 C   0  0  0  0  0  0  0  0  0  0  0  0
    6.1400   -2.0010   18.8080 C   0  0  0  0  0  0  0  0  0  0  0  0
    5.6650   -3.0560   19.5940 C   0  0  0  0  0  0  0  0  0  0  0  0
    5.9850   -3.3350   22.7860 C   0  0  0  0  0  0  0  0  0  0  0  0
    5.7630   -4.4340   23.7530 C   0  0  0  0  0  0  0  0  0  0  0  0
    5.7350   -4.3130   25.2690 C   0  0  0  0  0  0  0  0  0  0  0  0
    5.4980   -5.4480   26.0650 C   0  0  0  0  0  0  0  0  0  0  0  0
  1  2  1  0
  2  3  2  0
  3  4  1  0
  4  5  1  0
  5  6  2  0
  6  7  1  0
  7  8  1  0
  8  9  1  0
  9 10  3  0
 10 11  1  0
 11 12  1  0
 12 13  1  0
 13 14  1  0
 14 15  1  0
 11 16  1  0
 15 16  1  0
  8 17  1  0
 17 18  1  0
 18 19  1  0
 19 20  1  0
  8 21  1  0
 20 21  1  0
  4 22  2  0
  7 22  1  0
 22 23  1  0
  2 24  1  0
 23 24  2  0
 24 25  1  0
M  END
