WAR-XCH-b72a1bbc-12
     RDKit          3D

 22 24  0  0  0  0  0  0  0  0999 V2000
    9.0200    5.6920   22.5450 N   0  0  0  0  0  0  0  0  0  0  0  0
   10.4950    5.6450   23.3460 S   0  0  0  0  0  0  0  0  0  0  0  0
   11.4560    6.2700   22.4800 O   0  0  0  0  0  0  0  0  0  0  0  0
   10.2580    6.1010   24.7000 O   0  0  0  0  0  0  0  0  0  0  0  0
   10.8210    3.9080   23.4170 C   0  0  0  0  0  0  0  0  0  0  0  0
    9.7390    3.0300   23.9630 C   0  0  0  0  0  0  0  0  0  0  0  0
    9.9760    1.6640   24.0680 C   0  0  0  0  0  0  0  0  0  0  0  0
   11.1690    1.1080   23.6780 C   0  0  0  0  0  0  0  0  0  0  0  0
   11.3370   -0.2520   23.8190 N   0  0  0  0  0  0  0  0  0  0  0  0
   12.3080   -0.8590   24.7250 C   0  0  0  0  0  0  0  0  0  0  0  0
   12.8010   -1.9040   23.9820 C   0  0  0  0  0  0  0  0  0  0  0  0
   12.6520   -1.6320   22.6100 C   0  0  0  0  0  0  0  0  0  0  0  0
   13.6420   -2.3070   21.8520 N   0  0  0  0  0  0  0  0  0  0  0  0
   13.6740   -2.0550   20.5770 C   0  0  0  0  0  0  0  0  0  0  0  0
   14.1390   -3.5140   20.0000 C   0  0  0  0  0  0  0  0  0  0  0  0
   15.5590   -4.7060   19.9210 S   0  0  0  0  0  0  0  0  0  0  0  0
   14.6470   -4.6820   21.2330 C   0  0  0  0  0  0  0  0  0  0  0  0
   13.5270   -3.6790   21.5200 C   0  0  0  0  0  0  0  0  0  0  0  0
   11.2050   -1.7970   22.1400 C   0  0  0  0  0  0  0  0  0  0  0  0
   10.3740   -1.1520   23.1950 C   0  0  0  0  0  0  0  0  0  0  0  0
   12.1770    1.9470   23.1430 C   0  0  0  0  0  0  0  0  0  0  0  0
   12.0300    3.3450   23.0020 C   0  0  0  0  0  0  0  0  0  0  0  0
  2  1  1  0
  2  3  2  0
  2  4  2  0
  2  5  1  0
  5  6  2  0
  6  7  1  0
  7  8  2  0
  8  9  1  0
  9 10  1  0
 10 11  1  0
 11 12  1  0
 12 13  1  0
 13 14  1  0
 14 15  1  0
 15 16  1  0
 16 17  1  0
 13 18  1  0
 17 18  1  0
 12 19  1  0
  9 20  1  0
 19 20  1  0
  8 21  1  0
  5 22  1  0
 21 22  2  0
M  END
