WAR-XCH-bdd24732-36
     RDKit          3D

 27 29  0  0  0  0  0  0  0  0999 V2000
    3.9890   -5.4060   31.0090 O   0  0  0  0  0  0  0  0  0  0  0  0
    4.4540   -6.4640   30.5980 C   0  0  0  0  0  0  0  0  0  0  0  0
    4.7580   -7.5530   31.4180 N   0  0  0  0  0  0  0  0  0  0  0  0
    4.4980   -7.6650   32.8020 C   0  0  0  0  0  0  0  0  0  0  0  0
    5.6040   -8.3560   33.4610 C   0  0  0  0  0  0  0  0  0  0  0  0
    5.2370   -9.1830   34.5270 C   0  0  0  0  0  0  0  0  0  0  0  0
    4.1550   -8.6830   35.2610 C   0  0  0  0  0  0  0  0  0  0  0  0
    3.0000   -8.4500   34.5430 C   0  0  0  0  0  0  0  0  0  0  0  0
    3.2440   -8.1600   33.1840 C   0  0  0  0  0  0  0  0  0  0  0  0
    4.6930   -6.5760   29.1940 N   0  0  0  0  0  0  0  0  0  0  0  0
    5.8630   -6.1060   28.6970 C   0  0  0  0  0  0  0  0  0  0  0  0
    5.6420   -4.7220   28.0960 C   0  0  0  0  0  0  0  0  0  0  0  0
    6.4210   -3.7200   28.7330 C   0  0  0  0  0  0  0  0  0  0  0  0
    6.9220   -2.4290   28.6180 C   0  0  0  0  0  0  0  0  0  0  0  0
    6.7160   -2.0390   27.2810 C   0  0  0  0  0  0  0  0  0  0  0  0
    6.3190   -3.1110   26.2120 C   0  0  0  0  0  0  0  0  0  0  0  0
    5.7020   -4.4760   26.6980 C   0  0  0  0  0  0  0  0  0  0  0  0
    3.4400   -6.6370   28.0280 S   0  0  0  0  0  0  0  0  0  0  0  0
    3.0870   -5.2780   27.6860 O   0  0  0  0  0  0  0  0  0  0  0  0
    3.8570   -7.5350   26.9770 O   0  0  0  0  0  0  0  0  0  0  0  0
    2.0600   -7.4180   28.8200 C   0  0  0  0  0  0  0  0  0  0  0  0
    2.2570   -8.3410   30.0230 C   0  0  0  0  0  0  0  0  0  0  0  0
    1.0510   -9.0140   30.7010 C   0  0  0  0  0  0  0  0  0  0  0  0
   -0.2890   -8.8260   30.2650 C   0  0  0  0  0  0  0  0  0  0  0  0
   -0.5380   -7.9150   29.0720 C   0  0  0  0  0  0  0  0  0  0  0  0
    0.5910   -7.2130   28.3440 C   0  0  0  0  0  0  0  0  0  0  0  0
    0.2700   -6.4330   27.3040 F   0  0  0  0  0  0  0  0  0  0  0  0
  1  2  2  0
  2  3  1  0
  3  4  1  0
  4  5  1  0
  5  6  1  0
  6  7  1  0
  7  8  1  0
  4  9  1  0
  8  9  1  0
  2 10  1  0
 10 11  1  0
 11 12  1  0
 12 13  1  0
 13 14  1  0
 14 15  1  0
 15 16  1  0
 12 17  1  0
 16 17  1  0
 18 10  1  0
 18 19  2  0
 18 20  2  0
 18 21  1  0
 21 22  2  0
 22 23  1  0
 23 24  2  0
 24 25  1  0
 21 26  1  0
 25 26  2  0
 26 27  1  0
M  END
