WAR-XCH-b6889685-28
     RDKit          3D

 27 30  0  0  0  0  0  0  0  0999 V2000
    9.7890    6.2160   22.7920 N   0  0  0  0  0  0  0  0  0  0  0  0
   11.1450    5.6500   23.6150 S   0  0  0  0  0  0  0  0  0  0  0  0
   12.2650    6.1860   22.8880 O   0  0  0  0  0  0  0  0  0  0  0  0
   10.8750    5.9420   25.0010 O   0  0  0  0  0  0  0  0  0  0  0  0
   10.9650    3.9310   23.2710 C   0  0  0  0  0  0  0  0  0  0  0  0
    9.6700    3.5250   23.2220 C   0  0  0  0  0  0  0  0  0  0  0  0
    9.3640    2.2320   22.9330 C   0  0  0  0  0  0  0  0  0  0  0  0
   10.3010    1.2540   22.6830 C   0  0  0  0  0  0  0  0  0  0  0  0
    9.6150    0.0300   22.3940 N   0  0  0  0  0  0  0  0  0  0  0  0
    8.2250    0.1840   22.8120 C   0  0  0  0  0  0  0  0  0  0  0  0
    8.3280    0.7280   24.2440 C   0  0  0  0  0  0  0  0  0  0  0  0
    9.6540    0.2130   24.8330 C   0  0  0  0  0  0  0  0  0  0  0  0
   10.9320    0.7340   24.2950 N   0  0  0  0  0  0  0  0  0  0  0  0
   11.8810   -0.2970   24.3270 C   0  0  0  0  0  0  0  0  0  0  0  0
   12.5730   -0.6200   25.5830 C   0  0  0  0  0  0  0  0  0  0  0  0
   13.5280   -1.7440   25.7700 C   0  0  0  0  0  0  0  0  0  0  0  0
   13.7950   -2.5220   24.6730 C   0  0  0  0  0  0  0  0  0  0  0  0
   13.1830   -2.1650   23.4660 C   0  0  0  0  0  0  0  0  0  0  0  0
   13.5600   -2.9300   22.4070 C   0  0  0  0  0  0  0  0  0  0  0  0
   13.1630   -2.7820   21.1990 C   0  0  0  0  0  0  0  0  0  0  0  0
   12.2700   -1.8160   21.0310 C   0  0  0  0  0  0  0  0  0  0  0  0
   11.7950   -0.9830   22.0130 C   0  0  0  0  0  0  0  0  0  0  0  0
   12.2300   -1.0840   23.2530 C   0  0  0  0  0  0  0  0  0  0  0  0
    9.7760   -1.2440   24.4130 C   0  0  0  0  0  0  0  0  0  0  0  0
   10.0890   -1.2560   22.9310 C   0  0  0  0  0  0  0  0  0  0  0  0
   11.6780    1.6620   22.7530 C   0  0  0  0  0  0  0  0  0  0  0  0
   12.0080    3.0130   23.0430 C   0  0  0  0  0  0  0  0  0  0  0  0
  2  1  1  0
  2  3  2  0
  2  4  2  0
  2  5  1  0
  5  6  2  0
  6  7  1  0
  7  8  2  0
  8  9  1  0
  9 10  1  0
 10 11  1  0
 11 12  1  0
 12 13  1  0
 13 14  1  0
 14 15  2  0
 15 16  1  0
 16 17  2  0
 17 18  1  0
 18 19  1  0
 19 20  2  0
 20 21  1  0
 21 22  2  0
 14 23  1  0
 18 23  2  0
 22 23  1  0
 12 24  1  0
  9 25  1  0
 24 25  1  0
  8 26  1  0
  5 27  1  0
 26 27  2  0
M  END
