WAR-XCH-72a8c209-12
     RDKit          3D

 26 28  0  0  0  0  0  0  0  0999 V2000
    3.9660   -7.3310   25.1530 N   0  0  0  0  0  0  0  0  0  0  0  0
    4.2870   -6.3470   26.0480 C   0  0  0  0  0  0  0  0  0  0  0  0
    3.3940   -6.0500   27.1170 O   0  0  0  0  0  0  0  0  0  0  0  0
    5.6020   -5.6550   25.7940 C   0  0  0  0  0  0  0  0  0  0  0  0
    6.2990   -5.5360   26.7950 O   0  0  0  0  0  0  0  0  0  0  0  0
    5.9160   -5.2080   24.4930 N   0  0  0  0  0  0  0  0  0  0  0  0
    4.9050   -5.3400   23.4590 C   0  0  0  0  0  0  0  0  0  0  0  0
    3.7760   -4.3270   23.7170 C   0  0  0  0  0  0  0  0  0  0  0  0
    4.3710   -2.9700   23.9480 C   0  0  0  0  0  0  0  0  0  0  0  0
    5.8100   -2.9060   23.5150 C   0  0  1  0  0  0  0  0  0  0  0  0
    6.3720   -1.6420   23.6130 N   0  0  0  0  0  0  0  0  0  0  0  0
    5.4760   -0.5080   23.5070 C   0  0  0  0  0  0  0  0  0  0  0  0
    4.7800   -0.1190   24.6730 C   0  0  0  0  0  0  0  0  0  0  0  0
    4.3200    1.2110   24.7970 C   0  0  0  0  0  0  0  0  0  0  0  0
    3.7620    1.6460   26.0920 C   0  0  0  0  0  0  0  0  0  0  0  0
    4.3010    1.1760   27.2770 C   0  0  0  0  0  0  0  0  0  0  0  0
    4.9080   -0.0630   27.2130 C   0  0  0  0  0  0  0  0  0  0  0  0
    5.5890   -0.4750   25.9360 C   0  0  0  0  0  0  0  0  0  0  0  0
    7.4990   -1.3990   22.9560 C   0  0  2  0  0  0  0  0  0  0  0  0
    8.1020   -0.2600   23.5270 C   0  0  0  0  0  0  0  0  0  0  0  0
    8.4040    0.9130   22.8280 C   0  0  0  0  0  0  0  0  0  0  0  0
    8.6380    0.7470   21.5010 C   0  0  1  0  0  0  0  0  0  0  0  0
    9.8180   -0.0570   21.4110 O   0  0  0  0  0  0  0  0  0  0  0  0
    7.5250    0.0210   20.7760 C   0  0  0  0  0  0  0  0  0  0  0  0
    7.4760   -1.3470   21.3960 C   0  0  0  0  0  0  0  0  0  0  0  0
    6.5920   -3.9050   24.4090 C   0  0  0  0  0  0  0  0  0  0  0  0
  1  2  1  0
  2  3  2  0
  2  4  1  0
  4  5  2  0
  4  6  1  0
  6  7  1  0
  7  8  1  0
  8  9  1  0
  9 10  1  0
 10 11  1  1
 11 12  1  0
 12 13  1  0
 13 14  1  0
 14 15  1  0
 15 16  1  0
 16 17  1  0
 13 18  1  0
 17 18  1  0
 19 11  1  1
 19 20  1  0
 20 21  1  0
 21 22  1  0
 22 23  1  1
 22 24  1  0
 19 25  1  0
 24 25  1  0
  6 26  1  0
 10 26  1  0
M  END
