WAR-XCH-b6889685-13
     RDKit          3D

 29 32  0  0  0  0  0  0  0  0999 V2000
    8.6070    5.6010   22.6880 N   0  0  0  0  0  0  0  0  0  0  0  0
   10.0080    5.4280   23.5840 S   0  0  0  0  0  0  0  0  0  0  0  0
   10.9800    6.2900   22.9670 O   0  0  0  0  0  0  0  0  0  0  0  0
    9.6290    5.6030   24.9670 O   0  0  0  0  0  0  0  0  0  0  0  0
   10.4470    3.7350   23.3140 C   0  0  0  0  0  0  0  0  0  0  0  0
    9.4980    2.7300   23.1950 C   0  0  0  0  0  0  0  0  0  0  0  0
    9.9290    1.4050   23.0020 C   0  0  0  0  0  0  0  0  0  0  0  0
   11.3030    1.0740   22.9260 C   0  0  0  0  0  0  0  0  0  0  0  0
   11.6590   -0.2390   22.7580 N   0  0  0  0  0  0  0  0  0  0  0  0
   12.5210   -0.9410   23.7130 C   0  0  0  0  0  0  0  0  0  0  0  0
   12.5290   -2.4400   23.3910 C   0  0  0  0  0  0  0  0  0  0  0  0
   12.0600   -2.8030   21.9270 C   0  0  0  0  0  0  0  0  0  0  0  0
   13.2510   -3.2190   21.0920 C   0  0  0  0  0  0  0  0  0  0  0  0
   13.5750   -4.2650   20.0550 N   0  0  0  0  0  0  0  0  0  0  0  0
   14.4360   -5.3560   20.4410 C   0  0  0  0  0  0  0  0  0  0  0  0
   15.2080   -5.7520   19.2400 C   0  0  0  0  0  0  0  0  0  0  0  0
   14.6350   -5.0180   18.0490 C   0  0  0  0  0  0  0  0  0  0  0  0
   14.9800   -5.5520   16.8330 C   0  0  0  0  0  0  0  0  0  0  0  0
   16.1470   -5.5840   16.6640 C   0  0  0  0  0  0  0  0  0  0  0  0
   16.4570   -6.0960   15.5520 C   0  0  0  0  0  0  0  0  0  0  0  0
   15.4390   -6.5920   14.6030 C   0  0  0  0  0  0  0  0  0  0  0  0
   16.0360   -7.4860   12.5860 Br  0  0  0  0  0  0  0  0  0  0  0  0
   14.0900   -6.1500   15.5520 S   0  0  0  0  0  0  0  0  0  0  0  0
   15.4590   -3.8880   18.2480 C   0  0  0  0  0  0  0  0  0  0  0  0
   14.8250   -3.7060   19.5600 C   0  0  0  0  0  0  0  0  0  0  0  0
   11.0600   -1.8800   21.3670 C   0  0  0  0  0  0  0  0  0  0  0  0
   10.5070   -1.0120   22.4150 C   0  0  0  0  0  0  0  0  0  0  0  0
   12.2070    2.1000   23.0270 C   0  0  0  0  0  0  0  0  0  0  0  0
   11.7780    3.4110   23.2230 C   0  0  0  0  0  0  0  0  0  0  0  0
  2  1  1  0
  2  3  2  0
  2  4  2  0
  2  5  1  0
  5  6  2  0
  6  7  1  0
  7  8  2  0
  8  9  1  0
  9 10  1  0
 10 11  1  0
 11 12  1  0
 12 13  1  0
 13 14  1  0
 14 15  1  0
 15 16  1  0
 16 17  1  0
 17 18  1  0
 18 19  2  0
 19 20  1  0
 20 21  2  0
 21 22  1  0
 18 23  1  0
 21 23  1  0
 17 24  1  0
 14 25  1  0
 24 25  1  0
 12 26  1  0
  9 27  1  0
 26 27  1  0
  8 28  1  0
  5 29  1  0
 28 29  2  0
M  END
