WAR-XCH-b6889685-64
     RDKit          3D

 25 27  0  0  0  0  0  0  0  0999 V2000
   24.7040  -22.7300   22.1150 C   0  0  0  0  0  0  0  0  0  0  0  0
   23.5360  -21.9940   21.9260 C   0  0  1  0  0  0  0  0  0  0  0  0
   23.3370  -20.8880   22.8100 C   0  0  0  0  0  0  0  0  0  0  0  0
   23.6790  -19.4990   22.5710 C   0  0  0  0  0  0  0  0  0  0  0  0
   23.3300  -18.6650   23.6830 C   0  0  0  0  0  0  0  0  0  0  0  0
   22.7190  -19.4870   24.7680 C   0  0  0  0  0  0  0  0  0  0  0  0
   22.6180  -21.1310   24.3650 S   0  0  0  0  0  0  0  0  0  0  0  0
   23.2520  -21.7410   20.4670 N   0  0  0  0  0  0  0  0  0  0  0  0
   24.4650  -21.3540   19.7400 C   0  0  0  0  0  0  0  0  0  0  0  0
   22.4840  -22.8440   19.7970 C   0  0  0  0  0  0  0  0  0  0  0  0
   23.0020  -24.2390   20.1420 C   0  0  0  0  0  0  0  0  0  0  0  0
   22.1830  -25.3110   19.4560 C   0  0  0  0  0  0  0  0  0  0  0  0
   22.1290  -25.1590   18.0040 N   0  0  0  0  0  0  0  0  0  0  0  0
   21.7090  -26.3880   17.4830 C   0  0  0  0  0  0  0  0  0  0  0  0
   20.5540  -27.1370   18.1140 C   0  0  0  0  0  0  0  0  0  0  0  0
   20.2560  -28.4300   17.4470 C   0  0  0  0  0  0  0  0  0  0  0  0
   20.9190  -28.9510   16.3590 C   0  0  0  0  0  0  0  0  0  0  0  0
   20.4230  -30.5060   15.6850 S   0  0  0  0  0  0  0  0  0  0  0  0
   21.8140  -31.4280   15.8710 N   0  0  0  0  0  0  0  0  0  0  0  0
   19.4320  -31.1040   16.5500 O   0  0  0  0  0  0  0  0  0  0  0  0
   20.2230  -30.3680   14.2610 O   0  0  0  0  0  0  0  0  0  0  0  0
   22.0160  -28.2070   15.7870 C   0  0  0  0  0  0  0  0  0  0  0  0
   22.3460  -26.9850   16.3710 C   0  0  0  0  0  0  0  0  0  0  0  0
   21.6980  -23.8380   17.5020 C   0  0  0  0  0  0  0  0  0  0  0  0
   22.4110  -22.6950   18.2510 C   0  0  0  0  0  0  0  0  0  0  0  0
  2  1  1  6
  2  3  1  0
  3  4  2  0
  4  5  1  0
  5  6  2  0
  3  7  1  0
  6  7  1  0
  2  8  1  0
  8  9  1  0
  8 10  1  0
 10 11  1  0
 11 12  1  0
 12 13  1  0
 13 14  1  0
 14 15  2  0
 15 16  1  0
 16 17  2  0
 17 18  1  0
 18 19  1  0
 18 20  2  0
 18 21  2  0
 17 22  1  0
 14 23  1  0
 22 23  2  0
 13 24  1  0
 10 25  1  0
 24 25  1  0
M  END
