WAR-XCH-6eb0722e-6
     RDKit          3D

 25 26  0  0  0  0  0  0  0  0999 V2000
   13.1070   -1.8470   21.3310 C   0  0  0  0  0  0  0  0  0  0  0  0
   12.2480   -1.3430   22.4090 C   0  0  0  0  0  0  0  0  0  0  0  0
   12.8000   -0.9930   23.6210 C   0  0  0  0  0  0  0  0  0  0  0  0
   11.8300   -0.5160   24.6350 C   0  0  0  0  0  0  0  0  0  0  0  0
   10.4550   -0.3960   24.4530 C   0  0  0  0  0  0  0  0  0  0  0  0
    9.6760    0.1060   25.6500 C   0  0  0  0  0  0  0  0  0  0  0  0
    8.3810   -0.2120   25.7670 C   0  0  0  0  0  0  0  0  0  0  0  0
    7.8420   -0.2570   27.1810 C   0  0  0  0  0  0  0  0  0  0  0  0
    8.1030    0.9890   27.9090 N   0  0  0  0  0  0  0  0  0  0  0  0
    8.6320    0.8150   29.5040 S   0  0  0  0  0  0  0  0  0  0  0  0
    8.0980   -0.8310   29.8960 C   0  0  0  0  0  0  0  0  0  0  0  0
   10.0770    0.8670   29.5120 O   0  0  0  0  0  0  0  0  0  0  0  0
    7.8560    1.7810   30.2550 O   0  0  0  0  0  0  0  0  0  0  0  0
    9.9770   -0.7610   23.1850 C   0  0  0  0  0  0  0  0  0  0  0  0
    8.6620   -0.6810   22.8790 N   0  0  0  0  0  0  0  0  0  0  0  0
    8.3200   -0.0080   21.7340 C   0  0  0  0  0  0  0  0  0  0  0  0
    8.9630    1.1810   21.2290 O   0  0  0  0  0  0  0  0  0  0  0  0
    7.2700   -0.6200   21.1450 N   0  0  0  0  0  0  0  0  0  0  0  0
    6.6040    0.0080   20.1210 C   0  0  0  0  0  0  0  0  0  0  0  0
    5.4690    0.7690   20.4170 C   0  0  0  0  0  0  0  0  0  0  0  0
    4.7490    1.4430   19.4190 C   0  0  0  0  0  0  0  0  0  0  0  0
    5.1260    1.3910   18.0760 C   0  0  0  0  0  0  0  0  0  0  0  0
    6.3070    0.6000   17.6910 N   0  0  0  0  0  0  0  0  0  0  0  0
    6.9780   -0.0590   18.8060 C   0  0  0  0  0  0  0  0  0  0  0  0
   10.8750   -1.2230   22.2100 C   0  0  0  0  0  0  0  0  0  0  0  0
  1  2  1  0
  2  3  2  0
  3  4  1  0
  4  5  2  0
  5  6  1  0
  6  7  1  0
  7  8  1  0
  8  9  1  0
 10  9  1  0
 10 11  1  0
 10 12  2  0
 10 13  2  0
  5 14  1  0
 14 15  1  0
 15 16  1  0
 16 17  2  0
 16 18  1  0
 18 19  1  0
 19 20  2  0
 20 21  1  0
 21 22  2  0
 22 23  1  0
 19 24  1  0
 23 24  2  0
  2 25  1  0
 14 25  2  0
M  END
