WAR-XCH-e55cba98-8
     RDKit          3D

 27 30  0  0  0  0  0  0  0  0999 V2000
   10.4400    5.3480   25.2550 O   0  0  0  0  0  0  0  0  0  0  0  0
   10.5650    5.3020   23.8130 S   0  0  0  0  0  0  0  0  0  0  0  0
   11.3760    6.2740   23.1170 O   0  0  0  0  0  0  0  0  0  0  0  0
   11.1110    3.6540   23.3510 C   0  0  0  0  0  0  0  0  0  0  0  0
   10.1610    2.5510   23.2290 C   0  0  0  0  0  0  0  0  0  0  0  0
   10.5850    1.3350   22.9070 C   0  0  0  0  0  0  0  0  0  0  0  0
   12.2960    1.4310   22.7270 S   0  0  0  0  0  0  0  0  0  0  0  0
   12.3680    3.1460   23.0640 C   0  0  0  0  0  0  0  0  0  0  0  0
    8.9960    5.4770   23.2100 N   0  0  0  0  0  0  0  0  0  0  0  0
    8.2640    4.2630   22.8280 C   0  0  0  0  0  0  0  0  0  0  0  0
    7.0020    4.5950   22.3530 C   0  0  0  0  0  0  0  0  0  0  0  0
    6.4220    5.7390   22.9130 N   0  0  0  0  0  0  0  0  0  0  0  0
    5.0170    5.9080   23.1270 C   0  0  0  0  0  0  0  0  0  0  0  0
    4.0880    5.4510   21.9970 C   0  0  0  0  0  0  0  0  0  0  0  0
    2.7220    5.0180   22.5360 C   0  0  0  0  0  0  0  0  0  0  0  0
    1.9640    4.0430   21.9020 C   0  0  0  0  0  0  0  0  0  0  0  0
    2.7780    3.2810   21.0170 C   0  0  0  0  0  0  0  0  0  0  0  0
    2.1600    2.1740   20.2360 C   0  0  0  0  0  0  0  0  0  0  0  0
    0.7330    2.0230   20.5030 C   0  0  0  0  0  0  0  0  0  0  0  0
    0.0600    2.8500   21.4050 C   0  0  0  0  0  0  0  0  0  0  0  0
    0.6430    3.8490   22.1060 N   0  0  0  0  0  0  0  0  0  0  0  0
    4.7580    7.1850   23.6600 C   0  0  0  0  0  0  0  0  0  0  0  0
    3.9730    7.1280   24.7800 C   0  0  0  0  0  0  0  0  0  0  0  0
    3.8670    5.8330   25.1910 C   0  0  0  0  0  0  0  0  0  0  0  0
    4.6430    5.0100   24.3670 C   0  0  0  0  0  0  0  0  0  0  0  0
    7.1590    6.9160   22.3940 C   0  0  0  0  0  0  0  0  0  0  0  0
    8.5900    6.7700   22.5630 C   0  0  0  0  0  0  0  0  0  0  0  0
  1  2  2  0
  2  3  2  0
  2  4  1  0
  4  5  1  0
  5  6  2  0
  6  7  1  0
  4  8  2  0
  7  8  1  0
  2  9  1  0
  9 10  1  0
 10 11  1  0
 11 12  1  0
 12 13  1  0
 13 14  1  0
 14 15  3  0
 15 16  1  0
 16 17  2  0
 17 18  1  0
 18 19  2  0
 19 20  1  0
 16 21  1  0
 20 21  2  0
 13 22  1  0
 22 23  1  0
 23 24  1  0
 13 25  1  0
 24 25  1  0
 12 26  1  0
  9 27  1  0
 26 27  1  0
M  END
