WAR-XCH-b6889685-60
     RDKit          3D

 30 33  0  0  0  0  0  0  0  0999 V2000
    8.7030   -5.6270   27.8000 C   0  0  0  0  0  0  0  0  0  0  0  0
    7.5990   -5.4790   26.9780 C   0  0  0  0  0  0  0  0  0  0  0  0
    6.3670   -6.0070   27.3930 C   0  0  0  0  0  0  0  0  0  0  0  0
    5.1580   -5.9290   26.6510 C   0  0  0  0  0  0  0  0  0  0  0  0
    5.2200   -5.2560   25.3880 C   0  0  0  0  0  0  0  0  0  0  0  0
    6.5650   -4.6860   24.9470 C   0  0  0  0  0  0  0  0  0  0  0  0
    6.5790   -3.9710   23.5860 C   0  0  2  0  0  0  0  0  0  0  0  0
    7.6350   -4.5360   22.6150 C   0  0  0  0  0  0  0  0  0  0  0  0
    8.5090   -3.3730   22.1280 C   0  0  0  0  0  0  0  0  0  0  0  0
    7.4420   -2.3210   22.1070 C   0  0  0  0  0  0  0  0  0  0  0  0
    7.0600   -2.4710   23.5500 C   0  0  2  0  0  0  0  0  0  0  0  0
    8.2390   -2.2190   24.3860 N   0  0  0  0  0  0  0  0  0  0  0  0
    7.7800   -2.0260   25.7600 C   0  0  0  0  0  0  0  0  0  0  0  0
    9.2430   -1.2230   23.8450 C   0  0  0  0  0  0  0  0  0  0  0  0
   10.3200   -1.6880   23.0260 C   0  0  0  0  0  0  0  0  0  0  0  0
   11.3860   -0.7340   23.1900 C   0  0  0  0  0  0  0  0  0  0  0  0
   10.9390    0.3110   22.3350 N   0  0  0  0  0  0  0  0  0  0  0  0
   11.0660    1.6130   22.7340 C   0  0  0  0  0  0  0  0  0  0  0  0
    9.8590    2.1430   23.0820 C   0  0  0  0  0  0  0  0  0  0  0  0
    9.7960    3.5540   23.4700 C   0  0  0  0  0  0  0  0  0  0  0  0
   11.0140    4.3940   23.4810 C   0  0  0  0  0  0  0  0  0  0  0  0
   10.8040    6.0720   23.9020 S   0  0  0  0  0  0  0  0  0  0  0  0
    9.5050    6.4240   22.8750 N   0  0  0  0  0  0  0  0  0  0  0  0
   11.9390    6.8160   23.4300 O   0  0  0  0  0  0  0  0  0  0  0  0
   10.2770    6.1770   25.2410 O   0  0  0  0  0  0  0  0  0  0  0  0
   12.2220    3.7840   23.1390 C   0  0  0  0  0  0  0  0  0  0  0  0
   12.2410    2.4140   22.7790 C   0  0  0  0  0  0  0  0  0  0  0  0
    9.5570    0.0950   21.8510 C   0  0  0  0  0  0  0  0  0  0  0  0
    8.6500   -0.0830   23.0540 C   0  0  0  0  0  0  0  0  0  0  0  0
    7.6970   -4.8210   25.7560 C   0  0  0  0  0  0  0  0  0  0  0  0
  1  2  1  0
  2  3  2  0
  3  4  1  0
  4  5  2  0
  5  6  1  0
  7  6  1  1
  7  8  1  0
  8  9  1  0
  9 10  1  0
  7 11  1  0
 10 11  1  0
 11 12  1  1
 12 13  1  0
 12 14  1  0
 14 15  1  0
 15 16  1  0
 16 17  1  0
 17 18  1  0
 18 19  2  0
 19 20  1  0
 20 21  2  0
 21 22  1  0
 22 23  1  0
 22 24  2  0
 22 25  2  0
 21 26  1  0
 18 27  1  0
 26 27  2  0
 17 28  1  0
 14 29  1  0
 28 29  1  0
  2 30  1  0
  6 30  2  0
M  END
