WAR-XCH-bdd24732-35
     RDKit          3D

 27 30  0  0  0  0  0  0  0  0999 V2000
    6.2780   -6.5550   29.4350 C   0  0  0  0  0  0  0  0  0  0  0  0
    5.8750   -5.3950   28.5830 C   0  0  0  0  0  0  0  0  0  0  0  0
    6.6630   -4.3880   28.1400 C   0  0  0  0  0  0  0  0  0  0  0  0
    6.4340   -3.0650   28.9030 C   0  0  0  0  0  0  0  0  0  0  0  0
    5.1670   -2.6570   29.5330 C   0  0  0  0  0  0  0  0  0  0  0  0
    4.8720   -1.4760   30.2460 C   0  0  0  0  0  0  0  0  0  0  0  0
    3.5920   -1.3090   30.7490 C   0  0  0  0  0  0  0  0  0  0  0  0
    3.3870   -2.2770   31.9040 C   0  0  0  0  0  0  0  0  0  0  0  0
    1.9440   -2.1620   32.3980 C   0  0  0  0  0  0  0  0  0  0  0  0
    1.4010   -0.9650   32.8300 C   0  0  0  0  0  0  0  0  0  0  0  0
    0.0030   -1.2080   33.2320 N   0  0  0  0  0  0  0  0  0  0  0  0
   -0.1460   -2.5230   32.9990 N   0  0  0  0  0  0  0  0  0  0  0  0
    0.9640   -3.1260   32.5100 C   0  0  0  0  0  0  0  0  0  0  0  0
    6.0060   -0.6250   30.3220 C   0  0  0  0  0  0  0  0  0  0  0  0
    7.2970   -0.8870   29.7600 C   0  0  0  0  0  0  0  0  0  0  0  0
    7.4590   -2.1410   29.0420 N   0  0  0  0  0  0  0  0  0  0  0  0
    8.1210   -4.9580   28.1960 C   0  0  0  0  0  0  0  0  0  0  0  0
    8.5750   -5.4580   26.9590 C   0  0  0  0  0  0  0  0  0  0  0  0
    8.4310   -4.5840   25.8900 C   0  0  0  0  0  0  0  0  0  0  0  0
    7.4730   -3.6100   26.0340 C   0  0  0  0  0  0  0  0  0  0  0  0
    6.3180   -4.0750   26.6640 C   0  0  0  0  0  0  0  0  0  0  0  0
    5.3600   -7.0440   30.5190 C   0  0  0  0  0  0  0  0  0  0  0  0
    3.9940   -7.4010   30.1960 C   0  0  0  0  0  0  0  0  0  0  0  0
    3.2190   -7.8320   31.2230 C   0  0  0  0  0  0  0  0  0  0  0  0
    3.7400   -7.9070   32.4620 C   0  0  0  0  0  0  0  0  0  0  0  0
    5.1120   -7.5400   32.7270 C   0  0  0  0  0  0  0  0  0  0  0  0
    5.9320   -7.1090   31.7670 N   0  0  0  0  0  0  0  0  0  0  0  0
  1  2  3  0
  3  2  1  0
  3  4  1  0
  4  5  2  0
  5  6  1  0
  6  7  1  0
  7  8  1  0
  8  9  1  0
  9 10  1  0
 10 11  2  0
 11 12  1  0
  9 13  2  0
 12 13  1  0
  6 14  2  0
 14 15  1  0
  4 16  1  0
 15 16  2  0
  3 17  1  0
 17 18  1  0
 18 19  1  0
 19 20  1  0
  3 21  1  0
 20 21  1  0
  1 22  1  0
 22 23  2  0
 23 24  1  0
 24 25  2  0
 25 26  1  0
 22 27  1  0
 26 27  2  0
M  END
