WAR-XCH-b6889685-51
     RDKit          3D

 34 38  0  0  0  0  0  0  0  0999 V2000
    8.8470    5.6580   23.1390 N   0  0  0  0  0  0  0  0  0  0  0  0
   10.3720    5.2570   23.7130 S   0  0  0  0  0  0  0  0  0  0  0  0
   11.2840    6.0280   22.8940 O   0  0  0  0  0  0  0  0  0  0  0  0
   10.2840    5.4710   25.1430 O   0  0  0  0  0  0  0  0  0  0  0  0
   10.5100    3.4860   23.3580 C   0  0  0  0  0  0  0  0  0  0  0  0
   10.8230    2.0230   23.0350 C   0  0  0  0  0  0  0  0  0  0  0  0
   12.0740    1.3320   22.7310 C   0  0  0  0  0  0  0  0  0  0  0  0
   12.9660    2.2380   22.7540 C   0  0  0  0  0  0  0  0  0  0  0  0
   11.6200    2.2870   22.9790 N   0  0  0  0  0  0  0  0  0  0  0  0
   11.2850    0.8080   22.9950 C   0  0  0  0  0  0  0  0  0  0  0  0
    9.8010    0.4350   23.1750 C   0  0  0  0  0  0  0  0  0  0  0  0
    8.7940    1.6610   23.1520 C   0  0  0  0  0  0  0  0  0  0  0  0
    7.3170    1.4240   22.8390 N   0  0  0  0  0  0  0  0  0  0  0  0
    6.6800    2.1240   21.6620 C   0  0  0  0  0  0  0  0  0  0  0  0
    5.7700    1.3290   20.9390 C   0  0  0  0  0  0  0  0  0  0  0  0
    5.5210   -0.0150   21.6130 C   0  0  0  0  0  0  0  0  0  0  0  0
    6.8460   -0.7120   21.7860 C   0  0  0  0  0  0  0  0  0  0  0  0
    7.9530    0.2040   21.4600 C   0  0  0  0  0  0  0  0  0  0  0  0
    9.2410   -0.1160   21.5940 C   0  0  0  0  0  0  0  0  0  0  0  0
    9.4810   -1.4120   22.0680 C   0  0  0  0  0  0  0  0  0  0  0  0
   10.7890   -1.6200   22.2350 C   0  0  0  0  0  0  0  0  0  0  0  0
   11.5390   -2.4180   21.4560 C   0  0  0  0  0  0  0  0  0  0  0  0
   12.9860   -2.6110   21.7620 C   0  0  0  0  0  0  0  0  0  0  0  0
   13.5120   -1.9870   22.8290 C   0  0  0  0  0  0  0  0  0  0  0  0
   12.6900   -1.0900   23.6590 C   0  0  0  0  0  0  0  0  0  0  0  0
   11.3730   -0.9550   23.3080 C   0  0  0  0  0  0  0  0  0  0  0  0
    8.4610   -2.3520   22.3590 C   0  0  0  0  0  0  0  0  0  0  0  0
    7.1150   -2.0020   22.2180 C   0  0  0  0  0  0  0  0  0  0  0  0
    5.1200    0.3090   23.0660 C   0  0  0  0  0  0  0  0  0  0  0  0
    6.3510    0.8630   23.7960 C   0  0  0  0  0  0  0  0  0  0  0  0
    9.2930    2.6730   22.0840 C   0  0  0  0  0  0  0  0  0  0  0  0
   10.7070    3.2400   22.3040 C   0  0  0  0  0  0  0  0  0  0  0  0
   13.0020    3.5340   22.9720 C   0  0  0  0  0  0  0  0  0  0  0  0
   11.8070    4.1160   23.2680 C   0  0  0  0  0  0  0  0  0  0  0  0
  2  1  1  0
  2  3  2  0
  2  4  2  0
  2  5  1  0
  5  6  2  0
  6  7  1  0
  7  8  2  0
  8  9  1  0
  9 10  1  0
 10 11  1  0
 11 12  1  0
 12 13  1  0
 13 14  1  0
 14 15  1  0
 15 16  1  0
 16 17  1  0
 17 18  2  0
 18 19  1  0
 19 20  2  0
 20 21  1  0
 21 22  2  0
 22 23  1  0
 23 24  2  0
 24 25  1  0
 21 26  1  0
 25 26  2  0
 20 27  1  0
 17 28  1  0
 27 28  2  0
 16 29  1  0
 13 30  1  0
 29 30  1  0
 12 31  1  0
  9 32  1  0
 31 32  1  0
  8 33  1  0
  5 34  1  0
 33 34  2  0
M  END
