WAR-XCH-b72a1bbc-46
     RDKit          3D

 25 27  0  0  0  0  0  0  0  0999 V2000
   11.7150   -3.7610   24.8890 N   0  0  0  0  0  0  0  0  0  0  0  0
   13.2750   -3.1540   25.0230 S   0  0  0  0  0  0  0  0  0  0  0  0
   14.0600   -3.3620   23.8460 O   0  0  0  0  0  0  0  0  0  0  0  0
   13.8360   -2.9440   26.3110 O   0  0  0  0  0  0  0  0  0  0  0  0
   12.4780   -1.8320   24.5160 C   0  0  0  0  0  0  0  0  0  0  0  0
   11.0140   -1.6520   24.5440 C   0  0  0  0  0  0  0  0  0  0  0  0
   10.6190   -0.4770   24.0090 C   0  0  0  0  0  0  0  0  0  0  0  0
   11.6140    0.3540   23.5310 C   0  0  0  0  0  0  0  0  0  0  0  0
   11.5330    1.4410   22.9220 N   0  0  0  0  0  0  0  0  0  0  0  0
   10.1560    1.7740   22.8340 C   0  0  0  0  0  0  0  0  0  0  0  0
    9.5910    0.6220   23.3440 C   0  0  0  0  0  0  0  0  0  0  0  0
    9.6160   -0.4490   22.4960 C   0  0  0  0  0  0  0  0  0  0  0  0
    8.6250    0.0410   21.4740 C   0  0  0  0  0  0  0  0  0  0  0  0
    7.9090   -0.8970   20.6440 N   0  0  0  0  0  0  0  0  0  0  0  0
    6.8270   -0.1050   20.0340 C   0  0  0  0  0  0  0  0  0  0  0  0
    6.9940    0.1390   18.5670 C   0  0  0  0  0  0  0  0  0  0  0  0
    6.0720    0.8890   17.8210 C   0  0  0  0  0  0  0  0  0  0  0  0
    4.8550    1.4720   18.5380 C   0  0  0  0  0  0  0  0  0  0  0  0
    4.7410    1.1890   20.0130 C   0  0  0  0  0  0  0  0  0  0  0  0
    3.3870    1.8350   20.8560 Cl  0  0  0  0  0  0  0  0  0  0  0  0
    5.7050    0.4350   20.6750 C   0  0  0  0  0  0  0  0  0  0  0  0
   11.0940   -0.8080   22.0850 C   0  0  0  0  0  0  0  0  0  0  0  0
   12.1010    0.2330   22.3350 C   0  0  0  0  0  0  0  0  0  0  0  0
   12.9360    0.0860   23.5700 C   0  0  0  0  0  0  0  0  0  0  0  0
   13.3350   -1.0190   24.0690 C   0  0  0  0  0  0  0  0  0  0  0  0
  2  1  1  0
  2  3  2  0
  2  4  2  0
  2  5  1  0
  5  6  2  0
  6  7  1  0
  7  8  2  0
  8  9  1  0
  9 10  1  0
 10 11  1  0
 11 12  1  0
 12 13  1  0
 13 14  1  0
 14 15  1  0
 15 16  2  0
 16 17  1  0
 17 18  2  0
 18 19  1  0
 19 20  1  0
 15 21  1  0
 19 21  2  0
 12 22  1  0
  9 23  1  0
 22 23  1  0
  8 24  1  0
  5 25  1  0
 24 25  2  0
M  END
