WAR-XCH-6eb0722e-2
     RDKit          3D

 25 26  0  0  0  0  0  0  0  0999 V2000
   13.0400   -1.1640   24.6690 C   0  0  0  0  0  0  0  0  0  0  0  0
   13.0270   -2.8830   24.5800 S   0  0  0  0  0  0  0  0  0  0  0  0
   13.9190   -3.3750   25.5990 O   0  0  0  0  0  0  0  0  0  0  0  0
   11.6610   -3.3360   24.5190 O   0  0  0  0  0  0  0  0  0  0  0  0
   13.7300   -3.0800   23.0510 N   0  0  0  0  0  0  0  0  0  0  0  0
   13.2130   -2.7160   21.8450 C   0  0  0  0  0  0  0  0  0  0  0  0
   11.9590   -2.4670   21.5620 C   0  0  0  0  0  0  0  0  0  0  0  0
   10.9390   -2.2670   22.6200 C   0  0  0  0  0  0  0  0  0  0  0  0
   11.1160   -0.7880   22.7440 C   0  0  0  0  0  0  0  0  0  0  0  0
   12.5630   -0.3660   22.8080 C   0  0  0  0  0  0  0  0  0  0  0  0
   12.9260    1.1010   22.8930 C   0  0  0  0  0  0  0  0  0  0  0  0
   11.6750    2.0170   22.9040 C   0  0  0  0  0  0  0  0  0  0  0  0
   11.9490    3.7180   22.9730 Cl  0  0  0  0  0  0  0  0  0  0  0  0
   10.3480    1.6290   22.8570 C   0  0  0  0  0  0  0  0  0  0  0  0
   10.0810    0.1160   22.7640 C   0  0  0  0  0  0  0  0  0  0  0  0
    8.8350   -0.3230   22.6660 N   0  0  0  0  0  0  0  0  0  0  0  0
    8.1550    0.2180   21.5080 C   0  0  0  0  0  0  0  0  0  0  0  0
    8.4980    1.2980   20.9980 O   0  0  0  0  0  0  0  0  0  0  0  0
    7.1430   -0.5250   21.0280 N   0  0  0  0  0  0  0  0  0  0  0  0
    6.4020    0.1490   19.9920 C   0  0  0  0  0  0  0  0  0  0  0  0
    5.2040    0.7520   20.3580 C   0  0  0  0  0  0  0  0  0  0  0  0
    4.4530    1.4520   19.4250 C   0  0  0  0  0  0  0  0  0  0  0  0
    4.9410    1.5230   18.1400 C   0  0  0  0  0  0  0  0  0  0  0  0
    6.0610    0.9780   17.6800 N   0  0  0  0  0  0  0  0  0  0  0  0
    6.8230    0.2480   18.6740 C   0  0  0  0  0  0  0  0  0  0  0  0
  1  2  1  0
  2  3  2  0
  2  4  2  0
  2  5  1  0
  5  6  1  0
  6  7  1  0
  7  8  1  0
  8  9  1  0
  9 10  2  0
 10 11  1  0
 11 12  2  0
 12 13  1  0
 12 14  1  0
  9 15  1  0
 14 15  2  0
 15 16  1  0
 16 17  1  0
 17 18  2  0
 17 19  1  0
 19 20  1  0
 20 21  2  0
 21 22  1  0
 22 23  2  0
 23 24  1  0
 20 25  1  0
 24 25  2  0
M  END
