WAR-XCH-bdd24732-41
     RDKit          3D

 32 35  0  0  0  0  0  0  0  0999 V2000
    4.8850   -3.0630   29.9010 O   0  0  0  0  0  0  0  0  0  0  0  0
    5.5000   -2.0880   29.0350 S   0  0  0  0  0  0  0  0  0  0  0  0
    4.6700   -1.2560   28.1910 O   0  0  0  0  0  0  0  0  0  0  0  0
    6.3320   -0.9810   30.1510 C   0  0  0  0  0  0  0  0  0  0  0  0
    7.7840   -0.7940   30.1650 C   0  0  0  0  0  0  0  0  0  0  0  0
    8.4580    0.0650   31.0320 C   0  0  0  0  0  0  0  0  0  0  0  0
    7.7150    0.8080   31.9610 C   0  0  0  0  0  0  0  0  0  0  0  0
    6.3090    0.6880   32.0140 C   0  0  0  0  0  0  0  0  0  0  0  0
    5.5960    1.4010   32.9050 F   0  0  0  0  0  0  0  0  0  0  0  0
    5.5900   -0.2450   31.0700 C   0  0  0  0  0  0  0  0  0  0  0  0
    6.7400   -2.7800   28.0920 N   0  0  0  0  0  0  0  0  0  0  0  0
    7.0320   -2.0230   26.9540 C   0  0  1  0  0  0  0  0  0  0  0  0
    8.1890   -2.3180   25.9850 C   0  0  0  0  0  0  0  0  0  0  0  0
    8.0230   -1.9690   24.5360 C   0  0  0  0  0  0  0  0  0  0  0  0
    6.8540   -1.4070   24.2090 C   0  0  2  0  0  0  0  0  0  0  0  0
    6.9390   -0.0000   24.4040 O   0  0  0  0  0  0  0  0  0  0  0  0
    5.7100   -1.8940   24.8170 C   0  0  0  0  0  0  0  0  0  0  0  0
    5.7090   -1.7020   26.2040 C   0  0  0  0  0  0  0  0  0  0  0  0
    6.7280   -4.2450   28.0630 C   0  0  0  0  0  0  0  0  0  0  0  0
    5.8770   -4.8970   28.9700 C   0  0  0  0  0  0  0  0  0  0  0  0
    5.8620   -6.2750   29.0710 C   0  0  0  0  0  0  0  0  0  0  0  0
    4.9220   -6.8760   29.9310 C   0  0  0  0  0  0  0  0  0  0  0  0
    5.2680   -7.2750   31.2280 C   0  0  0  0  0  0  0  0  0  0  0  0
    4.1910   -7.9010   32.0720 C   0  0  0  0  0  0  0  0  0  0  0  0
    2.9230   -8.0420   31.4990 C   0  0  0  0  0  0  0  0  0  0  0  0
    2.7160   -7.6010   30.1860 C   0  0  0  0  0  0  0  0  0  0  0  0
    3.6760   -7.0310   29.4080 N   0  0  0  0  0  0  0  0  0  0  0  0
    8.1300   -4.9010   28.2430 C   0  0  0  0  0  0  0  0  0  0  0  0
    8.6340   -5.5850   27.1320 C   0  0  0  0  0  0  0  0  0  0  0  0
    8.4420   -4.9690   25.9080 C   0  0  0  0  0  0  0  0  0  0  0  0
    7.2160   -4.2960   25.6440 C   0  0  0  0  0  0  0  0  0  0  0  0
    6.2680   -4.6000   26.6170 C   0  0  0  0  0  0  0  0  0  0  0  0
  1  2  2  0
  2  3  2  0
  2  4  1  0
  4  5  2  0
  5  6  1  0
  6  7  2  0
  7  8  1  0
  8  9  1  0
  4 10  1  0
  8 10  2  0
  2 11  1  0
 12 11  1  1
 12 13  1  0
 13 14  1  0
 14 15  1  0
 15 16  1  1
 15 17  1  0
 12 18  1  0
 17 18  1  0
 11 19  1  0
 19 20  1  0
 20 21  3  0
 21 22  1  0
 22 23  2  0
 23 24  1  0
 24 25  2  0
 25 26  1  0
 22 27  1  0
 26 27  2  0
 19 28  1  0
 28 29  1  0
 29 30  1  0
 30 31  1  0
 19 32  1  0
 31 32  1  0
M  END
