WAR-XCH-bdd24732-28
     RDKit          3D

 26 29  0  0  0  0  0  0  0  0999 V2000
    3.8950   -4.3630   26.6700 O   0  0  0  0  0  0  0  0  0  0  0  0
    4.7450   -3.6510   26.1280 C   0  0  0  0  0  0  0  0  0  0  0  0
    4.4110   -3.1110   24.7720 C   0  0  0  0  0  0  0  0  0  0  0  0
    4.7460   -3.8430   23.6080 C   0  0  0  0  0  0  0  0  0  0  0  0
    5.0070   -5.2120   23.6610 C   0  0  0  0  0  0  0  0  0  0  0  0
    5.3440   -5.8790   22.4920 C   0  0  0  0  0  0  0  0  0  0  0  0
    5.4020   -5.0950   21.2230 C   0  0  0  0  0  0  0  0  0  0  0  0
    5.1480   -3.7870   21.1170 N   0  0  0  0  0  0  0  0  0  0  0  0
    4.8300   -3.2050   22.3410 C   0  0  0  0  0  0  0  0  0  0  0  0
    6.0240   -3.2940   26.7290 N   0  0  0  0  0  0  0  0  0  0  0  0
    6.8210   -2.4190   25.8540 C   0  0  0  0  0  0  0  0  0  0  0  0
    7.0060   -3.6270   24.5790 C   0  0  0  0  0  0  0  0  0  0  0  0
    6.4210   -4.1350   25.4520 C   0  0  0  0  0  0  0  0  0  0  0  0
    6.5790   -3.0770   25.9010 C   0  0  0  0  0  0  0  0  0  0  0  0
    7.5420   -2.1100   24.6090 S   0  0  0  0  0  0  0  0  0  0  0  0
    6.0970   -2.8430   27.1980 C   0  0  0  0  0  0  0  0  0  0  0  0
    6.1070   -4.0940   27.9820 C   0  0  0  0  0  0  0  0  0  0  0  0
    5.8920   -5.3490   27.3140 C   0  0  0  0  0  0  0  0  0  0  0  0
    5.8330   -5.3020   25.9190 C   0  0  0  0  0  0  0  0  0  0  0  0
    5.9090   -2.7990   28.0800 C   0  0  1  0  0  0  0  0  0  0  0  0
    6.8050   -1.7670   28.4700 C   0  0  0  0  0  0  0  0  0  0  0  0
    6.1090   -0.6120   29.1610 C   0  0  0  0  0  0  0  0  0  0  0  0
    5.1630   -0.9960   30.1300 C   0  0  1  0  0  0  0  0  0  0  0  0
    4.3750   -0.0510   30.1890 O   0  0  0  0  0  0  0  0  0  0  0  0
    4.3570   -2.0910   29.7840 C   0  0  0  0  0  0  0  0  0  0  0  0
    4.5630   -2.5100   28.4610 C   0  0  0  0  0  0  0  0  0  0  0  0
  1  2  2  0
  2  3  1  0
  3  4  1  0
  4  5  2  0
  5  6  1  0
  6  7  2  0
  7  8  1  0
  4  9  1  0
  8  9  2  0
  2 10  1  0
 10 11  1  0
 11 12  2  0
 12 13  1  0
 13 14  2  0
 11 15  1  0
 14 15  1  0
 14 16  1  0
 16 17  1  0
 17 18  1  0
 13 19  1  0
 18 19  1  0
 20 10  1  6
 20 21  1  0
 21 22  1  0
 22 23  1  0
 23 24  1  6
 23 25  1  0
 20 26  1  0
 25 26  1  0
M  END
