WAR-XCH-b72a1bbc-30
     RDKit          3D

 29 32  0  0  0  0  0  0  0  0999 V2000
    8.5690    5.8150   22.5830 N   0  0  0  0  0  0  0  0  0  0  0  0
   10.0880    5.6730   23.2690 S   0  0  0  0  0  0  0  0  0  0  0  0
   10.9920    6.4320   22.4420 O   0  0  0  0  0  0  0  0  0  0  0  0
    9.9120    5.9550   24.6780 O   0  0  0  0  0  0  0  0  0  0  0  0
   10.4400    3.9560   23.0760 C   0  0  0  0  0  0  0  0  0  0  0  0
    9.4220    2.9940   23.0630 C   0  0  0  0  0  0  0  0  0  0  0  0
    9.7460    1.6290   22.9400 C   0  0  0  0  0  0  0  0  0  0  0  0
   11.0770    1.2460   22.8410 C   0  0  0  0  0  0  0  0  0  0  0  0
   11.5010   -0.0550   22.7570 N   0  0  0  0  0  0  0  0  0  0  0  0
   10.6980   -1.2360   23.0310 C   0  0  0  0  0  0  0  0  0  0  0  0
   11.5440   -2.4380   22.5920 C   0  0  0  0  0  0  0  0  0  0  0  0
   12.9920   -2.1110   22.8490 C   0  0  0  0  0  0  0  0  0  0  0  0
   14.0210   -3.2430   22.9390 C   0  0  0  0  0  0  0  0  0  0  0  0
   14.9860   -4.2730   21.9190 N   0  0  0  0  0  0  0  0  0  0  0  0
   16.0950   -5.0150   22.2780 C   0  0  0  0  0  0  0  0  0  0  0  0
   15.8990   -5.4630   20.9660 C   0  0  0  0  0  0  0  0  0  0  0  0
   17.0800   -5.2900   20.2340 C   0  0  0  0  0  0  0  0  0  0  0  0
   17.4370   -4.0170   20.2860 C   0  0  2  0  0  0  0  0  0  0  0  0
   18.6320   -3.2060   21.2170 C   0  0  0  0  0  0  0  0  0  0  0  0
   18.5790   -3.0370   22.5320 C   0  0  0  0  0  0  0  0  0  0  0  0
   19.5890   -2.1880   23.1770 C   0  0  0  0  0  0  0  0  0  0  0  0
   20.4350   -1.6750   22.3060 C   0  0  0  0  0  0  0  0  0  0  0  0
   21.9030   -0.5400   22.7470 Br  0  0  0  0  0  0  0  0  0  0  0  0
   20.0110   -2.1510   20.7880 S   0  0  0  0  0  0  0  0  0  0  0  0
   15.8180   -4.4150   20.6330 C   0  0  0  0  0  0  0  0  0  0  0  0
   12.8340   -1.4170   24.1550 C   0  0  0  0  0  0  0  0  0  0  0  0
   12.5930   -0.0300   23.6580 C   0  0  0  0  0  0  0  0  0  0  0  0
   12.0480    2.2380   22.8380 C   0  0  0  0  0  0  0  0  0  0  0  0
   11.7520    3.5780   22.9460 C   0  0  0  0  0  0  0  0  0  0  0  0
  2  1  1  0
  2  3  2  0
  2  4  2  0
  2  5  1  0
  5  6  2  0
  6  7  1  0
  7  8  2  0
  8  9  1  0
  9 10  1  0
 10 11  1  0
 11 12  1  0
 12 13  1  0
 13 14  1  0
 14 15  1  0
 15 16  1  0
 16 17  1  0
 17 18  1  0
 18 19  1  1
 19 20  2  0
 20 21  1  0
 21 22  2  0
 22 23  1  0
 19 24  1  0
 22 24  1  0
 14 25  1  0
 18 25  1  0
 12 26  1  0
  9 27  1  0
 26 27  1  0
  8 28  1  0
  5 29  1  0
 28 29  2  0
M  END
