WAR-XCH-bdd24732-31
     RDKit          3D

 26 29  0  0  0  0  0  0  0  0999 V2000
    9.0000   -1.6550   24.4940 O   0  0  0  0  0  0  0  0  0  0  0  0
    8.7840   -2.6710   23.5020 S   0  0  0  0  0  0  0  0  0  0  0  0
    9.8460   -3.0570   22.6010 O   0  0  0  0  0  0  0  0  0  0  0  0
    7.5880   -1.8830   22.4410 C   0  0  0  0  0  0  0  0  0  0  0  0
    6.0960   -1.8820   22.3680 C   0  0  0  0  0  0  0  0  0  0  0  0
    5.6380   -1.0810   21.3290 C   0  0  0  0  0  0  0  0  0  0  0  0
    6.6560   -0.4780   20.6140 C   0  0  0  0  0  0  0  0  0  0  0  0
    6.4830    0.5740   19.2720 Cl  0  0  0  0  0  0  0  0  0  0  0  0
    8.2110   -0.8700   21.1940 S   0  0  0  0  0  0  0  0  0  0  0  0
    8.0950   -4.0860   24.2220 N   0  0  0  0  0  0  0  0  0  0  0  0
    8.9440   -4.8530   24.9820 C   0  0  0  0  0  0  0  0  0  0  0  0
    9.5320   -5.5440   25.9710 C   0  0  0  0  0  0  0  0  0  0  0  0
    8.5410   -5.1570   26.6070 C   0  0  0  0  0  0  0  0  0  0  0  0
    8.1610   -5.3850   27.8560 C   0  0  0  0  0  0  0  0  0  0  0  0
    7.6920   -4.5610   26.3550 S   0  0  0  0  0  0  0  0  0  0  0  0
    6.9430   -4.8950   28.5450 C   0  0  0  0  0  0  0  0  0  0  0  0
    6.5060   -3.6620   28.0590 C   0  0  0  0  0  0  0  0  0  0  0  0
    7.0610   -3.2500   26.8420 C   0  0  0  0  0  0  0  0  0  0  0  0
    7.5280   -4.2560   25.9540 C   0  0  0  0  0  0  0  0  0  0  0  0
    7.2040   -4.9400   23.3720 C   0  0  2  0  0  0  0  0  0  0  0  0
    7.0500   -4.5310   21.9320 C   0  0  0  0  0  0  0  0  0  0  0  0
    5.6660   -4.3040   21.3060 C   0  0  0  0  0  0  0  0  0  0  0  0
    5.7920   -5.7720   21.6950 C   0  0  1  0  0  0  0  0  0  0  0  0
    7.1610   -6.1690   21.5470 O   0  0  0  0  0  0  0  0  0  0  0  0
    5.3540   -6.0660   23.0030 C   0  0  0  0  0  0  0  0  0  0  0  0
    6.0150   -5.3350   23.9730 C   0  0  0  0  0  0  0  0  0  0  0  0
  1  2  2  0
  2  3  2  0
  2  4  1  0
  4  5  2  0
  5  6  1  0
  6  7  2  0
  7  8  1  0
  4  9  1  0
  7  9  1  0
  2 10  1  0
 10 11  1  0
 11 12  2  0
 12 13  1  0
 13 14  2  0
 11 15  1  0
 14 15  1  0
 14 16  1  0
 16 17  1  0
 17 18  1  0
 13 19  1  0
 18 19  1  0
 20 10  1  1
 20 21  1  0
 21 22  1  0
 22 23  1  0
 23 24  1  1
 23 25  1  0
 20 26  1  0
 25 26  1  0
M  END
