WAR-XCH-bdd24732-3
     RDKit          3D

 24 26  0  0  0  0  0  0  0  0999 V2000
    7.9970   -3.2000   23.4740 C   0  0  0  0  0  0  0  0  0  0  0  0
    6.6420   -3.3220   23.9060 O   0  0  0  0  0  0  0  0  0  0  0  0
    6.4490   -3.7840   25.1790 C   0  0  0  0  0  0  0  0  0  0  0  0
    6.1390   -5.1300   25.4190 C   0  0  0  0  0  0  0  0  0  0  0  0
    5.9460   -5.5740   26.8310 C   0  0  0  0  0  0  0  0  0  0  0  0
    6.0400   -4.7750   27.9380 C   0  0  0  0  0  0  0  0  0  0  0  0
    5.8020   -5.3900   29.2780 C   0  0  0  0  0  0  0  0  0  0  0  0
    4.8690   -6.3570   29.3080 C   0  0  0  0  0  0  0  0  0  0  0  0
    3.9340   -6.3610   30.4940 C   0  0  0  0  0  0  0  0  0  0  0  0
    3.5670   -5.1460   31.2970 C   0  0  0  0  0  0  0  0  0  0  0  0
    2.6100   -5.3530   32.4630 C   0  0  0  0  0  0  0  0  0  0  0  0
    2.0930   -6.5730   32.7920 N   0  0  0  0  0  0  0  0  0  0  0  0
    2.4240   -7.6930   32.0570 C   0  0  0  0  0  0  0  0  0  0  0  0
    1.8660   -8.9250   32.4420 C   0  0  0  0  0  0  0  0  0  0  0  0
    2.4870   -9.5480   33.2940 O   0  0  0  0  0  0  0  0  0  0  0  0
    0.7090   -9.4280   31.9360 N   0  0  0  0  0  0  0  0  0  0  0  0
   -0.0050   -8.6500   30.8860 C   0  0  0  0  0  0  0  0  0  0  0  0
   -0.9880   -9.3710   30.2060 C   0  0  0  0  0  0  0  0  0  0  0  0
   -2.0740  -10.2870   31.3570 S   0  0  0  0  0  0  0  0  0  0  0  0
   -0.8230  -11.0770   32.4420 C   0  0  0  0  0  0  0  0  0  0  0  0
    0.4770  -10.8900   31.9650 C   0  0  0  0  0  0  0  0  0  0  0  0
    3.2920   -7.6770   30.9480 C   0  0  0  0  0  0  0  0  0  0  0  0
    6.3480   -3.4330   27.7390 C   0  0  0  0  0  0  0  0  0  0  0  0
    6.5570   -2.9380   26.2990 C   0  0  0  0  0  0  0  0  0  0  0  0
  1  2  1  0
  2  3  1  0
  3  4  2  0
  4  5  1  0
  5  6  2  0
  6  7  1  0
  7  8  1  0
  8  9  1  0
  9 10  2  0
 10 11  1  0
 11 12  2  0
 12 13  1  0
 13 14  1  0
 14 15  2  0
 14 16  1  0
 16 17  1  0
 17 18  1  0
 18 19  1  0
 19 20  1  0
 16 21  1  0
 20 21  1  0
  9 22  1  0
 13 22  2  0
  6 23  1  0
  3 24  1  0
 23 24  2  0
M  END
