WAR-XCH-b6889685-3
     RDKit          3D

 24 26  0  0  0  0  0  0  0  0999 V2000
   11.4940    7.7260   25.0030 C   0  0  0  0  0  0  0  0  0  0  0  0
   10.9420    6.7390   24.0770 N   0  0  0  0  0  0  0  0  0  0  0  0
   11.9250    5.7710   23.6020 C   0  0  0  0  0  0  0  0  0  0  0  0
   11.3960    4.9840   22.5890 C   0  0  0  0  0  0  0  0  0  0  0  0
   12.2070    3.9880   22.1290 C   0  0  0  0  0  0  0  0  0  0  0  0
   11.8950    2.9220   23.0760 C   0  0  0  0  0  0  0  0  0  0  0  0
   10.7330    2.2570   22.6270 N   0  0  0  0  0  0  0  0  0  0  0  0
   10.9260    0.9760   22.9470 C   0  0  0  0  0  0  0  0  0  0  0  0
   12.4310    0.7860   23.0850 C   0  0  0  0  0  0  0  0  0  0  0  0
   13.2460   -0.4600   23.4630 C   0  0  0  0  0  0  0  0  0  0  0  0
   12.2090   -1.3690   23.6480 C   0  0  0  0  0  0  0  0  0  0  0  0
   12.8280   -2.8730   24.1240 S   0  0  0  0  0  0  0  0  0  0  0  0
   13.8200   -2.5660   25.4440 N   0  0  0  0  0  0  0  0  0  0  0  0
   11.7150   -3.6430   24.6120 O   0  0  0  0  0  0  0  0  0  0  0  0
   13.6930   -3.2170   23.0370 O   0  0  0  0  0  0  0  0  0  0  0  0
   10.6980   -1.3180   23.5260 C   0  0  0  0  0  0  0  0  0  0  0  0
   10.0670   -0.0420   23.1470 C   0  0  0  0  0  0  0  0  0  0  0  0
    9.5650    3.1040   22.6840 C   0  0  0  0  0  0  0  0  0  0  0  0
    9.9630    4.4250   23.0050 C   0  0  0  0  0  0  0  0  0  0  0  0
    9.6030    6.3800   24.1260 C   0  0  0  0  0  0  0  0  0  0  0  0
    8.2190    6.0930   24.0080 C   0  0  0  0  0  0  0  0  0  0  0  0
    7.3710    6.4070   22.9670 C   0  0  0  0  0  0  0  0  0  0  0  0
    8.0680    7.1200   21.9150 C   0  0  0  0  0  0  0  0  0  0  0  0
    9.6290    7.2000   22.5350 S   0  0  0  0  0  0  0  0  0  0  0  0
  1  2  1  0
  2  3  1  0
  3  4  1  0
  4  5  1  0
  5  6  1  0
  6  7  1  0
  7  8  1  0
  8  9  2  0
  9 10  1  0
 10 11  2  0
 11 12  1  0
 12 13  1  0
 12 14  2  0
 12 15  2  0
 11 16  1  0
  8 17  1  0
 16 17  2  0
  7 18  1  0
  4 19  1  0
 18 19  1  0
  2 20  1  0
 20 21  2  0
 21 22  1  0
 22 23  2  0
 20 24  1  0
 23 24  1  0
M  END
