WAR-XCH-bdd24732-46
     RDKit          3D

 29 31  0  0  0  0  0  0  0  0999 V2000
    6.0650   -5.9380   29.3480 C   0  0  0  0  0  0  0  0  0  0  0  0
    6.6980   -5.3640   28.0980 C   0  0  0  0  0  0  0  0  0  0  0  0
    8.0100   -5.6640   27.7250 C   0  0  0  0  0  0  0  0  0  0  0  0
    8.5300   -5.1290   26.5400 C   0  0  0  0  0  0  0  0  0  0  0  0
    7.7080   -4.3010   25.7600 C   0  0  0  0  0  0  0  0  0  0  0  0
    8.2750   -3.6130   24.2340 S   0  0  0  0  0  0  0  0  0  0  0  0
    7.3220   -4.0630   23.2430 O   0  0  0  0  0  0  0  0  0  0  0  0
    9.6540   -3.9050   24.1140 O   0  0  0  0  0  0  0  0  0  0  0  0
    8.1030   -1.9500   24.4410 N   0  0  0  0  0  0  0  0  0  0  0  0
    8.2010   -1.0890   23.3810 C   0  0  0  0  0  0  0  0  0  0  0  0
    8.0930    0.1220   23.5560 O   0  0  0  0  0  0  0  0  0  0  0  0
    8.4340   -1.5880   22.1070 C   0  0  2  0  0  0  0  0  0  0  0  0
    9.7890   -1.5260   21.8350 C   0  0  0  0  0  0  0  0  0  0  0  0
    7.5560   -0.8460   21.0350 C   0  0  0  0  0  0  0  0  0  0  0  0
    7.4860    0.5420   21.1060 C   0  0  0  0  0  0  0  0  0  0  0  0
    6.5980    1.1680   20.2370 C   0  0  0  0  0  0  0  0  0  0  0  0
    6.3030    0.1520   19.1260 C   0  0  0  0  0  0  0  0  0  0  0  0
    5.4700   -0.9150   19.8480 C   0  0  0  0  0  0  0  0  0  0  0  0
    6.1050   -1.3990   20.9930 C   0  0  0  0  0  0  0  0  0  0  0  0
    7.5750   -1.4930   25.7890 C   0  0  1  0  0  0  0  0  0  0  0  0
    8.5410   -0.9200   26.5860 C   0  0  0  0  0  0  0  0  0  0  0  0
    8.2210   -0.8440   27.9260 C   0  0  0  0  0  0  0  0  0  0  0  0
    6.7870   -0.3560   28.1210 C   0  0  1  0  0  0  0  0  0  0  0  0
    6.7820    0.6180   29.1660 O   0  0  0  0  0  0  0  0  0  0  0  0
    6.2220    0.2790   26.8410 C   0  0  0  0  0  0  0  0  0  0  0  0
    6.4040   -0.4960   25.6770 C   0  0  0  0  0  0  0  0  0  0  0  0
    6.4090   -3.9920   26.1370 C   0  0  0  0  0  0  0  0  0  0  0  0
    5.5490   -3.1820   25.4000 C   0  0  0  0  0  0  0  0  0  0  0  0
    5.9240   -4.5290   27.3090 C   0  0  0  0  0  0  0  0  0  0  0  0
  1  2  1  0
  2  3  2  0
  3  4  1  0
  4  5  2  0
  5  6  1  0
  6  7  2  0
  6  8  2  0
  6  9  1  0
  9 10  1  0
 10 11  2  0
 10 12  1  0
 12 13  1  6
 12 14  1  0
 14 15  1  0
 15 16  1  0
 16 17  1  0
 17 18  1  0
 14 19  1  0
 18 19  1  0
 20  9  1  6
 20 21  1  0
 21 22  1  0
 22 23  1  0
 23 24  1  1
 23 25  1  0
 20 26  1  0
 25 26  1  0
  5 27  1  0
 27 28  1  0
  2 29  1  0
 27 29  2  0
M  END
