WAR-XCH-b72a1bbc-49
     RDKit          3D

 21 22  0  0  0  0  0  0  0  0999 V2000
    9.1840    6.8760   22.4900 C   0  0  0  0  0  0  0  0  0  0  0  0
    9.9660    6.8860   23.7710 C   0  0  0  0  0  0  0  0  0  0  0  0
   11.4330    6.9560   23.5580 N   0  0  0  0  0  0  0  0  0  0  0  0
   12.0230    7.7000   24.6660 C   0  0  0  0  0  0  0  0  0  0  0  0
   12.0510    5.6320   23.3970 C   0  0  0  0  0  0  0  0  0  0  0  0
   11.0900    4.6720   23.1890 C   0  0  0  0  0  0  0  0  0  0  0  0
   11.2050    3.6660   22.2650 C   0  0  0  0  0  0  0  0  0  0  0  0
    9.7620    3.2190   22.0850 C   0  0  0  0  0  0  0  0  0  0  0  0
    9.5450    2.4130   23.2020 N   0  0  0  0  0  0  0  0  0  0  0  0
   10.4770    1.3030   23.0980 C   0  0  0  0  0  0  0  0  0  0  0  0
   12.0190    1.5560   23.0930 C   0  0  0  0  0  0  0  0  0  0  0  0
   12.9000    0.3300   22.9740 C   0  0  0  0  0  0  0  0  0  0  0  0
   12.1270   -0.9480   22.8780 C   0  0  0  0  0  0  0  0  0  0  0  0
   12.8440   -2.4750   22.7610 S   0  0  0  0  0  0  0  0  0  0  0  0
   13.1520   -2.6540   21.1370 N   0  0  0  0  0  0  0  0  0  0  0  0
   14.0210   -2.5720   23.5550 O   0  0  0  0  0  0  0  0  0  0  0  0
   11.6770   -3.2190   23.0300 O   0  0  0  0  0  0  0  0  0  0  0  0
   10.7680   -1.0650   22.8790 C   0  0  0  0  0  0  0  0  0  0  0  0
    9.9670    0.0260   22.9870 C   0  0  0  0  0  0  0  0  0  0  0  0
    9.3430    3.2930   24.3660 C   0  0  0  0  0  0  0  0  0  0  0  0
   10.3670    4.2420   24.4940 C   0  0  0  0  0  0  0  0  0  0  0  0
  1  2  1  0
  2  3  1  0
  3  4  1  0
  3  5  1  0
  5  6  1  0
  6  7  1  0
  7  8  1  0
  8  9  1  0
  9 10  1  0
 10 11  2  0
 11 12  1  0
 12 13  2  0
 13 14  1  0
 14 15  1  0
 14 16  2  0
 14 17  2  0
 13 18  1  0
 10 19  1  0
 18 19  2  0
  9 20  1  0
  6 21  1  0
 20 21  1  0
M  END
