WAR-XCH-b72a1bbc-39
     RDKit          3D

 20 21  0  0  0  0  0  0  0  0999 V2000
   13.5940   -2.8330   25.2790 C   0  0  0  0  0  0  0  0  0  0  0  0
   12.8310   -2.7480   23.9790 C   0  0  0  0  0  0  0  0  0  0  0  0
   11.0600   -3.2130   24.1030 S   0  0  0  0  0  0  0  0  0  0  0  0
   10.3530   -2.3370   22.7050 C   0  0  0  0  0  0  0  0  0  0  0  0
   11.3650   -1.2760   22.4830 C   0  0  0  0  0  0  0  0  0  0  0  0
   12.2200   -1.1870   23.7330 C   0  0  0  0  0  0  0  0  0  0  0  0
   13.2980   -0.1340   23.5620 C   0  0  0  0  0  0  0  0  0  0  0  0
   13.1340    0.7550   22.3450 N   0  0  0  0  0  0  0  0  0  0  0  0
   12.7340    2.4370   22.2270 C   0  0  0  0  0  0  0  0  0  0  0  0
   12.8970    3.1150   23.2490 C   0  0  0  0  0  0  0  0  0  0  0  0
   12.6180    4.4550   23.6490 C   0  0  0  0  0  0  0  0  0  0  0  0
   12.1160    5.2650   22.9010 C   0  0  0  0  0  0  0  0  0  0  0  0
   11.6620    6.8200   23.4900 S   0  0  0  0  0  0  0  0  0  0  0  0
   10.2400    6.9950   22.5710 N   0  0  0  0  0  0  0  0  0  0  0  0
   12.6850    7.7470   23.1500 O   0  0  0  0  0  0  0  0  0  0  0  0
   11.1590    6.6440   24.8400 O   0  0  0  0  0  0  0  0  0  0  0  0
   11.9580    4.8710   21.7300 C   0  0  0  0  0  0  0  0  0  0  0  0
   12.2230    3.5810   21.3700 C   0  0  0  0  0  0  0  0  0  0  0  0
   13.4760   -0.5460   21.5570 C   0  0  0  0  0  0  0  0  0  0  0  0
   12.4160   -1.6500   21.4950 C   0  0  0  0  0  0  0  0  0  0  0  0
  1  2  1  0
  2  3  1  0
  3  4  1  0
  4  5  1  0
  5  6  1  0
  6  7  1  0
  7  8  1  0
  8  9  1  0
  9 10  2  0
 10 11  1  0
 11 12  2  0
 12 13  1  0
 13 14  1  0
 13 15  2  0
 13 16  2  0
 12 17  1  0
  9 18  1  0
 17 18  2  0
  8 19  1  0
  5 20  1  0
 19 20  1  0
M  END
