WAR-XCH-e55cba98-5
     RDKit          3D

 30 33  0  0  0  0  0  0  0  0999 V2000
    6.8070   -0.6900   18.7960 C   0  0  0  0  0  0  0  0  0  0  0  0
    7.0560   -0.0120   20.1200 C   0  0  0  0  0  0  0  0  0  0  0  0
    6.3280    0.8970   20.4960 O   0  0  0  0  0  0  0  0  0  0  0  0
    8.1560   -0.5230   20.7970 N   0  0  0  0  0  0  0  0  0  0  0  0
    8.8010    0.1440   21.8750 C   0  0  0  0  0  0  0  0  0  0  0  0
   10.0790   -0.2510   22.3920 C   0  0  0  0  0  0  0  0  0  0  0  0
   10.7920    0.7640   23.1140 C   0  0  0  0  0  0  0  0  0  0  0  0
   10.2350    0.8840   24.3360 C   0  0  0  0  0  0  0  0  0  0  0  0
    9.8680   -0.1090   23.3380 N   0  0  0  0  0  0  0  0  0  0  0  0
   10.7880    0.3410   22.4410 C   0  0  0  0  0  0  0  0  0  0  0  0
   10.9790    0.7650   23.7090 C   0  0  0  0  0  0  0  0  0  0  0  0
   10.6160   -0.4940   24.5490 C   0  0  0  0  0  0  0  0  0  0  0  0
    9.5760   -0.2840   25.6140 C   0  0  0  0  0  0  0  0  0  0  0  0
    8.4930   -0.1420   26.5830 C   0  0  0  0  0  0  0  0  0  0  0  0
    7.1440   -0.3310   26.2330 C   0  0  1  0  0  0  0  0  0  0  0  0
    6.3770   -1.4770   26.9050 C   0  0  0  0  0  0  0  0  0  0  0  0
    4.8920   -1.4920   26.5450 C   0  0  0  0  0  0  0  0  0  0  0  0
    4.2330   -0.1410   26.8120 C   0  0  0  0  0  0  0  0  0  0  0  0
    4.9560    0.9610   26.1830 N   0  0  0  0  0  0  0  0  0  0  0  0
    6.3930    0.9900   26.4870 C   0  0  0  0  0  0  0  0  0  0  0  0
   10.0450   -1.6840   23.6930 C   0  0  0  0  0  0  0  0  0  0  0  0
   11.0330   -2.5630   23.1520 C   0  0  0  0  0  0  0  0  0  0  0  0
   12.3720   -1.9210   22.7850 C   0  0  0  0  0  0  0  0  0  0  0  0
   13.0010   -1.2150   23.9640 C   0  0  0  0  0  0  0  0  0  0  0  0
   11.9770   -1.0370   25.0770 C   0  0  0  0  0  0  0  0  0  0  0  0
   11.5520    1.8280   23.6540 C   0  0  0  0  0  0  0  0  0  0  0  0
   11.7370    2.9910   23.2650 C   0  0  0  0  0  0  0  0  0  0  0  0
   12.4860    4.1010   23.1630 F   0  0  0  0  0  0  0  0  0  0  0  0
   12.8510    2.7420   22.9330 C   0  0  0  0  0  0  0  0  0  0  0  0
   11.9460    1.4320   22.4880 C   0  0  0  0  0  0  0  0  0  0  0  0
  1  2  1  0
  2  3  2  0
  2  4  1  0
  4  5  1  0
  5  6  1  0
  6  7  1  0
  7  8  2  0
  8  9  1  0
  9 10  1  0
 10 11  1  0
 11 12  1  0
 12 13  1  0
 13 14  3  0
 15 14  1  1
 15 16  1  0
 16 17  1  0
 17 18  1  0
 18 19  1  0
 15 20  1  0
 19 20  1  0
 12 21  1  0
 21 22  1  0
 22 23  1  0
 23 24  1  0
 12 25  1  0
 24 25  1  0
 11 26  2  0
 26 27  1  0
 27 28  1  0
 27 29  2  0
  7 30  1  0
 10 30  2  0
 29 30  1  0
M  END
