WAR-XCH-bdd24732-40
     RDKit          3D

 26 28  0  0  0  0  0  0  0  0999 V2000
    7.3450   -1.7550   21.8150 O   0  0  0  0  0  0  0  0  0  0  0  0
    8.1790   -1.9420   22.6940 C   0  0  0  0  0  0  0  0  0  0  0  0
    9.6560   -1.9070   22.4030 C   0  0  0  0  0  0  0  0  0  0  0  0
   10.5110   -1.3200   23.1120 C   0  0  0  0  0  0  0  0  0  0  0  0
   12.0470   -1.2450   22.7980 C   0  0  0  0  0  0  0  0  0  0  0  0
   12.7380   -1.8180   21.6950 C   0  0  0  0  0  0  0  0  0  0  0  0
   11.7590   -2.5000   20.9150 C   0  0  0  0  0  0  0  0  0  0  0  0
   10.2120   -2.5000   21.3490 C   0  0  0  0  0  0  0  0  0  0  0  0
    7.9260   -2.1830   24.1280 N   0  0  0  0  0  0  0  0  0  0  0  0
    7.8490   -3.5150   24.6730 C   0  0  1  0  0  0  0  0  0  0  0  0
    8.3910   -4.4440   23.9310 C   0  0  0  0  0  0  0  0  0  0  0  0
    7.9240   -5.7840   24.4810 C   0  0  0  0  0  0  0  0  0  0  0  0
    8.5210   -5.9570   25.8620 C   0  0  1  0  0  0  0  0  0  0  0  0
    9.6140   -6.5110   25.9440 O   0  0  0  0  0  0  0  0  0  0  0  0
    8.8570   -4.7730   26.3650 C   0  0  0  0  0  0  0  0  0  0  0  0
    8.2540   -3.5720   25.9740 C   0  0  0  0  0  0  0  0  0  0  0  0
    7.0410   -1.2570   25.2130 S   0  0  0  0  0  0  0  0  0  0  0  0
    7.9050   -0.2310   25.7380 O   0  0  0  0  0  0  0  0  0  0  0  0
    5.6540   -1.0730   24.8800 O   0  0  0  0  0  0  0  0  0  0  0  0
    7.0340   -2.6050   26.3930 C   0  0  0  0  0  0  0  0  0  0  0  0
    6.1110   -3.6790   26.3670 C   0  0  0  0  0  0  0  0  0  0  0  0
    6.1210   -4.7770   27.2510 C   0  0  0  0  0  0  0  0  0  0  0  0
    7.1700   -4.8780   28.3200 C   0  0  0  0  0  0  0  0  0  0  0  0
    8.1560   -3.7260   28.3660 C   0  0  0  0  0  0  0  0  0  0  0  0
    8.0170   -2.5670   27.3400 C   0  0  0  0  0  0  0  0  0  0  0  0
    8.8620   -1.5180   27.3680 F   0  0  0  0  0  0  0  0  0  0  0  0
  1  2  2  0
  2  3  1  0
  3  4  2  0
  4  5  1  0
  5  6  2  0
  6  7  1  0
  3  8  1  0
  7  8  2  0
  2  9  1  0
 10  9  1  6
 10 11  1  0
 11 12  1  0
 12 13  1  0
 13 14  1  6
 13 15  1  0
 10 16  1  0
 15 16  1  0
 17  9  1  0
 17 18  2  0
 17 19  2  0
 17 20  1  0
 20 21  2  0
 21 22  1  0
 22 23  2  0
 23 24  1  0
 20 25  1  0
 24 25  2  0
 25 26  1  0
M  END
