WAR-XCH-b6889685-12
     RDKit          3D

 28 31  0  0  0  0  0  0  0  0999 V2000
    8.8010    5.8930   22.4900 N   0  0  0  0  0  0  0  0  0  0  0  0
   10.3260    5.8430   23.1740 S   0  0  0  0  0  0  0  0  0  0  0  0
   11.2380    6.4910   22.2780 O   0  0  0  0  0  0  0  0  0  0  0  0
   10.1540    6.2730   24.5450 O   0  0  0  0  0  0  0  0  0  0  0  0
   10.6930    4.1300   23.1960 C   0  0  0  0  0  0  0  0  0  0  0  0
    9.6730    3.2360   23.4990 C   0  0  0  0  0  0  0  0  0  0  0  0
    9.9540    1.8860   23.5850 C   0  0  0  0  0  0  0  0  0  0  0  0
   11.2340    1.4230   23.3630 C   0  0  0  0  0  0  0  0  0  0  0  0
   11.4520    0.0880   23.5060 N   0  0  0  0  0  0  0  0  0  0  0  0
   12.8180   -0.1990   23.8310 C   0  0  0  0  0  0  0  0  0  0  0  0
   13.0830   -1.5680   23.3490 C   0  0  0  0  0  0  0  0  0  0  0  0
   11.7600   -2.2760   23.3810 C   0  0  0  0  0  0  0  0  0  0  0  0
   10.6620   -2.1130   22.3040 C   0  0  0  0  0  0  0  0  0  0  0  0
   11.1020   -2.3410   20.9800 N   0  0  0  0  0  0  0  0  0  0  0  0
   11.4400   -3.6210   20.4270 C   0  0  0  0  0  0  0  0  0  0  0  0
   12.6950   -4.0820   21.0550 C   0  0  0  0  0  0  0  0  0  0  0  0
   13.6620   -3.4960   20.4230 C   0  0  0  0  0  0  0  0  0  0  0  0
   14.9150   -4.2690   20.5440 C   0  0  0  0  0  0  0  0  0  0  0  0
   15.5350   -4.7160   21.7720 C   0  0  0  0  0  0  0  0  0  0  0  0
   16.5260   -5.2900   21.7720 C   0  0  0  0  0  0  0  0  0  0  0  0
   16.8990   -5.3080   20.2550 S   0  0  0  0  0  0  0  0  0  0  0  0
   15.7670   -4.5720   19.6520 C   0  0  0  0  0  0  0  0  0  0  0  0
   13.5140   -2.1000   20.9780 C   0  0  0  0  0  0  0  0  0  0  0  0
   12.2330   -1.5490   20.8810 C   0  0  0  0  0  0  0  0  0  0  0  0
   11.0800   -1.9380   24.6760 C   0  0  0  0  0  0  0  0  0  0  0  0
   10.5690   -0.5220   24.5160 C   0  0  0  0  0  0  0  0  0  0  0  0
   12.2400    2.3250   23.0190 C   0  0  0  0  0  0  0  0  0  0  0  0
   11.9830    3.6850   22.9330 C   0  0  0  0  0  0  0  0  0  0  0  0
  2  1  1  0
  2  3  2  0
  2  4  2  0
  2  5  1  0
  5  6  2  0
  6  7  1  0
  7  8  2  0
  8  9  1  0
  9 10  1  0
 10 11  1  0
 11 12  1  0
 12 13  1  0
 13 14  1  0
 14 15  1  0
 15 16  1  0
 16 17  1  0
 17 18  1  0
 18 19  1  0
 19 20  2  0
 20 21  1  0
 18 22  2  0
 21 22  1  0
 17 23  1  0
 14 24  1  0
 23 24  1  0
 12 25  1  0
  9 26  1  0
 25 26  1  0
  8 27  1  0
  5 28  1  0
 27 28  2  0
M  END
