WAR-XCH-b72a1bbc-40
     RDKit          3D

 24 26  0  0  0  0  0  0  0  0999 V2000
    8.8530    5.0140   22.4790 N   0  0  0  0  0  0  0  0  0  0  0  0
   10.3320    5.1090   23.2660 S   0  0  0  0  0  0  0  0  0  0  0  0
   11.2030    6.0100   22.5520 O   0  0  0  0  0  0  0  0  0  0  0  0
    9.9970    5.3440   24.6550 O   0  0  0  0  0  0  0  0  0  0  0  0
   10.9930    3.4590   23.1290 C   0  0  0  0  0  0  0  0  0  0  0  0
   10.1480    2.2170   23.1750 C   0  0  0  0  0  0  0  0  0  0  0  0
   10.7600    0.9360   23.1270 C   0  0  0  0  0  0  0  0  0  0  0  0
   12.1610    0.8320   23.0360 C   0  0  0  0  0  0  0  0  0  0  0  0
   12.9120   -0.3710   23.0580 N   0  0  0  0  0  0  0  0  0  0  0  0
   12.8370   -1.3170   24.1640 C   0  0  0  0  0  0  0  0  0  0  0  0
   11.5830   -1.9120   24.0050 C   0  0  0  0  0  0  0  0  0  0  0  0
   11.0430   -1.6080   22.5840 C   0  0  0  0  0  0  0  0  0  0  0  0
    9.7080   -2.3000   22.2720 C   0  0  0  0  0  0  0  0  0  0  0  0
    9.0830   -3.3010   23.6400 S   0  0  0  0  0  0  0  0  0  0  0  0
    7.4300   -3.6720   23.2780 C   0  0  0  0  0  0  0  0  0  0  0  0
    6.3930   -2.7600   22.6220 C   0  0  0  0  0  0  0  0  0  0  0  0
    5.1030   -3.5440   22.5410 C   0  0  0  0  0  0  0  0  0  0  0  0
    5.2050   -4.8290   23.0630 C   0  0  0  0  0  0  0  0  0  0  0  0
    3.9610   -6.0060   23.1520 Cl  0  0  0  0  0  0  0  0  0  0  0  0
    6.7510   -5.2070   23.6580 S   0  0  0  0  0  0  0  0  0  0  0  0
   12.1760   -1.9800   21.6380 C   0  0  0  0  0  0  0  0  0  0  0  0
   13.2370   -1.1490   21.8930 C   0  0  0  0  0  0  0  0  0  0  0  0
   12.8830    2.0170   22.9450 C   0  0  0  0  0  0  0  0  0  0  0  0
   12.3510    3.3020   22.9870 C   0  0  0  0  0  0  0  0  0  0  0  0
  2  1  1  0
  2  3  2  0
  2  4  2  0
  2  5  1  0
  5  6  2  0
  6  7  1  0
  7  8  2  0
  8  9  1  0
  9 10  1  0
 10 11  1  0
 11 12  1  0
 12 13  1  0
 13 14  1  0
 14 15  1  0
 15 16  2  0
 16 17  1  0
 17 18  2  0
 18 19  1  0
 15 20  1  0
 18 20  1  0
 12 21  1  0
  9 22  1  0
 21 22  1  0
  8 23  1  0
  5 24  1  0
 23 24  2  0
M  END
