WAR-XCH-b6889685-2
     RDKit          3D

 25 27  0  0  0  0  0  0  0  0999 V2000
   11.0320    7.7120   25.5580 C   0  0  0  0  0  0  0  0  0  0  0  0
   10.3050    6.7890   24.6840 N   0  0  0  0  0  0  0  0  0  0  0  0
    9.8050    5.5860   25.3230 C   0  0  0  0  0  0  0  0  0  0  0  0
    9.2850    4.7430   24.3000 C   0  0  0  0  0  0  0  0  0  0  0  0
   10.0030    4.4540   23.1510 C   0  0  0  0  0  0  0  0  0  0  0  0
   10.7020    3.2950   23.0840 C   0  0  0  0  0  0  0  0  0  0  0  0
    9.7920    2.1740   23.0340 N   0  0  0  0  0  0  0  0  0  0  0  0
   10.5190    1.0560   23.1440 C   0  0  0  0  0  0  0  0  0  0  0  0
   11.9320    1.1880   23.0190 C   0  0  0  0  0  0  0  0  0  0  0  0
   12.8680    0.0130   23.1820 C   0  0  0  0  0  0  0  0  0  0  0  0
   12.1240   -1.2720   23.4890 C   0  0  0  0  0  0  0  0  0  0  0  0
   12.8720   -2.7540   23.7600 S   0  0  0  0  0  0  0  0  0  0  0  0
   13.1890   -2.9340   22.1230 N   0  0  0  0  0  0  0  0  0  0  0  0
   11.7840   -3.5630   24.2360 O   0  0  0  0  0  0  0  0  0  0  0  0
   14.0850   -2.5820   24.4930 O   0  0  0  0  0  0  0  0  0  0  0  0
   10.6360   -1.2770   23.5650 C   0  0  0  0  0  0  0  0  0  0  0  0
    9.8990   -0.1560   23.3970 C   0  0  0  0  0  0  0  0  0  0  0  0
    8.5620    2.3310   23.8340 C   0  0  0  0  0  0  0  0  0  0  0  0
    8.7030    3.4500   24.8860 C   0  0  0  0  0  0  0  0  0  0  0  0
   10.9990    6.2320   23.7370 C   0  0  0  0  0  0  0  0  0  0  0  0
   10.5230    5.1820   22.9750 C   0  0  0  0  0  0  0  0  0  0  0  0
   11.4350    4.6940   22.1020 C   0  0  0  0  0  0  0  0  0  0  0  0
   12.5840    5.3790   22.1890 C   0  0  0  0  0  0  0  0  0  0  0  0
   13.9040    5.0430   21.3100 Cl  0  0  0  0  0  0  0  0  0  0  0  0
   12.5970    6.6280   23.2900 S   0  0  0  0  0  0  0  0  0  0  0  0
  1  2  1  0
  2  3  1  0
  3  4  1  0
  4  5  1  0
  5  6  1  0
  6  7  1  0
  7  8  1  0
  8  9  2  0
  9 10  1  0
 10 11  2  0
 11 12  1  0
 12 13  1  0
 12 14  2  0
 12 15  2  0
 11 16  1  0
  8 17  1  0
 16 17  2  0
  7 18  1  0
  4 19  1  0
 18 19  1  0
  2 20  1  0
 20 21  2  0
 21 22  1  0
 22 23  2  0
 23 24  1  0
 20 25  1  0
 23 25  1  0
M  END
