WAR-XCH-b0339bbe-15
     RDKit          3D

 25 28  0  0  0  0  0  0  0  0999 V2000
   -0.0650   -7.1160   28.8900 O   0  0  0  0  0  0  0  0  0  0  0  0
    1.0890   -7.5480   28.1810 C   0  0  0  0  0  0  0  0  0  0  0  0
    0.8480   -8.9110   27.5870 C   0  0  0  0  0  0  0  0  0  0  0  0
    0.1160   -9.8300   28.3560 C   0  0  0  0  0  0  0  0  0  0  0  0
   -0.1280  -11.0970   27.8490 C   0  0  0  0  0  0  0  0  0  0  0  0
    0.2990  -11.5140   26.6450 N   0  0  0  0  0  0  0  0  0  0  0  0
    1.0070  -10.6170   25.9110 C   0  0  0  0  0  0  0  0  0  0  0  0
    1.3140   -9.3130   26.3180 C   0  0  0  0  0  0  0  0  0  0  0  0
    2.0960   -8.4200   25.4380 C   0  0  0  0  0  0  0  0  0  0  0  0
    3.0790   -7.6400   25.9490 C   0  0  0  0  0  0  0  0  0  0  0  0
    3.8320   -6.7650   25.0770 C   0  0  0  0  0  0  0  0  0  0  0  0
    4.7870   -6.0070   25.6190 C   0  0  0  0  0  0  0  0  0  0  0  0
    5.4010   -4.9750   24.7530 C   0  0  0  0  0  0  0  0  0  0  0  0
    6.4880   -5.1590   23.9960 C   0  0  0  0  0  0  0  0  0  0  0  0
    7.0420   -3.9950   23.1930 C   0  0  0  0  0  0  0  0  0  0  0  0
    6.5900   -2.6370   23.0680 C   0  0  0  0  0  0  0  0  0  0  0  0
    7.8530   -2.8930   22.2370 C   0  0  0  0  0  0  0  0  0  0  0  0
    7.6040   -4.0830   22.8270 C   0  0  0  0  0  0  0  0  0  0  0  0
    6.4770   -3.4480   23.4310 C   0  0  0  0  0  0  0  0  0  0  0  0
    6.1400   -1.9580   23.1580 C   0  0  0  0  0  0  0  0  0  0  0  0
    5.3400   -2.5600   23.9530 C   0  0  0  0  0  0  0  0  0  0  0  0
    4.8820   -3.7030   24.6890 C   0  0  0  0  0  0  0  0  0  0  0  0
    3.5180   -6.7610   23.7200 C   0  0  0  0  0  0  0  0  0  0  0  0
    2.4940   -7.5970   23.2940 C   0  0  0  0  0  0  0  0  0  0  0  0
    1.7850   -8.4150   24.1120 N   0  0  0  0  0  0  0  0  0  0  0  0
  1  2  1  0
  2  3  1  0
  3  4  2  0
  4  5  1  0
  5  6  2  0
  6  7  1  0
  3  8  1  0
  7  8  2  0
  8  9  1  0
  9 10  2  0
 10 11  1  0
 11 12  1  0
 12 13  1  0
 13 14  2  0
 14 15  1  0
 15 16  2  0
 16 17  1  0
 17 18  2  0
 18 19  1  0
 19 20  2  0
 16 21  1  0
 20 21  1  0
 13 22  1  0
 21 22  2  0
 11 23  2  0
 23 24  1  0
  9 25  1  0
 24 25  2  0
M  END
