WAR-XCH-b6889685-21
     RDKit          3D

 24 26  0  0  0  0  0  0  0  0999 V2000
    9.5470    5.4390   22.5760 N   0  0  0  0  0  0  0  0  0  0  0  0
   11.1830    5.0380   22.6660 S   0  0  0  0  0  0  0  0  0  0  0  0
   11.4720    5.1700   24.0670 O   0  0  0  0  0  0  0  0  0  0  0  0
   11.9030    5.8320   21.7360 O   0  0  0  0  0  0  0  0  0  0  0  0
   11.1880    3.2830   22.2580 C   0  0  0  0  0  0  0  0  0  0  0  0
    9.8010    2.5810   22.0110 C   0  0  0  0  0  0  0  0  0  0  0  0
    9.6640    1.1140   21.8000 C   0  0  0  0  0  0  0  0  0  0  0  0
   10.8630    0.2070   21.8210 C   0  0  0  0  0  0  0  0  0  0  0  0
   10.7580   -1.0540   21.8390 N   0  0  0  0  0  0  0  0  0  0  0  0
   12.0910   -1.4500   22.1450 C   0  0  0  0  0  0  0  0  0  0  0  0
   11.6990   -2.5860   21.7370 C   0  0  0  0  0  0  0  0  0  0  0  0
   10.2370   -2.5810   21.5440 C   0  0  0  0  0  0  0  0  0  0  0  0
    9.3900   -1.2860   21.4080 C   0  0  0  0  0  0  0  0  0  0  0  0
    8.0750   -1.4660   20.8460 O   0  0  0  0  0  0  0  0  0  0  0  0
    7.0260   -1.7340   21.6650 C   0  0  0  0  0  0  0  0  0  0  0  0
    5.7600   -2.5790   21.4700 C   0  0  0  0  0  0  0  0  0  0  0  0
    4.8960   -2.6270   22.5540 C   0  0  0  0  0  0  0  0  0  0  0  0
    5.4660   -1.7770   23.7020 C   0  0  0  0  0  0  0  0  0  0  0  0
    4.5720   -1.5790   25.3810 Br  0  0  0  0  0  0  0  0  0  0  0  0
    6.9740   -1.0140   23.3600 S   0  0  0  0  0  0  0  0  0  0  0  0
    9.6030   -2.7980   22.8020 C   0  0  0  0  0  0  0  0  0  0  0  0
    9.8060   -1.4500   22.9120 C   0  0  0  0  0  0  0  0  0  0  0  0
   12.4400    0.9630   21.9780 C   0  0  0  0  0  0  0  0  0  0  0  0
   12.4380    2.5220   22.2070 C   0  0  0  0  0  0  0  0  0  0  0  0
  2  1  1  0
  2  3  2  0
  2  4  2  0
  2  5  1  0
  5  6  2  0
  6  7  1  0
  7  8  2  0
  8  9  1  0
  9 10  1  0
 10 11  1  0
 11 12  1  0
 12 13  1  0
 13 14  1  0
 14 15  1  0
 15 16  2  0
 16 17  1  0
 17 18  2  0
 18 19  1  0
 15 20  1  0
 18 20  1  0
 12 21  1  0
  9 22  1  0
 21 22  1  0
  8 23  1  0
  5 24  1  0
 23 24  2  0
M  END
