WAR-XCH-b6889685-45
     RDKit          3D

 24 26  0  0  0  0  0  0  0  0999 V2000
   21.2390  -30.6880   14.7020 N   0  0  0  0  0  0  0  0  0  0  0  0
   19.8440  -30.0290   15.3790 S   0  0  0  0  0  0  0  0  0  0  0  0
   19.0600  -29.4660   14.3100 O   0  0  0  0  0  0  0  0  0  0  0  0
   19.3330  -31.0530   16.2660 O   0  0  0  0  0  0  0  0  0  0  0  0
   20.5070  -28.7060   16.3540 C   0  0  0  0  0  0  0  0  0  0  0  0
   21.2610  -27.7020   15.7490 C   0  0  0  0  0  0  0  0  0  0  0  0
   21.7860  -26.6590   16.5330 C   0  0  0  0  0  0  0  0  0  0  0  0
   21.5830  -26.5760   17.9270 C   0  0  0  0  0  0  0  0  0  0  0  0
   22.1110  -25.5470   18.7040 N   0  0  0  0  0  0  0  0  0  0  0  0
   21.8770  -25.5850   20.1390 C   0  0  0  0  0  0  0  0  0  0  0  0
   22.1570  -24.2600   20.8670 C   0  0  0  0  0  0  0  0  0  0  0  0
   22.5000  -23.0380   20.0010 C   0  0  0  0  0  0  0  0  0  0  0  0
   23.2890  -22.0730   20.7760 N   0  0  0  0  0  0  0  0  0  0  0  0
   23.3010  -22.1080   22.1780 C   0  0  0  0  0  0  0  0  0  0  0  0
   23.2430  -20.9220   22.9610 C   0  0  0  0  0  0  0  0  0  0  0  0
   22.6330  -20.8820   24.2280 C   0  0  0  0  0  0  0  0  0  0  0  0
   22.7000  -19.5650   24.8340 C   0  0  0  0  0  0  0  0  0  0  0  0
   23.3470  -18.6440   24.0240 C   0  0  0  0  0  0  0  0  0  0  0  0
   23.6200  -16.9940   24.3820 Cl  0  0  0  0  0  0  0  0  0  0  0  0
   23.8750  -19.3460   22.5600 S   0  0  0  0  0  0  0  0  0  0  0  0
   23.2090  -23.4660   18.7370 C   0  0  0  0  0  0  0  0  0  0  0  0
   22.2640  -24.2420   18.1270 C   0  0  0  0  0  0  0  0  0  0  0  0
   20.8140  -27.6090   18.4800 C   0  0  0  0  0  0  0  0  0  0  0  0
   20.2870  -28.6470   17.7250 C   0  0  0  0  0  0  0  0  0  0  0  0
  2  1  1  0
  2  3  2  0
  2  4  2  0
  2  5  1  0
  5  6  2  0
  6  7  1  0
  7  8  2  0
  8  9  1  0
  9 10  1  0
 10 11  1  0
 11 12  1  0
 12 13  1  0
 13 14  1  0
 14 15  1  0
 15 16  2  0
 16 17  1  0
 17 18  2  0
 18 19  1  0
 15 20  1  0
 18 20  1  0
 12 21  1  0
  9 22  1  0
 21 22  1  0
  8 23  1  0
  5 24  1  0
 23 24  2  0
M  END
