WAR-XCH-b6889685-24
     RDKit          3D

 23 25  0  0  0  0  0  0  0  0999 V2000
    8.9290    5.0590   22.5610 N   0  0  0  0  0  0  0  0  0  0  0  0
   10.3350    5.2170   23.4630 S   0  0  0  0  0  0  0  0  0  0  0  0
   11.2130    6.0640   22.6940 O   0  0  0  0  0  0  0  0  0  0  0  0
    9.9420    5.5810   24.8080 O   0  0  0  0  0  0  0  0  0  0  0  0
   11.0090    3.5600   23.4760 C   0  0  0  0  0  0  0  0  0  0  0  0
   10.2330    2.4040   24.0450 C   0  0  0  0  0  0  0  0  0  0  0  0
   10.8420    1.1260   24.0620 C   0  0  0  0  0  0  0  0  0  0  0  0
   12.1320    0.9130   23.5670 C   0  0  0  0  0  0  0  0  0  0  0  0
   12.8030   -0.3460   23.5940 N   0  0  0  0  0  0  0  0  0  0  0  0
   12.6260   -1.2070   24.7690 C   0  0  0  0  0  0  0  0  0  0  0  0
   12.2200   -2.4350   24.2740 C   0  0  0  0  0  0  0  0  0  0  0  0
   11.1130   -2.3170   23.3980 C   0  0  0  0  0  0  0  0  0  0  0  0
   10.0180   -1.5080   23.9820 N   0  0  0  0  0  0  0  0  0  0  0  0
    8.8070   -1.3060   23.1620 C   0  0  0  0  0  0  0  0  0  0  0  0
    8.4300   -2.6100   22.4500 C   0  0  0  0  0  0  0  0  0  0  0  0
    7.8390   -3.6240   23.4250 C   0  0  0  0  0  0  0  0  0  0  0  0
    6.7370   -3.1930   24.1790 C   0  0  0  0  0  0  0  0  0  0  0  0
    6.4030   -1.7000   23.9240 C   0  0  0  0  0  0  0  0  0  0  0  0
    7.6320   -0.7990   24.0250 C   0  0  0  0  0  0  0  0  0  0  0  0
   11.6230   -1.6710   22.0980 C   0  0  0  0  0  0  0  0  0  0  0  0
   12.8880   -1.1110   22.3520 C   0  0  0  0  0  0  0  0  0  0  0  0
   12.8030    2.0230   23.0240 C   0  0  0  0  0  0  0  0  0  0  0  0
   12.2790    3.3210   22.9670 C   0  0  0  0  0  0  0  0  0  0  0  0
  2  1  1  0
  2  3  2  0
  2  4  2  0
  2  5  1  0
  5  6  2  0
  6  7  1  0
  7  8  2  0
  8  9  1  0
  9 10  1  0
 10 11  1  0
 11 12  1  0
 12 13  1  0
 13 14  1  0
 14 15  1  0
 15 16  1  0
 16 17  1  0
 17 18  1  0
 14 19  1  0
 18 19  1  0
 12 20  1  0
  9 21  1  0
 20 21  1  0
  8 22  1  0
  5 23  1  0
 22 23  2  0
M  END
