WAR-XCH-b6889685-42
     RDKit          3D

 27 30  0  0  0  0  0  0  0  0999 V2000
    8.8800    5.4260   22.5870 N   0  0  0  0  0  0  0  0  0  0  0  0
   10.4160    5.3700   23.2660 S   0  0  0  0  0  0  0  0  0  0  0  0
   11.2540    6.1920   22.4310 O   0  0  0  0  0  0  0  0  0  0  0  0
   10.2570    5.6260   24.6790 O   0  0  0  0  0  0  0  0  0  0  0  0
   10.8780    3.6650   23.0530 C   0  0  0  0  0  0  0  0  0  0  0  0
    9.9200    2.6550   23.1290 C   0  0  0  0  0  0  0  0  0  0  0  0
   10.3160    1.3080   23.0010 C   0  0  0  0  0  0  0  0  0  0  0  0
   11.6560    0.9560   22.8010 C   0  0  0  0  0  0  0  0  0  0  0  0
   12.0190   -0.3940   22.7000 N   0  0  0  0  0  0  0  0  0  0  0  0
   12.6160   -1.1130   23.8540 C   0  0  0  0  0  0  0  0  0  0  0  0
   13.1450   -2.4650   23.3200 C   0  0  0  0  0  0  0  0  0  0  0  0
   13.2070   -2.4130   21.7500 C   0  0  0  0  0  0  0  0  0  0  0  0
   13.8480   -3.4440   20.7540 N   0  0  0  0  0  0  0  0  0  0  0  0
   14.9030   -4.5960   20.8200 C   0  0  0  0  0  0  0  0  0  0  0  0
   13.7310   -4.9990   20.4850 C   0  0  0  0  0  0  0  0  0  0  0  0
   12.9960   -4.1350   19.8350 C   0  0  0  0  0  0  0  0  0  0  0  0
   11.6910   -4.4620   19.4530 C   0  0  0  0  0  0  0  0  0  0  0  0
   11.3910   -5.6450   19.8260 C   0  0  0  0  0  0  0  0  0  0  0  0
   12.8510   -6.2710   20.7280 S   0  0  0  0  0  0  0  0  0  0  0  0
   16.0590   -5.1180   19.9210 C   0  0  0  0  0  0  0  0  0  0  0  0
   17.2250   -4.8620   20.6100 C   0  0  0  0  0  0  0  0  0  0  0  0
   17.0200   -4.7220   21.9080 C   0  0  0  0  0  0  0  0  0  0  0  0
   15.6650   -4.7530   22.1530 C   0  0  0  0  0  0  0  0  0  0  0  0
   11.8920   -1.9710   21.1170 C   0  0  0  0  0  0  0  0  0  0  0  0
   11.1100   -1.2440   21.9790 C   0  0  0  0  0  0  0  0  0  0  0  0
   12.5890    1.9930   22.6960 C   0  0  0  0  0  0  0  0  0  0  0  0
   12.2110    3.3360   22.8180 C   0  0  0  0  0  0  0  0  0  0  0  0
  2  1  1  0
  2  3  2  0
  2  4  2  0
  2  5  1  0
  5  6  2  0
  6  7  1  0
  7  8  2  0
  8  9  1  0
  9 10  1  0
 10 11  1  0
 11 12  1  0
 12 13  1  0
 14 13  1  0
 14 15  1  0
 15 16  2  0
 16 17  1  0
 17 18  2  0
 15 19  1  0
 18 19  1  0
 14 20  1  0
 20 21  1  0
 21 22  1  0
 14 23  1  0
 22 23  1  0
 12 24  1  0
  9 25  1  0
 24 25  1  0
  8 26  1  0
  5 27  1  0
 26 27  2  0
M  END
