WAR-XCH-b72a1bbc-2
     RDKit          3D

 16 17  0  0  0  0  0  0  0  0999 V2000
    8.9120    5.2400   22.6110 N   0  0  0  0  0  0  0  0  0  0  0  0
   10.3340    5.3420   23.4970 S   0  0  0  0  0  0  0  0  0  0  0  0
   11.2360    6.1600   22.7270 O   0  0  0  0  0  0  0  0  0  0  0  0
    9.9690    5.6960   24.8510 O   0  0  0  0  0  0  0  0  0  0  0  0
   10.9370    3.6640   23.4790 C   0  0  0  0  0  0  0  0  0  0  0  0
   10.0890    2.5330   24.0020 C   0  0  0  0  0  0  0  0  0  0  0  0
   10.6320    1.2310   23.9910 C   0  0  0  0  0  0  0  0  0  0  0  0
   11.9130    0.9920   23.5110 C   0  0  0  0  0  0  0  0  0  0  0  0
   12.4350   -0.2940   23.5310 C   0  0  0  0  0  0  0  0  0  0  0  0
   12.8350   -0.9520   24.6280 C   0  0  0  0  0  0  0  0  0  0  0  0
   13.3650   -2.1030   25.1180 C   0  0  0  0  0  0  0  0  0  0  0  0
   13.6170   -2.9940   24.1670 N   0  0  0  0  0  0  0  0  0  0  0  0
   13.2900   -2.5700   22.8930 C   0  0  0  0  0  0  0  0  0  0  0  0
   12.6730   -1.1860   22.4940 C   0  0  0  0  0  0  0  0  0  0  0  0
   12.6750    2.0620   23.0160 C   0  0  0  0  0  0  0  0  0  0  0  0
   12.2100    3.3870   22.9900 C   0  0  0  0  0  0  0  0  0  0  0  0
  2  1  1  0
  2  3  2  0
  2  4  2  0
  2  5  1  0
  5  6  2  0
  6  7  1  0
  7  8  2  0
  8  9  1  0
  9 10  2  0
 10 11  1  0
 11 12  2  0
 12 13  1  0
  9 14  1  0
 13 14  2  0
  8 15  1  0
  5 16  1  0
 15 16  2  0
M  END
