WAR-XCH-b6889685-26
     RDKit          3D

 24 26  0  0  0  0  0  0  0  0999 V2000
    2.2490   -8.2310   27.3880 N   0  0  0  0  0  0  0  0  0  0  0  0
    2.1280   -8.1250   25.7160 S   0  0  0  0  0  0  0  0  0  0  0  0
    2.6710   -9.3260   25.1400 O   0  0  0  0  0  0  0  0  0  0  0  0
    0.7800   -7.6730   25.4530 O   0  0  0  0  0  0  0  0  0  0  0  0
    3.2360   -6.7980   25.3610 C   0  0  0  0  0  0  0  0  0  0  0  0
    3.9770   -6.8280   24.1890 C   0  0  0  0  0  0  0  0  0  0  0  0
    4.8430   -5.7750   23.8980 C   0  0  0  0  0  0  0  0  0  0  0  0
    4.9930   -4.6720   24.7600 C   0  0  0  0  0  0  0  0  0  0  0  0
    5.8460   -3.6370   24.4270 N   0  0  0  0  0  0  0  0  0  0  0  0
    7.0690   -3.3370   25.1220 C   0  0  0  0  0  0  0  0  0  0  0  0
    7.5370   -1.9710   24.7290 C   0  0  0  0  0  0  0  0  0  0  0  0
    8.0210   -2.0420   23.3010 C   0  0  0  0  0  0  0  0  0  0  0  0
    9.4150   -2.4660   23.2750 N   0  0  0  0  0  0  0  0  0  0  0  0
   10.5020   -1.6080   23.1370 C   0  0  0  0  0  0  0  0  0  0  0  0
   10.2900   -0.2160   23.0880 C   0  0  0  0  0  0  0  0  0  0  0  0
   11.3770    0.6800   22.9460 C   0  0  0  0  0  0  0  0  0  0  0  0
   12.7190    0.1280   22.8600 C   0  0  0  0  0  0  0  0  0  0  0  0
   13.7410    0.9410   22.7360 F   0  0  0  0  0  0  0  0  0  0  0  0
   12.9100   -1.2440   22.9080 C   0  0  0  0  0  0  0  0  0  0  0  0
   11.8150   -2.0870   23.0440 C   0  0  0  0  0  0  0  0  0  0  0  0
    7.0910   -2.9830   22.5120 C   0  0  0  0  0  0  0  0  0  0  0  0
    5.7990   -3.0850   23.0610 C   0  0  0  0  0  0  0  0  0  0  0  0
    4.2340   -4.6800   25.9410 C   0  0  0  0  0  0  0  0  0  0  0  0
    3.3600   -5.7310   26.2480 C   0  0  0  0  0  0  0  0  0  0  0  0
  2  1  1  0
  2  3  2  0
  2  4  2  0
  2  5  1  0
  5  6  2  0
  6  7  1  0
  7  8  2  0
  8  9  1  0
  9 10  1  0
 10 11  1  0
 11 12  1  0
 12 13  1  0
 13 14  1  0
 14 15  2  0
 15 16  1  0
 16 17  2  0
 17 18  1  0
 17 19  1  0
 14 20  1  0
 19 20  2  0
 12 21  1  0
  9 22  1  0
 21 22  1  0
  8 23  1  0
  5 24  1  0
 23 24  2  0
M  END
