WAR-XCH-b6889685-1
     RDKit          3D

 25 27  0  0  0  0  0  0  0  0999 V2000
    9.5640    7.0990   22.5200 C   0  0  0  0  0  0  0  0  0  0  0  0
   10.7130    6.6370   23.2940 N   0  0  0  0  0  0  0  0  0  0  0  0
   11.5730    5.6600   22.6340 C   0  0  0  0  0  0  0  0  0  0  0  0
   11.0030    4.3950   22.7530 C   0  0  0  0  0  0  0  0  0  0  0  0
   11.0500    3.7430   23.9470 C   0  0  0  0  0  0  0  0  0  0  0  0
    9.6270    3.2290   24.1950 C   0  0  0  0  0  0  0  0  0  0  0  0
    9.4010    2.2390   23.1520 N   0  0  0  0  0  0  0  0  0  0  0  0
   10.2960    1.1780   23.1520 C   0  0  0  0  0  0  0  0  0  0  0  0
   11.8380    1.3580   22.9850 C   0  0  0  0  0  0  0  0  0  0  0  0
   12.6980    0.0830   23.0940 C   0  0  0  0  0  0  0  0  0  0  0  0
   12.0440   -1.1180   23.3260 C   0  0  0  0  0  0  0  0  0  0  0  0
   12.8130   -2.6430   23.5370 S   0  0  0  0  0  0  0  0  0  0  0  0
   13.8600   -2.3800   24.8160 N   0  0  0  0  0  0  0  0  0  0  0  0
   11.7820   -3.4590   24.1270 O   0  0  0  0  0  0  0  0  0  0  0  0
   13.5180   -2.9420   22.3360 O   0  0  0  0  0  0  0  0  0  0  0  0
   10.6810   -1.1850   23.4250 C   0  0  0  0  0  0  0  0  0  0  0  0
    9.8360   -0.1200   23.3440 C   0  0  0  0  0  0  0  0  0  0  0  0
    9.1360    3.0780   22.0140 C   0  0  0  0  0  0  0  0  0  0  0  0
    9.4670    4.3280   22.5420 C   0  0  0  0  0  0  0  0  0  0  0  0
   10.4720    6.4680   24.6150 C   0  0  0  0  0  0  0  0  0  0  0  0
    9.3090    5.9510   25.1660 C   0  0  0  0  0  0  0  0  0  0  0  0
    9.3580    5.8980   26.6760 C   0  0  0  0  0  0  0  0  0  0  0  0
   10.5600    6.3840   27.1660 C   0  0  0  0  0  0  0  0  0  0  0  0
   11.0070    6.4980   29.0190 Br  0  0  0  0  0  0  0  0  0  0  0  0
   11.5870    6.8730   25.9040 S   0  0  0  0  0  0  0  0  0  0  0  0
  1  2  1  0
  2  3  1  0
  3  4  1  0
  4  5  1  0
  5  6  1  0
  6  7  1  0
  7  8  1  0
  8  9  2  0
  9 10  1  0
 10 11  2  0
 11 12  1  0
 12 13  1  0
 12 14  2  0
 12 15  2  0
 11 16  1  0
  8 17  1  0
 16 17  2  0
  7 18  1  0
  4 19  1  0
 18 19  1  0
  2 20  1  0
 20 21  2  0
 21 22  1  0
 22 23  2  0
 23 24  1  0
 20 25  1  0
 23 25  1  0
M  END
