WAR-XCH-b6889685-19
     RDKit          3D

 23 25  0  0  0  0  0  0  0  0999 V2000
    8.9440    5.2570   22.6590 N   0  0  0  0  0  0  0  0  0  0  0  0
   10.3640    5.3430   23.5570 S   0  0  0  0  0  0  0  0  0  0  0  0
   11.2980    6.1710   22.8380 O   0  0  0  0  0  0  0  0  0  0  0  0
    9.9340    5.6680   24.8990 O   0  0  0  0  0  0  0  0  0  0  0  0
   10.9720    3.6690   23.5080 C   0  0  0  0  0  0  0  0  0  0  0  0
   10.1950    2.5890   23.9570 C   0  0  0  0  0  0  0  0  0  0  0  0
   10.7130    1.2730   23.9190 C   0  0  0  0  0  0  0  0  0  0  0  0
   12.0050    0.9960   23.4330 C   0  0  0  0  0  0  0  0  0  0  0  0
   12.5420   -0.2840   23.3660 N   0  0  0  0  0  0  0  0  0  0  0  0
   12.9840   -1.0840   24.5030 C   0  0  0  0  0  0  0  0  0  0  0  0
   12.1330   -2.3130   24.5760 C   0  0  0  0  0  0  0  0  0  0  0  0
   10.9740   -2.1520   23.5980 C   0  0  0  0  0  0  0  0  0  0  0  0
    9.8240   -3.1160   23.5910 C   0  0  0  0  0  0  0  0  0  0  0  0
    8.5360   -2.6220   23.9440 O   0  0  0  0  0  0  0  0  0  0  0  0
    7.5320   -3.3670   23.3980 C   0  0  0  0  0  0  0  0  0  0  0  0
    7.3540   -4.7720   23.3360 C   0  0  0  0  0  0  0  0  0  0  0  0
    6.1480   -5.2000   22.6590 C   0  0  0  0  0  0  0  0  0  0  0  0
    5.2750   -3.8310   22.1250 S   0  0  0  0  0  0  0  0  0  0  0  0
    6.4610   -2.7410   22.7700 C   0  0  0  0  0  0  0  0  0  0  0  0
   11.6690   -2.1900   22.2780 C   0  0  0  0  0  0  0  0  0  0  0  0
   12.2180   -0.9640   22.1340 C   0  0  0  0  0  0  0  0  0  0  0  0
   12.7200    2.1090   22.9990 C   0  0  0  0  0  0  0  0  0  0  0  0
   12.2390    3.4100   23.0240 C   0  0  0  0  0  0  0  0  0  0  0  0
  2  1  1  0
  2  3  2  0
  2  4  2  0
  2  5  1  0
  5  6  2  0
  6  7  1  0
  7  8  2  0
  8  9  1  0
  9 10  1  0
 10 11  1  0
 11 12  1  0
 12 13  1  0
 13 14  1  0
 14 15  1  0
 15 16  1  0
 16 17  2  0
 17 18  1  0
 15 19  2  0
 18 19  1  0
 12 20  1  0
  9 21  1  0
 20 21  1  0
  8 22  1  0
  5 23  1  0
 22 23  2  0
M  END
