WAR-XCH-b72a1bbc-10
     RDKit          3D

 22 24  0  0  0  0  0  0  0  0999 V2000
    9.4550    6.1450   22.7920 N   0  0  0  0  0  0  0  0  0  0  0  0
   10.8120    5.8390   23.7390 S   0  0  0  0  0  0  0  0  0  0  0  0
   11.8940    6.5350   23.1000 O   0  0  0  0  0  0  0  0  0  0  0  0
   10.3970    6.0890   25.1000 O   0  0  0  0  0  0  0  0  0  0  0  0
   10.9910    4.1090   23.4770 C   0  0  0  0  0  0  0  0  0  0  0  0
    9.8620    3.3530   23.7010 C   0  0  0  0  0  0  0  0  0  0  0  0
    9.9020    2.0040   23.4920 C   0  0  0  0  0  0  0  0  0  0  0  0
   11.0480    1.3730   23.0610 C   0  0  0  0  0  0  0  0  0  0  0  0
   10.8630    0.0300   22.8590 N   0  0  0  0  0  0  0  0  0  0  0  0
   11.9490   -0.9070   22.7010 C   0  0  0  0  0  0  0  0  0  0  0  0
   11.1700   -2.2220   22.4510 C   0  0  0  0  0  0  0  0  0  0  0  0
    9.7210   -2.1630   23.1000 C   0  0  0  0  0  0  0  0  0  0  0  0
    8.9430   -3.4320   23.3110 N   0  0  0  0  0  0  0  0  0  0  0  0
    7.5700   -3.4250   22.7430 C   0  0  0  0  0  0  0  0  0  0  0  0
    6.4400   -3.2480   23.7700 C   0  0  0  0  0  0  0  0  0  0  0  0
    6.4140   -4.4260   24.7420 C   0  0  0  0  0  0  0  0  0  0  0  0
    7.8210   -5.0030   24.9260 C   0  0  0  0  0  0  0  0  0  0  0  0
    8.8890   -3.9570   24.6960 C   0  0  0  0  0  0  0  0  0  0  0  0
    8.9350   -1.1770   22.2710 C   0  0  0  0  0  0  0  0  0  0  0  0
    9.7810   -0.2080   21.8820 C   0  0  0  0  0  0  0  0  0  0  0  0
   12.2130    2.1300   22.8570 C   0  0  0  0  0  0  0  0  0  0  0  0
   12.1930    3.5200   23.0590 C   0  0  0  0  0  0  0  0  0  0  0  0
  2  1  1  0
  2  3  2  0
  2  4  2  0
  2  5  1  0
  5  6  2  0
  6  7  1  0
  7  8  2  0
  8  9  1  0
  9 10  1  0
 10 11  1  0
 11 12  1  0
 12 13  1  0
 13 14  1  0
 14 15  1  0
 15 16  1  0
 16 17  1  0
 13 18  1  0
 17 18  1  0
 12 19  1  0
  9 20  1  0
 19 20  1  0
  8 21  1  0
  5 22  1  0
 21 22  2  0
M  END
