WAR-XCH-79d12f6e-14
     RDKit          3D

 24 27  0  0  0  0  0  0  0  0999 V2000
    2.3900   -3.3890   25.0580 C   0  0  0  0  0  0  0  0  0  0  0  0
    3.7540   -3.3490   24.4190 C   0  0  0  0  0  0  0  0  0  0  0  0
    4.9210   -3.0020   25.1470 C   0  0  0  0  0  0  0  0  0  0  0  0
    6.0710   -3.0410   24.3700 C   0  0  0  0  0  0  0  0  0  0  0  0
    5.9610   -3.3940   22.9970 N   0  0  0  0  0  0  0  0  0  0  0  0
    4.9900   -3.7650   22.0300 C   0  0  0  0  0  0  0  0  0  0  0  0
    6.2020   -3.7030   21.6020 N   0  0  0  0  0  0  0  0  0  0  0  0
    6.5790   -3.3620   22.8240 C   0  0  0  0  0  0  0  0  0  0  0  0
    7.9190   -3.1590   23.0780 C   0  0  0  0  0  0  0  0  0  0  0  0
    8.3580   -4.5260   23.5840 C   0  0  0  0  0  0  0  0  0  0  0  0
    7.3760   -5.7460   23.3530 C   0  0  0  0  0  0  0  0  0  0  0  0
    5.8870   -5.6180   23.6480 C   0  0  0  0  0  0  0  0  0  0  0  0
    4.4930   -5.9990   23.3460 C   0  0  0  0  0  0  0  0  0  0  0  0
    4.1250   -7.1750   23.9830 C   0  0  0  0  0  0  0  0  0  0  0  0
    3.8370   -6.9800   25.4500 C   0  0  0  0  0  0  0  0  0  0  0  0
    4.8110   -5.9820   26.0470 C   0  0  0  0  0  0  0  0  0  0  0  0
    5.9190   -5.4840   25.0910 C   0  0  0  0  0  0  0  0  0  0  0  0
    8.1230   -2.1120   24.0050 C   0  0  0  0  0  0  0  0  0  0  0  0
    9.6270   -1.8170   24.0760 C   0  0  0  0  0  0  0  0  0  0  0  0
    9.9830   -0.9540   23.0120 C   0  0  0  0  0  0  0  0  0  0  0  0
    8.9750   -1.1710   21.8980 C   0  0  0  0  0  0  0  0  0  0  0  0
    8.4910   -2.6170   21.9170 C   0  0  0  0  0  0  0  0  0  0  0  0
    5.4650   -3.3060   23.6680 N   0  0  0  0  0  0  0  0  0  0  0  0
    4.1450   -3.6150   23.1140 C   0  0  0  0  0  0  0  0  0  0  0  0
  1  2  1  0
  2  3  2  0
  3  4  1  0
  4  5  2  0
  5  6  1  0
  6  7  1  0
  7  8  1  0
  8  9  1  0
  9 10  1  0
 10 11  3  0
 11 12  1  0
 12 13  1  0
 13 14  1  0
 14 15  1  0
 15 16  1  0
 12 17  1  0
 16 17  1  0
  9 18  1  0
 18 19  1  0
 19 20  1  0
 20 21  1  0
  9 22  1  0
 21 22  1  0
  8 23  2  0
  2 24  1  0
  6 24  2  0
 23 24  1  0
M  END
