WAR-XCH-b0339bbe-5
     RDKit          3D

 27 30  0  0  0  0  0  0  0  0999 V2000
    3.4830   -1.4760   30.5110 N   0  0  0  0  0  0  0  0  0  0  0  0
    4.5500   -1.4160   29.2180 S   0  0  0  0  0  0  0  0  0  0  0  0
    5.5600   -2.4190   29.4670 O   0  0  0  0  0  0  0  0  0  0  0  0
    4.9140   -0.0190   29.0910 O   0  0  0  0  0  0  0  0  0  0  0  0
    3.5370   -1.9090   27.8720 C   0  0  0  0  0  0  0  0  0  0  0  0
    2.6260   -0.8800   27.2370 C   0  0  0  0  0  0  0  0  0  0  0  0
    1.8420   -1.2190   26.2280 C   0  0  0  0  0  0  0  0  0  0  0  0
    1.7740   -2.6040   25.6300 C   0  0  0  0  0  0  0  0  0  0  0  0
    2.7100   -3.6380   26.2850 C   0  0  0  0  0  0  0  0  0  0  0  0
    2.6630   -5.0540   25.7100 C   0  0  0  0  0  0  0  0  0  0  0  0
    2.9050   -5.1490   24.1700 C   0  0  0  0  0  0  0  0  0  0  0  0
    4.3270   -4.5790   23.8480 C   0  0  0  0  0  0  0  0  0  0  0  0
    5.4220   -5.2750   23.1980 C   0  0  0  0  0  0  0  0  0  0  0  0
    6.8180   -4.5420   22.9520 C   0  0  0  0  0  0  0  0  0  0  0  0
    6.8430   -3.2340   23.4100 C   0  0  0  0  0  0  0  0  0  0  0  0
    8.1450   -2.0550   23.3600 C   0  0  0  0  0  0  0  0  0  0  0  0
    8.3750   -3.1200   22.8950 C   0  0  0  0  0  0  0  0  0  0  0  0
    7.1660   -3.2140   23.3000 C   0  0  0  0  0  0  0  0  0  0  0  0
    6.5330   -1.9800   23.9670 C   0  0  0  0  0  0  0  0  0  0  0  0
    5.7030   -2.7680   23.9890 C   0  0  0  0  0  0  0  0  0  0  0  0
    4.4930   -3.2490   24.2580 C   0  0  0  0  0  0  0  0  0  0  0  0
    1.5070   -5.9520   26.0530 C   0  0  0  0  0  0  0  0  0  0  0  0
    1.6790   -7.2340   25.4550 C   0  0  0  0  0  0  0  0  0  0  0  0
    2.9210   -7.8100   26.1450 C   0  0  0  0  0  0  0  0  0  0  0  0
    4.0930   -7.1330   25.8880 C   0  0  0  0  0  0  0  0  0  0  0  0
    3.8880   -5.7300   26.3850 C   0  0  0  0  0  0  0  0  0  0  0  0
    3.5460   -3.2350   27.3750 C   0  0  0  0  0  0  0  0  0  0  0  0
  2  1  1  0
  2  3  2  0
  2  4  2  0
  2  5  1  0
  5  6  2  0
  6  7  1  0
  7  8  2  0
  8  9  1  0
  9 10  1  0
 10 11  1  0
 11 12  1  0
 12 13  2  0
 13 14  1  0
 14 15  2  0
 15 16  1  0
 16 17  2  0
 17 18  1  0
 18 19  2  0
 15 20  1  0
 19 20  1  0
 12 21  1  0
 20 21  2  0
 10 22  1  0
 22 23  1  0
 23 24  1  0
 24 25  1  0
 10 26  1  0
 25 26  1  0
  5 27  1  0
  9 27  2  0
M  END
