WAR-XCH-b72a1bbc-5
     RDKit          3D

 22 24  0  0  0  0  0  0  0  0999 V2000
    8.8250    5.1350   22.5390 N   0  0  0  0  0  0  0  0  0  0  0  0
   10.2240    5.2840   23.4390 S   0  0  0  0  0  0  0  0  0  0  0  0
   11.1030    6.1650   22.7140 O   0  0  0  0  0  0  0  0  0  0  0  0
    9.7910    5.6010   24.7840 O   0  0  0  0  0  0  0  0  0  0  0  0
   10.9230    3.6540   23.4320 C   0  0  0  0  0  0  0  0  0  0  0  0
   10.1960    2.5490   23.8950 C   0  0  0  0  0  0  0  0  0  0  0  0
   10.7920    1.2850   23.9250 C   0  0  0  0  0  0  0  0  0  0  0  0
   12.1090    1.1070   23.4920 C   0  0  0  0  0  0  0  0  0  0  0  0
   12.7160   -0.1540   23.5600 N   0  0  0  0  0  0  0  0  0  0  0  0
   12.4370   -0.9720   24.7380 C   0  0  0  0  0  0  0  0  0  0  0  0
   12.2610   -2.4030   24.2600 C   0  0  0  0  0  0  0  0  0  0  0  0
   11.4920   -2.4340   22.9250 C   0  0  0  0  0  0  0  0  0  0  0  0
    9.9440   -2.3840   22.9280 C   0  0  0  0  0  0  0  0  0  0  0  0
    9.0890   -3.2540   23.5820 C   0  0  0  0  0  0  0  0  0  0  0  0
    7.6310   -2.9190   23.3470 C   0  0  0  0  0  0  0  0  0  0  0  0
    7.5600   -1.6990   22.4420 C   0  0  0  0  0  0  0  0  0  0  0  0
    5.9420   -0.8820   21.8410 Br  0  0  0  0  0  0  0  0  0  0  0  0
    9.1050   -1.1570   22.0280 S   0  0  0  0  0  0  0  0  0  0  0  0
   12.0180   -1.4880   21.8900 C   0  0  0  0  0  0  0  0  0  0  0  0
   13.1220   -0.8630   22.3730 C   0  0  0  0  0  0  0  0  0  0  0  0
   12.7730    2.2330   23.0120 C   0  0  0  0  0  0  0  0  0  0  0  0
   12.2200    3.4790   22.9740 C   0  0  0  0  0  0  0  0  0  0  0  0
  2  1  1  0
  2  3  2  0
  2  4  2  0
  2  5  1  0
  5  6  2  0
  6  7  1  0
  7  8  2  0
  8  9  1  0
  9 10  1  0
 10 11  1  0
 11 12  1  0
 12 13  1  0
 13 14  2  0
 14 15  1  0
 15 16  2  0
 16 17  1  0
 13 18  1  0
 16 18  1  0
 12 19  1  0
  9 20  1  0
 19 20  1  0
  8 21  1  0
  5 22  1  0
 21 22  2  0
M  END
