WAR-XCH-b6889685-39
     RDKit          3D

 28 31  0  0  0  0  0  0  0  0999 V2000
   27.7720  -15.1470   27.9490 N   0  0  0  0  0  0  0  0  0  0  0  0
   26.4530  -14.2540   27.3890 S   0  0  0  0  0  0  0  0  0  0  0  0
   26.9600  -13.2550   26.4830 O   0  0  0  0  0  0  0  0  0  0  0  0
   25.6960  -13.9490   28.5740 O   0  0  0  0  0  0  0  0  0  0  0  0
   25.6060  -15.4780   26.4440 C   0  0  0  0  0  0  0  0  0  0  0  0
   26.4030  -16.4200   25.8180 C   0  0  0  0  0  0  0  0  0  0  0  0
   25.8150  -17.4220   25.0640 C   0  0  0  0  0  0  0  0  0  0  0  0
   24.4240  -17.5340   24.8990 C   0  0  0  0  0  0  0  0  0  0  0  0
   23.9840  -18.5930   24.1160 N   0  0  0  0  0  0  0  0  0  0  0  0
   22.6280  -19.1130   24.2320 C   0  0  0  0  0  0  0  0  0  0  0  0
   22.6240  -20.6190   23.9290 C   0  0  0  0  0  0  0  0  0  0  0  0
   23.4460  -20.8870   22.6830 C   0  0  0  0  0  0  0  0  0  0  0  0
   23.0650  -22.1460   21.9640 N   0  0  0  0  0  0  0  0  0  0  0  0
   23.7640  -22.4010   20.6820 C   0  0  0  0  0  0  0  0  0  0  0  0
   22.9420  -23.2210   19.6700 C   0  0  0  0  0  0  0  0  0  0  0  0
   22.6790  -24.5970   20.2520 C   0  0  0  0  0  0  0  0  0  0  0  0
   21.9170  -25.5820   19.3950 C   0  0  0  0  0  0  0  0  0  0  0  0
   21.4840  -25.0950   18.0210 C   0  0  0  0  0  0  0  0  0  0  0  0
   21.8030  -23.6600   17.5630 C   0  0  0  0  0  0  0  0  0  0  0  0
   22.5180  -22.7830   18.4080 C   0  0  0  0  0  0  0  0  0  0  0  0
   25.0360  -23.2370   21.0810 C   0  0  0  0  0  0  0  0  0  0  0  0
   26.0940  -22.6950   20.3830 C   0  0  0  0  0  0  0  0  0  0  0  0
   25.7770  -21.5230   19.7400 C   0  0  0  0  0  0  0  0  0  0  0  0
   24.4200  -21.2250   19.9200 C   0  0  0  0  0  0  0  0  0  0  0  0
   24.8640  -20.4520   22.9040 C   0  0  0  0  0  0  0  0  0  0  0  0
   24.8320  -19.0570   22.9970 C   0  0  0  0  0  0  0  0  0  0  0  0
   23.6240  -16.5660   25.5430 C   0  0  0  0  0  0  0  0  0  0  0  0
   24.2110  -15.5220   26.3230 C   0  0  0  0  0  0  0  0  0  0  0  0
  2  1  1  0
  2  3  2  0
  2  4  2  0
  2  5  1  0
  5  6  2  0
  6  7  1  0
  7  8  2  0
  8  9  1  0
  9 10  1  0
 10 11  1  0
 11 12  1  0
 12 13  1  0
 14 13  1  0
 14 15  1  0
 15 16  2  0
 16 17  1  0
 17 18  2  0
 18 19  1  0
 15 20  1  0
 19 20  2  0
 14 21  1  0
 21 22  1  0
 22 23  1  0
 14 24  1  0
 23 24  1  0
 12 25  1  0
  9 26  1  0
 25 26  1  0
  8 27  1  0
  5 28  1  0
 27 28  2  0
M  END
