WAR-XCH-b72a1bbc-3
     RDKit          3D

 15 16  0  0  0  0  0  0  0  0999 V2000
    8.7440    5.2340   22.5000 N   0  0  0  0  0  0  0  0  0  0  0  0
   10.1900    5.2890   23.3510 S   0  0  0  0  0  0  0  0  0  0  0  0
   11.0610    6.2000   22.6450 O   0  0  0  0  0  0  0  0  0  0  0  0
    9.8730    5.4900   24.7490 O   0  0  0  0  0  0  0  0  0  0  0  0
   10.8360    3.6420   23.1730 C   0  0  0  0  0  0  0  0  0  0  0  0
   10.0210    2.4920   23.2120 C   0  0  0  0  0  0  0  0  0  0  0  0
   10.6190    1.2110   23.1200 C   0  0  0  0  0  0  0  0  0  0  0  0
   12.0160    1.1090   23.0010 C   0  0  0  0  0  0  0  0  0  0  0  0
   12.6920   -0.2570   23.0030 C   0  0  0  0  0  0  0  0  0  0  0  0
   12.6790   -1.4880   23.5250 C   0  0  0  0  0  0  0  0  0  0  0  0
   13.4300   -2.6430   23.4310 C   0  0  0  0  0  0  0  0  0  0  0  0
   12.1420   -2.7360   24.4580 S   0  0  0  0  0  0  0  0  0  0  0  0
   11.7880   -0.9420   23.9810 C   0  0  0  0  0  0  0  0  0  0  0  0
   12.7740    2.2580   22.9220 C   0  0  0  0  0  0  0  0  0  0  0  0
   12.2100    3.5210   23.0060 C   0  0  0  0  0  0  0  0  0  0  0  0
  2  1  1  0
  2  3  2  0
  2  4  2  0
  2  5  1  0
  5  6  2  0
  6  7  1  0
  7  8  2  0
  8  9  1  0
  9 10  1  0
 10 11  2  0
 11 12  1  0
  9 13  2  0
 12 13  1  0
  8 14  1  0
  5 15  1  0
 14 15  2  0
M  END
