WAR-XCH-b6889685-6
     RDKit          3D

 26 28  0  0  0  0  0  0  0  0999 V2000
    3.2240    1.8280   20.2670 C   0  0  0  0  0  0  0  0  0  0  0  0
    4.5190    1.2160   19.8220 C   0  0  0  0  0  0  0  0  0  0  0  0
    4.8990    1.3020   18.5010 C   0  0  0  0  0  0  0  0  0  0  0  0
    6.0720    0.7390   18.0980 C   0  0  0  0  0  0  0  0  0  0  0  0
    6.9060    0.0690   19.0010 C   0  0  0  0  0  0  0  0  0  0  0  0
    6.5760   -0.0420   20.3660 C   0  0  0  0  0  0  0  0  0  0  0  0
    7.3750   -0.6820   21.3150 N   0  0  0  0  0  0  0  0  0  0  0  0
    6.9480   -1.9310   21.9380 C   0  0  0  0  0  0  0  0  0  0  0  0
    8.7870   -0.3260   21.4380 C   0  0  0  0  0  0  0  0  0  0  0  0
    9.3550   -0.2630   22.8460 C   0  0  0  0  0  0  0  0  0  0  0  0
    8.5790    0.7600   23.6920 C   0  0  0  0  0  0  0  0  0  0  0  0
    9.4190    1.7520   24.5170 C   0  0  0  0  0  0  0  0  0  0  0  0
   10.7420    2.0140   23.9630 N   0  0  0  0  0  0  0  0  0  0  0  0
   11.4260    0.9040   24.0980 C   0  0  0  0  0  0  0  0  0  0  0  0
   12.5750    0.7370   23.3410 C   0  0  0  0  0  0  0  0  0  0  0  0
   13.2540   -0.4240   23.4250 C   0  0  0  0  0  0  0  0  0  0  0  0
   12.7610   -1.3630   24.2780 C   0  0  0  0  0  0  0  0  0  0  0  0
   13.4530   -2.8660   24.4980 S   0  0  0  0  0  0  0  0  0  0  0  0
   11.9130   -3.5070   24.6170 N   0  0  0  0  0  0  0  0  0  0  0  0
   14.0050   -3.2160   23.2280 O   0  0  0  0  0  0  0  0  0  0  0  0
   14.0910   -2.9920   25.7860 O   0  0  0  0  0  0  0  0  0  0  0  0
   11.6530   -1.2050   25.0210 C   0  0  0  0  0  0  0  0  0  0  0  0
   10.9600   -0.0730   24.9460 C   0  0  0  0  0  0  0  0  0  0  0  0
   10.7370    1.7770   22.5920 C   0  0  0  0  0  0  0  0  0  0  0  0
   10.7710    0.2270   22.6640 C   0  0  0  0  0  0  0  0  0  0  0  0
    5.3590    0.5530   20.7340 C   0  0  0  0  0  0  0  0  0  0  0  0
  1  2  1  0
  2  3  2  0
  3  4  1  0
  4  5  2  0
  5  6  1  0
  6  7  1  0
  7  8  1  0
  7  9  1  0
  9 10  1  0
 10 11  1  0
 11 12  1  0
 12 13  1  0
 13 14  1  0
 14 15  2  0
 15 16  1  0
 16 17  2  0
 17 18  1  0
 18 19  1  0
 18 20  2  0
 18 21  2  0
 17 22  1  0
 14 23  1  0
 22 23  2  0
 13 24  1  0
 10 25  1  0
 24 25  1  0
  2 26  1  0
  6 26  2  0
M  END
