WAR-XCH-b6889685-17
     RDKit          3D

 25 27  0  0  0  0  0  0  0  0999 V2000
   27.2340  -13.3990   26.2900 N   0  0  0  0  0  0  0  0  0  0  0  0
   26.6400  -14.4820   27.4360 S   0  0  0  0  0  0  0  0  0  0  0  0
   25.6860  -13.8270   28.2880 O   0  0  0  0  0  0  0  0  0  0  0  0
   27.8140  -15.1360   27.9790 O   0  0  0  0  0  0  0  0  0  0  0  0
   25.7830  -15.6640   26.4390 C   0  0  0  0  0  0  0  0  0  0  0  0
   26.5400  -16.6680   25.8560 C   0  0  0  0  0  0  0  0  0  0  0  0
   25.9140  -17.6350   25.0820 C   0  0  0  0  0  0  0  0  0  0  0  0
   24.5250  -17.6420   24.8580 C   0  0  0  0  0  0  0  0  0  0  0  0
   24.0300  -18.6710   24.0650 N   0  0  0  0  0  0  0  0  0  0  0  0
   22.6890  -19.2120   24.2740 C   0  0  0  0  0  0  0  0  0  0  0  0
   22.6890  -20.7220   23.9980 C   0  0  0  0  0  0  0  0  0  0  0  0
   23.4250  -20.9580   22.6970 C   0  0  0  0  0  0  0  0  0  0  0  0
   23.0080  -22.2580   21.9250 C   0  0  0  0  0  0  0  0  0  0  0  0
   23.1840  -22.0000   20.5200 O   0  0  0  0  0  0  0  0  0  0  0  0
   22.7430  -22.9030   19.5860 C   0  0  0  0  0  0  0  0  0  0  0  0
   22.3030  -24.2790   20.1000 C   0  0  0  0  0  0  0  0  0  0  0  0
   21.8320  -25.2980   19.0630 C   0  0  0  0  0  0  0  0  0  0  0  0
   21.8460  -24.8460   17.5920 C   0  0  0  0  0  0  0  0  0  0  0  0
   22.3050  -23.4300   17.2480 C   0  0  0  0  0  0  0  0  0  0  0  0
   22.3350  -22.8830   15.6200 Cl  0  0  0  0  0  0  0  0  0  0  0  0
   22.7220  -22.5440   18.2420 C   0  0  0  0  0  0  0  0  0  0  0  0
   24.8650  -20.5740   22.8720 C   0  0  0  0  0  0  0  0  0  0  0  0
   24.8600  -19.1740   22.9470 C   0  0  0  0  0  0  0  0  0  0  0  0
   23.7730  -16.6110   25.4550 C   0  0  0  0  0  0  0  0  0  0  0  0
   24.3910  -15.6140   26.2460 C   0  0  0  0  0  0  0  0  0  0  0  0
  2  1  1  0
  2  3  2  0
  2  4  2  0
  2  5  1  0
  5  6  2  0
  6  7  1  0
  7  8  2  0
  8  9  1  0
  9 10  1  0
 10 11  1  0
 11 12  1  0
 12 13  1  0
 13 14  1  0
 14 15  1  0
 15 16  2  0
 16 17  1  0
 17 18  2  0
 18 19  1  0
 19 20  1  0
 15 21  1  0
 19 21  2  0
 12 22  1  0
  9 23  1  0
 22 23  1  0
  8 24  1  0
  5 25  1  0
 24 25  2  0
M  END
