WAR-XCH-b72a1bbc-36
     RDKit          3D

 24 26  0  0  0  0  0  0  0  0999 V2000
   10.2020    6.2230   24.4890 N   0  0  0  0  0  0  0  0  0  0  0  0
   11.4420    6.8250   23.5240 S   0  0  0  0  0  0  0  0  0  0  0  0
   10.6060    7.3630   22.5120 O   0  0  0  0  0  0  0  0  0  0  0  0
   12.2830    7.5220   24.4420 O   0  0  0  0  0  0  0  0  0  0  0  0
   12.0300    5.3110   22.9480 C   0  0  0  0  0  0  0  0  0  0  0  0
   12.5940    4.4980   23.6740 C   0  0  0  0  0  0  0  0  0  0  0  0
   12.9170    3.1600   23.2530 C   0  0  0  0  0  0  0  0  0  0  0  0
   12.7710    2.4370   22.2350 C   0  0  0  0  0  0  0  0  0  0  0  0
   13.2130    0.7190   22.3730 N   0  0  0  0  0  0  0  0  0  0  0  0
   13.2850   -0.2330   23.6110 C   0  0  0  0  0  0  0  0  0  0  0  0
   12.1570   -1.2780   23.7880 C   0  0  0  0  0  0  0  0  0  0  0  0
   11.3550   -1.3300   22.5150 C   0  0  0  0  0  0  0  0  0  0  0  0
   10.1850   -2.3220   22.4920 C   0  0  0  0  0  0  0  0  0  0  0  0
    8.7510   -1.7560   23.4680 S   0  0  0  0  0  0  0  0  0  0  0  0
    8.8020   -2.9860   24.7540 C   0  0  0  0  0  0  0  0  0  0  0  0
   10.1690   -3.4490   25.2560 C   0  0  0  0  0  0  0  0  0  0  0  0
   10.1260   -4.5110   26.3600 C   0  0  0  0  0  0  0  0  0  0  0  0
    8.9970   -5.0230   26.8760 N   0  0  0  0  0  0  0  0  0  0  0  0
    7.7310   -4.5170   26.3330 C   0  0  0  0  0  0  0  0  0  0  0  0
    7.6340   -3.5230   25.2970 C   0  0  0  0  0  0  0  0  0  0  0  0
   12.4600   -1.6310   21.5560 C   0  0  0  0  0  0  0  0  0  0  0  0
   13.4470   -0.6090   21.5650 C   0  0  0  0  0  0  0  0  0  0  0  0
   12.2340    3.5500   21.3930 C   0  0  0  0  0  0  0  0  0  0  0  0
   11.8870    4.9450   21.7830 C   0  0  0  0  0  0  0  0  0  0  0  0
  2  1  1  0
  2  3  2  0
  2  4  2  0
  2  5  1  0
  5  6  2  0
  6  7  1  0
  7  8  2  0
  8  9  1  0
  9 10  1  0
 10 11  1  0
 11 12  1  0
 12 13  1  0
 13 14  1  0
 14 15  1  0
 15 16  2  0
 16 17  1  0
 17 18  2  0
 18 19  1  0
 15 20  1  0
 19 20  2  0
 12 21  1  0
  9 22  1  0
 21 22  1  0
  8 23  1  0
  5 24  1  0
 23 24  2  0
M  END
