WAR-XCH-b6889685-9
     RDKit          3D

 33 37  0  0  0  0  0  0  0  0999 V2000
    9.1020    5.0900   22.5540 N   0  0  0  0  0  0  0  0  0  0  0  0
   10.5730    5.1200   23.3720 S   0  0  0  0  0  0  0  0  0  0  0  0
   11.5140    5.8600   22.5700 O   0  0  0  0  0  0  0  0  0  0  0  0
   10.2070    5.5680   24.6960 O   0  0  0  0  0  0  0  0  0  0  0  0
   11.0510    3.3870   23.3800 C   0  0  0  0  0  0  0  0  0  0  0  0
   10.0840    2.3440   23.8930 C   0  0  0  0  0  0  0  0  0  0  0  0
   10.4680    1.0020   23.9030 C   0  0  0  0  0  0  0  0  0  0  0  0
   11.8460    0.5520   23.4120 C   0  0  0  0  0  0  0  0  0  0  0  0
   12.1570   -0.8530   23.4690 N   0  0  0  0  0  0  0  0  0  0  0  0
   13.2280   -1.4350   22.6770 C   0  0  0  0  0  0  0  0  0  0  0  0
   13.5590   -2.9070   23.1110 C   0  0  0  0  0  0  0  0  0  0  0  0
   13.9670   -3.1670   24.5940 C   0  0  0  0  0  0  0  0  0  0  0  0
   15.1930   -3.9060   25.1500 C   0  0  0  0  0  0  0  0  0  0  0  0
   16.7420   -3.7880   24.8510 N   0  0  0  0  0  0  0  0  0  0  0  0
   17.5440   -4.6650   24.0470 C   0  0  0  0  0  0  0  0  0  0  0  0
   18.8610   -4.1290   23.8030 C   0  0  0  0  0  0  0  0  0  0  0  0
   19.4350   -2.8770   24.1980 C   0  0  0  0  0  0  0  0  0  0  0  0
   20.7930   -2.4130   24.0050 C   0  0  0  0  0  0  0  0  0  0  0  0
   21.1120   -1.7730   22.8050 C   0  0  0  0  0  0  0  0  0  0  0  0
   22.4950   -1.2530   22.4940 C   0  0  0  0  0  0  0  0  0  0  0  0
   23.4800   -1.4050   23.4270 C   0  0  0  0  0  0  0  0  0  0  0  0
   23.2040   -2.0260   24.6390 C   0  0  0  0  0  0  0  0  0  0  0  0
   24.2760   -2.1340   25.5360 C   0  0  0  0  0  0  0  0  0  0  0  0
   24.1200   -2.7320   26.7720 C   0  0  0  0  0  0  0  0  0  0  0  0
   22.8870   -3.2240   27.1190 C   0  0  0  0  0  0  0  0  0  0  0  0
   21.7980   -3.1280   26.2390 C   0  0  0  0  0  0  0  0  0  0  0  0
   21.8930   -2.5330   24.9610 C   0  0  0  0  0  0  0  0  0  0  0  0
   19.0570   -2.6890   25.5970 C   0  0  0  0  0  0  0  0  0  0  0  0
   17.6610   -3.1890   25.8260 C   0  0  0  0  0  0  0  0  0  0  0  0
   13.6910   -1.8000   25.0470 C   0  0  0  0  0  0  0  0  0  0  0  0
   12.2870   -1.3620   24.8210 C   0  0  0  0  0  0  0  0  0  0  0  0
   12.6840    1.5890   22.9450 C   0  0  0  0  0  0  0  0  0  0  0  0
   12.3120    2.9660   22.9210 C   0  0  0  0  0  0  0  0  0  0  0  0
  2  1  1  0
  2  3  2  0
  2  4  2  0
  2  5  1  0
  5  6  2  0
  6  7  1  0
  7  8  2  0
  8  9  1  0
  9 10  1  0
 10 11  1  0
 11 12  1  0
 12 13  1  0
 13 14  1  0
 14 15  1  0
 15 16  1  0
 16 17  1  0
 17 18  1  0
 18 19  2  0
 19 20  1  0
 20 21  2  0
 21 22  1  0
 22 23  1  0
 23 24  2  0
 24 25  1  0
 25 26  2  0
 18 27  1  0
 22 27  2  0
 26 27  1  0
 17 28  1  0
 14 29  1  0
 28 29  1  0
 12 30  1  0
  9 31  1  0
 30 31  1  0
  8 32  1  0
  5 33  1  0
 32 33  2  0
M  END
