WAR-XCH-79d12f6e-10
     RDKit          3D

 20 21  0  0  0  0  0  0  0  0999 V2000
    6.2130   -5.4510   26.2500 O   0  0  0  0  0  0  0  0  0  0  0  0
    5.8210   -5.3920   25.0920 C   0  0  0  0  0  0  0  0  0  0  0  0
    6.1670   -4.4370   24.1120 N   0  0  0  0  0  0  0  0  0  0  0  0
    5.3330   -4.2530   22.9920 C   0  0  0  0  0  0  0  0  0  0  0  0
    5.6730   -5.2360   22.1530 C   0  0  0  0  0  0  0  0  0  0  0  0
    6.3920   -5.0230   23.4150 C   0  0  0  0  0  0  0  0  0  0  0  0
    6.0430   -3.8800   24.3970 C   0  0  0  0  0  0  0  0  0  0  0  0
    4.9890   -2.9130   24.2060 C   0  0  0  0  0  0  0  0  0  0  0  0
    4.4740   -3.2580   23.0440 C   0  0  0  0  0  0  0  0  0  0  0  0
    4.8970   -6.3840   24.6500 N   0  0  0  0  0  0  0  0  0  0  0  0
    3.4430   -6.7580   25.4290 S   0  0  0  0  0  0  0  0  0  0  0  0
    2.7070   -7.6370   24.5450 O   0  0  0  0  0  0  0  0  0  0  0  0
    3.7880   -7.2220   26.7540 O   0  0  0  0  0  0  0  0  0  0  0  0
    2.4300   -5.3490   25.7720 C   0  0  0  0  0  0  0  0  0  0  0  0
    1.3400   -4.9240   24.7810 C   0  0  0  0  0  0  0  0  0  0  0  0
    0.7670   -3.7650   25.4260 C   0  0  0  0  0  0  0  0  0  0  0  0
    0.7350   -2.8630   26.5020 C   0  0  0  0  0  0  0  0  0  0  0  0
   -0.2280   -1.4960   26.8660 Cl  0  0  0  0  0  0  0  0  0  0  0  0
    1.7500   -3.3050   27.3620 C   0  0  0  0  0  0  0  0  0  0  0  0
    2.6100   -4.5750   26.9810 C   0  0  0  0  0  0  0  0  0  0  0  0
  1  2  2  0
  2  3  1  0
  3  4  1  0
  4  5  2  0
  5  6  1  0
  6  7  2  0
  7  8  1  0
  4  9  1  0
  8  9  2  0
  2 10  1  0
 11 10  1  0
 11 12  2  0
 11 13  2  0
 11 14  1  0
 14 15  2  0
 15 16  1  0
 16 17  2  0
 17 18  1  0
 17 19  1  0
 14 20  1  0
 19 20  2  0
M  END
