WAR-XCH-b72a1bbc-35
     RDKit          3D

 25 27  0  0  0  0  0  0  0  0999 V2000
    8.8580    5.7750   22.6170 N   0  0  0  0  0  0  0  0  0  0  0  0
   10.3210    5.7940   23.4450 S   0  0  0  0  0  0  0  0  0  0  0  0
   11.2110    6.6250   22.6850 O   0  0  0  0  0  0  0  0  0  0  0  0
   10.0310    6.0260   24.8410 O   0  0  0  0  0  0  0  0  0  0  0  0
   10.8410    4.1170   23.2630 C   0  0  0  0  0  0  0  0  0  0  0  0
    9.9280    3.0960   23.4640 C   0  0  0  0  0  0  0  0  0  0  0  0
   10.3440    1.7840   23.3390 C   0  0  0  0  0  0  0  0  0  0  0  0
   11.6700    1.4780   23.0290 C   0  0  0  0  0  0  0  0  0  0  0  0
   12.0640    0.1560   22.9540 N   0  0  0  0  0  0  0  0  0  0  0  0
   10.9590   -0.6270   22.5570 C   0  0  0  0  0  0  0  0  0  0  0  0
   11.6540   -1.8000   22.0380 C   0  0  0  0  0  0  0  0  0  0  0  0
   13.0550   -1.8220   22.5910 C   0  0  0  0  0  0  0  0  0  0  0  0
   13.3110   -3.1850   22.5610 C   0  0  0  0  0  0  0  0  0  0  0  0
   12.4530   -3.7240   21.0800 S   0  0  0  0  0  0  0  0  0  0  0  0
   13.9110   -4.2640   20.4450 C   0  0  0  0  0  0  0  0  0  0  0  0
   14.0530   -3.3680   19.9730 C   0  0  0  0  0  0  0  0  0  0  0  0
   15.1190   -3.2050   19.2220 C   0  0  0  0  0  0  0  0  0  0  0  0
   16.1790   -4.0110   18.9590 C   0  0  0  0  0  0  0  0  0  0  0  0
   16.0800   -5.0550   19.5030 N   0  0  0  0  0  0  0  0  0  0  0  0
   14.9360   -5.0390   20.1620 C   0  0  0  0  0  0  0  0  0  0  0  0
   15.1590   -6.2940   20.5100 Cl  0  0  0  0  0  0  0  0  0  0  0  0
   13.0760   -1.6050   24.0410 C   0  0  0  0  0  0  0  0  0  0  0  0
   12.4790   -0.4630   24.2200 C   0  0  0  0  0  0  0  0  0  0  0  0
   12.5600    2.5180   22.8170 C   0  0  0  0  0  0  0  0  0  0  0  0
   12.1660    3.8420   22.9250 C   0  0  0  0  0  0  0  0  0  0  0  0
  2  1  1  0
  2  3  2  0
  2  4  2  0
  2  5  1  0
  5  6  2  0
  6  7  1  0
  7  8  2  0
  8  9  1  0
  9 10  1  0
 10 11  1  0
 11 12  1  0
 12 13  1  0
 13 14  1  0
 14 15  1  0
 15 16  2  0
 16 17  1  0
 17 18  2  0
 18 19  1  0
 15 20  1  0
 19 20  2  0
 20 21  1  0
 12 22  1  0
  9 23  1  0
 22 23  1  0
  8 24  1  0
  5 25  1  0
 24 25  2  0
M  END
