WAR-XCH-b72a1bbc-25
     RDKit          3D

 30 33  0  0  0  0  0  0  0  0999 V2000
    1.5650  -11.5680   26.3280 N   0  0  0  0  0  0  0  0  0  0  0  0
    0.4340  -10.3850   25.9330 S   0  0  0  0  0  0  0  0  0  0  0  0
    0.2570  -10.4490   24.5000 O   0  0  0  0  0  0  0  0  0  0  0  0
   -0.6760  -10.5090   26.8510 O   0  0  0  0  0  0  0  0  0  0  0  0
    1.3250   -8.9100   26.3390 C   0  0  0  0  0  0  0  0  0  0  0  0
    1.0290   -8.2280   27.5190 C   0  0  0  0  0  0  0  0  0  0  0  0
    1.7340   -7.0680   27.8410 C   0  0  0  0  0  0  0  0  0  0  0  0
    2.7420   -6.5620   27.0030 C   0  0  0  0  0  0  0  0  0  0  0  0
    3.4450   -5.3920   27.3510 N   0  0  0  0  0  0  0  0  0  0  0  0
    3.1240   -4.2100   26.5250 C   0  0  0  0  0  0  0  0  0  0  0  0
    4.4230   -3.4920   26.1300 C   0  0  0  0  0  0  0  0  0  0  0  0
    5.3980   -4.4120   25.3730 C   0  0  0  0  0  0  0  0  0  0  0  0
    6.7420   -3.7620   24.9850 C   0  0  0  0  0  0  0  0  0  0  0  0
    7.0100   -2.7740   23.9550 N   0  0  0  0  0  0  0  0  0  0  0  0
    6.1310   -1.6230   23.8880 C   0  0  0  0  0  0  0  0  0  0  0  0
    6.5050   -0.7830   22.8370 C   0  0  0  0  0  0  0  0  0  0  0  0
    7.8410   -0.3800   22.7480 C   0  0  0  0  0  0  0  0  0  0  0  0
    8.8400   -1.3520   22.8450 C   0  0  1  0  0  0  0  0  0  0  0  0
   10.1480   -0.9120   22.9870 C   0  0  0  0  0  0  0  0  0  0  0  0
   10.5110    0.4130   22.7130 C   0  0  0  0  0  0  0  0  0  0  0  0
   11.8240    0.8600   22.8470 C   0  0  0  0  0  0  0  0  0  0  0  0
   12.8690   -0.1310   23.3090 C   0  0  0  0  0  0  0  0  0  0  0  0
   12.4560   -1.4200   23.5750 C   0  0  0  0  0  0  0  0  0  0  0  0
   13.5430   -2.6110   24.1250 Cl  0  0  0  0  0  0  0  0  0  0  0  0
   11.1360   -1.8040   23.4160 C   0  0  0  0  0  0  0  0  0  0  0  0
    8.4420   -2.4300   23.8880 C   0  0  0  0  0  0  0  0  0  0  0  0
    5.5360   -5.7360   26.1280 C   0  0  0  0  0  0  0  0  0  0  0  0
    4.8840   -5.6400   27.5040 C   0  0  0  0  0  0  0  0  0  0  0  0
    3.0160   -7.2750   25.8150 C   0  0  0  0  0  0  0  0  0  0  0  0
    2.3200   -8.4390   25.4780 C   0  0  0  0  0  0  0  0  0  0  0  0
  2  1  1  0
  2  3  2  0
  2  4  2  0
  2  5  1  0
  5  6  2  0
  6  7  1  0
  7  8  2  0
  8  9  1  0
  9 10  1  0
 10 11  1  0
 11 12  1  0
 12 13  1  0
 13 14  1  0
 14 15  1  0
 15 16  1  0
 16 17  1  0
 17 18  1  0
 18 19  1  1
 19 20  2  0
 20 21  1  0
 21 22  2  0
 22 23  1  0
 23 24  1  0
 19 25  1  0
 23 25  2  0
 14 26  1  0
 18 26  1  0
 12 27  1  0
  9 28  1  0
 27 28  1  0
  8 29  1  0
  5 30  1  0
 29 30  2  0
M  END
