WAR-XCH-b6889685-55
     RDKit          3D

 24 26  0  0  0  0  0  0  0  0999 V2000
    8.4610   -1.9100   24.2060 C   0  0  0  0  0  0  0  0  0  0  0  0
    9.8450   -1.9950   24.6710 N   0  0  0  0  0  0  0  0  0  0  0  0
   10.7030   -2.8080   23.8270 C   0  0  0  0  0  0  0  0  0  0  0  0
   10.6910   -2.4120   22.4880 C   0  0  0  0  0  0  0  0  0  0  0  0
   11.8440   -2.0860   21.8020 C   0  0  0  0  0  0  0  0  0  0  0  0
   13.1090   -2.3190   22.3190 C   0  0  0  0  0  0  0  0  0  0  0  0
   13.3500   -2.5370   23.6790 C   0  0  0  0  0  0  0  0  0  0  0  0
   12.0960   -2.8280   24.5170 C   0  0  0  0  0  0  0  0  0  0  0  0
   10.4490   -0.7270   25.0270 C   0  0  0  0  0  0  0  0  0  0  0  0
   12.0280   -0.7910   25.0240 C   0  0  0  0  0  0  0  0  0  0  0  0
   12.6490   -0.4120   23.6740 C   0  0  0  0  0  0  0  0  0  0  0  0
   11.7790    0.4060   22.8570 N   0  0  0  0  0  0  0  0  0  0  0  0
   11.6700    1.7370   23.0550 C   0  0  0  0  0  0  0  0  0  0  0  0
   10.4100    2.1070   23.4860 C   0  0  0  0  0  0  0  0  0  0  0  0
   10.1160    3.4320   23.7090 C   0  0  0  0  0  0  0  0  0  0  0  0
   11.0730    4.4010   23.5000 C   0  0  0  0  0  0  0  0  0  0  0  0
   10.6160    6.0730   23.7760 S   0  0  0  0  0  0  0  0  0  0  0  0
    9.2900    6.1750   22.7480 N   0  0  0  0  0  0  0  0  0  0  0  0
   11.6290    6.9150   23.2080 O   0  0  0  0  0  0  0  0  0  0  0  0
   10.1060    6.2110   25.1180 O   0  0  0  0  0  0  0  0  0  0  0  0
   12.3410    4.0260   23.0760 C   0  0  0  0  0  0  0  0  0  0  0  0
   12.6470    2.6960   22.8580 C   0  0  0  0  0  0  0  0  0  0  0  0
   10.4010   -0.0230   22.8100 C   0  0  0  0  0  0  0  0  0  0  0  0
    9.8400    0.3670   24.1600 C   0  0  0  0  0  0  0  0  0  0  0  0
  1  2  1  0
  2  3  1  0
  3  4  1  0
  4  5  1  0
  5  6  1  0
  6  7  1  0
  3  8  1  0
  7  8  1  0
  2  9  1  0
  9 10  1  0
 10 11  1  0
 11 12  1  0
 12 13  1  0
 13 14  2  0
 14 15  1  0
 15 16  2  0
 16 17  1  0
 17 18  1  0
 17 19  2  0
 17 20  2  0
 16 21  1  0
 13 22  1  0
 21 22  2  0
 12 23  1  0
  9 24  1  0
 23 24  1  0
M  END
