WAR-XCH-b72a1bbc-22
     RDKit          3D

 33 37  0  0  0  0  0  0  0  0999 V2000
   -0.4600   -3.8430   32.5960 N   0  0  0  0  0  0  0  0  0  0  0  0
    0.7090   -4.8990   33.1720 S   0  0  0  0  0  0  0  0  0  0  0  0
    1.3250   -4.2310   34.2940 O   0  0  0  0  0  0  0  0  0  0  0  0
    0.0520   -6.1810   33.3070 O   0  0  0  0  0  0  0  0  0  0  0  0
    1.8490   -4.9620   31.8240 C   0  0  0  0  0  0  0  0  0  0  0  0
    2.7370   -3.9060   31.6120 C   0  0  0  0  0  0  0  0  0  0  0  0
    3.6340   -3.9640   30.5400 C   0  0  0  0  0  0  0  0  0  0  0  0
    3.6720   -5.0620   29.6630 C   0  0  0  0  0  0  0  0  0  0  0  0
    4.5890   -5.0790   28.5980 N   0  0  0  0  0  0  0  0  0  0  0  0
    5.7000   -6.0390   28.6660 C   0  0  0  0  0  0  0  0  0  0  0  0
    6.9430   -5.4650   27.9810 C   0  0  0  0  0  0  0  0  0  0  0  0
    6.6270   -4.9380   26.5640 C   0  0  0  0  0  0  0  0  0  0  0  0
    7.8790   -4.2880   25.9280 C   0  0  0  0  0  0  0  0  0  0  0  0
    7.6260   -3.3840   24.7710 N   0  0  0  0  0  0  0  0  0  0  0  0
    7.0150   -3.9790   23.5820 C   0  0  0  0  0  0  0  0  0  0  0  0
    6.8610   -2.9560   22.4420 C   0  0  0  0  0  0  0  0  0  0  0  0
    5.7390   -3.2500   21.4560 C   0  0  0  0  0  0  0  0  0  0  0  0
    5.6630   -2.2060   20.3830 C   0  0  0  0  0  0  0  0  0  0  0  0
    6.4960   -1.1010   20.2690 C   0  0  0  0  0  0  0  0  0  0  0  0
    7.5360   -0.9060   21.2560 C   0  0  0  0  0  0  0  0  0  0  0  0
    7.6920   -1.8100   22.2980 C   0  0  0  0  0  0  0  0  0  0  0  0
    8.7790   -1.5870   23.3540 C   0  0  2  0  0  0  0  0  0  0  0  0
   10.2240   -1.1290   22.9900 C   0  0  0  0  0  0  0  0  0  0  0  0
   10.6070    0.1830   23.2700 C   0  0  0  0  0  0  0  0  0  0  0  0
   12.0290    0.6540   22.9700 C   0  0  0  0  0  0  0  0  0  0  0  0
   12.9230   -0.2350   22.4170 C   0  0  0  0  0  0  0  0  0  0  0  0
   12.5080   -1.5400   22.1290 C   0  0  0  0  0  0  0  0  0  0  0  0
   11.1930   -1.9750   22.4080 C   0  0  0  0  0  0  0  0  0  0  0  0
    8.8920   -2.7660   24.3640 C   0  0  0  0  0  0  0  0  0  0  0  0
    5.4330   -3.9680   26.5790 C   0  0  0  0  0  0  0  0  0  0  0  0
    4.2120   -4.5630   27.2770 C   0  0  0  0  0  0  0  0  0  0  0  0
    2.7650   -6.1070   29.9060 C   0  0  0  0  0  0  0  0  0  0  0  0
    1.8580   -6.0670   30.9730 C   0  0  0  0  0  0  0  0  0  0  0  0
  2  1  1  0
  2  3  2  0
  2  4  2  0
  2  5  1  0
  5  6  2  0
  6  7  1  0
  7  8  2  0
  8  9  1  0
  9 10  1  0
 10 11  1  0
 11 12  1  0
 12 13  1  0
 13 14  1  0
 14 15  1  0
 15 16  1  0
 16 17  2  0
 17 18  1  0
 18 19  2  0
 19 20  1  0
 16 21  1  0
 20 21  2  0
 21 22  1  0
 22 23  1  6
 23 24  2  0
 24 25  1  0
 25 26  2  0
 26 27  1  0
 23 28  1  0
 27 28  2  0
 14 29  1  0
 22 29  1  0
 12 30  1  0
  9 31  1  0
 30 31  1  0
  8 32  1  0
  5 33  1  0
 32 33  2  0
M  END
