WAR-XCH-b6889685-32
     RDKit          3D

 23 25  0  0  0  0  0  0  0  0999 V2000
    9.0990    6.4230   22.5970 N   0  0  0  0  0  0  0  0  0  0  0  0
   10.3650    6.2390   23.6800 S   0  0  0  0  0  0  0  0  0  0  0  0
   11.4430    7.0590   23.2080 O   0  0  0  0  0  0  0  0  0  0  0  0
    9.8060    6.3500   25.0090 O   0  0  0  0  0  0  0  0  0  0  0  0
   10.7950    4.5790   23.3840 C   0  0  0  0  0  0  0  0  0  0  0  0
    9.7810    3.6380   23.4380 C   0  0  0  0  0  0  0  0  0  0  0  0
   10.0810    2.3220   23.2090 C   0  0  0  0  0  0  0  0  0  0  0  0
   11.3820    1.9430   22.9350 C   0  0  0  0  0  0  0  0  0  0  0  0
   11.5920    0.6410   22.7450 N   0  0  0  0  0  0  0  0  0  0  0  0
   12.9170    0.2160   23.1920 C   0  0  0  0  0  0  0  0  0  0  0  0
   13.2520   -0.9370   22.3470 C   0  0  0  0  0  0  0  0  0  0  0  0
   12.0490   -1.7610   22.4750 C   0  0  0  0  0  0  0  0  0  0  0  0
   12.5000   -3.0980   22.4220 N   0  0  0  0  0  0  0  0  0  0  0  0
   13.4760   -3.4270   21.5550 C   0  0  0  0  0  0  0  0  0  0  0  0
   13.5220   -2.5030   20.6170 C   0  0  0  0  0  0  0  0  0  0  0  0
   14.5490   -3.1650   19.8480 C   0  0  0  0  0  0  0  0  0  0  0  0
   15.1260   -4.3870   20.1920 C   0  0  0  0  0  0  0  0  0  0  0  0
   16.1930   -5.5400   19.8420 Br  0  0  0  0  0  0  0  0  0  0  0  0
   14.7630   -4.8270   21.2320 S   0  0  0  0  0  0  0  0  0  0  0  0
   10.7510   -1.4380   21.8660 C   0  0  0  0  0  0  0  0  0  0  0  0
   10.3900   -0.2200   22.6310 C   0  0  0  0  0  0  0  0  0  0  0  0
   12.3940    2.8920   22.8770 C   0  0  0  0  0  0  0  0  0  0  0  0
   12.1100    4.2420   23.1010 C   0  0  0  0  0  0  0  0  0  0  0  0
  2  1  1  0
  2  3  2  0
  2  4  2  0
  2  5  1  0
  5  6  2  0
  6  7  1  0
  7  8  2  0
  8  9  1  0
  9 10  1  0
 10 11  1  0
 11 12  1  0
 12 13  1  0
 13 14  1  0
 14 15  2  0
 15 16  1  0
 16 17  2  0
 17 18  1  0
 14 19  1  0
 17 19  1  0
 12 20  1  0
  9 21  1  0
 20 21  1  0
  8 22  1  0
  5 23  1  0
 22 23  2  0
M  END
