WAR-XCH-b6889685-57
     RDKit          3D

 25 27  0  0  0  0  0  0  0  0999 V2000
    9.0520   -2.9450   23.6540 C   0  0  0  0  0  0  0  0  0  0  0  0
    9.0310   -1.5240   23.2460 N   0  0  0  0  0  0  0  0  0  0  0  0
   10.3470   -1.0500   23.0930 C   0  0  0  0  0  0  0  0  0  0  0  0
   10.6190    0.3190   23.0910 C   0  0  0  0  0  0  0  0  0  0  0  0
   11.9010    0.8470   22.9360 C   0  0  0  0  0  0  0  0  0  0  0  0
   12.9690    0.0100   22.7800 C   0  0  0  0  0  0  0  0  0  0  0  0
   14.1350    0.5630   22.6420 F   0  0  0  0  0  0  0  0  0  0  0  0
   12.8360   -1.4970   22.7620 C   0  0  0  0  0  0  0  0  0  0  0  0
   11.3890   -1.9770   22.9350 C   0  0  0  0  0  0  0  0  0  0  0  0
    8.1360   -1.1700   22.0940 C   0  0  0  0  0  0  0  0  0  0  0  0
    8.2340    0.2000   21.7790 C   0  0  0  0  0  0  0  0  0  0  0  0
    7.3800    0.5740   20.6700 C   0  0  0  0  0  0  0  0  0  0  0  0
    6.7000   -0.6470   20.2580 N   0  0  0  0  0  0  0  0  0  0  0  0
    5.9680   -0.7450   19.0810 C   0  0  0  0  0  0  0  0  0  0  0  0
    5.0050    0.1290   18.5720 C   0  0  0  0  0  0  0  0  0  0  0  0
    4.2300   -0.1730   17.3100 C   0  0  0  0  0  0  0  0  0  0  0  0
    4.0470   -1.4380   16.0370 C   0  0  0  0  0  0  0  0  0  0  0  0
    2.5440   -2.4470   13.2700 S   0  0  0  0  0  0  0  0  0  0  0  0
    3.5360   -2.1000   11.9820 N   0  0  0  0  0  0  0  0  0  0  0  0
    2.5600   -3.8920   13.0540 O   0  0  0  0  0  0  0  0  0  0  0  0
    1.3270   -1.8350   12.7790 O   0  0  0  0  0  0  0  0  0  0  0  0
    5.3320   -2.0090   17.0810 C   0  0  0  0  0  0  0  0  0  0  0  0
    6.0510   -1.7360   18.2360 C   0  0  0  0  0  0  0  0  0  0  0  0
    5.9090   -1.2150   21.3610 C   0  0  0  0  0  0  0  0  0  0  0  0
    6.6960   -1.4960   22.4530 C   0  0  0  0  0  0  0  0  0  0  0  0
  1  2  1  0
  2  3  1  0
  3  4  2  0
  4  5  1  0
  5  6  2  0
  6  7  1  0
  6  8  1  0
  3  9  1  0
  8  9  2  0
  2 10  1  0
 10 11  1  0
 11 12  1  0
 12 13  1  0
 13 14  1  0
 14 15  2  0
 15 16  1  0
 16 17  2  0
 17 18  1  0
 18 19  1  0
 18 20  2  0
 18 21  2  0
 17 22  1  0
 14 23  1  0
 22 23  2  0
 13 24  1  0
 10 25  1  0
 24 25  1  0
M  END
