WAR-XCH-b6889685-58
     RDKit          3D

 25 27  0  0  0  0  0  0  0  0999 V2000
   13.8430   -2.8160   25.6630 C   0  0  0  0  0  0  0  0  0  0  0  0
   12.8190   -2.3410   24.9050 C   0  0  0  0  0  0  0  0  0  0  0  0
   12.9230   -1.0290   24.4960 C   0  0  0  0  0  0  0  0  0  0  0  0
   12.0110   -0.3680   23.7400 C   0  0  0  0  0  0  0  0  0  0  0  0
   10.9300   -1.0760   23.3620 C   0  0  0  0  0  0  0  0  0  0  0  0
   10.7400   -2.5080   23.7500 C   0  0  0  0  0  0  0  0  0  0  0  0
    9.6410   -3.1020   23.2570 N   0  0  0  0  0  0  0  0  0  0  0  0
    8.3330   -2.8040   23.8320 C   0  0  0  0  0  0  0  0  0  0  0  0
    9.9730   -2.5090   21.9550 C   0  0  0  0  0  0  0  0  0  0  0  0
   11.5330   -2.1980   22.0200 C   0  0  0  0  0  0  0  0  0  0  0  0
   11.9320   -0.8820   22.7290 C   0  0  0  0  0  0  0  0  0  0  0  0
   10.8170    0.0850   22.5740 N   0  0  0  0  0  0  0  0  0  0  0  0
   10.9510    1.4310   22.8530 C   0  0  0  0  0  0  0  0  0  0  0  0
    9.6570    2.1010   23.2700 C   0  0  0  0  0  0  0  0  0  0  0  0
    9.7390    3.5660   23.5510 C   0  0  0  0  0  0  0  0  0  0  0  0
   10.9510    4.2230   23.4160 C   0  0  0  0  0  0  0  0  0  0  0  0
   10.8740    5.9440   23.7430 S   0  0  0  0  0  0  0  0  0  0  0  0
    9.5350    6.3270   22.7860 N   0  0  0  0  0  0  0  0  0  0  0  0
   11.9910    6.5830   23.1070 O   0  0  0  0  0  0  0  0  0  0  0  0
   10.5090    6.1520   25.1240 O   0  0  0  0  0  0  0  0  0  0  0  0
   12.1340    3.5700   23.0400 C   0  0  0  0  0  0  0  0  0  0  0  0
   12.1370    2.2000   22.7700 C   0  0  0  0  0  0  0  0  0  0  0  0
    9.4150   -0.3750   22.7100 C   0  0  0  0  0  0  0  0  0  0  0  0
    9.1210   -1.2840   21.7110 C   0  0  0  0  0  0  0  0  0  0  0  0
   11.7190   -3.0910   24.5330 C   0  0  0  0  0  0  0  0  0  0  0  0
  1  2  1  0
  2  3  2  0
  3  4  1  0
  4  5  2  0
  5  6  1  0
  6  7  1  0
  7  8  1  0
  7  9  1  0
  9 10  1  0
 10 11  1  0
 11 12  1  0
 12 13  1  0
 13 14  2  0
 14 15  1  0
 15 16  2  0
 16 17  1  0
 17 18  1  0
 17 19  2  0
 17 20  2  0
 16 21  1  0
 13 22  1  0
 21 22  2  0
 12 23  1  0
  9 24  1  0
 23 24  1  0
  2 25  1  0
  6 25  2  0
M  END
