WAR-XCH-79d12f6e-13
     RDKit          3D

 26 29  0  0  0  0  0  0  0  0999 V2000
    3.9180   -1.0260   25.3600 O   0  0  0  0  0  0  0  0  0  0  0  0
    4.8650   -1.2120   24.6010 C   0  0  0  0  0  0  0  0  0  0  0  0
    5.2270   -2.6070   24.2600 C   0  0  0  0  0  0  0  0  0  0  0  0
    4.6340   -3.6990   24.7520 C   0  0  0  0  0  0  0  0  0  0  0  0
    4.9810   -5.1430   24.4480 C   0  0  0  0  0  0  0  0  0  0  0  0
    5.9920   -5.4590   23.5930 N   0  0  0  0  0  0  0  0  0  0  0  0
    6.6010   -4.3450   23.0730 C   0  0  0  0  0  0  0  0  0  0  0  0
    6.2570   -2.8800   23.3700 C   0  0  0  0  0  0  0  0  0  0  0  0
    7.1050   -1.8300   22.6420 C   0  0  0  0  0  0  0  0  0  0  0  0
    8.5630   -1.8530   23.1170 C   0  0  0  0  0  0  0  0  0  0  0  0
    9.4350   -0.9360   22.5370 C   0  0  0  0  0  0  0  0  0  0  0  0
   10.9290   -0.7720   22.8730 C   0  0  0  0  0  0  0  0  0  0  0  0
   11.1440    0.7220   22.8910 C   0  0  0  0  0  0  0  0  0  0  0  0
   12.4060    1.3130   22.8490 C   0  0  0  0  0  0  0  0  0  0  0  0
   12.6130    2.6840   22.8400 C   0  0  0  0  0  0  0  0  0  0  0  0
   11.5220    3.5410   22.8790 C   0  0  0  0  0  0  0  0  0  0  0  0
   10.2430    2.9920   22.9260 C   0  0  0  0  0  0  0  0  0  0  0  0
   10.0460    1.6080   22.9330 C   0  0  0  0  0  0  0  0  0  0  0  0
   11.8590   -1.3440   22.0080 C   0  0  0  0  0  0  0  0  0  0  0  0
   12.4000   -2.6450   22.5230 C   0  0  0  0  0  0  0  0  0  0  0  0
   13.2930   -2.4420   23.7300 C   0  0  0  0  0  0  0  0  0  0  0  0
   12.7370   -1.3950   24.6350 C   0  0  0  0  0  0  0  0  0  0  0  0
   11.2510   -1.3950   24.2820 C   0  0  0  0  0  0  0  0  0  0  0  0
    8.8960   -0.0780   21.5710 C   0  0  0  0  0  0  0  0  0  0  0  0
    7.5440   -0.1410   21.1980 C   0  0  0  0  0  0  0  0  0  0  0  0
    6.6580   -1.0010   21.7210 N   0  0  0  0  0  0  0  0  0  0  0  0
  1  2  1  0
  2  3  1  0
  3  4  2  0
  4  5  1  0
  5  6  2  0
  6  7  1  0
  3  8  1  0
  7  8  2  0
  8  9  1  0
  9 10  2  0
 10 11  1  0
 12 11  1  0
 12 13  1  0
 13 14  2  0
 14 15  1  0
 15 16  2  0
 16 17  1  0
 13 18  1  0
 17 18  2  0
 12 19  1  0
 19 20  1  0
 20 21  1  0
 21 22  1  0
 12 23  1  0
 22 23  1  0
 11 24  2  0
 24 25  1  0
  9 26  1  0
 25 26  2  0
M  END
