WAR-XCH-e55cba98-4
     RDKit          3D

 28 31  0  0  0  0  0  0  0  0999 V2000
    7.8490   -6.0800   23.7220 O   0  0  0  0  0  0  0  0  0  0  0  0
    7.1980   -4.8180   23.4820 S   0  0  0  0  0  0  0  0  0  0  0  0
    7.3820   -4.0770   22.2670 O   0  0  0  0  0  0  0  0  0  0  0  0
    5.4200   -5.2140   23.5130 C   0  0  0  0  0  0  0  0  0  0  0  0
    4.8310   -6.5240   23.2970 C   0  0  0  0  0  0  0  0  0  0  0  0
    3.5230   -6.6610   23.3510 C   0  0  0  0  0  0  0  0  0  0  0  0
    2.8380   -5.1230   23.6870 S   0  0  0  0  0  0  0  0  0  0  0  0
    4.3810   -4.3270   23.7450 C   0  0  0  0  0  0  0  0  0  0  0  0
    7.5670   -3.7780   24.7780 N   0  0  0  0  0  0  0  0  0  0  0  0
    7.1430   -2.4770   24.6290 C   0  0  0  0  0  0  0  0  0  0  0  0
    8.2710   -1.4510   24.6250 C   0  0  0  0  0  0  0  0  0  0  0  0
    9.2890   -2.0060   23.9020 N   0  0  0  0  0  0  0  0  0  0  0  0
   10.0630   -0.9840   23.5330 C   0  0  0  0  0  0  0  0  0  0  0  0
    9.5120    0.4220   23.2160 C   0  0  0  0  0  0  0  0  0  0  0  0
    9.1980    0.5840   21.7500 C   0  0  0  0  0  0  0  0  0  0  0  0
    7.8940    0.4550   21.2430 C   0  0  0  0  0  0  0  0  0  0  0  0
    7.4610   -0.6500   20.5130 C   0  0  0  0  0  0  0  0  0  0  0  0
    6.1480   -0.6820   20.0490 C   0  0  0  0  0  0  0  0  0  0  0  0
    5.3000    0.3920   20.3250 C   0  0  0  0  0  0  0  0  0  0  0  0
    5.7670    1.4960   21.0620 C   0  0  0  0  0  0  0  0  0  0  0  0
    7.0300    1.6030   21.5480 N   0  0  0  0  0  0  0  0  0  0  0  0
   10.8200   -1.5240   22.2930 C   0  0  0  0  0  0  0  0  0  0  0  0
   12.3200   -1.7430   22.4830 C   0  0  0  0  0  0  0  0  0  0  0  0
   13.0230   -0.6270   23.2560 C   0  0  0  0  0  0  0  0  0  0  0  0
   12.2370   -0.0270   24.2320 C   0  0  0  0  0  0  0  0  0  0  0  0
   11.1500   -0.7560   24.6440 C   0  0  0  0  0  0  0  0  0  0  0  0
    9.9050   -3.1240   24.6450 C   0  0  0  0  0  0  0  0  0  0  0  0
    8.9620   -3.9170   25.3240 C   0  0  0  0  0  0  0  0  0  0  0  0
  1  2  2  0
  2  3  2  0
  2  4  1  0
  4  5  1  0
  5  6  2  0
  6  7  1  0
  4  8  2  0
  7  8  1  0
  2  9  1  0
  9 10  1  0
 10 11  1  0
 11 12  1  0
 12 13  1  0
 13 14  1  0
 14 15  3  0
 15 16  1  0
 16 17  2  0
 17 18  1  0
 18 19  2  0
 19 20  1  0
 16 21  1  0
 20 21  2  0
 13 22  1  0
 22 23  1  0
 23 24  1  0
 24 25  1  0
 13 26  1  0
 25 26  1  0
 12 27  1  0
  9 28  1  0
 27 28  1  0
M  END
