WAR-XCH-b6889685-56
     RDKit          3D

 25 27  0  0  0  0  0  0  0  0999 V2000
   15.0090   -4.4050   21.2900 C   0  0  0  0  0  0  0  0  0  0  0  0
   13.7820   -3.5430   21.8070 C   0  0  0  0  0  0  0  0  0  0  0  0
   12.7790   -3.1020   20.9170 C   0  0  0  0  0  0  0  0  0  0  0  0
   11.5710   -2.5630   21.3560 C   0  0  0  0  0  0  0  0  0  0  0  0
   11.2750   -2.4010   22.6790 C   0  0  0  0  0  0  0  0  0  0  0  0
    9.9970   -1.9720   23.0140 N   0  0  0  0  0  0  0  0  0  0  0  0
    9.0890   -2.7650   23.8310 C   0  0  0  0  0  0  0  0  0  0  0  0
   10.3410   -0.7830   23.4840 C   0  0  0  0  0  0  0  0  0  0  0  0
   11.4340   -1.2610   24.4750 C   0  0  0  0  0  0  0  0  0  0  0  0
   12.7560   -0.6140   24.1970 C   0  0  0  0  0  0  0  0  0  0  0  0
   12.6730    0.1160   22.9430 N   0  0  0  0  0  0  0  0  0  0  0  0
   11.9110    1.2870   22.9430 C   0  0  0  0  0  0  0  0  0  0  0  0
   10.3900    1.3070   23.1010 C   0  0  0  0  0  0  0  0  0  0  0  0
    9.7300    2.7160   23.1640 C   0  0  0  0  0  0  0  0  0  0  0  0
   10.6460    3.9360   23.0470 C   0  0  0  0  0  0  0  0  0  0  0  0
   10.0480    5.5970   23.1720 S   0  0  0  0  0  0  0  0  0  0  0  0
    8.5090    5.5140   22.5130 N   0  0  0  0  0  0  0  0  0  0  0  0
   10.8420    6.4290   22.3060 O   0  0  0  0  0  0  0  0  0  0  0  0
    9.9030    5.8940   24.5820 O   0  0  0  0  0  0  0  0  0  0  0  0
   11.9970    3.7410   22.8460 C   0  0  0  0  0  0  0  0  0  0  0  0
   12.5380    2.4780   22.8050 C   0  0  0  0  0  0  0  0  0  0  0  0
   12.1640   -0.7780   22.0350 C   0  0  0  0  0  0  0  0  0  0  0  0
   10.8660   -0.2960   22.1530 C   0  0  0  0  0  0  0  0  0  0  0  0
   12.2930   -2.6880   23.5900 C   0  0  0  0  0  0  0  0  0  0  0  0
   13.5070   -3.2200   23.1820 C   0  0  0  0  0  0  0  0  0  0  0  0
  1  2  1  0
  2  3  2  0
  3  4  1  0
  4  5  2  0
  5  6  1  0
  6  7  1  0
  6  8  1  0
  8  9  1  0
  9 10  1  0
 10 11  1  0
 11 12  1  0
 12 13  2  0
 13 14  1  0
 14 15  2  0
 15 16  1  0
 16 17  1  0
 16 18  2  0
 16 19  2  0
 15 20  1  0
 12 21  1  0
 20 21  2  0
 11 22  1  0
  8 23  1  0
 22 23  1  0
  5 24  1  0
  2 25  1  0
 24 25  2  0
M  END
