WAR-XCH-bdd24732-21
     RDKit          3D

 30 33  0  0  0  0  0  0  0  0999 V2000
    2.0030   -9.9010   34.9490 O   0  0  0  0  0  0  0  0  0  0  0  0
    2.9920   -9.3660   34.4580 C   0  0  0  0  0  0  0  0  0  0  0  0
    4.3420   -9.6750   34.9980 C   0  0  0  0  0  0  0  0  0  0  0  0
    4.5480  -10.8120   35.8120 C   0  0  0  0  0  0  0  0  0  0  0  0
    5.8890  -11.1600   36.3770 C   0  0  0  0  0  0  0  0  0  0  0  0
    6.9680  -10.3690   36.1130 N   0  0  0  0  0  0  0  0  0  0  0  0
    6.8440   -9.2570   35.3350 C   0  0  0  0  0  0  0  0  0  0  0  0
    5.5820   -8.7440   34.6760 C   0  0  0  0  0  0  0  0  0  0  0  0
    5.5160   -7.6440   33.9120 C   0  0  0  0  0  0  0  0  0  0  0  0
    5.1960   -8.0060   32.4860 C   0  0  0  0  0  0  0  0  0  0  0  0
    4.7520   -6.8700   31.5800 C   0  0  0  0  0  0  0  0  0  0  0  0
    3.5410   -6.1270   32.1220 C   0  0  0  0  0  0  0  0  0  0  0  0
    3.0270   -4.9910   31.3010 C   0  0  0  0  0  0  0  0  0  0  0  0
    3.6560   -4.5970   30.0250 N   0  0  0  0  0  0  0  0  0  0  0  0
    4.8360   -5.4150   29.6090 C   0  0  0  0  0  0  0  0  0  0  0  0
    5.3400   -4.9580   28.3840 C   0  0  0  0  0  0  0  0  0  0  0  0
    4.3540   -4.6300   27.4890 C   0  0  0  0  0  0  0  0  0  0  0  0
    2.9980   -4.6580   27.8330 C   0  0  0  0  0  0  0  0  0  0  0  0
    2.2130   -5.8000   27.6300 C   0  0  0  0  0  0  0  0  0  0  0  0
    2.5640   -6.9710   28.5620 C   0  0  0  0  0  0  0  0  0  0  0  0
    1.7370   -8.2600   28.3950 C   0  0  0  0  0  0  0  0  0  0  0  0
    0.6840   -8.1420   27.2970 C   0  0  0  0  0  0  0  0  0  0  0  0
    0.5130   -6.8720   26.4920 C   0  0  0  0  0  0  0  0  0  0  0  0
    1.2570   -5.7600   26.6680 N   0  0  0  0  0  0  0  0  0  0  0  0
    6.1460   -5.9910   27.6030 C   0  0  0  0  0  0  0  0  0  0  0  0
    6.0290   -5.6060   26.2230 C   0  0  0  0  0  0  0  0  0  0  0  0
    6.0660   -4.0830   26.0030 C   0  0  0  0  0  0  0  0  0  0  0  0
    6.2450   -3.1770   27.0670 C   0  0  0  0  0  0  0  0  0  0  0  0
    6.2180   -3.6850   28.3620 C   0  0  0  0  0  0  0  0  0  0  0  0
    5.3560   -6.5030   30.3560 C   0  0  0  0  0  0  0  0  0  0  0  0
  1  2  1  0
  2  3  1  0
  3  4  2  0
  4  5  1  0
  5  6  2  0
  6  7  1  0
  3  8  1  0
  7  8  2  0
  8  9  1  0
  9 10  1  0
 10 11  1  0
 11 12  2  0
 12 13  1  0
 13 14  2  0
 14 15  1  0
 15 16  1  0
 16 17  1  0
 17 18  3  0
 18 19  1  0
 19 20  2  0
 20 21  1  0
 21 22  2  0
 22 23  1  0
 19 24  1  0
 23 24  2  0
 16 25  1  0
 25 26  1  0
 26 27  1  0
 27 28  1  0
 16 29  1  0
 28 29  1  0
 11 30  1  0
 15 30  2  0
M  END
