WAR-XCH-eb7b662f-6
     RDKit          3D

 17 18  0  0  0  0  0  0  0  0999 V2000
   13.1470   -2.0150   21.2880 C   0  0  0  0  0  0  0  0  0  0  0  0
   12.3420   -1.3800   22.3290 C   0  0  0  0  0  0  0  0  0  0  0  0
   12.8560   -0.8740   23.5070 C   0  0  0  0  0  0  0  0  0  0  0  0
   12.0600   -0.2810   24.4780 C   0  0  0  0  0  0  0  0  0  0  0  0
   10.6860   -0.1820   24.2590 C   0  0  0  0  0  0  0  0  0  0  0  0
   10.1790   -0.6890   23.0710 C   0  0  0  0  0  0  0  0  0  0  0  0
    8.7600   -0.5940   22.8030 N   0  0  0  0  0  0  0  0  0  0  0  0
    8.3700    0.0920   21.6670 C   0  0  0  0  0  0  0  0  0  0  0  0
    8.9040    1.1380   21.2380 O   0  0  0  0  0  0  0  0  0  0  0  0
    7.2870   -0.5360   21.0670 N   0  0  0  0  0  0  0  0  0  0  0  0
    6.5050    0.0910   20.0920 C   0  0  0  0  0  0  0  0  0  0  0  0
    5.2130    0.8380   20.3380 C   0  0  0  0  0  0  0  0  0  0  0  0
    4.5270    1.4720   19.1420 C   0  0  0  0  0  0  0  0  0  0  0  0
    5.1440    1.3170   17.9300 C   0  0  0  0  0  0  0  0  0  0  0  0
    6.2980    0.6350   17.7360 N   0  0  0  0  0  0  0  0  0  0  0  0
    6.9270    0.0540   18.7800 C   0  0  0  0  0  0  0  0  0  0  0  0
   10.9850   -1.2810   22.1230 C   0  0  0  0  0  0  0  0  0  0  0  0
  1  2  1  0
  2  3  2  0
  3  4  1  0
  4  5  2  0
  5  6  1  0
  6  7  1  0
  7  8  1  0
  8  9  2  0
  8 10  1  0
 10 11  1  0
 11 12  2  0
 12 13  1  0
 13 14  2  0
 14 15  1  0
 11 16  1  0
 15 16  2  0
  2 17  1  0
  6 17  2  0
M  END
