WAR-XCH-b6889685-10
     RDKit          3D

 29 32  0  0  0  0  0  0  0  0999 V2000
    9.0310    5.8270   22.4930 N   0  0  0  0  0  0  0  0  0  0  0  0
   10.5170    5.8600   23.2650 S   0  0  0  0  0  0  0  0  0  0  0  0
   11.4770    6.4340   22.3680 O   0  0  0  0  0  0  0  0  0  0  0  0
   10.2520    6.4060   24.5790 O   0  0  0  0  0  0  0  0  0  0  0  0
   10.8870    4.1580   23.4630 C   0  0  0  0  0  0  0  0  0  0  0  0
    9.9370    3.4050   24.1200 C   0  0  0  0  0  0  0  0  0  0  0  0
   10.1400    2.0670   24.3790 C   0  0  0  0  0  0  0  0  0  0  0  0
   11.2850    1.3840   24.0060 C   0  0  0  0  0  0  0  0  0  0  0  0
   11.2880    0.0760   24.4080 N   0  0  0  0  0  0  0  0  0  0  0  0
   12.3750   -0.7120   23.9470 C   0  0  0  0  0  0  0  0  0  0  0  0
   12.1050   -0.6850   22.4670 C   0  0  0  0  0  0  0  0  0  0  0  0
   10.5760   -0.9040   22.1350 C   0  0  0  0  0  0  0  0  0  0  0  0
   10.3590   -2.3840   22.0300 C   0  0  0  0  0  0  0  0  0  0  0  0
   11.2660   -3.0410   22.8750 N   0  0  0  0  0  0  0  0  0  0  0  0
   12.6090   -2.4750   22.7520 C   0  0  0  0  0  0  0  0  0  0  0  0
   13.5800   -2.8250   23.8740 C   0  0  0  0  0  0  0  0  0  0  0  0
   12.9770   -3.3950   25.1570 C   0  0  0  0  0  0  0  0  0  0  0  0
   13.7960   -4.4070   26.0280 C   0  0  0  0  0  0  0  0  0  0  0  0
   13.8750   -4.2020   27.0570 C   0  0  0  0  0  0  0  0  0  0  0  0
   14.5190   -4.8280   28.1700 C   0  0  0  0  0  0  0  0  0  0  0  0
   15.2530   -5.9480   28.1730 C   0  0  0  0  0  0  0  0  0  0  0  0
   15.2840   -6.3200   27.2660 C   0  0  0  0  0  0  0  0  0  0  0  0
   14.5570   -5.5710   26.2020 C   0  0  0  0  0  0  0  0  0  0  0  0
   11.4480   -3.6490   25.1590 C   0  0  0  0  0  0  0  0  0  0  0  0
   10.6590   -2.8930   24.1620 C   0  0  0  0  0  0  0  0  0  0  0  0
    9.5420   -0.3360   23.1350 C   0  0  0  0  0  0  0  0  0  0  0  0
    9.9780   -0.5360   24.4430 C   0  0  0  0  0  0  0  0  0  0  0  0
   12.2730    2.0910   23.2990 C   0  0  0  0  0  0  0  0  0  0  0  0
   12.0610    3.5600   23.0150 C   0  0  0  0  0  0  0  0  0  0  0  0
  2  1  1  0
  2  3  2  0
  2  4  2  0
  2  5  1  0
  5  6  2  0
  6  7  1  0
  7  8  2  0
  8  9  1  0
  9 10  1  0
 10 11  1  0
 11 12  1  0
 12 13  1  0
 13 14  1  0
 14 15  1  0
 15 16  1  0
 16 17  1  0
 17 18  1  0
 18 19  2  0
 19 20  1  0
 20 21  2  0
 21 22  1  0
 18 23  1  0
 22 23  2  0
 17 24  1  0
 14 25  1  0
 24 25  1  0
 12 26  1  0
  9 27  1  0
 26 27  1  0
  8 28  1  0
  5 29  1  0
 28 29  2  0
M  END
