WAR-XCH-bdd24732-8
     RDKit          3D

 32 35  0  0  0  0  0  0  0  0999 V2000
    7.3820   -1.0700   25.5720 O   0  0  0  0  0  0  0  0  0  0  0  0
    6.3610   -2.0400   25.3830 S   0  0  0  0  0  0  0  0  0  0  0  0
    5.0200   -1.7030   25.7900 O   0  0  0  0  0  0  0  0  0  0  0  0
    6.7650   -3.4560   26.3470 C   0  0  0  0  0  0  0  0  0  0  0  0
    6.3790   -3.4350   27.7840 C   0  0  0  0  0  0  0  0  0  0  0  0
    6.7490   -4.6030   28.6110 C   0  0  0  0  0  0  0  0  0  0  0  0
    7.5000   -5.8040   28.0770 C   0  0  0  0  0  0  0  0  0  0  0  0
    7.8080   -5.6810   26.6260 C   0  0  0  0  0  0  0  0  0  0  0  0
    7.4460   -4.5730   25.8290 C   0  0  0  0  0  0  0  0  0  0  0  0
    7.8020   -4.6240   24.5380 F   0  0  0  0  0  0  0  0  0  0  0  0
    6.3900   -2.4210   23.7150 N   0  0  0  0  0  0  0  0  0  0  0  0
    6.6510   -1.3720   22.7870 C   0  0  1  0  0  0  0  0  0  0  0  0
    7.1340   -1.7230   21.5040 C   0  0  0  0  0  0  0  0  0  0  0  0
    6.9700   -0.7090   20.3860 C   0  0  0  0  0  0  0  0  0  0  0  0
    6.8710    0.6390   20.7350 C   0  0  1  0  0  0  0  0  0  0  0  0
    6.2420    1.3390   19.6600 O   0  0  0  0  0  0  0  0  0  0  0  0
    6.0930    0.9900   21.9990 C   0  0  0  0  0  0  0  0  0  0  0  0
    5.5900   -0.2700   22.6790 C   0  0  0  0  0  0  0  0  0  0  0  0
    7.1170   -3.6920   23.2570 C   0  0  0  0  0  0  0  0  0  0  0  0
    7.8820   -3.1600   22.0400 C   0  0  0  0  0  0  0  0  0  0  0  0
    9.2730   -2.8670   22.0470 C   0  0  0  0  0  0  0  0  0  0  0  0
   10.0250   -1.7080   22.3010 C   0  0  0  0  0  0  0  0  0  0  0  0
    9.4850   -0.4410   22.5090 C   0  0  0  0  0  0  0  0  0  0  0  0
   10.3540    0.6420   22.7660 C   0  0  0  0  0  0  0  0  0  0  0  0
   11.7270    0.4020   22.8010 C   0  0  0  0  0  0  0  0  0  0  0  0
   12.2760   -0.8090   22.5990 N   0  0  0  0  0  0  0  0  0  0  0  0
   11.4180   -1.8320   22.3540 C   0  0  0  0  0  0  0  0  0  0  0  0
    8.0990   -4.1650   24.3110 C   0  0  0  0  0  0  0  0  0  0  0  0
    8.0320   -5.5630   24.8530 C   0  0  0  0  0  0  0  0  0  0  0  0
    6.7170   -5.5320   25.5610 C   0  0  0  0  0  0  0  0  0  0  0  0
    5.6670   -5.4680   24.4590 C   0  0  0  0  0  0  0  0  0  0  0  0
    6.2120   -4.9570   23.0740 C   0  0  0  0  0  0  0  0  0  0  0  0
  1  2  2  0
  2  3  2  0
  2  4  1  0
  4  5  2  0
  5  6  1  0
  6  7  2  0
  7  8  1  0
  4  9  1  0
  8  9  2  0
  9 10  1  0
  2 11  1  0
 12 11  1  6
 12 13  1  0
 13 14  1  0
 14 15  1  0
 15 16  1  6
 15 17  1  0
 12 18  1  0
 17 18  1  0
 11 19  1  0
 19 20  1  0
 20 21  3  0
 21 22  1  0
 22 23  2  0
 23 24  1  0
 24 25  2  0
 25 26  1  0
 22 27  1  0
 26 27  2  0
 19 28  1  0
 28 29  1  0
 29 30  1  0
 30 31  1  0
 19 32  1  0
 31 32  1  0
M  END
