WAR-XCH-b6889685-43
     RDKit          3D

 24 26  0  0  0  0  0  0  0  0999 V2000
   21.5650  -30.4760   14.3700 N   0  0  0  0  0  0  0  0  0  0  0  0
   20.9390  -29.0690   13.7050 S   0  0  0  0  0  0  0  0  0  0  0  0
   21.7570  -28.7850   12.5500 O   0  0  0  0  0  0  0  0  0  0  0  0
   19.5170  -29.2880   13.6080 O   0  0  0  0  0  0  0  0  0  0  0  0
   21.2610  -27.8780   14.9740 C   0  0  0  0  0  0  0  0  0  0  0  0
   20.2820  -27.6100   15.9220 C   0  0  0  0  0  0  0  0  0  0  0  0
   20.5270  -26.6750   16.9280 C   0  0  0  0  0  0  0  0  0  0  0  0
   21.7500  -25.9890   17.0060 C   0  0  0  0  0  0  0  0  0  0  0  0
   21.9530  -25.0580   18.0330 N   0  0  0  0  0  0  0  0  0  0  0  0
   21.8630  -25.5470   19.4190 C   0  0  0  0  0  0  0  0  0  0  0  0
   22.1130  -24.4620   20.5030 C   0  0  0  0  0  0  0  0  0  0  0  0
   23.0160  -23.2830   20.0920 C   0  0  0  0  0  0  0  0  0  0  0  0
   22.9440  -22.0790   20.9540 N   0  0  0  0  0  0  0  0  0  0  0  0
   22.4660  -22.1950   22.3600 C   0  0  0  0  0  0  0  0  0  0  0  0
   22.8130  -21.0750   23.1690 C   0  0  0  0  0  0  0  0  0  0  0  0
   22.9730  -21.2820   24.6510 C   0  0  0  0  0  0  0  0  0  0  0  0
   23.0840  -19.9030   25.3470 C   0  0  0  0  0  0  0  0  0  0  0  0
   23.5600  -18.7860   24.4340 C   0  0  0  0  0  0  0  0  0  0  0  0
   23.9900  -18.9000   23.1160 C   0  0  0  0  0  0  0  0  0  0  0  0
   23.9910  -20.2430   22.6150 C   0  0  0  0  0  0  0  0  0  0  0  0
   22.7230  -22.8900   18.6470 C   0  0  0  0  0  0  0  0  0  0  0  0
   23.0490  -24.1270   17.8510 C   0  0  0  0  0  0  0  0  0  0  0  0
   22.7210  -26.2800   16.0330 C   0  0  0  0  0  0  0  0  0  0  0  0
   22.4850  -27.2180   15.0190 C   0  0  0  0  0  0  0  0  0  0  0  0
  2  1  1  0
  2  3  2  0
  2  4  2  0
  2  5  1  0
  5  6  2  0
  6  7  1  0
  7  8  2  0
  8  9  1  0
  9 10  1  0
 10 11  1  0
 11 12  1  0
 12 13  1  0
 13 14  1  0
 14 15  1  0
 15 16  1  0
 16 17  1  0
 17 18  1  0
 18 19  1  0
 15 20  1  0
 19 20  1  0
 12 21  1  0
  9 22  1  0
 21 22  1  0
  8 23  1  0
  5 24  1  0
 23 24  2  0
M  END
