WAR-XCH-72a8c209-13
     RDKit          3D

 27 29  0  0  0  0  0  0  0  0999 V2000
    1.5740   -8.1820   26.6650 C   0  0  0  0  0  0  0  0  0  0  0  0
    2.8260   -7.8650   25.9370 C   0  0  0  0  0  0  0  0  0  0  0  0
    3.7060   -6.8970   26.2350 C   0  0  0  0  0  0  0  0  0  0  0  0
    3.6630   -6.3010   27.3030 O   0  0  0  0  0  0  0  0  0  0  0  0
    4.5890   -6.7080   25.2220 O   0  0  0  0  0  0  0  0  0  0  0  0
    5.4870   -5.6050   25.3920 C   0  0  0  0  0  0  0  0  0  0  0  0
    5.9380   -5.1890   24.1720 N   0  0  0  0  0  0  0  0  0  0  0  0
    4.8830   -5.0820   23.3130 C   0  0  0  0  0  0  0  0  0  0  0  0
    3.7950   -4.0130   23.5250 C   0  0  0  0  0  0  0  0  0  0  0  0
    4.4260   -2.7100   24.0630 C   0  0  0  0  0  0  0  0  0  0  0  0
    5.9090   -2.6240   23.7090 C   0  0  1  0  0  0  0  0  0  0  0  0
    6.5280   -1.4400   24.3000 N   0  0  0  0  0  0  0  0  0  0  0  0
    7.7720   -1.8910   24.9160 C   0  0  0  0  0  0  0  0  0  0  0  0
    8.9740   -1.4410   24.0600 C   0  0  0  0  0  0  0  0  0  0  0  0
    9.4500   -2.4760   23.0870 C   0  0  0  0  0  0  0  0  0  0  0  0
    9.7250   -2.0120   21.8100 C   0  0  0  0  0  0  0  0  0  0  0  0
    8.9140   -1.0020   21.2810 C   0  0  0  0  0  0  0  0  0  0  0  0
    8.0210   -0.4090   22.1450 C   0  0  0  0  0  0  0  0  0  0  0  0
    8.6360   -0.1230   23.3340 C   0  0  0  0  0  0  0  0  0  0  0  0
    5.6970   -0.7240   25.2980 C   0  0  1  0  0  0  0  0  0  0  0  0
    5.9410   -1.3070   26.6840 C   0  0  0  0  0  0  0  0  0  0  0  0
    4.8940   -0.7660   27.6860 C   0  0  0  0  0  0  0  0  0  0  0  0
    4.5050    0.7120   27.4020 C   0  0  1  0  0  0  0  0  0  0  0  0
    4.4880    1.4030   28.6480 O   0  0  0  0  0  0  0  0  0  0  0  0
    5.4200    1.4730   26.4190 C   0  0  0  0  0  0  0  0  0  0  0  0
    5.6990    0.6630   25.1420 C   0  0  0  0  0  0  0  0  0  0  0  0
    6.6320   -3.8930   24.2710 C   0  0  0  0  0  0  0  0  0  0  0  0
  1  2  3  0
  2  3  1  0
  3  4  2  0
  3  5  1  0
  5  6  1  0
  6  7  1  0
  7  8  1  0
  8  9  1  0
  9 10  1  0
 10 11  1  0
 11 12  1  1
 12 13  1  0
 13 14  1  0
 14 15  1  0
 15 16  1  0
 16 17  1  0
 17 18  1  0
 14 19  1  0
 18 19  1  0
 20 12  1  6
 20 21  1  0
 21 22  1  0
 22 23  1  0
 23 24  1  1
 23 25  1  0
 20 26  1  0
 25 26  1  0
  7 27  1  0
 11 27  1  0
M  END
