WAR-XCH-b72a1bbc-23
     RDKit          3D

 19 20  0  0  0  0  0  0  0  0999 V2000
    4.5780   -6.6630   26.4710 C   0  0  0  0  0  0  0  0  0  0  0  0
    5.2750   -5.6150   25.8150 O   0  0  0  0  0  0  0  0  0  0  0  0
    6.3410   -5.1180   26.6220 C   0  0  0  0  0  0  0  0  0  0  0  0
    7.2050   -4.2860   25.8940 C   0  0  0  0  0  0  0  0  0  0  0  0
    8.1700   -4.7890   25.0710 C   0  0  0  0  0  0  0  0  0  0  0  0
    8.9720   -3.7750   24.6220 C   0  0  0  0  0  0  0  0  0  0  0  0
    8.6100   -2.8140   23.6690 N   0  0  0  0  0  0  0  0  0  0  0  0
    9.4510   -1.5970   23.3570 C   0  0  0  0  0  0  0  0  0  0  0  0
    8.7420   -0.3100   23.7750 C   0  0  0  0  0  0  0  0  0  0  0  0
    9.4290    1.0400   23.5510 C   0  0  0  0  0  0  0  0  0  0  0  0
   10.8070    1.1600   22.9340 C   0  0  0  0  0  0  0  0  0  0  0  0
   11.2960    2.8670   22.8150 S   0  0  0  0  0  0  0  0  0  0  0  0
    9.9090    3.3810   22.0190 N   0  0  0  0  0  0  0  0  0  0  0  0
   12.3960    3.1150   21.9520 O   0  0  0  0  0  0  0  0  0  0  0  0
   11.1560    3.5550   24.0730 O   0  0  0  0  0  0  0  0  0  0  0  0
   11.4930   -0.1720   22.5350 C   0  0  0  0  0  0  0  0  0  0  0  0
   10.7520   -1.5070   22.7650 C   0  0  0  0  0  0  0  0  0  0  0  0
    7.3230   -2.3180   24.1640 C   0  0  0  0  0  0  0  0  0  0  0  0
    6.4540   -3.3720   24.9060 C   0  0  0  0  0  0  0  0  0  0  0  0
  1  2  1  0
  2  3  1  0
  3  4  1  0
  4  5  1  0
  5  6  1  0
  6  7  1  0
  7  8  1  0
  8  9  2  0
  9 10  1  0
 10 11  2  0
 11 12  1  0
 12 13  1  0
 12 14  2  0
 12 15  2  0
 11 16  1  0
  8 17  1  0
 16 17  2  0
  7 18  1  0
  4 19  1  0
 18 19  1  0
M  END
