WAR-XCH-bdd24732-2
     RDKit          3D

 26 28  0  0  0  0  0  0  0  0999 V2000
    5.5290   -5.6130   21.6730 C   0  0  0  0  0  0  0  0  0  0  0  0
    4.3790   -4.8830   22.1110 O   0  0  0  0  0  0  0  0  0  0  0  0
    4.1220   -4.9440   23.4660 C   0  0  0  0  0  0  0  0  0  0  0  0
    4.2030   -6.3390   24.0950 C   0  0  0  0  0  0  0  0  0  0  0  0
    3.9490   -6.5970   25.5950 C   0  0  0  0  0  0  0  0  0  0  0  0
    3.6150   -5.3770   26.4200 C   0  0  0  0  0  0  0  0  0  0  0  0
    3.3840   -5.6590   27.8660 N   0  0  0  0  0  0  0  0  0  0  0  0
    4.0830   -5.0080   28.9110 C   0  0  0  0  0  0  0  0  0  0  0  0
    3.5190   -4.3470   29.7910 O   0  0  0  0  0  0  0  0  0  0  0  0
    5.4780   -5.1780   28.8630 C   0  0  2  0  0  0  0  0  0  0  0  0
    6.3470   -4.0960   28.8020 C   0  0  0  0  0  0  0  0  0  0  0  0
    5.9210   -4.6620   27.5360 C   0  0  0  0  0  0  0  0  0  0  0  0
    6.0170   -5.5270   26.3760 C   0  0  0  0  0  0  0  0  0  0  0  0
    6.3980   -5.0960   25.1040 C   0  0  0  0  0  0  0  0  0  0  0  0
    6.7410   -3.7670   24.8260 C   0  0  0  0  0  0  0  0  0  0  0  0
    6.6630   -2.8220   25.9950 C   0  0  0  0  0  0  0  0  0  0  0  0
    6.2690   -3.3200   27.2310 C   0  0  0  0  0  0  0  0  0  0  0  0
    2.7610   -6.9550   28.2020 C   0  0  1  0  0  0  0  0  0  0  0  0
    2.0590   -6.8850   29.4180 C   0  0  0  0  0  0  0  0  0  0  0  0
    1.4880   -8.0780   29.8500 C   0  0  0  0  0  0  0  0  0  0  0  0
    0.6230   -8.8490   28.8500 C   0  0  1  0  0  0  0  0  0  0  0  0
   -0.6930   -9.0250   29.3810 O   0  0  0  0  0  0  0  0  0  0  0  0
    0.5300   -8.0730   27.5460 C   0  0  0  0  0  0  0  0  0  0  0  0
    1.8900   -7.5500   27.0690 C   0  0  0  0  0  0  0  0  0  0  0  0
    3.5420   -4.1070   25.8180 C   0  0  0  0  0  0  0  0  0  0  0  0
    3.7990   -3.8860   24.3240 C   0  0  0  0  0  0  0  0  0  0  0  0
  1  2  1  0
  2  3  1  0
  3  4  2  0
  4  5  1  0
  5  6  2  0
  6  7  1  0
  7  8  1  0
  8  9  2  0
  8 10  1  0
 10 11  1  1
 10 12  1  0
 12 13  2  0
 13 14  1  0
 14 15  2  0
 15 16  1  0
 12 17  1  0
 16 17  2  0
 18  7  1  6
 18 19  1  0
 19 20  1  0
 20 21  1  0
 21 22  1  1
 21 23  1  0
 18 24  1  0
 23 24  1  0
  6 25  1  0
  3 26  1  0
 25 26  2  0
M  END
