WAR-XCH-72a8c209-7
     RDKit          3D

 26 28  0  0  0  0  0  0  0  0999 V2000
    4.7590   -2.3380   24.7690 O   0  0  0  0  0  0  0  0  0  0  0  0
    5.6710   -3.0700   25.1530 C   0  0  0  0  0  0  0  0  0  0  0  0
    5.7760   -4.3520   24.4100 C   0  0  0  0  0  0  0  0  0  0  0  0
    6.1070   -5.2530   23.5080 C   0  0  0  0  0  0  0  0  0  0  0  0
    6.1680   -6.5510   22.8150 C   0  0  0  0  0  0  0  0  0  0  0  0
    7.0360   -5.6070   21.9870 C   0  0  0  0  0  0  0  0  0  0  0  0
    7.2010   -4.1260   22.4340 C   0  0  0  0  0  0  0  0  0  0  0  0
    6.5940   -3.5790   23.5700 C   0  0  0  0  0  0  0  0  0  0  0  0
    6.5460   -2.7770   26.2060 N   0  0  0  0  0  0  0  0  0  0  0  0
    7.3650   -3.8320   26.9070 C   0  0  2  0  0  0  0  0  0  0  0  0
    8.3490   -4.3750   26.0910 C   0  0  0  0  0  0  0  0  0  0  0  0
    8.8740   -5.5020   26.6890 C   0  0  0  0  0  0  0  0  0  0  0  0
    8.6270   -5.5280   28.0560 C   0  0  1  0  0  0  0  0  0  0  0  0
    9.0280   -4.2900   28.6150 O   0  0  0  0  0  0  0  0  0  0  0  0
    7.1390   -5.6820   28.3310 C   0  0  0  0  0  0  0  0  0  0  0  0
    6.4620   -4.9740   27.3780 C   0  0  0  0  0  0  0  0  0  0  0  0
    6.0970   -1.4810   27.1950 S   0  0  0  0  0  0  0  0  0  0  0  0
    5.3350   -0.5390   26.3960 O   0  0  0  0  0  0  0  0  0  0  0  0
    7.2480   -1.0270   27.9410 O   0  0  0  0  0  0  0  0  0  0  0  0
    4.9270   -2.1680   28.3560 C   0  0  0  0  0  0  0  0  0  0  0  0
    3.9490   -3.0260   27.9780 C   0  0  0  0  0  0  0  0  0  0  0  0
    3.0200   -3.5390   29.0590 C   0  0  0  0  0  0  0  0  0  0  0  0
    3.0910   -3.2000   30.4170 C   0  0  0  0  0  0  0  0  0  0  0  0
    2.0230   -3.7980   31.6270 Cl  0  0  0  0  0  0  0  0  0  0  0  0
    4.1430   -2.3080   30.6710 C   0  0  0  0  0  0  0  0  0  0  0  0
    5.0070   -1.8200   29.7230 C   0  0  0  0  0  0  0  0  0  0  0  0
  1  2  2  0
  2  3  1  0
  3  4  2  0
  4  5  1  0
  5  6  2  0
  6  7  1  0
  3  8  1  0
  7  8  2  0
  2  9  1  0
 10  9  1  6
 10 11  1  0
 11 12  1  0
 12 13  1  0
 13 14  1  1
 13 15  1  0
 10 16  1  0
 15 16  1  0
 17  9  1  0
 17 18  2  0
 17 19  2  0
 17 20  1  0
 20 21  2  0
 21 22  1  0
 22 23  2  0
 23 24  1  0
 23 25  1  0
 20 26  1  0
 25 26  2  0
M  END
