WAR-XCH-bdd24732-37
     RDKit          3D

 26 28  0  0  0  0  0  0  0  0999 V2000
    5.0830   -5.5790   30.4500 O   0  0  0  0  0  0  0  0  0  0  0  0
    5.8730   -5.3020   29.3090 C   0  0  0  0  0  0  0  0  0  0  0  0
    6.0720   -4.7210   27.9520 C   0  0  0  0  0  0  0  0  0  0  0  0
    5.9270   -5.6020   26.8660 C   0  0  0  0  0  0  0  0  0  0  0  0
    6.0970   -5.0420   25.6110 C   0  0  0  0  0  0  0  0  0  0  0  0
    6.3970   -3.7280   25.3280 C   0  0  0  0  0  0  0  0  0  0  0  0
    6.5500   -2.8480   26.3830 C   0  0  0  0  0  0  0  0  0  0  0  0
    6.3820   -3.3520   27.7570 C   0  0  0  0  0  0  0  0  0  0  0  0
    4.7020   -4.6730   28.8850 N   0  0  0  0  0  0  0  0  0  0  0  0
    3.6110   -5.5070   28.2510 C   0  0  0  0  0  0  0  0  0  0  0  0
    3.0040   -4.8270   27.1000 C   0  0  0  0  0  0  0  0  0  0  0  0
    3.0480   -5.5220   25.9520 C   0  0  0  0  0  0  0  0  0  0  0  0
    2.4270   -4.7960   24.8120 C   0  0  0  0  0  0  0  0  0  0  0  0
    1.0720   -4.5830   25.0800 C   0  0  0  0  0  0  0  0  0  0  0  0
    0.7120   -4.8730   26.5460 C   0  0  0  0  0  0  0  0  0  0  0  0
    1.6840   -4.5620   27.4960 C   0  0  0  0  0  0  0  0  0  0  0  0
    4.2070   -3.0950   29.3540 S   0  0  0  0  0  0  0  0  0  0  0  0
    3.8790   -2.3480   28.1590 O   0  0  0  0  0  0  0  0  0  0  0  0
    5.2030   -2.5890   30.2680 O   0  0  0  0  0  0  0  0  0  0  0  0
    2.6580   -3.2360   30.2360 C   0  0  0  0  0  0  0  0  0  0  0  0
    1.4420   -2.4720   29.7660 C   0  0  0  0  0  0  0  0  0  0  0  0
    0.2270   -2.5430   30.4140 C   0  0  0  0  0  0  0  0  0  0  0  0
    0.1020   -3.3480   31.5510 C   0  0  0  0  0  0  0  0  0  0  0  0
    1.2130   -4.0810   32.0290 C   0  0  0  0  0  0  0  0  0  0  0  0
    2.4770   -4.0280   31.3820 C   0  0  0  0  0  0  0  0  0  0  0  0
    3.4390   -4.7900   31.9690 F   0  0  0  0  0  0  0  0  0  0  0  0
  1  2  2  0
  2  3  1  0
  3  4  2  0
  4  5  1  0
  5  6  2  0
  6  7  1  0
  3  8  1  0
  7  8  2  0
  2  9  1  0
  9 10  1  0
 10 11  1  0
 11 12  1  0
 12 13  1  0
 13 14  1  0
 14 15  1  0
 11 16  1  0
 15 16  1  0
 17  9  1  0
 17 18  2  0
 17 19  2  0
 17 20  1  0
 20 21  2  0
 21 22  1  0
 22 23  2  0
 23 24  1  0
 20 25  1  0
 24 25  2  0
 25 26  1  0
M  END
