WAR-XCH-b6889685-34
     RDKit          3D

 29 32  0  0  0  0  0  0  0  0999 V2000
    0.9460   -7.4090   25.2270 N   0  0  0  0  0  0  0  0  0  0  0  0
    2.3040   -7.8290   24.3150 S   0  0  0  0  0  0  0  0  0  0  0  0
    2.7040   -9.1260   24.7720 O   0  0  0  0  0  0  0  0  0  0  0  0
    2.0230   -7.5160   22.9310 O   0  0  0  0  0  0  0  0  0  0  0  0
    3.5250   -6.7230   24.9270 C   0  0  0  0  0  0  0  0  0  0  0  0
    3.9680   -5.5550   24.1020 C   0  0  0  0  0  0  0  0  0  0  0  0
    4.9480   -4.6890   24.6260 C   0  0  0  0  0  0  0  0  0  0  0  0
    5.5310   -4.8720   25.8920 C   0  0  0  0  0  0  0  0  0  0  0  0
    6.4950   -3.9970   26.4000 N   0  0  0  0  0  0  0  0  0  0  0  0
    7.8770   -4.1500   25.9570 C   0  0  0  0  0  0  0  0  0  0  0  0
    7.9000   -3.4620   24.7440 C   0  0  0  0  0  0  0  0  0  0  0  0
    8.0830   -2.0910   24.9320 C   0  0  0  0  0  0  0  0  0  0  0  0
    7.9820   -1.1920   23.7360 N   0  0  0  0  0  0  0  0  0  0  0  0
    9.3260   -0.9300   23.2220 C   0  0  0  0  0  0  0  0  0  0  0  0
    9.9300    0.4650   23.4320 C   0  0  0  0  0  0  0  0  0  0  0  0
   11.3640    0.7150   22.9480 C   0  0  0  0  0  0  0  0  0  0  0  0
   12.0640   -0.2980   22.3320 C   0  0  0  0  0  0  0  0  0  0  0  0
   11.2930   -1.6270   22.1550 C   0  0  0  0  0  0  0  0  0  0  0  0
   12.0440   -2.6610   21.4670 C   0  0  0  0  0  0  0  0  0  0  0  0
   11.7790   -3.4220   20.4040 C   0  0  0  0  0  0  0  0  0  0  0  0
   12.7240   -4.2490   20.0040 C   0  0  0  0  0  0  0  0  0  0  0  0
   13.7760   -4.2380   20.7940 C   0  0  0  0  0  0  0  0  0  0  0  0
   15.2550   -5.4130   20.5170 Br  0  0  0  0  0  0  0  0  0  0  0  0
   13.4620   -3.0840   22.0160 S   0  0  0  0  0  0  0  0  0  0  0  0
   10.0370   -1.8640   22.5900 C   0  0  0  0  0  0  0  0  0  0  0  0
    7.0800   -1.6660   26.0300 C   0  0  0  0  0  0  0  0  0  0  0  0
    6.0320   -2.5890   26.2620 C   0  0  0  0  0  0  0  0  0  0  0  0
    5.1280   -5.9650   26.6750 C   0  0  0  0  0  0  0  0  0  0  0  0
    4.0750   -6.9430   26.1820 C   0  0  0  0  0  0  0  0  0  0  0  0
  2  1  1  0
  2  3  2  0
  2  4  2  0
  2  5  1  0
  5  6  2  0
  6  7  1  0
  7  8  2  0
  8  9  1  0
  9 10  1  0
 10 11  1  0
 11 12  1  0
 12 13  1  0
 13 14  1  0
 14 15  2  0
 15 16  1  0
 16 17  2  0
 17 18  1  0
 18 19  1  0
 19 20  2  0
 20 21  1  0
 21 22  2  0
 22 23  1  0
 19 24  1  0
 22 24  1  0
 14 25  1  0
 18 25  2  0
 12 26  1  0
  9 27  1  0
 26 27  1  0
  8 28  1  0
  5 29  1  0
 28 29  2  0
M  END
