WAR-XCH-b0339bbe-21
     RDKit          3D

 29 32  0  0  0  0  0  0  0  0999 V2000
    8.7890   -2.7890   23.5890 O   0  0  0  0  0  0  0  0  0  0  0  0
    8.2270   -1.7260   23.3410 C   0  0  0  0  0  0  0  0  0  0  0  0
    6.8420   -1.8160   22.7740 C   0  0  0  0  0  0  0  0  0  0  0  0
    6.0370   -2.8210   23.4300 C   0  0  0  0  0  0  0  0  0  0  0  0
    4.7950   -2.5750   23.9120 C   0  0  0  0  0  0  0  0  0  0  0  0
    4.9090   -3.7220   24.4730 C   0  0  0  0  0  0  0  0  0  0  0  0
    5.3590   -4.6280   23.4120 C   0  0  0  0  0  0  0  0  0  0  0  0
    5.7330   -5.3890   24.4120 N   0  0  0  0  0  0  0  0  0  0  0  0
    6.4570   -4.1540   24.0290 C   0  0  0  0  0  0  0  0  0  0  0  0
    8.8530   -0.4740   23.5840 N   0  0  0  0  0  0  0  0  0  0  0  0
   10.1840   -0.4640   23.4930 C   0  0  2  0  0  0  0  0  0  0  0  0
   10.4240   -1.1240   22.1220 C   0  0  0  0  0  0  0  0  0  0  0  0
   11.7060   -1.8020   22.3590 C   0  0  0  0  0  0  0  0  0  0  0  0
   12.6250   -2.2270   23.3600 C   0  0  1  0  0  0  0  0  0  0  0  0
   13.7510   -1.8050   23.3590 O   0  0  0  0  0  0  0  0  0  0  0  0
   12.1190   -1.7870   24.5850 C   0  0  0  0  0  0  0  0  0  0  0  0
   10.6880   -1.1900   24.6120 C   0  0  0  0  0  0  0  0  0  0  0  0
    8.1770    0.6040   24.1690 C   0  0  0  0  0  0  0  0  0  0  0  0
    7.2770    0.0040   25.2480 C   0  0  0  0  0  0  0  0  0  0  0  0
    5.7760   -0.0940   24.9720 C   0  0  0  0  0  0  0  0  0  0  0  0
    4.8340   -0.6920   26.0210 C   0  0  0  0  0  0  0  0  0  0  0  0
    5.2590   -1.1860   27.2910 C   0  0  0  0  0  0  0  0  0  0  0  0
    6.7510   -1.0940   27.5880 C   0  0  0  0  0  0  0  0  0  0  0  0
    7.7680   -0.5210   26.6200 C   0  0  0  0  0  0  0  0  0  0  0  0
    7.3680    1.3110   23.0120 C   0  0  0  0  0  0  0  0  0  0  0  0
    8.2550    1.8870   21.8880 C   0  0  0  0  0  0  0  0  0  0  0  0
    9.5100    2.1950   22.3740 C   0  0  0  0  0  0  0  0  0  0  0  0
    9.6720    2.4270   23.7270 C   0  0  0  0  0  0  0  0  0  0  0  0
    9.0410    1.5690   24.6610 C   0  0  0  0  0  0  0  0  0  0  0  0
  1  2  2  0
  2  3  1  0
  3  4  1  0
  4  5  2  0
  5  6  1  0
  6  7  2  0
  7  8  1  0
  4  9  1  0
  8  9  2  0
  2 10  1  0
 11 10  1  1
 11 12  1  0
 12 13  1  0
 13 14  1  0
 14 15  1  6
 14 16  1  0
 11 17  1  0
 16 17  1  0
 18 10  1  0
 18 19  1  0
 19 20  2  0
 20 21  1  0
 21 22  2  0
 22 23  1  0
 19 24  1  0
 23 24  2  0
 18 25  1  0
 25 26  1  0
 26 27  1  0
 27 28  1  0
 18 29  1  0
 28 29  1  0
M  END
