WAR-XCH-b72a1bbc-47
     RDKit          3D

 25 27  0  0  0  0  0  0  0  0999 V2000
   11.7920    5.7140   21.8420 N   0  0  0  0  0  0  0  0  0  0  0  0
   10.9200    5.0640   23.1090 S   0  0  0  0  0  0  0  0  0  0  0  0
    9.5110    5.2520   22.8710 O   0  0  0  0  0  0  0  0  0  0  0  0
   11.5540    5.5770   24.3010 O   0  0  0  0  0  0  0  0  0  0  0  0
   11.3210    3.3400   22.9810 C   0  0  0  0  0  0  0  0  0  0  0  0
   12.6500    2.9670   22.9290 C   0  0  0  0  0  0  0  0  0  0  0  0
   12.9990    1.6140   22.8830 C   0  0  0  0  0  0  0  0  0  0  0  0
   12.0710    0.5930   22.8830 C   0  0  0  0  0  0  0  0  0  0  0  0
   12.5010   -0.7420   22.9010 N   0  0  0  0  0  0  0  0  0  0  0  0
   12.0060   -1.3740   24.0720 C   0  0  0  0  0  0  0  0  0  0  0  0
   10.5290   -0.9980   23.9970 C   0  0  0  0  0  0  0  0  0  0  0  0
    9.9310   -1.5220   22.6870 C   0  0  0  0  0  0  0  0  0  0  0  0
    9.1960   -0.5240   21.7030 C   0  0  0  0  0  0  0  0  0  0  0  0
    7.8630   -1.0530   21.2560 N   0  0  0  0  0  0  0  0  0  0  0  0
    6.9240   -0.1900   20.4670 C   0  0  0  0  0  0  0  0  0  0  0  0
    7.1050   -0.1630   18.9500 C   0  0  0  0  0  0  0  0  0  0  0  0
    6.1720    0.6920   18.0850 C   0  0  0  0  0  0  0  0  0  0  0  0
    5.0880    1.4780   18.8060 C   0  0  0  0  0  0  0  0  0  0  0  0
    5.0160    1.3570   20.3260 C   0  0  0  0  0  0  0  0  0  0  0  0
    4.0700    2.0390   20.9820 F   0  0  0  0  0  0  0  0  0  0  0  0
    5.9080    0.5540   21.0760 C   0  0  0  0  0  0  0  0  0  0  0  0
   11.0660   -2.3180   22.0110 C   0  0  0  0  0  0  0  0  0  0  0  0
   12.3390   -1.7350   21.8600 C   0  0  0  0  0  0  0  0  0  0  0  0
   10.7260    1.0170   22.9000 C   0  0  0  0  0  0  0  0  0  0  0  0
   10.3270    2.3670   22.9480 C   0  0  0  0  0  0  0  0  0  0  0  0
  2  1  1  0
  2  3  2  0
  2  4  2  0
  2  5  1  0
  5  6  2  0
  6  7  1  0
  7  8  2  0
  8  9  1  0
  9 10  1  0
 10 11  1  0
 11 12  1  0
 12 13  1  0
 13 14  1  0
 14 15  1  0
 15 16  2  0
 16 17  1  0
 17 18  2  0
 18 19  1  0
 19 20  1  0
 15 21  1  0
 19 21  2  0
 12 22  1  0
  9 23  1  0
 22 23  1  0
  8 24  1  0
  5 25  1  0
 24 25  2  0
M  END
