WAR-XCH-bdd24732-17
     RDKit          3D

 24 27  0  0  0  0  0  0  0  0999 V2000
   12.7200   -1.9470   21.6030 C   0  0  0  0  0  0  0  0  0  0  0  0
   11.6780   -1.4670   22.3030 C   0  0  0  0  0  0  0  0  0  0  0  0
   11.3720   -0.0290   22.4220 C   0  0  0  0  0  0  0  0  0  0  0  0
   10.2940    0.4360   23.1250 C   0  0  0  0  0  0  0  0  0  0  0  0
   10.0570    1.7540   23.1680 F   0  0  0  0  0  0  0  0  0  0  0  0
    9.4690   -0.4280   23.7910 C   0  0  0  0  0  0  0  0  0  0  0  0
    9.7530   -1.8940   23.7380 C   0  0  0  0  0  0  0  0  0  0  0  0
    8.8910   -2.7290   24.5600 C   0  0  0  0  0  0  0  0  0  0  0  0
    7.7500   -2.4450   24.8590 N   0  0  0  0  0  0  0  0  0  0  0  0
    6.9340   -1.5720   24.6490 C   0  0  0  0  0  0  0  0  0  0  0  0
    5.5280   -1.0450   24.9730 C   0  0  0  0  0  0  0  0  0  0  0  0
    4.4270   -1.8790   25.2070 C   0  0  0  0  0  0  0  0  0  0  0  0
    3.0720   -1.2540   25.5410 C   0  0  0  0  0  0  0  0  0  0  0  0
    3.0150    0.1250   25.5910 C   0  0  0  0  0  0  0  0  0  0  0  0
    4.0810    0.9220   25.3620 N   0  0  0  0  0  0  0  0  0  0  0  0
    5.2760    0.3310   25.0670 C   0  0  0  0  0  0  0  0  0  0  0  0
    6.6600   -2.6080   25.5070 N   0  0  0  0  0  0  0  0  0  0  0  0
    7.6440   -3.6520   25.7680 C   0  0  0  0  0  0  0  0  0  0  0  0
    7.0180   -4.7280   26.8200 C   0  0  0  0  0  0  0  0  0  0  0  0
    7.6710   -5.8990   27.3060 C   0  0  0  0  0  0  0  0  0  0  0  0
    8.8910   -6.0140   26.7680 C   0  0  0  0  0  0  0  0  0  0  0  0
    8.9130   -4.9240   26.0260 C   0  0  0  0  0  0  0  0  0  0  0  0
    9.1090   -3.8680   25.2250 C   0  0  0  0  0  0  0  0  0  0  0  0
   10.8340   -2.3570   22.9760 C   0  0  0  0  0  0  0  0  0  0  0  0
  1  2  1  0
  2  3  2  0
  3  4  1  0
  4  5  1  0
  4  6  2  0
  6  7  1  0
  7  8  1  0
  8  9  2  0
  9 10  1  0
 10 11  1  0
 11 12  2  0
 12 13  1  0
 13 14  2  0
 14 15  1  0
 11 16  1  0
 15 16  2  0
 10 17  2  0
 17 18  1  0
 18 19  1  0
 19 20  2  0
 20 21  1  0
 21 22  2  0
  8 23  1  0
 18 23  2  0
 22 23  1  0
  2 24  1  0
  7 24  2  0
M  END
