WAR-XCH-b6889685-14
     RDKit          3D

 29 32  0  0  0  0  0  0  0  0999 V2000
    8.8730    5.1400   22.5620 N   0  0  0  0  0  0  0  0  0  0  0  0
   10.2590    5.3300   23.4910 S   0  0  0  0  0  0  0  0  0  0  0  0
   11.1370    6.1940   22.7380 O   0  0  0  0  0  0  0  0  0  0  0  0
    9.8470    5.6610   24.8360 O   0  0  0  0  0  0  0  0  0  0  0  0
   10.9690    3.6970   23.5040 C   0  0  0  0  0  0  0  0  0  0  0  0
   10.2330    2.5220   24.1030 C   0  0  0  0  0  0  0  0  0  0  0  0
   10.8520    1.2360   24.1300 C   0  0  0  0  0  0  0  0  0  0  0  0
   12.1360    0.9900   23.6270 C   0  0  0  0  0  0  0  0  0  0  0  0
   12.7990   -0.2560   23.6950 N   0  0  0  0  0  0  0  0  0  0  0  0
   12.9940   -1.1890   22.6180 C   0  0  0  0  0  0  0  0  0  0  0  0
   12.0570   -2.1830   22.7990 C   0  0  0  0  0  0  0  0  0  0  0  0
   10.9120   -1.7600   23.5010 C   0  0  0  0  0  0  0  0  0  0  0  0
    9.6670   -2.6560   23.4140 C   0  0  0  0  0  0  0  0  0  0  0  0
    8.3760   -1.9700   23.2290 N   0  0  0  0  0  0  0  0  0  0  0  0
    7.5720   -1.7670   24.4470 C   0  0  0  0  0  0  0  0  0  0  0  0
    6.1180   -1.3890   24.1410 C   0  0  0  0  0  0  0  0  0  0  0  0
    5.5790   -1.9800   22.9850 C   0  0  0  0  0  0  0  0  0  0  0  0
    5.4780   -0.9760   21.8030 C   0  0  0  0  0  0  0  0  0  0  0  0
    5.3690    0.5030   22.0490 C   0  0  0  0  0  0  0  0  0  0  0  0
    5.2940    1.2090   20.8710 C   0  0  0  0  0  0  0  0  0  0  0  0
    5.3380    0.3720   19.7290 C   0  0  0  0  0  0  0  0  0  0  0  0
    5.2730    0.8830   18.0980 Cl  0  0  0  0  0  0  0  0  0  0  0  0
    5.4700   -1.2920   20.1020 S   0  0  0  0  0  0  0  0  0  0  0  0
    6.3650   -3.0980   22.6840 C   0  0  0  0  0  0  0  0  0  0  0  0
    7.6210   -2.7180   22.2280 C   0  0  0  0  0  0  0  0  0  0  0  0
   11.3880   -1.5650   24.9250 C   0  0  0  0  0  0  0  0  0  0  0  0
   12.6240   -0.9460   24.9600 C   0  0  0  0  0  0  0  0  0  0  0  0
   12.7990    2.0730   23.0500 C   0  0  0  0  0  0  0  0  0  0  0  0
   12.2210    3.4730   22.9720 C   0  0  0  0  0  0  0  0  0  0  0  0
  2  1  1  0
  2  3  2  0
  2  4  2  0
  2  5  1  0
  5  6  2  0
  6  7  1  0
  7  8  2  0
  8  9  1  0
  9 10  1  0
 10 11  1  0
 11 12  1  0
 12 13  1  0
 13 14  1  0
 14 15  1  0
 15 16  1  0
 16 17  1  0
 17 18  1  0
 18 19  2  0
 19 20  1  0
 20 21  2  0
 21 22  1  0
 18 23  1  0
 21 23  1  0
 17 24  1  0
 14 25  1  0
 24 25  1  0
 12 26  1  0
  9 27  1  0
 26 27  1  0
  8 28  1  0
  5 29  1  0
 28 29  2  0
M  END
