WAR-XCH-e55cba98-2
     RDKit          3D

 29 32  0  0  0  0  0  0  0  0999 V2000
    8.4190   -1.8040   21.6300 C   0  0  0  0  0  0  0  0  0  0  0  0
    7.9910   -0.4570   21.0650 C   0  0  0  0  0  0  0  0  0  0  0  0
    7.2580   -0.3900   20.0690 O   0  0  0  0  0  0  0  0  0  0  0  0
    8.4660    0.6600   21.7300 N   0  0  0  0  0  0  0  0  0  0  0  0
    8.8820    0.6350   23.1390 C   0  0  0  0  0  0  0  0  0  0  0  0
   10.2970    0.8640   23.4190 C   0  0  0  0  0  0  0  0  0  0  0  0
   10.7880    2.2130   23.3320 C   0  0  0  0  0  0  0  0  0  0  0  0
    9.6710    1.9150   23.5880 C   0  0  0  0  0  0  0  0  0  0  0  0
   10.1550    0.6280   23.5260 N   0  0  0  0  0  0  0  0  0  0  0  0
   11.7110    0.3400   23.1870 C   0  0  0  0  0  0  0  0  0  0  0  0
   10.8700   -0.2850   23.4000 C   0  0  0  0  0  0  0  0  0  0  0  0
   10.9740   -1.6720   23.4170 C   0  0  0  0  0  0  0  0  0  0  0  0
    9.8600   -2.4680   23.7250 C   0  0  0  0  0  0  0  0  0  0  0  0
    8.6540   -1.8960   24.1410 C   0  0  0  0  0  0  0  0  0  0  0  0
    7.6260   -3.0380   24.1820 C   0  0  0  0  0  0  0  0  0  0  0  0
    7.8580   -4.0550   23.0920 C   0  0  0  0  0  0  0  0  0  0  0  0
    6.9910   -5.1290   23.0500 C   0  0  0  0  0  0  0  0  0  0  0  0
    5.9740   -5.1960   24.0040 C   0  0  0  0  0  0  0  0  0  0  0  0
    5.8390   -4.1880   24.9850 C   0  0  0  0  0  0  0  0  0  0  0  0
    6.6440   -3.1010   25.1020 N   0  0  0  0  0  0  0  0  0  0  0  0
   11.4510   -2.0300   22.0200 C   0  0  0  0  0  0  0  0  0  0  0  0
   12.9600   -2.0480   22.0700 C   0  0  0  0  0  0  0  0  0  0  0  0
   13.3090   -2.1310   23.5470 C   0  0  0  0  0  0  0  0  0  0  0  0
   12.1460   -2.1800   24.3220 C   0  0  0  0  0  0  0  0  0  0  0  0
   10.9340    1.4850   23.3330 C   0  0  0  0  0  0  0  0  0  0  0  0
   11.8720    2.8870   23.0680 C   0  0  0  0  0  0  0  0  0  0  0  0
   12.8830    3.7300   22.8050 F   0  0  0  0  0  0  0  0  0  0  0  0
   12.8750    2.0980   22.8690 C   0  0  0  0  0  0  0  0  0  0  0  0
   11.9320    1.5010   23.0980 C   0  0  0  0  0  0  0  0  0  0  0  0
  1  2  1  0
  2  3  2  0
  2  4  1  0
  4  5  1  0
  5  6  1  0
  6  7  1  0
  7  8  2  0
  8  9  1  0
  9 10  1  0
 10 11  1  0
 11 12  1  0
 12 13  1  0
 13 14  3  0
 14 15  1  0
 15 16  2  0
 16 17  1  0
 17 18  2  0
 18 19  1  0
 15 20  1  0
 19 20  2  0
 12 21  1  0
 21 22  1  0
 22 23  1  0
 12 24  1  0
 23 24  1  0
 11 25  2  0
 25 26  1  0
 26 27  1  0
 26 28  2  0
  7 29  1  0
 10 29  2  0
 28 29  1  0
M  END
