WAR-XCH-b72a1bbc-27
     RDKit          3D

 33 37  0  0  0  0  0  0  0  0999 V2000
   -2.0120   -6.9870   22.9960 N   0  0  0  0  0  0  0  0  0  0  0  0
   -0.7500   -7.6590   22.0980 S   0  0  0  0  0  0  0  0  0  0  0  0
   -0.7830   -9.0970   22.3310 O   0  0  0  0  0  0  0  0  0  0  0  0
   -0.8600   -7.0830   20.7790 O   0  0  0  0  0  0  0  0  0  0  0  0
    0.6520   -6.9300   22.9190 C   0  0  0  0  0  0  0  0  0  0  0  0
    0.4900   -5.7580   23.6670 C   0  0  0  0  0  0  0  0  0  0  0  0
    1.5980   -5.1860   24.3190 C   0  0  0  0  0  0  0  0  0  0  0  0
    2.8840   -5.7590   24.2420 C   0  0  0  0  0  0  0  0  0  0  0  0
    4.0020   -5.2050   24.8890 N   0  0  0  0  0  0  0  0  0  0  0  0
    5.1100   -6.0940   25.2110 C   0  0  0  0  0  0  0  0  0  0  0  0
    5.7610   -5.7210   26.5440 C   0  0  0  0  0  0  0  0  0  0  0  0
    6.2960   -4.2790   26.5970 C   0  0  0  0  0  0  0  0  0  0  0  0
    7.7860   -4.1780   26.0860 C   0  0  0  0  0  0  0  0  0  0  0  0
    7.9630   -3.7670   24.6580 N   0  0  0  0  0  0  0  0  0  0  0  0
    6.7350   -3.5340   23.8950 C   0  0  0  0  0  0  0  0  0  0  0  0
    7.0550   -3.5060   22.4020 C   0  0  0  0  0  0  0  0  0  0  0  0
    8.0950   -2.4330   22.0890 C   0  0  0  0  0  0  0  0  0  0  0  0
    8.4650   -1.6520   23.3540 C   0  0  2  0  0  0  0  0  0  0  0  0
    9.4900   -0.5280   23.1500 C   0  0  0  0  0  0  0  0  0  0  0  0
    9.1590    0.8350   23.2910 C   0  0  0  0  0  0  0  0  0  0  0  0
   10.0990    1.8510   23.1260 C   0  0  0  0  0  0  0  0  0  0  0  0
   11.4020    1.5240   22.8280 C   0  0  0  0  0  0  0  0  0  0  0  0
   11.7440    0.2080   22.6790 C   0  0  0  0  0  0  0  0  0  0  0  0
   13.0300   -0.0490   22.3850 C   0  0  0  0  0  0  0  0  0  0  0  0
   13.4010   -1.3140   22.1960 C   0  0  0  0  0  0  0  0  0  0  0  0
   12.5690   -2.3570   22.2950 C   0  0  0  0  0  0  0  0  0  0  0  0
   11.2580   -2.1440   22.6110 C   0  0  0  0  0  0  0  0  0  0  0  0
   10.8100   -0.8450   22.8160 C   0  0  0  0  0  0  0  0  0  0  0  0
    8.9370   -2.6640   24.4510 C   0  0  0  0  0  0  0  0  0  0  0  0
    5.2740   -3.3070   25.9460 C   0  0  0  0  0  0  0  0  0  0  0  0
    3.8930   -3.9460   25.6550 C   0  0  0  0  0  0  0  0  0  0  0  0
    3.0030   -6.9340   23.4780 C   0  0  0  0  0  0  0  0  0  0  0  0
    1.9120   -7.5200   22.8230 C   0  0  0  0  0  0  0  0  0  0  0  0
  2  1  1  0
  2  3  2  0
  2  4  2  0
  2  5  1  0
  5  6  2  0
  6  7  1  0
  7  8  2  0
  8  9  1  0
  9 10  1  0
 10 11  1  0
 11 12  1  0
 12 13  1  0
 13 14  1  0
 14 15  1  0
 15 16  1  0
 16 17  1  0
 17 18  1  0
 18 19  1  6
 19 20  2  0
 20 21  1  0
 21 22  2  0
 22 23  1  0
 23 24  1  0
 24 25  2  0
 25 26  1  0
 26 27  2  0
 19 28  1  0
 23 28  2  0
 27 28  1  0
 14 29  1  0
 18 29  1  0
 12 30  1  0
  9 31  1  0
 30 31  1  0
  8 32  1  0
  5 33  1  0
 32 33  2  0
M  END
