WAR-XCH-b0339bbe-12
     RDKit          3D

 21 22  0  0  0  0  0  0  0  0999 V2000
    1.2370   -3.8900   30.1080 C   0  0  0  0  0  0  0  0  0  0  0  0
    1.8030   -4.5270   28.8470 C   0  0  0  0  0  0  0  0  0  0  0  0
    1.3020   -4.3470   27.6200 C   0  0  0  0  0  0  0  0  0  0  0  0
    1.7980   -4.9340   26.3250 C   0  0  0  0  0  0  0  0  0  0  0  0
    3.0250   -5.8410   26.4370 C   0  0  0  0  0  0  0  0  0  0  0  0
    3.7550   -6.6050   25.0850 S   0  0  0  0  0  0  0  0  0  0  0  0
    3.6660   -8.0510   25.1590 O   0  0  0  0  0  0  0  0  0  0  0  0
    3.2780   -5.8980   23.9130 O   0  0  0  0  0  0  0  0  0  0  0  0
    5.3690   -6.1150   25.3490 N   0  0  0  0  0  0  0  0  0  0  0  0
    5.8570   -4.8690   25.1730 C   0  0  0  0  0  0  0  0  0  0  0  0
    6.1840   -4.1960   26.3300 O   0  0  0  0  0  0  0  0  0  0  0  0
    5.9790   -4.3210   23.8290 N   0  0  0  0  0  0  0  0  0  0  0  0
    5.0980   -4.7760   22.8540 C   0  0  0  0  0  0  0  0  0  0  0  0
    6.3330   -5.7050   22.9280 C   0  0  0  0  0  0  0  0  0  0  0  0
    6.7160   -4.6990   23.8380 C   0  0  0  0  0  0  0  0  0  0  0  0
    6.4480   -3.3450   24.6110 C   0  0  0  0  0  0  0  0  0  0  0  0
    5.2160   -2.7830   24.3080 C   0  0  0  0  0  0  0  0  0  0  0  0
    4.4540   -3.6060   23.3070 C   0  0  0  0  0  0  0  0  0  0  0  0
    3.5370   -6.0190   27.7330 C   0  0  0  0  0  0  0  0  0  0  0  0
    4.6570   -6.8280   27.9570 C   0  0  0  0  0  0  0  0  0  0  0  0
    2.9510   -5.3940   28.8680 C   0  0  0  0  0  0  0  0  0  0  0  0
  1  2  1  0
  2  3  2  0
  3  4  1  0
  4  5  2  0
  5  6  1  0
  6  7  2  0
  6  8  2  0
  6  9  1  0
  9 10  1  0
 10 11  2  0
 10 12  1  0
 12 13  1  0
 13 14  2  0
 14 15  1  0
 15 16  2  0
 16 17  1  0
 13 18  1  0
 17 18  2  0
  5 19  1  0
 19 20  1  0
  2 21  1  0
 19 21  2  0
M  END
