WAR-XCH-b6889685-25
     RDKit          3D

 24 26  0  0  0  0  0  0  0  0999 V2000
   14.1810   -2.7620   25.8980 C   0  0  0  0  0  0  0  0  0  0  0  0
   13.4520   -2.7010   24.7390 C   0  0  0  0  0  0  0  0  0  0  0  0
   12.1630   -2.3380   24.8230 C   0  0  0  0  0  0  0  0  0  0  0  0
   11.3600   -2.2510   23.7360 C   0  0  0  0  0  0  0  0  0  0  0  0
   11.8600   -2.5080   22.4930 C   0  0  0  0  0  0  0  0  0  0  0  0
   11.0690   -2.3360   21.4630 N   0  0  0  0  0  0  0  0  0  0  0  0
   10.8990   -1.0640   21.9960 C   0  0  0  0  0  0  0  0  0  0  0  0
   12.2480   -0.5200   22.5220 C   0  0  0  0  0  0  0  0  0  0  0  0
   12.1230   -0.4320   23.9930 C   0  0  0  0  0  0  0  0  0  0  0  0
   10.8540    0.2690   24.0890 N   0  0  0  0  0  0  0  0  0  0  0  0
   10.9030    1.5770   23.8590 C   0  0  0  0  0  0  0  0  0  0  0  0
    9.7440    2.2590   24.1990 C   0  0  0  0  0  0  0  0  0  0  0  0
    9.6880    3.6780   24.0090 C   0  0  0  0  0  0  0  0  0  0  0  0
   10.7900    4.3390   23.4950 C   0  0  0  0  0  0  0  0  0  0  0  0
   10.6450    6.0770   23.3450 S   0  0  0  0  0  0  0  0  0  0  0  0
    9.2250    6.2280   22.4590 N   0  0  0  0  0  0  0  0  0  0  0  0
   11.7570    6.5300   22.5670 O   0  0  0  0  0  0  0  0  0  0  0  0
   10.3360    6.5920   24.6620 O   0  0  0  0  0  0  0  0  0  0  0  0
   11.9590    3.6590   23.1290 C   0  0  0  0  0  0  0  0  0  0  0  0
   12.0020    2.2790   23.3150 C   0  0  0  0  0  0  0  0  0  0  0  0
    9.5810   -0.3030   23.5650 C   0  0  0  0  0  0  0  0  0  0  0  0
    9.6210   -0.3250   22.1640 C   0  0  0  0  0  0  0  0  0  0  0  0
   13.1480   -2.8680   22.3760 C   0  0  0  0  0  0  0  0  0  0  0  0
   13.9180   -2.9730   23.4880 C   0  0  0  0  0  0  0  0  0  0  0  0
  1  2  1  0
  2  3  2  0
  3  4  1  0
  4  5  2  0
  5  6  1  0
  6  7  1  0
  7  8  1  0
  8  9  1  0
  9 10  1  0
 10 11  1  0
 11 12  2  0
 12 13  1  0
 13 14  2  0
 14 15  1  0
 15 16  1  0
 15 17  2  0
 15 18  2  0
 14 19  1  0
 11 20  1  0
 19 20  2  0
 10 21  1  0
  7 22  1  0
 21 22  1  0
  5 23  1  0
  2 24  1  0
 23 24  2  0
M  END
