WAR-XCH-b0339bbe-17
     RDKit          3D

 24 26  0  0  0  0  0  0  0  0999 V2000
    4.7740   -3.4450   25.3390 O   0  0  0  0  0  0  0  0  0  0  0  0
    5.9980   -3.5370   25.3790 C   0  0  0  0  0  0  0  0  0  0  0  0
    6.7650   -3.3590   26.5140 N   0  0  0  0  0  0  0  0  0  0  0  0
    7.7180   -4.2610   27.0250 C   0  0  0  0  0  0  0  0  0  0  0  0
    9.0200   -4.4670   26.9190 C   0  0  0  0  0  0  0  0  0  0  0  0
    8.6110   -5.5880   27.8910 C   0  0  0  0  0  0  0  0  0  0  0  0
    7.2330   -5.9200   28.4330 C   0  0  0  0  0  0  0  0  0  0  0  0
    6.2930   -5.0630   27.9510 C   0  0  0  0  0  0  0  0  0  0  0  0
    7.5920   -5.2360   27.8150 C   0  0  0  0  0  0  0  0  0  0  0  0
    8.9130   -5.1280   27.4540 O   0  0  0  0  0  0  0  0  0  0  0  0
    6.8090   -3.8690   24.0830 C   0  0  0  0  0  0  0  0  0  0  0  0
    8.1810   -3.6620   24.3110 C   0  0  0  0  0  0  0  0  0  0  0  0
    8.8530   -2.6370   23.6220 C   0  0  0  0  0  0  0  0  0  0  0  0
   10.2430   -2.5400   23.6230 C   0  0  0  0  0  0  0  0  0  0  0  0
   10.8490   -2.0190   22.3340 C   0  0  0  0  0  0  0  0  0  0  0  0
   12.3710   -1.9660   22.4900 C   0  0  0  0  0  0  0  0  0  0  0  0
   12.9960   -2.3630   23.6860 C   0  0  0  0  0  0  0  0  0  0  0  0
   12.2620   -2.8260   24.7910 C   0  0  0  0  0  0  0  0  0  0  0  0
   10.9140   -2.9430   24.8370 N   0  0  0  0  0  0  0  0  0  0  0  0
    6.5700   -5.3720   23.6870 C   0  0  0  0  0  0  0  0  0  0  0  0
    6.4190   -5.6560   22.3340 C   0  0  0  0  0  0  0  0  0  0  0  0
    5.7350   -4.5570   21.5480 C   0  0  0  0  0  0  0  0  0  0  0  0
    6.4780   -3.2570   21.7740 C   0  0  0  0  0  0  0  0  0  0  0  0
    6.2940   -2.8220   23.0610 C   0  0  0  0  0  0  0  0  0  0  0  0
  1  2  2  0
  2  3  1  0
  3  4  1  0
  4  5  2  0
  5  6  1  0
  6  7  2  0
  7  8  1  0
  4  9  1  0
  8  9  2  0
  9 10  1  0
  2 11  1  0
 11 12  1  0
 12 13  3  0
 13 14  1  0
 14 15  2  0
 15 16  1  0
 16 17  2  0
 17 18  1  0
 14 19  1  0
 18 19  2  0
 11 20  1  0
 20 21  1  0
 21 22  1  0
 22 23  1  0
 11 24  1  0
 23 24  1  0
M  END
