WES-WAB-2b40d25a-1
     RDKit          3D

 29 31  0  0  0  0  0  0  0  0999 V2000
    3.5260    1.9290   19.0860 C   0  0  0  0  0  0  0  0  0  0  0  0
    4.7830    2.0710   18.6270 C   0  0  2  0  0  0  0  0  0  0  0  0
    5.4610    1.0630   17.7590 C   0  0  0  0  0  0  0  0  0  0  0  0
    6.4560    0.3840   18.3480 N   0  0  0  0  0  0  0  0  0  0  0  0
    6.2340   -0.0200   19.6220 C   0  0  0  0  0  0  0  0  0  0  0  0
    7.5970   -0.6300   19.6710 C   0  0  0  0  0  0  0  0  0  0  0  0
    7.2140   -0.9160   20.9260 N   0  0  0  0  0  0  0  0  0  0  0  0
    6.2620   -0.3190   20.4250 C   0  0  0  0  0  0  0  0  0  0  0  0
    5.0140    0.1570   20.6660 C   0  0  0  0  0  0  0  0  0  0  0  0
    4.1960    0.1080   21.9210 C   0  0  0  0  0  0  0  0  0  0  0  0
    4.7800    1.1020   22.9370 C   0  0  0  0  0  0  0  0  0  0  0  0
    3.9470    2.2750   23.0560 N   0  0  0  0  0  0  0  0  0  0  0  0
    2.7170    2.3340   23.6140 C   0  0  0  0  0  0  0  0  0  0  0  0
    2.4750    1.5100   24.4940 O   0  0  0  0  0  0  0  0  0  0  0  0
    1.8860    3.3010   23.1370 N   0  0  0  0  0  0  0  0  0  0  0  0
    0.5920    3.6220   23.5740 C   0  0  0  0  0  0  0  0  0  0  0  0
    0.4860    4.6840   24.4630 C   0  0  0  0  0  0  0  0  0  0  0  0
   -0.8760    5.1360   25.0090 C   0  0  0  0  0  0  0  0  0  0  0  0
   -2.0250    4.4620   24.5980 C   0  0  0  0  0  0  0  0  0  0  0  0
   -1.8420    3.2890   23.6110 C   0  0  0  0  0  0  0  0  0  0  0  0
   -0.5640    2.9330   23.1550 C   0  0  0  0  0  0  0  0  0  0  0  0
    4.9150    0.6340   19.4010 C   0  0  0  0  0  0  0  0  0  0  0  0
    5.6820    2.2900   19.7890 N   0  0  0  0  0  0  0  0  0  0  0  0
    5.4430    3.2410   20.7900 C   0  0  0  0  0  0  0  0  0  0  0  0
    6.3040    3.4020   21.9070 C   0  0  0  0  0  0  0  0  0  0  0  0
    6.0240    4.4490   22.9890 C   0  0  0  0  0  0  0  0  0  0  0  0
    4.9040    5.2810   22.9010 C   0  0  0  0  0  0  0  0  0  0  0  0
    3.9500    5.1430   21.7100 C   0  0  0  0  0  0  0  0  0  0  0  0
    4.3090    4.0680   20.6780 C   0  0  0  0  0  0  0  0  0  0  0  0
  2  1  1  1
  2  3  1  0
  3  4  1  0
  4  5  1  0
  5  6  2  0
  6  7  1  0
  7  8  2  0
  8  9  1  0
  9 10  1  0
 10 11  1  0
 11 12  1  0
 12 13  1  0
 13 14  2  0
 13 15  1  0
 15 16  1  0
 16 17  2  0
 17 18  1  0
 18 19  2  0
 19 20  1  0
 16 21  1  0
 20 21  2  0
  5 22  1  0
  9 22  2  0
  2 23  1  0
 23 24  1  0
 24 25  2  0
 25 26  1  0
 26 27  2  0
 27 28  1  0
 24 29  1  0
 28 29  2  0
M  END
