WIL-LEE-364b6ea8-6
     RDKit          3D

 18 17  0  0  0  0  0  0  0  0999 V2000
    1.6600   -3.4690   25.2570 C   0  0  0  0  0  0  0  0  0  0  0  0
    1.9530   -4.7380   24.5840 C   0  0  0  0  0  0  0  0  0  0  0  0
    3.1350   -4.9130   23.9800 C   0  0  0  0  0  0  0  0  0  0  0  0
    4.2610   -3.9630   23.7590 C   0  0  0  0  0  0  0  0  0  0  0  0
    4.5290   -3.7570   22.4080 O   0  0  0  0  0  0  0  0  0  0  0  0
    4.8570   -3.4410   24.7040 O   0  0  0  0  0  0  0  0  0  0  0  0
    6.3270   -3.9400   25.1710 S   0  0  0  0  0  0  0  0  0  0  0  0
    7.4640   -3.1090   24.2300 N   0  0  0  0  0  0  0  0  0  0  0  0
    6.6870   -5.3260   24.9160 O   0  0  0  0  0  0  0  0  0  0  0  0
    6.5990   -3.4040   26.5050 O   0  0  0  0  0  0  0  0  0  0  0  0
    3.3810   -6.2650   23.4290 C   0  0  0  0  0  0  0  0  0  0  0  0
    4.7030   -6.5150   22.7860 C   0  0  0  0  0  0  0  0  0  0  0  0
    2.3760   -7.2770   23.5300 C   0  0  0  0  0  0  0  0  0  0  0  0
    0.9880   -6.9770   23.0970 C   0  0  0  0  0  0  0  0  0  0  0  0
    0.1920   -8.0100   22.3660 C   0  0  0  0  0  0  0  0  0  0  0  0
    0.3270   -9.2360   22.4510 O   0  0  0  0  0  0  0  0  0  0  0  0
   -0.8230   -7.5500   21.5150 C   0  0  0  0  0  0  0  0  0  0  0  0
   -1.9500   -6.9290   21.9740 O   0  0  0  0  0  0  0  0  0  0  0  0
  1  2  1  0
  2  3  1  0
  3  4  1  0
  4  5  2  0
  4  6  1  0
  7  6  1  0
  7  8  1  0
  7  9  2  0
  7 10  2  0
  3 11  2  3
 11 12  1  0
 11 13  1  0
 13 14  1  0
 14 15  1  0
 15 16  2  0
 15 17  1  0
 17 18  2  0
M  END
