WIL-LEE-23e8b574-3
     RDKit          3D

 22 23  0  0  0  0  0  0  0  0999 V2000
    9.8460    6.8820   22.9650 C   0  0  0  0  0  0  0  0  0  0  0  0
    9.3460    5.4760   23.1170 C   0  0  0  0  0  0  0  0  0  0  0  0
    8.3150    5.9300   22.6240 O   0  0  0  0  0  0  0  0  0  0  0  0
   10.6320    5.3790   23.6260 N   0  0  0  0  0  0  0  0  0  0  0  0
   11.8500    5.5170   22.8020 C   0  0  0  0  0  0  0  0  0  0  0  0
   12.5860    4.3310   22.6250 C   0  0  0  0  0  0  0  0  0  0  0  0
   11.9610    3.0830   22.8070 C   0  0  0  0  0  0  0  0  0  0  0  0
   10.6180    2.9540   22.9090 C   0  0  0  0  0  0  0  0  0  0  0  0
   11.7670    2.1030   22.9320 C   0  0  0  0  0  0  0  0  0  0  0  0
   10.8370    1.0670   23.1120 C   0  0  0  0  0  0  0  0  0  0  0  0
   11.9840    0.2370   23.1590 C   0  0  0  0  0  0  0  0  0  0  0  0
   11.0450   -0.7960   23.3650 C   0  0  0  0  0  0  0  0  0  0  0  0
    9.8920   -0.9460   22.4650 N   0  0  0  0  0  0  0  0  0  0  0  0
    8.6080   -0.3570   22.9970 C   0  0  0  0  0  0  0  0  0  0  0  0
    7.6590   -1.2990   23.7610 C   0  0  0  0  0  0  0  0  0  0  0  0
    7.9700   -2.7230   23.5910 N   0  0  0  0  0  0  0  0  0  0  0  0
    6.9360   -3.6150   24.1670 C   0  0  0  0  0  0  0  0  0  0  0  0
    6.9530   -4.9010   23.5990 C   0  0  0  0  0  0  0  0  0  0  0  0
    6.1410   -3.3020   25.0510 O   0  0  0  0  0  0  0  0  0  0  0  0
    8.5350   -2.9270   22.4280 C   0  0  0  0  0  0  0  0  0  0  0  0
    9.7700   -2.3880   22.1770 C   0  0  0  0  0  0  0  0  0  0  0  0
   12.6140    1.6700   22.9300 C   0  0  0  0  0  0  0  0  0  0  0  0
  1  2  1  0
  2  3  2  0
  2  4  1  0
  4  5  1  0
  5  6  1  0
  6  7  1  0
  7  8  2  0
  8  9  1  0
  9 10  2  0
 10 11  1  0
 11 12  1  0
 12 13  1  0
 13 14  1  0
 14 15  1  0
 15 16  1  0
 16 17  1  0
 17 18  1  0
 17 19  2  0
 16 20  1  0
 13 21  1  0
 20 21  1  0
  7 22  1  0
 11 22  2  0
M  END
