WIL-LEE-364b6ea8-4
     RDKit          3D

 21 21  0  0  0  0  0  0  0  0999 V2000
    3.4680   -3.3040   24.4250 C   0  0  0  0  0  0  0  0  0  0  0  0
    3.8150   -4.9610   23.8750 S   0  0  0  0  0  0  0  0  0  0  0  0
    4.2020   -5.7250   25.0440 O   0  0  0  0  0  0  0  0  0  0  0  0
    2.7140   -5.4110   23.0560 O   0  0  0  0  0  0  0  0  0  0  0  0
    5.2350   -4.7200   22.7930 C   0  0  0  0  0  0  0  0  0  0  0  0
    5.0670   -4.3000   21.6480 O   0  0  0  0  0  0  0  0  0  0  0  0
    6.4220   -5.0490   23.3400 C   0  0  0  0  0  0  0  0  0  0  0  0
    7.3420   -3.9780   23.3300 N   0  0  0  0  0  0  0  0  0  0  0  0
    7.8330   -3.3430   24.5590 C   0  0  0  0  0  0  0  0  0  0  0  0
    6.6920   -3.6090   24.9250 O   0  0  0  0  0  0  0  0  0  0  0  0
    9.0330   -3.2010   23.8070 C   0  0  2  0  0  0  0  0  0  0  0  0
   10.2670   -3.5920   24.5270 C   0  0  0  0  0  0  0  0  0  0  0  0
   11.4010   -3.2610   23.7370 O   0  0  0  0  0  0  0  0  0  0  0  0
    9.1130   -1.9980   23.0880 C   0  0  0  0  0  0  0  0  0  0  0  0
    8.1320   -1.3990   22.6290 O   0  0  0  0  0  0  0  0  0  0  0  0
   10.4560   -1.4560   22.9000 C   0  0  0  0  0  0  0  0  0  0  0  0
   11.3380   -2.0260   21.8900 C   0  0  0  0  0  0  0  0  0  0  0  0
   12.6170   -1.5610   21.7230 C   0  0  0  0  0  0  0  0  0  0  0  0
   13.0430   -0.5170   22.4860 C   0  0  0  0  0  0  0  0  0  0  0  0
   12.2700    0.1130   23.4330 C   0  0  0  0  0  0  0  0  0  0  0  0
   10.9510   -0.4200   23.6730 C   0  0  0  0  0  0  0  0  0  0  0  0
  1  2  1  0
  2  3  2  0
  2  4  2  0
  2  5  1  0
  5  6  2  0
  5  7  1  0
  7  8  1  0
  8  9  1  0
  9 10  2  0
  9 11  1  0
 11 12  1  1
 12 13  1  0
 11 14  1  0
 14 15  2  0
 14 16  1  0
 16 17  2  0
 17 18  1  0
 18 19  2  0
 19 20  1  0
 16 21  1  0
 20 21  1  0
M  END
