WIL-LEE-364b6ea8-20
     RDKit          3D

 13 12  0  0  0  0  0  0  0  0999 V2000
   13.0790   -1.4390   21.9750 C   0  0  0  0  0  0  0  0  0  0  0  0
   13.0830   -0.6670   23.1630 O   0  0  0  0  0  0  0  0  0  0  0  0
   12.1320    0.3770   23.1590 C   0  0  0  0  0  0  0  0  0  0  0  0
   10.7110   -0.1180   23.3960 C   0  0  0  0  0  0  0  0  0  0  0  0
   10.3380   -1.4780   22.9650 C   0  0  0  0  0  0  0  0  0  0  0  0
   11.1020   -2.1660   22.3080 O   0  0  0  0  0  0  0  0  0  0  0  0
    9.0690   -1.9220   23.3860 C   0  0  0  0  0  0  0  0  0  0  0  0
    8.9180   -3.2370   23.8480 C   0  0  0  0  0  0  0  0  0  0  0  0
    7.8320   -3.3430   24.8440 N   0  0  0  0  0  0  0  0  0  0  0  0
    8.0320   -4.3380   26.1990 S   0  0  0  0  0  0  0  0  0  0  0  0
    6.4640   -5.1700   26.3370 C   0  0  0  0  0  0  0  0  0  0  0  0
    9.0520   -5.3240   25.9220 O   0  0  0  0  0  0  0  0  0  0  0  0
    8.1240   -3.4430   27.3230 O   0  0  0  0  0  0  0  0  0  0  0  0
  1  2  1  0
  2  3  1  0
  3  4  1  0
  4  5  1  0
  5  6  2  0
  5  7  1  0
  7  8  1  0
  8  9  1  0
 10  9  1  0
 10 11  1  0
 10 12  2  0
 10 13  2  0
M  END
