WIL-LEE-364b6ea8-13
     RDKit          3D

 22 23  0  0  0  0  0  0  0  0999 V2000
   12.7260    3.4390   22.7020 C   0  0  0  0  0  0  0  0  0  0  0  0
   13.1720    2.1330   23.0830 O   0  0  0  0  0  0  0  0  0  0  0  0
   12.1430    1.2600   23.2590 C   0  0  0  0  0  0  0  0  0  0  0  0
   11.8230    0.3660   24.4220 C   0  0  0  0  0  0  0  0  0  0  0  0
   10.5460   -0.5860   24.3360 C   0  0  0  0  0  0  0  0  0  0  0  0
    9.2990   -1.3000   23.8020 C   0  0  0  0  0  0  0  0  0  0  0  0
    8.6690   -2.1690   24.6350 C   0  0  0  0  0  0  0  0  0  0  0  0
    8.6840   -3.5500   24.0040 C   0  0  0  0  0  0  0  0  0  0  0  0
    7.7940   -4.4090   24.8020 N   0  0  0  0  0  0  0  0  0  0  0  0
    8.2420   -4.6000   26.2050 C   0  0  0  0  0  0  0  0  0  0  0  0
    9.1870   -5.7420   26.5390 C   0  0  0  0  0  0  0  0  0  0  0  0
    7.9370   -3.9240   27.1760 O   0  0  0  0  0  0  0  0  0  0  0  0
    8.6950   -1.1960   22.5130 C   0  0  0  0  0  0  0  0  0  0  0  0
    9.6950   -0.2340   22.1960 N   0  0  0  0  0  0  0  0  0  0  0  0
   10.5700   -0.0620   23.3140 C   0  0  0  0  0  0  0  0  0  0  0  0
   11.6650    0.6760   23.6370 C   0  0  0  0  0  0  0  0  0  0  0  0
   11.2380    1.1200   22.3640 C   0  0  0  0  0  0  0  0  0  0  0  0
   10.1960    0.5010   22.1620 O   0  0  0  0  0  0  0  0  0  0  0  0
    8.8140    1.4320   21.9350 S   0  0  0  0  0  0  0  0  0  0  0  0
    7.8030    0.6390   21.2550 O   0  0  0  0  0  0  0  0  0  0  0  0
    9.2040    2.6830   21.3400 O   0  0  0  0  0  0  0  0  0  0  0  0
    8.2780    1.7510   23.2470 O   0  0  0  0  0  0  0  0  0  0  0  0
  1  2  1  0
  2  3  1  0
  3  4  2  0
  4  5  1  0
  5  6  1  0
  6  7  1  0
  7  8  1  0
  8  9  1  0
  9 10  1  0
 10 11  1  0
 10 12  2  0
  6 13  2  0
 13 14  1  0
  5 15  2  0
 14 15  1  0
 15 16  1  0
  3 17  1  0
 16 17  2  0
 17 18  1  0
 19 18  1  0
 19 20  2  0
 19 21  2  0
 19 22  1  0
M  END
