WIL-LEE-364b6ea8-37
     RDKit          3D

 28 29  0  0  0  0  0  0  0  0999 V2000
    4.6840   -2.2150   26.5350 O   0  0  0  0  0  0  0  0  0  0  0  0
    4.4010   -2.4970   25.3660 C   0  0  0  0  0  0  0  0  0  0  0  0
    5.2080   -2.1330   24.3550 C   0  0  0  0  0  0  0  0  0  0  0  0
    6.6660   -2.2430   24.6980 C   0  0  0  0  0  0  0  0  0  0  0  0
    7.4220   -3.1480   23.9220 C   0  0  0  0  0  0  0  0  0  0  0  0
    6.9660   -4.3040   23.3720 O   0  0  0  0  0  0  0  0  0  0  0  0
    8.7740   -2.8170   23.7000 C   0  0  0  0  0  0  0  0  0  0  0  0
    9.7350   -3.5440   24.3000 O   0  0  0  0  0  0  0  0  0  0  0  0
    9.1880   -1.7840   22.8780 C   0  0  0  0  0  0  0  0  0  0  0  0
    8.3300   -1.1970   22.2230 O   0  0  0  0  0  0  0  0  0  0  0  0
   10.5480   -1.4690   22.8370 C   0  0  0  0  0  0  0  0  0  0  0  0
   11.5050   -2.0650   21.8340 C   0  0  0  0  0  0  0  0  0  0  0  0
   12.9320   -1.6340   21.9080 C   0  0  0  0  0  0  0  0  0  0  0  0
   13.0380   -0.4230   22.5430 C   0  0  0  0  0  0  0  0  0  0  0  0
   12.5280   -0.5410   23.9050 C   0  0  0  0  0  0  0  0  0  0  0  0
   10.9930   -0.5740   23.7850 C   0  0  0  0  0  0  0  0  0  0  0  0
    3.3200   -3.1740   24.8950 O   0  0  0  0  0  0  0  0  0  0  0  0
    2.2880   -3.3600   25.7420 C   0  0  0  0  0  0  0  0  0  0  0  0
    1.9970   -2.8190   26.9640 O   0  0  0  0  0  0  0  0  0  0  0  0
    1.3150   -4.3800   25.1400 C   0  0  0  0  0  0  0  0  0  0  0  0
    1.6930   -5.1770   24.0910 O   0  0  0  0  0  0  0  0  0  0  0  0
    0.0750   -4.4130   25.7390 N   0  0  0  0  0  0  0  0  0  0  0  0
   -1.0940   -5.0860   25.1190 C   0  0  2  0  0  0  0  0  0  0  0  0
   -2.1560   -4.5440   25.7910 O   0  0  0  0  0  0  0  0  0  0  0  0
   -0.9380   -6.4740   25.1530 C   0  0  0  0  0  0  0  0  0  0  0  0
   -2.0720   -6.8560   25.5330 C   0  0  0  0  0  0  0  0  0  0  0  0
   -1.4930   -8.0580   25.4150 C   0  0  0  0  0  0  0  0  0  0  0  0
   -1.4130   -9.2260   25.4530 O   0  0  0  0  0  0  0  0  0  0  0  0
  1  2  2  0
  2  3  1  0
  3  4  1  0
  4  5  1  0
  5  6  2  0
  5  7  1  0
  7  8  2  0
  7  9  1  0
  9 10  2  0
  9 11  1  0
 11 12  2  0
 12 13  1  0
 13 14  1  0
 14 15  1  0
 11 16  1  0
 15 16  1  0
  2 17  1  0
 17 18  1  0
 18 19  2  0
 18 20  1  0
 20 21  2  0
 20 22  1  0
 22 23  1  0
 23 24  1  1
 23 25  1  0
 25 26  2  0
 25 27  1  0
 26 27  1  0
 27 28  2  0
M  END
