WIL-LEE-364b6ea8-5
     RDKit          3D

 18 18  0  0  0  0  0  0  0  0999 V2000
    4.2160   -6.9150   26.4960 C   0  0  0  0  0  0  0  0  0  0  0  0
    4.4560   -6.2160   25.1820 C   0  0  0  0  0  0  0  0  0  0  0  0
    5.6090   -5.4610   25.1400 N   0  0  0  0  0  0  0  0  0  0  0  0
    6.2600   -4.9970   26.3530 C   0  0  0  0  0  0  0  0  0  0  0  0
    5.8230   -5.0700   27.4910 O   0  0  0  0  0  0  0  0  0  0  0  0
    7.8000   -4.2890   26.0550 S   0  0  0  0  0  0  0  0  0  0  0  0
    8.7190   -5.3980   25.8590 O   0  0  0  0  0  0  0  0  0  0  0  0
    8.0160   -3.3470   27.1350 O   0  0  0  0  0  0  0  0  0  0  0  0
    7.5910   -3.3880   24.5360 C   0  0  0  0  0  0  0  0  0  0  0  0
    8.9040   -2.7650   24.2310 C   0  0  0  0  0  0  0  0  0  0  0  0
    8.8490   -1.6830   23.2890 O   0  0  0  0  0  0  0  0  0  0  0  0
   10.1260   -1.2220   22.9100 C   0  0  0  0  0  0  0  0  0  0  0  0
   10.6560    0.1130   23.3060 C   0  0  0  0  0  0  0  0  0  0  0  0
   11.9520    0.5860   22.9450 C   0  0  0  0  0  0  0  0  0  0  0  0
   12.9840   -0.4210   22.5850 C   0  0  0  0  0  0  0  0  0  0  0  0
   12.5960   -1.6660   22.1530 C   0  0  0  0  0  0  0  0  0  0  0  0
   11.1120   -2.0030   22.0490 C   0  0  0  0  0  0  0  0  0  0  0  0
   10.7380   -2.8510   21.2910 O   0  0  0  0  0  0  0  0  0  0  0  0
  1  2  1  0
  2  3  1  0
  3  4  1  0
  4  5  2  0
  6  4  1  0
  6  7  2  0
  6  8  2  0
  6  9  1  0
  9 10  1  0
 10 11  1  0
 11 12  1  0
 12 13  2  0
 13 14  1  0
 14 15  1  0
 15 16  2  0
 12 17  1  0
 16 17  1  0
 17 18  2  0
M  END
