WIL-LEE-364b6ea8-36
     RDKit          3D

 33 34  0  0  0  0  0  0  0  0999 V2000
    6.6550   -1.4590   24.8920 O   0  0  0  0  0  0  0  0  0  0  0  0
    6.6740   -2.6540   24.6440 C   0  0  0  0  0  0  0  0  0  0  0  0
    7.5610   -3.1760   23.5430 C   0  0  0  0  0  0  0  0  0  0  0  0
    8.8980   -2.7910   23.5670 C   0  0  0  0  0  0  0  0  0  0  0  0
    9.7540   -3.4940   24.0740 O   0  0  0  0  0  0  0  0  0  0  0  0
    9.2600   -1.5610   23.0070 C   0  0  0  0  0  0  0  0  0  0  0  0
    8.4010   -0.9800   22.3410 O   0  0  0  0  0  0  0  0  0  0  0  0
   10.5440   -1.1170   23.2590 C   0  0  0  0  0  0  0  0  0  0  0  0
   11.4520   -1.3840   24.2440 C   0  0  0  0  0  0  0  0  0  0  0  0
   12.6990   -0.6100   23.9910 C   0  0  0  0  0  0  0  0  0  0  0  0
   12.4600    0.0740   22.8780 C   0  0  0  0  0  0  0  0  0  0  0  0
   11.1750   -0.2050   22.4080 O   0  0  0  0  0  0  0  0  0  0  0  0
    5.9390   -3.6330   25.2810 N   0  0  0  0  0  0  0  0  0  0  0  0
    4.6100   -3.3330   25.8020 C   0  0  0  0  0  0  0  0  0  0  0  0
    4.5960   -3.4680   27.3150 C   0  0  0  0  0  0  0  0  0  0  0  0
    5.0970   -4.3770   27.9700 O   0  0  0  0  0  0  0  0  0  0  0  0
    3.8600   -2.3190   28.0140 C   0  0  0  0  0  0  0  0  0  0  0  0
    3.4640   -1.3740   27.3500 O   0  0  0  0  0  0  0  0  0  0  0  0
    3.6250   -2.3260   29.3970 C   0  0  0  0  0  0  0  0  0  0  0  0
    4.4820   -1.8930   30.1550 O   0  0  0  0  0  0  0  0  0  0  0  0
    2.4240   -2.8180   29.9260 C   0  0  0  0  0  0  0  0  0  0  0  0
    1.5200   -3.0420   29.1260 O   0  0  0  0  0  0  0  0  0  0  0  0
    2.3140   -3.0420   31.4380 C   0  0  0  0  0  0  0  0  0  0  0  0
    0.9080   -3.4000   31.9390 C   0  0  0  0  0  0  0  0  0  0  0  0
    0.1750   -2.3650   32.7620 C   0  0  0  0  0  0  0  0  0  0  0  0
   -0.8830   -2.9910   33.6900 C   0  0  0  0  0  0  0  0  0  0  0  0
   -0.6840   -4.0060   34.3490 O   0  0  0  0  0  0  0  0  0  0  0  0
   -2.0250   -2.2380   33.6370 O   0  0  0  0  0  0  0  0  0  0  0  0
   -3.1870   -2.6590   34.1830 C   0  0  0  0  0  0  0  0  0  0  0  0
   -3.5000   -4.0150   34.4460 C   0  0  0  0  0  0  0  0  0  0  0  0
   -4.7650   -4.0190   34.9960 C   0  0  0  0  0  0  0  0  0  0  0  0
   -5.2430   -2.7530   35.0860 O   0  0  0  0  0  0  0  0  0  0  0  0
   -4.2810   -1.9260   34.5910 C   0  0  0  0  0  0  0  0  0  0  0  0
  1  2  2  0
  2  3  1  0
  3  4  1  0
  4  5  2  0
  4  6  1  0
  6  7  2  0
  6  8  1  0
  8  9  2  0
  9 10  1  0
 10 11  2  0
  8 12  1  0
 11 12  1  0
  2 13  1  0
 13 14  1  0
 14 15  1  0
 15 16  2  0
 15 17  1  0
 17 18  2  0
 17 19  1  0
 19 20  2  0
 19 21  1  0
 21 22  2  0
 21 23  1  0
 23 24  1  0
 24 25  1  0
 25 26  1  0
 26 27  2  0
 26 28  1  0
 28 29  1  0
 29 30  1  0
 30 31  2  0
 31 32  1  0
 29 33  2  0
 32 33  1  0
M  END
