WIL-LEE-364b6ea8-10
     RDKit          3D

 20 22  0  0  0  0  0  0  0  0999 V2000
   12.4560   -2.9010   21.2040 O   0  0  0  0  0  0  0  0  0  0  0  0
   11.4790   -2.4320   21.7630 C   0  0  0  0  0  0  0  0  0  0  0  0
   10.1790   -2.9040   21.9220 N   0  0  0  0  0  0  0  0  0  0  0  0
    9.2120   -1.8060   22.4190 S   0  0  1  0  0  0  0  0  0  0  0  0
    8.1540   -1.1210   21.7090 O   0  0  0  0  0  0  0  0  0  0  0  0
    8.5490   -2.4530   23.9690 C   0  0  0  0  0  0  0  0  0  0  0  0
    7.8550   -1.6990   24.6490 O   0  0  0  0  0  0  0  0  0  0  0  0
    8.8720   -3.7600   24.2480 O   0  0  0  0  0  0  0  0  0  0  0  0
    8.6810   -4.3210   25.4600 C   0  0  0  0  0  0  0  0  0  0  0  0
    9.1930   -5.5170   26.1300 C   0  0  0  0  0  0  0  0  0  0  0  0
    8.6520   -5.6150   27.4100 C   0  0  0  0  0  0  0  0  0  0  0  0
    7.8250   -4.5400   27.5760 O   0  0  0  0  0  0  0  0  0  0  0  0
    7.8430   -3.7770   26.4200 C   0  0  0  0  0  0  0  0  0  0  0  0
   10.5070   -0.6630   22.6980 C   0  0  0  0  0  0  0  0  0  0  0  0
   10.5840    0.6630   23.2290 C   0  0  0  0  0  0  0  0  0  0  0  0
   11.9560    1.2530   23.2520 C   0  0  0  0  0  0  0  0  0  0  0  0
   13.0460    0.5290   22.7940 C   0  0  0  0  0  0  0  0  0  0  0  0
   14.2870    1.0200   22.7860 O   0  0  0  0  0  0  0  0  0  0  0  0
   12.9110   -0.7120   22.3090 C   0  0  0  0  0  0  0  0  0  0  0  0
   11.6650   -1.2440   22.2720 C   0  0  0  0  0  0  0  0  0  0  0  0
  1  2  2  0
  2  3  1  0
  3  4  2  0
  4  5  2  0
  4  6  1  1
  6  7  2  0
  6  8  1  0
  8  9  1  0
  9 10  1  0
 10 11  2  0
 11 12  1  0
  9 13  2  0
 12 13  1  0
  4 14  1  0
 14 15  2  0
 15 16  1  0
 16 17  2  0
 17 18  1  0
 17 19  1  0
  2 20  1  0
 14 20  1  0
 19 20  2  0
M  END
