WIL-LEE-364b6ea8-38
     RDKit          3D

 26 27  0  0  0  0  0  0  0  0999 V2000
    4.1390   -7.6080   29.0310 C   0  0  0  0  0  0  0  0  0  0  0  0
    3.4740   -6.3190   29.2730 C   0  0  0  0  0  0  0  0  0  0  0  0
    2.2740   -6.2030   29.5100 O   0  0  0  0  0  0  0  0  0  0  0  0
    4.1290   -5.1520   29.2510 C   0  0  0  0  0  0  0  0  0  0  0  0
    3.5140   -4.0900   29.2750 O   0  0  0  0  0  0  0  0  0  0  0  0
    5.6050   -5.0420   29.2140 C   0  0  0  0  0  0  0  0  0  0  0  0
    6.2030   -5.7770   29.9820 O   0  0  0  0  0  0  0  0  0  0  0  0
    6.1800   -4.1230   28.3080 N   0  0  0  0  0  0  0  0  0  0  0  0
    7.4780   -4.6170   27.7970 C   0  0  0  0  0  0  0  0  0  0  0  0
    7.8160   -4.5510   26.3700 C   0  0  0  0  0  0  0  0  0  0  0  0
    7.0150   -4.0690   25.4470 C   0  0  0  0  0  0  0  0  0  0  0  0
    5.8110   -4.1780   25.6800 O   0  0  0  0  0  0  0  0  0  0  0  0
    7.4320   -3.4380   24.1680 C   0  0  0  0  0  0  0  0  0  0  0  0
    6.5660   -3.2410   23.3200 O   0  0  0  0  0  0  0  0  0  0  0  0
    8.8320   -3.0420   23.8660 C   0  0  0  0  0  0  0  0  0  0  0  0
    9.6840   -3.7470   24.3380 O   0  0  0  0  0  0  0  0  0  0  0  0
    9.0180   -1.9050   23.0310 C   0  0  0  0  0  0  0  0  0  0  0  0
   10.2900   -1.3450   22.9220 C   0  0  0  0  0  0  0  0  0  0  0  0
   10.6190   -0.0900   23.4000 C   0  0  0  0  0  0  0  0  0  0  0  0
   11.8410    0.5450   23.3470 O   0  0  0  0  0  0  0  0  0  0  0  0
   12.8570   -0.1390   22.7730 C   0  0  0  0  0  0  0  0  0  0  0  0
   12.7020   -1.4430   22.2030 C   0  0  0  0  0  0  0  0  0  0  0  0
   11.4380   -2.1170   22.2150 C   0  0  0  0  0  0  0  0  0  0  0  0
    9.0580   -5.0890   26.1540 O   0  0  0  0  0  0  0  0  0  0  0  0
    9.1070   -5.8430   27.3980 C   0  0  0  0  0  0  0  0  0  0  0  0
    8.4730   -5.1810   28.5160 O   0  0  0  0  0  0  0  0  0  0  0  0
  1  2  1  0
  2  3  2  0
  2  4  1  0
  4  5  2  0
  4  6  1  0
  6  7  2  0
  6  8  1  0
  8  9  1  0
  9 10  2  0
 10 11  1  0
 11 12  2  0
 11 13  1  0
 13 14  2  0
 13 15  1  0
 15 16  2  0
 15 17  1  0
 17 18  1  0
 18 19  2  0
 19 20  1  0
 20 21  1  0
 21 22  2  0
 18 23  1  0
 22 23  1  0
 10 24  1  0
 24 25  1  0
  9 26  1  0
 25 26  1  0
M  END
