WIL-LEE-364b6ea8-3
     RDKit          3D

 30 30  0  0  0  0  0  0  0  0999 V2000
   13.2610   -2.7040   20.8570 C   0  0  0  0  0  0  0  0  0  0  0  0
   11.9700   -2.3790   21.0590 N   0  0  0  0  0  0  0  0  0  0  0  0
   11.7210   -1.6410   22.1150 C   0  0  0  0  0  0  0  0  0  0  0  0
   10.4900   -1.4320   22.8850 C   0  0  0  0  0  0  0  0  0  0  0  0
    9.2040   -1.9850   22.6550 C   0  0  0  0  0  0  0  0  0  0  0  0
    8.4880   -2.8520   23.5350 C   0  0  0  0  0  0  0  0  0  0  0  0
    8.0790   -3.9390   23.1210 O   0  0  0  0  0  0  0  0  0  0  0  0
    8.1170   -2.5640   24.8750 C   0  0  0  0  0  0  0  0  0  0  0  0
    7.1970   -3.3940   25.5690 C   0  0  0  0  0  0  0  0  0  0  0  0
    6.6820   -4.7520   25.9740 C   0  0  0  0  0  0  0  0  0  0  0  0
    5.4250   -3.9320   26.8740 S   0  0  0  0  0  0  0  0  0  0  0  0
    4.1460   -4.1950   26.2530 O   0  0  0  0  0  0  0  0  0  0  0  0
    5.8060   -2.5830   27.2300 O   0  0  0  0  0  0  0  0  0  0  0  0
    5.4580   -4.9410   28.3050 C   0  0  0  0  0  0  0  0  0  0  0  0
    4.6930   -4.9030   29.2620 O   0  0  0  0  0  0  0  0  0  0  0  0
    6.5070   -5.8510   28.2240 C   0  0  0  0  0  0  0  0  0  0  0  0
    6.7940   -6.5520   29.1840 O   0  0  0  0  0  0  0  0  0  0  0  0
    7.2050   -5.9050   26.8890 C   0  0  0  0  0  0  0  0  0  0  0  0
    6.5400   -5.8660   25.8560 O   0  0  0  0  0  0  0  0  0  0  0  0
    8.7270   -5.9530   26.8360 C   0  0  0  0  0  0  0  0  0  0  0  0
    9.3430   -6.9610   26.6720 O   0  0  0  0  0  0  0  0  0  0  0  0
    9.5230   -4.4850   27.0290 S   0  0  0  0  0  0  0  0  0  0  0  0
    8.4280   -3.5760   27.1200 O   0  0  0  0  0  0  0  0  0  0  0  0
   10.4850   -4.7720   28.0470 O   0  0  0  0  0  0  0  0  0  0  0  0
   10.3150   -3.9870   25.4930 C   0  0  0  0  0  0  0  0  0  0  0  0
   11.7010   -3.3660   25.2560 C   0  0  0  0  0  0  0  0  0  0  0  0
    9.5780   -4.1330   24.5320 O   0  0  0  0  0  0  0  0  0  0  0  0
   10.8120   -0.5100   23.9570 C   0  0  0  0  0  0  0  0  0  0  0  0
   12.2100   -0.3250   23.7990 C   0  0  0  0  0  0  0  0  0  0  0  0
   12.8390   -0.8480   22.7050 C   0  0  0  0  0  0  0  0  0  0  0  0
  1  2  1  0
  2  3  1  0
  3  4  2  0
  4  5  1  0
  5  6  1  0
  6  7  2  0
  6  8  1  0
  8  9  1  0
  9 10  2  3
 11 10  1  0
 11 12  2  0
 11 13  2  0
 11 14  1  0
 14 15  2  0
 14 16  1  0
 16 17  2  0
 16 18  1  0
 18 19  2  0
 18 20  1  0
 20 21  2  0
 22 20  1  0
 22 23  2  0
 22 24  2  0
 22 25  1  0
 25 26  1  0
 25 27  2  0
  4 28  1  0
 28 29  1  0
  3 30  1  0
 29 30  1  0
M  END
