WIL-LEE-364b6ea8-19
     RDKit          3D

 18 19  0  0  0  0  0  0  0  0999 V2000
    7.8450   -4.0730   23.0340 C   0  0  0  0  0  0  0  0  0  0  0  0
    7.6730   -2.9920   24.0000 C   0  0  0  0  0  0  0  0  0  0  0  0
    6.9040   -3.4970   25.0950 O   0  0  0  0  0  0  0  0  0  0  0  0
    8.0590   -1.6920   24.0620 C   0  0  0  0  0  0  0  0  0  0  0  0
    7.1580   -0.7460   24.4350 O   0  0  0  0  0  0  0  0  0  0  0  0
    9.3840   -1.5590   23.7030 C   0  0  0  0  0  0  0  0  0  0  0  0
   10.4030   -2.6090   23.7590 C   0  0  0  0  0  0  0  0  0  0  0  0
   11.5550   -2.1490   23.3340 C   0  0  0  0  0  0  0  0  0  0  0  0
   11.3390   -0.7060   22.9650 C   0  0  0  0  0  0  0  0  0  0  0  0
   10.0380   -0.2810   23.1670 C   0  0  0  0  0  0  0  0  0  0  0  0
   12.6140   -0.2040   22.4570 C   0  0  0  0  0  0  0  0  0  0  0  0
   12.9220    1.1350   22.5150 O   0  0  0  0  0  0  0  0  0  0  0  0
   13.3700   -1.3120   21.9090 N   0  0  0  0  0  0  0  0  0  0  0  0
   13.1550   -2.3110   23.0560 S   0  0  0  0  0  0  0  0  0  0  0  0
   13.9410   -3.2500   23.7990 O   0  0  0  0  0  0  0  0  0  0  0  0
   13.2200   -0.9240   24.1300 C   0  0  0  0  0  0  0  0  0  0  0  0
   13.0520    0.3390   23.5630 C   0  0  0  0  0  0  0  0  0  0  0  0
   13.3840   -1.1700   25.3230 O   0  0  0  0  0  0  0  0  0  0  0  0
  1  2  2  3
  2  3  1  0
  2  4  1  0
  4  5  2  0
  4  6  1  0
  6  7  2  0
  7  8  1  0
  8  9  2  0
  6 10  1  0
  9 10  1  0
  9 11  1  0
 11 12  2  0
 11 13  1  0
  8 14  1  0
 13 14  2  0
 14 15  2  0
 14 16  1  0
 16 17  1  0
 16 18  2  0
M  END
