WIL-LEE-364b6ea8-9
     RDKit          3D

 24 25  0  0  0  0  0  0  0  0999 V2000
   13.3940   -1.2330   21.7810 N   0  0  0  0  0  0  0  0  0  0  0  0
   13.1370   -0.2920   23.1490 S   0  0  0  0  0  0  0  0  0  0  0  0
   13.5890    1.0320   22.8370 O   0  0  0  0  0  0  0  0  0  0  0  0
   13.6450   -1.1000   24.2190 O   0  0  0  0  0  0  0  0  0  0  0  0
   11.4760   -0.3030   23.3080 C   0  0  0  0  0  0  0  0  0  0  0  0
   10.8970   -1.4370   23.9130 C   0  0  0  0  0  0  0  0  0  0  0  0
    9.3690   -1.4150   23.9470 C   0  0  0  0  0  0  0  0  0  0  0  0
    8.7350   -1.7340   24.9370 O   0  0  0  0  0  0  0  0  0  0  0  0
    8.6430   -0.9890   22.7080 C   0  0  0  0  0  0  0  0  0  0  0  0
    7.7980   -2.0580   23.0090 C   0  0  0  0  0  0  0  0  0  0  0  0
    8.3580   -3.1490   23.6800 C   0  0  0  0  0  0  0  0  0  0  0  0
    9.5070   -3.5210   23.5330 O   0  0  0  0  0  0  0  0  0  0  0  0
    7.4040   -3.6720   24.4860 O   0  0  0  0  0  0  0  0  0  0  0  0
    6.7370   -4.7660   24.0660 C   0  0  0  0  0  0  0  0  0  0  0  0
    6.9530   -5.5370   23.1490 O   0  0  0  0  0  0  0  0  0  0  0  0
    5.6460   -4.9150   24.9200 C   0  0  0  0  0  0  0  0  0  0  0  0
    5.6660   -4.3290   25.9980 O   0  0  0  0  0  0  0  0  0  0  0  0
    4.5610   -5.7160   24.5430 C   0  0  0  0  0  0  0  0  0  0  0  0
    3.7580   -5.5230   23.4200 C   0  0  0  0  0  0  0  0  0  0  0  0
    2.7430   -6.5660   23.3870 C   0  0  0  0  0  0  0  0  0  0  0  0
    2.9550   -7.3680   24.4990 C   0  0  0  0  0  0  0  0  0  0  0  0
    4.0520   -6.8980   25.2420 C   0  0  0  0  0  0  0  0  0  0  0  0
    9.6170   -0.1860   22.8440 C   0  0  0  0  0  0  0  0  0  0  0  0
   10.5680    0.7270   22.8300 C   0  0  0  0  0  0  0  0  0  0  0  0
  2  1  1  0
  2  3  2  0
  2  4  2  0
  2  5  1  0
  5  6  2  0
  6  7  1  0
  7  8  2  0
  7  9  1  0
  9 10  1  0
 10 11  1  0
 11 12  2  0
 11 13  1  0
 13 14  1  0
 14 15  2  0
 14 16  1  0
 16 17  2  0
 16 18  1  0
 18 19  2  0
 19 20  1  0
 20 21  1  0
 18 22  1  0
 21 22  2  0
  9 23  2  0
  5 24  1  0
 23 24  1  0
M  END
