WIL-LEE-364b6ea8-26
     RDKit          3D

 24 24  0  0  0  0  0  0  0  0999 V2000
    9.9670   -3.4440   23.9830 O   0  0  0  0  0  0  0  0  0  0  0  0
    8.8810   -2.8990   23.8110 C   0  0  0  0  0  0  0  0  0  0  0  0
    8.8520   -1.6880   23.2480 C   0  0  0  0  0  0  0  0  0  0  0  0
    8.6980   -1.5320   21.7690 C   0  0  0  0  0  0  0  0  0  0  0  0
    7.6790   -1.0100   21.3230 O   0  0  0  0  0  0  0  0  0  0  0  0
    7.6700   -3.5040   24.1790 N   0  0  0  0  0  0  0  0  0  0  0  0
    6.7390   -2.9470   25.4460 S   0  0  0  0  0  0  0  0  0  0  0  0
    5.8230   -4.4260   26.0000 C   0  0  0  0  0  0  0  0  0  0  0  0
    4.5840   -4.0220   26.5310 C   0  0  0  0  0  0  0  0  0  0  0  0
    4.5770   -3.0070   27.4490 O   0  0  0  0  0  0  0  0  0  0  0  0
    3.3740   -4.6180   26.1530 C   0  0  0  0  0  0  0  0  0  0  0  0
    3.4390   -5.5950   25.4110 O   0  0  0  0  0  0  0  0  0  0  0  0
    2.1490   -4.1110   26.6050 C   0  0  0  0  0  0  0  0  0  0  0  0
    0.9720   -3.7950   25.7000 C   0  0  0  0  0  0  0  0  0  0  0  0
   -0.2830   -3.2520   26.3480 C   0  0  0  0  0  0  0  0  0  0  0  0
   -1.4690   -3.5170   25.7150 O   0  0  0  0  0  0  0  0  0  0  0  0
   -0.2480   -2.5150   27.5330 C   0  0  0  0  0  0  0  0  0  0  0  0
    0.1680   -1.3610   27.4710 O   0  0  0  0  0  0  0  0  0  0  0  0
   -0.7180   -3.1290   28.8210 C   0  0  0  0  0  0  0  0  0  0  0  0
   -0.4810   -2.2490   30.0420 C   0  0  0  0  0  0  0  0  0  0  0  0
   -0.9110   -2.7920   31.2780 C   0  0  0  0  0  0  0  0  0  0  0  0
   -1.3160   -4.2770   31.2940 C   0  0  0  0  0  0  0  0  0  0  0  0
   -1.2870   -5.0970   30.1960 O   0  0  0  0  0  0  0  0  0  0  0  0
   -1.3550   -4.4800   28.8970 C   0  0  0  0  0  0  0  0  0  0  0  0
  1  2  2  0
  2  3  1  0
  3  4  3  0
  4  5  1  0
  2  6  1  0
  6  7  1  0
  7  8  1  0
  8  9  1  0
  9 10  2  0
  9 11  1  0
 11 12  2  0
 11 13  1  0
 13 14  2  3
 14 15  1  0
 15 16  2  0
 15 17  1  0
 17 18  2  0
 17 19  1  0
 19 20  2  0
 20 21  1  0
 21 22  2  0
 22 23  1  0
 19 24  1  0
 23 24  1  0
M  END
