WIL-LEE-364b6ea8-8
     RDKit          3D

 30 30  0  0  0  0  0  0  0  0999 V2000
   13.0490   -0.4390   23.2230 C   0  0  0  0  0  0  0  0  0  0  0  0
   12.1040    0.4870   23.1400 C   0  0  0  0  0  0  0  0  0  0  0  0
   12.3800    1.6830   23.1100 O   0  0  0  0  0  0  0  0  0  0  0  0
   10.6630    0.1240   23.0730 C   0  0  0  0  0  0  0  0  0  0  0  0
    9.8560    1.0400   23.1740 O   0  0  0  0  0  0  0  0  0  0  0  0
   10.2560   -1.2070   22.8760 C   0  0  0  0  0  0  0  0  0  0  0  0
    8.9670   -1.5960   23.3080 C   0  0  0  0  0  0  0  0  0  0  0  0
    8.7800   -2.8690   23.8470 C   0  0  0  0  0  0  0  0  0  0  0  0
    9.5920   -3.7460   23.9820 O   0  0  0  0  0  0  0  0  0  0  0  0
    7.3260   -2.7830   24.1880 N   0  0  0  0  0  0  0  0  0  0  0  0
    6.4880   -3.6710   25.3220 S   0  0  0  0  0  0  0  0  0  0  0  0
    6.7100   -5.0460   24.8870 O   0  0  0  0  0  0  0  0  0  0  0  0
    6.8430   -3.2440   26.6580 O   0  0  0  0  0  0  0  0  0  0  0  0
    4.7550   -3.4040   25.1290 C   0  0  0  0  0  0  0  0  0  0  0  0
    3.9140   -4.4740   24.4560 C   0  0  0  0  0  0  0  0  0  0  0  0
    2.5390   -4.6650   25.0360 C   0  0  0  0  0  0  0  0  0  0  0  0
    1.8160   -5.8080   24.7140 C   0  0  0  0  0  0  0  0  0  0  0  0
    0.8830   -6.4670   25.6790 C   0  0  0  0  0  0  0  0  0  0  0  0
    0.2520   -7.4790   25.3730 O   0  0  0  0  0  0  0  0  0  0  0  0
    0.3910   -8.0280   24.0980 C   0  0  0  0  0  0  0  0  0  0  0  0
   -0.5260   -9.4490   23.6750 S   0  0  0  0  0  0  0  0  0  0  0  0
   -0.5630   -9.5200   22.2300 O   0  0  0  0  0  0  0  0  0  0  0  0
   -0.0400  -10.5830   24.4470 O   0  0  0  0  0  0  0  0  0  0  0  0
   -2.2110   -9.1060   24.2290 C   0  0  0  0  0  0  0  0  0  0  0  0
   -2.4500   -8.9320   25.4210 O   0  0  0  0  0  0  0  0  0  0  0  0
   -3.4110   -9.0200   23.2770 C   0  0  0  0  0  0  0  0  0  0  0  0
   -3.8350  -10.2960   22.4760 C   0  0  0  0  0  0  0  0  0  0  0  0
   -3.9920   -7.9450   23.1910 O   0  0  0  0  0  0  0  0  0  0  0  0
    1.2090   -7.5110   23.1580 C   0  0  0  0  0  0  0  0  0  0  0  0
    2.0040   -6.3770   23.3340 C   0  0  0  0  0  0  0  0  0  0  0  0
  1  2  1  0
  2  3  2  0
  2  4  1  0
  4  5  2  0
  4  6  1  0
  6  7  1  0
  7  8  1  0
  8  9  2  0
  8 10  1  0
 11 10  1  0
 11 12  2  0
 11 13  2  0
 11 14  1  0
 14 15  1  0
 15 16  1  0
 16 17  1  0
 17 18  2  0
 18 19  1  0
 19 20  1  0
 20 21  1  0
 21 22  2  0
 21 23  2  0
 21 24  1  0
 24 25  2  0
 24 26  1  0
 26 27  1  0
 26 28  2  0
 20 29  2  0
 17 30  1  0
 29 30  1  0
M  END
