WIL-LEE-364b6ea8-29
     RDKit          3D

 21 20  0  0  0  0  0  0  0  0999 V2000
    4.7740    0.5680   20.2340 C   0  0  0  0  0  0  0  0  0  0  0  0
    5.7970   -0.0940   19.4170 C   0  0  0  0  0  0  0  0  0  0  0  0
    7.0750   -0.1580   19.8040 C   0  0  0  0  0  0  0  0  0  0  0  0
    7.6660    0.3950   21.0540 C   0  0  0  0  0  0  0  0  0  0  0  0
    8.3970    1.5760   20.9550 O   0  0  0  0  0  0  0  0  0  0  0  0
    7.4980   -0.2660   22.3050 C   0  0  0  0  0  0  0  0  0  0  0  0
    7.7260   -1.4800   22.3780 O   0  0  0  0  0  0  0  0  0  0  0  0
    8.8590   -1.7770   23.2500 C   0  0  0  0  0  0  0  0  0  0  0  0
    9.9980   -1.0230   23.3370 O   0  0  0  0  0  0  0  0  0  0  0  0
    8.7590   -2.8770   24.0080 C   0  0  0  0  0  0  0  0  0  0  0  0
    9.5300   -3.7750   23.7520 O   0  0  0  0  0  0  0  0  0  0  0  0
    7.8410   -2.9690   25.0140 N   0  0  0  0  0  0  0  0  0  0  0  0
    6.9570   -4.1650   25.0650 C   0  0  0  0  0  0  0  0  0  0  0  0
    6.3800   -4.5940   26.3600 C   0  0  0  0  0  0  0  0  0  0  0  0
    5.5450   -5.7160   26.4120 C   0  0  0  0  0  0  0  0  0  0  0  0
    4.1060   -5.2820   27.4250 S   0  0  0  0  0  0  0  0  0  0  0  0
    2.8790   -5.1570   26.1810 C   0  0  0  0  0  0  0  0  0  0  0  0
    2.9330   -5.7970   25.1380 O   0  0  0  0  0  0  0  0  0  0  0  0
    1.8090   -4.2930   26.4050 C   0  0  0  0  0  0  0  0  0  0  0  0
    0.6130   -4.1460   25.6470 C   0  0  0  0  0  0  0  0  0  0  0  0
   -0.3190   -3.3820   25.8640 O   0  0  0  0  0  0  0  0  0  0  0  0
  1  2  2  0
  2  3  2  0
  3  4  1  0
  4  5  2  0
  4  6  1  0
  6  7  1  0
  7  8  1  0
  8  9  2  0
  8 10  1  0
 10 11  2  0
 10 12  1  0
 12 13  1  0
 13 14  2  3
 14 15  1  0
 15 16  1  0
 16 17  1  0
 17 18  2  0
 17 19  1  0
 19 20  2  3
 20 21  1  0
M  END
