WIL-LEE-364b6ea8-7
     RDKit          3D

 25 25  0  0  0  0  0  0  0  0999 V2000
    7.1150    8.1700   23.7720 O   0  0  0  0  0  0  0  0  0  0  0  0
    8.0080    7.6670   23.0910 C   0  0  0  0  0  0  0  0  0  0  0  0
    9.4340    7.5670   23.4340 C   0  0  0  0  0  0  0  0  0  0  0  0
   10.1830    7.1740   22.5490 O   0  0  0  0  0  0  0  0  0  0  0  0
    9.8840    7.9000   24.6510 C   0  0  0  0  0  0  0  0  0  0  0  0
   11.5550    7.5210   24.6880 S   0  0  0  0  0  0  0  0  0  0  0  0
   11.2010    6.1650   25.6640 C   0  0  0  0  0  0  0  0  0  0  0  0
   11.3300    6.1750   26.8790 O   0  0  0  0  0  0  0  0  0  0  0  0
   10.7260    5.0160   24.9710 C   0  0  0  0  0  0  0  0  0  0  0  0
    9.8340    4.3180   25.4400 O   0  0  0  0  0  0  0  0  0  0  0  0
   11.2490    4.5760   23.6460 C   0  0  0  0  0  0  0  0  0  0  0  0
   10.8260    3.3480   23.3040 C   0  0  0  0  0  0  0  0  0  0  0  0
   11.6660    2.4760   23.0430 O   0  0  0  0  0  0  0  0  0  0  0  0
    9.0660    2.8260   23.2210 S   0  0  0  0  0  0  0  0  0  0  0  0
    8.4310    3.6500   22.2200 O   0  0  0  0  0  0  0  0  0  0  0  0
    8.6290    2.8640   24.6060 O   0  0  0  0  0  0  0  0  0  0  0  0
    9.0030    1.2150   22.6860 C   0  0  0  0  0  0  0  0  0  0  0  0
    9.7980    0.0430   23.1780 C   0  0  0  0  0  0  0  0  0  0  0  0
    9.4300   -1.1350   22.5190 C   0  0  0  0  0  0  0  0  0  0  0  0
    9.8880   -2.3970   22.7050 C   0  0  0  0  0  0  0  0  0  0  0  0
    9.4030   -2.8870   23.9030 C   0  0  0  0  0  0  0  0  0  0  0  0
    7.9910   -3.2190   23.8780 N   0  0  0  0  0  0  0  0  0  0  0  0
    7.9070   -4.6310   23.5360 O   0  0  0  0  0  0  0  0  0  0  0  0
    8.3930   -0.5760   21.6020 C   0  0  0  0  0  0  0  0  0  0  0  0
    8.1140    0.8140   21.6610 C   0  0  0  0  0  0  0  0  0  0  0  0
  1  2  2  0
  2  3  1  0
  3  4  2  0
  3  5  1  0
  5  6  1  0
  6  7  1  0
  7  8  2  0
  7  9  1  0
  9 10  2  0
  9 11  1  0
 11 12  1  0
 12 13  2  0
 14 12  1  0
 14 15  2  0
 14 16  2  0
 14 17  1  0
 17 18  2  0
 18 19  1  0
 19 20  1  0
 20 21  1  0
 21 22  1  0
 22 23  1  0
 19 24  2  0
 17 25  1  0
 24 25  1  0
M  END
