WIL-LEE-364b6ea8-28
     RDKit          3D

 23 24  0  0  0  0  0  0  0  0999 V2000
    8.1470   -2.0350   22.3610 O   0  0  0  0  0  0  0  0  0  0  0  0
    8.4140   -1.7910   23.5360 C   0  0  0  0  0  0  0  0  0  0  0  0
    7.5320   -2.2970   24.5770 C   0  0  0  0  0  0  0  0  0  0  0  0
    6.6270   -3.3320   24.4950 C   0  0  0  0  0  0  0  0  0  0  0  0
    5.2810   -3.0590   24.6640 C   0  0  0  0  0  0  0  0  0  0  0  0
    4.3480   -4.1780   24.5770 C   0  0  0  0  0  0  0  0  0  0  0  0
    5.2740   -5.2960   24.3120 N   0  0  0  0  0  0  0  0  0  0  0  0
    6.6920   -4.8090   24.2500 C   0  0  0  0  0  0  0  0  0  0  0  0
    7.8610   -5.5790   24.0010 O   0  0  0  0  0  0  0  0  0  0  0  0
    9.6290   -0.9200   23.9250 C   0  0  0  0  0  0  0  0  0  0  0  0
   10.8990   -1.2550   23.6950 C   0  0  0  0  0  0  0  0  0  0  0  0
   10.8490   -2.5020   23.1770 C   0  0  0  0  0  0  0  0  0  0  0  0
   11.2670   -3.5900   23.8770 O   0  0  0  0  0  0  0  0  0  0  0  0
   10.1810   -2.3110   21.6260 S   0  0  0  0  0  0  0  0  0  0  0  0
    9.3730   -3.4500   21.4490 O   0  0  0  0  0  0  0  0  0  0  0  0
    9.6320   -0.9650   21.5620 O   0  0  0  0  0  0  0  0  0  0  0  0
   11.8640   -2.2720   20.9720 C   0  0  0  0  0  0  0  0  0  0  0  0
   12.8600   -1.5160   21.4860 C   0  0  0  0  0  0  0  0  0  0  0  0
   14.0110   -1.5470   20.8250 O   0  0  0  0  0  0  0  0  0  0  0  0
   12.1810   -0.5790   23.9010 C   0  0  0  0  0  0  0  0  0  0  0  0
   11.9910   -0.4550   25.3070 C   0  0  0  0  0  0  0  0  0  0  0  0
   10.5180   -0.0520   25.5670 C   0  0  0  0  0  0  0  0  0  0  0  0
    9.6140    0.2260   24.5410 C   0  0  0  0  0  0  0  0  0  0  0  0
  1  2  2  0
  2  3  1  0
  3  4  1  0
  4  5  2  0
  5  6  1  0
  6  7  2  0
  4  8  1  0
  7  8  1  0
  8  9  2  0
  2 10  1  0
 10 11  2  0
 11 12  1  0
 12 13  2  0
 14 12  1  0
 14 15  2  0
 14 16  2  0
 14 17  1  0
 17 18  2  3
 18 19  1  0
 11 20  1  0
 20 21  1  0
 21 22  2  0
 10 23  1  0
 22 23  1  0
M  END
