WIL-LEE-364b6ea8-35
     RDKit          3D

 19 18  0  0  0  0  0  0  0  0999 V2000
    9.4810   -3.5000   24.1360 O   0  0  0  0  0  0  0  0  0  0  0  0
    8.6880   -2.7190   23.6670 C   0  0  0  0  0  0  0  0  0  0  0  0
    7.2730   -2.9420   23.6990 C   0  0  0  0  0  0  0  0  0  0  0  0
    6.9160   -3.7470   24.8980 C   0  0  0  0  0  0  0  0  0  0  0  0
    5.5190   -4.1820   25.1690 C   0  0  0  0  0  0  0  0  0  0  0  0
    5.2590   -4.5460   26.4990 C   0  0  0  0  0  0  0  0  0  0  0  0
    5.6120   -5.6610   26.8880 O   0  0  0  0  0  0  0  0  0  0  0  0
    4.6100   -3.6730   27.3770 C   0  0  0  0  0  0  0  0  0  0  0  0
    4.5630   -2.3530   27.0420 O   0  0  0  0  0  0  0  0  0  0  0  0
    4.1170   -4.1330   28.3970 O   0  0  0  0  0  0  0  0  0  0  0  0
    3.4670   -3.0310   29.1150 O   0  0  0  0  0  0  0  0  0  0  0  0
    9.1280   -1.4490   23.0100 C   0  0  0  0  0  0  0  0  0  0  0  0
   10.4920   -1.2110   23.0620 C   0  0  0  0  0  0  0  0  0  0  0  0
   11.3450   -2.0830   23.0380 O   0  0  0  0  0  0  0  0  0  0  0  0
   10.9080    0.1110   23.1200 C   0  0  0  0  0  0  0  0  0  0  0  0
   10.0640    1.0040   23.1000 O   0  0  0  0  0  0  0  0  0  0  0  0
   12.2460    0.4870   23.1740 C   0  0  0  0  0  0  0  0  0  0  0  0
   12.5830    1.6470   23.1190 O   0  0  0  0  0  0  0  0  0  0  0  0
   13.0700   -0.5700   23.2800 O   0  0  0  0  0  0  0  0  0  0  0  0
  1  2  2  0
  2  3  1  0
  3  4  1  0
  4  5  1  0
  5  6  1  0
  6  7  2  0
  6  8  1  0
  8  9  2  0
  8 10  1  0
 10 11  1  0
  2 12  1  0
 12 13  1  0
 13 14  2  0
 13 15  1  0
 15 16  2  0
 15 17  1  0
 17 18  2  0
 17 19  1  0
M  END
