WIL-LEE-23e8b574-6
     RDKit          3D

 16 17  0  0  0  0  0  0  0  0999 V2000
   10.3550    3.4390   23.3120 O   0  0  0  0  0  0  0  0  0  0  0  0
    9.4290    2.6340   23.3220 C   0  0  0  0  0  0  0  0  0  0  0  0
    8.0220    3.1770   23.3850 C   0  0  0  0  0  0  0  0  0  0  0  0
    7.7780    3.8630   24.5680 N   0  0  0  0  0  0  0  0  0  0  0  0
    7.6990    3.3230   25.8800 C   0  0  0  0  0  0  0  0  0  0  0  0
    6.5680    3.5910   26.6650 C   0  0  0  0  0  0  0  0  0  0  0  0
    5.4490    4.1060   26.0910 N   0  0  0  0  0  0  0  0  0  0  0  0
    5.6060    4.7320   24.9160 C   0  0  0  0  0  0  0  0  0  0  0  0
    6.8620    4.9400   24.3770 C   0  0  0  0  0  0  0  0  0  0  0  0
    9.5030    1.2500   23.2840 N   0  0  0  0  0  0  0  0  0  0  0  0
   10.6300    0.4670   22.9830 C   0  0  0  0  0  0  0  0  0  0  0  0
   12.0690    1.1130   23.0260 C   0  0  0  0  0  0  0  0  0  0  0  0
   13.1990    0.1610   22.6710 C   0  0  0  0  0  0  0  0  0  0  0  0
   12.5700   -1.0980   22.3930 C   0  0  0  0  0  0  0  0  0  0  0  0
   11.3670   -1.7970   22.3160 C   0  0  0  0  0  0  0  0  0  0  0  0
   10.3360   -0.9080   22.6470 C   0  0  0  0  0  0  0  0  0  0  0  0
  1  2  2  0
  2  3  1  0
  3  4  1  0
  4  5  1  0
  5  6  1  0
  6  7  1  0
  7  8  1  0
  4  9  1  0
  8  9  1  0
  2 10  1  0
 10 11  1  0
 11 12  2  0
 12 13  1  0
 13 14  2  0
 14 15  1  0
 11 16  1  0
 15 16  2  0
M  END
