WIL-LEE-23e8b574-1
     RDKit          3D

 19 20  0  0  0  0  0  0  0  0999 V2000
   14.6880    1.7400   18.1490 C   0  0  0  0  0  0  0  0  0  0  0  0
   14.0960    3.0840   18.3760 C   0  0  0  0  0  0  0  0  0  0  0  0
   12.9570    3.4640   18.1650 O   0  0  0  0  0  0  0  0  0  0  0  0
   15.0860    3.7490   18.7860 N   0  0  0  0  0  0  0  0  0  0  0  0
   14.8480    4.9050   19.3480 C   0  0  0  0  0  0  0  0  0  0  0  0
   13.8560    4.8530   20.3520 C   0  0  0  0  0  0  0  0  0  0  0  0
   13.6780    3.7030   21.0310 N   0  0  0  0  0  0  0  0  0  0  0  0
   13.1860    3.7150   22.6600 S   0  0  0  0  0  0  0  0  0  0  0  0
   13.2470    2.3350   23.0090 O   0  0  0  0  0  0  0  0  0  0  0  0
   14.0280    4.6790   23.3340 O   0  0  0  0  0  0  0  0  0  0  0  0
   11.4720    4.1660   22.9320 C   0  0  0  0  0  0  0  0  0  0  0  0
   10.5880    3.1720   23.4320 C   0  0  0  0  0  0  0  0  0  0  0  0
   10.2950    1.8780   23.9610 C   0  0  0  0  0  0  0  0  0  0  0  0
   11.4500    0.7260   24.2290 C   0  0  0  0  0  0  0  0  0  0  0  0
   10.5920   -0.3560   24.7320 C   0  0  0  0  0  0  0  0  0  0  0  0
   10.6630    1.0320   24.2190 C   0  0  0  0  0  0  0  0  0  0  0  0
   11.4350    2.2220   23.6920 C   0  0  0  0  0  0  0  0  0  0  0  0
   14.5690    2.6710   20.7260 C   0  0  0  0  0  0  0  0  0  0  0  0
   15.6440    2.8930   19.6540 C   0  0  0  0  0  0  0  0  0  0  0  0
  1  2  1  0
  2  3  2  0
  2  4  1  0
  4  5  1  0
  5  6  1  0
  6  7  1  0
  7  8  1  0
  8  9  2  0
  8 10  2  0
  8 11  1  0
 11 12  1  0
 12 13  2  0
 13 14  1  0
 14 15  2  0
 15 16  1  0
 12 17  1  0
 16 17  2  0
  7 18  1  0
  4 19  1  0
 18 19  1  0
M  END
