WIL-LEE-364b6ea8-24
     RDKit          3D

 29 29  0  0  0  0  0  0  0  0999 V2000
   12.0620   -2.8780   24.3660 C   0  0  0  0  0  0  0  0  0  0  0  0
   13.3010   -2.7630   23.5210 C   0  0  0  0  0  0  0  0  0  0  0  0
   14.3250   -3.2570   23.9200 O   0  0  0  0  0  0  0  0  0  0  0  0
   13.1300   -1.9830   22.2310 C   0  0  0  0  0  0  0  0  0  0  0  0
   12.3020   -0.9710   22.6560 C   0  0  0  0  0  0  0  0  0  0  0  0
   12.6480    0.2950   23.0900 C   0  0  0  0  0  0  0  0  0  0  0  0
   11.5590    1.1160   23.5360 C   0  0  0  0  0  0  0  0  0  0  0  0
   10.6560    0.4250   24.3170 C   0  0  0  0  0  0  0  0  0  0  0  0
   10.0600   -0.5770   23.6020 C   0  0  0  0  0  0  0  0  0  0  0  0
    8.5940   -0.9520   23.6860 C   0  0  0  0  0  0  0  0  0  0  0  0
    7.6580   -0.2360   23.3480 O   0  0  0  0  0  0  0  0  0  0  0  0
    8.3520   -2.3340   24.2680 C   0  0  0  0  0  0  0  0  0  0  0  0
    9.1750   -3.2190   24.1000 O   0  0  0  0  0  0  0  0  0  0  0  0
    7.1950   -2.5980   25.0200 C   0  0  0  0  0  0  0  0  0  0  0  0
    6.6500   -1.6880   25.6310 O   0  0  0  0  0  0  0  0  0  0  0  0
    6.6380   -3.9620   25.0920 C   0  0  0  0  0  0  0  0  0  0  0  0
    5.9910   -4.3360   26.0710 O   0  0  0  0  0  0  0  0  0  0  0  0
    6.8710   -4.8570   24.0540 C   0  0  0  0  0  0  0  0  0  0  0  0
    6.3080   -5.9380   24.1140 O   0  0  0  0  0  0  0  0  0  0  0  0
    7.7020   -4.4710   23.0050 C   0  0  0  0  0  0  0  0  0  0  0  0
    7.5370   -3.2230   22.3790 C   0  0  0  0  0  0  0  0  0  0  0  0
    8.4440   -2.5860   21.8610 O   0  0  0  0  0  0  0  0  0  0  0  0
    6.2790   -2.6160   22.2920 C   0  0  0  0  0  0  0  0  0  0  0  0
    5.9870   -1.5710   23.0110 N   0  0  0  0  0  0  0  0  0  0  0  0
    5.3170   -3.1070   21.4380 C   0  0  0  0  0  0  0  0  0  0  0  0
    4.4590   -3.8540   21.8790 O   0  0  0  0  0  0  0  0  0  0  0  0
    5.3860   -2.7260   20.1120 C   0  0  0  0  0  0  0  0  0  0  0  0
    5.0130   -3.8420   19.3110 O   0  0  0  0  0  0  0  0  0  0  0  0
   10.9400   -1.3390   22.6820 C   0  0  0  0  0  0  0  0  0  0  0  0
  1  2  1  0
  2  3  2  0
  2  4  1  0
  4  5  1  0
  5  6  2  0
  6  7  1  0
  7  8  1  0
  8  9  1  0
  9 10  1  0
 10 11  2  0
 10 12  1  0
 12 13  2  0
 12 14  1  0
 14 15  2  0
 14 16  1  0
 16 17  2  0
 16 18  1  0
 18 19  2  0
 18 20  1  0
 20 21  1  0
 21 22  2  0
 21 23  1  0
 23 24  2  3
 23 25  1  0
 25 26  2  0
 25 27  1  0
 27 28  1  0
  5 29  1  0
  9 29  2  0
M  END
