WIL-LEE-23e8b574-5
     RDKit          3D

 23 25  0  0  0  0  0  0  0  0999 V2000
    5.9700   -1.9070   18.6940 C   0  0  0  0  0  0  0  0  0  0  0  0
    5.8050   -2.7830   19.8730 C   0  0  0  0  0  0  0  0  0  0  0  0
    5.3300   -3.9290   19.7360 O   0  0  0  0  0  0  0  0  0  0  0  0
    6.2600   -2.2680   21.0900 N   0  0  0  0  0  0  0  0  0  0  0  0
    6.2030   -3.1160   22.2830 C   0  0  0  0  0  0  0  0  0  0  0  0
    7.5030   -3.4040   22.7080 C   0  0  0  0  0  0  0  0  0  0  0  0
    8.2740   -2.1760   23.0080 N   0  0  0  0  0  0  0  0  0  0  0  0
    9.4950   -2.5030   23.7380 C   0  0  1  0  0  0  0  0  0  0  0  0
   10.6420   -1.5370   23.4810 C   0  0  0  0  0  0  0  0  0  0  0  0
   10.5690   -0.1380   24.1070 C   0  0  0  0  0  0  0  0  0  0  0  0
   11.7130    0.7920   23.8290 C   0  0  0  0  0  0  0  0  0  0  0  0
   12.8150    0.3020   22.9910 C   0  0  0  0  0  0  0  0  0  0  0  0
   12.7820   -0.9470   22.4930 C   0  0  0  0  0  0  0  0  0  0  0  0
   11.7470   -1.8930   22.6930 C   0  0  0  0  0  0  0  0  0  0  0  0
    9.3470   -2.7950   25.0650 N   0  0  0  0  0  0  0  0  0  0  0  0
    7.9810   -2.9980   25.4640 C   0  0  0  0  0  0  0  0  0  0  0  0
    7.4800   -4.2350   25.8930 C   0  0  0  0  0  0  0  0  0  0  0  0
    8.4410   -5.1310   26.3400 C   0  0  0  0  0  0  0  0  0  0  0  0
    8.8220   -4.7110   27.4230 O   0  0  0  0  0  0  0  0  0  0  0  0
    9.5530   -5.1120   25.5340 C   0  0  0  0  0  0  0  0  0  0  0  0
   10.1760   -3.8580   25.4470 C   0  0  0  0  0  0  0  0  0  0  0  0
    8.4630   -1.4230   21.8920 C   0  0  0  0  0  0  0  0  0  0  0  0
    7.1420   -1.0910   21.2130 C   0  0  0  0  0  0  0  0  0  0  0  0
  1  2  1  0
  2  3  2  0
  2  4  1  0
  4  5  1  0
  5  6  1  0
  6  7  1  0
  7  8  1  0
  8  9  1  1
  9 10  2  0
 10 11  1  0
 11 12  2  0
 12 13  1  0
  9 14  1  0
 13 14  2  0
  8 15  1  0
 15 16  1  0
 16 17  1  0
 17 18  1  0
 18 19  1  0
 18 20  1  0
 15 21  1  0
 20 21  1  0
  7 22  1  0
  4 23  1  0
 22 23  1  0
M  END
