WIL-LEE-364b6ea8-27
     RDKit          3D

 12 11  0  0  0  0  0  0  0  0999 V2000
    3.5910   -6.9850   26.8500 O   0  0  0  0  0  0  0  0  0  0  0  0
    4.1660   -6.9170   25.7640 C   0  0  0  0  0  0  0  0  0  0  0  0
    3.9470   -7.6630   24.6500 O   0  0  0  0  0  0  0  0  0  0  0  0
    5.2410   -5.8790   25.5730 C   0  0  0  0  0  0  0  0  0  0  0  0
    5.0230   -5.0270   24.7090 O   0  0  0  0  0  0  0  0  0  0  0  0
    6.4160   -5.8810   26.3200 N   0  0  0  0  0  0  0  0  0  0  0  0
    6.3800   -4.9200   27.3010 C   0  0  0  0  0  0  0  0  0  0  0  0
    5.3530   -5.4470   27.7110 O   0  0  0  0  0  0  0  0  0  0  0  0
    7.8660   -4.5460   26.3190 S   0  0  0  0  0  0  0  0  0  0  0  0
    8.7830   -5.6620   26.4400 O   0  0  0  0  0  0  0  0  0  0  0  0
    8.2060   -3.1890   26.6770 O   0  0  0  0  0  0  0  0  0  0  0  0
    7.2260   -4.5210   24.8340 O   0  0  0  0  0  0  0  0  0  0  0  0
  1  2  2  0
  2  3  1  0
  2  4  1  0
  4  5  2  0
  4  6  1  0
  6  7  1  0
  7  8  2  0
  7  9  1  0
  9 10  2  0
  9 11  2  0
  9 12  1  0
M  END
