WIL-LEE-364b6ea8-30
     RDKit          3D

 20 20  0  0  0  0  0  0  0  0999 V2000
    9.3030   -5.2820   27.9000 O   0  0  0  0  0  0  0  0  0  0  0  0
    8.4590   -6.1090   27.6250 C   0  0  0  0  0  0  0  0  0  0  0  0
    7.0820   -6.1450   28.1110 C   0  0  0  0  0  0  0  0  0  0  0  0
    6.7360   -4.4180   28.4560 S   0  0  0  0  0  0  0  0  0  0  0  0
    7.6310   -3.7330   27.1410 C   0  0  0  0  0  0  0  0  0  0  0  0
    7.4100   -4.2450   25.8500 C   0  0  0  0  0  0  0  0  0  0  0  0
    8.0590   -3.7320   24.7360 N   0  0  0  0  0  0  0  0  0  0  0  0
    8.4950   -2.3720   24.7730 C   0  0  0  0  0  0  0  0  0  0  0  0
    8.9480   -1.8810   25.8010 O   0  0  0  0  0  0  0  0  0  0  0  0
    8.3800   -1.5580   23.6560 C   0  0  0  0  0  0  0  0  0  0  0  0
    7.6340   -1.9400   22.7600 O   0  0  0  0  0  0  0  0  0  0  0  0
    9.0350   -0.4950   23.6570 O   0  0  0  0  0  0  0  0  0  0  0  0
   10.3210   -0.6880   23.1600 C   0  0  0  0  0  0  0  0  0  0  0  0
   10.4300   -1.6840   22.1630 C   0  0  0  0  0  0  0  0  0  0  0  0
   11.8350   -1.8410   21.7720 C   0  0  0  0  0  0  0  0  0  0  0  0
   10.8850   -1.0230   22.5450 C   0  0  0  0  0  0  0  0  0  0  0  0
   10.6910    0.1810   22.2940 O   0  0  0  0  0  0  0  0  0  0  0  0
   12.9670   -1.0750   22.3270 C   0  0  0  0  0  0  0  0  0  0  0  0
   12.7740   -0.0960   23.2550 O   0  0  0  0  0  0  0  0  0  0  0  0
   11.4000    0.1200   23.7040 C   0  0  0  0  0  0  0  0  0  0  0  0
  1  2  2  0
  2  3  1  0
  3  4  1  0
  4  5  1  0
  5  6  2  3
  6  7  1  0
  7  8  1  0
  8  9  2  0
  8 10  1  0
 10 11  2  0
 10 12  1  0
 12 13  1  0
 13 14  2  0
 14 15  1  0
 15 16  1  0
 16 17  2  0
 15 18  2  0
 18 19  1  0
 13 20  1  0
 19 20  1  0
M  END
