WIL-LEE-364b6ea8-32
     RDKit          3D

 26 26  0  0  0  0  0  0  0  0999 V2000
    9.0290   -3.7730   23.7530 O   0  0  0  0  0  0  0  0  0  0  0  0
    8.6110   -2.6210   23.7280 C   0  0  0  0  0  0  0  0  0  0  0  0
    7.5460   -2.1780   24.6520 C   0  0  0  0  0  0  0  0  0  0  0  0
    6.9150   -0.9730   24.8340 C   0  0  0  0  0  0  0  0  0  0  0  0
    5.9480   -1.0560   25.8710 C   0  0  0  0  0  0  0  0  0  0  0  0
    6.2270   -1.4740   26.9880 O   0  0  0  0  0  0  0  0  0  0  0  0
    4.7290   -0.6270   25.4640 O   0  0  0  0  0  0  0  0  0  0  0  0
    3.5900   -1.2150   26.1010 C   0  0  0  0  0  0  0  0  0  0  0  0
    3.1790   -2.3290   25.3930 C   0  0  0  0  0  0  0  0  0  0  0  0
    3.6990   -2.6720   24.3270 O   0  0  0  0  0  0  0  0  0  0  0  0
    2.0180   -3.0940   26.0360 C   0  0  0  0  0  0  0  0  0  0  0  0
    2.5060   -4.1400   26.9680 N   0  0  0  0  0  0  0  0  0  0  0  0
    3.6300   -4.9440   26.4270 C   0  0  0  0  0  0  0  0  0  0  0  0
    3.1960   -6.1790   25.6640 C   0  0  0  0  0  0  0  0  0  0  0  0
    2.4220   -7.0310   26.1280 O   0  0  0  0  0  0  0  0  0  0  0  0
    3.7660   -6.5460   23.9630 S   0  0  0  0  0  0  0  0  0  0  0  0
    2.9380   -5.7730   23.0640 O   0  0  0  0  0  0  0  0  0  0  0  0
    5.2070   -6.4700   23.9900 O   0  0  0  0  0  0  0  0  0  0  0  0
    3.3180   -8.1000   23.9050 O   0  0  0  0  0  0  0  0  0  0  0  0
    9.1300   -1.5790   22.7290 C   0  0  0  0  0  0  0  0  0  0  0  0
   10.5170   -1.3880   22.7660 C   0  0  0  0  0  0  0  0  0  0  0  0
   11.4680   -2.1100   21.8350 C   0  0  0  0  0  0  0  0  0  0  0  0
   12.9630   -1.7930   22.0030 C   0  0  0  0  0  0  0  0  0  0  0  0
   13.1940   -0.5620   22.8300 C   0  0  0  0  0  0  0  0  0  0  0  0
   12.1580    0.2520   23.2090 C   0  0  0  0  0  0  0  0  0  0  0  0
   11.0510   -0.4230   23.7430 C   0  0  0  0  0  0  0  0  0  0  0  0
  1  2  2  0
  2  3  1  0
  3  4  2  3
  4  5  1  0
  5  6  2  0
  5  7  1  0
  7  8  1  0
  8  9  1  0
  9 10  2  0
  9 11  1  0
 11 12  1  0
 12 13  1  0
 13 14  1  0
 14 15  2  0
 14 16  1  0
 16 17  2  0
 16 18  2  0
 16 19  1  0
  2 20  1  0
 20 21  1  0
 21 22  2  0
 22 23  1  0
 23 24  1  0
 24 25  1  0
 21 26  1  0
 25 26  1  0
M  END
