WIL-LEE-1f71e281-3
     RDKit          3D

 18 19  0  0  0  0  0  0  0  0999 V2000
    5.3230   -2.9760   21.6990 C   0  0  0  0  0  0  0  0  0  0  0  0
    6.2350   -1.9160   22.3240 C   0  0  0  0  0  0  0  0  0  0  0  0
    5.8110   -0.7840   22.5520 O   0  0  0  0  0  0  0  0  0  0  0  0
    7.5390   -2.2920   22.6110 N   0  0  0  0  0  0  0  0  0  0  0  0
    8.2810   -1.8510   23.7870 C   0  0  1  0  0  0  0  0  0  0  0  0
    8.3600   -2.8860   24.7530 C   0  0  0  0  0  0  0  0  0  0  0  0
    9.4340   -3.8850   24.6970 C   0  0  0  0  0  0  0  0  0  0  0  0
    9.5610   -4.9680   25.6390 C   0  0  0  0  0  0  0  0  0  0  0  0
    8.5970   -4.9430   26.5530 C   0  0  0  0  0  0  0  0  0  0  0  0
    7.6500   -4.0540   26.6030 C   0  0  0  0  0  0  0  0  0  0  0  0
    6.5270   -4.2920   27.9350 Cl  0  0  0  0  0  0  0  0  0  0  0  0
    7.4070   -2.9900   25.7890 C   0  0  0  0  0  0  0  0  0  0  0  0
    9.6710   -1.3840   23.3500 C   0  0  0  0  0  0  0  0  0  0  0  0
   10.4300   -0.1670   23.6370 N   0  0  0  0  0  0  0  0  0  0  0  0
   11.6610   -0.0880   23.1150 N   0  0  0  0  0  0  0  0  0  0  0  0
   12.0640   -1.1430   22.3710 C   0  0  0  0  0  0  0  0  0  0  0  0
   13.4310   -1.0580   21.8410 C   0  0  0  0  0  0  0  0  0  0  0  0
   10.8070   -2.2580   22.3200 S   0  0  0  0  0  0  0  0  0  0  0  0
  1  2  1  0
  2  3  2  0
  2  4  1  0
  5  4  1  6
  5  6  1  0
  6  7  2  0
  7  8  1  0
  8  9  2  0
  9 10  1  0
 10 11  1  0
  6 12  1  0
 10 12  2  0
  5 13  1  0
 13 14  2  0
 14 15  1  0
 15 16  2  0
 16 17  1  0
 13 18  1  0
 16 18  1  0
M  END
