WIL-LEE-364b6ea8-22
     RDKit          3D

 24 25  0  0  0  0  0  0  0  0999 V2000
    8.8090   -1.5560   21.7270 O   0  0  0  0  0  0  0  0  0  0  0  0
    9.1100   -2.2790   22.6730 C   0  0  0  0  0  0  0  0  0  0  0  0
   10.4560   -2.3230   23.2710 C   0  0  1  0  0  0  0  0  0  0  0  0
   11.7520   -2.2040   22.7510 C   0  0  0  0  0  0  0  0  0  0  0  0
   12.1300   -0.8790   22.4850 C   0  0  0  0  0  0  0  0  0  0  0  0
   13.3820   -0.6540   22.0230 N   0  0  0  0  0  0  0  0  0  0  0  0
   14.0110    0.4500   22.5570 O   0  0  0  0  0  0  0  0  0  0  0  0
   13.0620    1.3830   23.1060 O   0  0  0  0  0  0  0  0  0  0  0  0
   11.2380    0.2400   22.7090 C   0  0  0  0  0  0  0  0  0  0  0  0
   10.2910    0.1020   23.5860 C   0  0  0  0  0  0  0  0  0  0  0  0
   10.2810   -1.2230   24.3100 C   0  0  0  0  0  0  0  0  0  0  0  0
    7.7900   -3.2520   23.3700 S   0  0  0  0  0  0  0  0  0  0  0  0
    8.2670   -4.6110   23.4440 O   0  0  0  0  0  0  0  0  0  0  0  0
    7.4380   -2.5430   24.5880 O   0  0  0  0  0  0  0  0  0  0  0  0
    6.3350   -3.2070   22.2950 C   0  0  0  0  0  0  0  0  0  0  0  0
    5.0380   -2.8070   22.9750 C   0  0  0  0  0  0  0  0  0  0  0  0
    5.2160   -4.2940   22.8120 C   0  0  0  0  0  0  0  0  0  0  0  0
    4.6760   -4.9460   23.9310 C   0  0  0  0  0  0  0  0  0  0  0  0
    3.2580   -5.5520   23.9620 C   0  0  0  0  0  0  0  0  0  0  0  0
    2.4140   -5.4960   22.8790 O   0  0  0  0  0  0  0  0  0  0  0  0
    2.7300   -6.1890   25.0730 O   0  0  0  0  0  0  0  0  0  0  0  0
    3.6480   -6.6820   26.0550 C   0  0  0  0  0  0  0  0  0  0  0  0
    4.9460   -5.9070   26.1380 C   0  0  0  0  0  0  0  0  0  0  0  0
    5.4350   -5.0750   25.1180 C   0  0  0  0  0  0  0  0  0  0  0  0
  1  2  2  0
  3  2  1  6
  3  4  1  0
  4  5  2  0
  5  6  1  0
  6  7  1  0
  7  8  1  0
  5  9  1  0
  9 10  2  0
  3 11  1  0
 10 11  1  0
 12  2  1  0
 12 13  2  0
 12 14  2  0
 12 15  1  0
 15 16  1  0
 16 17  1  0
 17 18  1  0
 18 19  2  0
 19 20  1  0
 19 21  1  0
 21 22  1  0
 22 23  1  0
 18 24  1  0
 23 24  2  0
M  END
