WIL-WAB-1289c0dd-2
     RDKit          3D

 27 29  0  0  0  0  0  0  0  0999 V2000
    9.3630   -2.2590   23.9930 C   0  0  0  0  0  0  0  0  0  0  0  0
   10.7910   -1.7800   24.1470 C   0  0  2  0  0  0  0  0  0  0  0  0
   11.7350   -2.8150   24.2020 C   0  0  0  0  0  0  0  0  0  0  0  0
   12.9700   -2.6460   24.7220 C   0  0  0  0  0  0  0  0  0  0  0  0
   13.3490   -1.5290   25.2130 N   0  0  0  0  0  0  0  0  0  0  0  0
   12.4460   -0.5500   25.1570 C   0  0  0  0  0  0  0  0  0  0  0  0
   11.0580   -0.7390   25.0340 C   0  0  1  0  0  0  0  0  0  0  0  0
   10.1140    0.3230   25.0140 N   0  0  0  0  0  0  0  0  0  0  0  0
    8.8040    0.2490   25.4750 C   0  0  0  0  0  0  0  0  0  0  0  0
    8.4290    0.0190   26.6220 O   0  0  0  0  0  0  0  0  0  0  0  0
    7.7730    0.5000   24.3880 C   0  0  0  0  0  0  0  0  0  0  0  0
    7.8500   -0.4410   23.3320 O   0  0  0  0  0  0  0  0  0  0  0  0
    8.8450   -0.0960   22.3710 C   0  0  0  0  0  0  0  0  0  0  0  0
   10.2180   -0.2970   22.8760 N   0  0  0  0  0  0  0  0  0  0  0  0
   10.8170   -1.4450   22.1530 C   0  0  0  0  0  0  0  0  0  0  0  0
   12.1970   -1.5280   22.2180 C   0  0  0  0  0  0  0  0  0  0  0  0
   12.9640   -0.4070   22.5480 C   0  0  0  0  0  0  0  0  0  0  0  0
   12.3340    0.8370   22.7690 C   0  0  0  0  0  0  0  0  0  0  0  0
   13.0880    2.1280   22.8130 C   0  0  0  0  0  0  0  0  0  0  0  0
   12.7030    3.6010   23.0260 C   0  0  0  0  0  0  0  0  0  0  0  0
   11.2080    3.3450   23.2210 C   0  0  0  0  0  0  0  0  0  0  0  0
   10.3180    4.8590   23.5620 S   0  0  0  0  0  0  0  0  0  0  0  0
   10.8510    5.9510   22.4120 N   0  0  0  0  0  0  0  0  0  0  0  0
    8.9090    4.6710   23.4330 O   0  0  0  0  0  0  0  0  0  0  0  0
   10.8030    5.4830   24.7310 O   0  0  0  0  0  0  0  0  0  0  0  0
   10.4590    2.1350   23.1750 C   0  0  0  0  0  0  0  0  0  0  0  0
   10.9920    0.8700   22.9400 C   0  0  0  0  0  0  0  0  0  0  0  0
  2  1  1  1
  2  3  1  0
  3  4  1  0
  4  5  2  0
  5  6  1  0
  2  7  1  0
  6  7  1  0
  7  8  1  6
  8  9  1  0
  9 10  2  0
  9 11  1  0
 11 12  1  0
 12 13  1  0
 13 14  1  0
 14 15  1  0
 15 16  1  0
 16 17  1  0
 17 18  1  0
 18 19  2  0
 19 20  1  0
 20 21  2  0
 21 22  1  0
 22 23  1  0
 22 24  2  0
 22 25  2  0
 21 26  1  0
 14 27  1  0
 18 27  1  0
 26 27  2  0
M  END
