YIA-UNI-71f25a82-2
     RDKit          3D

 35 37  0  0  0  0  0  0  0  0999 V2000
   13.0080    6.0040   22.1340 C   0  0  0  0  0  0  0  0  0  0  0  0
   12.6800    5.1010   23.2850 C   0  0  0  0  0  0  0  0  0  0  0  0
   11.9780    5.6730   24.3650 C   0  0  0  0  0  0  0  0  0  0  0  0
   11.9350    3.8870   22.7910 C   0  0  0  0  0  0  0  0  0  0  0  0
   10.4620    3.7680   23.0690 C   0  0  2  0  0  0  0  0  0  0  0  0
    9.6730    3.0330   22.1580 N   0  0  0  0  0  0  0  0  0  0  0  0
    8.8560    1.9490   22.7850 C   0  0  0  0  0  0  0  0  0  0  0  0
    8.5540    1.9470   24.1850 O   0  0  0  0  0  0  0  0  0  0  0  0
    8.3970    0.9560   21.8850 C   0  0  1  0  0  0  0  0  0  0  0  0
    8.4990   -0.5560   22.0950 C   0  0  0  0  0  0  0  0  0  0  0  0
    9.6620   -1.1510   22.8430 C   0  0  0  0  0  0  0  0  0  0  0  0
   10.6970   -0.1690   22.5170 C   0  0  0  0  0  0  0  0  0  0  0  0
   11.6300   -1.0270   23.3560 N   0  0  0  0  0  0  0  0  0  0  0  0
   11.0750   -2.2440   23.9910 C   0  0  0  0  0  0  0  0  0  0  0  0
   12.2060   -2.6740   24.6190 C   0  0  0  0  0  0  0  0  0  0  0  0
   13.4630   -2.0450   24.5830 C   0  0  0  0  0  0  0  0  0  0  0  0
   13.0880   -0.9600   23.7390 C   0  0  0  0  0  0  0  0  0  0  0  0
   11.9400   -0.5630   23.1250 C   0  0  0  0  0  0  0  0  0  0  0  0
   10.8050   -1.2680   23.2620 C   0  0  0  0  0  0  0  0  0  0  0  0
    7.0370    1.1300   21.8090 N   0  0  0  0  0  0  0  0  0  0  0  0
    6.2890    1.6400   20.6490 C   0  0  0  0  0  0  0  0  0  0  0  0
    6.4680    1.2280   19.5030 O   0  0  0  0  0  0  0  0  0  0  0  0
    5.3500    2.6280   20.9650 C   0  0  0  0  0  0  0  0  0  0  0  0
    3.9600    2.1200   20.7560 N   0  0  0  0  0  0  0  0  0  0  0  0
    3.2810    2.1840   21.8950 N   0  0  0  0  0  0  0  0  0  0  0  0
    3.2650    2.8580   19.6610 C   0  0  0  0  0  0  0  0  0  0  0  0
    1.8900    2.9630   19.8820 C   0  0  0  0  0  0  0  0  0  0  0  0
    1.1930    1.8900   20.4410 C   0  0  0  0  0  0  0  0  0  0  0  0
   -0.1820    1.9830   20.6670 C   0  0  0  0  0  0  0  0  0  0  0  0
   -0.8670    3.1520   20.3340 C   0  0  0  0  0  0  0  0  0  0  0  0
   -0.1790    4.2260   19.7750 C   0  0  0  0  0  0  0  0  0  0  0  0
    1.1890    4.1310   19.5500 C   0  0  0  0  0  0  0  0  0  0  0  0
    9.7730    5.1250   23.3630 C   0  0  0  0  0  0  0  0  0  0  0  0
    8.9870    5.2930   24.2950 O   0  0  0  0  0  0  0  0  0  0  0  0
   10.0950    6.1350   22.5250 O   0  0  0  0  0  0  0  0  0  0  0  0
  1  2  1  0
  2  3  1  0
  2  4  1  0
  5  4  1  6
  5  6  1  0
  6  7  1  0
  7  8  2  0
  7  9  1  0
  9 10  1  1
 10 11  1  0
 11 12  2  0
 12 13  1  0
 13 14  1  0
 14 15  1  0
 15 16  2  0
 16 17  1  0
 17 18  2  0
 11 19  1  0
 14 19  2  0
 18 19  1  0
  9 20  1  0
 20 21  1  0
 21 22  2  0
 21 23  1  0
 23 24  1  0
 24 25  1  0
 24 26  1  0
 26 27  1  0
 27 28  2  0
 28 29  1  0
 29 30  2  0
 30 31  1  0
 27 32  1  0
 31 32  2  0
  5 33  1  0
 33 34  2  0
 33 35  1  0
M  END
