YIA-UNI-f2fa0570-1
     RDKit          3D

 38 39  0  0  0  0  0  0  0  0999 V2000
    1.6500    1.6960   24.9170 C   0  0  0  0  0  0  0  0  0  0  0  0
    1.3860    1.1270   23.6790 C   0  0  0  0  0  0  0  0  0  0  0  0
    1.4810    1.8860   22.4880 C   0  0  2  0  0  0  0  0  0  0  0  0
    0.4570    1.5260   21.4490 C   0  0  0  0  0  0  0  0  0  0  0  0
    2.8710    2.0020   22.1800 C   0  0  2  0  0  0  0  0  0  0  0  0
    3.6550    2.0540   23.2850 N   0  0  0  0  0  0  0  0  0  0  0  0
    4.9470    1.6890   23.1440 C   0  0  0  0  0  0  0  0  0  0  0  0
    6.0190    2.4250   23.5360 O   0  0  0  0  0  0  0  0  0  0  0  0
    5.3620    0.4850   22.5570 C   0  0  2  0  0  0  0  0  0  0  0  0
    4.4870   -0.5910   22.7530 C   0  0  0  0  0  0  0  0  0  0  0  0
    4.6800   -1.1680   24.0160 C   0  0  0  0  0  0  0  0  0  0  0  0
    3.5400   -1.1960   25.0550 C   0  0  0  0  0  0  0  0  0  0  0  0
    3.6870   -1.7570   26.2970 C   0  0  0  0  0  0  0  0  0  0  0  0
    4.8990   -2.3240   26.6420 N   0  0  0  0  0  0  0  0  0  0  0  0
    6.0350   -2.3460   25.7260 C   0  0  0  0  0  0  0  0  0  0  0  0
    5.8630   -1.7640   24.4540 C   0  0  0  0  0  0  0  0  0  0  0  0
    6.6470    0.0060   22.8400 N   0  0  0  0  0  0  0  0  0  0  0  0
    7.5020   -0.1440   21.7910 C   0  0  0  0  0  0  0  0  0  0  0  0
    7.0620   -0.4660   20.5350 O   0  0  0  0  0  0  0  0  0  0  0  0
    8.8830    0.0280   21.9260 C   0  0  0  0  0  0  0  0  0  0  0  0
    9.4780   -0.3390   23.1440 C   0  0  0  0  0  0  0  0  0  0  0  0
   10.4870   -1.3170   23.1290 C   0  0  0  0  0  0  0  0  0  0  0  0
   11.3360   -1.2710   22.0470 C   0  0  0  0  0  0  0  0  0  0  0  0
   12.5230   -1.9480   22.2000 C   0  0  0  0  0  0  0  0  0  0  0  0
   13.3230   -1.4180   23.1740 C   0  0  0  0  0  0  0  0  0  0  0  0
   12.5690   -0.9780   24.2580 C   0  0  0  0  0  0  0  0  0  0  0  0
   11.2560   -1.4810   24.2770 C   0  0  0  0  0  0  0  0  0  0  0  0
    3.1290    3.1480   21.4020 C   0  0  0  0  0  0  0  0  0  0  0  0
    3.7380    3.0430   20.1210 O   0  0  0  0  0  0  0  0  0  0  0  0
    2.7200    4.4460   21.9950 N   0  0  0  0  0  0  0  0  0  0  0  0
    2.1590    5.3250   20.9510 C   0  0  1  0  0  0  0  0  0  0  0  0
    0.7670    5.3020   20.8070 C   0  0  0  0  0  0  0  0  0  0  0  0
    0.1060    4.2990   19.8390 C   0  0  0  0  0  0  0  0  0  0  0  0
    0.8760    3.2270   19.4120 C   0  0  0  0  0  0  0  0  0  0  0  0
   -0.3950    5.0510   18.6030 C   0  0  0  0  0  0  0  0  0  0  0  0
    2.6010    6.6650   20.9790 C   0  0  0  0  0  0  0  0  0  0  0  0
    2.9310    7.2970   21.9770 O   0  0  0  0  0  0  0  0  0  0  0  0
    2.6330    7.2440   19.7620 O   0  0  0  0  0  0  0  0  0  0  0  0
  1  2  1  0
  2  3  1  0
  3  4  1  6
  3  5  1  0
  5  6  1  1
  6  7  1  0
  7  8  2  0
  7  9  1  0
  9 10  1  1
 10 11  1  0
 11 12  2  0
 12 13  1  0
 13 14  2  0
 14 15  1  0
 11 16  1  0
 15 16  2  0
  9 17  1  0
 17 18  1  0
 18 19  2  0
 18 20  1  0
 20 21  1  0
 21 22  1  0
 22 23  1  0
 23 24  1  0
 24 25  1  0
 25 26  1  0
 22 27  1  0
 26 27  1  0
  5 28  1  0
 28 29  2  0
 28 30  1  0
 30 31  1  0
 31 32  1  1
 32 33  1  0
 33 34  1  0
 33 35  1  0
 31 36  1  0
 36 37  2  0
 36 38  1  0
M  END
