YIA-UNI-71f25a82-1
     RDKit          3D

 40 44  0  0  0  0  0  0  0  0999 V2000
    7.5270   -0.6830   21.6420 N   0  0  0  0  0  0  0  0  0  0  0  0
    8.4830    0.1710   21.7870 C   0  0  2  0  0  0  0  0  0  0  0  0
    9.8290   -0.4760   22.1830 C   0  0  0  0  0  0  0  0  0  0  0  0
   10.2580   -0.3260   23.4970 C   0  0  0  0  0  0  0  0  0  0  0  0
   11.0110   -0.4240   24.6150 C   0  0  0  0  0  0  0  0  0  0  0  0
   12.1830   -1.0820   24.6790 N   0  0  0  0  0  0  0  0  0  0  0  0
   12.6950   -1.7050   23.5930 C   0  0  0  0  0  0  0  0  0  0  0  0
   13.4920   -1.8810   24.5610 C   0  0  0  0  0  0  0  0  0  0  0  0
   12.5760   -1.2020   24.9630 C   0  0  0  0  0  0  0  0  0  0  0  0
   12.6960   -1.7450   23.4190 C   0  0  0  0  0  0  0  0  0  0  0  0
   11.9020   -1.6860   22.0900 C   0  0  0  0  0  0  0  0  0  0  0  0
   11.4900   -1.1660   23.0460 C   0  0  0  0  0  0  0  0  0  0  0  0
    8.0690    1.2900   22.7720 C   0  0  0  0  0  0  0  0  0  0  0  0
    7.9000    1.0750   24.1120 O   0  0  0  0  0  0  0  0  0  0  0  0
    7.8820    2.5150   22.1590 N   0  0  0  0  0  0  0  0  0  0  0  0
    7.0980    3.3440   22.8850 N   0  0  0  0  0  0  0  0  0  0  0  0
    6.2890    4.1120   22.1060 C   0  0  0  0  0  0  0  0  0  0  0  0
    5.1600    3.2900   21.4570 C   0  0  0  0  0  0  0  0  0  0  0  0
    3.7470    3.4610   22.0020 C   0  0  0  0  0  0  0  0  0  0  0  0
    2.6550    2.6490   21.3470 C   0  0  0  0  0  0  0  0  0  0  0  0
    2.9690    1.7900   20.2900 C   0  0  0  0  0  0  0  0  0  0  0  0
    4.3840    1.6580   19.7900 C   0  0  0  0  0  0  0  0  0  0  0  0
    5.3930    2.4020   20.3900 C   0  0  0  0  0  0  0  0  0  0  0  0
    7.7460    3.7870   24.0300 C   0  0  0  0  0  0  0  0  0  0  0  0
    8.4040    2.9850   24.6950 O   0  0  0  0  0  0  0  0  0  0  0  0
    7.6160    5.1260   24.3400 N   0  0  0  0  0  0  0  0  0  0  0  0
    7.4740    5.5910   25.7360 C   0  0  2  0  0  0  0  0  0  0  0  0
    6.4490    6.5360   25.8700 C   0  0  0  0  0  0  0  0  0  0  0  0
    6.0960    7.4430   24.6940 C   0  0  0  0  0  0  0  0  0  0  0  0
    5.1830    7.0770   23.6940 C   0  0  0  0  0  0  0  0  0  0  0  0
    5.1010    8.1210   22.8050 N   0  0  0  0  0  0  0  0  0  0  0  0
    5.9290    9.1530   23.1930 C   0  0  0  0  0  0  0  0  0  0  0  0
    6.1640   10.3970   22.6000 C   0  0  0  0  0  0  0  0  0  0  0  0
    7.0660   11.2930   23.1950 C   0  0  0  0  0  0  0  0  0  0  0  0
    7.7310   10.9500   24.3750 C   0  0  0  0  0  0  0  0  0  0  0  0
    7.4910    9.7170   24.9500 C   0  0  0  0  0  0  0  0  0  0  0  0
    6.5640    8.7580   24.3690 C   0  0  0  0  0  0  0  0  0  0  0  0
    8.8050    6.2120   26.1770 C   0  0  0  0  0  0  0  0  0  0  0  0
    9.7990    6.3650   25.4740 O   0  0  0  0  0  0  0  0  0  0  0  0
    8.8180    6.6010   27.4670 O   0  0  0  0  0  0  0  0  0  0  0  0
  2  1  1  1
  2  3  1  0
  3  4  1  0
  4  5  2  0
  5  6  1  0
  6  7  1  0
  7  8  1  0
  8  9  2  0
  9 10  1  0
 10 11  2  0
  4 12  1  0
  7 12  2  0
 11 12  1  0
  2 13  1  0
 13 14  2  0
 13 15  1  0
 15 16  1  0
 16 17  1  0
 17 18  1  0
 18 19  2  0
 19 20  1  0
 20 21  2  0
 21 22  1  0
 18 23  1  0
 22 23  2  0
 16 24  1  0
 24 25  2  0
 24 26  1  0
 26 27  1  0
 27 28  1  6
 28 29  1  0
 29 30  2  0
 30 31  1  0
 31 32  1  0
 32 33  1  0
 33 34  2  0
 34 35  1  0
 35 36  2  0
 29 37  1  0
 32 37  2  0
 36 37  1  0
 27 38  1  0
 38 39  2  0
 38 40  1  0
M  END
