YUN-WES-58b0dbae-2
     RDKit          3D

 45 48  0  0  0  0  0  0  0  0999 V2000
    3.2620   -3.4690   24.2220 C   0  0  0  0  0  0  0  0  0  0  0  0
    4.4050   -2.8160   24.1430 C   0  0  0  0  0  0  0  0  0  0  0  0
    4.9770   -2.5870   22.8270 C   0  0  0  0  0  0  0  0  0  0  0  0
    4.2520   -1.5120   24.9620 C   0  0  0  0  0  0  0  0  0  0  0  0
    5.3090   -0.6240   24.9150 C   0  0  2  0  0  0  0  0  0  0  0  0
    5.1170    0.3270   25.8790 N   0  0  0  0  0  0  0  0  0  0  0  0
    5.3190   -0.2940   27.0920 C   0  0  0  0  0  0  0  0  0  0  0  0
    4.6720   -0.0740   28.1170 O   0  0  0  0  0  0  0  0  0  0  0  0
    6.3550   -1.2050   27.0240 N   0  0  0  0  0  0  0  0  0  0  0  0
    6.1900   -2.6340   27.1720 C   0  0  0  0  0  0  0  0  0  0  0  0
    7.4650   -3.3770   26.7690 C   0  0  0  0  0  0  0  0  0  0  0  0
    7.9950   -4.4560   27.7350 C   0  0  0  0  0  0  0  0  0  0  0  0
    9.1630   -5.1910   27.4510 C   0  0  0  0  0  0  0  0  0  0  0  0
    9.9510   -4.9270   26.1460 C   0  0  0  0  0  0  0  0  0  0  0  0
    9.4790   -3.9610   25.2840 C   0  0  0  0  0  0  0  0  0  0  0  0
    8.2020   -3.1600   25.5980 C   0  0  0  0  0  0  0  0  0  0  0  0
    5.5740   -0.0540   23.5170 C   0  0  0  0  0  0  0  0  0  0  0  0
    4.9550    0.9000   23.0330 O   0  0  0  0  0  0  0  0  0  0  0  0
    6.5950   -0.7260   22.8650 N   0  0  0  0  0  0  0  0  0  0  0  0
    6.6190   -1.1520   21.4520 C   0  0  1  0  0  0  0  0  0  0  0  0
    7.1390   -0.0820   20.7210 C   0  0  0  0  0  0  0  0  0  0  0  0
    7.2510    1.0360   21.5410 C   0  0  2  0  0  0  0  0  0  0  0  0
    6.7730    2.2730   21.1710 C   0  0  0  0  0  0  0  0  0  0  0  0
    7.3390    3.3560   21.9120 C   0  0  0  0  0  0  0  0  0  0  0  0
    8.5540    2.7600   22.3990 N   0  0  0  0  0  0  0  0  0  0  0  0
    8.6400    1.4760   21.9200 C   0  0  0  0  0  0  0  0  0  0  0  0
    9.8530    0.7360   21.8530 O   0  0  0  0  0  0  0  0  0  0  0  0
    7.2350   -2.5770   21.4020 C   0  0  0  0  0  0  0  0  0  0  0  0
    8.4480   -2.7330   21.5700 O   0  0  0  0  0  0  0  0  0  0  0  0
    6.3720   -3.8600   21.1870 C   0  0  0  0  0  0  0  0  0  0  0  0
    5.5750   -3.8910   20.2410 O   0  0  0  0  0  0  0  0  0  0  0  0
    6.5080   -4.9230   22.0070 N   0  0  0  0  0  0  0  0  0  0  0  0
    7.2470   -4.7880   23.1320 C   0  0  0  0  0  0  0  0  0  0  0  0
    6.5330   -5.0020   24.3160 C   0  0  0  0  0  0  0  0  0  0  0  0
    5.0890   -5.4110   24.1220 N   0  0  0  0  0  0  0  0  0  0  0  0
    4.1980   -5.8120   25.5350 S   0  0  0  0  0  0  0  0  0  0  0  0
    5.0670   -5.7200   26.6760 O   0  0  0  0  0  0  0  0  0  0  0  0
    3.5070   -7.0370   25.2430 O   0  0  0  0  0  0  0  0  0  0  0  0
    2.9880   -4.5020   25.7390 C   0  0  0  0  0  0  0  0  0  0  0  0
    1.6480   -4.2750   25.1190 C   0  0  0  0  0  0  0  0  0  0  0  0
    1.0530   -3.0650   25.5810 C   0  0  0  0  0  0  0  0  0  0  0  0
    1.8540   -2.4000   26.4890 C   0  0  0  0  0  0  0  0  0  0  0  0
    3.3340   -3.2210   26.8120 S   0  0  0  0  0  0  0  0  0  0  0  0
    4.8480   -6.3880   23.0070 C   0  0  0  0  0  0  0  0  0  0  0  0
    5.8680   -6.2290   21.8840 C   0  0  0  0  0  0  0  0  0  0  0  0
  1  2  1  0
  2  3  1  0
  2  4  1  0
  5  4  1  6
  5  6  1  0
  6  7  1  0
  7  8  2  0
  7  9  1  0
  9 10  1  0
 10 11  1  0
 11 12  2  0
 12 13  1  0
 13 14  2  0
 14 15  1  0
 11 16  1  0
 15 16  2  0
  5 17  1  0
 17 18  2  0
 17 19  1  0
 19 20  1  0
 20 21  1  6
 22 21  1  6
 22 23  1  0
 23 24  1  0
 24 25  1  0
 22 26  1  0
 25 26  1  0
 26 27  2  0
 20 28  1  0
 28 29  2  0
 28 30  1  0
 30 31  2  0
 30 32  1  0
 32 33  1  0
 33 34  1  0
 34 35  1  0
 35 36  1  0
 36 37  2  0
 36 38  2  0
 36 39  1  0
 39 40  2  0
 40 41  1  0
 41 42  2  0
 39 43  1  0
 42 43  1  0
 35 44  1  0
 32 45  1  0
 44 45  1  0
M  END
