YUN-WES-58b0dbae-8
     RDKit          3D

 41 43  0  0  0  0  0  0  0  0999 V2000
   -4.5650   -4.1970   28.0860 C   0  0  0  0  0  0  0  0  0  0  0  0
   -3.7390   -3.4880   29.0040 O   0  0  0  0  0  0  0  0  0  0  0  0
   -2.5440   -4.0720   29.3250 C   0  0  0  0  0  0  0  0  0  0  0  0
   -2.2560   -4.7090   30.5330 C   0  0  0  0  0  0  0  0  0  0  0  0
   -0.8950   -5.3040   30.7410 C   0  0  0  0  0  0  0  0  0  0  0  0
   -0.6160   -5.9170   31.9000 F   0  0  0  0  0  0  0  0  0  0  0  0
    0.0720   -5.2240   29.7490 C   0  0  0  0  0  0  0  0  0  0  0  0
   -0.2780   -4.5290   28.4620 C   0  0  0  0  0  0  0  0  0  0  0  0
    0.6070   -4.3780   27.3760 N   0  0  0  0  0  0  0  0  0  0  0  0
    1.4800   -5.3220   26.8590 C   0  0  0  0  0  0  0  0  0  0  0  0
    1.6850   -6.4640   27.2360 O   0  0  0  0  0  0  0  0  0  0  0  0
    2.2470   -4.7820   25.6680 C   0  0  0  0  0  0  0  0  0  0  0  0
    2.4810   -3.5740   25.6340 O   0  0  0  0  0  0  0  0  0  0  0  0
    2.6930   -5.7840   24.5950 C   0  0  2  0  0  0  0  0  0  0  0  0
    3.5700   -5.1180   23.5160 C   0  0  0  0  0  0  0  0  0  0  0  0
    5.0150   -5.5850   23.4980 C   0  0  2  0  0  0  0  0  0  0  0  0
    5.9920   -4.9120   24.2590 C   0  0  0  0  0  0  0  0  0  0  0  0
    7.1610   -4.5540   23.5870 C   0  0  0  0  0  0  0  0  0  0  0  0
    6.7160   -4.5840   22.2390 N   0  0  0  0  0  0  0  0  0  0  0  0
    5.6420   -5.4350   22.1110 C   0  0  0  0  0  0  0  0  0  0  0  0
    5.2890   -5.9440   21.0750 O   0  0  0  0  0  0  0  0  0  0  0  0
    1.5350   -6.5100   24.0150 N   0  0  0  0  0  0  0  0  0  0  0  0
    0.3680   -5.8780   23.5980 C   0  0  0  0  0  0  0  0  0  0  0  0
    0.0310   -4.7750   24.0280 O   0  0  0  0  0  0  0  0  0  0  0  0
   -0.4240   -6.5660   22.6550 C   0  0  2  0  0  0  0  0  0  0  0  0
   -1.4050   -5.5700   22.0000 C   0  0  0  0  0  0  0  0  0  0  0  0
   -1.9450   -5.8780   20.5790 C   0  0  0  0  0  0  0  0  0  0  0  0
   -3.4600   -6.0570   20.6310 C   0  0  0  0  0  0  0  0  0  0  0  0
   -1.3270   -7.0900   19.8830 C   0  0  0  0  0  0  0  0  0  0  0  0
   -1.1730   -7.5880   23.4100 N   0  0  0  0  0  0  0  0  0  0  0  0
   -1.2990   -8.8660   22.9000 C   0  0  0  0  0  0  0  0  0  0  0  0
   -0.3650   -9.5000   22.4200 O   0  0  0  0  0  0  0  0  0  0  0  0
   -2.5850   -9.3390   23.0060 N   0  0  0  0  0  0  0  0  0  0  0  0
   -2.8540  -10.6300   23.6120 C   0  0  0  0  0  0  0  0  0  0  0  0
   -3.1110  -11.6880   22.5620 C   0  0  0  0  0  0  0  0  0  0  0  0
   -4.1180  -11.5010   21.6000 C   0  0  0  0  0  0  0  0  0  0  0  0
   -4.3580  -12.4710   20.6260 C   0  0  0  0  0  0  0  0  0  0  0  0
   -3.5970  -13.6360   20.6020 C   0  0  0  0  0  0  0  0  0  0  0  0
   -2.5960  -13.8360   21.5520 C   0  0  0  0  0  0  0  0  0  0  0  0
   -2.3530  -12.8690   22.5300 C   0  0  0  0  0  0  0  0  0  0  0  0
   -1.5700   -3.9880   28.3140 C   0  0  0  0  0  0  0  0  0  0  0  0
  1  2  1  0
  2  3  1  0
  3  4  2  0
  4  5  1  0
  5  6  1  0
  5  7  2  0
  7  8  1  0
  8  9  1  0
  9 10  1  0
 10 11  2  0
 10 12  1  0
 12 13  2  0
 12 14  1  0
 14 15  1  6
 16 15  1  6
 16 17  1  0
 17 18  1  0
 18 19  1  0
 16 20  1  0
 19 20  1  0
 20 21  2  0
 14 22  1  0
 22 23  1  0
 23 24  2  0
 23 25  1  0
 25 26  1  1
 26 27  1  0
 27 28  1  0
 27 29  1  0
 25 30  1  0
 30 31  1  0
 31 32  2  0
 31 33  1  0
 33 34  1  0
 34 35  1  0
 35 36  2  0
 36 37  1  0
 37 38  2  0
 38 39  1  0
 35 40  1  0
 39 40  2  0
  3 41  1  0
  8 41  2  0
M  END
